/Users/jonathanwahrer/Desktop/Msc/3_Semester/Drug_Design_Praktikum/waehrer_HTS_screening/HTS_experiment/out/docking_results/vina_output/3e7o/0002_docked.pdbqt
 OpenBabel03192215133D

 38 41  0  0  0  0  0  0  0  0999 V2000
  -39.3340  -67.1660   50.2950 C   0  0  0  0  0  0  0  0  0  0  0  0
  -38.6360  -66.6690   49.2150 N   0  0  0  0  0  0  0  0  0  0  0  0
  -37.4200  -67.1060   49.2950 N   0  0  0  0  0  0  0  0  0  0  0  0
  -37.2920  -67.8830   50.4050 N   0  0  0  0  0  0  0  0  0  0  0  0
  -38.4580  -67.9400   51.0450 C   0  0  0  0  0  0  0  0  0  0  0  0
  -40.7310  -66.8810   50.5150 C   0  0  0  0  0  0  0  0  0  0  0  0
  -41.3480  -66.0200   51.4310 N   0  0  0  0  0  0  0  0  0  0  0  0
  -40.8720  -65.4390   52.1010 H   0  0  0  0  0  0  0  0  0  0  0  0
  -41.5400  -67.5340   49.7260 O   0  0  0  0  0  0  0  0  0  0  0  0
  -42.7840  -65.9680   51.3920 N   0  0  0  0  0  0  0  0  0  0  0  0
  -43.4690  -66.1550   52.4570 C   0  0  0  0  0  3  0  0  0  0  0  0
  -44.9370  -66.1110   52.4680 C   0  0  0  0  0  0  0  0  0  0  0  0
  -45.7040  -67.1020   53.0450 C   0  0  0  0  0  3  0  0  0  0  0  0
  -47.0880  -67.0530   53.0510 C   0  0  0  0  0  0  0  0  0  0  0  0
  -47.7540  -65.9940   52.4730 C   0  0  0  0  0  0  0  0  0  0  0  0
  -48.1480  -68.4280   53.8510 Br  0  0  0  0  0  0  0  0  0  0  0  0
  -46.9900  -64.9990   51.8950 C   0  0  0  0  0  0  0  0  0  0  0  0
  -49.1470  -65.9110   52.4610 O   0  0  0  0  0  1  0  0  0  0  0  0
  -47.8910  -63.5110   51.0810 Br  0  0  0  0  0  0  0  0  0  0  0  0
  -45.6110  -65.0540   51.8920 C   0  0  0  0  0  0  0  0  0  0  0  0
  -44.8260  -64.0450   51.3050 O   0  0  0  0  0  0  0  0  0  0  0  0
  -44.4300  -63.3240   51.8890 H   0  0  0  0  0  0  0  0  0  0  0  0
  -38.8010  -68.6530   52.2750 C   0  0  0  0  0  2  0  0  0  0  0  0
  -39.7880  -69.6660   52.2480 N   0  0  0  0  0  4  0  0  0  0  0  0
  -40.9920  -69.3190   52.9880 C   0  0  0  0  0  2  0  0  0  0  0  0
  -40.6700  -68.8740   54.3590 C   0  0  0  0  0  2  0  0  0  0  0  0
  -39.6280  -69.3890   55.0140 O   0  0  0  0  0  0  0  0  0  0  0  0
  -38.8220  -70.2890   54.3950 C   0  0  0  0  0  2  0  0  0  0  0  0
  -39.2570  -70.7940   53.0800 C   0  0  0  0  0  2  0  0  0  0  0  0
  -39.9780  -70.0170   51.3210 H   0  0  0  0  0  0  0  0  0  0  0  0
  -36.0250  -68.4720   50.7090 C   0  0  0  0  0  0  0  0  0  0  0  0
  -35.6830  -69.7050   51.0610 N   0  0  0  0  0  0  0  0  0  0  0  0
  -34.3970  -69.7320   51.1890 O   0  0  0  0  0  0  0  0  0  0  0  0
  -33.8640  -68.5770   50.9390 N   0  0  0  0  0  0  0  0  0  0  0  0
  -34.8360  -67.7310   50.6270 C   0  0  0  0  0  0  0  0  0  0  0  0
  -34.7580  -66.3580   50.2780 N   0  0  0  0  0  0  0  0  0  0  0  0
  -33.8320  -65.9370   50.0590 H   0  0  0  0  0  0  0  0  0  0  0  0
  -35.6130  -65.7330   50.2300 H   0  0  0  0  0  0  0  0  0  0  0  0
  1  6  1  0  0  0  0
  1  5  2  0  0  0  0
  2  3  2  0  0  0  0
  2  1  1  0  0  0  0
  3  4  1  0  0  0  0
  4 31  1  0  0  0  0
  4  5  1  0  0  0  0
  5 23  1  0  0  0  0
  6  7  1  0  0  0  0
  7  8  1  0  0  0  0
  9  6  2  0  0  0  0
 10  7  1  0  0  0  0
 10 11  2  0  0  0  0
 11 12  1  0  0  0  0
 12 13  1  0  0  0  0
 13 14  2  0  0  0  0
 14 16  1  0  0  0  0
 15 14  1  0  0  0  0
 17 15  2  0  0  0  0
 18 15  1  0  0  0  0
 19 17  1  0  0  0  0
 20 17  1  0  0  0  0
 20 12  2  0  0  0  0
 21 22  1  0  0  0  0
 21 20  1  0  0  0  0
 24 23  1  0  0  0  0
 24 25  1  0  0  0  0
 24 29  1  0  0  0  0
 25 26  1  0  0  0  0
 26 27  1  0  0  0  0
 28 27  1  0  0  0  0
 29 28  1  0  0  0  0
 30 24  1  0  0  0  0
 31 32  2  0  0  0  0
 32 33  1  0  0  0  0
 34 33  1  0  0  0  0
 35 31  1  0  0  0  0
 35 34  2  0  0  0  0
 36 35  1  0  0  0  0
 37 36  1  0  0  0  0
 38 36  1  0  0  0  0
M  END
>  <Pose>
1

>  <Score>
-7.919

$$$$
