/Users/jonathanwahrer/Desktop/Msc/3_Semester/Drug_Design_Praktikum/waehrer_HTS_screening/HTS_experiment/out/docking_results/vina_output/3e7o/0004_docked.pdbqt
 OpenBabel03192215143D

 34 37  0  0  0  0  0  0  0  0999 V2000
  -38.0250  -64.2950   49.3760 C   0  0  0  0  0  0  0  0  0  0  0  0
  -37.5660  -65.5190   49.6270 N   0  0  0  0  0  4  0  0  0  0  0  0
  -36.2740  -65.8830   49.3880 C   0  0  0  0  0  0  0  0  0  0  0  0
  -35.4820  -64.9390   48.8840 N   0  0  0  0  0  0  0  0  0  0  0  0
  -35.8650  -63.6740   48.6010 C   0  0  0  0  0  0  0  0  0  0  0  0
  -37.1760  -63.3930   48.8690 N   0  0  0  0  0  2  0  0  0  0  0  0
  -39.3800  -63.9540   49.6400 N   0  0  0  0  0  0  0  0  0  0  0  0
  -39.9310  -63.2970   49.0770 H   0  0  0  0  0  0  0  0  0  0  0  0
  -40.0340  -64.5450   50.7380 N   0  0  0  0  0  0  0  0  0  0  0  0
  -40.7800  -65.5730   50.6350 C   0  0  0  0  0  3  0  0  0  0  0  0
  -41.4650  -66.2000   51.7530 C   0  0  0  0  0  0  0  0  0  0  0  0
  -40.7720  -67.0250   52.6070 C   0  0  0  0  0  3  0  0  0  0  0  0
  -41.4000  -67.6340   53.6790 C   0  0  0  0  0  0  0  0  0  0  0  0
  -42.7410  -67.4410   53.9310 C   0  0  0  0  0  0  0  0  0  0  0  0
  -40.4110  -68.7780   54.8540 Br  0  0  0  0  0  0  0  0  0  0  0  0
  -43.4460  -66.6140   53.0780 C   0  0  0  0  0  0  0  0  0  0  0  0
  -45.3050  -66.3500   53.4340 Br  0  0  0  0  0  0  0  0  0  0  0  0
  -42.8070  -66.0080   52.0070 C   0  0  0  0  0  0  0  0  0  0  0  0
  -43.3900  -68.0460   55.0050 O   0  0  0  0  0  0  0  0  0  0  0  0
  -42.9640  -68.8350   55.4610 H   0  0  0  0  0  0  0  0  0  0  0  0
  -43.5210  -65.1880   51.1660 O   0  0  0  0  0  0  0  0  0  0  0  0
  -43.1070  -64.8440   50.2940 H   0  0  0  0  0  0  0  0  0  0  0  0
  -35.8070  -67.1860   49.6620 N   0  0  0  0  0  0  0  0  0  0  0  0
  -36.7170  -68.2970   49.6630 C   0  0  0  0  0  2  0  0  0  0  0  0
  -36.4390  -69.1080   50.9190 C   0  0  0  0  0  2  0  0  0  0  0  0
  -35.0800  -69.3330   51.1030 O   0  0  0  0  0  0  0  0  0  0  0  0
  -34.3490  -68.1770   51.2630 C   0  0  0  0  0  2  0  0  0  0  0  0
  -34.4160  -67.4040   49.9400 C   0  0  0  0  0  2  0  0  0  0  0  0
  -34.9920  -62.7080   48.0680 N   0  0  0  0  0  0  0  0  0  0  0  0
  -35.4360  -61.7970   47.0600 C   0  0  0  0  0  2  0  0  0  0  0  0
  -34.4220  -61.8620   45.9140 C   0  0  0  0  0  2  0  0  0  0  0  0
  -33.4470  -62.8110   46.1400 O   0  0  0  0  0  0  0  0  0  0  0  0
  -32.7390  -62.6320   47.3030 C   0  0  0  0  0  2  0  0  0  0  0  0
  -33.6410  -62.6260   48.5310 C   0  0  0  0  0  2  0  0  0  0  0  0
  1  2  2  0  0  0  0
  1  7  1  0  0  0  0
  3  2  2  0  0  0  0
  3 23  1  0  0  0  0
  4  3  1  0  0  0  0
  5  6  1  0  0  0  0
  5  4  2  0  0  0  0
  6  1  1  0  0  0  0
  7  9  1  0  0  0  0
  8  7  1  0  0  0  0
 10  9  2  0  0  0  0
 10 11  1  0  0  0  0
 11 18  2  0  0  0  0
 11 12  1  0  0  0  0
 12 13  2  0  0  0  0
 13 14  1  0  0  0  0
 13 15  1  0  0  0  0
 14 19  1  0  0  0  0
 16 17  1  0  0  0  0
 16 14  2  0  0  0  0
 18 16  1  0  0  0  0
 19 20  1  0  0  0  0
 21 18  1  0  0  0  0
 22 21  1  0  0  0  0
 23 24  1  0  0  0  0
 23 28  1  0  0  0  0
 24 25  1  0  0  0  0
 25 26  1  0  0  0  0
 26 27  1  0  0  0  0
 28 27  1  0  0  0  0
 29 34  1  0  0  0  0
 29  5  1  0  0  0  0
 30 29  1  0  0  0  0
 31 32  1  0  0  0  0
 31 30  1  0  0  0  0
 32 33  1  0  0  0  0
 33 34  1  0  0  0  0
M  END
>  <Pose>
1

>  <Score>
-8.209

$$$$
