/Users/jonathanwahrer/Desktop/Msc/3_Semester/Drug_Design_Praktikum/waehrer_HTS_screening/HTS_experiment/out/docking_results/vina_output/3e7o/0005_docked.pdbqt
 OpenBabel03192215153D

 38 41  0  0  1  0  0  0  0  0999 V2000
  -45.5520  -65.5430   52.8350 N   0  0  0  0  0  0  0  0  0  0  0  0
  -45.2460  -64.6460   51.8610 C   0  0  0  0  0  0  0  0  0  0  0  0
  -46.2710  -64.5870   50.9550 C   0  0  0  0  0  0  0  0  0  0  0  0
  -47.1730  -65.4390   51.3950 N   0  0  0  0  0  0  0  0  0  0  0  0
  -46.7690  -66.0410   52.5470 C   0  0  0  0  0  0  0  0  0  0  0  0
  -46.2860  -63.7690   49.8580 N   0  0  0  0  0  0  0  0  0  0  0  0
  -45.2170  -62.9820   49.6840 C   0  0  0  0  0  0  0  0  0  0  0  0
  -45.2330  -62.2280   48.6700 O   0  0  0  0  0  0  0  0  0  0  0  0
  -44.1840  -63.0000   50.5480 N   0  0  0  0  0  2  0  0  0  0  0  0
  -44.1550  -63.7970   51.6280 C   0  0  0  0  0  0  0  0  0  0  0  0
  -43.0900  -63.7920   52.4990 O   0  0  0  0  0  0  0  0  0  0  0  0
  -47.4280  -63.7970   48.9550 C   0  0  0  0  0  1  0  0  0  0  0  0
  -44.7320  -65.8750   53.9450 C   0  0  0  0  0  2  0  0  0  0  0  0
  -43.7450  -66.9400   53.9000 C   0  0  1  0  0  3  0  0  0  0  0  0
  -42.3440  -66.7930   53.4820 C   0  0  0  0  0  2  0  0  0  0  0  0
  -41.9360  -67.9110   52.6960 O   0  0  0  0  0  0  0  0  0  0  0  0
  -40.6650  -68.2880   52.4350 C   0  0  0  0  0  0  0  0  0  0  0  0
  -40.0960  -67.9560   51.1960 C   0  0  0  0  0  0  0  0  0  0  0  0
  -41.1770  -66.9790   49.9550 Br  0  0  0  0  0  0  0  0  0  0  0  0
  -38.8110  -68.3140   50.8760 C   0  0  0  0  0  3  0  0  0  0  0  0
  -38.0360  -69.0180   51.7730 C   0  0  0  0  0  0  0  0  0  0  0  0
  -38.5720  -69.3550   52.9940 C   0  0  0  0  0  3  0  0  0  0  0  0
  -36.2640  -69.4720   51.2420 Br  0  0  0  0  0  0  0  0  0  0  0  0
  -39.8860  -68.9810   53.3030 C   0  0  0  0  0  0  0  0  0  0  0  0
  -40.5410  -69.5030   54.9900 Br  0  0  0  0  0  0  0  0  0  0  0  0
  -43.7500  -67.9090   54.9200 O   0  0  0  0  0  0  0  0  0  0  0  0
  -42.9800  -67.8230   55.5100 H   0  0  0  0  0  0  0  0  0  0  0  0
  -47.6270  -66.9260   53.2890 N   0  0  0  0  0  0  0  0  0  0  0  0
  -47.3530  -68.2490   53.7020 C   0  0  0  0  0  2  0  0  0  0  0  0
  -48.5590  -68.7370   54.5510 C   0  0  0  0  0  2  0  0  0  0  0  0
  -49.6830  -68.7190   53.6350 N   0  0  0  0  0  4  0  0  0  0  0  0
  -50.0740  -67.2970   53.6150 C   0  0  0  0  0  2  0  0  0  0  0  0
  -49.4280  -68.9520   52.6520 H   0  0  0  0  0  0  0  0  0  0  0  0
  -48.9240  -66.3760   53.7050 C   0  0  0  0  0  2  0  0  0  0  0  0
  -50.7860  -69.5210   54.1260 C   0  0  0  0  0  2  0  0  0  0  0  0
  -50.6290  -70.9340   53.6080 C   0  0  0  0  0  2  0  0  0  0  0  0
  -50.5510  -71.8130   54.6950 O   0  0  0  0  0  0  0  0  0  0  0  0
  -50.8970  -72.7140   54.4460 H   0  0  0  0  0  0  0  0  0  0  0  0
  1 13  1  0  0  0  0
  2  1  1  0  0  0  0
  3  4  1  0  0  0  0
  3  2  2  0  0  0  0
  4  5  2  0  0  0  0
  5  1  1  0  0  0  0
  5 28  1  0  0  0  0
  6  3  1  0  0  0  0
  7  6  1  0  0  0  0
  7  9  1  0  0  0  0
  8  7  2  0  0  0  0
  9 10  1  0  0  0  0
 10  2  1  0  0  0  0
 10 11  2  0  0  0  0
 12  6  1  0  0  0  0
 14 15  1  1  0  0  0
 14 13  1  0  0  0  0
 14 26  1  0  0  0  0
 16 15  1  0  0  0  0
 17 16  1  0  0  0  0
 17 24  1  0  0  0  0
 18 17  2  0  0  0  0
 19 18  1  0  0  0  0
 20 18  1  0  0  0  0
 20 21  2  0  0  0  0
 21 22  1  0  0  0  0
 22 24  2  0  0  0  0
 23 21  1  0  0  0  0
 24 25  1  0  0  0  0
 26 27  1  0  0  0  0
 28 29  1  0  0  0  0
 28 34  1  0  0  0  0
 29 30  1  0  0  0  0
 31 35  1  0  0  0  0
 31 30  1  0  0  0  0
 32 31  1  0  0  0  0
 32 34  1  0  0  0  0
 33 31  1  0  0  0  0
 36 35  1  0  0  0  0
 36 37  1  0  0  0  0
 38 37  1  0  0  0  0
M  END
>  <Pose>
1

>  <Score>
-7.645

$$$$
