/Users/jonathanwahrer/Desktop/Msc/3_Semester/Drug_Design_Praktikum/waehrer_HTS_screening/HTS_experiment/out/docking_results/vina_output/3e7o/0006_docked.pdbqt
 OpenBabel03192215153D

 34 37  0  0  0  0  0  0  0  0999 V2000
  -41.2290  -67.3620   52.2770 N   0  0  0  0  0  0  0  0  0  0  0  0
  -40.4750  -68.3510   52.8250 C   0  0  0  0  0  0  0  0  0  0  0  0
  -40.7460  -68.4630   54.1600 C   0  0  0  0  0  0  0  0  0  0  0  0
  -41.6750  -67.5280   54.4130 N   0  0  0  0  0  0  0  0  0  0  0  0
  -41.9740  -66.8510   53.2590 C   0  0  0  0  0  0  0  0  0  0  0  0
  -40.0750  -69.4180   54.8950 C   0  0  0  0  0  3  0  0  0  0  0  0
  -39.1390  -70.2630   54.3210 C   0  0  0  0  0  3  0  0  0  0  0  0
  -38.8860  -70.1260   52.9680 C   0  0  0  0  0  3  0  0  0  0  0  0
  -39.5560  -69.1710   52.2300 C   0  0  0  0  0  3  0  0  0  0  0  0
  -41.2450  -66.9320   50.9140 C   0  0  0  0  0  2  0  0  0  0  0  0
  -40.0980  -66.1810   50.4660 C   0  0  0  0  0  0  0  0  0  0  0  0
  -39.0260  -66.7550   49.7400 N   0  0  0  0  0  0  0  0  0  0  0  0
  -39.0830  -67.7740   49.5270 H   0  0  0  0  0  0  0  0  0  0  0  0
  -40.0160  -64.9550   50.7170 O   0  0  0  0  0  0  0  0  0  0  0  0
  -37.9130  -66.0600   49.2980 N   0  0  0  0  0  0  0  0  0  0  0  0
  -36.7090  -66.4440   49.4890 C   0  0  0  0  0  3  0  0  0  0  0  0
  -35.6190  -65.6350   48.9810 C   0  0  0  0  0  0  0  0  0  0  0  0
  -34.3540  -66.1350   48.9580 C   0  0  0  0  0  0  0  0  0  0  0  0
  -33.3240  -65.3570   48.4720 C   0  0  0  0  0  0  0  0  0  0  0  0
  -34.0910  -67.4140   49.4150 O   0  0  0  0  0  1  0  0  0  0  0  0
  -31.5670  -66.0740   48.4480 Br  0  0  0  0  0  0  0  0  0  0  0  0
  -33.5750  -64.0760   48.0130 C   0  0  0  0  0  3  0  0  0  0  0  0
  -34.8580  -63.5900   48.0460 C   0  0  0  0  0  0  0  0  0  0  0  0
  -35.9030  -64.3440   48.5230 C   0  0  0  0  0  3  0  0  0  0  0  0
  -35.1900  -61.8180   47.4060 Br  0  0  0  0  0  0  0  0  0  0  0  0
  -42.9480  -65.7690   53.1830 C   0  0  0  0  0  0  0  0  0  0  0  0
  -42.6910  -64.5150   52.7910 N   0  0  0  0  0  0  0  0  0  0  0  0
  -43.8080  -63.8130   52.8470 O   0  0  0  0  0  0  0  0  0  0  0  0
  -44.7840  -64.5570   53.2610 N   0  0  0  0  0  0  0  0  0  0  0  0
  -44.2910  -65.7950   53.4850 C   0  0  0  0  0  0  0  0  0  0  0  0
  -45.0180  -66.9190   53.9450 N   0  0  0  0  0  4  0  0  0  0  0  0
  -45.1370  -67.6410   53.2220 H   0  0  0  0  0  0  0  0  0  0  0  0
  -45.9860  -66.5660   54.1770 H   0  0  0  0  0  0  0  0  0  0  0  0
  -44.6220  -67.3240   54.8340 H   0  0  0  0  0  0  0  0  0  0  0  0
  1  2  1  0  0  0  0
  1  5  1  0  0  0  0
  2  3  1  0  0  0  0
  3  4  1  0  0  0  0
  3  6  2  0  0  0  0
  5  4  2  0  0  0  0
  7  6  1  0  0  0  0
  8  7  2  0  0  0  0
  9  2  2  0  0  0  0
  9  8  1  0  0  0  0
 10  1  1  0  0  0  0
 11 14  2  0  0  0  0
 11 10  1  0  0  0  0
 12 11  1  0  0  0  0
 13 12  1  0  0  0  0
 15 16  2  0  0  0  0
 15 12  1  0  0  0  0
 17 16  1  0  0  0  0
 18 17  1  0  0  0  0
 18 20  1  0  0  0  0
 19 18  2  0  0  0  0
 21 19  1  0  0  0  0
 22 23  2  0  0  0  0
 22 19  1  0  0  0  0
 23 24  1  0  0  0  0
 24 17  2  0  0  0  0
 25 23  1  0  0  0  0
 26  5  1  0  0  0  0
 26 30  1  0  0  0  0
 27 28  1  0  0  0  0
 27 26  2  0  0  0  0
 28 29  1  0  0  0  0
 29 30  2  0  0  0  0
 30 31  1  0  0  0  0
 31 33  1  0  0  0  0
 31 34  1  0  0  0  0
 32 31  1  0  0  0  0
M  END
>  <Pose>
1

>  <Score>
-8.595

$$$$
