/Users/jonathanwahrer/Desktop/Msc/3_Semester/Drug_Design_Praktikum/waehrer_HTS_screening/HTS_experiment/out/docking_results/vina_output/3e7o/0011_docked.pdbqt
 OpenBabel03192215153D

 36 39  0  0  0  0  0  0  0  0999 V2000
  -35.7530  -66.1360   49.0860 N   0  0  0  0  0  0  0  0  0  0  0  0
  -35.9840  -67.3080   49.7910 C   0  0  0  0  0  0  0  0  0  0  0  0
  -34.9210  -67.5060   50.5890 C   0  0  0  0  0  0  0  0  0  0  0  0
  -34.0860  -66.4990   50.3800 N   0  0  0  0  0  0  0  0  0  0  0  0
  -34.6000  -65.6280   49.4310 C   0  0  0  0  0  0  0  0  0  0  0  0
  -34.8170  -68.5920   51.4440 C   0  0  0  0  0  3  0  0  0  0  0  0
  -35.8690  -69.4760   51.4390 C   0  0  0  0  0  3  0  0  0  0  0  0
  -36.9830  -69.3230   50.6370 C   0  0  0  0  0  3  0  0  0  0  0  0
  -37.0350  -68.2120   49.7980 C   0  0  0  0  0  3  0  0  0  0  0  0
  -36.7190  -65.6630   48.1830 C   0  0  0  0  0  2  0  0  0  0  0  0
  -37.6510  -64.6120   48.8260 C   0  0  0  0  0  0  0  0  0  0  0  0
  -38.6550  -65.2100   49.5130 N   0  0  0  0  0  0  0  0  0  0  0  0
  -39.1150  -63.9290   49.8670 H   0  0  0  0  0  0  0  0  0  0  0  0
  -37.3020  -63.4580   48.5870 O   0  0  0  0  0  0  0  0  0  0  0  0
  -39.5690  -65.7510   50.1400 N   0  0  0  0  0  2  0  0  0  0  0  0
  -40.4910  -66.2720   50.6640 C   0  0  0  0  0  2  0  0  0  0  0  0
  -40.6730  -67.0000   51.8730 C   0  0  0  0  0  0  0  0  0  0  0  0
  -41.7100  -66.6570   52.7520 C   0  0  0  0  0  3  0  0  0  0  0  0
  -41.9880  -67.2940   53.9270 C   0  0  0  0  0  0  0  0  0  0  0  0
  -41.1640  -68.3880   54.2880 C   0  0  0  0  0  0  0  0  0  0  0  0
  -40.1310  -68.7570   53.4540 C   0  0  0  0  0  0  0  0  0  0  0  0
  -41.4480  -69.0240   55.4610 O   0  0  0  0  0  1  0  0  0  0  0  0
  -39.0270  -70.2360   53.8950 Br  0  0  0  0  0  0  0  0  0  0  0  0
  -39.9050  -68.0690   52.2770 C   0  0  0  0  0  3  0  0  0  0  0  0
  -43.0170  -66.9480   54.7810 O   0  0  0  0  0  0  0  0  0  0  0  0
  -44.1500  -66.2660   54.3630 C   0  0  0  0  0  2  0  0  0  0  0  0
  -45.1960  -67.0860   53.6620 C   0  0  0  0  0  1  0  0  0  0  0  0
  -33.7870  -64.4660   49.1200 C   0  0  0  0  0  0  0  0  0  0  0  0
  -34.3120  -63.1760   49.0890 N   0  0  0  0  0  0  0  0  0  0  0  0
  -33.4020  -62.3300   48.8190 O   0  0  0  0  0  0  0  0  0  0  0  0
  -32.2840  -62.9150   48.6550 N   0  0  0  0  0  0  0  0  0  0  0  0
  -32.4840  -64.2650   48.8390 C   0  0  0  0  0  0  0  0  0  0  0  0
  -31.4260  -65.1940   48.7480 N   0  0  0  0  0  4  0  0  0  0  0  0
  -31.8470  -66.1940   48.8320 H   0  0  0  0  0  0  0  0  0  0  0  0
  -30.8220  -65.1230   49.5760 H   0  0  0  0  0  0  0  0  0  0  0  0
  -31.0130  -65.2080   47.8200 H   0  0  0  0  0  0  0  0  0  0  0  0
  1  5  1  0  0  0  0
  1  2  1  0  0  0  0
  2  9  2  0  0  0  0
  2  3  1  0  0  0  0
  3  6  2  0  0  0  0
  4  3  1  0  0  0  0
  5  4  2  0  0  0  0
  7  6  1  0  0  0  0
  8  7  2  0  0  0  0
  9  8  1  0  0  0  0
 10 11  1  0  0  0  0
 10  1  1  0  0  0  0
 11 12  1  0  0  0  0
 12 13  1  0  0  0  0
 12 15  1  0  0  0  0
 14 11  2  0  0  0  0
 15 16  1  0  0  0  0
 16 17  1  0  0  0  0
 17 24  2  0  0  0  0
 17 18  1  0  0  0  0
 18 19  2  0  0  0  0
 19 20  1  0  0  0  0
 19 25  1  0  0  0  0
 20 22  1  0  0  0  0
 21 23  1  0  0  0  0
 21 20  2  0  0  0  0
 24 21  1  0  0  0  0
 26 25  1  0  0  0  0
 27 26  1  0  0  0  0
 28  5  1  0  0  0  0
 29 28  2  0  0  0  0
 30 29  1  0  0  0  0
 31 30  1  0  0  0  0
 31 32  2  0  0  0  0
 32 28  1  0  0  0  0
 33 34  1  0  0  0  0
 33 32  1  0  0  0  0
 33 35  1  0  0  0  0
 36 33  1  0  0  0  0
M  END
>  <Pose>
1

>  <Score>
-8.855

$$$$
