/Users/jonathanwahrer/Desktop/Msc/3_Semester/Drug_Design_Praktikum/waehrer_HTS_screening/HTS_experiment/out/docking_results/vina_output/3e7o/0018_docked.pdbqt
 OpenBabel03192215163D

 37 40  0  0  0  0  0  0  0  0999 V2000
  -37.2910  -64.6670   48.1980 C   0  0  0  0  0  0  0  0  0  0  0  0
  -36.9880  -64.1450   47.0630 N   0  0  0  0  0  0  0  0  0  0  0  0
  -35.7810  -64.5380   46.6920 N   0  0  0  0  0  0  0  0  0  0  0  0
  -35.2870  -65.3360   47.6270 N   0  0  0  0  0  0  0  0  0  0  0  0
  -36.1280  -65.4890   48.6400 C   0  0  0  0  0  0  0  0  0  0  0  0
  -38.5150  -64.9780   48.9010 C   0  0  0  0  0  0  0  0  0  0  0  0
  -38.9290  -64.1800   50.0340 N   0  0  0  0  0  0  0  0  0  0  0  0
  -38.6540  -63.6000   50.7090 H   0  0  0  0  0  0  0  0  0  0  0  0
  -39.2420  -65.8770   48.4790 O   0  0  0  0  0  0  0  0  0  0  0  0
  -40.5060  -64.4240   50.0580 N   0  0  0  0  0  2  0  0  0  0  0  0
  -40.5130  -65.0660   51.2420 C   0  0  0  0  0  2  0  0  0  0  0  0
  -41.2870  -65.6850   52.1830 C   0  0  0  0  0  0  0  0  0  0  0  0
  -42.4690  -65.2550   52.7600 C   0  0  0  0  0  3  0  0  0  0  0  0
  -43.1740  -65.9630   53.7060 C   0  0  0  0  0  0  0  0  0  0  0  0
  -42.6770  -67.1740   54.1010 C   0  0  0  0  0  0  0  0  0  0  0  0
  -41.5010  -67.6470   53.5580 C   0  0  0  0  0  0  0  0  0  0  0  0
  -40.8170  -69.3470   54.1640 Br  0  0  0  0  0  0  0  0  0  0  0  0
  -40.8150  -66.9680   52.6460 C   0  0  0  0  0  3  0  0  0  0  0  0
  -44.3550  -65.4410   54.2460 O   0  0  0  0  0  0  0  0  0  0  0  0
  -45.5870  -65.6190   53.5190 C   0  0  0  0  0  1  0  0  0  0  0  0
  -43.3540  -67.9400   55.0550 O   0  0  0  0  0  0  0  0  0  0  0  0
  -43.8330  -68.8080   54.7340 H   0  0  0  0  0  0  0  0  0  0  0  0
  -36.1750  -66.3210   49.8080 C   0  0  0  0  0  2  0  0  0  0  0  0
  -35.8750  -67.7460   49.6490 N   0  0  0  0  0  0  0  0  0  0  0  0
  -37.0490  -68.5560   49.6730 C   0  0  0  0  0  2  0  0  0  0  0  0
  -37.7470  -68.6170   51.0020 C   0  0  0  0  0  2  0  0  0  0  0  0
  -37.0170  -69.4080   51.8720 O   0  0  0  0  0  0  0  0  0  0  0  0
  -35.6700  -69.4440   51.4960 C   0  0  0  0  0  2  0  0  0  0  0  0
  -35.2530  -68.1010   50.9980 C   0  0  0  0  0  2  0  0  0  0  0  0
  -34.1960  -66.2360   47.3140 C   0  0  0  0  0  0  0  0  0  0  0  0
  -32.9460  -66.2170   47.5250 N   0  0  0  0  0  0  0  0  0  0  0  0
  -32.3230  -67.2680   46.9910 O   0  0  0  0  0  0  0  0  0  0  0  0
  -33.2320  -67.9750   46.4220 N   0  0  0  0  0  0  0  0  0  0  0  0
  -34.4390  -67.4240   46.5600 C   0  0  0  0  0  0  0  0  0  0  0  0
  -35.6690  -67.8870   46.0640 N   0  0  0  0  0  0  0  0  0  0  0  0
  -35.8620  -68.0010   45.0530 H   0  0  0  0  0  0  0  0  0  0  0  0
  -36.4790  -68.1640   46.7150 H   0  0  0  0  0  0  0  0  0  0  0  0
  1  5  2  0  0  0  0
  1  6  1  0  0  0  0
  2  1  1  0  0  0  0
  3  2  2  0  0  0  0
  3  4  1  0  0  0  0
  4  5  1  0  0  0  0
  5 23  1  0  0  0  0
  6  7  1  0  0  0  0
  7 10  1  0  0  0  0
  7  8  1  0  0  0  0
  9  6  2  0  0  0  0
 10 11  1  0  0  0  0
 11 12  1  0  0  0  0
 12 18  2  0  0  0  0
 12 13  1  0  0  0  0
 13 14  2  0  0  0  0
 14 15  1  0  0  0  0
 14 19  1  0  0  0  0
 15 21  1  0  0  0  0
 16 15  2  0  0  0  0
 16 17  1  0  0  0  0
 18 16  1  0  0  0  0
 20 19  1  0  0  0  0
 22 21  1  0  0  0  0
 24 25  1  0  0  0  0
 24 23  1  0  0  0  0
 24 29  1  0  0  0  0
 25 26  1  0  0  0  0
 26 27  1  0  0  0  0
 28 27  1  0  0  0  0
 29 28  1  0  0  0  0
 30 31  2  0  0  0  0
 30  4  1  0  0  0  0
 32 31  1  0  0  0  0
 33 34  2  0  0  0  0
 33 32  1  0  0  0  0
 34 30  1  0  0  0  0
 35 34  1  0  0  0  0
 35 37  1  0  0  0  0
 36 35  1  0  0  0  0
M  END
>  <Pose>
1

>  <Score>
-8.068

$$$$
