/Users/jonathanwahrer/Desktop/Msc/3_Semester/Drug_Design_Praktikum/waehrer_HTS_screening/HTS_experiment/out/docking_results/vina_output/3e7o/0020_docked.pdbqt
 OpenBabel03192215173D

 34 37  0  0  0  0  0  0  0  0999 V2000
  -38.8010  -65.4740   48.7000 C   0  0  0  0  0  0  0  0  0  0  0  0
  -38.0770  -66.4730   49.1670 N   0  0  0  0  0  4  0  0  0  0  0  0
  -36.7180  -66.3820   49.2380 C   0  0  0  0  0  0  0  0  0  0  0  0
  -36.1820  -65.2170   48.8050 N   0  0  0  0  0  0  0  0  0  0  0  0
  -36.8690  -64.1660   48.3170 C   0  0  0  0  0  0  0  0  0  0  0  0
  -38.2110  -64.3250   48.2710 N   0  0  0  0  0  2  0  0  0  0  0  0
  -40.2790  -65.4020   48.7830 N   0  0  0  0  0  0  0  0  0  0  0  0
  -40.6990  -64.6310   48.3020 H   0  0  0  0  0  0  0  0  0  0  0  0
  -40.7370  -66.4100   49.4820 N   0  0  0  0  0  2  0  0  0  0  0  0
  -41.1600  -67.2930   50.1060 C   0  0  0  0  0  2  0  0  0  0  0  0
  -41.1160  -67.5360   51.5620 C   0  0  0  0  0  0  0  0  0  0  0  0
  -42.0220  -67.0520   52.4610 C   0  0  0  0  0  3  0  0  0  0  0  0
  -42.0380  -67.5040   53.7740 C   0  0  0  0  0  0  0  0  0  0  0  0
  -41.1180  -68.4610   54.1960 C   0  0  0  0  0  0  0  0  0  0  0  0
  -40.2000  -68.9460   53.3060 C   0  0  0  0  0  0  0  0  0  0  0  0
  -38.9460  -70.2820   53.8780 Br  0  0  0  0  0  0  0  0  0  0  0  0
  -40.2180  -68.4780   52.0110 C   0  0  0  0  0  3  0  0  0  0  0  0
  -42.9090  -67.0710   54.7240 O   0  0  0  0  0  0  0  0  0  0  0  0
  -43.6890  -65.9280   54.7540 C   0  0  0  0  0  2  0  0  0  0  0  0
  -45.0600  -66.1320   54.1270 C   0  0  0  0  0  1  0  0  0  0  0  0
  -41.0980  -68.9430   55.4870 O   0  0  0  0  0  0  0  0  0  0  0  0
  -40.6330  -69.7740   55.7650 H   0  0  0  0  0  0  0  0  0  0  0  0
  -35.9140  -67.3940   49.8120 N   0  0  0  0  0  0  0  0  0  0  0  0
  -36.4730  -68.7410   50.0090 C   0  0  0  0  0  2  0  0  0  0  0  0
  -36.0730  -69.1300   51.4560 C   0  0  0  0  0  2  0  0  0  0  0  0
  -34.7160  -69.2690   51.4080 O   0  0  0  0  0  0  0  0  0  0  0  0
  -34.0410  -68.0920   51.2420 C   0  0  0  0  0  2  0  0  0  0  0  0
  -34.5920  -67.1350   50.2370 C   0  0  0  0  0  2  0  0  0  0  0  0
  -36.2650  -62.9530   48.0330 N   0  0  0  0  0  0  0  0  0  0  0  0
  -36.6960  -61.8980   47.2010 C   0  0  0  0  0  2  0  0  0  0  0  0
  -35.6450  -61.7550   46.0960 C   0  0  0  0  0  2  0  0  0  0  0  0
  -34.4230  -61.5740   46.7050 O   0  0  0  0  0  0  0  0  0  0  0  0
  -33.9970  -62.6070   47.5070 C   0  0  0  0  0  2  0  0  0  0  0  0
  -34.9600  -62.7250   48.7220 C   0  0  0  0  0  2  0  0  0  0  0  0
  1  7  1  0  0  0  0
  1  2  2  0  0  0  0
  2  3  2  0  0  0  0
  3 23  1  0  0  0  0
  4  3  1  0  0  0  0
  5  4  2  0  0  0  0
  6  5  1  0  0  0  0
  6  1  1  0  0  0  0
  7  9  1  0  0  0  0
  8  7  1  0  0  0  0
  9 10  1  0  0  0  0
 10 11  1  0  0  0  0
 11 17  2  0  0  0  0
 11 12  1  0  0  0  0
 12 13  2  0  0  0  0
 13 14  1  0  0  0  0
 13 18  1  0  0  0  0
 14 21  1  0  0  0  0
 15 16  1  0  0  0  0
 15 14  2  0  0  0  0
 17 15  1  0  0  0  0
 18 19  1  0  0  0  0
 20 19  1  0  0  0  0
 21 22  1  0  0  0  0
 23 24  1  0  0  0  0
 23 28  1  0  0  0  0
 24 25  1  0  0  0  0
 26 25  1  0  0  0  0
 27 26  1  0  0  0  0
 28 27  1  0  0  0  0
 29  5  1  0  0  0  0
 29 34  1  0  0  0  0
 30 29  1  0  0  0  0
 31 32  1  0  0  0  0
 31 30  1  0  0  0  0
 32 33  1  0  0  0  0
 33 34  1  0  0  0  0
M  END
>  <Pose>
1

>  <Score>
-7.872

$$$$
