/Users/jonathanwahrer/Desktop/Msc/3_Semester/Drug_Design_Praktikum/waehrer_HTS_screening/HTS_experiment/out/docking_results/vina_output/3e7o/0023_docked.pdbqt
 OpenBabel03192215173D

 37 40  0  0  1  0  0  0  0  0999 V2000
  -37.8840  -64.4210   47.7610 C   0  0  1  0  0  3  0  0  0  0  0  0
  -37.1490  -63.1980   48.0070 N   0  0  0  0  0  0  0  0  0  0  0  0
  -36.1500  -63.3820   48.9690 C   0  0  0  0  0  0  0  0  0  0  0  0
  -35.4470  -62.4940   49.4750 O   0  0  0  0  0  0  0  0  0  0  0  0
  -36.0850  -64.8120   49.2720 C   0  0  0  0  0  0  0  0  0  0  0  0
  -35.2800  -65.2920   50.1100 O   0  0  0  0  0  0  0  0  0  0  0  0
  -37.0750  -65.4860   48.4600 C   0  0  1  0  0  3  0  0  0  0  0  0
  -37.2480  -66.7790   48.4000 C   0  0  1  0  0  3  0  0  0  0  0  0
  -37.1150  -67.4320   47.1850 O   0  0  0  0  0  1  0  0  0  0  0  0
  -37.5670  -67.5640   49.5660 C   0  0  0  0  0  0  0  0  0  0  0  0
  -38.9120  -67.5140   49.9570 C   0  0  0  0  0  3  0  0  0  0  0  0
  -39.3670  -68.2410   51.0290 C   0  0  0  0  0  0  0  0  0  0  0  0
  -38.4990  -69.0350   51.7420 C   0  0  0  0  0  0  0  0  0  0  0  0
  -40.7460  -68.3210   51.6090 C   0  0  0  0  0  2  0  0  0  0  0  0
  -37.1780  -69.0680   51.3390 C   0  0  0  0  0  3  0  0  0  0  0  0
  -39.2280  -69.6590   52.7770 O   0  0  0  0  0  0  0  0  0  0  0  0
  -36.7030  -68.3470   50.2650 C   0  0  0  0  0  3  0  0  0  0  0  0
  -40.4550  -68.9580   52.9490 C   0  0  1  0  0  3  0  0  0  0  0  0
  -40.3360  -67.8430   53.9700 C   0  0  0  0  0  1  0  0  0  0  0  0
  -39.2180  -64.2660   48.3960 C   0  0  0  0  0  0  0  0  0  0  0  0
  -40.2560  -63.8910   47.5580 C   0  0  0  0  0  3  0  0  0  0  0  0
  -41.5240  -63.7220   48.0050 C   0  0  0  0  0  0  0  0  0  0  0  0
  -41.7890  -63.9330   49.3520 C   0  0  0  0  0  0  0  0  0  0  0  0
  -40.7380  -64.3120   50.1990 C   0  0  0  0  0  0  0  0  0  0  0  0
  -41.1020  -64.6000   52.0370 Br  0  0  0  0  0  0  0  0  0  0  0  0
  -39.4500  -64.4810   49.7320 C   0  0  0  0  0  3  0  0  0  0  0  0
  -42.5680  -63.3440   47.1570 O   0  0  0  0  0  0  0  0  0  0  0  0
  -42.3750  -62.9720   45.8200 C   0  0  0  0  0  1  0  0  0  0  0  0
  -43.0690  -63.7650   49.8190 O   0  0  0  0  0  0  0  0  0  0  0  0
  -43.5180  -62.8850   49.7500 H   0  0  0  0  0  0  0  0  0  0  0  0
  -37.4730  -61.9710   47.3080 C   0  0  0  0  0  2  0  0  0  0  0  0
  -36.7680  -61.7290   46.0410 C   0  0  0  0  0  2  0  0  0  0  0  0
  -35.3830  -61.2000   46.1020 C   0  0  0  0  0  2  0  0  0  0  0  0
  -34.3990  -62.0380   45.4630 N   0  0  0  0  0  4  0  0  0  0  0  0
  -35.0490  -63.2750   45.0070 C   0  0  0  0  0  1  0  0  0  0  0  0
  -33.4320  -62.4160   46.4770 C   0  0  0  0  0  1  0  0  0  0  0  0
  -33.8840  -61.5990   44.6940 H   0  0  0  0  0  0  0  0  0  0  0  0
  1  2  1  0  0  0  0
  1 20  1  1  0  0  0
  1  7  1  0  0  0  0
  2  3  1  0  0  0  0
  3  5  1  0  0  0  0
  3  4  2  0  0  0  0
  5  6  2  0  0  0  0
  7  8  1  1  0  0  0
  7  5  1  0  0  0  0
  8  9  1  1  0  0  0
  8 10  1  0  0  0  0
 10 11  2  0  0  0  0
 10 17  1  0  0  0  0
 11 12  1  0  0  0  0
 12 14  1  0  0  0  0
 12 13  2  0  0  0  0
 13 16  1  0  0  0  0
 14 18  1  0  0  0  0
 15 13  1  0  0  0  0
 16 18  1  0  0  0  0
 17 15  2  0  0  0  0
 18 19  1  1  0  0  0
 20 26  1  0  0  0  0
 21 22  1  0  0  0  0
 21 20  2  0  0  0  0
 22 23  2  0  0  0  0
 23 29  1  0  0  0  0
 23 24  1  0  0  0  0
 24 25  1  0  0  0  0
 26 24  2  0  0  0  0
 27 22  1  0  0  0  0
 28 27  1  0  0  0  0
 30 29  1  0  0  0  0
 31  2  1  0  0  0  0
 32 33  1  0  0  0  0
 32 31  1  0  0  0  0
 34 33  1  0  0  0  0
 34 36  1  0  0  0  0
 35 34  1  0  0  0  0
 37 34  1  0  0  0  0
M  END
>  <Pose>
1

>  <Score>
-7.548

$$$$
