/Users/jonathanwahrer/Desktop/Msc/3_Semester/Drug_Design_Praktikum/waehrer_HTS_screening/HTS_experiment/out/docking_results/vina_output/3e7o/0026_docked.pdbqt
 OpenBabel03192215183D

 29 32  0  0  1  0  0  0  0  0999 V2000
  -38.9880  -67.7310   49.8170 C   0  0  2  0  0  3  0  0  0  0  0  0
  -39.4060  -66.6380   49.0410 N   0  0  0  0  0  4  0  0  0  0  0  0
  -40.5740  -65.9300   49.4030 C   0  0  1  0  0  3  0  0  0  0  0  0
  -41.5320  -66.6740   50.2940 C   0  0  0  0  0  2  0  0  0  0  0  0
  -40.8340  -67.3690   51.4020 C   0  0  0  0  0  0  0  0  0  0  0  0
  -41.1870  -67.6240   52.7000 C   0  0  0  0  0  0  0  0  0  0  0  0
  -40.1100  -68.3110   53.2350 C   0  0  0  0  0  0  0  0  0  0  0  0
  -39.1550  -68.4530   52.2780 N   0  0  0  0  0  0  0  0  0  0  0  0
  -39.5960  -67.8760   51.1520 C   0  0  0  0  0  0  0  0  0  0  0  0
  -40.2120  -68.6940   54.5550 C   0  0  0  0  0  3  0  0  0  0  0  0
  -41.3300  -68.4080   55.3090 C   0  0  0  0  0  3  0  0  0  0  0  0
  -42.4020  -67.7230   54.7740 C   0  0  0  0  0  3  0  0  0  0  0  0
  -42.3170  -67.3320   53.4490 C   0  0  0  0  0  3  0  0  0  0  0  0
  -38.6260  -65.9320   48.9030 H   0  0  0  0  0  0  0  0  0  0  0  0
  -39.5460  -66.9880   48.0400 H   0  0  0  0  0  0  0  0  0  0  0  0
  -38.2590  -68.9460   52.4810 H   0  0  0  0  0  0  0  0  0  0  0  0
  -37.5150  -67.6520   50.0280 C   0  0  0  0  0  0  0  0  0  0  0  0
  -36.8140  -68.6330   50.6960 C   0  0  0  0  0  3  0  0  0  0  0  0
  -35.4550  -68.4510   50.8350 C   0  0  0  0  0  0  0  0  0  0  0  0
  -34.7740  -67.3560   50.3460 C   0  0  0  0  0  0  0  0  0  0  0  0
  -34.4550  -69.7880   51.7540 Br  0  0  0  0  0  0  0  0  0  0  0  0
  -35.4800  -66.3830   49.6810 C   0  0  0  0  0  0  0  0  0  0  0  0
  -34.5780  -64.8580   48.9920 Br  0  0  0  0  0  0  0  0  0  0  0  0
  -36.8600  -66.5480   49.5290 C   0  0  0  0  0  3  0  0  0  0  0  0
  -33.3810  -67.2440   50.5300 O   0  0  0  0  0  0  0  0  0  0  0  0
  -32.7810  -67.6150   49.8070 H   0  0  0  0  0  0  0  0  0  0  0  0
  -40.2800  -64.6290   50.0640 C   0  0  0  0  0  0  0  0  0  0  0  0
  -39.1280  -64.0960   49.9100 O   0  0  0  0  0  0  0  0  0  0  0  0
  -41.2520  -64.0160   50.8380 O   0  0  0  0  0  1  0  0  0  0  0  0
  1 17  1  1  0  0  0
  1  9  1  0  0  0  0
  2  3  1  0  0  0  0
  2  1  1  0  0  0  0
  3 27  1  1  0  0  0
  3  4  1  0  0  0  0
  4  5  1  0  0  0  0
  5  6  1  0  0  0  0
  6  7  2  0  0  0  0
  6 13  1  0  0  0  0
  7 10  1  0  0  0  0
  8 16  1  0  0  0  0
  8  7  1  0  0  0  0
  9  5  2  0  0  0  0
  9  8  1  0  0  0  0
 10 11  2  0  0  0  0
 12 11  1  0  0  0  0
 13 12  2  0  0  0  0
 14  2  1  0  0  0  0
 15  2  1  0  0  0  0
 17 18  1  0  0  0  0
 18 19  2  0  0  0  0
 19 21  1  0  0  0  0
 20 25  1  0  0  0  0
 20 19  1  0  0  0  0
 22 20  2  0  0  0  0
 23 22  1  0  0  0  0
 24 22  1  0  0  0  0
 24 17  2  0  0  0  0
 26 25  1  0  0  0  0
 27 29  1  0  0  0  0
 28 27  2  0  0  0  0
M  END
>  <Pose>
1

>  <Score>
-8.814

$$$$
