/Users/jonathanwahrer/Desktop/Msc/3_Semester/Drug_Design_Praktikum/waehrer_HTS_screening/HTS_experiment/out/docking_results/vina_output/3e7o/0031_docked.pdbqt
 OpenBabel03192215183D

 24 27  0  0  1  0  0  0  0  0999 V2000
  -41.1610  -68.2020   55.0710 Br  0  0  0  0  0  0  0  0  0  0  0  0
  -40.1220  -68.5700   53.4980 C   0  0  0  0  0  0  0  0  0  0  0  0
  -40.0640  -67.6930   52.4740 C   0  0  0  0  0  0  0  0  0  0  0  0
  -39.3410  -68.0050   51.2860 C   0  0  0  0  0  0  0  0  0  0  0  0
  -38.7290  -69.2080   51.2220 C   0  0  0  0  0  3  0  0  0  0  0  0
  -38.8100  -70.0980   52.2760 C   0  0  0  0  0  3  0  0  0  0  0  0
  -39.4950  -69.7950   53.4120 C   0  0  0  0  0  3  0  0  0  0  0  0
  -39.7080  -67.1460   50.1430 C   0  0  0  0  0  2  0  0  0  0  0  0
  -38.7820  -66.2650   49.5580 N   0  0  2  0  0  4  0  0  0  0  0  0
  -37.4240  -66.4580   49.6530 C   0  0  0  0  0  2  0  0  0  0  0  0
  -36.6720  -65.4930   48.8530 N   0  0  2  0  0  0  0  0  0  0  0  0
  -37.0280  -64.1640   49.3240 C   0  0  0  0  0  2  0  0  0  0  0  0
  -36.9910  -65.5410   47.4470 C   0  0  0  0  0  2  0  0  0  0  0  0
  -38.4570  -63.9320   49.2750 N   0  0  2  0  0  0  0  0  0  0  0  0
  -39.2120  -64.8890   49.9820 C   0  0  0  0  0  2  0  0  0  0  0  0
  -38.8590  -63.9090   47.8840 C   0  0  0  0  0  2  0  0  0  0  0  0
  -38.4840  -65.2540   47.3130 C   0  0  2  0  0  3  0  0  0  0  0  0
  -39.1860  -66.2930   48.1080 C   0  0  0  0  0  2  0  0  0  0  0  0
  -40.6850  -66.4970   52.5410 O   0  0  0  0  0  0  0  0  0  0  0  0
  -42.0770  -66.2970   52.2240 C   0  0  0  0  0  2  0  0  0  0  0  0
  -42.6020  -64.9390   52.3380 C   0  0  0  0  0  0  0  0  0  0  0  0
  -42.4840  -64.0630   51.4930 O   0  0  0  0  0  0  0  0  0  0  0  0
  -43.3270  -64.6270   53.4940 O   0  0  0  0  0  0  0  0  0  0  0  0
  -43.7970  -65.5990   54.3900 C   0  0  0  0  0  1  0  0  0  0  0  0
  2  1  1  0  0  0  0
  3 19  1  0  0  0  0
  3  2  2  0  0  0  0
  4  3  1  0  0  0  0
  5  4  2  0  0  0  0
  5  6  1  0  0  0  0
  6  7  2  0  0  0  0
  7  2  1  0  0  0  0
  8  4  1  0  0  0  0
  9 10  1  0  0  0  0
  9 15  1  0  0  0  0
  9  8  1  1  0  0  0
 11 13  1  6  0  0  0
 11 12  1  0  0  0  0
 11 10  1  0  0  0  0
 14 16  1  6  0  0  0
 14 12  1  0  0  0  0
 14 15  1  0  0  0  0
 17 13  1  1  0  0  0
 17 16  1  0  0  0  0
 17 18  1  0  0  0  0
 18  9  1  0  0  0  0
 20 21  1  0  0  0  0
 20 19  1  0  0  0  0
 21 23  1  0  0  0  0
 22 21  2  0  0  0  0
 23 24  1  0  0  0  0
M  END
>  <Pose>
1

>  <Score>
-7.054

$$$$
