/Users/jonathanwahrer/Desktop/Msc/3_Semester/Drug_Design_Praktikum/waehrer_HTS_screening/HTS_experiment/out/docking_results/vina_output/3e7o/0033_docked.pdbqt
 OpenBabel03192215183D

 33 36  0  0  0  0  0  0  0  0999 V2000
  -37.8710  -64.2190   49.3560 C   0  0  0  0  0  0  0  0  0  0  0  0
  -37.3530  -65.3690   49.7580 N   0  0  0  0  0  4  0  0  0  0  0  0
  -36.0570  -65.7030   49.6290 C   0  0  0  0  0  0  0  0  0  0  0  0
  -35.2510  -64.7870   49.0480 N   0  0  0  0  0  0  0  0  0  0  0  0
  -35.7240  -63.5880   48.6150 C   0  0  0  0  0  0  0  0  0  0  0  0
  -37.0440  -63.3220   48.7800 N   0  0  0  0  0  2  0  0  0  0  0  0
  -39.2630  -63.9680   49.5050 N   0  0  0  0  0  0  0  0  0  0  0  0
  -39.7400  -63.3590   48.8290 H   0  0  0  0  0  0  0  0  0  0  0  0
  -39.9720  -64.5340   50.5510 N   0  0  0  0  0  0  0  0  0  0  0  0
  -40.3690  -65.7590   50.5760 C   0  0  0  0  0  3  0  0  0  0  0  0
  -41.1120  -66.3050   51.6940 C   0  0  0  0  0  0  0  0  0  0  0  0
  -42.4540  -65.9670   51.8690 C   0  0  0  0  0  0  0  0  0  0  0  0
  -43.2050  -66.4340   52.9170 C   0  0  0  0  0  3  0  0  0  0  0  0
  -42.6620  -67.2780   53.8660 C   0  0  0  0  0  0  0  0  0  0  0  0
  -41.3300  -67.6290   53.7110 C   0  0  0  0  0  0  0  0  0  0  0  0
  -40.5540  -68.7960   54.9960 Br  0  0  0  0  0  0  0  0  0  0  0  0
  -40.5880  -67.1480   52.6490 C   0  0  0  0  0  3  0  0  0  0  0  0
  -43.0110  -65.1140   50.9100 O   0  0  0  0  0  0  0  0  0  0  0  0
  -42.7850  -65.2760   49.9340 H   0  0  0  0  0  0  0  0  0  0  0  0
  -43.4340  -67.7470   54.9260 O   0  0  0  0  0  0  0  0  0  0  0  0
  -43.2110  -67.5860   55.8970 H   0  0  0  0  0  0  0  0  0  0  0  0
  -35.5410  -66.9670   50.0770 N   0  0  0  0  0  0  0  0  0  0  0  0
  -34.2330  -67.0760   50.6580 C   0  0  0  0  0  2  0  0  0  0  0  0
  -33.9020  -68.3610   51.3120 C   0  0  0  0  0  2  0  0  0  0  0  0
  -34.7390  -69.4140   50.9740 O   0  0  0  0  0  0  0  0  0  0  0  0
  -36.0800  -69.0690   51.0730 C   0  0  0  0  0  2  0  0  0  0  0  0
  -36.3720  -68.1260   49.9320 C   0  0  0  0  0  2  0  0  0  0  0  0
  -34.8750  -62.6480   47.9970 N   0  0  0  0  0  0  0  0  0  0  0  0
  -33.4630  -62.6150   48.2780 C   0  0  0  0  0  2  0  0  0  0  0  0
  -32.7750  -62.6810   46.9060 C   0  0  0  0  0  2  0  0  0  0  0  0
  -33.2890  -61.6860   46.0990 O   0  0  0  0  0  0  0  0  0  0  0  0
  -34.6080  -61.9730   45.7500 C   0  0  0  0  0  2  0  0  0  0  0  0
  -35.4090  -61.7100   47.0430 C   0  0  0  0  0  2  0  0  0  0  0  0
  1  7  1  0  0  0  0
  1  2  2  0  0  0  0
  3  2  2  0  0  0  0
  3 22  1  0  0  0  0
  4  3  1  0  0  0  0
  5  6  1  0  0  0  0
  5  4  2  0  0  0  0
  6  1  1  0  0  0  0
  7  9  1  0  0  0  0
  8  7  1  0  0  0  0
  9 10  2  0  0  0  0
 10 11  1  0  0  0  0
 11 12  2  0  0  0  0
 11 17  1  0  0  0  0
 12 13  1  0  0  0  0
 13 14  2  0  0  0  0
 14 20  1  0  0  0  0
 15 14  1  0  0  0  0
 15 16  1  0  0  0  0
 17 15  2  0  0  0  0
 18 12  1  0  0  0  0
 19 18  1  0  0  0  0
 20 21  1  0  0  0  0
 22 23  1  0  0  0  0
 23 24  1  0  0  0  0
 25 26  1  0  0  0  0
 25 24  1  0  0  0  0
 27 22  1  0  0  0  0
 27 26  1  0  0  0  0
 28 29  1  0  0  0  0
 28  5  1  0  0  0  0
 30 29  1  0  0  0  0
 31 30  1  0  0  0  0
 32 31  1  0  0  0  0
 32 33  1  0  0  0  0
 33 28  1  0  0  0  0
M  END
>  <Pose>
1

>  <Score>
-8.081

$$$$
