/Users/jonathanwahrer/Desktop/Msc/3_Semester/Drug_Design_Praktikum/waehrer_HTS_screening/HTS_experiment/out/docking_results/vina_output/3e7o/0039_docked.pdbqt
 OpenBabel03192215193D

 21 23  0  0  1  0  0  0  0  0999 V2000
  -39.2550  -67.3560   49.9150 N   0  0  0  0  0  0  0  0  0  0  0  0
  -38.8540  -66.1150   49.4170 C   0  0  0  0  0  0  0  0  0  0  0  0
  -38.9480  -65.0840   50.0970 O   0  0  0  0  0  0  0  0  0  0  0  0
  -39.1350  -68.1820   49.2560 H   0  0  0  0  0  0  0  0  0  0  0  0
  -38.3060  -66.0380   48.0490 C   0  0  0  0  0  2  0  0  0  0  0  0
  -36.9040  -66.2720   47.9230 N   0  0  1  0  0  4  0  0  0  0  0  0
  -36.7300  -67.6000   47.3150 C   0  0  0  0  0  2  0  0  0  0  0  0
  -35.3750  -67.6100   46.6510 C   0  0  0  0  0  2  0  0  0  0  0  0
  -34.4820  -66.8790   47.5490 N   0  0  1  0  0  0  0  0  0  0  0  0
  -34.7250  -65.4660   47.2750 C   0  0  0  0  0  2  0  0  0  0  0  0
  -34.8910  -67.1160   48.9250 C   0  0  0  0  0  2  0  0  0  0  0  0
  -36.2250  -65.2750   47.1000 C   0  0  0  0  0  2  0  0  0  0  0  0
  -36.1910  -66.3360   49.1820 C   0  0  0  0  0  2  0  0  0  0  0  0
  -39.8020  -67.6620   51.1830 C   0  0  0  0  0  0  0  0  0  0  0  0
  -39.1640  -68.5800   52.0300 C   0  0  0  0  0  0  0  0  0  0  0  0
  -37.5440  -69.3640   51.3550 Br  0  0  0  0  0  0  0  0  0  0  0  0
  -39.6460  -68.9160   53.2710 C   0  0  0  0  0  3  0  0  0  0  0  0
  -40.8030  -68.3640   53.7660 C   0  0  0  0  0  0  0  0  0  0  0  0
  -41.4450  -67.4610   52.9550 C   0  0  0  0  0  3  0  0  0  0  0  0
  -41.3370  -68.7230   55.1150 C   0  0  0  0  0  1  0  0  0  0  0  0
  -40.9610  -67.1150   51.6910 C   0  0  0  0  0  3  0  0  0  0  0  0
  1 14  1  0  0  0  0
  2  1  1  0  0  0  0
  2  3  2  0  0  0  0
  4  1  1  0  0  0  0
  5  2  1  0  0  0  0
  6  5  1  1  0  0  0
  6 13  1  0  0  0  0
  7  6  1  0  0  0  0
  8  7  1  0  0  0  0
  9  8  1  6  0  0  0
  9 11  1  0  0  0  0
 10  9  1  0  0  0  0
 11 13  1  0  0  0  0
 12 10  1  0  0  0  0
 12  6  1  0  0  0  0
 14 21  2  0  0  0  0
 14 15  1  0  0  0  0
 15 17  2  0  0  0  0
 16 15  1  0  0  0  0
 17 18  1  0  0  0  0
 18 20  1  0  0  0  0
 19 18  2  0  0  0  0
 21 19  1  0  0  0  0
M  END
>  <Pose>
1

>  <Score>
-6.542

$$$$
