/Users/jonathanwahrer/Desktop/Msc/3_Semester/Drug_Design_Praktikum/waehrer_HTS_screening/HTS_experiment/out/docking_results/vina_output/3e7o/0081_docked.pdbqt
 OpenBabel03192215193D

 22 25  0  0  0  0  0  0  0  0999 V2000
  -36.8910  -68.4960   50.5300 C   0  0  0  0  0  0  0  0  0  0  0  0
  -35.5550  -68.6450   50.5730 N   0  0  0  0  0  0  0  0  0  0  0  0
  -34.9690  -67.5160   50.1720 N   0  0  0  0  0  0  0  0  0  0  0  0
  -35.9230  -66.6150   49.8620 C   0  0  0  0  0  0  0  0  0  0  0  0
  -37.0930  -67.2410   50.0910 N   0  0  0  0  0  0  0  0  0  0  0  0
  -35.5490  -65.3620   49.4180 C   0  0  0  0  0  0  0  0  0  0  0  0
  -34.2260  -64.9930   49.2790 C   0  0  0  0  0  0  0  0  0  0  0  0
  -34.1430  -63.7240   48.8320 N   0  0  0  0  0  0  0  0  0  0  0  0
  -35.3770  -63.2810   48.6860 N   0  0  0  0  0  0  0  0  0  0  0  0
  -36.2730  -64.2520   49.0340 C   0  0  0  0  0  3  0  0  0  0  0  0
  -32.9470  -62.9480   48.5510 C   0  0  0  0  0  1  0  0  0  0  0  0
  -33.3050  -65.9210   49.5980 N   0  0  0  0  0  0  0  0  0  0  0  0
  -33.6810  -67.1520   50.0340 C   0  0  0  0  0  3  0  0  0  0  0  0
  -37.9340  -69.5150   50.8970 C   0  0  0  0  0  2  0  0  0  0  0  0
  -38.9940  -68.9260   51.6830 N   0  0  0  0  0  0  0  0  0  0  0  0
  -39.2460  -69.2240   52.9650 C   0  0  0  0  0  0  0  0  0  0  0  0
  -40.3200  -68.4580   53.3380 C   0  0  0  0  0  0  0  0  0  0  0  0
  -38.5260  -70.1930   53.8530 C   0  0  0  0  0  1  0  0  0  0  0  0
  -41.1560  -68.4280   55.0430 Br  0  0  0  0  0  0  0  0  0  0  0  0
  -40.7080  -67.6990   52.2660 C   0  0  0  0  0  0  0  0  0  0  0  0
  -39.8580  -68.0230   51.2640 N   0  0  0  0  0  0  0  0  0  0  0  0
  -41.8390  -66.7050   52.1930 C   0  0  0  0  0  1  0  0  0  0  0  0
  1  2  2  0  0  0  0
  1 14  1  0  0  0  0
  3  2  1  0  0  0  0
  4  5  2  0  0  0  0
  4  3  1  0  0  0  0
  5  1  1  0  0  0  0
  6  4  1  0  0  0  0
  7  6  2  0  0  0  0
  7 12  1  0  0  0  0
  8  7  1  0  0  0  0
  9  8  1  0  0  0  0
  9 10  2  0  0  0  0
 10  6  1  0  0  0  0
 11  8  1  0  0  0  0
 12 13  2  0  0  0  0
 13  3  1  0  0  0  0
 14 15  1  0  0  0  0
 15 16  1  0  0  0  0
 16 17  2  0  0  0  0
 16 18  1  0  0  0  0
 17 19  1  0  0  0  0
 20 17  1  0  0  0  0
 21 15  1  0  0  0  0
 21 20  2  0  0  0  0
 22 20  1  0  0  0  0
M  END
>  <Pose>
1

>  <Score>
-7.597

$$$$
