/Users/jonathanwahrer/Desktop/Msc/3_Semester/Drug_Design_Praktikum/waehrer_HTS_screening/HTS_experiment/out/docking_results/vina_output/3e7o/0085_docked.pdbqt
 OpenBabel03192215193D

 26 29  0  0  0  0  0  0  0  0999 V2000
  -39.2640  -67.5670   50.5290 C   0  0  0  0  0  0  0  0  0  0  0  0
  -38.0410  -68.2280   50.7640 C   0  0  0  0  0  0  0  0  0  0  0  0
  -37.6830  -69.1110   51.7350 N   0  0  0  0  0  0  0  0  0  0  0  0
  -36.4440  -69.4340   51.5190 O   0  0  0  0  0  0  0  0  0  0  0  0
  -35.9870  -68.8160   50.4750 N   0  0  0  0  0  0  0  0  0  0  0  0
  -36.9500  -68.0420   49.9580 C   0  0  0  0  0  0  0  0  0  0  0  0
  -36.9730  -67.1980   48.8660 C   0  0  0  0  0  0  0  0  0  0  0  0
  -38.1730  -66.5520   48.6390 C   0  0  0  0  0  3  0  0  0  0  0  0
  -39.2900  -66.7340   49.4520 C   0  0  0  0  0  3  0  0  0  0  0  0
  -40.3250  -67.8380   51.4300 N   0  0  0  0  0  0  0  0  0  0  0  0
  -40.8800  -66.9240   52.3220 C   0  0  0  0  0  0  0  0  0  0  0  0
  -40.4310  -65.7190   52.3670 O   0  0  0  0  0  0  0  0  0  0  0  0
  -40.7640  -68.8070   51.4410 H   0  0  0  0  0  0  0  0  0  0  0  0
  -41.9840  -67.2460   53.2500 C   0  0  0  0  0  0  0  0  0  0  0  0
  -43.2610  -66.7900   53.2520 C   0  0  0  0  0  0  0  0  0  0  0  0
  -44.1200  -65.6040   52.0260 Br  0  0  0  0  0  0  0  0  0  0  0  0
  -43.9020  -67.3810   54.3590 C   0  0  0  0  0  3  0  0  0  0  0  0
  -42.9790  -68.1410   54.9380 N   0  0  0  0  0  0  0  0  0  0  0  0
  -41.8270  -68.0970   54.3220 N   0  0  0  0  0  0  0  0  0  0  0  0
  -40.6250  -68.7990   54.6890 C   0  0  0  0  0  1  0  0  0  0  0  0
  -35.8600  -66.9960   48.0300 N   0  0  0  0  0  0  0  0  0  0  0  0
  -35.7410  -67.8090   46.8230 C   0  0  0  0  0  2  0  0  0  0  0  0
  -34.4200  -67.5960   46.1360 C   0  0  0  0  0  2  0  0  0  0  0  0
  -33.3420  -67.4620   46.9470 O   0  0  0  0  0  0  0  0  0  0  0  0
  -33.5180  -66.9070   48.1810 C   0  0  0  0  0  2  0  0  0  0  0  0
  -34.7800  -66.0700   48.1920 C   0  0  0  0  0  2  0  0  0  0  0  0
  1  2  1  0  0  0  0
  1 10  1  0  0  0  0
  2  3  2  0  0  0  0
  4  3  1  0  0  0  0
  5  4  1  0  0  0  0
  6  5  2  0  0  0  0
  6  2  1  0  0  0  0
  7  6  1  0  0  0  0
  8  7  2  0  0  0  0
  8  9  1  0  0  0  0
  9  1  2  0  0  0  0
 10 13  1  0  0  0  0
 10 11  1  0  0  0  0
 11 12  2  0  0  0  0
 11 14  1  0  0  0  0
 14 15  2  0  0  0  0
 14 19  1  0  0  0  0
 15 17  1  0  0  0  0
 16 15  1  0  0  0  0
 17 18  2  0  0  0  0
 19 20  1  0  0  0  0
 19 18  1  0  0  0  0
 21 26  1  0  0  0  0
 21  7  1  0  0  0  0
 22 21  1  0  0  0  0
 23 22  1  0  0  0  0
 23 24  1  0  0  0  0
 24 25  1  0  0  0  0
 25 26  1  0  0  0  0
M  END
>  <Pose>
1

>  <Score>
-7.623

$$$$
