/Users/jonathanwahrer/Desktop/Msc/3_Semester/Drug_Design_Praktikum/waehrer_HTS_screening/HTS_experiment/out/docking_results/vina_output/3e7o/0111_docked.pdbqt
 OpenBabel03192215203D

 29 32  0  0  0  0  0  0  0  0999 V2000
  -40.6640  -65.1180   51.0190 C   0  0  0  0  0  0  0  0  0  0  0  0
  -41.0750  -65.9860   51.9180 N   0  0  0  0  0  0  0  0  0  0  0  0
  -42.0670  -65.4430   52.6920 C   0  0  0  0  0  0  0  0  0  0  0  0
  -42.2550  -64.1820   52.2400 N   0  0  0  0  0  0  0  0  0  0  0  0
  -41.4410  -63.9770   51.2620 N   0  0  0  0  0  0  0  0  0  0  0  0
  -42.4720  -66.3360   53.5980 N   0  0  0  0  0  0  0  0  0  0  0  0
  -41.7400  -67.4460   53.4100 C   0  0  0  0  0  0  0  0  0  0  0  0
  -40.8500  -67.2500   52.3600 C   0  0  0  0  0  0  0  0  0  0  0  0
  -39.9900  -68.1730   51.9720 N   0  0  0  0  0  0  0  0  0  0  0  0
  -40.0130  -69.3610   52.6520 C   0  0  0  0  0  0  0  0  0  0  0  0
  -39.2390  -70.3100   52.3650 O   0  0  0  0  0  0  0  0  0  0  0  0
  -40.8650  -69.5880   53.6740 N   0  0  0  0  0  0  0  0  0  0  0  0
  -41.7280  -68.6600   54.0690 C   0  0  0  0  0  0  0  0  0  0  0  0
  -42.5460  -68.8100   55.0120 O   0  0  0  0  0  0  0  0  0  0  0  0
  -38.9700  -68.0910   50.9710 C   0  0  0  0  0  1  0  0  0  0  0  0
  -40.8710  -70.4990   54.1800 H   0  0  0  0  0  0  0  0  0  0  0  0
  -39.7140  -65.0300   49.9480 C   0  0  0  0  0  0  0  0  0  0  0  0
  -38.3610  -65.1850   49.9860 C   0  0  0  0  0  3  0  0  0  0  0  0
  -37.5030  -65.0740   48.9310 C   0  0  0  0  0  0  0  0  0  0  0  0
  -35.6320  -65.3290   49.2030 Br  0  0  0  0  0  0  0  0  0  0  0  0
  -38.0000  -64.7790   47.6960 C   0  0  0  0  0  3  0  0  0  0  0  0
  -39.3690  -64.6050   47.5630 C   0  0  0  0  0  3  0  0  0  0  0  0
  -40.1960  -64.7270   48.6540 C   0  0  0  0  0  0  0  0  0  0  0  0
  -41.5570  -64.5440   48.4770 O   0  0  0  0  0  0  0  0  0  0  0  0
  -42.1300  -63.4290   47.8690 C   0  0  0  0  0  1  0  0  0  0  0  0
  -43.4900  -66.1700   54.5930 C   0  0  0  0  0  2  0  0  0  0  0  0
  -44.8390  -66.0360   53.9170 C   0  0  0  0  0  2  0  0  0  0  0  0
  -45.1660  -67.2570   53.3600 O   0  0  0  0  0  0  0  0  0  0  0  0
  -46.5330  -67.5450   53.5110 C   0  0  0  0  0  1  0  0  0  0  0  0
  1  5  2  0  0  0  0
  1  2  1  0  0  0  0
  2  8  1  0  0  0  0
  2  3  1  0  0  0  0
  3  6  1  0  0  0  0
  4  3  2  0  0  0  0
  5  4  1  0  0  0  0
  6 26  1  0  0  0  0
  7  6  1  0  0  0  0
  7 13  1  0  0  0  0
  8  7  2  0  0  0  0
  9  8  1  0  0  0  0
  9 10  1  0  0  0  0
 10 12  1  0  0  0  0
 11 10  2  0  0  0  0
 12 13  1  0  0  0  0
 12 16  1  0  0  0  0
 13 14  2  0  0  0  0
 15  9  1  0  0  0  0
 17 18  1  0  0  0  0
 17  1  1  0  0  0  0
 19 20  1  0  0  0  0
 19 18  2  0  0  0  0
 21 19  1  0  0  0  0
 22 21  2  0  0  0  0
 22 23  1  0  0  0  0
 23 17  2  0  0  0  0
 24 23  1  0  0  0  0
 25 24  1  0  0  0  0
 27 26  1  0  0  0  0
 28 29  1  0  0  0  0
 28 27  1  0  0  0  0
M  END
>  <Pose>
1

>  <Score>
-7.830

$$$$
