/Users/jonathanwahrer/Desktop/Msc/3_Semester/Drug_Design_Praktikum/waehrer_HTS_screening/HTS_experiment/out/docking_results/vina_output/3e7o/0127_docked.pdbqt
 OpenBabel03192215203D

 29 32  0  0  0  0  0  0  0  0999 V2000
  -37.8280  -67.7800   50.4990 N   0  0  0  0  0  0  0  0  0  0  0  0
  -38.3500  -66.6220   49.8750 C   0  0  0  0  0  2  0  0  0  0  0  0
  -37.3560  -65.6230   49.4210 C   0  0  0  0  0  2  0  0  0  0  0  0
  -36.3490  -66.2270   48.6100 N   0  0  0  0  0  0  0  0  0  0  0  0
  -36.1330  -67.6410   48.7270 C   0  0  0  0  0  2  0  0  0  0  0  0
  -36.5480  -68.2170   50.0610 C   0  0  0  0  0  2  0  0  0  0  0  0
  -35.5400  -65.4760   47.7170 C   0  0  0  0  0  0  0  0  0  0  0  0
  -34.3930  -64.9810   48.1780 C   0  0  0  0  0  0  0  0  0  0  0  0
  -33.7160  -65.0080   49.4220 N   0  0  0  0  0  0  0  0  0  0  0  0
  -33.5810  -64.2060   47.2150 C   0  0  0  0  0  0  0  0  0  0  0  0
  -32.5280  -64.2710   49.2120 N   0  0  0  0  0  0  0  0  0  0  0  0
  -34.1490  -65.6530   50.6380 C   0  0  0  0  0  1  0  0  0  0  0  0
  -32.5010  -63.8140   47.8740 C   0  0  0  0  0  0  0  0  0  0  0  0
  -31.8300  -64.1280   49.9720 H   0  0  0  0  0  0  0  0  0  0  0  0
  -31.4330  -63.0010   47.2330 C   0  0  0  0  0  1  0  0  0  0  0  0
  -34.0410  -64.0250   45.8800 N   0  0  0  0  0  0  0  0  0  0  0  0
  -35.1590  -64.5260   45.4840 C   0  0  0  0  0  3  0  0  0  0  0  0
  -35.9740  -65.2730   46.3560 N   0  0  0  0  0  0  0  0  0  0  0  0
  -36.8790  -65.6930   46.0840 H   0  0  0  0  0  0  0  0  0  0  0  0
  -38.7530  -68.7880   50.8410 C   0  0  0  0  0  2  0  0  0  0  0  0
  -38.8040  -69.0970   52.2710 C   0  0  0  0  0  0  0  0  0  0  0  0
  -37.8780  -69.7790   52.7820 O   0  0  0  0  0  0  0  0  0  0  0  0
  -39.9260  -68.6060   53.0630 C   0  0  0  0  0  0  0  0  0  0  0  0
  -40.8210  -67.7160   52.5300 C   0  0  0  0  0  3  0  0  0  0  0  0
  -41.9000  -67.2270   53.2560 C   0  0  0  0  0  0  0  0  0  0  0  0
  -43.1420  -65.9920   52.5120 Br  0  0  0  0  0  0  0  0  0  0  0  0
  -42.0780  -67.6490   54.5550 C   0  0  0  0  0  3  0  0  0  0  0  0
  -41.1640  -68.5510   55.0820 C   0  0  0  0  0  3  0  0  0  0  0  0
  -40.1000  -69.0300   54.3600 C   0  0  0  0  0  3  0  0  0  0  0  0
  1 20  1  0  0  0  0
  2  1  1  0  0  0  0
  3  2  1  0  0  0  0
  4  5  1  0  0  0  0
  4  3  1  0  0  0  0
  5  6  1  0  0  0  0
  6  1  1  0  0  0  0
  7  8  2  0  0  0  0
  7  4  1  0  0  0  0
  8  9  1  0  0  0  0
  9 12  1  0  0  0  0
 10 13  2  0  0  0  0
 10  8  1  0  0  0  0
 11  9  1  0  0  0  0
 11 14  1  0  0  0  0
 13 11  1  0  0  0  0
 15 13  1  0  0  0  0
 16 10  1  0  0  0  0
 17 16  2  0  0  0  0
 17 18  1  0  0  0  0
 18  7  1  0  0  0  0
 19 18  1  0  0  0  0
 20 21  1  0  0  0  0
 21 22  2  0  0  0  0
 21 23  1  0  0  0  0
 23 29  1  0  0  0  0
 24 23  2  0  0  0  0
 24 25  1  0  0  0  0
 25 27  2  0  0  0  0
 26 25  1  0  0  0  0
 27 28  1  0  0  0  0
 29 28  2  0  0  0  0
M  END
>  <Pose>
1

>  <Score>
-8.052

$$$$
