/Users/jonathanwahrer/Desktop/Msc/3_Semester/Drug_Design_Praktikum/waehrer_HTS_screening/HTS_experiment/out/docking_results/vina_output/3e7o/0131_docked.pdbqt
 OpenBabel03192215213D

 30 33  0  0  1  0  0  0  0  0999 V2000
  -35.8030  -68.6900   50.7190 C   0  0  0  0  0  0  0  0  0  0  0  0
  -35.0170  -69.4750   51.3040 O   0  0  0  0  0  0  0  0  0  0  0  0
  -35.3710  -67.3910   50.4070 N   0  0  0  0  0  0  0  0  0  0  0  0
  -36.2160  -66.4340   49.7370 C   0  0  0  0  0  2  0  0  0  0  0  0
  -35.5730  -66.1430   48.3980 C   0  0  0  0  0  2  0  0  0  0  0  0
  -34.1180  -65.7920   48.5980 C   0  0  1  0  0  0  0  0  0  0  0  0
  -33.3200  -66.7940   47.9240 N   0  0  0  0  0  0  0  0  0  0  0  0
  -31.9220  -66.5380   47.9110 C   0  0  0  0  0  2  0  0  0  0  0  0
  -31.4930  -65.1310   47.7050 C   0  0  0  0  0  2  0  0  0  0  0  0
  -32.5950  -64.1830   47.4370 C   0  0  0  0  0  0  0  0  0  0  0  0
  -32.6350  -62.9680   46.8090 N   0  0  0  0  0  0  0  0  0  0  0  0
  -33.9070  -62.5520   46.8600 C   0  0  0  0  0  3  0  0  0  0  0  0
  -34.6470  -63.4740   47.4980 N   0  0  0  0  0  0  0  0  0  0  0  0
  -33.8580  -64.5110   47.8750 C   0  0  0  0  0  0  0  0  0  0  0  0
  -33.7050  -65.6620   50.0280 C   0  0  0  0  0  2  0  0  0  0  0  0
  -34.0400  -66.9670   50.7560 C   0  0  0  0  0  2  0  0  0  0  0  0
  -33.4780  -67.7190   48.4040 H   0  0  0  0  0  0  0  0  0  0  0  0
  -31.7900  -62.4880   46.3810 H   0  0  0  0  0  0  0  0  0  0  0  0
  -37.1580  -69.2090   50.3960 C   0  0  0  0  0  2  0  0  0  0  0  0
  -38.0540  -69.1040   51.5270 N   0  0  0  0  0  0  0  0  0  0  0  0
  -39.2080  -68.2890   51.4960 C   0  0  0  0  0  0  0  0  0  0  0  0
  -39.4370  -67.6490   50.4370 O   0  0  0  0  0  0  0  0  0  0  0  0
  -37.8440  -69.6430   52.3910 H   0  0  0  0  0  0  0  0  0  0  0  0
  -40.1250  -68.1660   52.6200 C   0  0  0  0  0  0  0  0  0  0  0  0
  -41.1450  -67.2340   52.6680 C   0  0  0  0  0  3  0  0  0  0  0  0
  -42.0020  -67.1400   53.7500 C   0  0  0  0  0  0  0  0  0  0  0  0
  -43.3730  -65.8340   53.7320 Br  0  0  0  0  0  0  0  0  0  0  0  0
  -41.8520  -67.9990   54.8400 C   0  0  0  0  0  3  0  0  0  0  0  0
  -40.8310  -68.9210   54.7750 C   0  0  0  0  0  3  0  0  0  0  0  0
  -39.9760  -69.0200   53.7030 C   0  0  0  0  0  3  0  0  0  0  0  0
  1  2  2  0  0  0  0
  3  1  1  0  0  0  0
  3 16  1  0  0  0  0
  4  3  1  0  0  0  0
  5  4  1  0  0  0  0
  6  5  1  6  0  0  0
  6 15  1  0  0  0  0
  7 17  1  0  0  0  0
  7  6  1  0  0  0  0
  8  7  1  0  0  0  0
  9  8  1  0  0  0  0
 10  9  1  0  0  0  0
 10 14  2  0  0  0  0
 11 12  1  0  0  0  0
 11 10  1  0  0  0  0
 12 13  2  0  0  0  0
 13 14  1  0  0  0  0
 14  6  1  0  0  0  0
 15 16  1  0  0  0  0
 18 11  1  0  0  0  0
 19  1  1  0  0  0  0
 19 20  1  0  0  0  0
 20 23  1  0  0  0  0
 21 20  1  0  0  0  0
 21 24  1  0  0  0  0
 22 21  2  0  0  0  0
 24 25  2  0  0  0  0
 24 30  1  0  0  0  0
 25 26  1  0  0  0  0
 26 28  2  0  0  0  0
 27 26  1  0  0  0  0
 29 28  1  0  0  0  0
 30 29  2  0  0  0  0
M  END
>  <Pose>
1

>  <Score>
-8.491

$$$$
