/Users/jonathanwahrer/Desktop/Msc/3_Semester/Drug_Design_Praktikum/waehrer_HTS_screening/HTS_experiment/out/docking_results/vina_output/3e7o/0138_docked.pdbqt
 OpenBabel03192215213D

 25 28  0  0  1  0  0  0  0  0999 V2000
  -43.6540  -66.0440   53.0960 C   0  0  2  0  0  3  0  0  0  0  0  0
  -44.9400  -66.7960   53.1900 C   0  0  0  0  0  2  0  0  0  0  0  0
  -45.9500  -65.7460   52.9750 N   0  0  0  0  0  0  0  0  0  0  0  0
  -45.2960  -64.5500   52.4640 C   0  0  1  0  0  3  0  0  0  0  0  0
  -43.9800  -65.0600   51.9620 C   0  0  0  0  0  2  0  0  0  0  0  0
  -46.1530  -63.9740   51.4320 C   0  0  0  0  0  0  0  0  0  0  0  0
  -45.6720  -63.4310   50.4310 O   0  0  0  0  0  0  0  0  0  0  0  0
  -47.5790  -64.0390   51.5780 N   0  0  0  0  0  0  0  0  0  0  0  0
  -48.0670  -64.4460   52.8740 C   0  0  1  0  0  3  0  0  0  0  0  0
  -49.5350  -64.5660   52.8560 C   0  0  0  0  0  2  0  0  0  0  0  0
  -49.9090  -63.7890   51.6090 C   0  0  0  0  0  2  0  0  0  0  0  0
  -48.7050  -63.7910   50.7310 C   0  0  0  0  0  2  0  0  0  0  0  0
  -47.3600  -65.7380   53.1800 C   0  0  0  0  0  0  0  0  0  0  0  0
  -47.9780  -66.7460   53.5900 O   0  0  0  0  0  0  0  0  0  0  0  0
  -42.5090  -66.8310   52.8260 N   0  0  0  0  0  0  0  0  0  0  0  0
  -41.9060  -67.5890   53.8540 C   0  0  0  0  0  0  0  0  0  0  0  0
  -42.4060  -67.5570   55.0330 O   0  0  0  0  0  0  0  0  0  0  0  0
  -42.1020  -66.8600   51.8740 H   0  0  0  0  0  0  0  0  0  0  0  0
  -40.7340  -68.4320   53.6970 C   0  0  0  0  0  0  0  0  0  0  0  0
  -39.9260  -68.3900   52.5880 C   0  0  0  0  0  3  0  0  0  0  0  0
  -38.8170  -69.1800   52.4270 C   0  0  0  0  0  0  0  0  0  0  0  0
  -37.7220  -69.0950   50.8750 Br  0  0  0  0  0  0  0  0  0  0  0  0
  -38.4760  -70.0720   53.4200 C   0  0  0  0  0  3  0  0  0  0  0  0
  -39.2610  -70.1490   54.5590 C   0  0  0  0  0  3  0  0  0  0  0  0
  -40.3880  -69.3230   54.6840 C   0  0  0  0  0  3  0  0  0  0  0  0
  1 15  1  6  0  0  0
  1  2  1  0  0  0  0
  3 13  1  0  0  0  0
  3  2  1  0  0  0  0
  4  5  1  6  0  0  0
  4  3  1  0  0  0  0
  5  1  1  0  0  0  0
  6  8  1  0  0  0  0
  6  4  1  0  0  0  0
  7  6  2  0  0  0  0
  8  9  1  0  0  0  0
  9 10  1  6  0  0  0
  9 13  1  0  0  0  0
 11 10  1  0  0  0  0
 12  8  1  0  0  0  0
 12 11  1  0  0  0  0
 13 14  2  0  0  0  0
 15 16  1  0  0  0  0
 16 17  2  0  0  0  0
 18 15  1  0  0  0  0
 19 16  1  0  0  0  0
 19 25  1  0  0  0  0
 20 19  2  0  0  0  0
 21 20  1  0  0  0  0
 21 23  2  0  0  0  0
 22 21  1  0  0  0  0
 23 24  1  0  0  0  0
 24 25  2  0  0  0  0
M  END
>  <Pose>
1

>  <Score>
-7.791

$$$$
