/Users/jonathanwahrer/Desktop/Msc/3_Semester/Drug_Design_Praktikum/waehrer_HTS_screening/HTS_experiment/out/docking_results/vina_output/3e7o/0141_docked.pdbqt
 OpenBabel03192215213D

 23 26  0  0  1  0  0  0  0  0999 V2000
  -41.8010  -66.8190   53.3760 N   0  0  0  0  0  0  0  0  0  0  0  0
  -42.6480  -67.6290   54.2140 C   0  0  0  0  0  0  0  0  0  0  0  0
  -42.4160  -68.7950   54.6660 O   0  0  0  0  0  0  0  0  0  0  0  0
  -43.8650  -66.8880   54.4850 C   0  0  1  0  0  3  0  0  0  0  0  0
  -43.5480  -65.4110   54.1810 C   0  0  2  0  0  3  0  0  0  0  0  0
  -44.7650  -64.8610   53.5130 C   0  0  2  0  0  3  0  0  0  0  0  0
  -45.8400  -65.8930   53.9090 C   0  0  0  0  0  2  0  0  0  0  0  0
  -44.9730  -67.0900   53.4610 C   0  0  1  0  0  3  0  0  0  0  0  0
  -44.5510  -66.5840   52.1230 C   0  0  0  0  0  2  0  0  0  0  0  0
  -44.6740  -65.2510   52.0590 C   0  0  0  0  0  2  0  0  0  0  0  0
  -42.4750  -65.6160   53.1300 C   0  0  0  0  0  0  0  0  0  0  0  0
  -42.2500  -64.8140   52.1960 O   0  0  0  0  0  0  0  0  0  0  0  0
  -40.5420  -67.2860   52.9500 N   0  0  0  0  0  0  0  0  0  0  0  0
  -40.2480  -67.7960   51.6730 C   0  0  0  0  0  0  0  0  0  0  0  0
  -41.1230  -67.8700   50.7930 O   0  0  0  0  0  0  0  0  0  0  0  0
  -39.7190  -67.2670   53.6320 H   0  0  0  0  0  0  0  0  0  0  0  0
  -38.9170  -68.2560   51.3330 C   0  0  0  0  0  0  0  0  0  0  0  0
  -38.2910  -67.7320   50.2050 C   0  0  0  0  0  3  0  0  0  0  0  0
  -37.0280  -68.1360   49.8470 C   0  0  0  0  0  0  0  0  0  0  0  0
  -36.2350  -67.3820   48.2900 Br  0  0  0  0  0  0  0  0  0  0  0  0
  -36.3370  -69.0770   50.6010 C   0  0  0  0  0  3  0  0  0  0  0  0
  -36.9750  -69.5790   51.7080 C   0  0  0  0  0  3  0  0  0  0  0  0
  -38.2420  -69.1780   52.0720 C   0  0  0  0  0  3  0  0  0  0  0  0
  1  2  1  0  0  0  0
  2  3  2  0  0  0  0
  4  2  1  6  0  0  0
  5 11  1  6  0  0  0
  5  4  1  0  0  0  0
  6 10  1  6  0  0  0
  6  7  1  0  0  0  0
  6  5  1  0  0  0  0
  8  9  1  6  0  0  0
  8  7  1  0  0  0  0
  8  4  1  0  0  0  0
 10  9  1  0  0  0  0
 11  1  1  0  0  0  0
 12 11  2  0  0  0  0
 13  1  1  0  0  0  0
 13 16  1  0  0  0  0
 14 13  1  0  0  0  0
 15 14  2  0  0  0  0
 17 14  1  0  0  0  0
 17 23  1  0  0  0  0
 18 17  2  0  0  0  0
 19 18  1  0  0  0  0
 19 21  2  0  0  0  0
 20 19  1  0  0  0  0
 21 22  1  0  0  0  0
 22 23  2  0  0  0  0
M  END
>  <Pose>
1

>  <Score>
-8.592

$$$$
