/Users/jonathanwahrer/Desktop/Msc/3_Semester/Drug_Design_Praktikum/waehrer_HTS_screening/HTS_experiment/out/docking_results/vina_output/3e7o/0152_docked.pdbqt
 OpenBabel03192215223D

 27 30  0  0  0  0  0  0  0  0999 V2000
  -39.5290  -69.4600   52.8180 C   0  0  0  0  0  3  0  0  0  0  0  0
  -40.4200  -68.4840   53.0260 C   0  0  0  0  0  0  0  0  0  0  0  0
  -40.4510  -67.3000   52.4150 O   0  0  0  0  0  0  0  0  0  0  0  0
  -41.5600  -66.5470   52.8760 C   0  0  0  0  0  0  0  0  0  0  0  0
  -42.2680  -67.2430   53.7970 C   0  0  0  0  0  0  0  0  0  0  0  0
  -43.4350  -66.6700   54.2960 C   0  0  0  0  0  3  0  0  0  0  0  0
  -43.8320  -65.4380   53.8810 C   0  0  0  0  0  3  0  0  0  0  0  0
  -43.0720  -64.7400   52.9640 C   0  0  0  0  0  0  0  0  0  0  0  0
  -41.9130  -65.2450   52.4250 C   0  0  0  0  0  0  0  0  0  0  0  0
  -43.5140  -63.4730   52.5770 O   0  0  0  0  0  1  0  0  0  0  0  0
  -41.5580  -68.5350   53.9530 C   0  0  0  0  0  0  0  0  0  0  0  0
  -41.8660  -69.4680   54.7180 O   0  0  0  0  0  0  0  0  0  0  0  0
  -38.4470  -69.2780   51.8130 C   0  0  0  0  0  0  0  0  0  0  0  0
  -37.1370  -69.6530   52.1460 C   0  0  0  0  0  3  0  0  0  0  0  0
  -36.0320  -69.1900   51.4190 C   0  0  0  0  0  0  0  0  0  0  0  0
  -34.2980  -69.7500   51.9850 Br  0  0  0  0  0  0  0  0  0  0  0  0
  -36.1950  -68.3680   50.3650 C   0  0  0  0  0  3  0  0  0  0  0  0
  -37.5040  -67.9670   49.9910 C   0  0  0  0  0  3  0  0  0  0  0  0
  -38.6000  -68.4480   50.7400 C   0  0  0  0  0  3  0  0  0  0  0  0
  -40.8000  -64.5150   51.8520 C   0  0  0  0  0  2  0  0  0  0  0  0
  -40.3200  -64.0660   50.6750 N   0  0  0  0  0  4  0  0  0  0  0  0
  -39.2980  -64.6280   49.9070 C   0  0  0  0  0  2  0  0  0  0  0  0
  -39.7990  -65.5600   48.7820 C   0  0  0  0  0  2  0  0  0  0  0  0
  -40.5160  -64.9050   47.8090 O   0  0  0  0  0  0  0  0  0  0  0  0
  -41.3280  -63.9320   48.4010 C   0  0  0  0  0  2  0  0  0  0  0  0
  -41.5950  -64.1810   49.7910 C   0  0  0  0  0  2  0  0  0  0  0  0
  -40.1700  -62.9890   50.7330 H   0  0  0  0  0  0  0  0  0  0  0  0
  1  2  2  0  0  0  0
  2 11  1  0  0  0  0
  3  4  1  0  0  0  0
  3  2  1  0  0  0  0
  4  5  1  0  0  0  0
  5 11  1  0  0  0  0
  5  6  2  0  0  0  0
  7  6  1  0  0  0  0
  8  7  2  0  0  0  0
  9  4  2  0  0  0  0
  9  8  1  0  0  0  0
 10  8  1  0  0  0  0
 11 12  2  0  0  0  0
 13 14  1  0  0  0  0
 13  1  1  0  0  0  0
 15 16  1  0  0  0  0
 15 14  2  0  0  0  0
 17 15  1  0  0  0  0
 18 17  2  0  0  0  0
 18 19  1  0  0  0  0
 19 13  2  0  0  0  0
 20  9  1  0  0  0  0
 21 27  1  0  0  0  0
 21 20  1  0  0  0  0
 22 21  1  0  0  0  0
 23 22  1  0  0  0  0
 24 25  1  0  0  0  0
 24 23  1  0  0  0  0
 25 26  1  0  0  0  0
 26 21  1  0  0  0  0
M  END
>  <Pose>
1

>  <Score>
-9.735

$$$$
