/Users/jonathanwahrer/Desktop/Msc/3_Semester/Drug_Design_Praktikum/waehrer_HTS_screening/HTS_experiment/out/docking_results/vina_output/3e7o/0153_docked.pdbqt
 OpenBabel03192215223D

 34 37  0  0  0  0  0  0  0  0999 V2000
  -36.2320  -68.6620   50.8690 C   0  0  0  0  0  0  0  0  0  0  0  0
  -35.0780  -69.0610   51.2830 N   0  0  0  0  0  0  0  0  0  0  0  0
  -34.1200  -68.3050   50.7550 N   0  0  0  0  0  0  0  0  0  0  0  0
  -34.6960  -67.3750   49.9490 N   0  0  0  0  0  0  0  0  0  0  0  0
  -35.9780  -67.5270   50.0040 C   0  0  0  0  0  0  0  0  0  0  0  0
  -37.6190  -69.2740   51.0050 C   0  0  0  0  0  0  0  0  0  0  0  0
  -38.5270  -68.5020   51.6700 N   0  0  0  0  0  0  0  0  0  0  0  0
  -37.9220  -67.4530   51.8400 H   0  0  0  0  0  0  0  0  0  0  0  0
  -37.7900  -70.4000   50.4880 O   0  0  0  0  0  0  0  0  0  0  0  0
  -39.7060  -68.2280   52.1840 N   0  0  0  0  0  0  0  0  0  0  0  0
  -40.3910  -67.1240   52.0810 C   0  0  0  0  0  3  0  0  0  0  0  0
  -41.7030  -66.9360   52.7300 C   0  0  0  0  0  0  0  0  0  0  0  0
  -42.7990  -66.3310   52.1460 C   0  0  0  0  0  3  0  0  0  0  0  0
  -44.0210  -66.3400   52.8170 C   0  0  0  0  0  0  0  0  0  0  0  0
  -45.5960  -65.5610   52.0480 Br  0  0  0  0  0  0  0  0  0  0  0  0
  -44.2080  -66.9320   54.0610 C   0  0  0  0  0  3  0  0  0  0  0  0
  -43.0820  -67.5040   54.5940 C   0  0  0  0  0  3  0  0  0  0  0  0
  -41.8680  -67.5220   53.9720 C   0  0  0  0  0  3  0  0  0  0  0  0
  -37.1390  -66.8400   49.4470 C   0  0  0  0  0  2  0  0  0  0  0  0
  -37.3200  -65.4620   49.5140 N   0  0  0  0  0  0  0  0  0  0  0  0
  -36.5550  -64.3990   49.8060 C   0  0  0  0  0  2  0  0  0  0  0  0
  -36.2870  -63.6110   48.4950 C   0  0  0  0  0  2  0  0  0  0  0  0
  -36.4120  -64.5290   47.4190 N   0  0  0  0  0  0  0  0  0  0  0  0
  -37.7790  -64.9110   47.2250 C   0  0  0  0  0  2  0  0  0  0  0  0
  -35.6360  -64.3570   46.2650 C   0  0  0  0  0  1  0  0  0  0  0  0
  -38.4280  -65.0320   48.6100 C   0  0  0  0  0  2  0  0  0  0  0  0
  -33.8470  -66.7760   48.9300 C   0  0  0  0  0  0  0  0  0  0  0  0
  -33.7560  -67.5620   47.7230 N   0  0  0  0  0  0  0  0  0  0  0  0
  -33.0130  -67.0130   46.8850 O   0  0  0  0  0  0  0  0  0  0  0  0
  -32.5570  -65.9040   47.3830 N   0  0  0  0  0  0  0  0  0  0  0  0
  -33.0900  -65.7690   48.6640 C   0  0  0  0  0  0  0  0  0  0  0  0
  -32.7570  -64.6360   49.4340 N   0  0  0  0  0  0  0  0  0  0  0  0
  -32.9810  -63.7090   48.9260 H   0  0  0  0  0  0  0  0  0  0  0  0
  -32.3580  -64.5340   50.3470 H   0  0  0  0  0  0  0  0  0  0  0  0
  1  6  1  0  0  0  0
  1  2  1  0  0  0  0
  3  2  2  0  0  0  0
  4  5  1  0  0  0  0
  4  3  1  0  0  0  0
  5  1  2  0  0  0  0
  6  7  1  0  0  0  0
  7  8  1  0  0  0  0
  7 10  1  0  0  0  0
  9  6  2  0  0  0  0
 11 10  2  0  0  0  0
 11 12  1  0  0  0  0
 12 18  1  0  0  0  0
 13 12  2  0  0  0  0
 13 14  1  0  0  0  0
 14 16  2  0  0  0  0
 15 14  1  0  0  0  0
 16 17  1  0  0  0  0
 18 17  2  0  0  0  0
 19 20  1  0  0  0  0
 19  5  1  0  0  0  0
 20 21  1  0  0  0  0
 22 21  1  0  0  0  0
 23 22  1  0  0  0  0
 24 23  1  0  0  0  0
 24 26  1  0  0  0  0
 25 23  1  0  0  0  0
 26 20  1  0  0  0  0
 27  4  1  0  0  0  0
 28 27  2  0  0  0  0
 29 30  1  0  0  0  0
 29 28  1  0  0  0  0
 30 31  2  0  0  0  0
 31 27  1  0  0  0  0
 31 32  1  0  0  0  0
 32 34  1  0  0  0  0
 33 32  1  0  0  0  0
M  END
>  <Pose>
1

>  <Score>
-7.825

$$$$
