/Users/jonathanwahrer/Desktop/Msc/3_Semester/Drug_Design_Praktikum/waehrer_HTS_screening/HTS_experiment/out/docking_results/vina_output/3e7o/0156_docked.pdbqt
 OpenBabel03192215223D

 29 32  0  0  0  0  0  0  0  0999 V2000
  -36.6510  -66.8830   48.9490 C   0  0  0  0  0  0  0  0  0  0  0  0
  -37.8000  -66.2250   48.7650 N   0  0  0  0  0  4  0  0  0  0  0  0
  -37.8590  -64.9600   48.2630 C   0  0  0  0  0  0  0  0  0  0  0  0
  -36.6700  -64.3990   47.9550 N   0  0  0  0  0  0  0  0  0  0  0  0
  -35.4830  -65.0090   48.1170 C   0  0  0  0  0  0  0  0  0  0  0  0
  -35.5170  -66.2670   48.6220 N   0  0  0  0  0  2  0  0  0  0  0  0
  -36.6620  -68.2040   49.4770 N   0  0  0  0  0  0  0  0  0  0  0  0
  -36.2320  -68.9890   48.9450 H   0  0  0  0  0  0  0  0  0  0  0  0
  -37.2450  -68.4900   50.7150 N   0  0  0  0  0  0  0  0  0  0  0  0
  -38.4920  -68.6740   50.9070 C   0  0  0  0  0  3  0  0  0  0  0  0
  -39.0730  -68.9680   52.2110 C   0  0  0  0  0  0  0  0  0  0  0  0
  -40.2240  -68.3450   52.6600 C   0  0  0  0  0  3  0  0  0  0  0  0
  -40.7950  -68.6010   53.8830 C   0  0  0  0  0  0  0  0  0  0  0  0
  -42.3910  -67.7040   54.4440 Br  0  0  0  0  0  0  0  0  0  0  0  0
  -40.1960  -69.5260   54.7140 C   0  0  0  0  0  3  0  0  0  0  0  0
  -39.0470  -70.1730   54.3120 C   0  0  0  0  0  3  0  0  0  0  0  0
  -38.4990  -69.8860   53.0640 C   0  0  0  0  0  3  0  0  0  0  0  0
  -39.0850  -64.2840   48.0790 N   0  0  0  0  0  0  0  0  0  0  0  0
  -40.3350  -64.9610   48.2840 C   0  0  0  0  0  2  0  0  0  0  0  0
  -41.1340  -64.1240   49.2760 C   0  0  0  0  0  2  0  0  0  0  0  0
  -41.3050  -62.8750   48.6830 O   0  0  0  0  0  0  0  0  0  0  0  0
  -40.1160  -62.1770   48.5770 C   0  0  0  0  0  2  0  0  0  0  0  0
  -39.1180  -62.9030   47.6810 C   0  0  0  0  0  2  0  0  0  0  0  0
  -34.2590  -64.4020   47.7890 N   0  0  0  0  0  0  0  0  0  0  0  0
  -34.1450  -62.9870   47.5580 C   0  0  0  0  0  2  0  0  0  0  0  0
  -32.7970  -62.5720   48.1610 C   0  0  0  0  0  2  0  0  0  0  0  0
  -32.4400  -63.4410   49.1890 O   0  0  0  0  0  0  0  0  0  0  0  0
  -32.1140  -64.7050   48.7690 C   0  0  0  0  0  2  0  0  0  0  0  0
  -33.0710  -65.1980   47.6740 C   0  0  0  0  0  2  0  0  0  0  0  0
  1  7  1  0  0  0  0
  2  1  2  0  0  0  0
  3  2  2  0  0  0  0
  4  5  2  0  0  0  0
  4  3  1  0  0  0  0
  5  6  1  0  0  0  0
  6  1  1  0  0  0  0
  7  9  1  0  0  0  0
  8  7  1  0  0  0  0
  9 10  2  0  0  0  0
 10 11  1  0  0  0  0
 11 12  2  0  0  0  0
 11 17  1  0  0  0  0
 12 13  1  0  0  0  0
 13 14  1  0  0  0  0
 13 15  2  0  0  0  0
 16 15  1  0  0  0  0
 17 16  2  0  0  0  0
 18  3  1  0  0  0  0
 18 19  1  0  0  0  0
 19 20  1  0  0  0  0
 21 20  1  0  0  0  0
 22 21  1  0  0  0  0
 23 18  1  0  0  0  0
 23 22  1  0  0  0  0
 24  5  1  0  0  0  0
 25 24  1  0  0  0  0
 25 26  1  0  0  0  0
 26 27  1  0  0  0  0
 28 27  1  0  0  0  0
 29 24  1  0  0  0  0
 29 28  1  0  0  0  0
M  END
>  <Pose>
1

>  <Score>
-7.898

$$$$
