/Users/jonathanwahrer/Desktop/Msc/3_Semester/Drug_Design_Praktikum/waehrer_HTS_screening/HTS_experiment/out/docking_results/vina_output/3e7o/0170_docked.pdbqt
 OpenBabel03192215243D

 35 38  0  0  1  0  0  0  0  0999 V2000
  -38.1480  -67.1510   48.9610 C   0  0  1  0  0  3  0  0  0  0  0  0
  -39.2820  -66.3460   49.3710 N   0  0  0  0  0  0  0  0  0  0  0  0
  -38.8630  -65.0640   49.7830 C   0  0  0  0  0  0  0  0  0  0  0  0
  -39.4420  -64.1890   50.4770 O   0  0  0  0  0  0  0  0  0  0  0  0
  -37.5010  -64.8860   49.2200 C   0  0  0  0  0  0  0  0  0  0  0  0
  -36.8170  -63.8560   49.3810 O   0  0  0  0  0  0  0  0  0  0  0  0
  -37.1790  -66.1000   48.4920 C   0  0  0  0  0  0  0  0  0  0  0  0
  -36.2580  -66.2200   47.5710 C   0  0  0  0  0  0  0  0  0  0  0  0
  -36.1120  -67.4480   46.9030 O   0  0  0  0  0  1  0  0  0  0  0  0
  -37.5860  -67.9610   50.0560 C   0  0  0  0  0  0  0  0  0  0  0  0
  -38.3840  -68.5880   50.9860 C   0  0  0  0  0  3  0  0  0  0  0  0
  -37.8340  -69.3490   52.0110 C   0  0  0  0  0  0  0  0  0  0  0  0
  -38.9590  -70.2050   53.2880 Br  0  0  0  0  0  0  0  0  0  0  0  0
  -36.4580  -69.4850   52.1070 C   0  0  0  0  0  3  0  0  0  0  0  0
  -35.6670  -68.8540   51.1710 C   0  0  0  0  0  3  0  0  0  0  0  0
  -36.2190  -68.1010   50.1540 C   0  0  0  0  0  3  0  0  0  0  0  0
  -35.3760  -65.1400   47.2170 C   0  0  0  0  0  0  0  0  0  0  0  0
  -34.2150  -64.9940   47.9900 C   0  0  0  0  0  3  0  0  0  0  0  0
  -33.3410  -63.9700   47.7510 C   0  0  0  0  0  0  0  0  0  0  0  0
  -33.5590  -63.0380   46.7440 C   0  0  0  0  0  0  0  0  0  0  0  0
  -32.1060  -63.8280   48.5870 C   0  0  0  0  0  1  0  0  0  0  0  0
  -34.6910  -63.1990   46.0070 C   0  0  0  0  0  3  0  0  0  0  0  0
  -35.5840  -64.2260   46.2360 C   0  0  0  0  0  3  0  0  0  0  0  0
  -32.6280  -62.0350   46.5660 O   0  0  0  0  0  0  0  0  0  0  0  0
  -31.7780  -62.0230   45.4290 C   0  0  0  0  0  1  0  0  0  0  0  0
  -40.6900  -66.7740   49.3620 C   0  0  0  0  0  2  0  0  0  0  0  0
  -41.1290  -67.1140   50.7590 C   0  0  0  0  0  2  0  0  0  0  0  0
  -42.0530  -66.1290   51.3890 C   0  0  0  0  0  2  0  0  0  0  0  0
  -42.1100  -66.2240   52.8310 N   0  0  0  0  0  4  0  0  0  0  0  0
  -43.4710  -66.1340   53.3240 C   0  0  0  0  0  2  0  0  0  0  0  0
  -43.8870  -67.4200   53.9840 C   0  0  0  0  0  2  0  0  0  0  0  0
  -43.0270  -67.6360   55.0810 O   0  0  0  0  0  0  0  0  0  0  0  0
  -41.7190  -67.8310   54.6440 C   0  0  0  0  0  2  0  0  0  0  0  0
  -41.5080  -67.5090   53.1990 C   0  0  0  0  0  2  0  0  0  0  0  0
  -41.5320  -65.5060   53.3170 H   0  0  0  0  0  0  0  0  0  0  0  0
  1  2  1  0  0  0  0
  1 10  1  1  0  0  0
  2  3  1  0  0  0  0
  3  4  2  0  0  0  0
  5  6  2  0  0  0  0
  5  3  1  0  0  0  0
  7  1  1  0  0  0  0
  7  5  1  0  0  0  0
  8  7  2  0  0  0  0
  9  8  1  0  0  0  0
 10 16  2  0  0  0  0
 10 11  1  0  0  0  0
 11 12  2  0  0  0  0
 12 14  1  0  0  0  0
 12 13  1  0  0  0  0
 15 14  2  0  0  0  0
 16 15  1  0  0  0  0
 17  8  1  0  0  0  0
 17 18  1  0  0  0  0
 19 18  2  0  0  0  0
 19 21  1  0  0  0  0
 20 19  1  0  0  0  0
 22 23  1  0  0  0  0
 22 20  2  0  0  0  0
 23 17  2  0  0  0  0
 24 20  1  0  0  0  0
 25 24  1  0  0  0  0
 26  2  1  0  0  0  0
 26 27  1  0  0  0  0
 27 28  1  0  0  0  0
 28 29  1  0  0  0  0
 29 34  1  0  0  0  0
 29 35  1  0  0  0  0
 29 30  1  0  0  0  0
 30 31  1  0  0  0  0
 31 32  1  0  0  0  0
 33 32  1  0  0  0  0
 34 33  1  0  0  0  0
M  END
>  <Pose>
1

>  <Score>
-8.510

$$$$
