/Users/jonathanwahrer/Desktop/Msc/3_Semester/Drug_Design_Praktikum/waehrer_HTS_screening/HTS_experiment/out/docking_results/vina_output/3e7o/0175_docked.pdbqt
 OpenBabel03192215243D

 32 35  0  0  1  0  0  0  0  0999 V2000
  -39.8630  -64.2220   49.0030 C   0  0  2  0  0  3  0  0  0  0  0  0
  -39.0380  -64.9760   48.1080 N   0  0  0  0  0  0  0  0  0  0  0  0
  -39.5450  -66.3020   48.1190 C   0  0  0  0  0  0  0  0  0  0  0  0
  -39.3310  -67.1780   47.2450 O   0  0  0  0  0  0  0  0  0  0  0  0
  -40.3720  -66.4970   49.3330 C   0  0  0  0  0  0  0  0  0  0  0  0
  -40.9760  -67.5240   49.6860 O   0  0  0  0  0  0  0  0  0  0  0  0
  -40.3280  -65.2240   50.0280 C   0  0  0  0  0  0  0  0  0  0  0  0
  -40.5830  -64.9840   51.2950 C   0  0  0  0  0  0  0  0  0  0  0  0
  -40.4210  -63.7110   51.7990 O   0  0  0  0  0  1  0  0  0  0  0  0
  -37.8860  -64.5070   47.3120 C   0  0  0  0  0  2  0  0  0  0  0  0
  -36.6870  -64.5070   48.2200 C   0  0  0  0  0  2  0  0  0  0  0  0
  -35.5360  -65.1530   47.7020 N   0  0  0  0  0  4  0  0  0  0  0  0
  -34.3920  -65.1900   48.5660 C   0  0  0  0  0  2  0  0  0  0  0  0
  -34.3150  -66.4130   49.4390 C   0  0  0  0  0  2  0  0  0  0  0  0
  -34.6570  -67.5800   48.7920 O   0  0  0  0  0  0  0  0  0  0  0  0
  -35.9140  -67.5200   48.2370 C   0  0  0  0  0  2  0  0  0  0  0  0
  -35.9010  -66.4460   47.1820 C   0  0  0  0  0  2  0  0  0  0  0  0
  -35.2410  -64.5980   46.8430 H   0  0  0  0  0  0  0  0  0  0  0  0
  -41.0350  -63.6010   48.3250 C   0  0  0  0  0  0  0  0  0  0  0  0
  -42.2500  -63.4320   48.9560 C   0  0  0  0  0  3  0  0  0  0  0  0
  -43.3470  -62.8530   48.3250 C   0  0  0  0  0  0  0  0  0  0  0  0
  -45.0120  -62.6390   49.2360 Br  0  0  0  0  0  0  0  0  0  0  0  0
  -43.2180  -62.4350   47.0380 C   0  0  0  0  0  3  0  0  0  0  0  0
  -42.0290  -62.5810   46.3690 C   0  0  0  0  0  3  0  0  0  0  0  0
  -40.9550  -63.1580   47.0120 C   0  0  0  0  0  3  0  0  0  0  0  0
  -41.0380  -66.0210   52.1850 C   0  0  0  0  0  0  0  0  0  0  0  0
  -42.3260  -66.2520   52.5740 C   0  0  0  0  0  3  0  0  0  0  0  0
  -42.6260  -67.3150   53.4060 C   0  0  0  0  0  3  0  0  0  0  0  0
  -41.6820  -68.1900   53.8910 C   0  0  0  0  0  0  0  0  0  0  0  0
  -40.3810  -67.9550   53.4990 C   0  0  0  0  0  3  0  0  0  0  0  0
  -42.0320  -69.3280   54.7870 C   0  0  0  0  0  1  0  0  0  0  0  0
  -40.0620  -66.9050   52.6730 C   0  0  0  0  0  3  0  0  0  0  0  0
  1 19  1  6  0  0  0
  1  7  1  0  0  0  0
  2  3  1  0  0  0  0
  2  1  1  0  0  0  0
  3  5  1  0  0  0  0
  4  3  2  0  0  0  0
  5  6  2  0  0  0  0
  5  7  1  0  0  0  0
  7  8  2  0  0  0  0
  8  9  1  0  0  0  0
  8 26  1  0  0  0  0
 10  2  1  0  0  0  0
 10 11  1  0  0  0  0
 12 11  1  0  0  0  0
 12 13  1  0  0  0  0
 13 14  1  0  0  0  0
 15 14  1  0  0  0  0
 16 15  1  0  0  0  0
 17 12  1  0  0  0  0
 17 16  1  0  0  0  0
 18 12  1  0  0  0  0
 19 20  1  0  0  0  0
 21 20  2  0  0  0  0
 21 22  1  0  0  0  0
 23 21  1  0  0  0  0
 24 25  1  0  0  0  0
 24 23  2  0  0  0  0
 25 19  2  0  0  0  0
 26 27  2  0  0  0  0
 26 32  1  0  0  0  0
 27 28  1  0  0  0  0
 28 29  2  0  0  0  0
 29 31  1  0  0  0  0
 30 29  1  0  0  0  0
 32 30  2  0  0  0  0
M  END
>  <Pose>
1

>  <Score>
-7.592

$$$$
