/Users/jonathanwahrer/Desktop/Msc/3_Semester/Drug_Design_Praktikum/waehrer_HTS_screening/HTS_experiment/out/docking_results/vina_output/3e7o/0176_docked.pdbqt
 OpenBabel03192215243D

 33 36  0  0  1  0  0  0  0  0999 V2000
  -42.0870  -66.7690   51.5100 C   0  0  1  0  0  3  0  0  0  0  0  0
  -43.1950  -65.8900   51.8460 N   0  0  0  0  0  0  0  0  0  0  0  0
  -42.6340  -64.5850   52.0980 C   0  0  0  0  0  0  0  0  0  0  0  0
  -43.2160  -63.6640   52.7210 O   0  0  0  0  0  0  0  0  0  0  0  0
  -41.3140  -64.5690   51.5020 C   0  0  0  0  0  0  0  0  0  0  0  0
  -40.4690  -63.6200   51.4900 O   0  0  0  0  0  0  0  0  0  0  0  0
  -41.0930  -65.8730   50.8900 C   0  0  0  0  0  0  0  0  0  0  0  0
  -40.1550  -66.1520   49.9970 C   0  0  0  0  0  0  0  0  0  0  0  0
  -40.1190  -67.5070   49.6050 O   0  0  0  0  0  1  0  0  0  0  0  0
  -44.5580  -66.2870   51.9980 C   0  0  0  0  0  2  0  0  0  0  0  0
  -45.1730  -66.2560   53.3360 C   0  0  0  0  0  2  0  0  0  0  0  0
  -46.5320  -65.6910   53.5190 C   0  0  0  0  0  2  0  0  0  0  0  0
  -47.5340  -66.5150   54.1070 N   0  0  0  0  0  4  0  0  0  0  0  0
  -48.8220  -66.2590   53.5160 C   0  0  0  0  0  2  0  0  0  0  0  0
  -49.1430  -67.1790   52.3570 C   0  0  0  0  0  2  0  0  0  0  0  0
  -49.2660  -68.4950   52.8090 O   0  0  0  0  0  0  0  0  0  0  0  0
  -48.5360  -68.6870   53.9840 C   0  0  0  0  0  2  0  0  0  0  0  0
  -47.2350  -67.9520   53.8210 C   0  0  0  0  0  2  0  0  0  0  0  0
  -47.5360  -66.4770   55.1230 H   0  0  0  0  0  0  0  0  0  0  0  0
  -41.5760  -67.4550   52.7230 C   0  0  0  0  0  0  0  0  0  0  0  0
  -40.5190  -68.3320   52.6290 C   0  0  0  0  0  3  0  0  0  0  0  0
  -40.0080  -68.9990   53.7340 C   0  0  0  0  0  0  0  0  0  0  0  0
  -38.5460  -70.2070   53.6170 Br  0  0  0  0  0  0  0  0  0  0  0  0
  -40.5620  -68.7910   54.9790 C   0  0  0  0  0  3  0  0  0  0  0  0
  -41.6190  -67.9150   55.0760 C   0  0  0  0  0  3  0  0  0  0  0  0
  -42.1260  -67.2460   53.9530 C   0  0  0  0  0  3  0  0  0  0  0  0
  -39.2250  -65.1840   49.4380 C   0  0  0  0  0  0  0  0  0  0  0  0
  -37.9410  -64.9680   49.8780 C   0  0  0  0  0  3  0  0  0  0  0  0
  -37.0910  -64.0570   49.2850 C   0  0  0  0  0  3  0  0  0  0  0  0
  -37.5070  -63.3110   48.2060 C   0  0  0  0  0  0  0  0  0  0  0  0
  -38.7940  -63.5140   47.7510 C   0  0  0  0  0  3  0  0  0  0  0  0
  -36.4370  -62.1390   47.4290 Cl  0  0  0  0  0  0  0  0  0  0  0  0
  -39.6380  -64.4280   48.3510 C   0  0  0  0  0  3  0  0  0  0  0  0
  1  2  1  0  0  0  0
  1 20  1  1  0  0  0
  2 10  1  0  0  0  0
  2  3  1  0  0  0  0
  3  4  2  0  0  0  0
  5  3  1  0  0  0  0
  6  5  2  0  0  0  0
  7  5  1  0  0  0  0
  7  1  1  0  0  0  0
  8  7  2  0  0  0  0
  9  8  1  0  0  0  0
 10 11  1  0  0  0  0
 11 12  1  0  0  0  0
 12 13  1  0  0  0  0
 13 19  1  0  0  0  0
 14 13  1  0  0  0  0
 15 16  1  0  0  0  0
 15 14  1  0  0  0  0
 16 17  1  0  0  0  0
 18 17  1  0  0  0  0
 18 13  1  0  0  0  0
 20 26  1  0  0  0  0
 21 20  2  0  0  0  0
 21 22  1  0  0  0  0
 22 24  2  0  0  0  0
 23 22  1  0  0  0  0
 24 25  1  0  0  0  0
 26 25  2  0  0  0  0
 27 28  1  0  0  0  0
 27  8  1  0  0  0  0
 29 28  2  0  0  0  0
 30 29  1  0  0  0  0
 31 30  2  0  0  0  0
 31 33  1  0  0  0  0
 32 30  1  0  0  0  0
 33 27  2  0  0  0  0
M  END
>  <Pose>
1

>  <Score>
-8.626

$$$$
