/Users/jonathanwahrer/Desktop/Msc/3_Semester/Drug_Design_Praktikum/waehrer_HTS_screening/HTS_experiment/out/docking_results/vina_output/3e7o/0182_docked.pdbqt
 OpenBabel03192215253D

 36 40  0  0  1  0  0  0  0  0999 V2000
  -37.4770  -63.9880   47.4040 C   0  0  2  0  0  3  0  0  0  0  0  0
  -38.5790  -63.1100   47.2230 N   0  0  0  0  0  0  0  0  0  0  0  0
  -39.7060  -64.0230   47.0100 C   0  0  0  0  0  0  0  0  0  0  0  0
  -40.7370  -63.7770   46.3630 O   0  0  0  0  0  0  0  0  0  0  0  0
  -39.3630  -65.2700   47.7120 C   0  0  0  0  0  0  0  0  0  0  0  0
  -40.0400  -66.3200   47.8000 O   0  0  0  0  0  0  0  0  0  0  0  0
  -38.0480  -65.0330   48.3030 C   0  0  0  0  0  0  0  0  0  0  0  0
  -37.5590  -65.5900   49.3810 C   0  0  0  0  0  0  0  0  0  0  0  0
  -36.2830  -65.1580   49.8040 O   0  0  0  0  0  1  0  0  0  0  0  0
  -36.1790  -63.4830   47.7390 C   0  0  0  0  0  0  0  0  0  0  0  0
  -35.0430  -64.0230   47.1020 C   0  0  0  0  0  3  0  0  0  0  0  0
  -33.7650  -63.6090   47.3700 C   0  0  0  0  0  0  0  0  0  0  0  0
  -32.2690  -64.3880   46.4620 Br  0  0  0  0  0  0  0  0  0  0  0  0
  -33.5190  -62.6280   48.2920 C   0  0  0  0  0  3  0  0  0  0  0  0
  -34.5960  -62.0700   48.9410 C   0  0  0  0  0  3  0  0  0  0  0  0
  -35.8740  -62.5020   48.6560 C   0  0  0  0  0  3  0  0  0  0  0  0
  -38.2620  -66.6180   50.1320 C   0  0  0  0  0  0  0  0  0  0  0  0
  -39.3350  -66.5640   50.9340 N   0  0  0  0  0  0  0  0  0  0  0  0
  -39.5830  -67.7760   51.4370 C   0  0  0  0  0  0  0  0  0  0  0  0
  -40.1120  -65.4830   51.2220 C   0  0  0  0  0  3  0  0  0  0  0  0
  -38.6410  -68.6200   50.9390 N   0  0  0  0  0  0  0  0  0  0  0  0
  -40.6560  -68.0080   52.2950 C   0  0  0  0  0  0  0  0  0  0  0  0
  -37.8110  -67.9480   50.1310 C   0  0  0  0  0  0  0  0  0  0  0  0
  -36.6440  -68.4970   49.3840 C   0  0  0  0  0  1  0  0  0  0  0  0
  -41.4610  -66.9290   52.6030 C   0  0  0  0  0  3  0  0  0  0  0  0
  -40.8820  -69.3750   52.8250 C   0  0  0  0  0  1  0  0  0  0  0  0
  -41.1770  -65.6870   52.0650 C   0  0  0  0  0  3  0  0  0  0  0  0
  -38.7370  -61.6670   47.1710 C   0  0  0  0  0  2  0  0  0  0  0  0
  -38.1770  -61.0100   45.9570 C   0  0  0  0  0  2  0  0  0  0  0  0
  -37.1680  -60.0160   46.2660 N   0  0  0  0  0  4  0  0  0  0  0  0
  -35.8770  -60.3870   45.7300 C   0  0  0  0  0  2  0  0  0  0  0  0
  -35.8820  -60.2130   44.2080 C   0  0  0  0  0  2  0  0  0  0  0  0
  -36.0220  -58.8390   43.9850 O   0  0  0  0  0  0  0  0  0  0  0  0
  -37.3500  -58.5300   44.3440 C   0  0  0  0  0  2  0  0  0  0  0  0
  -37.5710  -58.6940   45.8290 C   0  0  0  0  0  2  0  0  0  0  0  0
  -37.0520  -59.9630   47.3080 H   0  0  0  0  0  0  0  0  0  0  0  0
  1 10  1  1  0  0  0
  1  7  1  0  0  0  0
  2  1  1  0  0  0  0
  3  2  1  0  0  0  0
  3  5  1  0  0  0  0
  4  3  2  0  0  0  0
  5  6  2  0  0  0  0
  5  7  1  0  0  0  0
  7  8  2  0  0  0  0
  8  9  1  0  0  0  0
  8 17  1  0  0  0  0
 10 16  1  0  0  0  0
 11 12  1  0  0  0  0
 11 10  2  0  0  0  0
 12 14  2  0  0  0  0
 13 12  1  0  0  0  0
 14 15  1  0  0  0  0
 16 15  2  0  0  0  0
 17 18  1  0  0  0  0
 18 20  1  0  0  0  0
 18 19  1  0  0  0  0
 19 22  1  0  0  0  0
 20 27  2  0  0  0  0
 21 19  2  0  0  0  0
 22 25  2  0  0  0  0
 22 26  1  0  0  0  0
 23 17  2  0  0  0  0
 23 21  1  0  0  0  0
 24 23  1  0  0  0  0
 27 25  1  0  0  0  0
 28  2  1  0  0  0  0
 29 30  1  0  0  0  0
 29 28  1  0  0  0  0
 30 36  1  0  0  0  0
 31 30  1  0  0  0  0
 32 31  1  0  0  0  0
 33 32  1  0  0  0  0
 33 34  1  0  0  0  0
 34 35  1  0  0  0  0
 35 30  1  0  0  0  0
M  END
>  <Pose>
1

>  <Score>
-7.175

$$$$
