/Users/jonathanwahrer/Desktop/Msc/3_Semester/Drug_Design_Praktikum/waehrer_HTS_screening/HTS_experiment/out/docking_results/vina_output/3e7o/0184_docked.pdbqt
 OpenBabel03192215253D

 33 36  0  0  1  0  0  0  0  0999 V2000
  -37.3300  -64.1350   49.6090 C   0  0  2  0  0  3  0  0  0  0  0  0
  -37.3170  -63.0140   48.6890 N   0  0  0  0  0  0  0  0  0  0  0  0
  -35.9470  -62.5940   48.6310 C   0  0  0  0  0  0  0  0  0  0  0  0
  -35.5110  -61.4660   48.3420 O   0  0  0  0  0  0  0  0  0  0  0  0
  -35.1340  -63.7530   48.9780 C   0  0  0  0  0  0  0  0  0  0  0  0
  -33.8760  -63.8790   49.0650 O   0  0  0  0  0  0  0  0  0  0  0  0
  -36.0650  -64.8410   49.2330 C   0  0  0  0  0  0  0  0  0  0  0  0
  -35.7870  -66.1280   49.1760 C   0  0  0  0  0  0  0  0  0  0  0  0
  -36.8290  -66.9990   49.5270 O   0  0  0  0  0  1  0  0  0  0  0  0
  -38.4960  -65.0180   49.4860 C   0  0  0  0  0  0  0  0  0  0  0  0
  -39.3060  -65.3590   50.5160 C   0  0  0  0  0  3  0  0  0  0  0  0
  -40.3920  -66.2120   50.3150 C   0  0  0  0  0  0  0  0  0  0  0  0
  -41.5050  -66.6660   51.7860 Br  0  0  0  0  0  0  0  0  0  0  0  0
  -40.6780  -66.7390   49.0640 C   0  0  0  0  0  3  0  0  0  0  0  0
  -39.8410  -66.3800   48.0300 C   0  0  0  0  0  3  0  0  0  0  0  0
  -38.7800  -65.5460   48.2220 C   0  0  0  0  0  3  0  0  0  0  0  0
  -34.5060  -66.6930   48.7780 C   0  0  0  0  0  0  0  0  0  0  0  0
  -34.0030  -66.7870   47.5390 N   0  0  0  0  0  0  0  0  0  0  0  0
  -32.7600  -67.3340   47.5620 C   0  0  0  0  0  0  0  0  0  0  0  0
  -34.5120  -66.4580   46.3150 C   0  0  0  0  0  3  0  0  0  0  0  0
  -32.5080  -67.5800   48.8770 N   0  0  0  0  0  0  0  0  0  0  0  0
  -32.0150  -67.5580   46.4150 C   0  0  0  0  0  3  0  0  0  0  0  0
  -33.5250  -67.2120   49.6380 C   0  0  0  0  0  0  0  0  0  0  0  0
  -33.7240  -67.2760   51.1030 C   0  0  0  0  0  1  0  0  0  0  0  0
  -32.5350  -67.2210   45.1830 C   0  0  0  0  0  3  0  0  0  0  0  0
  -33.8090  -66.6630   45.1680 C   0  0  0  0  0  3  0  0  0  0  0  0
  -38.4440  -62.4090   47.9750 C   0  0  0  0  0  2  0  0  0  0  0  0
  -38.2590  -62.3640   46.5020 C   0  0  0  0  0  2  0  0  0  0  0  0
  -38.3130  -61.0570   45.8250 C   0  0  0  0  0  2  0  0  0  0  0  0
  -37.3470  -60.0920   46.2200 N   0  0  0  0  0  4  0  0  0  0  0  0
  -37.8890  -58.7620   46.0840 C   0  0  0  0  0  1  0  0  0  0  0  0
  -36.1970  -60.1510   45.2980 C   0  0  0  0  0  1  0  0  0  0  0  0
  -36.9230  -60.2630   47.1580 H   0  0  0  0  0  0  0  0  0  0  0  0
  1 10  1  6  0  0  0
  2  1  1  0  0  0  0
  3  2  1  0  0  0  0
  3  5  1  0  0  0  0
  4  3  2  0  0  0  0
  5  6  2  0  0  0  0
  5  7  1  0  0  0  0
  7  1  1  0  0  0  0
  8  7  2  0  0  0  0
  8  9  1  0  0  0  0
 10 11  1  0  0  0  0
 12 11  2  0  0  0  0
 12 13  1  0  0  0  0
 14 12  1  0  0  0  0
 15 16  1  0  0  0  0
 15 14  2  0  0  0  0
 16 10  2  0  0  0  0
 17  8  1  0  0  0  0
 17 23  2  0  0  0  0
 18 19  1  0  0  0  0
 18 17  1  0  0  0  0
 19 21  2  0  0  0  0
 20 18  1  0  0  0  0
 21 23  1  0  0  0  0
 22 19  1  0  0  0  0
 23 24  1  0  0  0  0
 25 22  2  0  0  0  0
 26 25  1  0  0  0  0
 26 20  2  0  0  0  0
 27  2  1  0  0  0  0
 28 27  1  0  0  0  0
 29 30  1  0  0  0  0
 29 28  1  0  0  0  0
 30 33  1  0  0  0  0
 31 30  1  0  0  0  0
 32 30  1  0  0  0  0
M  END
>  <Pose>
1

>  <Score>
-6.163

$$$$
