/Users/jonathanwahrer/Desktop/Msc/3_Semester/Drug_Design_Praktikum/waehrer_HTS_screening/HTS_experiment/out/docking_results/vina_output/3e7o/0191_docked.pdbqt
 OpenBabel03192215263D

 34 37  0  0  1  0  0  0  0  0999 V2000
  -39.5610  -64.0850   48.7350 C   0  0  2  0  0  3  0  0  0  0  0  0
  -38.6520  -64.9320   47.9890 N   0  0  0  0  0  0  0  0  0  0  0  0
  -39.2540  -66.2450   47.9870 C   0  0  0  0  0  0  0  0  0  0  0  0
  -39.0220  -67.1510   47.1510 O   0  0  0  0  0  0  0  0  0  0  0  0
  -40.1620  -66.2910   49.1370 C   0  0  0  0  0  0  0  0  0  0  0  0
  -40.8930  -67.2410   49.5190 O   0  0  0  0  0  0  0  0  0  0  0  0
  -40.0940  -65.0000   49.8120 C   0  0  0  0  0  0  0  0  0  0  0  0
  -40.4340  -64.7190   51.0580 C   0  0  0  0  0  0  0  0  0  0  0  0
  -40.3160  -63.4300   51.5130 O   0  0  0  0  0  1  0  0  0  0  0  0
  -40.6710  -63.5420   47.9120 C   0  0  0  0  0  0  0  0  0  0  0  0
  -41.9490  -63.3570   48.4450 C   0  0  0  0  0  3  0  0  0  0  0  0
  -42.9980  -62.8650   47.7250 C   0  0  0  0  0  0  0  0  0  0  0  0
  -44.7250  -62.6450   48.5470 Br  0  0  0  0  0  0  0  0  0  0  0  0
  -42.8250  -62.5250   46.4160 C   0  0  0  0  0  3  0  0  0  0  0  0
  -41.5960  -62.6840   45.8430 C   0  0  0  0  0  3  0  0  0  0  0  0
  -40.5330  -63.1880   46.5880 C   0  0  0  0  0  3  0  0  0  0  0  0
  -40.9350  -65.7640   51.9720 C   0  0  0  0  0  0  0  0  0  0  0  0
  -40.2570  -66.8000   52.3830 O   0  0  0  0  0  0  0  0  0  0  0  0
  -40.9200  -67.5700   53.1800 C   0  0  0  0  0  0  0  0  0  0  0  0
  -42.1660  -67.0100   53.3260 C   0  0  0  0  0  0  0  0  0  0  0  0
  -40.5530  -68.7480   53.8170 C   0  0  0  0  0  0  0  0  0  0  0  0
  -42.1740  -65.8640   52.5590 C   0  0  0  0  0  3  0  0  0  0  0  0
  -43.0770  -67.6500   54.1380 C   0  0  0  0  0  3  0  0  0  0  0  0
  -42.7660  -68.8240   54.7940 C   0  0  0  0  0  3  0  0  0  0  0  0
  -41.4860  -69.3580   54.6170 C   0  0  0  0  0  3  0  0  0  0  0  0
  -39.3080  -69.3050   53.6710 O   0  0  0  0  0  0  0  0  0  0  0  0
  -38.8280  -70.4530   54.2940 C   0  0  0  0  0  1  0  0  0  0  0  0
  -37.4110  -64.5730   47.3460 C   0  0  0  0  0  2  0  0  0  0  0  0
  -36.2620  -64.5660   48.3240 C   0  0  0  0  0  2  0  0  0  0  0  0
  -35.5330  -65.8540   48.4520 C   0  0  0  0  0  2  0  0  0  0  0  0
  -35.7920  -66.5790   49.6570 N   0  0  0  0  0  4  0  0  0  0  0  0
  -34.5910  -66.6370   50.4950 C   0  0  0  0  0  1  0  0  0  0  0  0
  -36.2710  -67.9050   49.4170 C   0  0  0  0  0  1  0  0  0  0  0  0
  -36.5090  -66.0960   50.2720 H   0  0  0  0  0  0  0  0  0  0  0  0
  1 10  1  6  0  0  0
  1  7  1  0  0  0  0
  2  1  1  0  0  0  0
  3  2  1  0  0  0  0
  3  5  1  0  0  0  0
  4  3  2  0  0  0  0
  5  6  2  0  0  0  0
  5  7  1  0  0  0  0
  7  8  2  0  0  0  0
  8  9  1  0  0  0  0
  8 17  1  0  0  0  0
 10 11  1  0  0  0  0
 12 11  2  0  0  0  0
 12 13  1  0  0  0  0
 14 12  1  0  0  0  0
 15 14  2  0  0  0  0
 15 16  1  0  0  0  0
 16 10  2  0  0  0  0
 17 18  1  0  0  0  0
 17 22  2  0  0  0  0
 18 19  1  0  0  0  0
 19 20  2  0  0  0  0
 19 21  1  0  0  0  0
 20 23  1  0  0  0  0
 21 25  2  0  0  0  0
 22 20  1  0  0  0  0
 23 24  2  0  0  0  0
 25 24  1  0  0  0  0
 26 21  1  0  0  0  0
 26 27  1  0  0  0  0
 28  2  1  0  0  0  0
 28 29  1  0  0  0  0
 29 30  1  0  0  0  0
 30 31  1  0  0  0  0
 31 34  1  0  0  0  0
 31 32  1  0  0  0  0
 33 31  1  0  0  0  0
M  END
>  <Pose>
1

>  <Score>
-7.554

$$$$
