/Users/jonathanwahrer/Desktop/Msc/3_Semester/Drug_Design_Praktikum/waehrer_HTS_screening/HTS_experiment/out/docking_results/vina_output/3e7o/0211_docked.pdbqt
 OpenBabel03192215263D

 22 25  0  0  1  0  0  0  0  0999 V2000
  -42.4140  -66.3690   53.2340 N   0  0  0  0  0  0  0  0  0  0  0  0
  -42.6990  -65.0010   52.9780 C   0  0  0  0  0  0  0  0  0  0  0  0
  -41.8420  -64.1430   52.5480 O   0  0  0  0  0  0  0  0  0  0  0  0
  -44.1130  -64.7420   53.2830 C   0  0  1  0  0  3  0  0  0  0  0  0
  -44.9050  -64.9070   52.0220 C   0  0  1  0  0  0  0  0  0  0  0  0
  -44.8130  -66.3140   51.8650 O   0  0  0  0  0  0  0  0  0  0  0  0
  -45.4570  -66.6480   53.0860 C   0  0  1  0  0  3  0  0  0  0  0  0
  -44.5420  -65.9470   54.0730 C   0  0  1  0  0  3  0  0  0  0  0  0
  -43.3440  -66.8000   54.2130 C   0  0  0  0  0  0  0  0  0  0  0  0
  -43.1950  -67.7290   55.0490 O   0  0  0  0  0  0  0  0  0  0  0  0
  -46.7220  -65.8970   52.9180 C   0  0  0  0  0  2  0  0  0  0  0  0
  -46.3750  -64.7980   52.2230 C   0  0  0  0  0  2  0  0  0  0  0  0
  -41.3750  -67.1640   52.6160 C   0  0  0  0  0  0  0  0  0  0  0  0
  -40.6480  -68.1050   53.3300 C   0  0  0  0  0  3  0  0  0  0  0  0
  -39.6640  -68.8800   52.8060 C   0  0  0  0  0  0  0  0  0  0  0  0
  -38.7470  -70.1340   53.9160 Br  0  0  0  0  0  0  0  0  0  0  0  0
  -39.3520  -68.7370   51.4680 C   0  0  0  0  0  3  0  0  0  0  0  0
  -40.0480  -67.8150   50.7140 C   0  0  0  0  0  3  0  0  0  0  0  0
  -41.0540  -67.0320   51.2850 C   0  0  0  0  0  3  0  0  0  0  0  0
  -44.4010  -64.1530   50.8510 C   0  0  0  0  0  2  0  0  0  0  0  0
  -44.3340  -62.7990   51.1850 O   0  0  0  0  0  0  0  0  0  0  0  0
  -43.4840  -62.6030   51.6530 H   0  0  0  0  0  0  0  0  0  0  0  0
  1  9  1  0  0  0  0
  2  1  1  0  0  0  0
  3  2  2  0  0  0  0
  4  2  1  6  0  0  0
  4  8  1  0  0  0  0
  5 20  1  6  0  0  0
  5 12  1  0  0  0  0
  5  4  1  0  0  0  0
  6  5  1  0  0  0  0
  6  7  1  0  0  0  0
  7 11  1  6  0  0  0
  7  8  1  0  0  0  0
  8  9  1  6  0  0  0
  9 10  2  0  0  0  0
 12 11  1  0  0  0  0
 13  1  1  0  0  0  0
 13 14  1  0  0  0  0
 15 14  2  0  0  0  0
 15 16  1  0  0  0  0
 17 15  1  0  0  0  0
 18 19  1  0  0  0  0
 18 17  2  0  0  0  0
 19 13  2  0  0  0  0
 20 21  1  0  0  0  0
 21 22  1  0  0  0  0
M  END
>  <Pose>
1

>  <Score>
-8.083

$$$$
