/Users/jonathanwahrer/Desktop/Msc/3_Semester/Drug_Design_Praktikum/waehrer_HTS_screening/HTS_experiment/out/docking_results/vina_output/3e7o/0213_docked.pdbqt
 OpenBabel03192215263D

 25 28  0  0  1  0  0  0  0  0999 V2000
  -41.7750  -66.9880   53.1170 N   0  0  0  0  0  0  0  0  0  0  0  0
  -41.6150  -65.7300   52.4250 C   0  0  0  0  0  0  0  0  0  0  0  0
  -40.7760  -65.4310   51.5690 O   0  0  0  0  0  0  0  0  0  0  0  0
  -42.6720  -64.8050   52.9290 C   0  0  1  0  0  3  0  0  0  0  0  0
  -43.1830  -63.9490   51.9700 O   0  0  0  0  0  0  0  0  0  0  0  0
  -44.4750  -63.7800   52.4110 N   0  0  0  0  0  0  0  0  0  0  0  0
  -44.9070  -65.1070   52.7620 C   0  0  0  0  0  0  0  0  0  0  0  0
  -43.8260  -65.7740   53.0880 C   0  0  0  0  0  0  0  0  0  0  0  0
  -43.1610  -67.0060   53.5280 C   0  0  0  0  0  0  0  0  0  0  0  0
  -43.7490  -67.8930   54.1540 O   0  0  0  0  0  0  0  0  0  0  0  0
  -45.0290  -62.9210   52.4840 H   0  0  0  0  0  0  0  0  0  0  0  0
  -40.7670  -67.9570   53.3230 C   0  0  0  0  0  0  0  0  0  0  0  0
  -39.9080  -68.2900   52.3000 C   0  0  0  0  0  3  0  0  0  0  0  0
  -38.9050  -69.2500   52.4760 C   0  0  0  0  0  0  0  0  0  0  0  0
  -37.7330  -69.6910   51.0440 Br  0  0  0  0  0  0  0  0  0  0  0  0
  -38.7410  -69.8960   53.6790 C   0  0  0  0  0  3  0  0  0  0  0  0
  -39.6000  -69.5640   54.7040 C   0  0  0  0  0  3  0  0  0  0  0  0
  -40.6040  -68.6010   54.5240 C   0  0  0  0  0  3  0  0  0  0  0  0
  -46.2410  -65.6450   52.7620 C   0  0  0  0  0  0  0  0  0  0  0  0
  -46.7970  -66.2660   53.8780 C   0  0  0  0  0  3  0  0  0  0  0  0
  -48.0540  -66.6560   53.5960 N   0  0  0  0  0  0  0  0  0  0  0  0
  -48.2710  -66.2880   52.3450 N   0  0  0  0  0  0  0  0  0  0  0  0
  -48.9820  -67.3500   54.5030 C   0  0  0  0  0  1  0  0  0  0  0  0
  -47.2210  -65.6790   51.7970 C   0  0  0  0  0  0  0  0  0  0  0  0
  -47.0930  -65.1170   50.4100 C   0  0  0  0  0  1  0  0  0  0  0  0
  1 12  1  0  0  0  0
  1  9  1  0  0  0  0
  2  4  1  0  0  0  0
  2  1  1  0  0  0  0
  3  2  2  0  0  0  0
  4  5  1  6  0  0  0
  4  8  1  0  0  0  0
  5  6  1  0  0  0  0
  6 11  1  0  0  0  0
  6  7  1  0  0  0  0
  7  8  2  0  0  0  0
  8  9  1  0  0  0  0
  9 10  2  0  0  0  0
 12 18  1  0  0  0  0
 13 14  1  0  0  0  0
 13 12  2  0  0  0  0
 14 16  2  0  0  0  0
 15 14  1  0  0  0  0
 16 17  1  0  0  0  0
 18 17  2  0  0  0  0
 19  7  1  0  0  0  0
 19 20  2  0  0  0  0
 21 20  1  0  0  0  0
 21 23  1  0  0  0  0
 22 21  1  0  0  0  0
 24 22  2  0  0  0  0
 24 19  1  0  0  0  0
 25 24  1  0  0  0  0
M  END
>  <Pose>
1

>  <Score>
-8.855

$$$$
