/Users/jonathanwahrer/Desktop/Msc/3_Semester/Drug_Design_Praktikum/waehrer_HTS_screening/HTS_experiment/out/docking_results/vina_output/3e7o/0216_docked.pdbqt
 OpenBabel03192215273D

 28 31  0  0  1  0  0  0  0  0999 V2000
  -40.2580  -64.1480   49.3410 C   0  0  0  0  0  0  0  0  0  0  0  0
  -40.2020  -62.9040   49.5050 O   0  0  0  0  0  0  0  0  0  0  0  0
  -39.4850  -64.8050   48.3600 N   0  0  0  0  0  0  0  0  0  0  0  0
  -39.5220  -66.2440   48.1440 C   0  0  0  0  0  2  0  0  0  0  0  0
  -38.1790  -66.6910   47.5800 C   0  0  0  0  0  2  0  0  0  0  0  0
  -37.0870  -65.8240   47.9780 N   0  0  0  0  0  0  0  0  0  0  0  0
  -37.2420  -64.5590   47.3510 C   0  0  0  0  0  2  0  0  0  0  0  0
  -38.6040  -63.9780   47.5260 C   0  0  0  0  0  2  0  0  0  0  0  0
  -41.1440  -64.9140   50.1950 C   0  0  1  0  0  3  0  0  0  0  0  0
  -40.6100  -65.0350   51.6380 C   0  0  0  0  0  2  0  0  0  0  0  0
  -41.7410  -65.7730   52.1800 N   0  0  0  0  0  0  0  0  0  0  0  0
  -42.8640  -65.0470   51.6910 C   0  0  0  0  0  0  0  0  0  0  0  0
  -42.4540  -64.1960   50.5400 C   0  0  0  0  0  2  0  0  0  0  0  0
  -44.0230  -65.1150   52.1600 O   0  0  0  0  0  0  0  0  0  0  0  0
  -41.6370  -66.9300   52.9850 C   0  0  0  0  0  0  0  0  0  0  0  0
  -40.5570  -67.7800   52.8320 C   0  0  0  0  0  3  0  0  0  0  0  0
  -40.4020  -68.9360   53.5870 C   0  0  0  0  0  0  0  0  0  0  0  0
  -38.8890  -70.0300   53.3000 Br  0  0  0  0  0  0  0  0  0  0  0  0
  -41.3760  -69.2490   54.5350 C   0  0  0  0  0  3  0  0  0  0  0  0
  -42.4700  -68.4310   54.7210 C   0  0  0  0  0  3  0  0  0  0  0  0
  -42.5600  -67.2990   53.9380 C   0  0  0  0  0  3  0  0  0  0  0  0
  -36.8690  -65.8330   49.3810 C   0  0  0  0  0  2  0  0  0  0  0  0
  -35.4410  -66.1050   49.7800 C   0  0  0  0  0  2  0  0  0  0  0  0
  -35.2460  -67.3670   50.4340 N   0  0  0  0  0  0  0  0  0  0  0  0
  -34.1290  -67.8610   50.9710 C   0  0  0  0  0  3  0  0  0  0  0  0
  -34.3770  -69.0870   51.4790 N   0  0  0  0  0  0  0  0  0  0  0  0
  -35.6660  -69.3760   51.2630 C   0  0  0  0  0  3  0  0  0  0  0  0
  -36.2000  -68.2920   50.6070 C   0  0  0  0  0  3  0  0  0  0  0  0
  1  2  2  0  0  0  0
  3  1  1  0  0  0  0
  4  3  1  0  0  0  0
  5  6  1  0  0  0  0
  5  4  1  0  0  0  0
  6 22  1  0  0  0  0
  7  8  1  0  0  0  0
  7  6  1  0  0  0  0
  8  3  1  0  0  0  0
  9  1  1  6  0  0  0
  9 13  1  0  0  0  0
  9 10  1  0  0  0  0
 10 11  1  0  0  0  0
 11 15  1  0  0  0  0
 12 14  2  0  0  0  0
 12 11  1  0  0  0  0
 13 12  1  0  0  0  0
 15 21  1  0  0  0  0
 16 15  2  0  0  0  0
 16 17  1  0  0  0  0
 17 19  2  0  0  0  0
 18 17  1  0  0  0  0
 19 20  1  0  0  0  0
 21 20  2  0  0  0  0
 22 23  1  0  0  0  0
 23 24  1  0  0  0  0
 24 28  1  0  0  0  0
 24 25  1  0  0  0  0
 25 26  2  0  0  0  0
 27 26  1  0  0  0  0
 28 27  2  0  0  0  0
M  END
>  <Pose>
1

>  <Score>
-8.140

$$$$
