/Users/jonathanwahrer/Desktop/Msc/3_Semester/Drug_Design_Praktikum/waehrer_HTS_screening/HTS_experiment/out/docking_results/vina_output/3e7o/0226_docked.pdbqt
 OpenBabel03192215273D

 30 33  0  0  0  0  0  0  0  0999 V2000
  -39.1450  -68.0680   51.0540 N   0  0  0  0  0  0  0  0  0  0  0  0
  -39.8000  -68.4890   52.1480 C   0  0  0  0  0  0  0  0  0  0  0  0
  -40.6960  -67.5190   52.5570 C   0  0  0  0  0  0  0  0  0  0  0  0
  -40.5510  -66.5210   51.6770 N   0  0  0  0  0  0  0  0  0  0  0  0
  -39.6190  -66.8260   50.7560 C   0  0  0  0  0  0  0  0  0  0  0  0
  -41.4680  -67.7260   53.6390 N   0  0  0  0  0  0  0  0  0  0  0  0
  -41.3810  -68.8730   54.3360 C   0  0  0  0  0  0  0  0  0  0  0  0
  -42.0820  -69.1060   55.3510 O   0  0  0  0  0  0  0  0  0  0  0  0
  -40.5030  -69.8370   53.9430 N   0  0  0  0  0  0  0  0  0  0  0  0
  -39.7100  -69.6770   52.8690 C   0  0  0  0  0  0  0  0  0  0  0  0
  -38.9000  -70.6020   52.5350 O   0  0  0  0  0  0  0  0  0  0  0  0
  -42.4150  -66.7290   54.0940 C   0  0  0  0  0  1  0  0  0  0  0  0
  -40.4670  -70.7140   54.5130 H   0  0  0  0  0  0  0  0  0  0  0  0
  -38.1390  -68.7780   50.3150 C   0  0  0  0  0  2  0  0  0  0  0  0
  -36.7510  -68.5160   50.8090 C   0  0  0  0  0  0  0  0  0  0  0  0
  -36.3640  -68.9860   51.8910 O   0  0  0  0  0  0  0  0  0  0  0  0
  -35.8220  -67.7020   50.0290 C   0  0  0  0  0  0  0  0  0  0  0  0
  -35.8320  -67.7120   48.6560 C   0  0  0  0  0  3  0  0  0  0  0  0
  -34.9480  -66.9420   47.9190 C   0  0  0  0  0  3  0  0  0  0  0  0
  -34.0090  -66.1260   48.5340 C   0  0  0  0  0  0  0  0  0  0  0  0
  -32.8130  -65.0830   47.4860 Br  0  0  0  0  0  0  0  0  0  0  0  0
  -33.9960  -66.1150   49.9110 C   0  0  0  0  0  3  0  0  0  0  0  0
  -34.8810  -66.8850   50.6300 C   0  0  0  0  0  3  0  0  0  0  0  0
  -39.1710  -66.0550   49.6560 N   0  0  0  0  0  0  0  0  0  0  0  0
  -38.2770  -64.9670   49.8910 C   0  0  0  0  0  2  0  0  0  0  0  0
  -37.5590  -64.4150   48.7160 C   0  0  0  0  0  2  0  0  0  0  0  0
  -38.1960  -64.6100   47.4470 N   0  0  0  0  0  0  0  0  0  0  0  0
  -38.5200  -66.0170   47.3200 C   0  0  0  0  0  2  0  0  0  0  0  0
  -39.3290  -63.7550   47.2330 C   0  0  0  0  0  1  0  0  0  0  0  0
  -39.6100  -66.3720   48.3320 C   0  0  0  0  0  2  0  0  0  0  0  0
  1  2  1  0  0  0  0
  2  3  2  0  0  0  0
  2 10  1  0  0  0  0
  3  6  1  0  0  0  0
  4  3  1  0  0  0  0
  5  1  1  0  0  0  0
  5  4  2  0  0  0  0
  6 12  1  0  0  0  0
  6  7  1  0  0  0  0
  7  8  2  0  0  0  0
  9  7  1  0  0  0  0
  9 13  1  0  0  0  0
 10  9  1  0  0  0  0
 11 10  2  0  0  0  0
 14 15  1  0  0  0  0
 14  1  1  0  0  0  0
 15 16  2  0  0  0  0
 17 23  1  0  0  0  0
 17 15  1  0  0  0  0
 18 17  2  0  0  0  0
 19 20  2  0  0  0  0
 19 18  1  0  0  0  0
 20 22  1  0  0  0  0
 21 20  1  0  0  0  0
 22 23  2  0  0  0  0
 24 25  1  0  0  0  0
 24  5  1  0  0  0  0
 26 25  1  0  0  0  0
 27 26  1  0  0  0  0
 28 27  1  0  0  0  0
 28 30  1  0  0  0  0
 29 27  1  0  0  0  0
 30 24  1  0  0  0  0
M  END
>  <Pose>
1

>  <Score>
-7.455

$$$$
