/Users/jonathanwahrer/Desktop/Msc/3_Semester/Drug_Design_Praktikum/waehrer_HTS_screening/HTS_experiment/out/docking_results/vina_output/3e7o/0235_docked.pdbqt
 OpenBabel03192215283D

 25 28  0  0  1  0  0  0  0  0999 V2000
  -35.0430  -67.2800   49.7150 C   0  0  1  0  0  3  0  0  0  0  0  0
  -34.2060  -67.1920   48.5290 N   0  0  0  0  0  0  0  0  0  0  0  0
  -34.3270  -67.4700   47.1830 N   0  0  0  0  0  2  0  0  0  0  0  0
  -33.4260  -67.1790   46.3120 C   0  0  0  0  0  3  0  0  0  0  0  0
  -32.2040  -66.5350   46.7350 C   0  0  0  0  0  3  0  0  0  0  0  0
  -32.0020  -66.2640   48.0040 C   0  0  0  0  0  3  0  0  0  0  0  0
  -32.9700  -66.5980   49.0320 C   0  0  0  0  0  0  0  0  0  0  0  0
  -33.5010  -65.4630   49.8340 C   0  0  2  0  0  3  0  0  0  0  0  0
  -34.9220  -65.8670   50.2420 C   0  0  1  0  0  3  0  0  0  0  0  0
  -35.7770  -64.9160   49.5340 C   0  0  0  0  0  0  0  0  0  0  0  0
  -37.0220  -65.0340   49.3660 O   0  0  0  0  0  0  0  0  0  0  0  0
  -34.9810  -63.8450   49.0670 N   0  0  0  0  0  0  0  0  0  0  0  0
  -33.6050  -64.2040   49.0860 C   0  0  0  0  0  0  0  0  0  0  0  0
  -32.6550  -63.5720   48.5650 O   0  0  0  0  0  0  0  0  0  0  0  0
  -36.4240  -67.6450   49.3710 C   0  0  0  0  0  0  0  0  0  0  0  0
  -36.7250  -67.6200   48.1330 O   0  0  0  0  0  0  0  0  0  0  0  0
  -37.4510  -68.0270   50.3140 C   0  0  0  0  0  0  0  0  0  0  0  0
  -38.7150  -67.4960   50.2830 C   0  0  0  0  0  3  0  0  0  0  0  0
  -39.6550  -67.8990   51.2040 C   0  0  0  0  0  3  0  0  0  0  0  0
  -39.4000  -68.8320   52.1860 C   0  0  0  0  0  0  0  0  0  0  0  0
  -40.7500  -69.3480   53.4330 Br  0  0  0  0  0  0  0  0  0  0  0  0
  -38.1290  -69.3630   52.2140 C   0  0  0  0  0  3  0  0  0  0  0  0
  -37.1830  -68.9650   51.2970 C   0  0  0  0  0  3  0  0  0  0  0  0
  -35.4700  -62.5580   48.6290 C   0  0  0  0  0  2  0  0  0  0  0  0
  -35.7690  -62.4990   47.1620 C   0  0  0  0  0  1  0  0  0  0  0  0
  1 15  1  6  0  0  0
  1  9  1  0  0  0  0
  2  7  1  0  0  0  0
  2  1  1  0  0  0  0
  3  2  1  0  0  0  0
  4  5  2  0  0  0  0
  4  3  1  0  0  0  0
  5  6  1  0  0  0  0
  6  7  2  0  0  0  0
  8  7  1  6  0  0  0
  8  9  1  0  0  0  0
  9 10  1  6  0  0  0
 11 10  2  0  0  0  0
 12 13  1  0  0  0  0
 12 10  1  0  0  0  0
 13  8  1  0  0  0  0
 14 13  2  0  0  0  0
 15 17  1  0  0  0  0
 16 15  2  0  0  0  0
 17 23  1  0  0  0  0
 18 17  2  0  0  0  0
 18 19  1  0  0  0  0
 19 20  2  0  0  0  0
 20 22  1  0  0  0  0
 20 21  1  0  0  0  0
 23 22  2  0  0  0  0
 24 12  1  0  0  0  0
 25 24  1  0  0  0  0
M  END
>  <Pose>
1

>  <Score>
-7.596

$$$$
