/Users/jonathanwahrer/Desktop/Msc/3_Semester/Drug_Design_Praktikum/waehrer_HTS_screening/HTS_experiment/out/docking_results/vina_output/3e7o/0243_docked.pdbqt
 OpenBabel03192215283D

 30 33  0  0  1  0  0  0  0  0999 V2000
  -44.0520  -67.1190   54.2140 C   0  0  2  0  0  3  0  0  0  0  0  0
  -45.2910  -67.3480   53.3840 C   0  0  0  0  0  2  0  0  0  0  0  0
  -45.5970  -66.0460   52.8320 N   0  0  0  0  0  0  0  0  0  0  0  0
  -44.9230  -65.0110   53.5990 C   0  0  1  0  0  3  0  0  0  0  0  0
  -44.0550  -65.6700   54.6140 C   0  0  0  0  0  2  0  0  0  0  0  0
  -44.1720  -64.1980   52.6160 C   0  0  0  0  0  0  0  0  0  0  0  0
  -42.9690  -63.9300   52.8320 O   0  0  0  0  0  0  0  0  0  0  0  0
  -44.8540  -63.7520   51.4590 N   0  0  0  0  0  0  0  0  0  0  0  0
  -46.0860  -64.3340   50.9790 C   0  0  1  0  0  3  0  0  0  0  0  0
  -46.3850  -65.5780   51.7450 C   0  0  0  0  0  0  0  0  0  0  0  0
  -47.4040  -66.2900   51.4260 O   0  0  0  0  0  0  0  0  0  0  0  0
  -44.4110  -62.9480   50.9400 H   0  0  0  0  0  0  0  0  0  0  0  0
  -42.8410  -67.3760   53.4770 N   0  0  0  0  0  0  0  0  0  0  0  0
  -41.8920  -68.2850   53.9500 C   0  0  0  0  0  0  0  0  0  0  0  0
  -42.0770  -68.9120   55.0480 O   0  0  0  0  0  0  0  0  0  0  0  0
  -42.6890  -66.8710   52.5890 H   0  0  0  0  0  0  0  0  0  0  0  0
  -40.6390  -68.5890   53.2450 C   0  0  0  0  0  0  0  0  0  0  0  0
  -39.7290  -69.4990   53.7420 C   0  0  0  0  0  3  0  0  0  0  0  0
  -38.5520  -69.7850   53.0800 C   0  0  0  0  0  3  0  0  0  0  0  0
  -38.2210  -69.1760   51.8870 C   0  0  0  0  0  0  0  0  0  0  0  0
  -36.6130  -69.5390   50.9420 Br  0  0  0  0  0  0  0  0  0  0  0  0
  -39.1400  -68.2590   51.3880 C   0  0  0  0  0  3  0  0  0  0  0  0
  -40.3090  -67.9820   52.0560 C   0  0  0  0  0  3  0  0  0  0  0  0
  -47.2200  -63.3390   51.0330 C   0  0  0  0  0  2  0  0  0  0  0  0
  -47.3210  -62.5590   49.7670 C   0  0  0  0  0  0  0  0  0  0  0  0
  -47.5810  -61.1880   49.7980 C   0  0  0  0  0  3  0  0  0  0  0  0
  -47.6620  -60.5180   48.5980 C   0  0  0  0  0  3  0  0  0  0  0  0
  -47.4980  -61.1410   47.3730 C   0  0  0  0  0  3  0  0  0  0  0  0
  -47.2440  -62.4920   47.3930 C   0  0  0  0  0  3  0  0  0  0  0  0
  -47.1510  -63.2160   48.5620 C   0  0  0  0  0  3  0  0  0  0  0  0
  1 13  1  6  0  0  0
  1  5  1  0  0  0  0
  2  1  1  0  0  0  0
  3  2  1  0  0  0  0
  3  4  1  0  0  0  0
  4  5  1  1  0  0  0
  6  7  2  0  0  0  0
  6  4  1  0  0  0  0
  8  6  1  0  0  0  0
  9 24  1  1  0  0  0
  9  8  1  0  0  0  0
  9 10  1  0  0  0  0
 10  3  1  0  0  0  0
 11 10  2  0  0  0  0
 12  8  1  0  0  0  0
 13 14  1  0  0  0  0
 14 15  2  0  0  0  0
 16 13  1  0  0  0  0
 17 18  1  0  0  0  0
 17 14  1  0  0  0  0
 19 18  2  0  0  0  0
 20 19  1  0  0  0  0
 21 20  1  0  0  0  0
 22 20  2  0  0  0  0
 22 23  1  0  0  0  0
 23 17  2  0  0  0  0
 25 26  1  0  0  0  0
 25 24  1  0  0  0  0
 27 26  2  0  0  0  0
 28 29  2  0  0  0  0
 28 27  1  0  0  0  0
 29 30  1  0  0  0  0
 30 25  2  0  0  0  0
M  END
>  <Pose>
1

>  <Score>
-8.318

$$$$
