/Users/jonathanwahrer/Desktop/Msc/3_Semester/Drug_Design_Praktikum/waehrer_HTS_screening/HTS_experiment/out/docking_results/vina_output/3e7o/0247_docked.pdbqt
 OpenBabel03192215283D

 23 26  0  0  1  0  0  0  0  0999 V2000
  -42.9470  -66.0590   52.1850 N   0  0  0  0  0  0  0  0  0  0  0  0
  -41.8070  -66.7510   52.6830 C   0  0  0  0  0  0  0  0  0  0  0  0
  -41.9250  -67.7840   53.4270 O   0  0  0  0  0  0  0  0  0  0  0  0
  -40.5550  -66.1020   52.2140 C   0  0  2  0  0  3  0  0  0  0  0  0
  -41.0860  -65.0550   51.2540 C   0  0  1  0  0  3  0  0  0  0  0  0
  -40.8800  -65.7580   49.9290 C   0  0  1  0  0  3  0  0  0  0  0  0
  -39.4040  -66.1530   50.1450 C   0  0  0  0  0  2  0  0  0  0  0  0
  -39.7420  -67.0350   51.3620 C   0  0  2  0  0  3  0  0  0  0  0  0
  -40.7330  -67.9430   50.6820 C   0  0  0  0  0  2  0  0  0  0  0  0
  -41.4750  -67.1230   49.9470 C   0  0  0  0  0  2  0  0  0  0  0  0
  -42.5110  -64.8630   51.5720 C   0  0  0  0  0  0  0  0  0  0  0  0
  -43.1790  -63.8330   51.3350 O   0  0  0  0  0  0  0  0  0  0  0  0
  -44.3150  -66.4300   52.2470 N   0  0  0  0  0  0  0  0  0  0  0  0
  -45.0860  -66.2080   53.4070 C   0  0  0  0  0  0  0  0  0  0  0  0
  -44.5900  -65.6630   54.4470 O   0  0  0  0  0  0  0  0  0  0  0  0
  -44.7480  -66.8670   51.4130 H   0  0  0  0  0  0  0  0  0  0  0  0
  -46.4760  -66.5930   53.4520 C   0  0  0  0  0  0  0  0  0  0  0  0
  -46.7980  -67.9310   53.6570 C   0  0  0  0  0  3  0  0  0  0  0  0
  -48.1130  -68.3480   53.6960 C   0  0  0  0  0  3  0  0  0  0  0  0
  -49.1290  -67.4520   53.5320 C   0  0  0  0  0  0  0  0  0  0  0  0
  -50.9430  -68.0550   53.5850 Br  0  0  0  0  0  0  0  0  0  0  0  0
  -48.8230  -66.1070   53.3250 C   0  0  0  0  0  3  0  0  0  0  0  0
  -47.5130  -65.7040   53.2890 C   0  0  0  0  0  3  0  0  0  0  0  0
  1 13  1  0  0  0  0
  1  2  1  0  0  0  0
  2  3  2  0  0  0  0
  4  2  1  6  0  0  0
  5 11  1  1  0  0  0
  5  4  1  0  0  0  0
  6 10  1  1  0  0  0
  6  7  1  0  0  0  0
  6  5  1  0  0  0  0
  8  7  1  6  0  0  0
  8  4  1  0  0  0  0
  9  8  1  0  0  0  0
 10  9  1  0  0  0  0
 11  1  1  0  0  0  0
 12 11  2  0  0  0  0
 13 14  1  0  0  0  0
 14 17  1  0  0  0  0
 14 15  2  0  0  0  0
 16 13  1  0  0  0  0
 17 18  1  0  0  0  0
 18 19  2  0  0  0  0
 20 21  1  0  0  0  0
 20 19  1  0  0  0  0
 22 20  2  0  0  0  0
 23 22  1  0  0  0  0
 23 17  2  0  0  0  0
M  END
>  <Pose>
1

>  <Score>
-7.513

$$$$
