/Users/jonathanwahrer/Desktop/Msc/3_Semester/Drug_Design_Praktikum/waehrer_HTS_screening/HTS_experiment/out/docking_results/vina_output/3e7o/0257_docked.pdbqt
 OpenBabel03192215283D

 31 34  0  0  1  0  0  0  0  0999 V2000
  -39.3540  -65.1840   49.4490 C   0  0  2  0  0  3  0  0  0  0  0  0
  -38.0080  -64.5330   49.5450 C   0  0  2  0  0  3  0  0  0  0  0  0
  -38.2190  -63.3490   48.7200 N   0  0  0  0  0  0  0  0  0  0  0  0
  -39.5510  -62.9130   49.0550 C   0  0  0  0  0  0  0  0  0  0  0  0
  -39.9560  -61.7440   48.9470 O   0  0  0  0  0  0  0  0  0  0  0  0
  -40.3040  -64.0850   49.5310 C   0  0  0  0  0  0  0  0  0  0  0  0
  -41.4980  -64.1300   49.9250 O   0  0  0  0  0  0  0  0  0  0  0  0
  -39.6380  -66.4570   49.3530 C   0  0  2  0  0  3  0  0  0  0  0  0
  -40.0570  -66.9620   48.1060 O   0  0  0  0  0  1  0  0  0  0  0  0
  -39.5200  -67.3210   50.5150 C   0  0  0  0  0  0  0  0  0  0  0  0
  -38.5220  -68.3030   50.5470 C   0  0  0  0  0  3  0  0  0  0  0  0
  -38.4050  -69.1560   51.6230 C   0  0  0  0  0  3  0  0  0  0  0  0
  -39.2480  -69.0920   52.7110 C   0  0  0  0  0  0  0  0  0  0  0  0
  -39.1060  -70.2580   54.2100 Br  0  0  0  0  0  0  0  0  0  0  0  0
  -40.2370  -68.1310   52.7000 C   0  0  0  0  0  3  0  0  0  0  0  0
  -40.3550  -67.2700   51.6110 C   0  0  0  0  0  3  0  0  0  0  0  0
  -36.9510  -65.4290   49.0140 C   0  0  0  0  0  0  0  0  0  0  0  0
  -37.0030  -65.7610   47.7140 N   0  0  0  0  0  0  0  0  0  0  0  0
  -36.1020  -66.5490   47.1240 C   0  0  0  0  0  3  0  0  0  0  0  0
  -35.0730  -67.0440   47.8910 C   0  0  0  0  0  3  0  0  0  0  0  0
  -34.9810  -66.7300   49.2260 C   0  0  0  0  0  3  0  0  0  0  0  0
  -35.9320  -65.9150   49.7850 C   0  0  0  0  0  3  0  0  0  0  0  0
  -37.2930  -62.7580   47.7980 C   0  0  0  0  0  2  0  0  0  0  0  0
  -35.9940  -62.3510   48.4750 C   0  0  0  0  0  2  0  0  0  0  0  0
  -34.8910  -62.3810   47.4160 C   0  0  0  0  0  2  0  0  0  0  0  0
  -33.7950  -63.2450   47.8100 N   0  0  0  0  0  0  0  0  0  0  0  0
  -33.2800  -63.4060   49.0520 C   0  0  0  0  0  2  0  0  0  0  0  0
  -32.2760  -64.2970   48.9940 N   0  0  0  0  0  0  0  0  0  0  0  0
  -32.1240  -64.7220   47.7310 C   0  0  0  0  0  3  0  0  0  0  0  0
  -31.6820  -64.6270   49.8060 H   0  0  0  0  0  0  0  0  0  0  0  0
  -33.0870  -64.0510   47.0050 C   0  0  0  0  0  3  0  0  0  0  0  0
  1  8  1  1  0  0  0
  1  6  1  0  0  0  0
  1  2  1  0  0  0  0
  2 17  1  6  0  0  0
  3  4  1  0  0  0  0
  3  2  1  0  0  0  0
  4  6  1  0  0  0  0
  5  4  2  0  0  0  0
  6  7  2  0  0  0  0
  8  9  1  1  0  0  0
  8 10  1  0  0  0  0
 10 11  2  0  0  0  0
 10 16  1  0  0  0  0
 11 12  1  0  0  0  0
 12 13  2  0  0  0  0
 13 14  1  0  0  0  0
 15 13  1  0  0  0  0
 16 15  2  0  0  0  0
 17 22  1  0  0  0  0
 18 17  2  0  0  0  0
 19 18  1  0  0  0  0
 19 20  2  0  0  0  0
 20 21  1  0  0  0  0
 21 22  2  0  0  0  0
 23 24  1  0  0  0  0
 23  3  1  0  0  0  0
 25 26  1  0  0  0  0
 25 24  1  0  0  0  0
 26 27  1  0  0  0  0
 28 27  1  0  0  0  0
 28 30  1  0  0  0  0
 29 28  1  0  0  0  0
 31 29  2  0  0  0  0
 31 26  1  0  0  0  0
M  END
>  <Pose>
1

>  <Score>
-7.352

$$$$
