/Users/jonathanwahrer/Desktop/Msc/3_Semester/Drug_Design_Praktikum/waehrer_HTS_screening/HTS_experiment/out/docking_results/vina_output/3e7o/0263_docked.pdbqt
 OpenBabel03192215293D

 34 37  0  0  1  0  0  0  0  0999 V2000
  -37.0760  -67.4870   50.2460 C   0  0  0  0  0  0  0  0  0  0  0  0
  -38.2380  -67.0280   49.8630 C   0  0  0  0  0  0  0  0  0  0  0  0
  -39.5940  -67.5900   50.1990 C   0  0  2  0  0  3  0  0  0  0  0  0
  -40.4260  -66.4370   50.2380 N   0  0  0  0  0  0  0  0  0  0  0  0
  -39.8630  -65.4740   49.3150 C   0  0  0  0  0  0  0  0  0  0  0  0
  -40.4390  -64.4890   48.7950 O   0  0  0  0  0  0  0  0  0  0  0  0
  -38.4720  -65.8410   49.0720 C   0  0  0  0  0  0  0  0  0  0  0  0
  -37.6640  -65.2100   48.3100 O   0  0  0  0  0  0  0  0  0  0  0  0
  -37.0520  -68.6310   51.0750 O   0  0  0  0  0  1  0  0  0  0  0  0
  -35.8390  -66.8420   49.8360 C   0  0  0  0  0  0  0  0  0  0  0  0
  -35.2920  -67.2930   48.6360 C   0  0  0  0  0  3  0  0  0  0  0  0
  -34.1560  -66.7280   48.1290 C   0  0  0  0  0  3  0  0  0  0  0  0
  -33.5570  -65.7030   48.8250 C   0  0  0  0  0  0  0  0  0  0  0  0
  -31.9600  -64.9320   48.0820 Br  0  0  0  0  0  0  0  0  0  0  0  0
  -34.0930  -65.2520   50.0130 C   0  0  0  0  0  3  0  0  0  0  0  0
  -35.2410  -65.8310   50.5130 C   0  0  0  0  0  3  0  0  0  0  0  0
  -39.5420  -68.4380   51.3830 C   0  0  0  0  0  0  0  0  0  0  0  0
  -40.0820  -68.1450   52.6060 C   0  0  0  0  0  3  0  0  0  0  0  0
  -39.9980  -69.0030   53.6710 C   0  0  0  0  0  0  0  0  0  0  0  0
  -39.3510  -70.2000   53.5220 C   0  0  0  0  0  3  0  0  0  0  0  0
  -38.7810  -70.5540   52.3030 C   0  0  0  0  0  3  0  0  0  0  0  0
  -38.8850  -69.6730   51.2580 C   0  0  0  0  0  3  0  0  0  0  0  0
  -40.5780  -68.6360   54.9020 N   0  0  0  0  0  0  0  0  0  0  0  0
  -39.9760  -67.9180   55.7410 O   0  0  0  0  0  0  0  0  0  0  0  0
  -41.8470  -69.0840   55.1880 O   0  0  0  0  0  0  0  0  0  0  0  0
  -41.6540  -66.1130   50.9400 C   0  0  0  0  0  2  0  0  0  0  0  0
  -41.5820  -64.9330   51.8540 C   0  0  0  0  0  2  0  0  0  0  0  0
  -42.6620  -64.9030   52.8260 N   0  0  0  0  0  4  0  0  0  0  0  0
  -42.7270  -66.1650   53.5690 C   0  0  0  0  0  2  0  0  0  0  0  0
  -43.7900  -65.9320   54.6510 C   0  0  0  0  0  2  0  0  0  0  0  0
  -45.0190  -65.6310   54.1180 O   0  0  0  0  0  0  0  0  0  0  0  0
  -45.0030  -64.5870   53.2070 C   0  0  0  0  0  2  0  0  0  0  0  0
  -43.9320  -64.7640   52.1590 C   0  0  0  0  0  2  0  0  0  0  0  0
  -42.5740  -64.1690   53.5330 H   0  0  0  0  0  0  0  0  0  0  0  0
  1  9  1  0  0  0  0
  2  3  1  0  0  0  0
  2  1  2  0  0  0  0
  3  4  1  0  0  0  0
  3 17  1  1  0  0  0
  4 26  1  0  0  0  0
  5  4  1  0  0  0  0
  6  5  2  0  0  0  0
  7  5  1  0  0  0  0
  7  2  1  0  0  0  0
  8  7  2  0  0  0  0
 10  1  1  0  0  0  0
 10 16  1  0  0  0  0
 11 10  2  0  0  0  0
 12 11  1  0  0  0  0
 12 13  2  0  0  0  0
 13 15  1  0  0  0  0
 14 13  1  0  0  0  0
 15 16  2  0  0  0  0
 17 18  1  0  0  0  0
 18 19  2  0  0  0  0
 19 23  1  0  0  0  0
 20 19  1  0  0  0  0
 21 20  2  0  0  0  0
 22 17  2  0  0  0  0
 22 21  1  0  0  0  0
 23 25  2  0  0  0  0
 23 24  2  0  0  0  0
 26 27  1  0  0  0  0
 27 28  1  0  0  0  0
 28 34  1  0  0  0  0
 28 29  1  0  0  0  0
 29 30  1  0  0  0  0
 31 30  1  0  0  0  0
 32 31  1  0  0  0  0
 33 28  1  0  0  0  0
 33 32  1  0  0  0  0
M  END
>  <Pose>
1

>  <Score>
-8.761

$$$$
