/Users/jonathanwahrer/Desktop/Msc/3_Semester/Drug_Design_Praktikum/waehrer_HTS_screening/HTS_experiment/out/docking_results/vina_output/3e7o/0265_docked.pdbqt
 OpenBabel03192215293D

 35 38  0  0  1  0  0  0  0  0999 V2000
  -37.9720  -65.4260   48.1760 C   0  0  0  0  0  0  0  0  0  0  0  0
  -38.9750  -64.5820   48.2740 C   0  0  0  0  0  0  0  0  0  0  0  0
  -40.4380  -64.9440   48.2730 C   0  0  2  0  0  3  0  0  0  0  0  0
  -41.1490  -63.7130   48.3140 N   0  0  0  0  0  0  0  0  0  0  0  0
  -40.2490  -62.5980   48.4810 C   0  0  0  0  0  0  0  0  0  0  0  0
  -40.5210  -61.3970   48.6220 O   0  0  0  0  0  0  0  0  0  0  0  0
  -38.8760  -63.1520   48.4570 C   0  0  0  0  0  0  0  0  0  0  0  0
  -37.8120  -62.4640   48.5810 O   0  0  0  0  0  0  0  0  0  0  0  0
  -38.3280  -66.7900   48.0670 O   0  0  0  0  0  1  0  0  0  0  0  0
  -40.6280  -65.7320   49.5290 C   0  0  0  0  0  0  0  0  0  0  0  0
  -40.3740  -65.1200   50.7160 C   0  0  0  0  0  3  0  0  0  0  0  0
  -40.5280  -65.8010   51.9060 C   0  0  0  0  0  3  0  0  0  0  0  0
  -40.9410  -67.1060   51.8970 C   0  0  0  0  0  0  0  0  0  0  0  0
  -41.1970  -67.7210   50.6990 C   0  0  0  0  0  3  0  0  0  0  0  0
  -41.0450  -67.0420   49.5010 C   0  0  0  0  0  3  0  0  0  0  0  0
  -41.1050  -67.8410   53.1540 C   0  0  0  0  0  0  0  0  0  0  0  0
  -40.6400  -69.0050   53.2540 O   0  0  0  0  0  0  0  0  0  0  0  0
  -41.7480  -67.3230   54.2440 O   0  0  0  0  0  0  0  0  0  0  0  0
  -43.1440  -67.4060   54.4250 C   0  0  0  0  0  1  0  0  0  0  0  0
  -42.5690  -63.5080   48.2220 C   0  0  0  0  0  2  0  0  0  0  0  0
  -43.2170  -62.9700   49.4510 C   0  0  0  0  0  2  0  0  0  0  0  0
  -44.1900  -63.8280   50.0580 N   0  0  0  0  0  4  0  0  0  0  0  0
  -45.5170  -63.2520   50.1370 C   0  0  0  0  0  2  0  0  0  0  0  0
  -46.4500  -64.3460   50.6150 C   0  0  0  0  0  2  0  0  0  0  0  0
  -46.0740  -64.6120   51.9540 O   0  0  0  0  0  0  0  0  0  0  0  0
  -44.8180  -65.2210   51.8790 C   0  0  0  0  0  2  0  0  0  0  0  0
  -43.8180  -64.1610   51.4480 C   0  0  0  0  0  2  0  0  0  0  0  0
  -44.2260  -64.7750   49.5940 H   0  0  0  0  0  0  0  0  0  0  0  0
  -36.5720  -65.0250   48.1760 C   0  0  0  0  0  0  0  0  0  0  0  0
  -35.8430  -65.0110   49.3720 C   0  0  0  0  0  3  0  0  0  0  0  0
  -34.5070  -64.6740   49.4300 C   0  0  0  0  0  3  0  0  0  0  0  0
  -33.8220  -64.3300   48.2850 C   0  0  0  0  0  0  0  0  0  0  0  0
  -31.9700  -63.8630   48.3930 Br  0  0  0  0  0  0  0  0  0  0  0  0
  -34.5150  -64.3350   47.0980 C   0  0  0  0  0  3  0  0  0  0  0  0
  -35.8720  -64.6790   47.0450 C   0  0  0  0  0  3  0  0  0  0  0  0
  1 29  1  0  0  0  0
  1  2  2  0  0  0  0
  2  7  1  0  0  0  0
  3  2  1  0  0  0  0
  3  4  1  0  0  0  0
  3 10  1  1  0  0  0
  4  5  1  0  0  0  0
  5  6  2  0  0  0  0
  7  5  1  0  0  0  0
  7  8  2  0  0  0  0
  9  1  1  0  0  0  0
 10 11  1  0  0  0  0
 11 12  2  0  0  0  0
 13 12  1  0  0  0  0
 13 16  1  0  0  0  0
 14 13  2  0  0  0  0
 15 10  2  0  0  0  0
 15 14  1  0  0  0  0
 16 17  2  0  0  0  0
 16 18  1  0  0  0  0
 18 19  1  0  0  0  0
 20  4  1  0  0  0  0
 20 21  1  0  0  0  0
 21 22  1  0  0  0  0
 22 23  1  0  0  0  0
 22 27  1  0  0  0  0
 23 24  1  0  0  0  0
 24 25  1  0  0  0  0
 26 25  1  0  0  0  0
 27 26  1  0  0  0  0
 28 22  1  0  0  0  0
 29 30  1  0  0  0  0
 30 31  2  0  0  0  0
 32 33  1  0  0  0  0
 32 31  1  0  0  0  0
 34 32  2  0  0  0  0
 35 34  1  0  0  0  0
 35 29  2  0  0  0  0
M  END
>  <Pose>
1

>  <Score>
-7.188

$$$$
