/Users/jonathanwahrer/Desktop/Msc/3_Semester/Drug_Design_Praktikum/waehrer_HTS_screening/HTS_experiment/out/docking_results/vina_output/3e7o/0274_docked.pdbqt
 OpenBabel03192215303D

 31 34  0  0  1  0  0  0  0  0999 V2000
  -38.8330  -65.7980   47.8780 C   0  0  0  0  0  0  0  0  0  0  0  0
  -37.7440  -65.9220   48.6110 C   0  0  0  0  0  0  0  0  0  0  0  0
  -36.8680  -67.1090   48.8310 C   0  0  1  0  0  3  0  0  0  0  0  0
  -35.5310  -66.5080   48.9720 N   0  0  0  0  0  0  0  0  0  0  0  0
  -35.7540  -65.2820   49.6410 C   0  0  0  0  0  0  0  0  0  0  0  0
  -34.8990  -64.6650   50.2890 O   0  0  0  0  0  0  0  0  0  0  0  0
  -37.1410  -64.8800   49.4380 C   0  0  0  0  0  0  0  0  0  0  0  0
  -37.7680  -63.8720   49.8500 O   0  0  0  0  0  0  0  0  0  0  0  0
  -39.2790  -66.9380   47.1810 O   0  0  0  0  0  1  0  0  0  0  0  0
  -39.6040  -64.5750   47.7360 C   0  0  0  0  0  0  0  0  0  0  0  0
  -40.7500  -64.3580   48.4690 C   0  0  0  0  0  3  0  0  0  0  0  0
  -41.5050  -63.2050   48.3170 C   0  0  0  0  0  3  0  0  0  0  0  0
  -41.1330  -62.2300   47.4210 C   0  0  0  0  0  0  0  0  0  0  0  0
  -42.1700  -60.6310   47.2040 Br  0  0  0  0  0  0  0  0  0  0  0  0
  -39.9920  -62.4340   46.6820 C   0  0  0  0  0  3  0  0  0  0  0  0
  -39.2350  -63.5990   46.8400 C   0  0  0  0  0  3  0  0  0  0  0  0
  -37.2490  -67.9320   49.9810 C   0  0  0  0  0  0  0  0  0  0  0  0
  -38.5700  -67.9490   50.4460 C   0  0  0  0  0  3  0  0  0  0  0  0
  -38.9880  -68.6910   51.5070 C   0  0  0  0  0  3  0  0  0  0  0  0
  -38.0850  -69.4850   52.1900 C   0  0  0  0  0  3  0  0  0  0  0  0
  -36.7890  -69.4890   51.7600 C   0  0  0  0  0  3  0  0  0  0  0  0
  -36.3610  -68.7260   50.6700 C   0  0  0  0  0  3  0  0  0  0  0  0
  -34.3550  -67.1400   48.4970 C   0  0  0  0  0  2  0  0  0  0  0  0
  -33.8140  -66.7400   47.1860 C   0  0  0  0  0  2  0  0  0  0  0  0
  -32.4660  -66.2620   47.1720 N   0  0  0  0  0  4  0  0  0  0  0  0
  -31.9580  -65.7960   48.4140 C   0  0  0  0  0  2  0  0  0  0  0  0
  -31.8840  -64.2850   48.3770 C   0  0  0  0  0  2  0  0  0  0  0  0
  -32.9850  -63.7170   47.7420 O   0  0  0  0  0  0  0  0  0  0  0  0
  -33.0200  -64.0010   46.3890 C   0  0  0  0  0  2  0  0  0  0  0  0
  -32.2270  -65.2660   46.1500 C   0  0  0  0  0  2  0  0  0  0  0  0
  -31.8790  -67.1060   46.8880 H   0  0  0  0  0  0  0  0  0  0  0  0
  1  2  2  0  0  0  0
  2  3  1  0  0  0  0
  2  7  1  0  0  0  0
  3  4  1  0  0  0  0
  3 17  1  1  0  0  0
  4  5  1  0  0  0  0
  5  6  2  0  0  0  0
  7  5  1  0  0  0  0
  7  8  2  0  0  0  0
  9  1  1  0  0  0  0
 10  1  1  0  0  0  0
 10 11  1  0  0  0  0
 12 11  2  0  0  0  0
 13 12  1  0  0  0  0
 14 13  1  0  0  0  0
 15 16  1  0  0  0  0
 15 13  2  0  0  0  0
 16 10  2  0  0  0  0
 17 18  2  0  0  0  0
 17 22  1  0  0  0  0
 18 19  1  0  0  0  0
 19 20  2  0  0  0  0
 21 20  1  0  0  0  0
 22 21  2  0  0  0  0
 23  4  1  0  0  0  0
 24 23  1  0  0  0  0
 25 24  1  0  0  0  0
 25 26  1  0  0  0  0
 27 26  1  0  0  0  0
 28 27  1  0  0  0  0
 29 28  1  0  0  0  0
 30 29  1  0  0  0  0
 30 25  1  0  0  0  0
 31 25  1  0  0  0  0
M  END
>  <Pose>
1

>  <Score>
-6.798

$$$$
