/Users/jonathanwahrer/Desktop/Msc/3_Semester/Drug_Design_Praktikum/waehrer_HTS_screening/HTS_experiment/out/docking_results/vina_output/3e7o/0289_docked.pdbqt
 OpenBabel03192215303D

 31 34  0  0  0  0  0  0  0  0999 V2000
  -40.6690  -66.6090   51.4530 C   0  0  0  0  0  0  0  0  0  0  0  0
  -41.6050  -66.8420   52.3880 N   0  0  0  0  0  0  0  0  0  0  0  0
  -41.1990  -67.8610   53.1800 C   0  0  0  0  0  0  0  0  0  0  0  0
  -39.9680  -68.2970   52.7410 C   0  0  0  0  0  0  0  0  0  0  0  0
  -39.6710  -67.5240   51.6960 N   0  0  0  0  0  0  0  0  0  0  0  0
  -39.3560  -69.3110   53.3800 N   0  0  0  0  0  0  0  0  0  0  0  0
  -39.9110  -69.9170   54.4390 C   0  0  0  0  0  0  0  0  0  0  0  0
  -39.3000  -70.8710   55.0180 O   0  0  0  0  0  0  0  0  0  0  0  0
  -41.1110  -69.5070   54.8840 N   0  0  0  0  0  0  0  0  0  0  0  0
  -41.7480  -68.5000   54.2700 C   0  0  0  0  0  0  0  0  0  0  0  0
  -42.8680  -68.1190   54.6880 O   0  0  0  0  0  0  0  0  0  0  0  0
  -38.0440  -69.7430   52.8870 C   0  0  0  0  0  1  0  0  0  0  0  0
  -41.5560  -69.9830   55.7210 H   0  0  0  0  0  0  0  0  0  0  0  0
  -40.6620  -65.6170   50.4570 N   0  0  0  0  0  0  0  0  0  0  0  0
  -41.1550  -65.8200   49.1390 C   0  0  0  0  0  2  0  0  0  0  0  0
  -39.9810  -65.6190   48.1850 C   0  0  0  0  0  2  0  0  0  0  0  0
  -38.8220  -65.1860   48.8420 N   0  0  0  0  0  0  0  0  0  0  0  0
  -38.8760  -64.2070   49.8480 C   0  0  0  0  0  2  0  0  0  0  0  0
  -40.1160  -64.3130   50.7440 C   0  0  0  0  0  2  0  0  0  0  0  0
  -37.7280  -66.1000   48.8580 C   0  0  0  0  0  2  0  0  0  0  0  0
  -36.3960  -65.4650   48.8420 C   0  0  0  0  0  0  0  0  0  0  0  0
  -36.0700  -64.6700   47.7720 C   0  0  0  0  0  3  0  0  0  0  0  0
  -34.8350  -64.0430   47.7210 C   0  0  0  0  0  3  0  0  0  0  0  0
  -33.9180  -64.2050   48.7390 C   0  0  0  0  0  0  0  0  0  0  0  0
  -32.2080  -63.3310   48.6660 Br  0  0  0  0  0  0  0  0  0  0  0  0
  -34.2650  -65.0070   49.8020 C   0  0  0  0  0  3  0  0  0  0  0  0
  -35.4910  -65.6390   49.8670 C   0  0  0  0  0  3  0  0  0  0  0  0
  -42.8790  -66.1960   52.5590 C   0  0  0  0  0  2  0  0  0  0  0  0
  -42.7630  -64.9020   53.3330 C   0  0  0  0  0  2  0  0  0  0  0  0
  -43.1230  -63.7830   52.6110 O   0  0  0  0  0  0  0  0  0  0  0  0
  -44.0090  -64.2410   51.6080 C   0  0  0  0  0  1  0  0  0  0  0  0
  1  5  2  0  0  0  0
  1  2  1  0  0  0  0
  2 28  1  0  0  0  0
  2  3  1  0  0  0  0
  3 10  1  0  0  0  0
  4  3  2  0  0  0  0
  4  6  1  0  0  0  0
  5  4  1  0  0  0  0
  6  7  1  0  0  0  0
  7  9  1  0  0  0  0
  7  8  2  0  0  0  0
  9 13  1  0  0  0  0
 10 11  2  0  0  0  0
 10  9  1  0  0  0  0
 12  6  1  0  0  0  0
 14 19  1  0  0  0  0
 14  1  1  0  0  0  0
 15 14  1  0  0  0  0
 16 17  1  0  0  0  0
 16 15  1  0  0  0  0
 17 20  1  0  0  0  0
 17 18  1  0  0  0  0
 18 19  1  0  0  0  0
 21 20  1  0  0  0  0
 21 27  1  0  0  0  0
 22 21  2  0  0  0  0
 23 22  1  0  0  0  0
 23 24  2  0  0  0  0
 24 26  1  0  0  0  0
 25 24  1  0  0  0  0
 26 27  2  0  0  0  0
 28 29  1  0  0  0  0
 30 29  1  0  0  0  0
 31 30  1  0  0  0  0
M  END
>  <Pose>
1

>  <Score>
-7.589

$$$$
