/Users/jonathanwahrer/Desktop/Msc/3_Semester/Drug_Design_Praktikum/waehrer_HTS_screening/HTS_experiment/out/docking_results/vina_output/3e7o/0293_docked.pdbqt
 OpenBabel03192215303D

 27 30  0  0  0  0  0  0  0  0999 V2000
  -43.1460  -67.1390   54.3950 C   0  0  0  0  0  3  0  0  0  0  0  0
  -42.0160  -67.7170   53.9690 C   0  0  0  0  0  0  0  0  0  0  0  0
  -41.4900  -67.5250   52.7020 O   0  0  0  0  0  0  0  0  0  0  0  0
  -40.3110  -68.2410   52.5220 C   0  0  0  0  0  0  0  0  0  0  0  0
  -40.0490  -68.9180   53.6740 C   0  0  0  0  0  0  0  0  0  0  0  0
  -38.9270  -69.7140   53.7670 C   0  0  0  0  0  3  0  0  0  0  0  0
  -38.1110  -69.7900   52.6690 C   0  0  0  0  0  3  0  0  0  0  0  0
  -38.3780  -69.0950   51.4820 C   0  0  0  0  0  0  0  0  0  0  0  0
  -39.4900  -68.2980   51.3700 C   0  0  0  0  0  0  0  0  0  0  0  0
  -37.4960  -69.2260   50.4090 O   0  0  0  0  0  1  0  0  0  0  0  0
  -41.1160  -68.6160   54.6390 C   0  0  0  0  0  0  0  0  0  0  0  0
  -41.2490  -69.0360   55.8170 O   0  0  0  0  0  0  0  0  0  0  0  0
  -43.8840  -66.2540   53.5000 C   0  0  0  0  0  0  0  0  0  0  0  0
  -45.0710  -66.6730   52.9220 C   0  0  0  0  0  3  0  0  0  0  0  0
  -45.7920  -65.8620   52.0670 C   0  0  0  0  0  3  0  0  0  0  0  0
  -45.3570  -64.5950   51.7540 C   0  0  0  0  0  0  0  0  0  0  0  0
  -46.3630  -63.4660   50.5670 Br  0  0  0  0  0  0  0  0  0  0  0  0
  -44.1770  -64.1610   52.3190 C   0  0  0  0  0  3  0  0  0  0  0  0
  -43.4520  -64.9860   53.1830 C   0  0  0  0  0  3  0  0  0  0  0  0
  -39.9020  -67.5150   50.1980 C   0  0  0  0  0  2  0  0  0  0  0  0
  -39.8970  -66.1070   50.2950 N   0  0  0  0  0  4  0  0  0  0  0  0
  -38.8900  -65.4980   49.4510 C   0  0  0  0  0  2  0  0  0  0  0  0
  -39.4550  -65.2890   48.0580 C   0  0  0  0  0  2  0  0  0  0  0  0
  -40.2670  -64.1660   48.0900 O   0  0  0  0  0  0  0  0  0  0  0  0
  -40.9000  -64.1300   49.3380 C   0  0  0  0  0  2  0  0  0  0  0  0
  -41.1740  -65.5440   49.8230 C   0  0  0  0  0  2  0  0  0  0  0  0
  -39.8210  -65.7800   51.2790 H   0  0  0  0  0  0  0  0  0  0  0  0
  2  1  2  0  0  0  0
  2 11  1  0  0  0  0
  3  2  1  0  0  0  0
  4  3  1  0  0  0  0
  4  5  1  0  0  0  0
  5  6  2  0  0  0  0
  5 11  1  0  0  0  0
  7  6  1  0  0  0  0
  8  7  2  0  0  0  0
  9  8  1  0  0  0  0
  9  4  2  0  0  0  0
 10  8  1  0  0  0  0
 11 12  2  0  0  0  0
 13  1  1  0  0  0  0
 14 13  2  0  0  0  0
 15 14  1  0  0  0  0
 16 15  2  0  0  0  0
 16 18  1  0  0  0  0
 17 16  1  0  0  0  0
 18 19  2  0  0  0  0
 19 13  1  0  0  0  0
 20 21  1  0  0  0  0
 20  9  1  0  0  0  0
 21 27  1  0  0  0  0
 22 21  1  0  0  0  0
 23 24  1  0  0  0  0
 23 22  1  0  0  0  0
 24 25  1  0  0  0  0
 25 26  1  0  0  0  0
 26 21  1  0  0  0  0
M  END
>  <Pose>
1

>  <Score>
-8.911

$$$$
