/Users/jonathanwahrer/Desktop/Msc/3_Semester/Drug_Design_Praktikum/waehrer_HTS_screening/HTS_experiment/out/docking_results/vina_output/3e7o/0294_docked.pdbqt
 OpenBabel03192215313D

 35 38  0  0  0  0  0  0  0  0999 V2000
  -42.0430  -65.7840   52.5770 N   0  0  0  0  0  0  0  0  0  0  0  0
  -41.7200  -66.9300   53.2500 N   0  0  0  0  0  0  0  0  0  0  0  0
  -40.6630  -67.4980   52.6540 C   0  0  0  0  0  0  0  0  0  0  0  0
  -40.3540  -66.7000   51.6340 N   0  0  0  0  0  0  0  0  0  0  0  0
  -41.2180  -65.6170   51.5770 C   0  0  0  0  0  0  0  0  0  0  0  0
  -43.1490  -64.9680   53.0390 C   0  0  0  0  0  2  0  0  0  0  0  0
  -44.2270  -65.8040   53.6290 C   0  0  0  0  0  0  0  0  0  0  0  0
  -44.9550  -66.7220   52.8340 N   0  0  0  0  0  0  0  0  0  0  0  0
  -44.7450  -66.8350   51.7960 H   0  0  0  0  0  0  0  0  0  0  0  0
  -44.5000  -65.6990   54.8460 O   0  0  0  0  0  0  0  0  0  0  0  0
  -45.9470  -67.4820   53.4130 N   0  0  0  0  0  0  0  0  0  0  0  0
  -47.2000  -67.3370   53.2260 C   0  0  0  0  0  3  0  0  0  0  0  0
  -48.2100  -68.1730   53.8660 C   0  0  0  0  0  0  0  0  0  0  0  0
  -48.6530  -67.9160   55.1460 C   0  0  0  0  0  3  0  0  0  0  0  0
  -49.6110  -68.7230   55.7340 C   0  0  0  0  0  3  0  0  0  0  0  0
  -50.1620  -69.8100   55.0720 C   0  0  0  0  0  0  0  0  0  0  0  0
  -51.4830  -70.9040   55.9090 Br  0  0  0  0  0  0  0  0  0  0  0  0
  -49.7180  -70.0680   53.7920 C   0  0  0  0  0  3  0  0  0  0  0  0
  -48.7620  -69.2560   53.2170 C   0  0  0  0  0  3  0  0  0  0  0  0
  -41.1090  -64.5920   50.5600 C   0  0  0  0  0  0  0  0  0  0  0  0
  -42.2310  -63.9710   50.0180 N   0  0  0  0  0  0  0  0  0  0  0  0
  -41.8680  -63.1000   49.1610 O   0  0  0  0  0  0  0  0  0  0  0  0
  -40.5970  -63.0740   49.0740 N   0  0  0  0  0  0  0  0  0  0  0  0
  -40.0850  -64.0010   49.9400 C   0  0  0  0  0  0  0  0  0  0  0  0
  -38.7010  -64.1760   50.0580 N   0  0  0  0  0  0  0  0  0  0  0  0
  -38.3200  -65.1330   50.2410 H   0  0  0  0  0  0  0  0  0  0  0  0
  -38.0010  -63.4100   49.9650 H   0  0  0  0  0  0  0  0  0  0  0  0
  -39.9850  -68.7310   53.0360 C   0  0  0  0  0  0  0  0  0  0  0  0
  -39.1850  -69.4820   52.2730 N   0  0  0  0  0  0  0  0  0  0  0  0
  -38.7630  -70.5190   52.9760 O   0  0  0  0  0  0  0  0  0  0  0  0
  -39.2570  -70.4810   54.1810 N   0  0  0  0  0  0  0  0  0  0  0  0
  -40.0370  -69.3590   54.2540 C   0  0  0  0  0  0  0  0  0  0  0  0
  -40.7500  -68.9710   55.4170 N   0  0  0  0  0  0  0  0  0  0  0  0
  -40.2530  -68.9360   56.3510 H   0  0  0  0  0  0  0  0  0  0  0  0
  -41.7550  -68.7100   55.4200 H   0  0  0  0  0  0  0  0  0  0  0  0
  1  6  1  0  0  0  0
  1  2  1  0  0  0  0
  3 28  1  0  0  0  0
  3  2  2  0  0  0  0
  4  3  1  0  0  0  0
  5  4  2  0  0  0  0
  5  1  1  0  0  0  0
  6  7  1  0  0  0  0
  7 10  2  0  0  0  0
  8 11  1  0  0  0  0
  8  7  1  0  0  0  0
  9  8  1  0  0  0  0
 12 11  2  0  0  0  0
 12 13  1  0  0  0  0
 13 14  1  0  0  0  0
 14 15  2  0  0  0  0
 16 15  1  0  0  0  0
 16 17  1  0  0  0  0
 18 16  2  0  0  0  0
 19 18  1  0  0  0  0
 19 13  2  0  0  0  0
 20  5  1  0  0  0  0
 21 20  2  0  0  0  0
 22 21  1  0  0  0  0
 23 22  1  0  0  0  0
 23 24  2  0  0  0  0
 24 25  1  0  0  0  0
 24 20  1  0  0  0  0
 25 26  1  0  0  0  0
 27 25  1  0  0  0  0
 28 32  1  0  0  0  0
 29 30  1  0  0  0  0
 29 28  2  0  0  0  0
 30 31  1  0  0  0  0
 31 32  2  0  0  0  0
 32 33  1  0  0  0  0
 33 35  1  0  0  0  0
 33 34  1  0  0  0  0
M  END
>  <Pose>
1

>  <Score>
-8.244

$$$$
