/Users/jonathanwahrer/Desktop/Msc/3_Semester/Drug_Design_Praktikum/waehrer_HTS_screening/HTS_experiment/out/docking_results/vina_output/3e7o/0302_docked.pdbqt
 OpenBabel03192215313D

 29 33  0  0  1  0  0  0  0  0999 V2000
  -37.4540  -67.7780   49.8360 C   0  0  0  0  0  0  0  0  0  0  0  0
  -38.6810  -67.2170   49.8330 N   0  0  0  0  0  0  0  0  0  0  0  0
  -39.3850  -67.6320   50.9150 C   0  0  1  0  0  3  0  0  0  0  0  0
  -38.6100  -68.4680   51.6270 N   0  0  0  0  0  0  0  0  0  0  0  0
  -37.4300  -68.5610   50.9720 C   0  0  0  0  0  3  0  0  0  0  0  0
  -39.3490  -68.8510   52.6850 C   0  0  0  0  0  0  0  0  0  0  0  0
  -40.5910  -68.2540   52.6380 C   0  0  0  0  0  0  0  0  0  0  0  0
  -41.5570  -68.4770   53.6130 C   0  0  0  0  0  3  0  0  0  0  0  0
  -41.2780  -69.3180   54.6650 C   0  0  0  0  0  3  0  0  0  0  0  0
  -40.0350  -69.9110   54.7040 C   0  0  0  0  0  3  0  0  0  0  0  0
  -39.0590  -69.7080   53.7520 C   0  0  0  0  0  3  0  0  0  0  0  0
  -40.5800  -67.4930   51.5110 N   0  0  0  0  0  0  0  0  0  0  0  0
  -39.0560  -66.5610   49.1180 H   0  0  0  0  0  0  0  0  0  0  0  0
  -41.7180  -66.6970   51.1010 C   0  0  0  0  0  2  0  0  0  0  0  0
  -41.7220  -65.3410   51.7720 C   0  0  0  0  0  2  0  0  0  0  0  0
  -43.0020  -65.0830   52.3690 N   0  0  0  0  0  4  0  0  0  0  0  0
  -42.8900  -65.0590   53.8120 C   0  0  0  0  0  2  0  0  0  0  0  0
  -43.9910  -65.8330   54.4950 C   0  0  0  0  0  2  0  0  0  0  0  0
  -45.2210  -65.4050   53.9930 O   0  0  0  0  0  0  0  0  0  0  0  0
  -45.3190  -65.5810   52.6290 C   0  0  0  0  0  2  0  0  0  0  0  0
  -44.0170  -66.0310   52.0200 C   0  0  0  0  0  2  0  0  0  0  0  0
  -43.3540  -64.1340   52.0860 H   0  0  0  0  0  0  0  0  0  0  0  0
  -36.4030  -67.5820   48.8430 C   0  0  0  0  0  0  0  0  0  0  0  0
  -36.5630  -67.9670   47.5310 C   0  0  0  0  0  3  0  0  0  0  0  0
  -35.5600  -67.7790   46.5840 C   0  0  0  0  0  3  0  0  0  0  0  0
  -34.3630  -67.1920   46.9450 C   0  0  0  0  0  0  0  0  0  0  0  0
  -32.9930  -66.9350   45.6570 Br  0  0  0  0  0  0  0  0  0  0  0  0
  -34.1900  -66.8010   48.2570 C   0  0  0  0  0  3  0  0  0  0  0  0
  -35.2070  -66.9980   49.1950 C   0  0  0  0  0  3  0  0  0  0  0  0
  1  5  2  0  0  0  0
  2  1  1  0  0  0  0
  3  2  1  1  0  0  0
  3 12  1  0  0  0  0
  3  4  1  0  0  0  0
  4  6  1  0  0  0  0
  5  4  1  0  0  0  0
  6 11  1  0  0  0  0
  7  6  2  0  0  0  0
  7  8  1  0  0  0  0
  8  9  2  0  0  0  0
  9 10  1  0  0  0  0
 11 10  2  0  0  0  0
 12  7  1  0  0  0  0
 13  2  1  0  0  0  0
 14 12  1  0  0  0  0
 14 15  1  0  0  0  0
 15 16  1  0  0  0  0
 16 17  1  0  0  0  0
 17 18  1  0  0  0  0
 19 18  1  0  0  0  0
 20 19  1  0  0  0  0
 21 16  1  0  0  0  0
 21 20  1  0  0  0  0
 22 16  1  0  0  0  0
 23 29  1  0  0  0  0
 23  1  1  0  0  0  0
 24 23  2  0  0  0  0
 25 26  2  0  0  0  0
 25 24  1  0  0  0  0
 26 28  1  0  0  0  0
 27 26  1  0  0  0  0
 28 29  2  0  0  0  0
M  END
>  <Pose>
1

>  <Score>
-8.177

$$$$
