/Users/jonathanwahrer/Desktop/Msc/3_Semester/Drug_Design_Praktikum/waehrer_HTS_screening/HTS_experiment/out/docking_results/vina_output/3e7o/0305_docked.pdbqt
 OpenBabel03192215313D

 27 30  0  0  0  0  0  0  0  0999 V2000
  -40.6150  -65.2470   50.4880 C   0  0  0  0  0  0  0  0  0  0  0  0
  -41.1070  -65.9080   51.5270 N   0  0  0  0  0  0  0  0  0  0  0  0
  -42.1640  -65.2460   52.0600 C   0  0  0  0  0  0  0  0  0  0  0  0
  -42.3300  -64.1400   51.3100 N   0  0  0  0  0  0  0  0  0  0  0  0
  -41.4330  -64.1200   50.3790 N   0  0  0  0  0  0  0  0  0  0  0  0
  -42.6840  -65.8930   53.1090 N   0  0  0  0  0  0  0  0  0  0  0  0
  -41.9440  -66.9990   53.2420 C   0  0  0  0  0  0  0  0  0  0  0  0
  -40.9450  -67.0450   52.2600 C   0  0  0  0  0  0  0  0  0  0  0  0
  -40.1150  -68.0720   52.1750 N   0  0  0  0  0  0  0  0  0  0  0  0
  -40.2610  -69.0790   53.0900 C   0  0  0  0  0  0  0  0  0  0  0  0
  -39.4930  -70.0680   53.0470 O   0  0  0  0  0  0  0  0  0  0  0  0
  -41.1990  -69.0610   54.0450 N   0  0  0  0  0  0  0  0  0  0  0  0
  -42.0570  -68.0320   54.1430 C   0  0  0  0  0  0  0  0  0  0  0  0
  -42.9530  -67.9800   55.0260 O   0  0  0  0  0  0  0  0  0  0  0  0
  -39.1310  -68.3090   51.1510 C   0  0  0  0  0  1  0  0  0  0  0  0
  -41.3100  -69.8260   54.7410 H   0  0  0  0  0  0  0  0  0  0  0  0
  -39.5310  -65.4220   49.5400 C   0  0  0  0  0  0  0  0  0  0  0  0
  -38.2790  -64.9100   49.8870 C   0  0  0  0  0  3  0  0  0  0  0  0
  -37.1640  -65.1450   49.1450 C   0  0  0  0  0  3  0  0  0  0  0  0
  -37.2490  -65.9150   48.0040 C   0  0  0  0  0  0  0  0  0  0  0  0
  -35.6950  -66.2410   46.9730 Br  0  0  0  0  0  0  0  0  0  0  0  0
  -38.4550  -66.4510   47.6100 C   0  0  0  0  0  3  0  0  0  0  0  0
  -39.5460  -66.1810   48.3980 C   0  0  0  0  0  3  0  0  0  0  0  0
  -43.8030  -65.4860   53.9280 C   0  0  0  0  0  2  0  0  0  0  0  0
  -45.1120  -65.4880   53.1700 C   0  0  0  0  0  2  0  0  0  0  0  0
  -45.3680  -66.7200   52.5810 O   0  0  0  0  0  0  0  0  0  0  0  0
  -46.1900  -67.4350   53.4520 C   0  0  0  0  0  1  0  0  0  0  0  0
  1  2  1  0  0  0  0
  2  3  1  0  0  0  0
  2  8  1  0  0  0  0
  3  6  1  0  0  0  0
  4  3  2  0  0  0  0
  5  1  2  0  0  0  0
  5  4  1  0  0  0  0
  6  7  1  0  0  0  0
  6 24  1  0  0  0  0
  7 13  1  0  0  0  0
  8  7  2  0  0  0  0
  9  8  1  0  0  0  0
  9 10  1  0  0  0  0
 10 12  1  0  0  0  0
 11 10  2  0  0  0  0
 12 13  1  0  0  0  0
 12 16  1  0  0  0  0
 13 14  2  0  0  0  0
 15  9  1  0  0  0  0
 17 18  1  0  0  0  0
 17  1  1  0  0  0  0
 19 18  2  0  0  0  0
 20 19  1  0  0  0  0
 21 20  1  0  0  0  0
 22 20  2  0  0  0  0
 22 23  1  0  0  0  0
 23 17  2  0  0  0  0
 25 24  1  0  0  0  0
 26 25  1  0  0  0  0
 26 27  1  0  0  0  0
M  END
>  <Pose>
1

>  <Score>
-7.934

$$$$
