/Users/jonathanwahrer/Desktop/Msc/3_Semester/Drug_Design_Praktikum/waehrer_HTS_screening/HTS_experiment/out/docking_results/vina_output/3e7o/0320_docked.pdbqt
 OpenBabel03192215323D

 32 36  0  0  1  0  0  0  0  0999 V2000
  -37.7430  -67.6780   49.7180 C   0  0  0  0  0  0  0  0  0  0  0  0
  -37.6320  -68.4600   50.8790 C   0  0  0  0  0  3  0  0  0  0  0  0
  -38.7990  -68.3810   51.5050 N   0  0  0  0  0  0  0  0  0  0  0  0
  -39.3970  -68.8500   52.6430 C   0  0  0  0  0  0  0  0  0  0  0  0
  -40.6620  -68.3180   52.6310 C   0  0  0  0  0  0  0  0  0  0  0  0
  -40.7720  -67.5830   51.5360 N   0  0  0  0  0  0  0  0  0  0  0  0
  -39.6120  -67.6130   50.8190 C   0  0  1  0  0  3  0  0  0  0  0  0
  -38.9770  -67.1610   49.6970 N   0  0  0  0  0  0  0  0  0  0  0  0
  -41.5740  -68.5850   53.6570 C   0  0  0  0  0  3  0  0  0  0  0  0
  -41.2020  -69.4000   54.7050 C   0  0  0  0  0  3  0  0  0  0  0  0
  -39.9280  -69.9200   54.6930 C   0  0  0  0  0  3  0  0  0  0  0  0
  -39.0150  -69.6590   53.6770 C   0  0  0  0  0  3  0  0  0  0  0  0
  -41.6340  -67.0590   51.2930 H   0  0  0  0  0  0  0  0  0  0  0  0
  -39.6330  -66.2870   48.7730 C   0  0  0  0  0  2  0  0  0  0  0  0
  -39.8740  -64.8980   49.2060 C   0  0  0  0  0  2  0  0  0  0  0  0
  -39.3510  -63.7850   48.3710 C   0  0  0  0  0  2  0  0  0  0  0  0
  -38.2490  -63.1000   49.0100 N   0  0  0  0  0  4  0  0  0  0  0  0
  -38.4640  -62.2100   49.4530 H   0  0  0  0  0  0  0  0  0  0  0  0
  -37.9680  -63.7360   49.8430 H   0  0  0  0  0  0  0  0  0  0  0  0
  -37.0740  -63.0320   48.1930 C   0  0  0  0  0  3  0  0  0  0  0  0
  -35.7740  -63.0440   48.9460 C   0  0  0  0  0  2  0  0  0  0  0  0
  -34.7180  -62.4820   47.9810 C   0  0  0  0  0  2  0  0  0  0  0  0
  -34.6210  -63.3910   46.8050 C   0  0  0  0  0  2  0  0  0  0  0  0
  -35.9480  -63.6700   46.1390 C   0  0  0  0  0  2  0  0  0  0  0  0
  -36.9750  -64.1550   47.1680 C   0  0  0  0  0  2  0  0  0  0  0  0
  -36.6550  -67.5070   48.7800 C   0  0  0  0  0  0  0  0  0  0  0  0
  -35.5000  -66.8890   49.2130 C   0  0  0  0  0  3  0  0  0  0  0  0
  -34.4260  -66.7010   48.3910 C   0  0  0  0  0  3  0  0  0  0  0  0
  -34.4440  -67.1160   47.0950 C   0  0  0  0  0  0  0  0  0  0  0  0
  -32.9340  -66.8540   45.9290 Br  0  0  0  0  0  0  0  0  0  0  0  0
  -35.5700  -67.7340   46.6260 C   0  0  0  0  0  3  0  0  0  0  0  0
  -36.6750  -67.9210   47.4910 C   0  0  0  0  0  3  0  0  0  0  0  0
  1  2  2  0  0  0  0
  2  3  1  0  0  0  0
  3  4  1  0  0  0  0
  4 12  1  0  0  0  0
  5  4  2  0  0  0  0
  5  9  1  0  0  0  0
  6  5  1  0  0  0  0
  7  8  1  1  0  0  0
  7  3  1  0  0  0  0
  7  6  1  0  0  0  0
  8  1  1  0  0  0  0
  9 10  2  0  0  0  0
 11 10  1  0  0  0  0
 12 11  2  0  0  0  0
 13  6  1  0  0  0  0
 14 15  1  0  0  0  0
 14  8  1  0  0  0  0
 16 17  1  0  0  0  0
 16 15  1  0  0  0  0
 17 18  1  0  0  0  0
 17 19  1  0  0  0  0
 20 21  1  0  0  0  0
 20 17  1  0  0  0  0
 22 21  1  0  0  0  0
 23 22  1  0  0  0  0
 24 23  1  0  0  0  0
 24 25  1  0  0  0  0
 25 20  1  0  0  0  0
 26 27  1  0  0  0  0
 26  1  1  0  0  0  0
 28 27  2  0  0  0  0
 29 28  1  0  0  0  0
 30 29  1  0  0  0  0
 31 29  2  0  0  0  0
 31 32  1  0  0  0  0
 32 26  2  0  0  0  0
M  END
>  <Pose>
1

>  <Score>
-7.477

$$$$
