/Users/jonathanwahrer/Desktop/Msc/3_Semester/Drug_Design_Praktikum/waehrer_HTS_screening/HTS_experiment/out/docking_results/vina_output/3e7o/0324_docked.pdbqt
 OpenBabel03192215323D

 34 38  0  0  1  0  0  0  0  0999 V2000
  -37.3440  -67.6600   49.6240 C   0  0  0  0  0  0  0  0  0  0  0  0
  -37.3550  -68.5500   50.7150 C   0  0  0  0  0  3  0  0  0  0  0  0
  -38.4860  -68.4280   51.4170 N   0  0  0  0  0  0  0  0  0  0  0  0
  -39.1640  -68.8930   52.4950 C   0  0  0  0  0  0  0  0  0  0  0  0
  -40.3460  -68.1950   52.5340 C   0  0  0  0  0  0  0  0  0  0  0  0
  -40.3560  -67.3280   51.4840 N   0  0  0  0  0  0  0  0  0  0  0  0
  -39.2030  -67.4880   50.8090 C   0  0  1  0  0  3  0  0  0  0  0  0
  -38.5090  -67.0140   49.7130 N   0  0  0  0  0  0  0  0  0  0  0  0
  -41.2340  -68.4790   53.5510 C   0  0  0  0  0  3  0  0  0  0  0  0
  -40.9580  -69.4390   54.5160 C   0  0  0  0  0  3  0  0  0  0  0  0
  -39.7760  -70.1350   54.4760 C   0  0  0  0  0  3  0  0  0  0  0  0
  -38.8760  -69.8460   53.4430 C   0  0  0  0  0  3  0  0  0  0  0  0
  -41.1370  -66.6690   51.2690 H   0  0  0  0  0  0  0  0  0  0  0  0
  -39.0220  -65.9640   48.8570 C   0  0  0  0  0  2  0  0  0  0  0  0
  -38.7620  -64.5690   49.3740 C   0  0  0  0  0  2  0  0  0  0  0  0
  -37.3190  -64.1760   49.1810 C   0  0  0  0  0  2  0  0  0  0  0  0
  -37.0580  -63.3870   48.0080 N   0  0  0  0  0  0  0  0  0  0  0  0
  -36.3520  -64.2650   47.0880 C   0  0  0  0  0  2  0  0  0  0  0  0
  -35.1650  -63.6580   46.4390 C   0  0  0  0  0  2  0  0  0  0  0  0
  -34.2870  -62.9130   47.2990 N   0  0  0  0  0  4  0  0  0  0  0  0
  -34.9200  -62.4560   48.5180 C   0  0  0  0  0  2  0  0  0  0  0  0
  -34.0600  -62.0140   46.7670 H   0  0  0  0  0  0  0  0  0  0  0  0
  -36.3740  -62.1550   48.2150 C   0  0  0  0  0  2  0  0  0  0  0  0
  -33.0310  -63.5680   47.4840 C   0  0  0  0  0  2  0  0  0  0  0  0
  -32.5110  -63.6040   48.8800 C   0  0  0  0  0  2  0  0  0  0  0  0
  -31.4640  -62.7130   49.1120 O   0  0  0  0  0  0  0  0  0  0  0  0
  -31.8010  -61.9170   49.5570 H   0  0  0  0  0  0  0  0  0  0  0  0
  -36.2230  -67.5360   48.6930 C   0  0  0  0  0  0  0  0  0  0  0  0
  -34.9750  -67.0960   48.9960 C   0  0  0  0  0  3  0  0  0  0  0  0
  -33.9330  -67.0470   48.0550 C   0  0  0  0  0  3  0  0  0  0  0  0
  -34.1360  -67.4500   46.7600 C   0  0  0  0  0  0  0  0  0  0  0  0
  -32.7160  -67.3850   45.4730 Br  0  0  0  0  0  0  0  0  0  0  0  0
  -35.3870  -67.8940   46.4340 C   0  0  0  0  0  3  0  0  0  0  0  0
  -36.4080  -67.9390   47.3700 C   0  0  0  0  0  3  0  0  0  0  0  0
  1  8  1  0  0  0  0
  1  2  2  0  0  0  0
  2  3  1  0  0  0  0
  3  4  1  0  0  0  0
  4  5  2  0  0  0  0
  4 12  1  0  0  0  0
  5  9  1  0  0  0  0
  6  5  1  0  0  0  0
  7  8  1  1  0  0  0
  7  3  1  0  0  0  0
  7  6  1  0  0  0  0
  9 10  2  0  0  0  0
 11 10  1  0  0  0  0
 12 11  2  0  0  0  0
 13  6  1  0  0  0  0
 14 15  1  0  0  0  0
 14  8  1  0  0  0  0
 16 15  1  0  0  0  0
 17 23  1  0  0  0  0
 17 16  1  0  0  0  0
 18 17  1  0  0  0  0
 19 18  1  0  0  0  0
 19 20  1  0  0  0  0
 20 24  1  0  0  0  0
 20 21  1  0  0  0  0
 22 20  1  0  0  0  0
 23 21  1  0  0  0  0
 24 25  1  0  0  0  0
 25 26  1  0  0  0  0
 26 27  1  0  0  0  0
 28 29  1  0  0  0  0
 28  1  1  0  0  0  0
 30 29  2  0  0  0  0
 31 30  1  0  0  0  0
 32 31  1  0  0  0  0
 33 31  2  0  0  0  0
 33 34  1  0  0  0  0
 34 28  2  0  0  0  0
M  END
>  <Pose>
1

>  <Score>
-7.628

$$$$
