/Users/jonathanwahrer/Desktop/Msc/3_Semester/Drug_Design_Praktikum/waehrer_HTS_screening/HTS_experiment/out/docking_results/vina_output/3e7o/0347_docked.pdbqt
 OpenBabel03192215333D

 34 37  0  0  1  0  0  0  0  0999 V2000
  -39.8090  -64.2290   49.1430 C   0  0  2  0  0  3  0  0  0  0  0  0
  -38.9070  -65.0400   48.3510 N   0  0  0  0  0  0  0  0  0  0  0  0
  -39.5330  -66.3170   48.2090 C   0  0  0  0  0  0  0  0  0  0  0  0
  -39.3520  -67.1450   47.2830 O   0  0  0  0  0  0  0  0  0  0  0  0
  -40.4190  -66.4550   49.3600 C   0  0  0  0  0  0  0  0  0  0  0  0
  -41.1790  -67.4060   49.6720 O   0  0  0  0  0  0  0  0  0  0  0  0
  -40.2890  -65.2400   50.1570 C   0  0  0  0  0  0  0  0  0  0  0  0
  -40.5690  -65.0940   51.4290 C   0  0  0  0  0  0  0  0  0  0  0  0
  -40.4090  -63.7990   51.9530 O   0  0  0  0  0  1  0  0  0  0  0  0
  -37.6010  -64.6480   47.7920 C   0  0  0  0  0  2  0  0  0  0  0  0
  -36.6130  -64.3280   48.9230 C   0  0  0  0  0  2  0  0  0  0  0  0
  -36.4290  -65.5490   49.7780 C   0  0  0  0  0  2  0  0  0  0  0  0
  -35.8280  -66.5940   48.9840 N   0  0  0  0  0  4  0  0  0  0  0  0
  -36.3610  -67.8960   49.2330 C   0  0  0  0  0  2  0  0  0  0  0  0
  -35.9390  -68.4630   50.5460 C   0  0  0  0  0  2  0  0  0  0  0  0
  -34.5600  -68.4870   50.6540 O   0  0  0  0  0  0  0  0  0  0  0  0
  -34.1060  -67.1690   50.5770 C   0  0  0  0  0  2  0  0  0  0  0  0
  -34.3910  -66.6660   49.1750 C   0  0  0  0  0  2  0  0  0  0  0  0
  -35.9760  -66.3610   47.9750 H   0  0  0  0  0  0  0  0  0  0  0  0
  -40.9070  -63.7150   48.3370 C   0  0  0  0  0  0  0  0  0  0  0  0
  -40.7110  -63.3810   47.0200 C   0  0  0  0  0  3  0  0  0  0  0  0
  -41.7520  -62.8740   46.2370 C   0  0  0  0  0  3  0  0  0  0  0  0
  -43.0030  -62.6990   46.7800 C   0  0  0  0  0  0  0  0  0  0  0  0
  -44.4210  -62.0050   45.7080 Br  0  0  0  0  0  0  0  0  0  0  0  0
  -43.2120  -63.0280   48.0930 C   0  0  0  0  0  3  0  0  0  0  0  0
  -42.1700  -63.5290   48.8520 C   0  0  0  0  0  3  0  0  0  0  0  0
  -41.0170  -66.1880   52.2850 C   0  0  0  0  0  0  0  0  0  0  0  0
  -40.2130  -67.2280   52.6920 C   0  0  0  0  0  3  0  0  0  0  0  0
  -40.6360  -68.2800   53.4860 C   0  0  0  0  0  0  0  0  0  0  0  0
  -41.9360  -68.2980   53.9010 C   0  0  0  0  0  3  0  0  0  0  0  0
  -42.7850  -67.2650   53.5140 C   0  0  0  0  0  3  0  0  0  0  0  0
  -42.3290  -66.2330   52.7220 C   0  0  0  0  0  3  0  0  0  0  0  0
  -39.6950  -69.2350   53.7970 O   0  0  0  0  0  0  0  0  0  0  0  0
  -38.9500  -70.0110   52.9240 C   0  0  0  0  0  1  0  0  0  0  0  0
  1 20  1  6  0  0  0
  1  7  1  0  0  0  0
  2  1  1  0  0  0  0
  3  2  1  0  0  0  0
  3  5  1  0  0  0  0
  4  3  2  0  0  0  0
  5  6  2  0  0  0  0
  5  7  1  0  0  0  0
  7  8  2  0  0  0  0
  8  9  1  0  0  0  0
  8 27  1  0  0  0  0
 10  2  1  0  0  0  0
 10 11  1  0  0  0  0
 11 12  1  0  0  0  0
 13 18  1  0  0  0  0
 13 14  1  0  0  0  0
 13 12  1  0  0  0  0
 14 15  1  0  0  0  0
 15 16  1  0  0  0  0
 17 16  1  0  0  0  0
 18 17  1  0  0  0  0
 19 13  1  0  0  0  0
 20 26  1  0  0  0  0
 21 20  2  0  0  0  0
 22 23  2  0  0  0  0
 22 21  1  0  0  0  0
 23 25  1  0  0  0  0
 24 23  1  0  0  0  0
 25 26  2  0  0  0  0
 27 28  2  0  0  0  0
 27 32  1  0  0  0  0
 28 29  1  0  0  0  0
 29 33  1  0  0  0  0
 29 30  2  0  0  0  0
 31 30  1  0  0  0  0
 32 31  2  0  0  0  0
 34 33  1  0  0  0  0
M  END
>  <Pose>
1

>  <Score>
-7.584

$$$$
