/Users/jonathanwahrer/Desktop/Msc/3_Semester/Drug_Design_Praktikum/waehrer_HTS_screening/HTS_experiment/out/docking_results/vina_output/3e7o/0351_docked.pdbqt
 OpenBabel03192215343D

 32 35  0  0  1  0  0  0  0  0999 V2000
  -40.8230  -65.9990   50.2290 C   0  0  1  0  0  3  0  0  0  0  0  0
  -41.5900  -64.8640   50.5950 N   0  0  0  0  0  0  0  0  0  0  0  0
  -41.6620  -64.0940   49.3580 C   0  0  0  0  0  0  0  0  0  0  0  0
  -42.5930  -63.3120   49.0220 O   0  0  0  0  0  0  0  0  0  0  0  0
  -40.4460  -64.4200   48.6150 C   0  0  0  0  0  0  0  0  0  0  0  0
  -40.0760  -63.9850   47.4930 O   0  0  0  0  0  0  0  0  0  0  0  0
  -39.7130  -65.3760   49.4480 C   0  0  0  0  0  0  0  0  0  0  0  0
  -38.4080  -65.5690   49.4990 C   0  0  0  0  0  0  0  0  0  0  0  0
  -37.8690  -66.4760   50.3980 O   0  0  0  0  0  1  0  0  0  0  0  0
  -42.2640  -64.4470   51.8280 C   0  0  0  0  0  2  0  0  0  0  0  0
  -43.6990  -64.8630   51.9200 C   0  0  0  0  0  2  0  0  0  0  0  0
  -44.2340  -64.7430   53.2580 N   0  0  0  0  0  4  0  0  0  0  0  0
  -43.5960  -65.6230   54.1960 C   0  0  0  0  0  2  0  0  0  0  0  0
  -43.9230  -67.0730   53.9900 C   0  0  0  0  0  2  0  0  0  0  0  0
  -45.3000  -67.2980   53.9270 O   0  0  0  0  0  0  0  0  0  0  0  0
  -45.7680  -66.5550   52.8330 C   0  0  0  0  0  2  0  0  0  0  0  0
  -45.6410  -65.0940   53.2090 C   0  0  0  0  0  2  0  0  0  0  0  0
  -44.1740  -63.7740   53.6260 H   0  0  0  0  0  0  0  0  0  0  0  0
  -40.4640  -67.0140   51.1450 C   0  0  0  0  0  0  0  0  0  0  0  0
  -40.0930  -68.2710   50.7610 C   0  0  0  0  0  3  0  0  0  0  0  0
  -39.7310  -69.2370   51.7120 C   0  0  0  0  0  3  0  0  0  0  0  0
  -39.7360  -68.9570   53.0590 C   0  0  0  0  0  0  0  0  0  0  0  0
  -39.2540  -70.2300   54.3880 Br  0  0  0  0  0  0  0  0  0  0  0  0
  -40.1080  -67.6980   53.4470 C   0  0  0  0  0  3  0  0  0  0  0  0
  -40.4600  -66.7630   52.5010 C   0  0  0  0  0  3  0  0  0  0  0  0
  -37.4560  -64.8770   48.6410 C   0  0  0  0  0  0  0  0  0  0  0  0
  -36.9610  -63.6770   49.1690 C   0  0  0  0  0  3  0  0  0  0  0  0
  -36.0240  -62.9210   48.5040 C   0  0  0  0  0  3  0  0  0  0  0  0
  -35.5650  -63.3750   47.2720 C   0  0  0  0  0  0  0  0  0  0  0  0
  -36.0570  -64.5560   46.7600 C   0  0  0  0  0  3  0  0  0  0  0  0
  -34.3750  -62.4050   46.4360 Cl  0  0  0  0  0  0  0  0  0  0  0  0
  -36.9960  -65.3070   47.4350 C   0  0  0  0  0  3  0  0  0  0  0  0
  1  2  1  0  0  0  0
  1 19  1  1  0  0  0
  2 10  1  0  0  0  0
  3  2  1  0  0  0  0
  4  3  2  0  0  0  0
  5  3  1  0  0  0  0
  5  7  1  0  0  0  0
  6  5  2  0  0  0  0
  7  8  2  0  0  0  0
  7  1  1  0  0  0  0
  8  9  1  0  0  0  0
 10 11  1  0  0  0  0
 11 12  1  0  0  0  0
 12 18  1  0  0  0  0
 12 13  1  0  0  0  0
 14 13  1  0  0  0  0
 15 14  1  0  0  0  0
 16 17  1  0  0  0  0
 16 15  1  0  0  0  0
 17 12  1  0  0  0  0
 19 25  1  0  0  0  0
 20 19  2  0  0  0  0
 20 21  1  0  0  0  0
 21 22  2  0  0  0  0
 22 24  1  0  0  0  0
 22 23  1  0  0  0  0
 25 24  2  0  0  0  0
 26 27  1  0  0  0  0
 26  8  1  0  0  0  0
 28 27  2  0  0  0  0
 29 28  1  0  0  0  0
 30 29  2  0  0  0  0
 30 32  1  0  0  0  0
 31 29  1  0  0  0  0
 32 26  2  0  0  0  0
M  END
>  <Pose>
1

>  <Score>
-7.929

$$$$
