/Users/jonathanwahrer/Desktop/Msc/3_Semester/Drug_Design_Praktikum/waehrer_HTS_screening/HTS_experiment/out/docking_results/vina_output/3e7o/0362_docked.pdbqt
 OpenBabel03192215353D

 36 40  0  0  1  0  0  0  0  0999 V2000
  -38.4130  -62.9380   48.1000 C   0  0  2  0  0  3  0  0  0  0  0  0
  -37.2760  -62.2360   47.6760 N   0  0  0  0  0  0  0  0  0  0  0  0
  -36.2820  -62.6070   48.6690 C   0  0  0  0  0  0  0  0  0  0  0  0
  -35.2520  -61.9450   49.0380 O   0  0  0  0  0  0  0  0  0  0  0  0
  -36.6580  -63.9110   49.2020 C   0  0  0  0  0  0  0  0  0  0  0  0
  -36.1050  -64.6390   50.0880 O   0  0  0  0  0  0  0  0  0  0  0  0
  -37.8830  -64.2700   48.4900 C   0  0  0  0  0  0  0  0  0  0  0  0
  -38.3950  -65.4690   48.2910 C   0  0  0  0  0  0  0  0  0  0  0  0
  -39.6090  -65.6050   47.6310 O   0  0  0  0  0  1  0  0  0  0  0  0
  -39.6440  -62.9520   47.3730 C   0  0  0  0  0  0  0  0  0  0  0  0
  -39.6950  -62.9770   46.0090 C   0  0  0  0  0  3  0  0  0  0  0  0
  -40.9120  -62.9730   45.3590 C   0  0  0  0  0  3  0  0  0  0  0  0
  -42.1110  -62.9440   46.0450 C   0  0  0  0  0  0  0  0  0  0  0  0
  -43.7940  -62.9380   45.1460 Br  0  0  0  0  0  0  0  0  0  0  0  0
  -42.0510  -62.9190   47.4260 C   0  0  0  0  0  3  0  0  0  0  0  0
  -40.8270  -62.9240   48.0550 C   0  0  0  0  0  3  0  0  0  0  0  0
  -37.7380  -66.6890   48.7360 C   0  0  0  0  0  0  0  0  0  0  0  0
  -38.0970  -67.4990   49.7460 N   0  0  0  0  0  0  0  0  0  0  0  0
  -37.2510  -68.5530   49.8190 C   0  0  0  0  0  0  0  0  0  0  0  0
  -39.0870  -67.4800   50.6860 C   0  0  0  0  0  3  0  0  0  0  0  0
  -36.3540  -68.3860   48.8340 N   0  0  0  0  0  0  0  0  0  0  0  0
  -37.3790  -69.5400   50.7720 C   0  0  0  0  0  3  0  0  0  0  0  0
  -36.6110  -67.2700   48.1540 C   0  0  0  0  0  0  0  0  0  0  0  0
  -35.8970  -66.6790   46.9920 C   0  0  0  0  0  1  0  0  0  0  0  0
  -38.3870  -69.4940   51.7060 C   0  0  0  0  0  3  0  0  0  0  0  0
  -39.2560  -68.4270   51.6480 C   0  0  0  0  0  3  0  0  0  0  0  0
  -36.8780  -61.3220   46.6540 C   0  0  0  0  0  2  0  0  0  0  0  0
  -36.1170  -61.7130   45.4870 C   0  0  0  0  0  2  0  0  0  0  0  0
  -34.6290  -61.4550   45.4950 C   0  0  0  0  0  2  0  0  0  0  0  0
  -33.8850  -62.6170   45.0180 N   0  0  0  0  0  4  0  0  0  0  0  0
  -34.1080  -63.8070   45.7850 C   0  0  0  0  0  2  0  0  0  0  0  0
  -33.2000  -63.9710   46.9680 C   0  0  0  0  0  2  0  0  0  0  0  0
  -32.5220  -62.8300   47.3050 O   0  0  0  0  0  0  0  0  0  0  0  0
  -31.8330  -62.2310   46.2830 C   0  0  0  0  0  2  0  0  0  0  0  0
  -32.4780  -62.3670   44.9430 C   0  0  0  0  0  2  0  0  0  0  0  0
  -34.2390  -62.8100   44.0480 H   0  0  0  0  0  0  0  0  0  0  0  0
  1 10  1  6  0  0  0
  1  7  1  0  0  0  0
  2  1  1  0  0  0  0
  2  3  1  0  0  0  0
  3  4  2  0  0  0  0
  3  5  1  0  0  0  0
  5  6  2  0  0  0  0
  7  5  1  0  0  0  0
  8  7  2  0  0  0  0
  8 17  1  0  0  0  0
  9  8  1  0  0  0  0
 10 16  1  0  0  0  0
 11 10  2  0  0  0  0
 12 11  1  0  0  0  0
 12 13  2  0  0  0  0
 13 15  1  0  0  0  0
 14 13  1  0  0  0  0
 15 16  2  0  0  0  0
 17 18  1  0  0  0  0
 18 19  1  0  0  0  0
 18 20  1  0  0  0  0
 19 22  1  0  0  0  0
 20 26  2  0  0  0  0
 21 19  2  0  0  0  0
 22 25  2  0  0  0  0
 23 17  2  0  0  0  0
 23 21  1  0  0  0  0
 24 23  1  0  0  0  0
 26 25  1  0  0  0  0
 27  2  1  0  0  0  0
 28 29  1  0  0  0  0
 28 27  1  0  0  0  0
 30 29  1  0  0  0  0
 30 31  1  0  0  0  0
 31 32  1  0  0  0  0
 32 33  1  0  0  0  0
 34 33  1  0  0  0  0
 35 30  1  0  0  0  0
 35 34  1  0  0  0  0
 36 30  1  0  0  0  0
M  END
>  <Pose>
1

>  <Score>
-7.075

$$$$
