/Users/jonathanwahrer/Desktop/Msc/3_Semester/Drug_Design_Praktikum/waehrer_HTS_screening/HTS_experiment/out/docking_results/vina_output/3e7o/0364_docked.pdbqt
 OpenBabel03192215353D

 32 35  0  0  1  0  0  0  0  0999 V2000
  -41.9080  -66.5420   50.9340 C   0  0  1  0  0  3  0  0  0  0  0  0
  -42.9330  -65.8560   51.6700 N   0  0  0  0  0  0  0  0  0  0  0  0
  -42.4910  -64.5260   51.8770 C   0  0  0  0  0  0  0  0  0  0  0  0
  -43.0280  -63.6830   52.6510 O   0  0  0  0  0  0  0  0  0  0  0  0
  -41.3060  -64.2790   51.0510 C   0  0  0  0  0  0  0  0  0  0  0  0
  -40.6390  -63.2190   50.9640 O   0  0  0  0  0  0  0  0  0  0  0  0
  -41.0370  -65.5110   50.3300 C   0  0  0  0  0  0  0  0  0  0  0  0
  -40.2140  -65.6390   49.3020 C   0  0  0  0  0  0  0  0  0  0  0  0
  -40.1480  -66.9050   48.6860 O   0  0  0  0  0  1  0  0  0  0  0  0
  -41.1380  -67.4850   51.7900 C   0  0  0  0  0  0  0  0  0  0  0  0
  -40.4400  -68.5540   51.2770 C   0  0  0  0  0  3  0  0  0  0  0  0
  -39.7190  -69.4440   52.0380 C   0  0  0  0  0  3  0  0  0  0  0  0
  -39.6720  -69.2830   53.3930 C   0  0  0  0  0  0  0  0  0  0  0  0
  -38.6650  -70.5300   54.4350 Br  0  0  0  0  0  0  0  0  0  0  0  0
  -40.3540  -68.2300   53.9540 C   0  0  0  0  0  3  0  0  0  0  0  0
  -41.0700  -67.3500   53.1780 C   0  0  0  0  0  3  0  0  0  0  0  0
  -39.3670  -64.6110   48.7510 C   0  0  0  0  0  0  0  0  0  0  0  0
  -38.0860  -64.2770   48.9490 N   0  0  0  0  0  0  0  0  0  0  0  0
  -37.7530  -63.1970   48.2210 C   0  0  0  0  0  0  0  0  0  0  0  0
  -37.1280  -64.8440   49.7130 C   0  0  0  0  0  3  0  0  0  0  0  0
  -38.8510  -62.8310   47.5380 N   0  0  0  0  0  0  0  0  0  0  0  0
  -36.4810  -62.6360   48.2160 C   0  0  0  0  0  3  0  0  0  0  0  0
  -39.8490  -63.6660   47.8350 C   0  0  0  0  0  0  0  0  0  0  0  0
  -41.2280  -63.5890   47.2750 C   0  0  0  0  0  1  0  0  0  0  0  0
  -35.5150  -63.2140   48.9920 C   0  0  0  0  0  3  0  0  0  0  0  0
  -35.8540  -64.3260   49.7410 C   0  0  0  0  0  3  0  0  0  0  0  0
  -44.2200  -66.4220   52.1300 C   0  0  0  0  0  2  0  0  0  0  0  0
  -44.4170  -66.1270   53.6010 C   0  0  0  0  0  2  0  0  0  0  0  0
  -45.7780  -65.9390   53.9640 N   0  0  0  0  0  4  0  0  0  0  0  0
  -46.2820  -64.7890   53.2130 C   0  0  0  0  0  1  0  0  0  0  0  0
  -46.6360  -67.0570   53.7190 C   0  0  0  0  0  1  0  0  0  0  0  0
  -45.8850  -65.6830   54.9850 H   0  0  0  0  0  0  0  0  0  0  0  0
  1  2  1  0  0  0  0
  1 10  1  1  0  0  0
  2  3  1  0  0  0  0
  2 27  1  0  0  0  0
  3  4  2  0  0  0  0
  5  3  1  0  0  0  0
  6  5  2  0  0  0  0
  7  1  1  0  0  0  0
  7  5  1  0  0  0  0
  8  7  2  0  0  0  0
  9  8  1  0  0  0  0
 10 16  1  0  0  0  0
 11 10  2  0  0  0  0
 11 12  1  0  0  0  0
 12 13  2  0  0  0  0
 13 15  1  0  0  0  0
 13 14  1  0  0  0  0
 16 15  2  0  0  0  0
 17 18  1  0  0  0  0
 17  8  1  0  0  0  0
 18 20  1  0  0  0  0
 19 18  1  0  0  0  0
 20 26  2  0  0  0  0
 21 23  1  0  0  0  0
 21 19  2  0  0  0  0
 22 19  1  0  0  0  0
 22 25  2  0  0  0  0
 23 17  2  0  0  0  0
 24 23  1  0  0  0  0
 25 26  1  0  0  0  0
 27 28  1  0  0  0  0
 28 29  1  0  0  0  0
 29 32  1  0  0  0  0
 30 29  1  0  0  0  0
 31 29  1  0  0  0  0
M  END
>  <Pose>
1

>  <Score>
-7.897

$$$$
