/Users/jonathanwahrer/Desktop/Msc/3_Semester/Drug_Design_Praktikum/waehrer_HTS_screening/HTS_experiment/out/docking_results/vina_output/3e7o/0381_docked.pdbqt
 OpenBabel03192215353D

 29 32  0  0  0  0  0  0  0  0999 V2000
  -42.1820  -64.8110   50.8080 N   0  0  0  0  0  0  0  0  0  0  0  0
  -41.5770  -65.8180   51.4310 N   0  0  0  0  0  0  0  0  0  0  0  0
  -42.0280  -66.2970   52.6260 C   0  0  0  0  0  0  0  0  0  0  0  0
  -43.1090  -65.7370   53.1900 N   0  0  0  0  0  0  0  0  0  0  0  0
  -43.4050  -66.3710   54.4560 C   0  0  0  0  0  3  0  0  0  0  0  0
  -42.3760  -67.4430   54.6580 C   0  0  0  0  0  3  0  0  0  0  0  0
  -41.5810  -67.3690   53.4460 N   0  0  0  0  0  0  0  0  0  0  0  0
  -43.7600  -64.7190   52.6100 C   0  0  0  0  0  0  0  0  0  0  0  0
  -44.7700  -64.1980   53.1400 O   0  0  0  0  0  0  0  0  0  0  0  0
  -43.2620  -64.2760   51.4020 C   0  0  0  0  0  0  0  0  0  0  0  0
  -43.8390  -63.3220   50.8200 O   0  0  0  0  0  0  0  0  0  0  0  0
  -41.7260  -64.3060   49.5020 C   0  0  0  0  0  2  0  0  0  0  0  0
  -40.3940  -64.8180   49.1840 C   0  0  0  0  0  0  0  0  0  0  0  0
  -39.2560  -64.8230   50.0000 N   0  0  0  0  0  0  0  0  0  0  0  0
  -39.3670  -64.3960   50.9640 H   0  0  0  0  0  0  0  0  0  0  0  0
  -40.3110  -65.3170   47.9920 O   0  0  0  0  0  0  0  0  0  0  0  0
  -38.0030  -65.3320   49.6510 C   0  0  0  0  0  0  0  0  0  0  0  0
  -37.6660  -66.6480   49.4530 C   0  0  0  0  0  3  0  0  0  0  0  0
  -36.3790  -67.0570   49.0760 C   0  0  0  0  0  3  0  0  0  0  0  0
  -35.3720  -66.1490   48.8790 C   0  0  0  0  0  0  0  0  0  0  0  0
  -33.6140  -66.6890   48.3610 Br  0  0  0  0  0  0  0  0  0  0  0  0
  -35.6870  -64.8190   49.0730 C   0  0  0  0  0  3  0  0  0  0  0  0
  -36.9440  -64.4270   49.4430 C   0  0  0  0  0  3  0  0  0  0  0  0
  -40.5210  -68.2640   53.1710 C   0  0  0  0  0  0  0  0  0  0  0  0
  -39.8870  -68.3450   51.9600 C   0  0  0  0  0  3  0  0  0  0  0  0
  -38.8630  -69.2430   51.7170 C   0  0  0  0  0  3  0  0  0  0  0  0
  -38.4520  -70.0980   52.7220 C   0  0  0  0  0  3  0  0  0  0  0  0
  -39.0680  -70.0330   53.9320 C   0  0  0  0  0  3  0  0  0  0  0  0
  -40.0880  -69.1360   54.1660 C   0  0  0  0  0  3  0  0  0  0  0  0
  1 10  1  0  0  0  0
  1  2  1  0  0  0  0
  2  3  2  0  0  0  0
  3  4  1  0  0  0  0
  3  7  1  0  0  0  0
  4  5  1  0  0  0  0
  5  6  2  0  0  0  0
  7  6  1  0  0  0  0
  8  9  2  0  0  0  0
  8  4  1  0  0  0  0
 10  8  1  0  0  0  0
 11 10  2  0  0  0  0
 12  1  1  0  0  0  0
 13 12  1  0  0  0  0
 13 14  1  0  0  0  0
 14 15  1  0  0  0  0
 16 13  2  0  0  0  0
 17 14  1  0  0  0  0
 18 17  1  0  0  0  0
 19 18  2  0  0  0  0
 20 22  2  0  0  0  0
 20 19  1  0  0  0  0
 21 20  1  0  0  0  0
 22 23  1  0  0  0  0
 23 17  2  0  0  0  0
 24  7  1  0  0  0  0
 24 29  1  0  0  0  0
 25 24  2  0  0  0  0
 26 25  1  0  0  0  0
 26 27  2  0  0  0  0
 27 28  1  0  0  0  0
 28 29  2  0  0  0  0
M  END
>  <Pose>
1

>  <Score>
-8.762

$$$$
