/Users/jonathanwahrer/Desktop/Msc/3_Semester/Drug_Design_Praktikum/waehrer_HTS_screening/HTS_experiment/out/docking_results/vina_output/3e7o/0382_docked.pdbqt
 OpenBabel03192215353D

 31 34  0  0  0  0  0  0  0  0999 V2000
  -36.0090  -69.2310   51.1920 N   0  0  0  0  0  0  0  0  0  0  0  0
  -34.8570  -69.4470   51.8270 N   0  0  0  0  0  0  0  0  0  0  0  0
  -34.0370  -68.4480   51.5960 N   0  0  0  0  0  0  0  0  0  0  0  0
  -34.6640  -67.5550   50.7940 C   0  0  0  0  0  0  0  0  0  0  0  0
  -35.8830  -68.0540   50.5540 C   0  0  0  0  0  0  0  0  0  0  0  0
  -36.4860  -67.1210   49.7380 C   0  0  0  0  0  0  0  0  0  0  0  0
  -37.6680  -67.2600   49.3010 O   0  0  0  0  0  0  0  0  0  0  0  0
  -35.6790  -66.0810   49.4780 N   0  0  0  0  0  0  0  0  0  0  0  0
  -34.5210  -66.3510   50.1450 C   0  0  0  0  0  0  0  0  0  0  0  0
  -33.5250  -65.5780   50.1250 O   0  0  0  0  0  0  0  0  0  0  0  0
  -34.6780  -70.2930   52.4070 H   0  0  0  0  0  0  0  0  0  0  0  0
  -33.0560  -68.3110   51.9460 H   0  0  0  0  0  0  0  0  0  0  0  0
  -37.1440  -70.1310   51.2240 C   0  0  0  0  0  2  0  0  0  0  0  0
  -38.2040  -69.5410   52.1390 C   0  0  0  0  0  0  0  0  0  0  0  0
  -39.2600  -68.7960   51.5970 N   0  0  0  0  0  0  0  0  0  0  0  0
  -39.2910  -68.6550   50.5380 H   0  0  0  0  0  0  0  0  0  0  0  0
  -38.1140  -69.7300   53.3700 O   0  0  0  0  0  0  0  0  0  0  0  0
  -40.3140  -68.1970   52.3240 C   0  0  0  0  0  0  0  0  0  0  0  0
  -40.9880  -68.7760   53.3780 C   0  0  0  0  0  3  0  0  0  0  0  0
  -42.0020  -68.1340   54.0760 C   0  0  0  0  0  3  0  0  0  0  0  0
  -42.3820  -66.8620   53.7330 C   0  0  0  0  0  0  0  0  0  0  0  0
  -43.7600  -65.9240   54.6460 Br  0  0  0  0  0  0  0  0  0  0  0  0
  -41.7230  -66.2630   52.6830 C   0  0  0  0  0  3  0  0  0  0  0  0
  -40.7320  -66.8920   52.0000 C   0  0  0  0  0  3  0  0  0  0  0  0
  -35.9370  -64.9170   48.6800 C   0  0  0  0  0  0  0  0  0  0  0  0
  -36.4170  -63.7580   49.2510 C   0  0  0  0  0  3  0  0  0  0  0  0
  -36.6580  -62.6300   48.4920 C   0  0  0  0  0  3  0  0  0  0  0  0
  -36.4340  -62.6040   47.1270 C   0  0  0  0  0  0  0  0  0  0  0  0
  -35.9540  -63.7620   46.5530 C   0  0  0  0  0  3  0  0  0  0  0  0
  -36.7000  -61.3700   46.3390 C   0  0  0  0  0  1  0  0  0  0  0  0
  -35.7130  -64.8900   47.3200 C   0  0  0  0  0  3  0  0  0  0  0  0
  1 13  1  0  0  0  0
  1  2  1  0  0  0  0
  2 11  1  0  0  0  0
  3  2  1  0  0  0  0
  3 12  1  0  0  0  0
  4  3  1  0  0  0  0
  5  4  2  0  0  0  0
  5  1  1  0  0  0  0
  6  5  1  0  0  0  0
  7  6  2  0  0  0  0
  8  6  1  0  0  0  0
  8  9  1  0  0  0  0
  9  4  1  0  0  0  0
 10  9  2  0  0  0  0
 13 14  1  0  0  0  0
 14 17  2  0  0  0  0
 15 14  1  0  0  0  0
 15 18  1  0  0  0  0
 16 15  1  0  0  0  0
 18 19  1  0  0  0  0
 19 20  2  0  0  0  0
 21 20  1  0  0  0  0
 21 22  1  0  0  0  0
 23 21  2  0  0  0  0
 24 18  2  0  0  0  0
 24 23  1  0  0  0  0
 25 26  1  0  0  0  0
 25  8  1  0  0  0  0
 27 26  2  0  0  0  0
 28 27  1  0  0  0  0
 29 28  2  0  0  0  0
 29 31  1  0  0  0  0
 30 28  1  0  0  0  0
 31 25  2  0  0  0  0
M  END
>  <Pose>
1

>  <Score>
-8.196

$$$$
