/Users/jonathanwahrer/Desktop/Msc/3_Semester/Drug_Design_Praktikum/waehrer_HTS_screening/HTS_experiment/out/docking_results/vina_output/3e7o/0385_docked.pdbqt
 OpenBabel03192215363D

 32 35  0  0  1  0  0  0  0  0999 V2000
  -40.7450  -68.6640   52.2560 C   0  0  2  0  0  3  0  0  0  0  0  0
  -40.5460  -69.8560   53.1440 C   0  0  0  0  0  2  0  0  0  0  0  0
  -39.1510  -70.1020   53.5330 C   0  0  0  0  0  0  0  0  0  0  0  0
  -38.9370  -70.6380   54.6540 O   0  0  0  0  0  0  0  0  0  0  0  0
  -38.0940  -69.7390   52.6640 N   0  0  0  0  0  0  0  0  0  0  0  0
  -38.3340  -68.8560   51.5890 C   0  0  0  0  0  0  0  0  0  0  0  0
  -37.2990  -68.5300   50.7530 N   0  0  0  0  0  0  0  0  0  0  0  0
  -37.4580  -67.7130   49.7100 C   0  0  0  0  0  0  0  0  0  0  0  0
  -38.6800  -67.2080   49.4970 N   0  0  0  0  0  0  0  0  0  0  0  0
  -39.7450  -67.4990   50.3000 C   0  0  0  0  0  0  0  0  0  0  0  0
  -39.6070  -68.3420   51.3850 C   0  0  0  0  0  0  0  0  0  0  0  0
  -37.1100  -70.1150   52.7950 H   0  0  0  0  0  0  0  0  0  0  0  0
  -41.0830  -67.5000   53.2120 C   0  0  0  0  0  0  0  0  0  0  0  0
  -42.2970  -66.9770   53.2060 N   0  0  0  0  0  0  0  0  0  0  0  0
  -41.8790  -65.9870   54.0440 H   0  0  0  0  0  0  0  0  0  0  0  0
  -40.0380  -67.2030   53.9170 O   0  0  0  0  0  0  0  0  0  0  0  0
  -43.5570  -66.4330   53.2020 C   0  0  0  0  0  0  0  0  0  0  0  0
  -43.6650  -65.0850   52.7330 C   0  0  0  0  0  3  0  0  0  0  0  0
  -44.8590  -64.4710   52.6150 C   0  0  0  0  0  3  0  0  0  0  0  0
  -46.0300  -65.1100   52.9410 C   0  0  0  0  0  0  0  0  0  0  0  0
  -47.7230  -64.2230   52.7600 Br  0  0  0  0  0  0  0  0  0  0  0  0
  -45.9700  -66.4080   53.3980 C   0  0  0  0  0  3  0  0  0  0  0  0
  -44.7550  -67.0350   53.5170 C   0  0  0  0  0  3  0  0  0  0  0  0
  -41.0220  -66.9270   50.0380 N   0  0  0  0  0  0  0  0  0  0  0  0
  -41.4030  -66.1360   50.5670 H   0  0  0  0  0  0  0  0  0  0  0  0
  -41.6070  -67.3400   49.2680 H   0  0  0  0  0  0  0  0  0  0  0  0
  -36.3490  -67.3810   48.8430 N   0  0  0  0  0  0  0  0  0  0  0  0
  -35.3170  -66.5740   49.3930 C   0  0  0  0  0  2  0  0  0  0  0  0
  -34.0200  -66.6310   48.6390 C   0  0  0  0  0  2  0  0  0  0  0  0
  -34.0540  -67.5430   47.5900 O   0  0  0  0  0  0  0  0  0  0  0  0
  -35.1580  -67.3480   46.7710 C   0  0  0  0  0  2  0  0  0  0  0  0
  -36.3650  -67.8930   47.4890 C   0  0  0  0  0  2  0  0  0  0  0  0
  1  2  1  0  0  0  0
  1 13  1  1  0  0  0
  2  3  1  0  0  0  0
  3  4  2  0  0  0  0
  5 12  1  0  0  0  0
  5  3  1  0  0  0  0
  6  5  1  0  0  0  0
  7  6  1  0  0  0  0
  8  7  2  0  0  0  0
  9  8  1  0  0  0  0
  9 10  2  0  0  0  0
 10 11  1  0  0  0  0
 11  6  2  0  0  0  0
 11  1  1  0  0  0  0
 13 16  2  0  0  0  0
 14 13  1  0  0  0  0
 14 15  1  0  0  0  0
 17 14  1  0  0  0  0
 17 23  1  0  0  0  0
 18 17  2  0  0  0  0
 19 18  1  0  0  0  0
 19 20  2  0  0  0  0
 20 22  1  0  0  0  0
 21 20  1  0  0  0  0
 22 23  2  0  0  0  0
 24 10  1  0  0  0  0
 24 25  1  0  0  0  0
 26 24  1  0  0  0  0
 27 28  1  0  0  0  0
 27  8  1  0  0  0  0
 29 28  1  0  0  0  0
 30 29  1  0  0  0  0
 31 32  1  0  0  0  0
 31 30  1  0  0  0  0
 32 27  1  0  0  0  0
M  END
>  <Pose>
1

>  <Score>
-8.449

$$$$
