/Users/jonathanwahrer/Desktop/Msc/3_Semester/Drug_Design_Praktikum/waehrer_HTS_screening/HTS_experiment/out/docking_results/vina_output/3e7o/0386_docked.pdbqt
 OpenBabel03192215363D

 36 39  0  0  1  0  0  0  0  0999 V2000
  -44.6820  -66.1990   53.8000 C   0  0  2  0  0  3  0  0  0  0  0  0
  -45.3570  -67.5360   53.5550 C   0  0  0  0  0  2  0  0  0  0  0  0
  -46.7850  -67.2690   53.2060 C   0  0  0  0  0  0  0  0  0  0  0  0
  -47.6860  -67.8750   53.7580 O   0  0  0  0  0  0  0  0  0  0  0  0
  -47.0170  -66.2990   52.2200 N   0  0  0  0  0  0  0  0  0  0  0  0
  -46.0430  -65.3180   51.9250 C   0  0  0  0  0  0  0  0  0  0  0  0
  -46.2110  -64.4420   50.9150 N   0  0  0  0  0  0  0  0  0  0  0  0
  -45.3090  -63.5470   50.5100 C   0  0  0  0  0  0  0  0  0  0  0  0
  -44.1400  -63.5570   51.2020 N   0  0  0  0  0  0  0  0  0  0  0  0
  -43.9010  -64.4090   52.2320 C   0  0  0  0  0  0  0  0  0  0  0  0
  -44.8250  -65.3180   52.6470 C   0  0  0  0  0  0  0  0  0  0  0  0
  -47.9090  -66.2560   51.6570 H   0  0  0  0  0  0  0  0  0  0  0  0
  -43.3700  -66.2990   54.4940 C   0  0  0  0  0  0  0  0  0  0  0  0
  -42.3260  -66.9700   53.9700 N   0  0  0  0  0  0  0  0  0  0  0  0
  -41.5340  -66.5360   54.9700 H   0  0  0  0  0  0  0  0  0  0  0  0
  -43.4230  -65.6490   55.6250 O   0  0  0  0  0  0  0  0  0  0  0  0
  -41.2610  -67.6530   53.4380 C   0  0  0  0  0  0  0  0  0  0  0  0
  -40.8900  -67.2270   52.1220 C   0  0  0  0  0  3  0  0  0  0  0  0
  -39.8910  -67.9010   51.5020 C   0  0  0  0  0  3  0  0  0  0  0  0
  -39.2220  -68.9670   52.0760 C   0  0  0  0  0  0  0  0  0  0  0  0
  -37.8400  -69.8370   51.1180 Br  0  0  0  0  0  0  0  0  0  0  0  0
  -39.5650  -69.3860   53.3300 C   0  0  0  0  0  3  0  0  0  0  0  0
  -40.5770  -68.7150   53.9790 C   0  0  0  0  0  3  0  0  0  0  0  0
  -42.6730  -64.3540   52.8850 O   0  0  0  0  0  0  0  0  0  0  0  0
  -42.5130  -63.7600   53.6960 H   0  0  0  0  0  0  0  0  0  0  0  0
  -45.5310  -62.6040   49.4790 N   0  0  0  0  0  0  0  0  0  0  0  0
  -45.1830  -61.2070   49.5040 C   0  0  0  0  0  2  0  0  0  0  0  0
  -44.6870  -60.8130   48.1160 C   0  0  0  0  0  2  0  0  0  0  0  0
  -44.0450  -61.9620   47.3960 C   0  0  2  0  0  3  0  0  0  0  0  0
  -44.9930  -63.0950   47.2150 C   0  0  0  0  0  2  0  0  0  0  0  0
  -46.1580  -63.0540   48.2310 C   0  0  0  0  0  2  0  0  0  0  0  0
  -42.7680  -62.3700   48.0290 C   0  0  0  0  0  0  0  0  0  0  0  0
  -41.9330  -61.4770   48.2780 O   0  0  0  0  0  0  0  0  0  0  0  0
  -42.4450  -63.7050   48.3580 N   0  0  0  0  0  0  0  0  0  0  0  0
  -43.1500  -64.3850   48.6970 H   0  0  0  0  0  0  0  0  0  0  0  0
  -41.4570  -64.0190   48.2560 H   0  0  0  0  0  0  0  0  0  0  0  0
  1 13  1  6  0  0  0
  2  1  1  0  0  0  0
  3  2  1  0  0  0  0
  3  4  2  0  0  0  0
  5  3  1  0  0  0  0
  6  5  1  0  0  0  0
  6 11  2  0  0  0  0
  7  6  1  0  0  0  0
  8  7  2  0  0  0  0
  8  9  1  0  0  0  0
  9 10  2  0  0  0  0
 10 11  1  0  0  0  0
 10 24  1  0  0  0  0
 11  1  1  0  0  0  0
 12  5  1  0  0  0  0
 13 16  2  0  0  0  0
 14 13  1  0  0  0  0
 14 15  1  0  0  0  0
 17 14  1  0  0  0  0
 17 23  1  0  0  0  0
 18 17  2  0  0  0  0
 19 20  2  0  0  0  0
 19 18  1  0  0  0  0
 20 22  1  0  0  0  0
 21 20  1  0  0  0  0
 22 23  2  0  0  0  0
 24 25  1  0  0  0  0
 26 27  1  0  0  0  0
 26  8  1  0  0  0  0
 28 27  1  0  0  0  0
 29 32  1  1  0  0  0
 29 28  1  0  0  0  0
 30 29  1  0  0  0  0
 30 31  1  0  0  0  0
 31 26  1  0  0  0  0
 32 33  2  0  0  0  0
 32 34  1  0  0  0  0
 34 35  1  0  0  0  0
 36 34  1  0  0  0  0
M  END
>  <Pose>
1

>  <Score>
-8.949

$$$$
