/Users/jonathanwahrer/Desktop/Msc/3_Semester/Drug_Design_Praktikum/waehrer_HTS_screening/HTS_experiment/out/docking_results/vina_output/3e7o/0393_docked.pdbqt
 OpenBabel03192215363D

 27 30  0  0  0  0  0  0  0  0999 V2000
  -38.8950  -67.9140   50.9900 N   0  0  0  0  0  0  0  0  0  0  0  0
  -38.1110  -68.9430   51.1980 N   0  0  0  0  0  0  0  0  0  0  0  0
  -37.1060  -69.0150   50.3020 C   0  0  0  0  0  3  0  0  0  0  0  0
  -37.2740  -67.9450   49.4660 C   0  0  0  0  0  0  0  0  0  0  0  0
  -38.3930  -67.2750   49.9130 C   0  0  0  0  0  0  0  0  0  0  0  0
  -36.4130  -67.6180   48.3360 C   0  0  0  0  0  0  0  0  0  0  0  0
  -36.4860  -68.3760   47.3390 O   0  0  0  0  0  0  0  0  0  0  0  0
  -35.5300  -66.5160   48.3220 N   0  0  0  0  0  0  0  0  0  0  0  0
  -34.7210  -66.2810   47.1510 C   0  0  0  0  0  2  0  0  0  0  0  0
  -35.3570  -65.5760   49.4060 C   0  0  0  0  0  2  0  0  0  0  0  0
  -35.1840  -65.0040   46.5170 C   0  0  0  0  0  2  0  0  0  0  0  0
  -35.9020  -64.1500   47.4570 N   0  0  0  0  0  0  0  0  0  0  0  0
  -35.7270  -64.2460   48.8670 C   0  0  0  0  0  0  0  0  0  0  0  0
  -36.5780  -63.4360   47.0520 H   0  0  0  0  0  0  0  0  0  0  0  0
  -35.8870  -63.2300   49.5860 O   0  0  0  0  0  0  0  0  0  0  0  0
  -38.9560  -66.0760   49.3340 N   0  0  0  0  0  0  0  0  0  0  0  0
  -38.9960  -64.8550   49.8470 C   0  0  0  0  0  3  0  0  0  0  0  0
  -39.6200  -63.9880   48.9810 C   0  0  0  0  0  3  0  0  0  0  0  0
  -39.9670  -64.7490   47.8910 C   0  0  0  0  0  3  0  0  0  0  0  0
  -39.5470  -66.0390   48.1290 C   0  0  0  0  0  3  0  0  0  0  0  0
  -40.0430  -67.5700   51.7690 C   0  0  0  0  0  0  0  0  0  0  0  0
  -41.1770  -67.0200   51.2010 C   0  0  0  0  0  3  0  0  0  0  0  0
  -42.2970  -66.6800   51.9320 C   0  0  0  0  0  3  0  0  0  0  0  0
  -42.3120  -66.8860   53.2950 C   0  0  0  0  0  0  0  0  0  0  0  0
  -43.8530  -66.4220   54.3300 Br  0  0  0  0  0  0  0  0  0  0  0  0
  -41.1860  -67.4340   53.8820 C   0  0  0  0  0  3  0  0  0  0  0  0
  -40.0730  -67.7700   53.1370 C   0  0  0  0  0  3  0  0  0  0  0  0
  1  2  1  0  0  0  0
  1 21  1  0  0  0  0
  3  2  2  0  0  0  0
  4  5  2  0  0  0  0
  4  3  1  0  0  0  0
  5  1  1  0  0  0  0
  6  4  1  0  0  0  0
  7  6  2  0  0  0  0
  8  6  1  0  0  0  0
  8 10  1  0  0  0  0
  9  8  1  0  0  0  0
 11  9  1  0  0  0  0
 11 12  1  0  0  0  0
 12 13  1  0  0  0  0
 13 10  1  0  0  0  0
 13 15  2  0  0  0  0
 14 12  1  0  0  0  0
 16 17  1  0  0  0  0
 16  5  1  0  0  0  0
 18 17  2  0  0  0  0
 19 20  2  0  0  0  0
 19 18  1  0  0  0  0
 20 16  1  0  0  0  0
 21 27  1  0  0  0  0
 22 21  2  0  0  0  0
 22 23  1  0  0  0  0
 23 24  2  0  0  0  0
 24 26  1  0  0  0  0
 24 25  1  0  0  0  0
 27 26  2  0  0  0  0
M  END
>  <Pose>
1

>  <Score>
-7.639

$$$$
