/Users/jonathanwahrer/Desktop/Msc/3_Semester/Drug_Design_Praktikum/waehrer_HTS_screening/HTS_experiment/out/docking_results/vina_output/3e7o/0395_docked.pdbqt
 OpenBabel03192215363D

 28 31  0  0  1  0  0  0  0  0999 V2000
  -43.2150  -65.9020   53.3490 N   0  0  0  0  0  0  0  0  0  0  0  0
  -43.0590  -64.5980   53.1980 N   0  0  0  0  0  0  0  0  0  0  0  0
  -44.2230  -63.9860   53.0570 N   0  0  0  0  0  0  0  0  0  0  0  0
  -45.2130  -64.9160   53.1150 C   0  0  0  0  0  0  0  0  0  0  0  0
  -44.5420  -66.1120   53.2990 C   0  0  0  0  0  0  0  0  0  0  0  0
  -45.2880  -67.2190   53.3920 N   0  0  0  0  0  0  0  0  0  0  0  0
  -46.6290  -67.1560   53.3080 C   0  0  0  0  0  3  0  0  0  0  0  0
  -47.2920  -65.9910   53.1280 N   0  0  0  0  0  0  0  0  0  0  0  0
  -46.5840  -64.8590   53.0290 C   0  0  0  0  0  0  0  0  0  0  0  0
  -47.1940  -63.7800   52.8620 O   0  0  0  0  0  0  0  0  0  0  0  0
  -48.7400  -66.0240   53.0480 C   0  0  0  0  0  2  0  0  0  0  0  0
  -49.2890  -67.0470   54.0100 C   0  0  0  0  0  0  0  0  0  0  0  0
  -49.1390  -66.9040   55.2530 O   0  0  0  0  0  0  0  0  0  0  0  0
  -49.9840  -68.1860   53.5400 N   0  0  0  0  0  0  0  0  0  0  0  0
  -50.5130  -69.1720   54.4510 C   0  0  0  0  0  2  0  0  0  0  0  0
  -50.1760  -68.3870   52.1220 C   0  0  0  0  0  2  0  0  0  0  0  0
  -50.1540  -70.5350   53.8840 C   0  0  2  0  0  3  0  0  0  0  0  0
  -50.5810  -70.7230   52.5950 O   0  0  0  0  0  0  0  0  0  0  0  0
  -50.8850  -71.5630   54.7540 C   0  0  0  0  0  1  0  0  0  0  0  0
  -51.0730  -69.5990   51.9780 C   0  0  2  0  0  3  0  0  0  0  0  0
  -51.4100  -69.8080   50.5310 C   0  0  0  0  0  1  0  0  0  0  0  0
  -42.2050  -66.8980   53.5280 C   0  0  0  0  0  0  0  0  0  0  0  0
  -41.3420  -67.2050   52.4970 C   0  0  0  0  0  3  0  0  0  0  0  0
  -40.3600  -68.1700   52.6630 C   0  0  0  0  0  3  0  0  0  0  0  0
  -40.2020  -68.8560   53.8490 C   0  0  0  0  0  0  0  0  0  0  0  0
  -38.8370  -70.1840   54.0530 Br  0  0  0  0  0  0  0  0  0  0  0  0
  -41.0650  -68.5490   54.8800 C   0  0  0  0  0  3  0  0  0  0  0  0
  -42.0410  -67.5900   54.7120 C   0  0  0  0  0  3  0  0  0  0  0  0
  1 22  1  0  0  0  0
  2  1  1  0  0  0  0
  3  4  1  0  0  0  0
  3  2  2  0  0  0  0
  4  5  2  0  0  0  0
  5  1  1  0  0  0  0
  5  6  1  0  0  0  0
  7  6  2  0  0  0  0
  8  7  1  0  0  0  0
  9  4  1  0  0  0  0
  9  8  1  0  0  0  0
 10  9  2  0  0  0  0
 11  8  1  0  0  0  0
 11 12  1  0  0  0  0
 12 13  2  0  0  0  0
 14 12  1  0  0  0  0
 14 15  1  0  0  0  0
 16 14  1  0  0  0  0
 17 15  1  0  0  0  0
 17 19  1  1  0  0  0
 18 17  1  0  0  0  0
 20 21  1  6  0  0  0
 20 16  1  0  0  0  0
 20 18  1  0  0  0  0
 22 28  1  0  0  0  0
 23 24  1  0  0  0  0
 23 22  2  0  0  0  0
 24 25  2  0  0  0  0
 25 26  1  0  0  0  0
 25 27  1  0  0  0  0
 28 27  2  0  0  0  0
M  END
>  <Pose>
1

>  <Score>
-8.538

$$$$
