/Users/jonathanwahrer/Desktop/Msc/3_Semester/Drug_Design_Praktikum/waehrer_HTS_screening/HTS_experiment/out/docking_results/vina_output/3e7o/0399_docked.pdbqt
 OpenBabel03192215363D

 28 31  0  0  1  0  0  0  0  0999 V2000
  -43.3870  -66.3580   52.9770 N   0  0  0  0  0  0  0  0  0  0  0  0
  -42.5280  -67.1800   53.7590 C   0  0  0  0  0  0  0  0  0  0  0  0
  -42.8770  -67.8240   54.7710 O   0  0  0  0  0  0  0  0  0  0  0  0
  -41.1580  -67.1810   53.2240 C   0  0  2  0  0  3  0  0  0  0  0  0
  -41.1170  -65.8670   52.4530 C   0  0  0  0  0  2  0  0  0  0  0  0
  -42.5390  -65.7080   52.0110 C   0  0  0  0  0  0  0  0  0  0  0  0
  -42.8220  -65.0950   50.9650 O   0  0  0  0  0  0  0  0  0  0  0  0
  -40.8390  -68.2860   52.3480 N   0  0  1  0  0  4  0  0  0  0  0  0
  -40.6710  -67.8710   50.9760 C   0  0  0  0  0  2  0  0  0  0  0  0
  -39.2320  -67.6640   50.5580 C   0  0  0  0  0  2  0  0  0  0  0  0
  -38.3750  -68.6890   51.0980 N   0  0  0  0  0  0  0  0  0  0  0  0
  -39.0780  -69.7990   51.6980 C   0  0  0  0  0  2  0  0  0  0  0  0
  -39.8530  -69.1630   52.8670 C   0  0  0  0  0  2  0  0  0  0  0  0
  -41.7510  -68.8570   52.3260 H   0  0  0  0  0  0  0  0  0  0  0  0
  -36.9780  -68.6300   51.0770 C   0  0  0  0  0  0  0  0  0  0  0  0
  -36.2260  -67.7360   50.3420 C   0  0  0  0  0  3  0  0  0  0  0  0
  -34.8400  -67.7370   50.3380 C   0  0  0  0  0  3  0  0  0  0  0  0
  -34.1530  -68.6560   51.0850 C   0  0  0  0  0  0  0  0  0  0  0  0
  -34.8550  -69.5750   51.8380 C   0  0  0  0  0  3  0  0  0  0  0  0
  -32.7590  -68.7120   51.1250 O   0  0  0  0  0  1  0  0  0  0  0  0
  -36.2380  -69.5530   51.8260 C   0  0  0  0  0  3  0  0  0  0  0  0
  -44.8010  -66.1800   53.0800 C   0  0  0  0  0  0  0  0  0  0  0  0
  -45.6510  -67.2430   53.1870 C   0  0  0  0  0  3  0  0  0  0  0  0
  -47.0350  -67.0640   53.2850 C   0  0  0  0  0  3  0  0  0  0  0  0
  -47.5940  -65.8150   53.2790 C   0  0  0  0  0  0  0  0  0  0  0  0
  -49.4870  -65.5610   53.4150 Br  0  0  0  0  0  0  0  0  0  0  0  0
  -46.7410  -64.7410   53.1730 C   0  0  0  0  0  3  0  0  0  0  0  0
  -45.3550  -64.9320   53.0740 C   0  0  0  0  0  3  0  0  0  0  0  0
  1 22  1  0  0  0  0
  1  2  1  0  0  0  0
  2  3  2  0  0  0  0
  4  5  1  6  0  0  0
  4  2  1  0  0  0  0
  6  5  1  0  0  0  0
  6  1  1  0  0  0  0
  7  6  2  0  0  0  0
  8 14  1  6  0  0  0
  8 13  1  0  0  0  0
  8  4  1  0  0  0  0
  9  8  1  0  0  0  0
 10  9  1  0  0  0  0
 10 11  1  0  0  0  0
 11 12  1  0  0  0  0
 12 13  1  0  0  0  0
 15 11  1  0  0  0  0
 15 21  1  0  0  0  0
 16 15  2  0  0  0  0
 17 16  1  0  0  0  0
 17 18  2  0  0  0  0
 18 20  1  0  0  0  0
 18 19  1  0  0  0  0
 21 19  2  0  0  0  0
 22 23  1  0  0  0  0
 23 24  2  0  0  0  0
 25 24  1  0  0  0  0
 25 26  1  0  0  0  0
 27 25  2  0  0  0  0
 28 22  2  0  0  0  0
 28 27  1  0  0  0  0
M  END
>  <Pose>
1

>  <Score>
-8.619

$$$$
