/Users/jonathanwahrer/Desktop/Msc/3_Semester/Drug_Design_Praktikum/waehrer_HTS_screening/HTS_experiment/out/docking_results/vina_output/3e7o/0400_docked.pdbqt
 OpenBabel03192215373D

 31 34  0  0  1  0  0  0  0  0999 V2000
  -38.5120  -64.8960   47.5330 N   0  0  2  0  0  0  0  0  0  0  0  0
  -38.7090  -66.1860   48.0590 C   0  0  0  0  0  2  0  0  0  0  0  0
  -37.5950  -67.1030   47.5380 C   0  0  0  0  0  2  0  0  0  0  0  0
  -36.2500  -66.7060   48.1050 C   0  0  1  0  0  0  0  0  0  0  0  0
  -36.1340  -65.2350   48.1220 C   0  0  0  0  0  2  0  0  0  0  0  0
  -37.1660  -64.5750   47.2430 C   0  0  0  0  0  2  0  0  0  0  0  0
  -39.3400  -63.8420   47.9600 C   0  0  2  0  0  3  0  0  0  0  0  0
  -39.5720  -63.9490   49.4230 C   0  0  0  0  0  0  0  0  0  0  0  0
  -40.9480  -64.2910   49.6210 N   0  0  0  0  0  0  0  0  0  0  0  0
  -38.6940  -63.7660   50.3010 O   0  0  0  0  0  0  0  0  0  0  0  0
  -41.6240  -63.7930   48.4730 C   0  0  0  0  0  0  0  0  0  0  0  0
  -40.7030  -63.8200   47.3050 C   0  0  0  0  0  2  0  0  0  0  0  0
  -42.8400  -63.3890   48.4680 O   0  0  0  0  0  0  0  0  0  0  0  0
  -41.5050  -64.9840   50.7400 C   0  0  0  0  0  0  0  0  0  0  0  0
  -41.1530  -66.2850   50.9840 C   0  0  0  0  0  3  0  0  0  0  0  0
  -41.6870  -66.9800   52.0760 C   0  0  0  0  0  3  0  0  0  0  0  0
  -42.5800  -66.3920   52.9420 C   0  0  0  0  0  0  0  0  0  0  0  0
  -43.3160  -67.3310   54.4370 Br  0  0  0  0  0  0  0  0  0  0  0  0
  -42.9350  -65.0830   52.6970 C   0  0  0  0  0  3  0  0  0  0  0  0
  -42.3990  -64.4050   51.6140 C   0  0  0  0  0  3  0  0  0  0  0  0
  -36.0700  -67.3710   49.3290 N   0  0  0  0  0  0  0  0  0  0  0  0
  -35.3880  -66.7130   50.3630 C   0  0  0  0  0  2  0  0  0  0  0  0
  -34.2300  -67.6350   50.7870 C   0  0  0  0  0  2  0  0  0  0  0  0
  -34.8830  -68.8680   51.3770 C   0  0  0  0  0  2  0  0  0  0  0  0
  -36.3260  -69.0060   51.0200 C   0  0  0  0  0  2  0  0  0  0  0  0
  -36.6200  -68.6170   49.5640 C   0  0  0  0  0  2  0  0  0  0  0  0
  -35.2330  -67.2480   47.1360 C   0  0  0  0  0  0  0  0  0  0  0  0
  -34.0460  -67.4680   47.5240 O   0  0  0  0  0  0  0  0  0  0  0  0
  -35.5360  -67.5340   45.7840 N   0  0  0  0  0  0  0  0  0  0  0  0
  -35.0550  -67.0210   45.0350 H   0  0  0  0  0  0  0  0  0  0  0  0
  -36.2380  -68.2580   45.5350 H   0  0  0  0  0  0  0  0  0  0  0  0
  1  6  1  1  0  0  0
  1  7  1  0  0  0  0
  1  2  1  0  0  0  0
  3  2  1  0  0  0  0
  3  4  1  0  0  0  0
  4 27  1  6  0  0  0
  4  5  1  0  0  0  0
  4 21  1  0  0  0  0
  6  5  1  0  0  0  0
  7 12  1  6  0  0  0
  7  8  1  0  0  0  0
  8  9  1  0  0  0  0
  8 10  2  0  0  0  0
  9 14  1  0  0  0  0
 11  9  1  0  0  0  0
 12 11  1  0  0  0  0
 13 11  2  0  0  0  0
 14 15  2  0  0  0  0
 14 20  1  0  0  0  0
 15 16  1  0  0  0  0
 16 17  2  0  0  0  0
 17 18  1  0  0  0  0
 19 17  1  0  0  0  0
 20 19  2  0  0  0  0
 21 26  1  0  0  0  0
 21 22  1  0  0  0  0
 22 23  1  0  0  0  0
 23 24  1  0  0  0  0
 25 24  1  0  0  0  0
 26 25  1  0  0  0  0
 27 28  2  0  0  0  0
 29 27  1  0  0  0  0
 30 29  1  0  0  0  0
 31 29  1  0  0  0  0
M  END
>  <Pose>
1

>  <Score>
-7.680

$$$$
