/Users/jonathanwahrer/Desktop/Msc/3_Semester/Drug_Design_Praktikum/waehrer_HTS_screening/HTS_experiment/out/docking_results/vina_output/3e7o/0412_docked.pdbqt
 OpenBabel03192215383D

 34 37  0  0  0  0  0  0  0  0999 V2000
  -37.0190  -64.1530   48.5490 N   0  0  0  0  0  0  0  0  0  0  0  0
  -38.2520  -64.5870   48.8200 C   0  0  0  0  0  0  0  0  0  0  0  0
  -38.5260  -65.7780   49.1900 O   0  0  0  0  0  0  0  0  0  0  0  0
  -39.2200  -63.6230   48.6610 C   0  0  0  0  0  0  0  0  0  0  0  0
  -38.5330  -62.5320   48.2690 C   0  0  0  0  0  0  0  0  0  0  0  0
  -39.4660  -61.5630   48.1050 N   0  0  0  0  0  0  0  0  0  0  0  0
  -40.6670  -62.0370   48.3850 N   0  0  0  0  0  0  0  0  0  0  0  0
  -40.5210  -63.3010   48.7270 N   0  0  0  0  0  0  0  0  0  0  0  0
  -37.1950  -62.8420   48.1970 C   0  0  0  0  0  0  0  0  0  0  0  0
  -36.2380  -62.0990   47.8710 O   0  0  0  0  0  0  0  0  0  0  0  0
  -39.2400  -60.5890   47.7980 H   0  0  0  0  0  0  0  0  0  0  0  0
  -41.5440  -61.4540   48.3220 H   0  0  0  0  0  0  0  0  0  0  0  0
  -41.5950  -64.1730   49.1090 C   0  0  0  0  0  2  0  0  0  0  0  0
  -41.3560  -64.8910   50.3580 C   0  0  0  0  0  0  0  0  0  0  0  0
  -41.0140  -64.3050   51.4260 O   0  0  0  0  0  0  0  0  0  0  0  0
  -41.5110  -66.2950   50.3590 N   0  0  0  0  0  0  0  0  0  0  0  0
  -41.7930  -66.8110   49.4690 H   0  0  0  0  0  0  0  0  0  0  0  0
  -41.2840  -67.0090   51.5630 C   0  0  0  0  0  0  0  0  0  0  0  0
  -42.1470  -66.7540   52.6000 C   0  0  0  0  0  3  0  0  0  0  0  0
  -41.9720  -67.3960   53.8320 C   0  0  0  0  0  0  0  0  0  0  0  0
  -40.9380  -68.2770   54.0010 C   0  0  0  0  0  3  0  0  0  0  0  0
  -40.0530  -68.5460   52.9580 C   0  0  0  0  0  0  0  0  0  0  0  0
  -40.2550  -67.8960   51.7510 C   0  0  0  0  0  3  0  0  0  0  0  0
  -42.8950  -67.0680   54.7960 O   0  0  0  0  0  0  0  0  0  0  0  0
  -43.7370  -65.9750   54.7360 C   0  0  0  0  0  1  0  0  0  0  0  0
  -39.0330  -69.4410   53.2030 O   0  0  0  0  0  0  0  0  0  0  0  0
  -38.9170  -70.3090   54.2870 C   0  0  0  0  0  1  0  0  0  0  0  0
  -35.7690  -64.8460   48.6010 C   0  0  0  0  0  0  0  0  0  0  0  0
  -35.0380  -64.8940   49.7630 C   0  0  0  0  0  3  0  0  0  0  0  0
  -33.8120  -65.5780   49.8070 C   0  0  0  0  0  3  0  0  0  0  0  0
  -33.3160  -66.2140   48.6940 C   0  0  0  0  0  0  0  0  0  0  0  0
  -31.6350  -67.1570   48.7520 Br  0  0  0  0  0  0  0  0  0  0  0  0
  -34.0500  -66.1640   47.5320 C   0  0  0  0  0  3  0  0  0  0  0  0
  -35.2490  -65.4900   47.4990 C   0  0  0  0  0  3  0  0  0  0  0  0
  1 28  1  0  0  0  0
  1  2  1  0  0  0  0
  2  3  2  0  0  0  0
  4  8  1  0  0  0  0
  4  2  1  0  0  0  0
  5  4  2  0  0  0  0
  6  5  1  0  0  0  0
  6  7  1  0  0  0  0
  7  8  1  0  0  0  0
  8 13  1  0  0  0  0
  9  5  1  0  0  0  0
  9  1  1  0  0  0  0
 10  9  2  0  0  0  0
 11  6  1  0  0  0  0
 12  7  1  0  0  0  0
 13 14  1  0  0  0  0
 14 16  1  0  0  0  0
 14 15  2  0  0  0  0
 16 18  1  0  0  0  0
 17 16  1  0  0  0  0
 18 23  2  0  0  0  0
 18 19  1  0  0  0  0
 19 20  2  0  0  0  0
 20 21  1  0  0  0  0
 20 24  1  0  0  0  0
 22 26  1  0  0  0  0
 22 21  2  0  0  0  0
 23 22  1  0  0  0  0
 25 24  1  0  0  0  0
 26 27  1  0  0  0  0
 28 29  1  0  0  0  0
 29 30  2  0  0  0  0
 31 32  1  0  0  0  0
 31 30  1  0  0  0  0
 33 31  2  0  0  0  0
 34 33  1  0  0  0  0
 34 28  2  0  0  0  0
M  END
>  <Pose>
1

>  <Score>
-7.877

$$$$
