/Users/jonathanwahrer/Desktop/Msc/3_Semester/Drug_Design_Praktikum/waehrer_HTS_screening/HTS_experiment/out/docking_results/vina_output/3e7o/0414_docked.pdbqt
 OpenBabel03192215383D

 35 38  0  0  0  0  0  0  0  0999 V2000
  -35.7540  -66.0300   49.3520 N   0  0  0  0  0  0  0  0  0  0  0  0
  -36.6290  -67.0390   49.5930 C   0  0  0  0  0  0  0  0  0  0  0  0
  -37.8170  -67.1220   49.1510 O   0  0  0  0  0  0  0  0  0  0  0  0
  -36.0320  -67.9860   50.4080 C   0  0  0  0  0  0  0  0  0  0  0  0
  -34.8040  -67.5310   50.6440 C   0  0  0  0  0  0  0  0  0  0  0  0
  -34.1960  -68.4420   51.4410 N   0  0  0  0  0  0  0  0  0  0  0  0
  -35.0690  -69.4200   51.6640 N   0  0  0  0  0  0  0  0  0  0  0  0
  -36.2070  -69.1740   51.0460 N   0  0  0  0  0  0  0  0  0  0  0  0
  -34.6200  -66.3290   50.0010 C   0  0  0  0  0  0  0  0  0  0  0  0
  -33.5900  -65.6210   50.0050 O   0  0  0  0  0  0  0  0  0  0  0  0
  -33.2240  -68.3750   51.8040 H   0  0  0  0  0  0  0  0  0  0  0  0
  -34.8740  -70.2550   52.2440 H   0  0  0  0  0  0  0  0  0  0  0  0
  -37.4310  -69.9670   51.0130 C   0  0  0  0  0  2  0  0  0  0  0  0
  -38.4510  -69.3380   51.9300 C   0  0  0  0  0  0  0  0  0  0  0  0
  -38.2860  -69.6660   53.1310 O   0  0  0  0  0  0  0  0  0  0  0  0
  -39.4320  -68.4970   51.4060 N   0  0  0  0  0  0  0  0  0  0  0  0
  -39.3940  -68.3480   50.3480 H   0  0  0  0  0  0  0  0  0  0  0  0
  -40.4580  -67.8290   52.1190 C   0  0  0  0  0  0  0  0  0  0  0  0
  -41.0870  -68.3130   53.2420 C   0  0  0  0  0  3  0  0  0  0  0  0
  -42.0970  -67.5890   53.8910 C   0  0  0  0  0  3  0  0  0  0  0  0
  -42.5040  -66.3590   53.4320 C   0  0  0  0  0  0  0  0  0  0  0  0
  -41.8820  -65.8660   52.3110 C   0  0  0  0  0  3  0  0  0  0  0  0
  -40.8870  -66.5810   51.6720 C   0  0  0  0  0  3  0  0  0  0  0  0
  -43.5590  -65.6420   54.1400 C   0  0  0  0  0  0  0  0  0  0  0  0
  -43.5540  -65.6720   55.3970 O   0  0  0  0  0  0  0  0  0  0  0  0
  -44.5580  -64.9370   53.5300 O   0  0  0  0  0  0  0  0  0  0  0  0
  -45.9180  -65.2610   53.5270 C   0  0  0  0  0  2  0  0  0  0  0  0
  -46.1100  -66.3250   52.4360 C   0  0  0  0  0  1  0  0  0  0  0  0
  -36.0610  -64.8940   48.5460 C   0  0  0  0  0  0  0  0  0  0  0  0
  -36.5600  -63.7470   49.1430 C   0  0  0  0  0  3  0  0  0  0  0  0
  -36.8640  -62.6460   48.4050 C   0  0  0  0  0  3  0  0  0  0  0  0
  -36.6890  -62.6170   47.0380 C   0  0  0  0  0  0  0  0  0  0  0  0
  -37.0990  -61.0990   45.9680 Br  0  0  0  0  0  0  0  0  0  0  0  0
  -36.1920  -63.7630   46.4580 C   0  0  0  0  0  3  0  0  0  0  0  0
  -35.8830  -64.8800   47.1870 C   0  0  0  0  0  3  0  0  0  0  0  0
  1  2  1  0  0  0  0
  1  9  1  0  0  0  0
  2  4  1  0  0  0  0
  3  2  2  0  0  0  0
  4  5  2  0  0  0  0
  4  8  1  0  0  0  0
  5  6  1  0  0  0  0
  6  7  1  0  0  0  0
  6 11  1  0  0  0  0
  7 12  1  0  0  0  0
  8  7  1  0  0  0  0
  9 10  2  0  0  0  0
  9  5  1  0  0  0  0
 13  8  1  0  0  0  0
 13 14  1  0  0  0  0
 14 15  2  0  0  0  0
 16 14  1  0  0  0  0
 16 18  1  0  0  0  0
 17 16  1  0  0  0  0
 18 19  1  0  0  0  0
 19 20  2  0  0  0  0
 21 20  1  0  0  0  0
 21 24  1  0  0  0  0
 22 21  2  0  0  0  0
 23 18  2  0  0  0  0
 23 22  1  0  0  0  0
 24 25  2  0  0  0  0
 26 24  1  0  0  0  0
 27 26  1  0  0  0  0
 28 27  1  0  0  0  0
 29 30  1  0  0  0  0
 29  1  1  0  0  0  0
 31 30  2  0  0  0  0
 32 31  1  0  0  0  0
 33 32  1  0  0  0  0
 34 32  2  0  0  0  0
 34 35  1  0  0  0  0
 35 29  2  0  0  0  0
M  END
>  <Pose>
1

>  <Score>
-8.481

$$$$
