/Users/jonathanwahrer/Desktop/Msc/3_Semester/Drug_Design_Praktikum/waehrer_HTS_screening/HTS_experiment/out/docking_results/vina_output/3e7o/0421_docked.pdbqt
 OpenBabel03192215393D

 28 31  0  0  0  0  0  0  0  0999 V2000
  -46.6830  -66.1220   53.2590 N   0  0  0  0  0  0  0  0  0  0  0  0
  -45.4800  -66.7340   53.3230 C   0  0  0  0  0  0  0  0  0  0  0  0
  -45.2470  -67.9610   53.5680 O   0  0  0  0  0  0  0  0  0  0  0  0
  -44.4570  -65.8350   53.0820 C   0  0  0  0  0  0  0  0  0  0  0  0
  -45.0660  -64.6660   52.8700 C   0  0  0  0  0  0  0  0  0  0  0  0
  -44.0670  -63.7830   52.6330 N   0  0  0  0  0  0  0  0  0  0  0  0
  -42.9120  -64.4240   52.7060 N   0  0  0  0  0  0  0  0  0  0  0  0
  -43.1230  -65.7000   52.9840 N   0  0  0  0  0  0  0  0  0  0  0  0
  -46.4310  -64.8320   52.9770 C   0  0  0  0  0  0  0  0  0  0  0  0
  -47.3310  -63.9660   52.8420 O   0  0  0  0  0  0  0  0  0  0  0  0
  -44.2140  -62.7600   52.4270 H   0  0  0  0  0  0  0  0  0  0  0  0
  -41.9480  -64.0230   52.5720 H   0  0  0  0  0  0  0  0  0  0  0  0
  -42.1290  -66.7190   53.1440 C   0  0  0  0  0  0  0  0  0  0  0  0
  -41.2930  -67.0690   52.1040 C   0  0  0  0  0  3  0  0  0  0  0  0
  -40.3190  -68.0520   52.2290 C   0  0  0  0  0  3  0  0  0  0  0  0
  -40.1620  -68.7180   53.4260 C   0  0  0  0  0  0  0  0  0  0  0  0
  -40.9950  -68.3710   54.4670 C   0  0  0  0  0  3  0  0  0  0  0  0
  -41.9650  -67.3890   54.3390 C   0  0  0  0  0  3  0  0  0  0  0  0
  -39.1720  -69.7310   53.5850 N   0  0  0  0  0  0  0  0  0  0  0  0
  -39.2060  -70.5490   54.5230 O   0  0  0  0  0  0  0  0  0  0  0  0
  -38.1550  -69.8130   52.6880 O   0  0  0  0  0  0  0  0  0  0  0  0
  -47.9580  -66.7460   53.4560 C   0  0  0  0  0  0  0  0  0  0  0  0
  -48.8230  -67.0100   52.4150 C   0  0  0  0  0  3  0  0  0  0  0  0
  -50.0550  -67.6180   52.6390 C   0  0  0  0  0  3  0  0  0  0  0  0
  -50.4510  -67.9750   53.9120 C   0  0  0  0  0  0  0  0  0  0  0  0
  -52.1410  -68.8120   54.2410 Br  0  0  0  0  0  0  0  0  0  0  0  0
  -49.5880  -67.7130   54.9560 C   0  0  0  0  0  3  0  0  0  0  0  0
  -48.3670  -67.1090   54.7230 C   0  0  0  0  0  3  0  0  0  0  0  0
  1  2  1  0  0  0  0
  1 22  1  0  0  0  0
  2  3  2  0  0  0  0
  4  2  1  0  0  0  0
  5  9  1  0  0  0  0
  5  4  2  0  0  0  0
  6  7  1  0  0  0  0
  6  5  1  0  0  0  0
  7  8  1  0  0  0  0
  8  4  1  0  0  0  0
  8 13  1  0  0  0  0
  9  1  1  0  0  0  0
 10  9  2  0  0  0  0
 11  6  1  0  0  0  0
 12  7  1  0  0  0  0
 13 18  1  0  0  0  0
 14 15  1  0  0  0  0
 14 13  2  0  0  0  0
 15 16  2  0  0  0  0
 16 19  1  0  0  0  0
 16 17  1  0  0  0  0
 18 17  2  0  0  0  0
 19 20  2  0  0  0  0
 21 19  2  0  0  0  0
 22 28  1  0  0  0  0
 23 24  1  0  0  0  0
 23 22  2  0  0  0  0
 24 25  2  0  0  0  0
 25 26  1  0  0  0  0
 25 27  1  0  0  0  0
 28 27  2  0  0  0  0
M  END
>  <Pose>
1

>  <Score>
-7.762

$$$$
