/Users/jonathanwahrer/Desktop/Msc/3_Semester/Drug_Design_Praktikum/waehrer_HTS_screening/HTS_experiment/out/docking_results/vina_output/3e7o/0425_docked.pdbqt
 OpenBabel03192215393D

 24 28  0  0  1  0  0  0  0  0999 V2000
  -36.8970  -67.2650   49.0840 N   0  0  0  0  0  0  0  0  0  0  0  0
  -35.4840  -67.2440   49.2170 C   0  0  0  0  0  0  0  0  0  0  0  0
  -34.8430  -67.9430   50.0380 O   0  0  0  0  0  0  0  0  0  0  0  0
  -34.9180  -66.2760   48.2390 C   0  0  2  0  0  3  0  0  0  0  0  0
  -34.7060  -64.9220   48.8410 C   0  0  1  0  0  0  0  0  0  0  0  0
  -34.9220  -64.1030   47.7100 O   0  0  0  0  0  0  0  0  0  0  0  0
  -36.2530  -64.5160   47.4530 C   0  0  1  0  0  3  0  0  0  0  0  0
  -36.0690  -65.9830   47.2750 C   0  0  2  0  0  3  0  0  0  0  0  0
  -37.2440  -66.7210   47.8110 C   0  0  0  0  0  0  0  0  0  0  0  0
  -38.3290  -66.8310   47.2340 O   0  0  0  0  0  0  0  0  0  0  0  0
  -36.8440  -64.2740   48.7950 C   0  0  0  0  0  2  0  0  0  0  0  0
  -35.8850  -64.5940   49.6580 C   0  0  0  0  0  2  0  0  0  0  0  0
  -37.7660  -67.7660   50.1080 C   0  0  0  0  0  0  0  0  0  0  0  0
  -37.4860  -68.9320   50.7860 C   0  0  0  0  0  3  0  0  0  0  0  0
  -38.3140  -69.4250   51.7700 C   0  0  0  0  0  3  0  0  0  0  0  0
  -39.4550  -68.7230   52.0740 C   0  0  0  0  0  0  0  0  0  0  0  0
  -40.6210  -69.3710   53.4220 Br  0  0  0  0  0  0  0  0  0  0  0  0
  -39.7560  -67.5600   51.4100 C   0  0  0  0  0  3  0  0  0  0  0  0
  -38.9190  -67.0560   50.4130 C   0  0  0  0  0  3  0  0  0  0  0  0
  -33.3950  -64.7020   49.4650 C   0  0  0  0  0  3  0  0  0  0  0  0
  -32.9230  -63.4250   49.3350 O   0  0  0  0  0  0  0  0  0  0  0  0
  -31.8470  -63.4350   48.4830 C   0  0  0  0  0  2  0  0  0  0  0  0
  -31.6510  -64.8570   48.0690 C   0  0  0  0  0  2  0  0  0  0  0  0
  -32.4370  -65.5670   48.9690 O   0  0  0  0  0  0  0  0  0  0  0  0
  1  2  1  0  0  0  0
  1 13  1  0  0  0  0
  2  3  2  0  0  0  0
  4  5  1  0  0  0  0
  4  2  1  1  0  0  0
  5 20  1  1  0  0  0
  5 12  1  0  0  0  0
  6  5  1  0  0  0  0
  7  6  1  0  0  0  0
  7 11  1  1  0  0  0
  8  7  1  0  0  0  0
  8  9  1  1  0  0  0
  8  4  1  0  0  0  0
  9  1  1  0  0  0  0
 10  9  2  0  0  0  0
 11 12  1  0  0  0  0
 13 19  2  0  0  0  0
 13 14  1  0  0  0  0
 14 15  2  0  0  0  0
 15 16  1  0  0  0  0
 16 17  1  0  0  0  0
 18 16  2  0  0  0  0
 19 18  1  0  0  0  0
 21 20  1  0  0  0  0
 22 21  1  0  0  0  0
 23 22  1  0  0  0  0
 23 24  1  0  0  0  0
 24 20  1  0  0  0  0
M  END
>  <Pose>
1

>  <Score>
-7.927

$$$$
