/Users/jonathanwahrer/Desktop/Msc/3_Semester/Drug_Design_Praktikum/waehrer_HTS_screening/HTS_experiment/out/docking_results/vina_output/3e7o/0426_docked.pdbqt
 OpenBabel03192215393D

 29 32  0  0  1  0  0  0  0  0999 V2000
  -42.7300  -66.8070   53.0610 N   0  0  0  0  0  0  0  0  0  0  0  0
  -42.9010  -67.5610   54.2760 C   0  0  0  0  0  0  0  0  0  0  0  0
  -44.0020  -67.9070   54.7910 O   0  0  0  0  0  0  0  0  0  0  0  0
  -41.5450  -67.8480   54.7980 C   0  0  1  0  0  3  0  0  0  0  0  0
  -41.4200  -69.1260   55.4710 N   0  0  0  0  0  0  0  0  0  0  0  0
  -40.0970  -69.4640   55.0470 N   0  0  0  0  0  0  0  0  0  0  0  0
  -39.9540  -69.1020   53.6740 C   0  0  0  0  0  0  0  0  0  0  0  0
  -40.8280  -68.1180   53.4940 C   0  0  0  0  0  0  0  0  0  0  0  0
  -41.4290  -67.1590   52.5750 C   0  0  0  0  0  0  0  0  0  0  0  0
  -40.8210  -66.7640   51.5420 O   0  0  0  0  0  0  0  0  0  0  0  0
  -42.0480  -69.7840   54.9290 H   0  0  0  0  0  0  0  0  0  0  0  0
  -39.3580  -69.9000   55.6310 H   0  0  0  0  0  0  0  0  0  0  0  0
  -39.0520  -69.6700   52.6780 C   0  0  0  0  0  0  0  0  0  0  0  0
  -38.9590  -70.9070   52.5010 O   0  0  0  0  0  0  0  0  0  0  0  0
  -38.2470  -68.8770   51.8740 O   0  0  0  0  0  0  0  0  0  0  0  0
  -37.3670  -69.4410   50.9100 C   0  0  0  0  0  2  0  0  0  0  0  0
  -36.2030  -68.5170   50.7020 C   0  0  0  0  0  0  0  0  0  0  0  0
  -36.3160  -67.4230   49.8460 C   0  0  0  0  0  3  0  0  0  0  0  0
  -35.2810  -66.5530   49.6320 C   0  0  0  0  0  3  0  0  0  0  0  0
  -34.0730  -66.7690   50.2900 C   0  0  0  0  0  3  0  0  0  0  0  0
  -33.9650  -67.8510   51.1350 C   0  0  0  0  0  3  0  0  0  0  0  0
  -35.0290  -68.7310   51.3470 C   0  0  0  0  0  3  0  0  0  0  0  0
  -43.6320  -65.9080   52.4490 C   0  0  0  0  0  0  0  0  0  0  0  0
  -44.9690  -66.2730   52.2560 C   0  0  0  0  0  3  0  0  0  0  0  0
  -45.8990  -65.4710   51.6770 C   0  0  0  0  0  3  0  0  0  0  0  0
  -45.5210  -64.2240   51.2490 C   0  0  0  0  0  0  0  0  0  0  0  0
  -46.8230  -63.0660   50.4250 Br  0  0  0  0  0  0  0  0  0  0  0  0
  -44.2100  -63.8260   51.4220 C   0  0  0  0  0  3  0  0  0  0  0  0
  -43.2790  -64.6590   52.0140 C   0  0  0  0  0  3  0  0  0  0  0  0
  1  2  1  0  0  0  0
  2  3  2  0  0  0  0
  2  4  1  0  0  0  0
  4  8  1  6  0  0  0
  4  5  1  0  0  0  0
  6  5  1  0  0  0  0
  6 12  1  0  0  0  0
  7  6  1  0  0  0  0
  8  7  2  0  0  0  0
  9  1  1  0  0  0  0
  9  8  1  0  0  0  0
 10  9  2  0  0  0  0
 11  5  1  0  0  0  0
 13  7  1  0  0  0  0
 14 13  2  0  0  0  0
 15 13  1  0  0  0  0
 16 15  1  0  0  0  0
 17 16  1  0  0  0  0
 17 22  1  0  0  0  0
 18 17  2  0  0  0  0
 19 18  1  0  0  0  0
 19 20  2  0  0  0  0
 20 21  1  0  0  0  0
 21 22  2  0  0  0  0
 23  1  1  0  0  0  0
 24 23  1  0  0  0  0
 25 24  2  0  0  0  0
 26 28  2  0  0  0  0
 26 25  1  0  0  0  0
 27 26  1  0  0  0  0
 28 29  1  0  0  0  0
 29 23  2  0  0  0  0
M  END
>  <Pose>
1

>  <Score>
-8.933

$$$$
