/Users/jonathanwahrer/Desktop/Msc/3_Semester/Drug_Design_Praktikum/waehrer_HTS_screening/HTS_experiment/out/docking_results/vina_output/3e7o/0429_docked.pdbqt
 OpenBabel03192215393D

 36 39  0  0  0  0  0  0  0  0999 V2000
  -35.3400  -65.8250   49.2530 N   0  0  0  0  0  0  0  0  0  0  0  0
  -33.9300  -65.7180   49.4630 C   0  0  0  0  0  0  0  0  0  0  0  0
  -33.3440  -64.6910   48.9920 O   0  0  0  0  0  0  0  0  0  0  0  0
  -33.2450  -66.7360   50.1700 N   0  0  0  0  0  0  0  0  0  0  0  0
  -33.8800  -67.8930   50.7040 C   0  0  0  0  0  0  0  0  0  0  0  0
  -33.2430  -68.7850   51.3320 O   0  0  0  0  0  0  0  0  0  0  0  0
  -35.3340  -68.0360   50.5080 C   0  0  0  0  0  0  0  0  0  0  0  0
  -35.9820  -69.0900   50.9790 C   0  0  0  0  0  3  0  0  0  0  0  0
  -36.0100  -66.9710   49.7760 C   0  0  0  0  0  0  0  0  0  0  0  0
  -37.2500  -67.0490   49.5830 O   0  0  0  0  0  0  0  0  0  0  0  0
  -32.2140  -66.6190   50.3020 H   0  0  0  0  0  0  0  0  0  0  0  0
  -37.3830  -69.2000   50.7730 N   0  0  0  0  0  0  0  0  0  0  0  0
  -37.7080  -69.0370   49.7820 H   0  0  0  0  0  0  0  0  0  0  0  0
  -38.3160  -69.4940   51.7540 N   0  0  0  0  0  0  0  0  0  0  0  0
  -38.1750  -70.4280   52.2380 H   0  0  0  0  0  0  0  0  0  0  0  0
  -39.3990  -68.6470   52.1190 C   0  0  0  0  0  0  0  0  0  0  0  0
  -40.1310  -68.7680   53.2310 N   0  0  0  0  0  0  0  0  0  0  0  0
  -41.0650  -67.8040   53.2610 C   0  0  0  0  0  0  0  0  0  0  0  0
  -40.0170  -69.7550   54.3110 C   0  0  0  0  0  1  0  0  0  0  0  0
  -40.9090  -67.0440   52.1100 C   0  0  0  0  0  0  0  0  0  0  0  0
  -42.0680  -67.4350   54.1170 C   0  0  0  0  0  0  0  0  0  0  0  0
  -39.8890  -67.5980   51.4570 N   0  0  0  0  0  0  0  0  0  0  0  0
  -41.7050  -65.9920   51.8450 N   0  0  0  0  0  0  0  0  0  0  0  0
  -42.6650  -65.6760   52.7140 C   0  0  0  0  0  0  0  0  0  0  0  0
  -41.4840  -65.2560   50.6360 C   0  0  0  0  0  1  0  0  0  0  0  0
  -43.4370  -64.6910   52.5020 O   0  0  0  0  0  0  0  0  0  0  0  0
  -42.8730  -66.3770   53.8600 N   0  0  0  0  0  0  0  0  0  0  0  0
  -43.9240  -65.9940   54.7680 C   0  0  0  0  0  1  0  0  0  0  0  0
  -42.2560  -68.0810   55.1680 O   0  0  0  0  0  0  0  0  0  0  0  0
  -36.0140  -64.8190   48.5520 C   0  0  0  0  0  0  0  0  0  0  0  0
  -36.5110  -63.7220   49.2280 C   0  0  0  0  0  3  0  0  0  0  0  0
  -37.1820  -62.7040   48.5780 C   0  0  0  0  0  3  0  0  0  0  0  0
  -37.3790  -62.7580   47.2090 C   0  0  0  0  0  0  0  0  0  0  0  0
  -38.3080  -61.3550   46.2970 Br  0  0  0  0  0  0  0  0  0  0  0  0
  -36.8760  -63.8620   46.5550 C   0  0  0  0  0  3  0  0  0  0  0  0
  -36.2030  -64.8880   47.1880 C   0  0  0  0  0  3  0  0  0  0  0  0
  1  2  1  0  0  0  0
  1  9  1  0  0  0  0
  2  4  1  0  0  0  0
  3  2  2  0  0  0  0
  4 11  1  0  0  0  0
  4  5  1  0  0  0  0
  5  6  2  0  0  0  0
  7  5  1  0  0  0  0
  7  8  2  0  0  0  0
  9  7  1  0  0  0  0
 10  9  2  0  0  0  0
 12  8  1  0  0  0  0
 12 14  1  0  0  0  0
 13 12  1  0  0  0  0
 14 16  1  0  0  0  0
 14 15  1  0  0  0  0
 16 17  1  0  0  0  0
 17 18  1  0  0  0  0
 17 19  1  0  0  0  0
 18 21  1  0  0  0  0
 20 18  2  0  0  0  0
 21 29  2  0  0  0  0
 22 20  1  0  0  0  0
 22 16  2  0  0  0  0
 23 20  1  0  0  0  0
 23 24  1  0  0  0  0
 24 27  1  0  0  0  0
 25 23  1  0  0  0  0
 26 24  2  0  0  0  0
 27 21  1  0  0  0  0
 27 28  1  0  0  0  0
 30 31  1  0  0  0  0
 30  1  1  0  0  0  0
 32 31  2  0  0  0  0
 33 32  1  0  0  0  0
 34 33  1  0  0  0  0
 35 36  1  0  0  0  0
 35 33  2  0  0  0  0
 36 30  2  0  0  0  0
M  END
>  <Pose>
1

>  <Score>
-8.961

$$$$
