/Users/jonathanwahrer/Desktop/Msc/3_Semester/Drug_Design_Praktikum/waehrer_HTS_screening/HTS_experiment/out/docking_results/vina_output/3e7o/0439_docked.pdbqt
 OpenBabel03192215403D

 28 32  0  0  1  0  0  0  0  0999 V2000
  -43.5670  -66.9350   53.6040 N   0  0  0  0  0  0  0  0  0  0  0  0
  -42.9910  -67.5510   54.6300 N   0  0  0  0  0  0  0  0  0  0  0  0
  -41.6830  -67.7540   54.3840 C   0  0  0  0  0  0  0  0  0  0  0  0
  -40.8120  -68.3400   55.1960 C   0  0  0  0  0  1  0  0  0  0  0  0
  -41.3880  -67.2450   53.1360 C   0  0  0  0  0  0  0  0  0  0  0  0
  -42.5990  -66.7420   52.6840 C   0  0  0  0  0  0  0  0  0  0  0  0
  -42.7530  -66.1890   51.5700 O   0  0  0  0  0  0  0  0  0  0  0  0
  -43.4810  -67.8370   55.5010 H   0  0  0  0  0  0  0  0  0  0  0  0
  -40.2150  -67.2320   52.4960 C   0  0  0  0  0  2  0  0  0  0  0  0
  -40.2080  -67.5680   51.1140 N   0  0  0  0  0  0  0  0  0  0  0  0
  -40.6450  -68.4570   50.8310 H   0  0  0  0  0  0  0  0  0  0  0  0
  -39.6170  -66.7150   50.1230 C   0  0  1  0  0  0  0  0  0  0  0  0
  -39.5530  -65.3020   50.6070 C   0  0  0  0  0  2  0  0  0  0  0  0
  -38.8610  -64.4900   49.6160 N   0  0  1  0  0  0  0  0  0  0  0  0
  -37.5180  -65.0340   49.4580 C   0  0  0  0  0  2  0  0  0  0  0  0
  -39.5880  -64.5400   48.3730 C   0  0  0  0  0  2  0  0  0  0  0  0
  -37.5440  -66.3750   48.9260 N   0  0  2  0  0  0  0  0  0  0  0  0
  -38.3110  -66.3920   47.6840 C   0  0  0  0  0  2  0  0  0  0  0  0
  -38.2050  -67.2480   49.8600 C   0  0  0  0  0  2  0  0  0  0  0  0
  -39.6540  -65.8950   47.8770 N   0  0  1  0  0  0  0  0  0  0  0  0
  -40.3690  -66.7310   48.8130 C   0  0  0  0  0  2  0  0  0  0  0  0
  -44.9290  -66.5460   53.4730 C   0  0  0  0  0  0  0  0  0  0  0  0
  -45.9240  -67.5010   53.4570 C   0  0  0  0  0  3  0  0  0  0  0  0
  -47.2670  -67.1560   53.3300 C   0  0  0  0  0  3  0  0  0  0  0  0
  -47.6280  -65.8460   53.2180 C   0  0  0  0  0  0  0  0  0  0  0  0
  -49.4680  -65.3140   53.0400 Br  0  0  0  0  0  0  0  0  0  0  0  0
  -46.6520  -64.8640   53.2310 C   0  0  0  0  0  3  0  0  0  0  0  0
  -45.3320  -65.2330   53.3570 C   0  0  0  0  0  3  0  0  0  0  0  0
  1  2  1  0  0  0  0
  2  8  1  0  0  0  0
  3  2  1  0  0  0  0
  3  4  1  0  0  0  0
  5  3  2  0  0  0  0
  6  5  1  0  0  0  0
  6  1  1  0  0  0  0
  7  6  2  0  0  0  0
  9  5  1  0  0  0  0
 10  9  1  0  0  0  0
 11 10  1  0  0  0  0
 12 13  1  0  0  0  0
 12 10  1  1  0  0  0
 14 16  1  6  0  0  0
 14 13  1  0  0  0  0
 15 14  1  0  0  0  0
 17 18  1  6  0  0  0
 17 15  1  0  0  0  0
 17 19  1  0  0  0  0
 19 12  1  0  0  0  0
 20 18  1  1  0  0  0
 20 16  1  0  0  0  0
 20 21  1  0  0  0  0
 21 12  1  0  0  0  0
 22  1  1  0  0  0  0
 23 22  1  0  0  0  0
 24 23  2  0  0  0  0
 25 27  2  0  0  0  0
 25 24  1  0  0  0  0
 26 25  1  0  0  0  0
 27 28  1  0  0  0  0
 28 22  2  0  0  0  0
M  END
>  <Pose>
1

>  <Score>
-7.362

$$$$
