/Users/jonathanwahrer/Desktop/Msc/3_Semester/Drug_Design_Praktikum/waehrer_HTS_screening/HTS_experiment/out/docking_results/vina_output/3e7o/0441_docked.pdbqt
 OpenBabel03192215403D

 36 39  0  0  1  0  0  0  0  0999 V2000
  -39.3240  -68.8160   51.6600 C   0  0  0  0  0  0  0  0  0  0  0  0
  -39.3890  -67.8590   50.7160 N   0  0  0  0  0  0  0  0  0  0  0  0
  -38.3050  -67.5470   50.0250 C   0  0  0  0  0  0  0  0  0  0  0  0
  -38.1200  -66.6450   49.0520 N   0  0  0  0  0  0  0  0  0  0  0  0
  -36.8180  -66.7460   48.7030 C   0  0  0  0  0  3  0  0  0  0  0  0
  -36.2140  -67.6830   49.4400 N   0  0  0  0  0  0  0  0  0  0  0  0
  -37.1020  -68.2160   50.2820 C   0  0  0  0  0  0  0  0  0  0  0  0
  -37.0280  -69.1990   51.2510 C   0  0  0  0  0  0  0  0  0  0  0  0
  -38.1540  -69.4720   51.9150 N   0  0  0  0  0  0  0  0  0  0  0  0
  -40.4700  -69.1770   52.4280 N   0  0  0  0  0  0  0  0  0  0  0  0
  -40.8480  -68.4920   53.6000 C   0  0  0  0  0  0  0  0  0  0  0  0
  -40.1740  -67.5300   54.0100 O   0  0  0  0  0  0  0  0  0  0  0  0
  -41.0440  -69.9970   52.0780 H   0  0  0  0  0  0  0  0  0  0  0  0
  -42.0470  -68.9210   54.3430 C   0  0  0  0  0  2  0  0  0  0  0  0
  -42.6880  -67.8730   55.0100 O   0  0  0  0  0  0  0  0  0  0  0  0
  -43.5940  -67.0860   54.3330 C   0  0  0  0  0  0  0  0  0  0  0  0
  -44.7440  -67.6330   53.8160 C   0  0  0  0  0  3  0  0  0  0  0  0
  -45.6690  -66.8440   53.1260 C   0  0  0  0  0  3  0  0  0  0  0  0
  -45.4280  -65.4980   52.9610 C   0  0  0  0  0  0  0  0  0  0  0  0
  -46.6980  -64.4130   52.0140 Br  0  0  0  0  0  0  0  0  0  0  0  0
  -44.2720  -64.9530   53.4810 C   0  0  0  0  0  3  0  0  0  0  0  0
  -43.3710  -65.7430   54.1570 C   0  0  0  0  0  3  0  0  0  0  0  0
  -35.8100  -69.8290   51.4640 O   0  0  0  0  0  0  0  0  0  0  0  0
  -35.1070  -69.2760   51.9690 H   0  0  0  0  0  0  0  0  0  0  0  0
  -39.0130  -65.7360   48.4420 C   0  0  2  0  0  3  0  0  0  0  0  0
  -38.3450  -64.8180   47.6210 O   0  0  0  0  0  0  0  0  0  0  0  0
  -38.2370  -63.6980   48.4410 C   0  0  2  0  0  3  0  0  0  0  0  0
  -39.6820  -63.5550   48.8950 C   0  0  1  0  0  3  0  0  0  0  0  0
  -39.9430  -65.0000   49.3110 C   0  0  1  0  0  3  0  0  0  0  0  0
  -37.7530  -62.4860   47.6990 C   0  0  0  0  0  2  0  0  0  0  0  0
  -36.6030  -61.9460   48.2080 O   0  0  0  0  0  0  0  0  0  0  0  0
  -36.8350  -61.4130   49.0120 H   0  0  0  0  0  0  0  0  0  0  0  0
  -39.8510  -62.6570   49.9120 O   0  0  0  0  0  0  0  0  0  0  0  0
  -40.3500  -63.0390   50.7020 H   0  0  0  0  0  0  0  0  0  0  0  0
  -41.2910  -65.3380   49.0560 O   0  0  0  0  0  0  0  0  0  0  0  0
  -41.6480  -64.5950   48.5080 H   0  0  0  0  0  0  0  0  0  0  0  0
  1  9  1  0  0  0  0
  1 10  1  0  0  0  0
  2  1  2  0  0  0  0
  3  7  2  0  0  0  0
  3  2  1  0  0  0  0
  4  3  1  0  0  0  0
  5  4  1  0  0  0  0
  5  6  2  0  0  0  0
  6  7  1  0  0  0  0
  7  8  1  0  0  0  0
  8 23  1  0  0  0  0
  8  9  2  0  0  0  0
 10 11  1  0  0  0  0
 11 12  2  0  0  0  0
 11 14  1  0  0  0  0
 13 10  1  0  0  0  0
 14 15  1  0  0  0  0
 16 15  1  0  0  0  0
 17 16  2  0  0  0  0
 18 17  1  0  0  0  0
 19 18  2  0  0  0  0
 19 21  1  0  0  0  0
 20 19  1  0  0  0  0
 21 22  2  0  0  0  0
 22 16  1  0  0  0  0
 23 24  1  0  0  0  0
 25  4  1  1  0  0  0
 25 29  1  0  0  0  0
 26 27  1  0  0  0  0
 26 25  1  0  0  0  0
 27 30  1  6  0  0  0
 27 28  1  0  0  0  0
 28 29  1  0  0  0  0
 28 33  1  1  0  0  0
 29 35  1  6  0  0  0
 30 31  1  0  0  0  0
 31 32  1  0  0  0  0
 33 34  1  0  0  0  0
 36 35  1  0  0  0  0
M  END
>  <Pose>
1

>  <Score>
-7.974

$$$$
