/Users/jonathanwahrer/Desktop/Msc/3_Semester/Drug_Design_Praktikum/waehrer_HTS_screening/HTS_experiment/out/docking_results/vina_output/3e7o/0454_docked.pdbqt
 OpenBabel03192215413D

 21 25  0  0  1  0  0  0  0  0999 V2000
  -40.3810  -67.5010   50.3100 C   0  0  0  0  0  2  0  0  0  0  0  0
  -41.0710  -67.2050   51.5660 C   0  0  0  0  0  0  0  0  0  0  0  0
  -40.7750  -68.0120   52.6770 C   0  0  0  0  0  0  0  0  0  0  0  0
  -39.4080  -69.3510   52.6660 Br  0  0  0  0  0  0  0  0  0  0  0  0
  -41.5410  -67.8070   53.8090 C   0  0  0  0  0  3  0  0  0  0  0  0
  -42.5350  -66.8490   53.8300 C   0  0  0  0  0  0  0  0  0  0  0  0
  -42.8520  -66.0440   52.7620 C   0  0  0  0  0  0  0  0  0  0  0  0
  -43.4160  -66.5070   54.9010 O   0  0  0  0  0  0  0  0  0  0  0  0
  -42.0910  -66.2530   51.6450 C   0  0  0  0  0  3  0  0  0  0  0  0
  -43.8980  -65.2510   53.2050 O   0  0  0  0  0  0  0  0  0  0  0  0
  -44.6090  -65.9940   54.2350 C   0  0  0  0  0  2  0  0  0  0  0  0
  -39.3990  -66.6280   49.8170 N   0  0  2  0  0  4  0  0  0  0  0  0
  -39.8580  -66.4660   48.3910 C   0  0  0  0  0  2  0  0  0  0  0  0
  -38.9170  -65.8790   47.5350 N   0  0  2  0  0  0  0  0  0  0  0  0
  -37.7110  -66.6870   47.5980 C   0  0  0  0  0  2  0  0  0  0  0  0
  -38.7170  -64.5110   48.0270 C   0  0  0  0  0  2  0  0  0  0  0  0
  -37.1980  -66.5840   48.9410 N   0  0  2  0  0  0  0  0  0  0  0  0
  -38.0640  -67.2210   49.8790 C   0  0  0  0  0  2  0  0  0  0  0  0
  -36.9780  -65.2020   49.3830 C   0  0  0  0  0  2  0  0  0  0  0  0
  -38.2770  -64.5500   49.4010 N   0  0  2  0  0  0  0  0  0  0  0  0
  -39.2350  -65.2790   50.2610 C   0  0  0  0  0  2  0  0  0  0  0  0
  1  2  1  0  0  0  0
  2  9  2  0  0  0  0
  2  3  1  0  0  0  0
  3  5  2  0  0  0  0
  4  3  1  0  0  0  0
  5  6  1  0  0  0  0
  6  8  1  0  0  0  0
  7 10  1  0  0  0  0
  7  6  2  0  0  0  0
  9  7  1  0  0  0  0
 10 11  1  0  0  0  0
 11  8  1  0  0  0  0
 12 18  1  0  0  0  0
 12 21  1  0  0  0  0
 12  1  1  1  0  0  0
 13 12  1  0  0  0  0
 14 15  1  1  0  0  0
 14 16  1  0  0  0  0
 14 13  1  0  0  0  0
 17 15  1  6  0  0  0
 17 19  1  0  0  0  0
 17 18  1  0  0  0  0
 19 20  1  0  0  0  0
 20 16  1  6  0  0  0
 20 21  1  0  0  0  0
M  END
>  <Pose>
1

>  <Score>
-6.870

$$$$
