/Users/jonathanwahrer/Desktop/Msc/3_Semester/Drug_Design_Praktikum/waehrer_HTS_screening/HTS_experiment/out/docking_results/vina_output/3e7o/0455_docked.pdbqt
 OpenBabel03192215413D

 26 29  0  0  0  0  0  0  0  0999 V2000
  -41.3630  -65.0560   50.4940 N   0  0  0  0  0  0  0  0  0  0  0  0
  -42.0810  -64.1540   49.5560 C   0  0  0  0  0  2  0  0  0  0  0  0
  -41.1660  -64.1240   48.3360 C   0  0  0  0  0  2  0  0  0  0  0  0
  -39.8870  -64.6900   48.5620 N   0  0  0  0  0  0  0  0  0  0  0  0
  -39.2580  -64.2000   49.7610 C   0  0  0  0  0  2  0  0  0  0  0  0
  -40.2260  -64.2300   50.9070 C   0  0  0  0  0  2  0  0  0  0  0  0
  -42.2190  -65.3490   51.6270 C   0  0  0  0  0  2  0  0  0  0  0  0
  -41.6440  -66.4500   52.4400 C   0  0  0  0  0  0  0  0  0  0  0  0
  -42.1980  -66.8040   53.6690 C   0  0  0  0  0  0  0  0  0  0  0  0
  -43.7020  -65.7920   54.2700 Br  0  0  0  0  0  0  0  0  0  0  0  0
  -41.7000  -67.8340   54.4330 C   0  0  0  0  0  3  0  0  0  0  0  0
  -40.6200  -68.5700   54.0130 C   0  0  0  0  0  0  0  0  0  0  0  0
  -40.0540  -68.2500   52.8120 C   0  0  0  0  0  0  0  0  0  0  0  0
  -40.0890  -69.6180   54.7540 O   0  0  0  0  0  0  0  0  0  0  0  0
  -40.5610  -67.2050   52.0410 C   0  0  0  0  0  3  0  0  0  0  0  0
  -38.9630  -68.9810   52.3710 O   0  0  0  0  0  0  0  0  0  0  0  0
  -38.2340  -69.8600   53.1890 C   0  0  0  0  0  2  0  0  0  0  0  0
  -39.1000  -70.4740   54.2410 C   0  0  0  0  0  2  0  0  0  0  0  0
  -39.7080  -66.0650   48.2870 C   0  0  0  0  0  2  0  0  0  0  0  0
  -38.3400  -66.5480   48.2710 C   0  0  0  0  0  0  0  0  0  0  0  0
  -37.5670  -66.2670   47.3310 O   0  0  0  0  0  0  0  0  0  0  0  0
  -37.8400  -67.3510   49.3220 N   0  0  0  0  0  0  0  0  0  0  0  0
  -38.4320  -67.6310   50.1560 H   0  0  0  0  0  0  0  0  0  0  0  0
  -36.4720  -67.8550   49.3400 C   0  0  0  0  0  3  0  0  0  0  0  0
  -35.9070  -68.4450   50.5640 C   0  0  0  0  0  2  0  0  0  0  0  0
  -35.5060  -67.0470   50.2020 C   0  0  0  0  0  2  0  0  0  0  0  0
  1  6  1  0  0  0  0
  1  7  1  0  0  0  0
  2  1  1  0  0  0  0
  3  4  1  0  0  0  0
  3  2  1  0  0  0  0
  4  5  1  0  0  0  0
  5  6  1  0  0  0  0
  7  8  1  0  0  0  0
  8  9  1  0  0  0  0
  9 10  1  0  0  0  0
  9 11  2  0  0  0  0
 12 11  1  0  0  0  0
 12 14  1  0  0  0  0
 13 12  2  0  0  0  0
 15  8  2  0  0  0  0
 15 13  1  0  0  0  0
 16 13  1  0  0  0  0
 16 17  1  0  0  0  0
 17 18  1  0  0  0  0
 18 14  1  0  0  0  0
 19  4  1  0  0  0  0
 20 19  1  0  0  0  0
 20 22  1  0  0  0  0
 21 20  2  0  0  0  0
 22 24  1  0  0  0  0
 22 23  1  0  0  0  0
 24 26  1  0  0  0  0
 24 25  1  0  0  0  0
 26 25  1  0  0  0  0
M  END
>  <Pose>
1

>  <Score>
-7.256

$$$$
