/Users/jonathanwahrer/Desktop/Msc/3_Semester/Drug_Design_Praktikum/waehrer_HTS_screening/HTS_experiment/out/docking_results/vina_output/3e7o/0459_docked.pdbqt
 OpenBabel03192215413D

 29 32  0  0  0  0  0  0  0  0999 V2000
  -39.1340  -68.6530   52.0020 C   0  0  0  0  0  0  0  0  0  0  0  0
  -39.5680  -68.7790   53.3290 C   0  0  0  0  0  3  0  0  0  0  0  0
  -40.7110  -68.1760   53.8020 C   0  0  0  0  0  3  0  0  0  0  0  0
  -41.4910  -67.4050   52.9670 C   0  0  0  0  0  0  0  0  0  0  0  0
  -41.0790  -67.2700   51.6590 C   0  0  0  0  0  3  0  0  0  0  0  0
  -39.9200  -67.8800   51.1770 C   0  0  0  0  0  3  0  0  0  0  0  0
  -37.9730  -69.2780   51.5810 O   0  0  0  0  0  0  0  0  0  0  0  0
  -37.3970  -69.0870   50.3230 C   0  0  0  0  0  2  0  0  0  0  0  0
  -36.4090  -67.9960   50.2710 C   0  0  0  0  0  0  0  0  0  0  0  0
  -35.1440  -68.1570   50.8540 C   0  0  0  0  0  0  0  0  0  0  0  0
  -34.8000  -69.8160   51.7470 Br  0  0  0  0  0  0  0  0  0  0  0  0
  -34.1970  -67.1660   50.7850 C   0  0  0  0  0  3  0  0  0  0  0  0
  -34.4630  -65.9770   50.1370 C   0  0  0  0  0  0  0  0  0  0  0  0
  -35.6990  -65.7920   49.5550 C   0  0  0  0  0  0  0  0  0  0  0  0
  -33.7250  -64.8140   49.9050 O   0  0  0  0  0  0  0  0  0  0  0  0
  -36.6550  -66.8040   49.6290 C   0  0  0  0  0  3  0  0  0  0  0  0
  -35.6920  -64.5340   48.9860 O   0  0  0  0  0  0  0  0  0  0  0  0
  -34.3720  -64.0240   48.9300 C   0  0  0  0  0  2  0  0  0  0  0  0
  -42.7110  -66.7570   53.4560 C   0  0  0  0  0  0  0  0  0  0  0  0
  -43.8010  -66.3870   52.7650 N   0  0  0  0  0  0  0  0  0  0  0  0
  -44.6760  -65.8310   53.6110 N   0  0  0  0  0  0  0  0  0  0  0  0
  -44.1480  -65.8460   54.8260 N   0  0  0  0  0  0  0  0  0  0  0  0
  -42.9560  -66.4080   54.7290 N   0  0  0  0  0  0  0  0  0  0  0  0
  -45.9850  -65.2870   53.3160 C   0  0  0  0  0  2  0  0  0  0  0  0
  -47.0340  -66.2790   53.6370 C   0  0  0  0  0  0  0  0  0  0  0  0
  -48.2290  -65.9420   53.6010 O   0  0  0  0  0  0  0  0  0  0  0  0
  -46.6590  -67.5950   53.9820 N   0  0  0  0  0  0  0  0  0  0  0  0
  -45.7450  -67.8200   54.4660 H   0  0  0  0  0  0  0  0  0  0  0  0
  -47.2920  -68.3920   53.7600 H   0  0  0  0  0  0  0  0  0  0  0  0
  1  2  1  0  0  0  0
  2  3  2  0  0  0  0
  4 19  1  0  0  0  0
  4  3  1  0  0  0  0
  5  4  2  0  0  0  0
  6  5  1  0  0  0  0
  6  1  2  0  0  0  0
  7  1  1  0  0  0  0
  8  7  1  0  0  0  0
  9  8  1  0  0  0  0
  9 10  1  0  0  0  0
 10 11  1  0  0  0  0
 12 10  2  0  0  0  0
 13 12  1  0  0  0  0
 14 16  1  0  0  0  0
 14 13  2  0  0  0  0
 15 13  1  0  0  0  0
 16  9  2  0  0  0  0
 17 14  1  0  0  0  0
 18 17  1  0  0  0  0
 18 15  1  0  0  0  0
 19 23  1  0  0  0  0
 20 19  2  0  0  0  0
 20 21  1  0  0  0  0
 21 22  1  0  0  0  0
 23 22  2  0  0  0  0
 24 21  1  0  0  0  0
 24 25  1  0  0  0  0
 25 27  1  0  0  0  0
 26 25  2  0  0  0  0
 27 28  1  0  0  0  0
 29 27  1  0  0  0  0
M  END
>  <Pose>
1

>  <Score>
-8.166

$$$$
