/Users/jonathanwahrer/Desktop/Msc/3_Semester/Drug_Design_Praktikum/waehrer_HTS_screening/HTS_experiment/out/docking_results/vina_output/3e7o/0469_docked.pdbqt
 OpenBabel03192215423D

 32 36  0  0  0  0  0  0  0  0999 V2000
  -40.4590  -64.5310   50.2950 N   0  0  0  0  0  0  0  0  0  0  0  0
  -40.9060  -65.6750   49.6540 C   0  0  0  0  0  2  0  0  0  0  0  0
  -41.9480  -66.5280   50.2690 C   0  0  0  0  0  2  0  0  0  0  0  0
  -42.0230  -66.2330   51.6710 N   0  0  0  0  0  0  0  0  0  0  0  0
  -42.2410  -64.8400   51.9680 C   0  0  0  0  0  2  0  0  0  0  0  0
  -41.0000  -64.1080   51.5280 C   0  0  0  0  0  2  0  0  0  0  0  0
  -40.0090  -63.4570   49.4410 C   0  0  0  0  0  2  0  0  0  0  0  0
  -38.6890  -63.7890   48.7820 C   0  0  0  0  0  0  0  0  0  0  0  0
  -37.6370  -64.2230   49.6150 N   0  0  0  0  0  0  0  0  0  0  0  0
  -37.8390  -64.2930   50.6620 H   0  0  0  0  0  0  0  0  0  0  0  0
  -38.6290  -63.6530   47.5490 O   0  0  0  0  0  0  0  0  0  0  0  0
  -36.3370  -64.5750   49.1780 C   0  0  0  0  0  0  0  0  0  0  0  0
  -36.0540  -65.9360   48.9920 C   0  0  0  0  0  0  0  0  0  0  0  0
  -37.4230  -67.2040   49.3340 Br  0  0  0  0  0  0  0  0  0  0  0  0
  -34.8020  -66.3190   48.5700 C   0  0  0  0  0  3  0  0  0  0  0  0
  -33.8140  -65.4190   48.3210 C   0  0  0  0  0  0  0  0  0  0  0  0
  -34.0620  -64.0750   48.4950 C   0  0  0  0  0  0  0  0  0  0  0  0
  -32.5370  -65.7610   47.8950 O   0  0  0  0  0  0  0  0  0  0  0  0
  -35.3280  -63.6620   48.9240 C   0  0  0  0  0  3  0  0  0  0  0  0
  -33.0500  -63.1860   48.2370 O   0  0  0  0  0  0  0  0  0  0  0  0
  -31.6820  -63.5100   48.2830 C   0  0  0  0  0  2  0  0  0  0  0  0
  -31.4240  -64.9810   48.3510 C   0  0  0  0  0  2  0  0  0  0  0  0
  -41.9050  -67.1510   52.7270 C   0  0  0  0  0  0  0  0  0  0  0  0
  -42.8200  -67.2820   53.7210 N   0  0  0  0  0  0  0  0  0  0  0  0
  -42.6790  -68.1730   54.7190 C   0  0  0  0  0  3  0  0  0  0  0  0
  -41.6110  -68.9870   54.7780 N   0  0  0  0  0  0  0  0  0  0  0  0
  -40.6510  -68.9280   53.8320 C   0  0  0  0  0  0  0  0  0  0  0  0
  -39.4920  -69.6090   53.6410 N   0  0  0  0  0  0  0  0  0  0  0  0
  -40.8080  -68.0140   52.8210 C   0  0  0  0  0  0  0  0  0  0  0  0
  -38.9560  -69.1200   52.5370 N   0  0  0  0  0  0  0  0  0  0  0  0
  -38.9690  -70.6680   54.5050 C   0  0  0  0  0  1  0  0  0  0  0  0
  -39.7090  -68.1560   52.0030 C   0  0  0  0  0  3  0  0  0  0  0  0
  1  6  1  0  0  0  0
  2  3  1  0  0  0  0
  2  1  1  0  0  0  0
  3  4  1  0  0  0  0
  4  5  1  0  0  0  0
  4 23  1  0  0  0  0
  6  5  1  0  0  0  0
  7  1  1  0  0  0  0
  8  7  1  0  0  0  0
  8  9  1  0  0  0  0
  9 10  1  0  0  0  0
 11  8  2  0  0  0  0
 12  9  1  0  0  0  0
 13 12  1  0  0  0  0
 13 14  1  0  0  0  0
 15 13  2  0  0  0  0
 16 17  2  0  0  0  0
 16 15  1  0  0  0  0
 17 19  1  0  0  0  0
 18 16  1  0  0  0  0
 18 22  1  0  0  0  0
 19 12  2  0  0  0  0
 20 21  1  0  0  0  0
 20 17  1  0  0  0  0
 21 22  1  0  0  0  0
 23 29  2  0  0  0  0
 23 24  1  0  0  0  0
 24 25  2  0  0  0  0
 25 26  1  0  0  0  0
 27 26  2  0  0  0  0
 28 27  1  0  0  0  0
 28 31  1  0  0  0  0
 29 27  1  0  0  0  0
 30 28  1  0  0  0  0
 32 30  2  0  0  0  0
 32 29  1  0  0  0  0
M  END
>  <Pose>
1

>  <Score>
-7.948

$$$$
