/Users/jonathanwahrer/Desktop/Msc/3_Semester/Drug_Design_Praktikum/waehrer_HTS_screening/HTS_experiment/out/docking_results/vina_output/3e7o/0485_docked.pdbqt
 OpenBabel03192215433D

 34 37  0  0  0  0  0  0  0  0999 V2000
  -38.8920  -70.2840   53.8940 Br  0  0  0  0  0  0  0  0  0  0  0  0
  -40.2460  -68.9250   53.7750 C   0  0  0  0  0  0  0  0  0  0  0  0
  -40.4140  -68.1760   52.6330 C   0  0  0  0  0  3  0  0  0  0  0  0
  -41.3780  -67.1820   52.5000 C   0  0  0  0  0  0  0  0  0  0  0  0
  -42.2210  -66.9320   53.5860 C   0  0  0  0  0  0  0  0  0  0  0  0
  -42.0530  -67.6830   54.7320 C   0  0  0  0  0  3  0  0  0  0  0  0
  -41.0810  -68.6730   54.8430 C   0  0  0  0  0  3  0  0  0  0  0  0
  -43.1430  -65.8820   53.2600 N   0  0  0  0  0  0  0  0  0  0  0  0
  -42.8480  -65.4800   51.9290 C   0  0  0  0  0  0  0  0  0  0  0  0
  -43.4450  -64.5830   51.2940 O   0  0  0  0  0  0  0  0  0  0  0  0
  -41.7460  -66.2780   51.4260 C   0  0  0  0  0  0  0  0  0  0  0  0
  -41.1980  -66.2070   50.2650 N   0  0  0  0  0  0  0  0  0  0  0  0
  -41.6070  -65.3110   49.2840 N   0  0  0  0  0  0  0  0  0  0  0  0
  -40.9390  -64.0770   49.1400 C   0  0  0  0  0  0  0  0  0  0  0  0
  -39.9560  -63.7550   49.8930 O   0  0  0  0  0  0  0  0  0  0  0  0
  -42.3960  -65.5550   48.6700 H   0  0  0  0  0  0  0  0  0  0  0  0
  -41.3080  -63.0640   48.1200 C   0  0  0  0  0  2  0  0  0  0  0  0
  -42.3880  -62.2600   48.5940 O   0  0  0  0  0  0  0  0  0  0  0  0
  -43.6680  -62.4680   48.1090 C   0  0  0  0  0  0  0  0  0  0  0  0
  -44.7480  -61.8730   48.7260 C   0  0  0  0  0  0  0  0  0  0  0  0
  -46.0310  -62.0870   48.2330 C   0  0  0  0  0  3  0  0  0  0  0  0
  -46.2330  -62.8930   47.1290 C   0  0  0  0  0  3  0  0  0  0  0  0
  -45.1550  -63.4750   46.5300 C   0  0  0  0  0  3  0  0  0  0  0  0
  -43.8780  -63.2620   47.0220 C   0  0  0  0  0  3  0  0  0  0  0  0
  -44.5810  -61.0670   49.8240 O   0  0  0  0  0  0  0  0  0  0  0  0
  -44.7800  -59.6800   49.7290 C   0  0  0  0  0  1  0  0  0  0  0  0
  -44.1660  -65.3670   54.1540 C   0  0  0  0  0  2  0  0  0  0  0  0
  -45.4790  -65.8330   53.8920 N   0  0  0  0  0  0  0  0  0  0  0  0
  -46.3290  -64.9380   53.1840 C   0  0  0  0  0  2  0  0  0  0  0  0
  -47.7440  -65.5000   53.0200 C   0  0  0  0  0  2  0  0  0  0  0  0
  -47.8510  -66.6230   53.9070 N   0  0  0  0  0  0  0  0  0  0  0  0
  -47.0080  -67.7150   53.5310 C   0  0  0  0  0  2  0  0  0  0  0  0
  -49.2010  -66.9910   54.2200 C   0  0  0  0  0  1  0  0  0  0  0  0
  -45.5790  -67.2050   53.4840 C   0  0  0  0  0  2  0  0  0  0  0  0
  2  1  1  0  0  0  0
  2  7  1  0  0  0  0
  3  2  2  0  0  0  0
  4  3  1  0  0  0  0
  4  5  2  0  0  0  0
  5  6  1  0  0  0  0
  6  7  2  0  0  0  0
  8  5  1  0  0  0  0
  8 27  1  0  0  0  0
  9  8  1  0  0  0  0
 10  9  2  0  0  0  0
 11  9  1  0  0  0  0
 11  4  1  0  0  0  0
 12 11  2  0  0  0  0
 13 12  1  0  0  0  0
 14 13  1  0  0  0  0
 14 15  2  0  0  0  0
 16 13  1  0  0  0  0
 17 18  1  0  0  0  0
 17 14  1  0  0  0  0
 19 18  1  0  0  0  0
 19 20  1  0  0  0  0
 20 25  1  0  0  0  0
 21 20  2  0  0  0  0
 22 21  1  0  0  0  0
 23 24  1  0  0  0  0
 23 22  2  0  0  0  0
 24 19  2  0  0  0  0
 26 25  1  0  0  0  0
 28 27  1  0  0  0  0
 29 28  1  0  0  0  0
 30 29  1  0  0  0  0
 30 31  1  0  0  0  0
 31 33  1  0  0  0  0
 32 31  1  0  0  0  0
 34 32  1  0  0  0  0
 34 28  1  0  0  0  0
M  END
>  <Pose>
1

>  <Score>
-8.087

$$$$
