/Users/jonathanwahrer/Desktop/Msc/3_Semester/Drug_Design_Praktikum/waehrer_HTS_screening/HTS_experiment/out/docking_results/vina_output/3e7o/0502_docked.pdbqt
 OpenBabel03192215443D

 27 30  0  0  1  0  0  0  0  0999 V2000
  -38.7610  -65.9260   48.1060 Br  0  0  0  0  0  0  0  0  0  0  0  0
  -36.9970  -66.3070   47.4300 C   0  0  0  0  0  0  0  0  0  0  0  0
  -36.0910  -65.3020   47.2130 C   0  0  0  0  0  3  0  0  0  0  0  0
  -34.8340  -65.6000   46.7290 C   0  0  0  0  0  0  0  0  0  0  0  0
  -34.5430  -66.9140   46.4820 C   0  0  0  0  0  0  0  0  0  0  0  0
  -35.4760  -67.9460   46.7070 C   0  0  0  0  0  3  0  0  0  0  0  0
  -36.7190  -67.6330   47.1880 C   0  0  0  0  0  3  0  0  0  0  0  0
  -33.2150  -67.0600   45.9890 N   0  0  0  0  0  0  0  0  0  0  0  0
  -32.6380  -65.7860   45.9190 C   0  0  0  0  0  0  0  0  0  0  0  0
  -31.4590  -65.5380   45.5210 O   0  0  0  0  0  0  0  0  0  0  0  0
  -33.6490  -64.7750   46.3920 C   0  0  2  0  0  0  0  0  0  0  0  0
  -33.0520  -64.1270   47.5540 C   0  0  0  0  0  0  0  0  0  0  0  0
  -32.7570  -62.7990   47.5480 C   0  0  0  0  0  0  0  0  0  0  0  0
  -32.2190  -62.5140   48.7710 N   0  0  0  0  0  0  0  0  0  0  0  0
  -32.1730  -63.6010   49.5120 N   0  0  0  0  0  0  0  0  0  0  0  0
  -32.6730  -64.6140   48.8080 C   0  0  0  0  0  0  0  0  0  0  0  0
  -32.8400  -66.0480   49.2010 C   0  0  0  0  0  1  0  0  0  0  0  0
  -33.0020  -61.9730   46.4460 O   0  0  0  0  0  0  0  0  0  0  0  0
  -33.5710  -62.5950   45.3390 C   0  0  0  0  0  0  0  0  0  0  0  0
  -33.8760  -63.8650   45.2840 C   0  0  0  0  0  0  0  0  0  0  0  0
  -34.4730  -64.3520   44.0290 C   0  0  0  0  0  0  0  0  0  0  0  0
  -34.9480  -64.7600   43.0430 N   0  0  0  0  0  0  0  0  0  0  0  0
  -32.5530  -68.3200   45.6150 C   0  0  0  0  0  1  0  0  0  0  0  0
  -31.8140  -63.7080   50.4960 H   0  0  0  0  0  0  0  0  0  0  0  0
  -33.8490  -61.7860   44.1610 N   0  0  0  0  0  0  0  0  0  0  0  0
  -34.6440  -62.1220   43.5820 H   0  0  0  0  0  0  0  0  0  0  0  0
  -33.3160  -60.9560   43.9110 H   0  0  0  0  0  0  0  0  0  0  0  0
  2  1  1  0  0  0  0
  3  2  1  0  0  0  0
  4  3  2  0  0  0  0
  5  6  2  0  0  0  0
  5  4  1  0  0  0  0
  6  7  1  0  0  0  0
  7  2  2  0  0  0  0
  8  5  1  0  0  0  0
  9  8  1  0  0  0  0
  9 11  1  0  0  0  0
 10  9  2  0  0  0  0
 11 20  1  6  0  0  0
 11  4  1  0  0  0  0
 11 12  1  0  0  0  0
 12 16  2  0  0  0  0
 13 12  1  0  0  0  0
 13 14  2  0  0  0  0
 14 15  1  0  0  0  0
 15 24  1  0  0  0  0
 16 17  1  0  0  0  0
 16 15  1  0  0  0  0
 18 13  1  0  0  0  0
 19 18  1  0  0  0  0
 20 19  2  0  0  0  0
 21 20  1  0  0  0  0
 22 21  3  0  0  0  0
 23  8  1  0  0  0  0
 25 19  1  0  0  0  0
 26 25  1  0  0  0  0
 27 25  1  0  0  0  0
M  END
>  <Pose>
1

>  <Score>
-5.526

$$$$
