/Users/jonathanwahrer/Desktop/Msc/3_Semester/Drug_Design_Praktikum/waehrer_HTS_screening/HTS_experiment/out/docking_results/vina_output/3e7o/0504_docked.pdbqt
 OpenBabel03192215443D

 29 32  0  0  1  0  0  0  0  0999 V2000
  -40.1040  -64.6060   47.8900 Br  0  0  0  0  0  0  0  0  0  0  0  0
  -38.8240  -63.3470   47.2690 C   0  0  0  0  0  0  0  0  0  0  0  0
  -37.5340  -63.6890   46.9420 C   0  0  0  0  0  3  0  0  0  0  0  0
  -36.6540  -62.7050   46.4930 C   0  0  0  0  0  0  0  0  0  0  0  0
  -37.0030  -61.4030   46.3560 C   0  0  0  0  0  0  0  0  0  0  0  0
  -38.3160  -61.0560   46.6880 C   0  0  0  0  0  3  0  0  0  0  0  0
  -39.1990  -62.0140   47.1330 C   0  0  0  0  0  3  0  0  0  0  0  0
  -35.9320  -60.6090   45.8840 N   0  0  0  0  0  0  0  0  0  0  0  0
  -34.8220  -61.4570   45.7070 C   0  0  0  0  0  0  0  0  0  0  0  0
  -33.6800  -61.1110   45.2960 O   0  0  0  0  0  0  0  0  0  0  0  0
  -35.2190  -62.8420   46.0840 C   0  0  1  0  0  0  0  0  0  0  0  0
  -34.4140  -63.3150   47.2390 C   0  0  0  0  0  0  0  0  0  0  0  0
  -33.7670  -64.4240   47.2240 C   0  0  0  0  0  0  0  0  0  0  0  0
  -33.7630  -65.3160   46.0750 N   0  0  0  0  0  0  0  0  0  0  0  0
  -34.5250  -64.8790   44.9700 C   0  0  0  0  0  0  0  0  0  0  0  0
  -35.1900  -63.7560   44.9630 C   0  0  0  0  0  0  0  0  0  0  0  0
  -35.9310  -63.4360   43.7500 C   0  0  0  0  0  0  0  0  0  0  0  0
  -36.5260  -63.1630   42.7940 N   0  0  0  0  0  0  0  0  0  0  0  0
  -33.0700  -64.5910   48.5360 C   0  0  0  0  0  0  0  0  0  0  0  0
  -33.3970  -63.4690   49.2700 O   0  0  0  0  0  0  0  0  0  0  0  0
  -34.2110  -62.6390   48.5610 C   0  0  0  0  0  0  0  0  0  0  0  0
  -34.7210  -61.5240   48.8840 O   0  0  0  0  0  0  0  0  0  0  0  0
  -31.5790  -64.7540   48.3140 C   0  0  0  0  0  1  0  0  0  0  0  0
  -33.6000  -65.8070   49.2730 C   0  0  0  0  0  1  0  0  0  0  0  0
  -35.9350  -59.1630   45.6160 C   0  0  0  0  0  1  0  0  0  0  0  0
  -33.2230  -66.1980   46.1170 H   0  0  0  0  0  0  0  0  0  0  0  0
  -34.5580  -65.7310   43.7920 N   0  0  0  0  0  0  0  0  0  0  0  0
  -35.3150  -65.5500   43.1020 H   0  0  0  0  0  0  0  0  0  0  0  0
  -33.8660  -66.4800   43.6500 H   0  0  0  0  0  0  0  0  0  0  0  0
  2  1  1  0  0  0  0
  3  2  2  0  0  0  0
  4  3  1  0  0  0  0
  5  4  2  0  0  0  0
  5  6  1  0  0  0  0
  6  7  2  0  0  0  0
  7  2  1  0  0  0  0
  8  5  1  0  0  0  0
  9  8  1  0  0  0  0
  9 11  1  0  0  0  0
 10  9  2  0  0  0  0
 11 16  1  6  0  0  0
 11  4  1  0  0  0  0
 11 12  1  0  0  0  0
 12 21  1  0  0  0  0
 13 12  2  0  0  0  0
 13 19  1  0  0  0  0
 14 26  1  0  0  0  0
 14 13  1  0  0  0  0
 15 14  1  0  0  0  0
 16 15  2  0  0  0  0
 17 16  1  0  0  0  0
 18 17  3  0  0  0  0
 19 20  1  0  0  0  0
 19 24  1  0  0  0  0
 21 22  2  0  0  0  0
 21 20  1  0  0  0  0
 23 19  1  0  0  0  0
 25  8  1  0  0  0  0
 27 15  1  0  0  0  0
 28 27  1  0  0  0  0
 29 27  1  0  0  0  0
M  END
>  <Pose>
1

>  <Score>
-5.371

$$$$
