/Users/jonathanwahrer/Desktop/Msc/3_Semester/Drug_Design_Praktikum/waehrer_HTS_screening/HTS_experiment/out/docking_results/vina_output/3e7o/0513_docked.pdbqt
 OpenBabel03192215443D

 33 36  0  0  0  0  0  0  0  0999 V2000
  -40.7070  -65.0490   50.5310 N   0  0  0  0  0  0  0  0  0  0  0  0
  -39.9420  -65.0830   49.3340 C   0  0  0  0  0  0  0  0  0  0  0  0
  -40.4090  -65.7260   48.3810 O   0  0  0  0  0  0  0  0  0  0  0  0
  -40.3050  -64.5190   51.3350 H   0  0  0  0  0  0  0  0  0  0  0  0
  -41.9300  -65.6760   50.6780 N   0  0  0  0  0  0  0  0  0  0  0  0
  -42.3020  -66.2850   49.8990 H   0  0  0  0  0  0  0  0  0  0  0  0
  -42.7420  -65.5660   51.8150 C   0  0  0  0  0  3  0  0  0  0  0  0
  -42.6100  -66.2750   52.9140 C   0  0  0  0  0  0  0  0  0  0  0  0
  -41.6300  -67.3190   53.2320 C   0  0  0  0  0  0  0  0  0  0  0  0
  -43.4550  -66.1740   54.1160 C   0  0  0  0  0  0  0  0  0  0  0  0
  -40.5820  -67.8620   52.5210 C   0  0  0  0  0  3  0  0  0  0  0  0
  -41.8430  -67.8110   54.4980 C   0  0  0  0  0  0  0  0  0  0  0  0
  -39.7540  -68.8640   53.0270 C   0  0  0  0  0  0  0  0  0  0  0  0
  -38.3160  -69.5610   51.9750 Br  0  0  0  0  0  0  0  0  0  0  0  0
  -40.0000  -69.3290   54.2940 C   0  0  0  0  0  3  0  0  0  0  0  0
  -41.0310  -68.8190   55.0400 C   0  0  0  0  0  3  0  0  0  0  0  0
  -42.9550  -67.1170   55.0450 N   0  0  0  0  0  0  0  0  0  0  0  0
  -43.3610  -67.2720   55.9980 H   0  0  0  0  0  0  0  0  0  0  0  0
  -44.4220  -65.3850   54.2420 O   0  0  0  0  0  0  0  0  0  0  0  0
  -38.6410  -64.3940   49.1830 C   0  0  0  0  0  2  0  0  0  0  0  0
  -37.5640  -65.2640   49.2780 N   0  0  0  0  0  0  0  0  0  0  0  0
  -36.2540  -65.0860   49.1170 C   0  0  0  0  0  0  0  0  0  0  0  0
  -35.6130  -66.3080   49.2650 C   0  0  0  0  0  0  0  0  0  0  0  0
  -35.5660  -63.9530   48.8660 N   0  0  0  0  0  0  0  0  0  0  0  0
  -36.5710  -67.2190   49.5180 N   0  0  0  0  0  0  0  0  0  0  0  0
  -34.2390  -66.3860   49.1520 C   0  0  0  0  0  0  0  0  0  0  0  0
  -37.7310  -66.6010   49.5280 C   0  0  0  0  0  3  0  0  0  0  0  0
  -33.6870  -67.5080   49.2880 O   0  0  0  0  0  0  0  0  0  0  0  0
  -33.5810  -65.2630   48.9030 N   0  0  0  0  0  0  0  0  0  0  0  0
  -34.2130  -64.0840   48.7640 C   0  0  0  0  0  0  0  0  0  0  0  0
  -32.1150  -65.2900   48.7700 C   0  0  0  0  0  1  0  0  0  0  0  0
  -33.5520  -63.0450   48.5290 O   0  0  0  0  0  0  0  0  0  0  0  0
  -36.2060  -62.6740   48.7490 C   0  0  0  0  0  1  0  0  0  0  0  0
  1  5  1  0  0  0  0
  1  4  1  0  0  0  0
  2  1  1  0  0  0  0
  3  2  2  0  0  0  0
  5  7  1  0  0  0  0
  6  5  1  0  0  0  0
  7  8  2  0  0  0  0
  8  9  1  0  0  0  0
  8 10  1  0  0  0  0
  9 12  1  0  0  0  0
 10 19  2  0  0  0  0
 10 17  1  0  0  0  0
 11 13  1  0  0  0  0
 11  9  2  0  0  0  0
 12 16  2  0  0  0  0
 12 17  1  0  0  0  0
 13 15  2  0  0  0  0
 14 13  1  0  0  0  0
 15 16  1  0  0  0  0
 17 18  1  0  0  0  0
 20 21  1  0  0  0  0
 20  2  1  0  0  0  0
 21 27  1  0  0  0  0
 22 23  2  0  0  0  0
 22 21  1  0  0  0  0
 23 25  1  0  0  0  0
 24 22  1  0  0  0  0
 25 27  2  0  0  0  0
 26 23  1  0  0  0  0
 26 28  2  0  0  0  0
 29 26  1  0  0  0  0
 30 24  1  0  0  0  0
 30 29  1  0  0  0  0
 31 29  1  0  0  0  0
 32 30  2  0  0  0  0
 33 24  1  0  0  0  0
M  END
>  <Pose>
1

>  <Score>
-9.079

$$$$
