/Users/jonathanwahrer/Desktop/Msc/3_Semester/Drug_Design_Praktikum/waehrer_HTS_screening/HTS_experiment/out/docking_results/vina_output/3e7o/0550_docked.pdbqt
 OpenBabel03192215443D

 30 35  0  0  1  0  0  0  0  0999 V2000
  -44.0820  -62.7290   46.2030 Br  0  0  0  0  0  0  0  0  0  0  0  0
  -42.6540  -63.0250   47.4320 C   0  0  0  0  0  0  0  0  0  0  0  0
  -42.8140  -63.7910   48.5800 C   0  0  0  0  0  3  0  0  0  0  0  0
  -41.7850  -64.0000   49.4580 C   0  0  0  0  0  0  0  0  0  0  0  0
  -40.5650  -63.4130   49.1570 C   0  0  0  0  0  0  0  0  0  0  0  0
  -40.3990  -62.6520   48.0190 C   0  0  0  0  0  3  0  0  0  0  0  0
  -41.4410  -62.4490   47.1450 C   0  0  0  0  0  3  0  0  0  0  0  0
  -39.6030  -63.7310   50.1660 N   0  0  0  0  0  0  0  0  0  0  0  0
  -40.2230  -64.5430   51.1410 C   0  0  0  0  0  0  0  0  0  0  0  0
  -39.6500  -64.9900   52.1450 O   0  0  0  0  0  0  0  0  0  0  0  0
  -41.6270  -64.7260   50.7160 C   0  0  1  0  0  0  0  0  0  0  0  0
  -42.4570  -64.2970   51.8000 N   0  0  2  0  0  0  0  0  0  0  0  0
  -42.3670  -65.3860   52.7700 C   0  0  2  0  0  3  0  0  0  0  0  0
  -42.2060  -66.6420   51.9780 C   0  0  1  0  0  3  0  0  0  0  0  0
  -42.0020  -66.1810   50.5760 C   0  0  2  0  0  3  0  0  0  0  0  0
  -40.9230  -67.0150   50.0580 C   0  0  0  0  0  0  0  0  0  0  0  0
  -40.5280  -67.0630   48.8710 O   0  0  0  0  0  0  0  0  0  0  0  0
  -40.3760  -67.7760   51.1060 N   0  0  0  0  0  0  0  0  0  0  0  0
  -40.9730  -67.4030   52.3580 C   0  0  0  0  0  0  0  0  0  0  0  0
  -40.5760  -67.6410   53.5250 O   0  0  0  0  0  0  0  0  0  0  0  0
  -43.7230  -65.4300   53.4590 C   0  0  0  0  0  2  0  0  0  0  0  0
  -44.5330  -64.3000   52.8580 C   0  0  0  0  0  2  0  0  0  0  0  0
  -43.8660  -64.1900   51.4800 C   0  0  0  0  0  2  0  0  0  0  0  0
  -38.5940  -63.3990   50.1620 H   0  0  0  0  0  0  0  0  0  0  0  0
  -39.3710  -68.7830   50.9790 C   0  0  0  0  0  2  0  0  0  0  0  0
  -37.9710  -68.3020   51.0990 C   0  0  2  0  0  3  0  0  0  0  0  0
  -37.4900  -67.6810   49.9520 O   0  0  0  0  0  0  0  0  0  0  0  0
  -36.1310  -67.5400   50.2020 C   0  0  0  0  0  2  0  0  0  0  0  0
  -35.6660  -68.7460   50.9560 C   0  0  0  0  0  2  0  0  0  0  0  0
  -36.9690  -69.3290   51.5030 C   0  0  0  0  0  2  0  0  0  0  0  0
  1  2  1  0  0  0  0
  2  3  1  0  0  0  0
  3  4  2  0  0  0  0
  5  4  1  0  0  0  0
  5  8  1  0  0  0  0
  6  5  2  0  0  0  0
  7  2  2  0  0  0  0
  7  6  1  0  0  0  0
  8  9  1  0  0  0  0
  9 10  2  0  0  0  0
 11  4  1  6  0  0  0
 11  9  1  0  0  0  0
 11 12  1  0  0  0  0
 12 23  1  6  0  0  0
 12 13  1  0  0  0  0
 13 21  1  6  0  0  0
 14 19  1  1  0  0  0
 14 13  1  0  0  0  0
 15 16  1  1  0  0  0
 15 11  1  0  0  0  0
 15 14  1  0  0  0  0
 16 18  1  0  0  0  0
 17 16  2  0  0  0  0
 18 19  1  0  0  0  0
 19 20  2  0  0  0  0
 22 21  1  0  0  0  0
 23 22  1  0  0  0  0
 24  8  1  0  0  0  0
 25 18  1  0  0  0  0
 26 25  1  6  0  0  0
 26 30  1  0  0  0  0
 27 28  1  0  0  0  0
 27 26  1  0  0  0  0
 28 29  1  0  0  0  0
 29 30  1  0  0  0  0
M  END
>  <Pose>
1

>  <Score>
-7.143

$$$$
