/Users/jonathanwahrer/Desktop/Msc/3_Semester/Drug_Design_Praktikum/waehrer_HTS_screening/HTS_experiment/out/docking_results/vina_output/3e7o/0558_docked.pdbqt
 OpenBabel03192215453D

 29 32  0  0  1  0  0  0  0  0999 V2000
  -39.8330  -63.7600   50.7810 Br  0  0  0  0  0  0  0  0  0  0  0  0
  -39.1040  -64.9710   49.5130 C   0  0  0  0  0  0  0  0  0  0  0  0
  -37.7480  -65.3140   49.5080 C   0  0  0  0  0  3  0  0  0  0  0  0
  -37.2300  -66.1890   48.5900 C   0  0  0  0  0  0  0  0  0  0  0  0
  -38.0540  -66.7400   47.6530 C   0  0  0  0  0  0  0  0  0  0  0  0
  -39.4200  -66.4280   47.6170 C   0  0  0  0  0  3  0  0  0  0  0  0
  -39.9120  -65.5480   48.5510 C   0  0  0  0  0  3  0  0  0  0  0  0
  -37.3350  -67.6130   46.7990 N   0  0  0  0  0  0  0  0  0  0  0  0
  -35.9940  -67.6060   47.2220 C   0  0  0  0  0  0  0  0  0  0  0  0
  -35.0250  -68.2440   46.7340 O   0  0  0  0  0  0  0  0  0  0  0  0
  -35.8620  -66.6980   48.3830 C   0  0  1  0  0  0  0  0  0  0  0  0
  -34.9240  -65.5810   48.0390 C   0  0  0  0  0  0  0  0  0  0  0  0
  -33.8470  -65.2630   48.7080 C   0  0  0  0  0  0  0  0  0  0  0  0
  -33.5230  -66.0240   49.8550 N   0  0  0  0  0  0  0  0  0  0  0  0
  -34.3520  -67.1020   50.2590 C   0  0  0  0  0  0  0  0  0  0  0  0
  -35.4330  -67.4240   49.5910 C   0  0  0  0  0  0  0  0  0  0  0  0
  -36.2350  -68.5510   50.0750 C   0  0  0  0  0  0  0  0  0  0  0  0
  -36.8760  -69.4420   50.4390 N   0  0  0  0  0  0  0  0  0  0  0  0
  -33.2040  -64.1050   48.0400 C   0  0  0  0  0  0  0  0  0  0  0  0
  -33.9960  -63.7770   46.9280 O   0  0  0  0  0  0  0  0  0  0  0  0
  -35.0570  -64.6600   46.8960 C   0  0  0  0  0  0  0  0  0  0  0  0
  -35.9870  -64.6620   46.0180 O   0  0  0  0  0  0  0  0  0  0  0  0
  -31.8300  -64.4920   47.4880 C   0  0  0  0  0  1  0  0  0  0  0  0
  -33.0660  -62.9280   48.9960 C   0  0  0  0  0  1  0  0  0  0  0  0
  -37.7550  -68.1660   45.9870 H   0  0  0  0  0  0  0  0  0  0  0  0
  -32.6680  -65.8130   50.4330 H   0  0  0  0  0  0  0  0  0  0  0  0
  -33.9980  -67.8700   51.4420 N   0  0  0  0  0  0  0  0  0  0  0  0
  -34.6680  -68.4700   51.9500 H   0  0  0  0  0  0  0  0  0  0  0  0
  -33.0250  -67.8060   51.7810 H   0  0  0  0  0  0  0  0  0  0  0  0
  2  1  1  0  0  0  0
  3  2  1  0  0  0  0
  4  3  2  0  0  0  0
  5  4  1  0  0  0  0
  6  5  2  0  0  0  0
  6  7  1  0  0  0  0
  7  2  2  0  0  0  0
  8  9  1  0  0  0  0
  8  5  1  0  0  0  0
 10  9  2  0  0  0  0
 11  9  1  6  0  0  0
 11  4  1  0  0  0  0
 11 16  1  0  0  0  0
 12 11  1  0  0  0  0
 12 13  2  0  0  0  0
 13 14  1  0  0  0  0
 14 15  1  0  0  0  0
 14 26  1  0  0  0  0
 15 27  1  0  0  0  0
 16 17  1  0  0  0  0
 16 15  2  0  0  0  0
 17 18  3  0  0  0  0
 19 13  1  0  0  0  0
 19 24  1  0  0  0  0
 20 19  1  0  0  0  0
 21 20  1  0  0  0  0
 21 12  1  0  0  0  0
 22 21  2  0  0  0  0
 23 19  1  0  0  0  0
 25  8  1  0  0  0  0
 27 29  1  0  0  0  0
 27 28  1  0  0  0  0
M  END
>  <Pose>
1

>  <Score>
-6.566

$$$$
