/Users/jonathanwahrer/Desktop/Msc/3_Semester/Drug_Design_Praktikum/waehrer_HTS_screening/HTS_experiment/out/docking_results/vina_output/3e7o/0559_docked.pdbqt
 OpenBabel03192215453D

 32 35  0  0  1  0  0  0  0  0999 V2000
  -41.5350  -67.5410   54.9690 Br  0  0  0  0  0  0  0  0  0  0  0  0
  -41.8090  -66.5430   53.3520 C   0  0  0  0  0  0  0  0  0  0  0  0
  -40.7890  -66.3430   52.4400 C   0  0  0  0  0  3  0  0  0  0  0  0
  -40.9760  -65.6270   51.2750 C   0  0  0  0  0  0  0  0  0  0  0  0
  -42.2410  -65.1160   51.0660 C   0  0  0  0  0  0  0  0  0  0  0  0
  -43.2680  -65.3150   51.9820 C   0  0  0  0  0  3  0  0  0  0  0  0
  -43.0580  -66.0260   53.1240 C   0  0  0  0  0  3  0  0  0  0  0  0
  -42.2490  -64.4020   49.8200 N   0  0  0  0  0  0  0  0  0  0  0  0
  -40.9580  -64.4680   49.2390 C   0  0  0  0  0  0  0  0  0  0  0  0
  -40.6480  -63.9300   48.1510 O   0  0  0  0  0  0  0  0  0  0  0  0
  -40.0980  -65.2630   50.1400 C   0  0  1  0  0  0  0  0  0  0  0  0
  -38.9450  -64.5100   50.5530 N   0  0  0  0  0  0  0  0  0  0  0  0
  -38.0320  -64.6290   49.4350 C   0  0  2  0  0  3  0  0  0  0  0  0
  -38.1480  -66.0760   49.0360 C   0  0  2  0  0  3  0  0  0  0  0  0
  -39.5690  -66.4380   49.3970 C   0  0  1  0  0  3  0  0  0  0  0  0
  -39.4690  -67.6860   50.1670 C   0  0  0  0  0  0  0  0  0  0  0  0
  -40.4220  -68.4050   50.5610 O   0  0  0  0  0  0  0  0  0  0  0  0
  -38.0790  -67.9920   50.4210 N   0  0  0  0  0  0  0  0  0  0  0  0
  -37.2860  -66.9700   49.8400 C   0  0  0  0  0  0  0  0  0  0  0  0
  -36.0470  -66.8650   50.0010 O   0  0  0  0  0  0  0  0  0  0  0  0
  -43.0970  -63.9240   49.4440 H   0  0  0  0  0  0  0  0  0  0  0  0
  -38.5190  -64.9710   51.3740 H   0  0  0  0  0  0  0  0  0  0  0  0
  -36.6420  -64.2240   49.8470 C   0  0  0  0  0  2  0  0  0  0  0  0
  -35.9710  -63.4730   48.7730 C   0  0  0  0  0  0  0  0  0  0  0  0
  -35.4420  -64.1140   47.8250 O   0  0  0  0  0  0  0  0  0  0  0  0
  -35.8720  -62.0590   48.7190 N   0  0  0  0  0  0  0  0  0  0  0  0
  -35.5880  -61.4510   49.5010 H   0  0  0  0  0  0  0  0  0  0  0  0
  -36.1090  -61.6010   47.8010 H   0  0  0  0  0  0  0  0  0  0  0  0
  -37.5650  -69.1330   51.1380 C   0  0  0  0  0  0  0  0  0  0  0  0
  -36.0770  -69.0310   51.3680 C   0  0  0  0  0  1  0  0  0  0  0  0
  -38.2870  -69.2360   52.4850 C   0  0  0  0  0  1  0  0  0  0  0  0
  -37.8120  -70.4100   50.3670 C   0  0  0  0  0  1  0  0  0  0  0  0
  2  1  1  0  0  0  0
  3  2  2  0  0  0  0
  4  3  1  0  0  0  0
  5  4  2  0  0  0  0
  5  6  1  0  0  0  0
  6  7  2  0  0  0  0
  7  2  1  0  0  0  0
  8  5  1  0  0  0  0
  9  8  1  0  0  0  0
 10  9  2  0  0  0  0
 11  9  1  6  0  0  0
 11 12  1  0  0  0  0
 11  4  1  0  0  0  0
 12 22  1  0  0  0  0
 13 23  1  1  0  0  0
 13 12  1  0  0  0  0
 14 15  1  0  0  0  0
 14 13  1  0  0  0  0
 14 19  1  1  0  0  0
 15 11  1  0  0  0  0
 15 16  1  1  0  0  0
 16 18  1  0  0  0  0
 16 17  2  0  0  0  0
 18 29  1  0  0  0  0
 19 20  2  0  0  0  0
 19 18  1  0  0  0  0
 21  8  1  0  0  0  0
 24 23  1  0  0  0  0
 25 24  2  0  0  0  0
 26 24  1  0  0  0  0
 26 27  1  0  0  0  0
 28 26  1  0  0  0  0
 29 30  1  0  0  0  0
 29 31  1  0  0  0  0
 32 29  1  0  0  0  0
M  END
>  <Pose>
1

>  <Score>
-7.791

$$$$
