/Users/jonathanwahrer/Desktop/Msc/3_Semester/Drug_Design_Praktikum/waehrer_HTS_screening/HTS_experiment/out/docking_results/vina_output/3e7o/0566_docked.pdbqt
 OpenBabel03192215453D

 30 33  0  0  1  0  0  0  0  0999 V2000
  -38.6890  -69.9830   52.9310 Br  0  0  0  0  0  0  0  0  0  0  0  0
  -39.2190  -68.7000   51.6210 C   0  0  0  0  0  0  0  0  0  0  0  0
  -38.2970  -68.1420   50.7720 C   0  0  0  0  0  3  0  0  0  0  0  0
  -38.6770  -67.1950   49.8040 C   0  0  0  0  0  0  0  0  0  0  0  0
  -39.9780  -66.7970   49.6750 C   0  0  0  0  0  0  0  0  0  0  0  0
  -40.9200  -67.3680   50.5420 C   0  0  0  0  0  3  0  0  0  0  0  0
  -40.5280  -68.2920   51.4830 C   0  0  0  0  0  3  0  0  0  0  0  0
  -40.1160  -65.8400   48.6340 N   0  0  0  0  0  0  0  0  0  0  0  0
  -38.8310  -65.6280   48.0840 C   0  0  0  0  0  0  0  0  0  0  0  0
  -38.6320  -64.8140   47.1230 O   0  0  0  0  0  0  0  0  0  0  0  0
  -37.8790  -66.4660   48.7930 C   0  0  2  0  0  0  0  0  0  0  0  0
  -37.1430  -67.3670   47.9280 N   0  0  0  0  0  0  0  0  0  0  0  0
  -35.9630  -66.6320   47.5080 C   0  0  1  0  0  3  0  0  0  0  0  0
  -35.5550  -65.9450   48.7790 C   0  0  2  0  0  3  0  0  0  0  0  0
  -36.8360  -65.5910   49.4560 C   0  0  1  0  0  3  0  0  0  0  0  0
  -37.0410  -64.1570   49.1990 C   0  0  0  0  0  0  0  0  0  0  0  0
  -38.1060  -63.4680   49.3260 O   0  0  0  0  0  0  0  0  0  0  0  0
  -35.8220  -63.5740   48.7560 N   0  0  0  0  0  0  0  0  0  0  0  0
  -34.9130  -64.6350   48.5370 C   0  0  0  0  0  0  0  0  0  0  0  0
  -33.7010  -64.5230   48.1800 O   0  0  0  0  0  0  0  0  0  0  0  0
  -41.0340  -65.4010   48.3660 H   0  0  0  0  0  0  0  0  0  0  0  0
  -37.7090  -67.7130   47.1320 H   0  0  0  0  0  0  0  0  0  0  0  0
  -34.9380  -67.5950   46.9980 C   0  0  1  0  0  3  0  0  0  0  0  0
  -34.3990  -67.1260   45.6690 C   0  0  0  0  0  1  0  0  0  0  0  0
  -33.8670  -67.5980   47.9000 O   0  0  0  0  0  0  0  0  0  0  0  0
  -33.4150  -68.4800   47.9100 H   0  0  0  0  0  0  0  0  0  0  0  0
  -35.5520  -62.1630   48.5630 C   0  0  0  0  0  2  0  0  0  0  0  0
  -35.1880  -61.8380   47.1510 C   0  0  0  0  0  2  0  0  0  0  0  0
  -36.4350  -62.1090   46.2990 C   0  0  0  0  0  2  0  0  0  0  0  0
  -36.1480  -63.1680   45.2700 C   0  0  0  0  0  1  0  0  0  0  0  0
  2  1  1  0  0  0  0
  3  2  2  0  0  0  0
  4  3  1  0  0  0  0
  5  4  2  0  0  0  0
  5  6  1  0  0  0  0
  6  7  2  0  0  0  0
  7  2  1  0  0  0  0
  8  5  1  0  0  0  0
  9  8  1  0  0  0  0
 10  9  2  0  0  0  0
 11  9  1  6  0  0  0
 11 15  1  0  0  0  0
 11  4  1  0  0  0  0
 12 11  1  0  0  0  0
 13 23  1  1  0  0  0
 13 12  1  0  0  0  0
 13 14  1  0  0  0  0
 14 19  1  6  0  0  0
 14 15  1  0  0  0  0
 15 16  1  6  0  0  0
 16 17  2  0  0  0  0
 18 16  1  0  0  0  0
 19 18  1  0  0  0  0
 20 19  2  0  0  0  0
 21  8  1  0  0  0  0
 22 12  1  0  0  0  0
 23 24  1  6  0  0  0
 23 25  1  0  0  0  0
 25 26  1  0  0  0  0
 27 18  1  0  0  0  0
 28 27  1  0  0  0  0
 29 28  1  0  0  0  0
 30 29  1  0  0  0  0
M  END
>  <Pose>
1

>  <Score>
-6.777

$$$$
