/Users/jonathanwahrer/Desktop/Msc/3_Semester/Drug_Design_Praktikum/waehrer_HTS_screening/HTS_experiment/out/docking_results/vina_output/3e7o/0571_docked.pdbqt
 OpenBabel03192215453D

 34 38  0  0  1  0  0  0  0  0999 V2000
  -40.8440  -64.8390   52.3570 Br  0  0  0  0  0  0  0  0  0  0  0  0
  -40.7470  -64.3370   50.5180 C   0  0  0  0  0  0  0  0  0  0  0  0
  -39.5500  -64.1730   49.8560 C   0  0  0  0  0  3  0  0  0  0  0  0
  -39.4840  -63.7970   48.5060 C   0  0  0  0  0  0  0  0  0  0  0  0
  -40.6740  -63.5950   47.8490 C   0  0  0  0  0  0  0  0  0  0  0  0
  -41.8840  -63.7600   48.5090 C   0  0  0  0  0  3  0  0  0  0  0  0
  -41.9360  -64.1280   49.8360 C   0  0  0  0  0  3  0  0  0  0  0  0
  -40.4530  -63.2090   46.5070 N   0  0  0  0  0  0  0  0  0  0  0  0
  -39.0580  -63.1630   46.3040 C   0  0  0  0  0  0  0  0  0  0  0  0
  -38.5420  -62.8450   45.1950 O   0  0  0  0  0  0  0  0  0  0  0  0
  -38.3910  -63.5370   47.5690 C   0  0  1  0  0  0  0  0  0  0  0  0
  -37.5440  -62.4380   48.0450 N   0  0  0  0  0  0  0  0  0  0  0  0
  -36.4290  -63.0700   48.7140 C   0  0  1  0  0  3  0  0  0  0  0  0
  -36.2520  -64.4200   48.1400 C   0  0  2  0  0  3  0  0  0  0  0  0
  -37.4770  -64.6680   47.2790 C   0  0  1  0  0  3  0  0  0  0  0  0
  -37.9270  -66.0130   47.6150 C   0  0  0  0  0  0  0  0  0  0  0  0
  -38.9840  -66.5670   47.2240 O   0  0  0  0  0  0  0  0  0  0  0  0
  -36.9710  -66.6530   48.4880 N   0  0  0  0  0  0  0  0  0  0  0  0
  -36.2720  -65.5460   49.0950 C   0  0  0  0  0  0  0  0  0  0  0  0
  -35.7770  -65.5600   50.2310 O   0  0  0  0  0  0  0  0  0  0  0  0
  -41.1990  -62.9950   45.7890 H   0  0  0  0  0  0  0  0  0  0  0  0
  -38.0680  -61.8040   48.6910 H   0  0  0  0  0  0  0  0  0  0  0  0
  -35.1990  -62.1990   48.6170 C   0  0  2  0  0  3  0  0  0  0  0  0
  -35.0340  -61.5890   47.2460 C   0  0  0  0  0  1  0  0  0  0  0  0
  -34.0850  -62.9090   49.0180 O   0  0  0  0  0  0  0  0  0  0  0  0
  -33.2620  -62.5800   48.6090 H   0  0  0  0  0  0  0  0  0  0  0  0
  -36.7270  -68.0440   48.6980 C   0  0  0  0  0  2  0  0  0  0  0  0
  -36.5610  -68.4770   50.1260 C   0  0  0  0  0  2  0  0  0  0  0  0
  -37.8200  -68.6920   50.8610 C   0  0  0  0  0  0  0  0  0  0  0  0
  -37.8760  -69.6740   51.8420 C   0  0  0  0  0  3  0  0  0  0  0  0
  -39.0200  -69.8630   52.5430 C   0  0  0  0  0  3  0  0  0  0  0  0
  -40.1450  -69.1210   52.3310 C   0  0  0  0  0  3  0  0  0  0  0  0
  -40.0770  -68.1430   51.3490 C   0  0  0  0  0  3  0  0  0  0  0  0
  -38.9370  -67.9340   50.6290 C   0  0  0  0  0  3  0  0  0  0  0  0
  2  1  1  0  0  0  0
  3  2  1  0  0  0  0
  4  3  2  0  0  0  0
  5  4  1  0  0  0  0
  5  6  2  0  0  0  0
  6  7  1  0  0  0  0
  7  2  2  0  0  0  0
  8  5  1  0  0  0  0
  9  8  1  0  0  0  0
 10  9  2  0  0  0  0
 11  9  1  6  0  0  0
 11 12  1  0  0  0  0
 11  4  1  0  0  0  0
 12 22  1  0  0  0  0
 12 13  1  0  0  0  0
 13 23  1  6  0  0  0
 14 13  1  0  0  0  0
 14 19  1  1  0  0  0
 15 11  1  0  0  0  0
 15 16  1  1  0  0  0
 15 14  1  0  0  0  0
 16 18  1  0  0  0  0
 17 16  2  0  0  0  0
 18 27  1  0  0  0  0
 18 19  1  0  0  0  0
 19 20  2  0  0  0  0
 21  8  1  0  0  0  0
 23 24  1  6  0  0  0
 23 25  1  0  0  0  0
 26 25  1  0  0  0  0
 27 28  1  0  0  0  0
 28 29  1  0  0  0  0
 29 30  1  0  0  0  0
 30 31  2  0  0  0  0
 32 31  1  0  0  0  0
 33 32  2  0  0  0  0
 34 29  2  0  0  0  0
 34 33  1  0  0  0  0
M  END
>  <Pose>
1

>  <Score>
-8.060

$$$$
