/Users/jonathanwahrer/Desktop/Msc/3_Semester/Drug_Design_Praktikum/waehrer_HTS_screening/HTS_experiment/out/docking_results/vina_output/3e7o/0579_docked.pdbqt
 OpenBabel03192215463D

 32 35  0  0  1  0  0  0  0  0999 V2000
  -40.7570  -67.3680   52.2360 Br  0  0  0  0  0  0  0  0  0  0  0  0
  -39.8310  -66.9380   50.6260 C   0  0  0  0  0  0  0  0  0  0  0  0
  -38.4700  -66.7310   50.5780 C   0  0  0  0  0  3  0  0  0  0  0  0
  -37.7990  -66.4170   49.3970 C   0  0  0  0  0  0  0  0  0  0  0  0
  -38.5130  -66.3070   48.2300 C   0  0  0  0  0  0  0  0  0  0  0  0
  -39.8830  -66.5090   48.2460 C   0  0  0  0  0  3  0  0  0  0  0  0
  -40.5330  -66.8230   49.4460 C   0  0  0  0  0  3  0  0  0  0  0  0
  -37.6360  -65.9870   47.1460 N   0  0  0  0  0  0  0  0  0  0  0  0
  -36.3170  -65.8930   47.6550 C   0  0  0  0  0  0  0  0  0  0  0  0
  -35.3250  -65.6360   46.9450 O   0  0  0  0  0  0  0  0  0  0  0  0
  -36.3660  -66.1450   49.0870 C   0  0  2  0  0  0  0  0  0  0  0  0
  -35.5500  -67.3310   49.3450 N   0  0  0  0  0  0  0  0  0  0  0  0
  -34.8780  -67.0760   50.5840 C   0  0  2  0  0  3  0  0  0  0  0  0
  -34.5720  -65.6240   50.5320 C   0  0  2  0  0  3  0  0  0  0  0  0
  -35.8410  -65.0410   49.9550 C   0  0  1  0  0  3  0  0  0  0  0  0
  -35.4100  -63.8360   49.2600 C   0  0  0  0  0  0  0  0  0  0  0  0
  -36.1470  -62.8910   48.9040 O   0  0  0  0  0  0  0  0  0  0  0  0
  -34.0050  -63.9280   49.0590 N   0  0  0  0  0  0  0  0  0  0  0  0
  -33.5620  -65.2270   49.5200 C   0  0  0  0  0  0  0  0  0  0  0  0
  -32.5400  -65.7800   49.0840 O   0  0  0  0  0  0  0  0  0  0  0  0
  -37.9500  -65.8490   46.1450 H   0  0  0  0  0  0  0  0  0  0  0  0
  -34.8210  -67.4400   48.6010 H   0  0  0  0  0  0  0  0  0  0  0  0
  -33.7090  -67.9680   50.8300 C   0  0  0  0  0  2  0  0  0  0  0  0
  -34.1380  -69.1560   51.5770 C   0  0  0  0  0  0  0  0  0  0  0  0
  -35.3710  -69.3880   51.7280 O   0  0  0  0  0  0  0  0  0  0  0  0
  -33.1810  -70.0550   52.1350 N   0  0  0  0  0  0  0  0  0  0  0  0
  -33.4090  -71.0640   52.2410 H   0  0  0  0  0  0  0  0  0  0  0  0
  -32.2530  -69.6920   52.4350 H   0  0  0  0  0  0  0  0  0  0  0  0
  -33.1980  -62.8860   48.4940 C   0  0  0  0  0  2  0  0  0  0  0  0
  -32.8950  -63.0280   47.0390 C   0  0  0  0  0  2  0  0  0  0  0  0
  -33.1980  -61.8950   46.3020 O   0  0  0  0  0  0  0  0  0  0  0  0
  -34.5440  -61.8570   45.9480 C   0  0  0  0  0  1  0  0  0  0  0  0
  2  1  1  0  0  0  0
  3  2  1  0  0  0  0
  4  3  2  0  0  0  0
  5  6  2  0  0  0  0
  5  4  1  0  0  0  0
  6  7  1  0  0  0  0
  7  2  2  0  0  0  0
  8  9  1  0  0  0  0
  8  5  1  0  0  0  0
 10  9  2  0  0  0  0
 11  9  1  6  0  0  0
 11 12  1  0  0  0  0
 11  4  1  0  0  0  0
 11 15  1  0  0  0  0
 12 13  1  0  0  0  0
 13 23  1  6  0  0  0
 14 19  1  6  0  0  0
 14 13  1  0  0  0  0
 15 16  1  6  0  0  0
 15 14  1  0  0  0  0
 17 16  2  0  0  0  0
 18 16  1  0  0  0  0
 18 19  1  0  0  0  0
 20 19  2  0  0  0  0
 21  8  1  0  0  0  0
 22 12  1  0  0  0  0
 23 24  1  0  0  0  0
 24 25  2  0  0  0  0
 24 26  1  0  0  0  0
 26 27  1  0  0  0  0
 26 28  1  0  0  0  0
 29 18  1  0  0  0  0
 30 29  1  0  0  0  0
 31 30  1  0  0  0  0
 32 31  1  0  0  0  0
M  END
>  <Pose>
1

>  <Score>
-7.249

$$$$
