/Users/jonathanwahrer/Desktop/Msc/3_Semester/Drug_Design_Praktikum/waehrer_HTS_screening/HTS_experiment/out/docking_results/vina_output/3e7o/0591_docked.pdbqt
 OpenBabel03192215463D

 23 26  0  0  0  0  0  0  0  0999 V2000
  -36.8860  -67.9390   49.0730 Br  0  0  0  0  0  0  0  0  0  0  0  0
  -38.2700  -67.9560   50.4040 C   0  0  0  0  0  0  0  0  0  0  0  0
  -39.0520  -66.8400   50.6130 C   0  0  0  0  0  3  0  0  0  0  0  0
  -40.0450  -66.8590   51.5700 C   0  0  0  0  0  0  0  0  0  0  0  0
  -40.3090  -67.9660   52.3540 C   0  0  0  0  0  0  0  0  0  0  0  0
  -39.5090  -69.0840   52.1300 C   0  0  0  0  0  3  0  0  0  0  0  0
  -38.5150  -69.0730   51.1740 C   0  0  0  0  0  3  0  0  0  0  0  0
  -41.2730  -68.1490   53.3640 N   0  0  0  0  0  0  0  0  0  0  0  0
  -41.2550  -69.1620   54.2160 N   0  0  0  0  0  0  0  0  0  0  0  0
  -42.2970  -69.0300   55.0210 N   0  0  0  0  0  0  0  0  0  0  0  0
  -42.9590  -67.9500   54.6780 N   0  0  0  0  0  0  0  0  0  0  0  0
  -42.3370  -67.3620   53.6250 C   0  0  0  0  0  0  0  0  0  0  0  0
  -42.8700  -66.1320   53.0370 C   0  0  0  0  0  0  0  0  0  0  0  0
  -41.9320  -65.2630   52.4150 N   0  0  0  0  0  0  0  0  0  0  0  0
  -40.7770  -65.5940   51.6610 C   0  0  0  0  0  0  0  0  0  0  0  0
  -40.2540  -64.7040   50.9380 O   0  0  0  0  0  0  0  0  0  0  0  0
  -43.9460  -66.4330   51.9820 C   0  0  0  0  0  2  0  0  0  0  0  0
  -44.9770  -65.3330   52.0160 C   0  0  0  0  0  2  0  0  0  0  0  0
  -45.8280  -65.5700   53.1610 N   0  0  0  0  0  0  0  0  0  0  0  0
  -45.0040  -65.8220   54.3140 C   0  0  0  0  0  2  0  0  0  0  0  0
  -43.5800  -65.3550   54.1400 C   0  0  0  0  0  2  0  0  0  0  0  0
  -46.6830  -66.7140   52.8460 C   0  0  0  0  0  1  0  0  0  0  0  0
  -42.1230  -64.2460   52.5300 H   0  0  0  0  0  0  0  0  0  0  0  0
  1  2  1  0  0  0  0
  2  3  2  0  0  0  0
  2  7  1  0  0  0  0
  3  4  1  0  0  0  0
  4 15  1  0  0  0  0
  4  5  2  0  0  0  0
  5  8  1  0  0  0  0
  6  5  1  0  0  0  0
  7  6  2  0  0  0  0
  8 12  1  0  0  0  0
  8  9  1  0  0  0  0
  9 10  2  0  0  0  0
 11 10  1  0  0  0  0
 12 11  2  0  0  0  0
 13 12  1  0  0  0  0
 13 21  1  0  0  0  0
 14 23  1  0  0  0  0
 14 13  1  0  0  0  0
 15 14  1  0  0  0  0
 16 15  2  0  0  0  0
 17 18  1  0  0  0  0
 17 13  1  0  0  0  0
 18 19  1  0  0  0  0
 19 20  1  0  0  0  0
 21 20  1  0  0  0  0
 22 19  1  0  0  0  0
M  END
>  <Pose>
1

>  <Score>
-9.053

$$$$
