/Users/jonathanwahrer/Desktop/Msc/3_Semester/Drug_Design_Praktikum/waehrer_HTS_screening/HTS_experiment/out/docking_results/vina_output/3e7o/0592_docked.pdbqt
 OpenBabel03192215463D

 27 30  0  0  1  0  0  0  0  0999 V2000
  -38.7100  -70.1620   51.8370 Br  0  0  0  0  0  0  0  0  0  0  0  0
  -38.9350  -68.3590   51.2840 C   0  0  0  0  0  0  0  0  0  0  0  0
  -38.2520  -67.9120   50.1870 C   0  0  0  0  0  3  0  0  0  0  0  0
  -38.4180  -66.5840   49.7810 C   0  0  0  0  0  0  0  0  0  0  0  0
  -39.2520  -65.7820   50.4880 C   0  0  0  0  0  0  0  0  0  0  0  0
  -39.9540  -66.2460   51.6200 C   0  0  0  0  0  3  0  0  0  0  0  0
  -39.7880  -67.5510   52.0160 C   0  0  0  0  0  3  0  0  0  0  0  0
  -39.4500  -64.4620   50.1280 O   0  0  0  0  0  0  0  0  0  0  0  0
  -38.7810  -63.9710   49.0270 C   0  0  0  0  0  0  0  0  0  0  0  0
  -37.9610  -64.6860   48.2950 C   0  0  0  0  0  0  0  0  0  0  0  0
  -37.6890  -66.0850   48.5970 C   0  0  1  0  0  0  0  0  0  0  0  0
  -36.2390  -66.3820   48.6890 C   0  0  0  0  0  0  0  0  0  0  0  0
  -35.9120  -67.2630   47.6960 C   0  0  0  0  0  0  0  0  0  0  0  0
  -34.5760  -67.5340   47.7830 N   0  0  0  0  0  0  0  0  0  0  0  0
  -34.1180  -66.8320   48.8050 N   0  0  0  0  0  0  0  0  0  0  0  0
  -35.0920  -66.1180   49.3840 C   0  0  0  0  0  0  0  0  0  0  0  0
  -34.8920  -65.2230   50.5640 C   0  0  0  0  0  1  0  0  0  0  0  0
  -37.0410  -67.5970   46.9180 N   0  0  0  0  0  0  0  0  0  0  0  0
  -38.1380  -66.8950   47.4440 C   0  0  0  0  0  0  0  0  0  0  0  0
  -39.3280  -66.9230   47.0300 O   0  0  0  0  0  0  0  0  0  0  0  0
  -37.2960  -64.1000   47.1560 C   0  0  0  0  0  0  0  0  0  0  0  0
  -36.7750  -63.6410   46.2300 N   0  0  0  0  0  0  0  0  0  0  0  0
  -33.1020  -66.8670   49.0850 H   0  0  0  0  0  0  0  0  0  0  0  0
  -37.0370  -68.2690   46.0810 H   0  0  0  0  0  0  0  0  0  0  0  0
  -38.9970  -62.5980   48.6660 N   0  0  0  0  0  0  0  0  0  0  0  0
  -38.5080  -61.8440   49.1950 H   0  0  0  0  0  0  0  0  0  0  0  0
  -39.6330  -62.3180   47.8850 H   0  0  0  0  0  0  0  0  0  0  0  0
  2  1  1  0  0  0  0
  2  7  1  0  0  0  0
  3  2  2  0  0  0  0
  4  3  1  0  0  0  0
  4  5  2  0  0  0  0
  5  6  1  0  0  0  0
  6  7  2  0  0  0  0
  8  5  1  0  0  0  0
  9  8  1  0  0  0  0
 10 11  1  0  0  0  0
 10  9  2  0  0  0  0
 11 19  1  6  0  0  0
 11 12  1  0  0  0  0
 11  4  1  0  0  0  0
 12 16  2  0  0  0  0
 13 14  2  0  0  0  0
 13 12  1  0  0  0  0
 14 15  1  0  0  0  0
 15 23  1  0  0  0  0
 15 16  1  0  0  0  0
 16 17  1  0  0  0  0
 18 19  1  0  0  0  0
 18 13  1  0  0  0  0
 20 19  2  0  0  0  0
 21 10  1  0  0  0  0
 22 21  3  0  0  0  0
 24 18  1  0  0  0  0
 25  9  1  0  0  0  0
 25 26  1  0  0  0  0
 27 25  1  0  0  0  0
M  END
>  <Pose>
1

>  <Score>
-7.029

$$$$
