/Users/jonathanwahrer/Desktop/Msc/3_Semester/Drug_Design_Praktikum/waehrer_HTS_screening/HTS_experiment/out/docking_results/vina_output/3e7o/0610_docked.pdbqt
 OpenBabel03192215463D

 32 35  0  0  0  0  0  0  0  0999 V2000
  -44.3230  -62.7800   46.8960 Br  0  0  0  0  0  0  0  0  0  0  0  0
  -42.4210  -62.7670   47.0480 C   0  0  0  0  0  0  0  0  0  0  0  0
  -41.7870  -63.4210   48.1000 C   0  0  0  0  0  3  0  0  0  0  0  0
  -40.4030  -63.4130   48.2100 C   0  0  0  0  0  0  0  0  0  0  0  0
  -39.6420  -62.7510   47.2720 C   0  0  0  0  0  0  0  0  0  0  0  0
  -38.2890  -62.7450   47.3760 N   0  0  0  0  0  0  0  0  0  0  0  0
  -37.6530  -63.3740   48.3810 C   0  0  0  0  0  0  0  0  0  0  0  0
  -38.4090  -64.0110   49.2830 N   0  0  0  0  0  0  0  0  0  0  0  0
  -39.7530  -64.0570   49.2420 C   0  0  0  0  0  0  0  0  0  0  0  0
  -40.2970  -62.1050   46.2320 C   0  0  0  0  0  3  0  0  0  0  0  0
  -41.6690  -62.1010   46.1030 C   0  0  0  0  0  3  0  0  0  0  0  0
  -36.2220  -63.3480   48.4560 N   0  0  0  0  0  4  0  0  0  0  0  0
  -35.6560  -63.9590   47.2840 C   0  0  0  0  0  2  0  0  0  0  0  0
  -35.7410  -65.4480   47.2630 C   0  0  0  0  0  2  0  0  0  0  0  0
  -36.0910  -66.0020   48.5520 N   0  0  0  0  0  0  0  0  0  0  0  0
  -35.5250  -65.3530   49.7140 C   0  0  0  0  0  2  0  0  0  0  0  0
  -36.9510  -67.1260   48.5980 C   0  0  0  0  0  0  0  0  0  0  0  0
  -35.7100  -63.8680   49.6870 C   0  0  0  0  0  2  0  0  0  0  0  0
  -37.4030  -67.6330   47.5490 O   0  0  0  0  0  0  0  0  0  0  0  0
  -35.9740  -62.3150   48.3870 H   0  0  0  0  0  0  0  0  0  0  0  0
  -37.2780  -67.6580   49.9530 C   0  0  0  0  0  2  0  0  0  0  0  0
  -36.7040  -69.0280   50.1590 C   0  0  0  0  0  2  0  0  0  0  0  0
  -35.6120  -69.0590   51.1430 C   0  0  0  0  0  0  0  0  0  0  0  0
  -34.4500  -68.7130   50.8410 O   0  0  0  0  0  0  0  0  0  0  0  0
  -35.8730  -69.4770   52.4320 O   0  0  0  0  0  1  0  0  0  0  0  0
  -40.4810  -64.7790   50.2730 C   0  0  0  0  0  0  0  0  0  0  0  0
  -40.8770  -66.0930   50.0640 C   0  0  0  0  0  0  0  0  0  0  0  0
  -41.5570  -66.8140   51.0220 C   0  0  0  0  0  3  0  0  0  0  0  0
  -40.4860  -66.8380   48.5120 Cl  0  0  0  0  0  0  0  0  0  0  0  0
  -41.8740  -66.2520   52.2420 C   0  0  0  0  0  3  0  0  0  0  0  0
  -41.4770  -64.9370   52.4500 C   0  0  0  0  0  3  0  0  0  0  0  0
  -40.7980  -64.2240   51.4860 C   0  0  0  0  0  3  0  0  0  0  0  0
  1  2  1  0  0  0  0
  2  3  1  0  0  0  0
  3  4  2  0  0  0  0
  4  9  1  0  0  0  0
  5  6  1  0  0  0  0
  5  4  1  0  0  0  0
  6  7  2  0  0  0  0
  7 12  1  0  0  0  0
  7  8  1  0  0  0  0
  9  8  2  0  0  0  0
  9 26  1  0  0  0  0
 10  5  2  0  0  0  0
 11 10  1  0  0  0  0
 11  2  2  0  0  0  0
 12 18  1  0  0  0  0
 13 12  1  0  0  0  0
 14 13  1  0  0  0  0
 14 15  1  0  0  0  0
 15 17  1  0  0  0  0
 15 16  1  0  0  0  0
 17 21  1  0  0  0  0
 18 16  1  0  0  0  0
 19 17  2  0  0  0  0
 20 12  1  0  0  0  0
 21 22  1  0  0  0  0
 22 23  1  0  0  0  0
 23 25  1  0  0  0  0
 24 23  2  0  0  0  0
 26 32  1  0  0  0  0
 27 26  2  0  0  0  0
 27 28  1  0  0  0  0
 28 30  2  0  0  0  0
 29 27  1  0  0  0  0
 30 31  1  0  0  0  0
 32 31  2  0  0  0  0
M  END
>  <Pose>
1

>  <Score>
-6.651

$$$$
