/Users/jonathanwahrer/Desktop/Msc/3_Semester/Drug_Design_Praktikum/waehrer_HTS_screening/HTS_experiment/out/docking_results/vina_output/3e7o/0611_docked.pdbqt
 OpenBabel03192215473D

 33 36  0  0  0  0  0  0  0  0999 V2000
  -45.3460  -66.3790   53.9480 Br  0  0  0  0  0  0  0  0  0  0  0  0
  -43.9370  -65.8930   52.7500 C   0  0  0  0  0  0  0  0  0  0  0  0
  -42.7040  -66.5200   52.7740 C   0  0  0  0  0  3  0  0  0  0  0  0
  -41.6700  -66.1940   51.9240 C   0  0  0  0  0  0  0  0  0  0  0  0
  -41.8440  -65.1910   50.9880 C   0  0  0  0  0  0  0  0  0  0  0  0
  -40.8360  -64.8490   50.1470 N   0  0  0  0  0  0  0  0  0  0  0  0
  -39.6370  -65.4530   50.1760 C   0  0  0  0  0  0  0  0  0  0  0  0
  -39.4660  -66.4300   51.0860 N   0  0  0  0  0  0  0  0  0  0  0  0
  -40.4390  -66.8090   51.9470 C   0  0  0  0  0  0  0  0  0  0  0  0
  -43.0690  -64.5620   50.9550 C   0  0  0  0  0  3  0  0  0  0  0  0
  -44.1080  -64.8950   51.8150 C   0  0  0  0  0  3  0  0  0  0  0  0
  -38.6020  -65.0680   49.2780 N   0  0  0  0  0  4  0  0  0  0  0  0
  -38.3020  -63.6590   49.4060 C   0  0  0  0  0  2  0  0  0  0  0  0
  -36.9550  -63.4040   48.8070 C   0  0  0  0  0  2  0  0  0  0  0  0
  -36.5850  -64.5460   47.9960 N   0  0  0  0  0  0  0  0  0  0  0  0
  -37.6040  -65.0980   47.1210 C   0  0  0  0  0  2  0  0  0  0  0  0
  -35.2800  -65.0570   48.0930 C   0  0  0  0  0  0  0  0  0  0  0  0
  -38.9080  -65.3260   47.8950 C   0  0  0  0  0  2  0  0  0  0  0  0
  -34.9850  -66.0500   47.3830 O   0  0  0  0  0  0  0  0  0  0  0  0
  -37.7580  -65.6250   49.5260 H   0  0  0  0  0  0  0  0  0  0  0  0
  -34.2720  -64.4770   48.9830 C   0  0  0  0  0  2  0  0  0  0  0  0
  -33.4270  -65.5670   49.5760 C   0  0  0  0  0  2  0  0  0  0  0  0
  -34.0880  -66.2360   50.7610 C   0  0  0  0  0  2  0  0  0  0  0  0
  -34.2220  -67.6980   50.6010 C   0  0  0  0  0  0  0  0  0  0  0  0
  -35.2380  -68.1220   50.0020 O   0  0  0  0  0  0  0  0  0  0  0  0
  -33.2460  -68.5450   51.1030 O   0  0  0  0  0  1  0  0  0  0  0  0
  -40.2000  -67.8700   52.9140 C   0  0  0  0  0  0  0  0  0  0  0  0
  -39.4560  -68.9950   52.5960 C   0  0  0  0  0  0  0  0  0  0  0  0
  -39.2370  -70.0200   53.4990 C   0  0  0  0  0  3  0  0  0  0  0  0
  -38.7610  -69.1370   50.9890 Cl  0  0  0  0  0  0  0  0  0  0  0  0
  -39.8010  -69.8870   54.7740 C   0  0  0  0  0  3  0  0  0  0  0  0
  -40.5460  -68.7810   55.1230 C   0  0  0  0  0  3  0  0  0  0  0  0
  -40.7350  -67.8000   54.2020 C   0  0  0  0  0  3  0  0  0  0  0  0
  2  3  1  0  0  0  0
  2  1  1  0  0  0  0
  4  9  1  0  0  0  0
  4  3  2  0  0  0  0
  5  4  1  0  0  0  0
  6  7  2  0  0  0  0
  6  5  1  0  0  0  0
  7  8  1  0  0  0  0
  8  9  2  0  0  0  0
  9 27  1  0  0  0  0
 10  5  2  0  0  0  0
 10 11  1  0  0  0  0
 11  2  2  0  0  0  0
 12 13  1  0  0  0  0
 12 20  1  0  0  0  0
 12  7  1  0  0  0  0
 14 13  1  0  0  0  0
 15 17  1  0  0  0  0
 15 14  1  0  0  0  0
 16 18  1  0  0  0  0
 16 15  1  0  0  0  0
 17 21  1  0  0  0  0
 18 12  1  0  0  0  0
 19 17  2  0  0  0  0
 21 22  1  0  0  0  0
 22 23  1  0  0  0  0
 24 23  1  0  0  0  0
 24 26  1  0  0  0  0
 25 24  2  0  0  0  0
 27 33  1  0  0  0  0
 28 27  2  0  0  0  0
 28 29  1  0  0  0  0
 29 31  2  0  0  0  0
 30 28  1  0  0  0  0
 31 32  1  0  0  0  0
 33 32  2  0  0  0  0
M  END
>  <Pose>
1

>  <Score>
-8.528

$$$$
