/Users/jonathanwahrer/Desktop/Msc/3_Semester/Drug_Design_Praktikum/waehrer_HTS_screening/HTS_experiment/out/docking_results/vina_output/3e7o/0616_docked.pdbqt
 OpenBabel03192215473D

 28 31  0  0  0  0  0  0  0  0999 V2000
  -38.3790  -68.5470   50.9670 C   0  0  0  0  0  0  0  0  0  0  0  0
  -37.7880  -69.6760   51.1680 O   0  0  0  0  0  0  0  0  0  0  0  0
  -37.8400  -67.7560   49.9520 N   0  0  0  0  0  0  0  0  0  0  0  0
  -38.3040  -66.4570   49.5450 C   0  0  0  0  0  2  0  0  0  0  0  0
  -37.4340  -65.8540   48.4340 C   0  0  0  0  0  2  0  0  0  0  0  0
  -36.0370  -65.9870   48.8170 N   0  0  0  0  0  0  0  0  0  0  0  0
  -35.5590  -67.2430   49.3980 C   0  0  0  0  0  2  0  0  0  0  0  0
  -36.6780  -68.2630   49.1750 C   0  0  0  0  0  2  0  0  0  0  0  0
  -35.1260  -64.9220   48.6440 C   0  0  0  0  0  0  0  0  0  0  0  0
  -35.5740  -63.8600   48.1490 O   0  0  0  0  0  0  0  0  0  0  0  0
  -39.5210  -68.2110   51.7930 C   0  0  0  0  0  0  0  0  0  0  0  0
  -39.8390  -68.5240   53.0520 N   0  0  0  0  0  0  0  0  0  0  0  0
  -41.0440  -67.9800   53.4080 C   0  0  0  0  0  0  0  0  0  0  0  0
  -39.2970  -69.0900   53.7210 H   0  0  0  0  0  0  0  0  0  0  0  0
  -41.5330  -67.2810   52.3390 C   0  0  0  0  0  0  0  0  0  0  0  0
  -41.7800  -68.0210   54.5770 C   0  0  0  0  0  3  0  0  0  0  0  0
  -42.7630  -66.6240   52.4430 C   0  0  0  0  0  3  0  0  0  0  0  0
  -40.6070  -67.4170   51.3440 C   0  0  0  0  0  3  0  0  0  0  0  0
  -43.5000  -66.6610   53.5980 C   0  0  0  0  0  0  0  0  0  0  0  0
  -45.1880  -65.7640   53.7530 Br  0  0  0  0  0  0  0  0  0  0  0  0
  -43.0000  -67.3660   54.6710 C   0  0  0  0  0  3  0  0  0  0  0  0
  -33.7380  -65.0980   49.0390 C   0  0  0  0  0  2  0  0  0  0  0  0
  -32.7740  -64.9660   47.9690 N   0  0  0  0  0  0  0  0  0  0  0  0
  -33.2450  -65.7280   46.8100 C   0  0  0  0  0  2  0  0  0  0  0  0
  -32.6140  -67.0770   46.7630 C   0  0  0  0  0  2  0  0  0  0  0  0
  -32.4320  -67.5810   48.0480 O   0  0  0  0  0  0  0  0  0  0  0  0
  -31.4410  -66.8740   48.7330 C   0  0  0  0  0  2  0  0  0  0  0  0
  -31.4450  -65.4130   48.3450 C   0  0  0  0  0  2  0  0  0  0  0  0
  1  2  2  0  0  0  0
  1 11  1  0  0  0  0
  3  1  1  0  0  0  0
  4  3  1  0  0  0  0
  5  6  1  0  0  0  0
  5  4  1  0  0  0  0
  6  7  1  0  0  0  0
  8  7  1  0  0  0  0
  8  3  1  0  0  0  0
  9  6  1  0  0  0  0
  9 22  1  0  0  0  0
 10  9  2  0  0  0  0
 11 12  1  0  0  0  0
 12 13  1  0  0  0  0
 12 14  1  0  0  0  0
 13 16  1  0  0  0  0
 15 17  1  0  0  0  0
 15 13  2  0  0  0  0
 16 21  2  0  0  0  0
 17 19  2  0  0  0  0
 18 11  2  0  0  0  0
 18 15  1  0  0  0  0
 19 20  1  0  0  0  0
 19 21  1  0  0  0  0
 23 28  1  0  0  0  0
 23 22  1  0  0  0  0
 24 23  1  0  0  0  0
 25 24  1  0  0  0  0
 25 26  1  0  0  0  0
 26 27  1  0  0  0  0
 28 27  1  0  0  0  0
M  END
>  <Pose>
1

>  <Score>
-8.169

$$$$
