/Users/jonathanwahrer/Desktop/Msc/3_Semester/Drug_Design_Praktikum/waehrer_HTS_screening/HTS_experiment/out/docking_results/vina_output/3e7o/0624_docked.pdbqt
 OpenBabel03192215473D

 22 25  0  0  0  0  0  0  0  0999 V2000
  -38.9660  -70.3060   54.0780 Br  0  0  0  0  0  0  0  0  0  0  0  0
  -38.9410  -69.2590   52.4870 C   0  0  0  0  0  0  0  0  0  0  0  0
  -40.1010  -68.6310   52.0850 C   0  0  0  0  0  3  0  0  0  0  0  0
  -40.1160  -67.8550   50.9190 C   0  0  0  0  0  0  0  0  0  0  0  0
  -38.9640  -67.7420   50.2090 C   0  0  0  0  0  0  0  0  0  0  0  0
  -37.7820  -68.3500   50.5710 C   0  0  0  0  0  0  0  0  0  0  0  0
  -37.7920  -69.1050   51.7150 C   0  0  0  0  0  3  0  0  0  0  0  0
  -36.6950  -68.1520   49.7620 C   0  0  0  0  0  0  0  0  0  0  0  0
  -35.6230  -68.6940   50.0770 O   0  0  0  0  0  0  0  0  0  0  0  0
  -36.7470  -67.3750   48.6140 C   0  0  0  0  0  0  0  0  0  0  0  0
  -37.9590  -66.7950   48.3090 C   0  0  0  0  0  3  0  0  0  0  0  0
  -39.0540  -66.9880   49.1120 N   0  0  0  0  0  0  0  0  0  0  0  0
  -40.4160  -66.5100   49.0300 C   0  0  0  0  0  3  0  0  0  0  0  0
  -41.1480  -67.0710   50.2190 C   0  0  0  0  0  3  0  0  0  0  0  0
  -35.5790  -67.1740   47.7640 C   0  0  0  0  0  0  0  0  0  0  0  0
  -35.3320  -68.0040   46.8590 O   0  0  0  0  0  0  0  0  0  0  0  0
  -34.7190  -66.0420   47.9540 N   0  0  0  0  0  0  0  0  0  0  0  0
  -33.5540  -65.8190   47.1240 C   0  0  0  0  0  2  0  0  0  0  0  0
  -34.9840  -65.0680   48.9940 C   0  0  0  0  0  2  0  0  0  0  0  0
  -32.3710  -65.6610   48.0880 C   0  0  0  0  0  2  0  0  0  0  0  0
  -32.6670  -64.6920   49.0160 O   0  0  0  0  0  0  0  0  0  0  0  0
  -33.7170  -65.0100   49.8510 C   0  0  0  0  0  2  0  0  0  0  0  0
  2  1  1  0  0  0  0
  3  2  1  0  0  0  0
  4  3  2  0  0  0  0
  5  6  2  0  0  0  0
  5  4  1  0  0  0  0
  6  7  1  0  0  0  0
  7  2  2  0  0  0  0
  8  9  2  0  0  0  0
  8  6  1  0  0  0  0
 10  8  1  0  0  0  0
 11 10  2  0  0  0  0
 11 12  1  0  0  0  0
 12  5  1  0  0  0  0
 13 12  1  0  0  0  0
 13 14  2  0  0  0  0
 14  4  1  0  0  0  0
 15 17  1  0  0  0  0
 15 10  1  0  0  0  0
 16 15  2  0  0  0  0
 17 19  1  0  0  0  0
 18 17  1  0  0  0  0
 18 20  1  0  0  0  0
 19 22  1  0  0  0  0
 20 21  1  0  0  0  0
 21 22  1  0  0  0  0
M  END
>  <Pose>
1

>  <Score>
-8.324

$$$$
