/Users/jonathanwahrer/Desktop/Msc/3_Semester/Drug_Design_Praktikum/waehrer_HTS_screening/HTS_experiment/out/docking_results/vina_output/3e7o/0626_docked.pdbqt
 OpenBabel03192215483D

 32 35  0  0  0  0  0  0  0  0999 V2000
  -36.1090  -66.6930   50.1970 N   0  0  0  0  0  0  0  0  0  0  0  0
  -36.4050  -67.9450   49.6420 C   0  0  0  0  0  0  0  0  0  0  0  0
  -36.1620  -68.1740   48.4300 O   0  0  0  0  0  0  0  0  0  0  0  0
  -36.3340  -66.6000   51.2340 H   0  0  0  0  0  0  0  0  0  0  0  0
  -37.0010  -69.0530   50.3960 C   0  0  0  0  0  2  0  0  0  0  0  0
  -38.0280  -68.7590   51.3130 N   0  0  0  0  0  0  0  0  0  0  0  0
  -39.2310  -68.1950   50.8180 C   0  0  0  0  0  2  0  0  0  0  0  0
  -40.0430  -67.5090   51.9170 C   0  0  0  0  0  2  0  0  0  0  0  0
  -40.2420  -68.4340   52.9500 N   0  0  0  0  0  0  0  0  0  0  0  0
  -39.5870  -69.6820   52.8800 C   0  0  0  0  0  2  0  0  0  0  0  0
  -38.1670  -69.6690   52.4000 C   0  0  0  0  0  2  0  0  0  0  0  0
  -40.6620  -67.9250   54.1760 C   0  0  0  0  0  2  0  0  0  0  0  0
  -42.0890  -67.6750   54.3810 C   0  0  0  0  0  0  0  0  0  0  0  0
  -42.7090  -68.5750   55.0700 O   0  0  0  0  0  0  0  0  0  0  0  0
  -42.8460  -66.5990   53.9320 N   0  0  0  0  0  0  0  0  0  0  0  0
  -42.4020  -65.8370   53.3800 H   0  0  0  0  0  0  0  0  0  0  0  0
  -44.2740  -66.4560   54.2010 C   0  0  0  0  0  3  0  0  0  0  0  0
  -45.0510  -65.3610   53.5980 C   0  0  0  0  0  2  0  0  0  0  0  0
  -45.2350  -66.7740   53.0760 C   0  0  0  0  0  2  0  0  0  0  0  0
  -35.5410  -65.5760   49.5460 C   0  0  0  0  0  0  0  0  0  0  0  0
  -36.3710  -64.5510   49.1200 C   0  0  0  0  0  0  0  0  0  0  0  0
  -38.2540  -64.7480   49.4300 Br  0  0  0  0  0  0  0  0  0  0  0  0
  -35.9170  -63.4160   48.4880 C   0  0  0  0  0  3  0  0  0  0  0  0
  -34.5770  -63.2430   48.2410 C   0  0  0  0  0  0  0  0  0  0  0  0
  -33.8140  -62.2940   47.6680 N   0  0  0  0  0  0  0  0  0  0  0  0
  -33.7410  -64.2430   48.6510 C   0  0  0  0  0  0  0  0  0  0  0  0
  -32.5170  -62.6530   47.6980 C   0  0  0  0  0  0  0  0  0  0  0  0
  -32.4970  -63.8520   48.3060 N   0  0  0  0  0  0  0  0  0  0  0  0
  -31.6270  -64.4240   48.4950 H   0  0  0  0  0  0  0  0  0  0  0  0
  -34.1990  -65.4010   49.2960 C   0  0  0  0  0  3  0  0  0  0  0  0
  -31.4260  -61.9160   47.1960 O   0  0  0  0  0  0  0  0  0  0  0  0
  -31.5530  -61.5420   46.2460 H   0  0  0  0  0  0  0  0  0  0  0  0
  1  4  1  0  0  0  0
  2  1  1  0  0  0  0
  2  5  1  0  0  0  0
  3  2  2  0  0  0  0
  5  6  1  0  0  0  0
  6 11  1  0  0  0  0
  7  6  1  0  0  0  0
  7  8  1  0  0  0  0
  8  9  1  0  0  0  0
  9 12  1  0  0  0  0
 10  9  1  0  0  0  0
 11 10  1  0  0  0  0
 12 13  1  0  0  0  0
 13 14  2  0  0  0  0
 15 17  1  0  0  0  0
 15 13  1  0  0  0  0
 16 15  1  0  0  0  0
 18 17  1  0  0  0  0
 19 18  1  0  0  0  0
 19 17  1  0  0  0  0
 20  1  1  0  0  0  0
 21 22  1  0  0  0  0
 21 20  2  0  0  0  0
 23 21  1  0  0  0  0
 24 23  2  0  0  0  0
 24 26  1  0  0  0  0
 25 27  2  0  0  0  0
 25 24  1  0  0  0  0
 26 30  2  0  0  0  0
 27 28  1  0  0  0  0
 28 29  1  0  0  0  0
 28 26  1  0  0  0  0
 30 20  1  0  0  0  0
 31 27  1  0  0  0  0
 32 31  1  0  0  0  0
M  END
>  <Pose>
1

>  <Score>
-7.436

$$$$
