/Users/jonathanwahrer/Desktop/Msc/3_Semester/Drug_Design_Praktikum/waehrer_HTS_screening/HTS_experiment/out/docking_results/vina_output/3e7o/0631_docked.pdbqt
 OpenBabel03192215483D

 29 32  0  0  1  0  0  0  0  0999 V2000
  -41.6050  -66.9460   53.1960 N   0  0  0  0  0  0  0  0  0  0  0  0
  -40.4720  -67.1460   52.2660 C   0  0  0  0  0  2  0  0  0  0  0  0
  -40.4020  -68.6590   52.1350 C   0  0  2  0  0  3  0  0  0  0  0  0
  -40.8420  -69.1340   53.5040 C   0  0  0  0  0  2  0  0  0  0  0  0
  -41.5300  -67.9930   54.1610 C   0  0  0  0  0  0  0  0  0  0  0  0
  -41.9610  -67.9410   55.3210 O   0  0  0  0  0  0  0  0  0  0  0  0
  -39.0000  -68.9600   51.8060 C   0  0  0  0  0  0  0  0  0  0  0  0
  -38.3310  -69.7670   52.4920 O   0  0  0  0  0  0  0  0  0  0  0  0
  -38.4220  -68.3110   50.6810 N   0  0  0  0  0  0  0  0  0  0  0  0
  -39.0110  -67.6440   50.1450 H   0  0  0  0  0  0  0  0  0  0  0  0
  -37.0540  -68.5560   50.2820 C   0  0  0  0  0  2  0  0  0  0  0  0
  -36.3610  -67.3080   49.7780 C   0  0  0  0  0  2  0  0  0  0  0  0
  -35.9740  -67.4580   48.3620 C   0  0  0  0  0  0  0  0  0  0  0  0
  -34.7030  -67.4440   47.9290 N   0  0  0  0  0  0  0  0  0  0  0  0
  -34.6680  -67.6050   46.6060 C   0  0  0  0  0  3  0  0  0  0  0  0
  -35.9510  -67.7270   46.1720 N   0  0  0  0  0  0  0  0  0  0  0  0
  -36.7370  -67.6360   47.2500 C   0  0  0  0  0  3  0  0  0  0  0  0
  -36.1910  -67.8630   45.1640 H   0  0  0  0  0  0  0  0  0  0  0  0
  -42.5210  -65.8920   53.0250 C   0  0  0  0  0  0  0  0  0  0  0  0
  -42.3160  -64.5930   52.7640 N   0  0  0  0  0  0  0  0  0  0  0  0
  -43.4680  -63.9350   52.6730 N   0  0  0  0  0  0  0  0  0  0  0  0
  -41.3950  -64.1280   52.6430 H   0  0  0  0  0  0  0  0  0  0  0  0
  -44.4910  -64.7850   52.8720 C   0  0  0  0  0  0  0  0  0  0  0  0
  -45.8560  -64.6170   52.8830 C   0  0  0  0  0  3  0  0  0  0  0  0
  -43.9230  -66.0100   53.0940 C   0  0  0  0  0  0  0  0  0  0  0  0
  -46.6400  -65.7430   53.1260 C   0  0  0  0  0  0  0  0  0  0  0  0
  -48.5510  -65.6220   53.1620 Br  0  0  0  0  0  0  0  0  0  0  0  0
  -46.0480  -66.9780   53.3490 C   0  0  0  0  0  3  0  0  0  0  0  0
  -44.6830  -67.1200   53.3340 C   0  0  0  0  0  3  0  0  0  0  0  0
  1  5  1  0  0  0  0
  2  1  1  0  0  0  0
  3  7  1  1  0  0  0
  3  2  1  0  0  0  0
  3  4  1  0  0  0  0
  4  5  1  0  0  0  0
  5  6  2  0  0  0  0
  7  8  2  0  0  0  0
  9  7  1  0  0  0  0
 10  9  1  0  0  0  0
 11  9  1  0  0  0  0
 12 11  1  0  0  0  0
 13 12  1  0  0  0  0
 14 13  1  0  0  0  0
 15 14  2  0  0  0  0
 16 15  1  0  0  0  0
 16 17  1  0  0  0  0
 17 13  2  0  0  0  0
 18 16  1  0  0  0  0
 19 25  2  0  0  0  0
 19  1  1  0  0  0  0
 20 19  1  0  0  0  0
 21 20  1  0  0  0  0
 21 23  2  0  0  0  0
 22 20  1  0  0  0  0
 23 24  1  0  0  0  0
 23 25  1  0  0  0  0
 24 26  2  0  0  0  0
 25 29  1  0  0  0  0
 26 27  1  0  0  0  0
 26 28  1  0  0  0  0
 29 28  2  0  0  0  0
M  END
>  <Pose>
1

>  <Score>
-8.584

$$$$
