/Users/jonathanwahrer/Desktop/Msc/3_Semester/Drug_Design_Praktikum/waehrer_HTS_screening/HTS_experiment/out/docking_results/vina_output/3e7o/0648_docked.pdbqt
 OpenBabel03192215483D

 32 35  0  0  0  0  0  0  0  0999 V2000
  -34.4190  -64.5170   47.7750 C   0  0  0  0  0  0  0  0  0  0  0  0
  -33.6580  -64.7990   48.7700 O   0  0  0  0  0  0  0  0  0  0  0  0
  -35.6190  -63.9150   48.0450 N   0  0  0  0  0  0  0  0  0  0  0  0
  -36.6050  -63.5410   47.0790 C   0  0  0  0  0  2  0  0  0  0  0  0
  -37.7720  -64.4640   47.2010 C   0  0  0  0  0  2  0  0  0  0  0  0
  -37.8920  -65.0000   48.5490 N   0  0  0  0  0  0  0  0  0  0  0  0
  -37.3220  -64.3720   49.6950 C   0  0  0  0  0  2  0  0  0  0  0  0
  -36.0350  -63.5990   49.4270 C   0  0  0  0  0  2  0  0  0  0  0  0
  -38.5860  -66.2550   48.6080 C   0  0  0  0  0  0  0  0  0  0  0  0
  -38.9310  -66.7860   47.4710 O   0  0  0  0  0  0  0  0  0  0  0  0
  -38.9160  -66.9480   49.8050 C   0  0  0  0  0  0  0  0  0  0  0  0
  -38.1060  -67.9310   50.3590 N   0  0  0  0  0  0  0  0  0  0  0  0
  -38.6790  -68.4320   51.4050 N   0  0  0  0  0  0  0  0  0  0  0  0
  -36.8160  -68.3390   49.8550 C   0  0  0  0  0  1  0  0  0  0  0  0
  -39.8580  -67.8610   51.6310 C   0  0  0  0  0  0  0  0  0  0  0  0
  -40.0060  -66.9100   50.6010 C   0  0  0  0  0  3  0  0  0  0  0  0
  -40.8140  -68.1000   52.6970 C   0  0  0  0  0  0  0  0  0  0  0  0
  -40.8660  -69.2970   53.1560 O   0  0  0  0  0  0  0  0  0  0  0  0
  -41.6630  -67.1520   53.2470 N   0  0  0  0  0  0  0  0  0  0  0  0
  -42.5490  -67.5700   54.3380 C   0  0  0  0  0  2  0  0  0  0  0  0
  -41.7570  -65.7920   52.8160 C   0  0  0  0  0  2  0  0  0  0  0  0
  -43.9440  -67.1610   53.9150 C   0  0  0  0  0  2  0  0  0  0  0  0
  -43.9320  -65.7540   53.9040 O   0  0  0  0  0  0  0  0  0  0  0  0
  -43.1990  -65.3030   52.8410 C   0  0  0  0  0  2  0  0  0  0  0  0
  -33.9060  -64.8780   46.4780 C   0  0  0  0  0  0  0  0  0  0  0  0
  -34.1140  -66.0710   45.7790 C   0  0  0  0  0  0  0  0  0  0  0  0
  -35.1750  -67.5360   46.4340 Br  0  0  0  0  0  0  0  0  0  0  0  0
  -33.4480  -66.0030   44.5850 C   0  0  0  0  0  3  0  0  0  0  0  0
  -32.8440  -64.8110   44.5380 N   0  0  0  0  0  0  0  0  0  0  0  0
  -33.1090  -64.1560   45.6370 N   0  0  0  0  0  0  0  0  0  0  0  0
  -32.0330  -64.4050   43.3970 C   0  0  0  0  0  2  0  0  0  0  0  0
  -31.5290  -65.5720   42.5910 C   0  0  0  0  0  1  0  0  0  0  0  0
  1  3  1  0  0  0  0
  1  2  2  0  0  0  0
  3  8  1  0  0  0  0
  4  5  1  0  0  0  0
  4  3  1  0  0  0  0
  5  6  1  0  0  0  0
  6  9  1  0  0  0  0
  6  7  1  0  0  0  0
  8  7  1  0  0  0  0
  9 11  1  0  0  0  0
 10  9  2  0  0  0  0
 11 12  1  0  0  0  0
 11 16  2  0  0  0  0
 12 13  1  0  0  0  0
 13 15  2  0  0  0  0
 14 12  1  0  0  0  0
 15 17  1  0  0  0  0
 16 15  1  0  0  0  0
 17 18  2  0  0  0  0
 17 19  1  0  0  0  0
 19 20  1  0  0  0  0
 21 24  1  0  0  0  0
 21 19  1  0  0  0  0
 22 20  1  0  0  0  0
 23 22  1  0  0  0  0
 24 23  1  0  0  0  0
 25  1  1  0  0  0  0
 26 27  1  0  0  0  0
 26 25  1  0  0  0  0
 28 26  2  0  0  0  0
 29 28  1  0  0  0  0
 29 30  1  0  0  0  0
 30 25  2  0  0  0  0
 31 29  1  0  0  0  0
 32 31  1  0  0  0  0
M  END
>  <Pose>
1

>  <Score>
-7.205

$$$$
