/Users/jonathanwahrer/Desktop/Msc/3_Semester/Drug_Design_Praktikum/waehrer_HTS_screening/HTS_experiment/out/docking_results/vina_output/3e7o/0653_docked.pdbqt
 OpenBabel03192215483D

 29 32  0  0  0  0  0  0  0  0999 V2000
  -41.0440  -66.3680   51.9210 C   0  0  0  0  0  0  0  0  0  0  0  0
  -41.5900  -67.1400   52.9150 C   0  0  0  0  0  0  0  0  0  0  0  0
  -41.0610  -68.3770   53.2360 C   0  0  0  0  0  0  0  0  0  0  0  0
  -39.9670  -68.8740   52.5640 C   0  0  0  0  0  0  0  0  0  0  0  0
  -39.3970  -68.0930   51.5410 C   0  0  0  0  0  0  0  0  0  0  0  0
  -39.9210  -66.8670   51.2250 C   0  0  0  0  0  0  0  0  0  0  0  0
  -39.3120  -66.0600   50.1650 C   0  0  0  0  0  2  0  0  0  0  0  0
  -38.4800  -66.7580   49.1640 C   0  0  0  0  0  2  0  0  0  0  0  0
  -37.7370  -67.8910   49.7010 N   0  0  0  0  0  0  0  0  0  0  0  0
  -38.2780  -68.6410   50.7810 C   0  0  0  0  0  0  0  0  0  0  0  0
  -37.7760  -69.7710   51.0590 O   0  0  0  0  0  0  0  0  0  0  0  0
  -36.4730  -68.1990   49.0720 C   0  0  0  0  0  1  0  0  0  0  0  0
  -41.8330  -68.8790   54.2650 O   0  0  0  0  0  0  0  0  0  0  0  0
  -42.7330  -67.9040   54.7280 C   0  0  0  0  0  2  0  0  0  0  0  0
  -42.7010  -66.8700   53.7480 O   0  0  0  0  0  0  0  0  0  0  0  0
  -41.6130  -65.0620   51.5270 C   0  0  0  0  0  2  0  0  0  0  0  0
  -43.0390  -65.1110   51.2570 N   0  0  0  0  0  0  0  0  0  0  0  0
  -44.0570  -64.3550   51.7960 C   0  0  0  0  0  0  0  0  0  0  0  0
  -43.8310  -63.4550   52.6670 O   0  0  0  0  0  0  0  0  0  0  0  0
  -43.2970  -65.8470   50.5260 H   0  0  0  0  0  0  0  0  0  0  0  0
  -45.4700  -64.5630   51.3790 C   0  0  0  0  0  2  0  0  0  0  0  0
  -46.0320  -65.5860   52.2810 N   0  0  0  0  0  0  0  0  0  0  0  0
  -47.1780  -65.5290   52.9520 C   0  0  0  0  0  3  0  0  0  0  0  0
  -47.3140  -66.6960   53.6680 C   0  0  0  0  0  0  0  0  0  0  0  0
  -48.7480  -67.1960   54.8250 Br  0  0  0  0  0  0  0  0  0  0  0  0
  -46.2080  -67.4740   53.4150 C   0  0  0  0  0  3  0  0  0  0  0  0
  -45.4610  -66.7540   52.5650 N   0  0  0  0  0  0  0  0  0  0  0  0
  -39.4100  -70.1060   52.8580 O   0  0  0  0  0  0  0  0  0  0  0  0
  -38.8720  -70.3790   54.1350 C   0  0  0  0  0  1  0  0  0  0  0  0
  1  2  1  0  0  0  0
  2  3  2  0  0  0  0
  2 15  1  0  0  0  0
  3 13  1  0  0  0  0
  4 28  1  0  0  0  0
  4  3  1  0  0  0  0
  5  4  2  0  0  0  0
  6  5  1  0  0  0  0
  6  1  2  0  0  0  0
  7  6  1  0  0  0  0
  8  9  1  0  0  0  0
  8  7  1  0  0  0  0
  9 10  1  0  0  0  0
 10 11  2  0  0  0  0
 10  5  1  0  0  0  0
 12  9  1  0  0  0  0
 13 14  1  0  0  0  0
 15 14  1  0  0  0  0
 16  1  1  0  0  0  0
 17 16  1  0  0  0  0
 17 18  1  0  0  0  0
 18 19  2  0  0  0  0
 20 17  1  0  0  0  0
 21 18  1  0  0  0  0
 21 22  1  0  0  0  0
 22 27  1  0  0  0  0
 22 23  1  0  0  0  0
 23 24  2  0  0  0  0
 24 25  1  0  0  0  0
 26 24  1  0  0  0  0
 27 26  2  0  0  0  0
 28 29  1  0  0  0  0
M  END
>  <Pose>
1

>  <Score>
-8.251

$$$$
