/Users/jonathanwahrer/Desktop/Msc/3_Semester/Drug_Design_Praktikum/waehrer_HTS_screening/HTS_experiment/out/docking_results/vina_output/3e7o/0662_docked.pdbqt
 OpenBabel03192215483D

 25 29  0  0  0  0  0  0  0  0999 V2000
  -39.5830  -68.1530   51.9370 C   0  0  0  0  0  0  0  0  0  0  0  0
  -39.9940  -69.0320   52.8650 N   0  0  0  0  0  0  0  0  0  0  0  0
  -41.0760  -68.5680   53.4900 N   0  0  0  0  0  0  0  0  0  0  0  0
  -41.3720  -67.3530   52.9460 C   0  0  0  0  0  0  0  0  0  0  0  0
  -40.4420  -67.1220   51.9990 N   0  0  0  0  0  0  0  0  0  0  0  0
  -42.4640  -66.6650   53.4330 C   0  0  0  0  0  0  0  0  0  0  0  0
  -43.2670  -67.1610   54.4450 C   0  0  0  0  0  0  0  0  0  0  0  0
  -44.2440  -66.2760   54.7050 N   0  0  0  0  0  0  0  0  0  0  0  0
  -44.0720  -65.2520   53.8850 N   0  0  0  0  0  0  0  0  0  0  0  0
  -42.9970  -65.4510   53.0930 C   0  0  0  0  0  3  0  0  0  0  0  0
  -42.9370  -68.3600   54.9490 N   0  0  0  0  0  0  0  0  0  0  0  0
  -41.8730  -69.0270   54.4730 C   0  0  0  0  0  3  0  0  0  0  0  0
  -45.0080  -66.3550   55.4100 H   0  0  0  0  0  0  0  0  0  0  0  0
  -38.4320  -68.3060   51.0490 C   0  0  0  0  0  0  0  0  0  0  0  0
  -38.2390  -67.7600   49.8370 N   0  0  0  0  0  0  0  0  0  0  0  0
  -37.0750  -68.1260   49.3290 N   0  0  0  0  0  0  0  0  0  0  0  0
  -36.4520  -68.9360   50.2020 C   0  0  0  0  0  3  0  0  0  0  0  0
  -37.3030  -69.0590   51.2960 C   0  0  0  0  0  3  0  0  0  0  0  0
  -36.5520  -67.7120   48.0250 C   0  0  0  0  0  2  0  0  0  0  0  0
  -35.2810  -67.0300   48.1560 N   0  0  0  0  0  0  0  0  0  0  0  0
  -35.0980  -65.7610   48.5540 C   0  0  0  0  0  3  0  0  0  0  0  0
  -33.7440  -65.4960   48.5450 C   0  0  0  0  0  0  0  0  0  0  0  0
  -32.9080  -63.8650   49.0130 Br  0  0  0  0  0  0  0  0  0  0  0  0
  -33.1240  -66.6520   48.1270 C   0  0  0  0  0  3  0  0  0  0  0  0
  -34.0990  -67.5620   47.9020 N   0  0  0  0  0  0  0  0  0  0  0  0
  1  5  1  0  0  0  0
  1  2  2  0  0  0  0
  2  3  1  0  0  0  0
  3 12  1  0  0  0  0
  4  6  1  0  0  0  0
  4  3  1  0  0  0  0
  5  4  2  0  0  0  0
  6  7  2  0  0  0  0
  7  8  1  0  0  0  0
  7 11  1  0  0  0  0
  8 13  1  0  0  0  0
  9  8  1  0  0  0  0
 10  6  1  0  0  0  0
 10  9  2  0  0  0  0
 12 11  2  0  0  0  0
 14 18  1  0  0  0  0
 14  1  1  0  0  0  0
 15 14  2  0  0  0  0
 16 15  1  0  0  0  0
 16 17  1  0  0  0  0
 17 18  2  0  0  0  0
 19 20  1  0  0  0  0
 19 16  1  0  0  0  0
 20 21  1  0  0  0  0
 22 21  2  0  0  0  0
 22 23  1  0  0  0  0
 24 22  1  0  0  0  0
 25 24  2  0  0  0  0
 25 20  1  0  0  0  0
M  END
>  <Pose>
1

>  <Score>
-8.059

$$$$
