/Users/jonathanwahrer/Desktop/Msc/3_Semester/Drug_Design_Praktikum/waehrer_HTS_screening/HTS_experiment/out/docking_results/vina_output/3e7o/0666_docked.pdbqt
 OpenBabel03192215493D

 28 31  0  0  0  0  0  0  0  0999 V2000
  -44.4090  -64.2840   51.7640 C   0  0  0  0  0  0  0  0  0  0  0  0
  -45.3410  -65.1250   52.1050 C   0  0  0  0  0  0  0  0  0  0  0  0
  -44.6700  -66.2510   52.7560 C   0  0  0  0  0  0  0  0  0  0  0  0
  -45.2780  -67.2660   53.2190 O   0  0  0  0  0  0  0  0  0  0  0  0
  -43.2490  -66.0510   52.7980 N   0  0  0  0  0  0  0  0  0  0  0  0
  -43.0710  -64.7860   52.1620 C   0  0  0  0  0  0  0  0  0  0  0  0
  -41.9720  -64.2010   51.9730 O   0  0  0  0  0  0  0  0  0  0  0  0
  -44.5320  -63.0380   51.1060 N   0  0  0  0  0  0  0  0  0  0  0  0
  -44.6420  -62.1750   51.6380 H   0  0  0  0  0  0  0  0  0  0  0  0
  -44.5010  -63.0240   49.6920 C   0  0  0  0  0  0  0  0  0  0  0  0
  -43.3250  -62.9860   49.0100 N   0  0  0  0  0  0  0  0  0  0  0  0
  -43.2430  -62.9560   47.6750 C   0  0  0  0  0  3  0  0  0  0  0  0
  -44.3710  -62.9630   46.8980 C   0  0  0  0  0  0  0  0  0  0  0  0
  -44.2890  -62.9100   44.9890 Br  0  0  0  0  0  0  0  0  0  0  0  0
  -45.5960  -63.0020   47.5230 C   0  0  0  0  0  3  0  0  0  0  0  0
  -45.6480  -63.0330   48.8900 C   0  0  0  0  0  3  0  0  0  0  0  0
  -46.7530  -65.0150   51.9160 N   0  0  0  0  0  0  0  0  0  0  0  0
  -47.4920  -64.2950   52.7800 C   0  0  0  0  0  2  0  0  0  0  0  0
  -48.8840  -64.1750   52.6280 C   0  0  0  0  0  3  0  0  0  0  0  0
  -49.5190  -64.8050   51.5740 C   0  0  0  0  0  3  0  0  0  0  0  0
  -48.7400  -65.5370   50.7030 C   0  0  0  0  0  3  0  0  0  0  0  0
  -47.3850  -65.6290   50.8870 C   0  0  0  0  0  3  0  0  0  0  0  0
  -42.2670  -66.9210   53.3380 C   0  0  0  0  0  0  0  0  0  0  0  0
  -42.2840  -67.3670   54.6340 C   0  0  0  0  0  3  0  0  0  0  0  0
  -41.3000  -68.2460   55.1320 C   0  0  0  0  0  3  0  0  0  0  0  0
  -40.2820  -68.6860   54.3170 C   0  0  0  0  0  3  0  0  0  0  0  0
  -40.2600  -68.2430   53.0190 C   0  0  0  0  0  3  0  0  0  0  0  0
  -41.2430  -67.3730   52.5440 C   0  0  0  0  0  3  0  0  0  0  0  0
  1  2  2  0  0  0  0
  1  6  1  0  0  0  0
  2  3  1  0  0  0  0
  3  5  1  0  0  0  0
  3  4  2  0  0  0  0
  5 23  1  0  0  0  0
  6  5  1  0  0  0  0
  7  6  2  0  0  0  0
  8  9  1  0  0  0  0
  8  1  1  0  0  0  0
 10  8  1  0  0  0  0
 11 10  1  0  0  0  0
 12 11  2  0  0  0  0
 13 15  2  0  0  0  0
 13 12  1  0  0  0  0
 14 13  1  0  0  0  0
 15 16  1  0  0  0  0
 16 10  2  0  0  0  0
 17  2  1  0  0  0  0
 17 18  1  0  0  0  0
 19 18  1  0  0  0  0
 20 19  2  0  0  0  0
 21 22  2  0  0  0  0
 21 20  1  0  0  0  0
 22 17  1  0  0  0  0
 23 24  1  0  0  0  0
 24 25  2  0  0  0  0
 26 25  1  0  0  0  0
 27 26  2  0  0  0  0
 28 27  1  0  0  0  0
 28 23  2  0  0  0  0
M  END
>  <Pose>
1

>  <Score>
-7.391

$$$$
