/Users/jonathanwahrer/Desktop/Msc/3_Semester/Drug_Design_Praktikum/waehrer_HTS_screening/HTS_experiment/out/docking_results/vina_output/3e7o/0677_docked.pdbqt
 OpenBabel03192215493D

 29 32  0  0  0  0  0  0  0  0999 V2000
  -39.9590  -67.3540   50.9790 C   0  0  0  0  0  0  0  0  0  0  0  0
  -38.9110  -68.2760   51.3330 C   0  0  0  0  0  0  0  0  0  0  0  0
  -38.9900  -68.9740   52.4810 C   0  0  0  0  0  0  0  0  0  0  0  0
  -40.0850  -68.8220   53.3510 C   0  0  0  0  0  0  0  0  0  0  0  0
  -41.0930  -67.9460   53.0310 C   0  0  0  0  0  0  0  0  0  0  0  0
  -41.0200  -67.2100   51.8370 C   0  0  0  0  0  0  0  0  0  0  0  0
  -42.0530  -66.1900   51.5210 C   0  0  0  0  0  2  0  0  0  0  0  0
  -42.8730  -65.7550   52.7310 C   0  0  0  0  0  2  0  0  0  0  0  0
  -43.3140  -66.8860   53.5120 N   0  0  0  0  0  0  0  0  0  0  0  0
  -42.2620  -67.7860   53.8900 C   0  0  0  0  0  0  0  0  0  0  0  0
  -42.4140  -68.3980   54.9670 O   0  0  0  0  0  0  0  0  0  0  0  0
  -44.6980  -67.0940   53.8800 C   0  0  0  0  0  1  0  0  0  0  0  0
  -37.8420  -69.7780   52.5560 O   0  0  0  0  0  0  0  0  0  0  0  0
  -37.1640  -69.7640   51.3180 C   0  0  0  0  0  2  0  0  0  0  0  0
  -37.7260  -68.6320   50.6830 O   0  0  0  0  0  0  0  0  0  0  0  0
  -39.6940  -66.7160   49.7080 C   0  0  0  0  0  2  0  0  0  0  0  0
  -38.4930  -66.1080   49.3360 N   0  0  0  0  0  0  0  0  0  0  0  0
  -38.4900  -64.6310   49.3680 C   0  0  0  0  0  0  0  0  0  0  0  0
  -39.5280  -64.0440   49.7170 O   0  0  0  0  0  0  0  0  0  0  0  0
  -37.5680  -66.4770   49.0700 H   0  0  0  0  0  0  0  0  0  0  0  0
  -37.3070  -63.8870   49.0020 C   0  0  0  0  0  0  0  0  0  0  0  0
  -37.4810  -62.6600   48.3710 C   0  0  0  0  0  3  0  0  0  0  0  0
  -36.4350  -61.9110   47.9940 N   0  0  0  0  0  0  0  0  0  0  0  0
  -35.1960  -62.3430   48.2250 C   0  0  0  0  0  3  0  0  0  0  0  0
  -34.9690  -63.5340   48.8380 C   0  0  0  0  0  0  0  0  0  0  0  0
  -33.1850  -64.1350   49.1600 Br  0  0  0  0  0  0  0  0  0  0  0  0
  -36.0310  -64.3400   49.2440 C   0  0  0  0  0  3  0  0  0  0  0  0
  -40.0910  -69.5570   54.4780 O   0  0  0  0  0  0  0  0  0  0  0  0
  -39.3780  -69.8530   55.0520 H   0  0  0  0  0  0  0  0  0  0  0  0
  1  2  2  0  0  0  0
  1  6  1  0  0  0  0
  2  3  1  0  0  0  0
  3 13  1  0  0  0  0
  3  4  2  0  0  0  0
  4 28  1  0  0  0  0
  5  4  1  0  0  0  0
  5 10  1  0  0  0  0
  6  5  2  0  0  0  0
  7  6  1  0  0  0  0
  7  8  1  0  0  0  0
  8  9  1  0  0  0  0
  9 12  1  0  0  0  0
  9 10  1  0  0  0  0
 10 11  2  0  0  0  0
 14 13  1  0  0  0  0
 15 14  1  0  0  0  0
 15  2  1  0  0  0  0
 16  1  1  0  0  0  0
 17 18  1  0  0  0  0
 17 16  1  0  0  0  0
 18 19  2  0  0  0  0
 20 17  1  0  0  0  0
 21 27  1  0  0  0  0
 21 18  1  0  0  0  0
 22 21  2  0  0  0  0
 23 24  2  0  0  0  0
 23 22  1  0  0  0  0
 24 25  1  0  0  0  0
 25 26  1  0  0  0  0
 25 27  2  0  0  0  0
 28 29  1  0  0  0  0
M  END
>  <Pose>
1

>  <Score>
-8.640

$$$$
