/Users/jonathanwahrer/Desktop/Msc/3_Semester/Drug_Design_Praktikum/waehrer_HTS_screening/HTS_experiment/out/docking_results/vina_output/3e7o/0680_docked.pdbqt
 OpenBabel03192215493D

 24 27  0  0  1  0  0  0  0  0999 V2000
  -38.3680  -68.8800   51.2830 C   0  0  0  0  0  0  0  0  0  0  0  0
  -38.3050  -70.1520   51.4650 O   0  0  0  0  0  0  0  0  0  0  0  0
  -39.4810  -68.2050   51.8170 N   0  0  0  0  0  0  0  0  0  0  0  0
  -40.0250  -66.8850   51.8850 C   0  0  0  0  0  2  0  0  0  0  0  0
  -41.4130  -67.5390   52.0150 C   0  0  1  0  0  3  0  0  0  0  0  0
  -40.6350  -68.6400   52.6310 C   0  0  0  0  0  2  0  0  0  0  0  0
  -42.2830  -66.7800   52.8710 N   0  0  0  0  0  0  0  0  0  0  0  0
  -42.6260  -67.0320   54.2460 C   0  0  0  0  0  0  0  0  0  0  0  0
  -41.9210  -67.6680   55.0490 O   0  0  0  0  0  0  0  0  0  0  0  0
  -43.9620  -66.3750   54.4540 C   0  0  1  0  0  3  0  0  0  0  0  0
  -43.7670  -65.1160   53.6420 C   0  0  2  0  0  3  0  0  0  0  0  0
  -44.9940  -67.3010   53.9080 C   0  0  0  0  0  2  0  0  0  0  0  0
  -45.0850  -64.5070   53.2540 C   0  0  0  0  0  2  0  0  0  0  0  0
  -42.9830  -65.6010   52.4890 C   0  0  0  0  0  0  0  0  0  0  0  0
  -45.8740  -65.4870   52.4610 C   0  0  0  0  0  3  0  0  0  0  0  0
  -45.7970  -66.7570   52.8040 C   0  0  0  0  0  3  0  0  0  0  0  0
  -42.9730  -65.0270   51.3730 O   0  0  0  0  0  0  0  0  0  0  0  0
  -37.2680  -68.3100   50.5420 C   0  0  0  0  0  0  0  0  0  0  0  0
  -35.9500  -68.7010   50.8150 C   0  0  0  0  0  3  0  0  0  0  0  0
  -34.8950  -68.1930   50.1680 N   0  0  0  0  0  0  0  0  0  0  0  0
  -35.0520  -67.2590   49.1960 C   0  0  0  0  0  3  0  0  0  0  0  0
  -36.3110  -66.8180   48.8640 C   0  0  0  0  0  0  0  0  0  0  0  0
  -36.5060  -65.5050   47.5000 Br  0  0  0  0  0  0  0  0  0  0  0  0
  -37.3850  -67.3610   49.5520 C   0  0  0  0  0  3  0  0  0  0  0  0
  1  2  2  0  0  0  0
  1  3  1  0  0  0  0
  3  4  1  0  0  0  0
  3  6  1  0  0  0  0
  5  4  1  1  0  0  0
  5  6  1  0  0  0  0
  5  7  1  0  0  0  0
  7  8  1  0  0  0  0
  8 10  1  0  0  0  0
  8  9  2  0  0  0  0
 10 12  1  6  0  0  0
 11 13  1  6  0  0  0
 11 10  1  0  0  0  0
 14  7  1  0  0  0  0
 14 11  1  0  0  0  0
 15 16  2  0  0  0  0
 15 13  1  0  0  0  0
 16 12  1  0  0  0  0
 17 14  2  0  0  0  0
 18 19  1  0  0  0  0
 18  1  1  0  0  0  0
 20 19  2  0  0  0  0
 21 20  1  0  0  0  0
 22 21  2  0  0  0  0
 22 24  1  0  0  0  0
 23 22  1  0  0  0  0
 24 18  2  0  0  0  0
M  END
>  <Pose>
1

>  <Score>
-8.135

$$$$
