/Users/jonathanwahrer/Desktop/Msc/3_Semester/Drug_Design_Praktikum/waehrer_HTS_screening/HTS_experiment/out/docking_results/vina_output/3e7o/0692_docked.pdbqt
 OpenBabel03192215503D

 29 32  0  0  0  0  0  0  0  0999 V2000
  -38.9930  -69.9110   52.0520 Br  0  0  0  0  0  0  0  0  0  0  0  0
  -40.0240  -68.3250   52.2300 C   0  0  0  0  0  0  0  0  0  0  0  0
  -39.7750  -67.2540   51.3920 C   0  0  0  0  0  0  0  0  0  0  0  0
  -40.4980  -66.0550   51.4710 C   0  0  0  0  0  0  0  0  0  0  0  0
  -41.4900  -65.9350   52.4130 C   0  0  0  0  0  3  0  0  0  0  0  0
  -41.7450  -67.0010   53.2530 C   0  0  0  0  0  0  0  0  0  0  0  0
  -41.0340  -68.1790   53.1760 C   0  0  0  0  0  3  0  0  0  0  0  0
  -43.1130  -66.8690   54.5690 Br  0  0  0  0  0  0  0  0  0  0  0  0
  -40.1890  -64.9480   50.5740 C   0  0  0  0  0  0  0  0  0  0  0  0
  -40.5380  -63.8030   50.9730 O   0  0  0  0  0  0  0  0  0  0  0  0
  -39.5180  -65.1420   49.2940 C   0  0  0  0  0  0  0  0  0  0  0  0
  -39.0780  -66.6260   49.1860 C   0  0  0  0  0  2  0  0  0  0  0  0
  -38.8120  -67.2280   50.3990 O   0  0  0  0  0  0  0  0  0  0  0  0
  -40.2920  -64.9140   48.0780 C   0  0  0  0  0  2  0  0  0  0  0  0
  -40.8530  -63.7150   47.6600 N   0  0  0  0  0  4  0  0  0  0  0  0
  -42.2420  -63.4430   47.8660 C   0  0  0  0  0  2  0  0  0  0  0  0
  -42.3780  -61.8990   47.8800 C   0  0  0  0  0  2  0  0  0  0  0  0
  -42.2060  -61.4740   46.4370 C   0  0  0  0  0  2  0  0  0  0  0  0
  -41.5560  -62.5590   45.6060 C   0  0  0  0  0  2  0  0  0  0  0  0
  -40.4280  -63.2390   46.3510 C   0  0  0  0  0  2  0  0  0  0  0  0
  -40.3920  -62.9820   48.3150 H   0  0  0  0  0  0  0  0  0  0  0  0
  -38.2740  -64.2680   49.2830 C   0  0  0  0  0  2  0  0  0  0  0  0
  -37.0700  -65.0060   48.9900 N   0  0  0  0  0  4  0  0  0  0  0  0
  -35.9510  -64.2880   49.5820 C   0  0  0  0  0  2  0  0  0  0  0  0
  -35.9700  -62.8740   49.1020 C   0  0  0  0  0  2  0  0  0  0  0  0
  -36.0110  -62.7080   47.6270 C   0  0  0  0  0  2  0  0  0  0  0  0
  -36.7980  -63.7330   46.8870 C   0  0  0  0  0  2  0  0  0  0  0  0
  -36.7440  -65.0780   47.5770 C   0  0  0  0  0  2  0  0  0  0  0  0
  -37.1280  -65.9830   49.3280 H   0  0  0  0  0  0  0  0  0  0  0  0
  1  2  1  0  0  0  0
  2  7  1  0  0  0  0
  3  4  1  0  0  0  0
  3  2  2  0  0  0  0
  4  5  2  0  0  0  0
  5  6  1  0  0  0  0
  6  8  1  0  0  0  0
  7  6  2  0  0  0  0
  9 10  2  0  0  0  0
  9  4  1  0  0  0  0
 11  9  1  0  0  0  0
 12 11  1  0  0  0  0
 12 13  1  0  0  0  0
 13  3  1  0  0  0  0
 14 11  1  0  0  0  0
 15 16  1  0  0  0  0
 15 14  1  0  0  0  0
 15 21  1  0  0  0  0
 16 17  1  0  0  0  0
 18 17  1  0  0  0  0
 19 20  1  0  0  0  0
 19 18  1  0  0  0  0
 20 15  1  0  0  0  0
 22 11  1  0  0  0  0
 23 22  1  0  0  0  0
 23 29  1  0  0  0  0
 23 24  1  0  0  0  0
 25 24  1  0  0  0  0
 26 25  1  0  0  0  0
 27 28  1  0  0  0  0
 27 26  1  0  0  0  0
 28 23  1  0  0  0  0
M  END
>  <Pose>
1

>  <Score>
-7.028

$$$$
