/Users/jonathanwahrer/Desktop/Msc/3_Semester/Drug_Design_Praktikum/waehrer_HTS_screening/HTS_experiment/out/docking_results/vina_output/3e7o/0695_docked.pdbqt
 OpenBabel03192215503D

 22 25  0  0  0  0  0  0  0  0999 V2000
  -37.7880  -69.5710   50.9420 C   0  0  0  0  0  2  0  0  0  0  0  0
  -38.9230  -68.8230   51.5400 C   0  0  0  0  0  0  0  0  0  0  0  0
  -39.6850  -67.9110   50.8470 C   0  0  0  0  0  3  0  0  0  0  0  0
  -40.7460  -67.2200   51.4350 C   0  0  0  0  0  0  0  0  0  0  0  0
  -41.0730  -67.4340   52.7510 C   0  0  0  0  0  0  0  0  0  0  0  0
  -41.6480  -66.2670   50.9570 O   0  0  0  0  0  0  0  0  0  0  0  0
  -40.3150  -68.3460   53.4550 C   0  0  0  0  0  0  0  0  0  0  0  0
  -42.1630  -66.6110   53.0580 O   0  0  0  0  0  0  0  0  0  0  0  0
  -40.7720  -68.6440   55.2970 Br  0  0  0  0  0  0  0  0  0  0  0  0
  -39.2650  -69.0330   52.8800 C   0  0  0  0  0  3  0  0  0  0  0  0
  -42.8030  -66.3130   51.8090 C   0  0  0  0  0  2  0  0  0  0  0  0
  -37.2380  -68.8110   49.8470 N   0  0  0  0  0  0  0  0  0  0  0  0
  -37.6100  -68.8880   48.8850 H   0  0  0  0  0  0  0  0  0  0  0  0
  -36.1370  -67.9230   50.1150 C   0  0  0  0  0  0  0  0  0  0  0  0
  -35.0090  -68.3710   50.6840 N   0  0  0  0  0  0  0  0  0  0  0  0
  -33.9860  -67.5340   50.9310 C   0  0  0  0  0  3  0  0  0  0  0  0
  -34.0620  -66.1830   50.6070 C   0  0  0  0  0  3  0  0  0  0  0  0
  -35.1870  -65.7450   50.0420 N   0  0  0  0  0  0  0  0  0  0  0  0
  -36.2220  -66.5870   49.7910 C   0  0  0  0  0  0  0  0  0  0  0  0
  -35.5910  -64.5360   49.6110 C   0  0  0  0  0  3  0  0  0  0  0  0
  -37.2050  -65.8680   49.2240 N   0  0  0  0  0  0  0  0  0  0  0  0
  -36.8270  -64.6060   49.1090 N   0  0  0  0  0  0  0  0  0  0  0  0
  1  2  1  0  0  0  0
  2 10  1  0  0  0  0
  3  4  1  0  0  0  0
  3  2  2  0  0  0  0
  4  5  2  0  0  0  0
  5  8  1  0  0  0  0
  5  7  1  0  0  0  0
  6  4  1  0  0  0  0
  6 11  1  0  0  0  0
  7  9  1  0  0  0  0
 10  7  2  0  0  0  0
 11  8  1  0  0  0  0
 12 14  1  0  0  0  0
 12  1  1  0  0  0  0
 13 12  1  0  0  0  0
 14 15  2  0  0  0  0
 15 16  1  0  0  0  0
 17 16  2  0  0  0  0
 18 17  1  0  0  0  0
 19 18  1  0  0  0  0
 19 14  1  0  0  0  0
 20 18  1  0  0  0  0
 21 19  2  0  0  0  0
 22 21  1  0  0  0  0
 22 20  2  0  0  0  0
M  END
>  <Pose>
1

>  <Score>
-7.410

$$$$
