/Users/jonathanwahrer/Desktop/Msc/3_Semester/Drug_Design_Praktikum/waehrer_HTS_screening/HTS_experiment/out/docking_results/vina_output/3e7o/0696_docked.pdbqt
 OpenBabel03192215503D

 28 31  0  0  1  0  0  0  0  0999 V2000
  -45.4200  -63.4140   50.1970 Br  0  0  0  0  0  0  0  0  0  0  0  0
  -44.1490  -64.2240   51.3510 C   0  0  0  0  0  0  0  0  0  0  0  0
  -42.8000  -64.2530   50.9700 C   0  0  0  0  0  0  0  0  0  0  0  0
  -41.8430  -64.8120   51.7600 C   0  0  0  0  0  0  0  0  0  0  0  0
  -42.2230  -65.3660   52.9700 C   0  0  0  0  0  3  0  0  0  0  0  0
  -43.5590  -65.3420   53.3560 C   0  0  0  0  0  0  0  0  0  0  0  0
  -44.5240  -64.7750   52.5560 C   0  0  0  0  0  3  0  0  0  0  0  0
  -44.0100  -65.9280   54.6500 C   0  0  0  0  0  1  0  0  0  0  0  0
  -40.4110  -64.7930   51.3540 C   0  0  1  0  0  3  0  0  0  0  0  0
  -40.1310  -64.8280   49.8950 C   0  0  0  0  0  0  0  0  0  0  0  0
  -41.4150  -64.5550   49.0750 C   0  0  0  0  0  2  0  0  0  0  0  0
  -42.3280  -63.7270   49.7760 O   0  0  0  0  0  0  0  0  0  0  0  0
  -39.7120  -66.2010   49.4050 C   0  0  0  0  0  2  0  0  0  0  0  0
  -38.9170  -66.9600   50.3460 N   0  0  0  0  0  4  0  0  0  0  0  0
  -37.7700  -67.5490   49.6540 C   0  0  0  0  0  2  0  0  0  0  0  0
  -37.3310  -68.7330   50.4330 C   0  0  0  0  0  2  0  0  0  0  0  0
  -38.4060  -68.9190   51.4490 C   0  0  0  0  0  2  0  0  0  0  0  0
  -39.5770  -68.1750   50.7940 C   0  0  0  0  0  2  0  0  0  0  0  0
  -38.6270  -66.4520   51.1940 H   0  0  0  0  0  0  0  0  0  0  0  0
  -39.2090  -63.7510   49.4660 C   0  0  0  0  0  2  0  0  0  0  0  0
  -38.0620  -63.8190   48.7180 N   0  0  0  0  0  4  0  0  0  0  0  0
  -37.9640  -62.6420   47.8250 C   0  0  0  0  0  2  0  0  0  0  0  0
  -36.5250  -62.3170   47.7120 C   0  0  0  0  0  2  0  0  0  0  0  0
  -35.8690  -62.8650   48.9210 C   0  0  0  0  0  2  0  0  0  0  0  0
  -36.8240  -63.9710   49.3630 C   0  0  0  0  0  2  0  0  0  0  0  0
  -38.1410  -64.6050   47.9330 H   0  0  0  0  0  0  0  0  0  0  0  0
  -39.9290  -63.6180   51.9970 O   0  0  0  0  0  0  0  0  0  0  0  0
  -40.5970  -63.2440   52.5960 H   0  0  0  0  0  0  0  0  0  0  0  0
  1  2  1  0  0  0  0
  2  7  1  0  0  0  0
  3  2  2  0  0  0  0
  3  4  1  0  0  0  0
  4  5  2  0  0  0  0
  5  6  1  0  0  0  0
  6  8  1  0  0  0  0
  7  6  2  0  0  0  0
  9  4  1  0  0  0  0
  9 27  1  6  0  0  0
 10  9  1  0  0  0  0
 11 12  1  0  0  0  0
 11 10  1  0  0  0  0
 12  3  1  0  0  0  0
 13 10  1  0  0  0  0
 13 14  1  0  0  0  0
 14 18  1  0  0  0  0
 14 19  1  0  0  0  0
 15 14  1  0  0  0  0
 15 16  1  0  0  0  0
 16 17  1  0  0  0  0
 18 17  1  0  0  0  0
 20 10  1  0  0  0  0
 21 25  1  0  0  0  0
 21 20  1  0  0  0  0
 22 21  1  0  0  0  0
 23 22  1  0  0  0  0
 23 24  1  0  0  0  0
 24 25  1  0  0  0  0
 26 21  1  0  0  0  0
 27 28  1  0  0  0  0
M  END
>  <Pose>
1

>  <Score>
-6.983

$$$$
