/Users/jonathanwahrer/Desktop/Msc/3_Semester/Drug_Design_Praktikum/waehrer_HTS_screening/HTS_experiment/out/docking_results/vina_output/3e7o/0699_docked.pdbqt
 OpenBabel03192215503D

 32 35  0  0  1  0  0  0  0  0999 V2000
  -45.3950  -65.4630   52.2800 C   0  0  2  0  0  3  0  0  0  0  0  0
  -43.9970  -65.0600   52.6760 C   0  0  0  0  0  2  0  0  0  0  0  0
  -43.0130  -65.7530   51.9330 O   0  0  0  0  0  0  0  0  0  0  0  0
  -42.2280  -66.6830   52.6100 C   0  0  0  0  0  0  0  0  0  0  0  0
  -41.1950  -67.3560   51.9870 C   0  0  0  0  0  0  0  0  0  0  0  0
  -40.8620  -66.9760   50.1530 Br  0  0  0  0  0  0  0  0  0  0  0  0
  -40.4050  -68.2820   52.6400 C   0  0  0  0  0  0  0  0  0  0  0  0
  -40.6230  -68.5760   53.9700 C   0  0  0  0  0  0  0  0  0  0  0  0
  -39.3710  -68.9520   52.0100 C   0  0  0  0  0  3  0  0  0  0  0  0
  -41.6530  -67.9100   54.6010 C   0  0  0  0  0  3  0  0  0  0  0  0
  -39.8310  -69.5050   54.6240 C   0  0  0  0  0  3  0  0  0  0  0  0
  -42.4380  -66.9850   53.9410 C   0  0  0  0  0  3  0  0  0  0  0  0
  -38.8000  -70.1720   53.9940 C   0  0  0  0  0  3  0  0  0  0  0  0
  -38.5810  -69.8770   52.6630 C   0  0  0  0  0  3  0  0  0  0  0  0
  -45.6560  -65.2690   50.9490 O   0  0  0  0  0  0  0  0  0  0  0  0
  -45.9720  -66.0560   50.4700 H   0  0  0  0  0  0  0  0  0  0  0  0
  -46.4050  -64.8090   53.1580 C   0  0  0  0  0  2  0  0  0  0  0  0
  -47.3930  -65.7180   53.6940 N   0  0  0  0  0  4  0  0  0  0  0  0
  -46.8570  -67.0590   53.5440 C   0  0  0  0  0  2  0  0  0  0  0  0
  -47.9110  -68.1360   53.8400 C   0  0  0  0  0  2  0  0  0  0  0  0
  -49.0180  -67.9410   52.9750 N   0  0  0  0  0  0  0  0  0  0  0  0
  -48.9130  -66.7630   52.0890 C   0  0  0  0  0  2  0  0  0  0  0  0
  -50.1500  -68.7620   52.9120 C   0  0  0  0  0  0  0  0  0  0  0  0
  -48.6240  -65.5660   52.9320 C   0  0  0  0  0  2  0  0  0  0  0  0
  -51.0390  -68.3580   52.0190 O   0  0  0  0  0  0  0  0  0  0  0  0
  -47.5970  -65.5700   54.7050 H   0  0  0  0  0  0  0  0  0  0  0  0
  -50.5230  -69.9410   53.6250 C   0  0  0  0  0  0  0  0  0  0  0  0
  -50.5580  -70.1020   54.9810 C   0  0  0  0  0  3  0  0  0  0  0  0
  -50.9310  -71.2800   55.6130 C   0  0  0  0  0  3  0  0  0  0  0  0
  -51.2910  -72.3630   54.8770 C   0  0  0  0  0  3  0  0  0  0  0  0
  -51.2670  -72.2330   53.5040 C   0  0  0  0  0  3  0  0  0  0  0  0
  -50.8970  -71.0690   52.8790 C   0  0  0  0  0  3  0  0  0  0  0  0
  1  2  1  1  0  0  0
  1 17  1  0  0  0  0
  3  4  1  0  0  0  0
  3  2  1  0  0  0  0
  4 12  1  0  0  0  0
  5  4  2  0  0  0  0
  5  7  1  0  0  0  0
  6  5  1  0  0  0  0
  7  8  1  0  0  0  0
  8 10  1  0  0  0  0
  8 11  2  0  0  0  0
  9  7  2  0  0  0  0
  9 14  1  0  0  0  0
 12 10  2  0  0  0  0
 13 11  1  0  0  0  0
 14 13  2  0  0  0  0
 15  1  1  0  0  0  0
 16 15  1  0  0  0  0
 17 18  1  0  0  0  0
 18 26  1  0  0  0  0
 19 18  1  0  0  0  0
 19 20  1  0  0  0  0
 21 20  1  0  0  0  0
 22 24  1  0  0  0  0
 22 21  1  0  0  0  0
 23 21  1  0  0  0  0
 23 27  1  0  0  0  0
 24 18  1  0  0  0  0
 25 23  2  0  0  0  0
 27 28  1  0  0  0  0
 28 29  2  0  0  0  0
 30 29  1  0  0  0  0
 31 30  2  0  0  0  0
 32 31  1  0  0  0  0
 32 27  2  0  0  0  0
M  END
>  <Pose>
1

>  <Score>
-8.703

$$$$
