/Users/jonathanwahrer/Desktop/Msc/3_Semester/Drug_Design_Praktikum/waehrer_HTS_screening/HTS_experiment/out/docking_results/vina_output/3e7o/0708_docked.pdbqt
 OpenBabel03162215373D

 31 34  0  0  0  0  0  0  0  0999 V2000
  -38.0000  -68.4680   51.3150 C   0  0  0  0  0  2  0  0  0  0  0  0
  -39.3730  -69.0750   51.2940 C   0  0  0  0  0  2  0  0  0  0  0  0
  -40.2900  -68.4850   52.2470 N   0  0  0  0  0  0  0  0  0  0  0  0
  -40.3720  -68.8300   53.5690 C   0  0  0  0  0  0  0  0  0  0  0  0
  -39.2520  -70.1480   54.3640 Br  0  0  0  0  0  0  0  0  0  0  0  0
  -41.3300  -68.1140   54.1770 N   0  0  0  0  0  0  0  0  0  0  0  0
  -41.8970  -67.2870   53.2730 C   0  0  0  0  0  0  0  0  0  0  0  0
  -41.2340  -67.5370   52.0820 C   0  0  0  0  0  0  0  0  0  0  0  0
  -42.8920  -66.3940   53.4100 N   0  0  0  0  0  0  0  0  0  0  0  0
  -41.6230  -66.8320   50.9850 C   0  0  0  0  0  0  0  0  0  0  0  0
  -42.6320  -65.9280   51.1270 N   0  0  0  0  0  0  0  0  0  0  0  0
  -41.0620  -67.0190   49.8850 O   0  0  0  0  0  0  0  0  0  0  0  0
  -43.2480  -65.7160   52.3040 C   0  0  0  0  0  0  0  0  0  0  0  0
  -42.8950  -65.4110   50.2620 H   0  0  0  0  0  0  0  0  0  0  0  0
  -44.1880  -64.8550   52.3830 O   0  0  0  0  0  0  0  0  0  0  0  0
  -43.5780  -66.1370   54.6580 C   0  0  0  0  0  1  0  0  0  0  0  0
  -37.1900  -68.7090   50.0740 C   0  0  0  0  0  2  0  0  0  0  0  0
  -36.0900  -67.7580   50.0040 N   0  0  0  0  0  0  0  0  0  0  0  0
  -36.0320  -66.5890   49.3260 C   0  0  0  0  0  0  0  0  0  0  0  0
  -34.8120  -65.9840   49.5220 C   0  0  0  0  0  0  0  0  0  0  0  0
  -36.9410  -65.9510   48.5240 C   0  0  0  0  0  0  0  0  0  0  0  0
  -34.1260  -66.8090   50.3340 N   0  0  0  0  0  0  0  0  0  0  0  0
  -34.4670  -64.8060   48.9700 N   0  0  0  0  0  0  0  0  0  0  0  0
  -34.9020  -67.8760   50.6200 C   0  0  0  0  0  0  0  0  0  0  0  0
  -34.4410  -69.3610   51.7280 Br  0  0  0  0  0  0  0  0  0  0  0  0
  -35.3970  -64.2110   48.1830 C   0  0  0  0  0  0  0  0  0  0  0  0
  -33.1580  -64.2010   49.2050 C   0  0  0  0  0  1  0  0  0  0  0  0
  -35.0750  -63.0990   47.6620 O   0  0  0  0  0  0  0  0  0  0  0  0
  -36.6060  -64.7700   47.9650 N   0  0  0  0  0  0  0  0  0  0  0  0
  -37.2790  -64.2670   47.3540 H   0  0  0  0  0  0  0  0  0  0  0  0
  -38.0560  -66.4970   48.3410 O   0  0  0  0  0  0  0  0  0  0  0  0
  2  1  1  0  0  0  0
  2  3  1  0  0  0  0
  3  4  1  0  0  0  0
  4  6  2  0  0  0  0
  4  5  1  0  0  0  0
  7  9  1  0  0  0  0
  7  6  1  0  0  0  0
  8  3  1  0  0  0  0
  8  7  2  0  0  0  0
  9 16  1  0  0  0  0
 10 11  1  0  0  0  0
 10  8  1  0  0  0  0
 11 13  1  0  0  0  0
 12 10  2  0  0  0  0
 13 15  2  0  0  0  0
 13  9  1  0  0  0  0
 14 11  1  0  0  0  0
 17  1  1  0  0  0  0
 18 17  1  0  0  0  0
 18 24  1  0  0  0  0
 19 20  2  0  0  0  0
 19 18  1  0  0  0  0
 20 22  1  0  0  0  0
 21 19  1  0  0  0  0
 22 24  2  0  0  0  0
 23 27  1  0  0  0  0
 23 20  1  0  0  0  0
 24 25  1  0  0  0  0
 26 23  1  0  0  0  0
 28 26  2  0  0  0  0
 29 26  1  0  0  0  0
 29 21  1  0  0  0  0
 30 29  1  0  0  0  0
 31 21  2  0  0  0  0
M  END
>  <Pose>
1

>  <Score>
-7.998

$$$$
