/Users/jonathanwahrer/Desktop/Msc/3_Semester/Drug_Design_Praktikum/waehrer_HTS_screening/HTS_experiment/out/docking_results/vina_output/3e7o/0709_docked.pdbqt
 OpenBabel03192215513D

 30 33  0  0  0  0  0  0  0  0999 V2000
  -40.8470  -66.7840   52.4310 C   0  0  0  0  0  3  0  0  0  0  0  0
  -42.1710  -66.8190   52.9520 N   0  0  0  0  0  0  0  0  0  0  0  0
  -42.6160  -67.6820   53.8960 C   0  0  0  0  0  0  0  0  0  0  0  0
  -41.5010  -69.0050   54.7030 Br  0  0  0  0  0  0  0  0  0  0  0  0
  -43.9130  -67.4420   54.1400 N   0  0  0  0  0  0  0  0  0  0  0  0
  -44.3460  -66.4210   53.3650 C   0  0  0  0  0  0  0  0  0  0  0  0
  -43.2300  -66.0440   52.6240 C   0  0  0  0  0  0  0  0  0  0  0  0
  -45.5280  -65.7980   53.2090 N   0  0  0  0  0  0  0  0  0  0  0  0
  -43.4190  -65.0110   51.7370 C   0  0  0  0  0  0  0  0  0  0  0  0
  -44.6140  -64.3840   51.5830 N   0  0  0  0  0  0  0  0  0  0  0  0
  -42.4140  -64.6590   51.0530 O   0  0  0  0  0  0  0  0  0  0  0  0
  -45.6580  -64.7910   52.3270 C   0  0  0  0  0  0  0  0  0  0  0  0
  -44.6930  -63.6060   50.8940 H   0  0  0  0  0  0  0  0  0  0  0  0
  -46.7720  -64.1950   52.1740 O   0  0  0  0  0  0  0  0  0  0  0  0
  -46.6900  -66.1840   53.9750 C   0  0  0  0  0  1  0  0  0  0  0  0
  -40.5680  -67.6250   51.2360 C   0  0  0  0  0  3  0  0  0  0  0  0
  -39.2350  -67.6840   50.7490 N   0  0  0  0  0  0  0  0  0  0  0  0
  -38.6910  -66.9650   49.7530 C   0  0  0  0  0  0  0  0  0  0  0  0
  -37.3730  -67.3400   49.5960 C   0  0  0  0  0  0  0  0  0  0  0  0
  -39.1550  -65.9740   48.9020 C   0  0  0  0  0  0  0  0  0  0  0  0
  -37.1720  -68.2920   50.5300 N   0  0  0  0  0  0  0  0  0  0  0  0
  -36.6160  -66.7590   48.6660 N   0  0  0  0  0  0  0  0  0  0  0  0
  -38.2720  -68.5200   51.2380 C   0  0  0  0  0  0  0  0  0  0  0  0
  -38.5000  -69.7760   52.6810 Br  0  0  0  0  0  0  0  0  0  0  0  0
  -37.1230  -65.8090   47.8750 C   0  0  0  0  0  0  0  0  0  0  0  0
  -35.2350  -67.1420   48.4890 C   0  0  0  0  0  1  0  0  0  0  0  0
  -36.4240  -65.2360   46.9750 O   0  0  0  0  0  0  0  0  0  0  0  0
  -38.3970  -65.3890   47.9660 N   0  0  0  0  0  0  0  0  0  0  0  0
  -38.7640  -64.6380   47.3270 H   0  0  0  0  0  0  0  0  0  0  0  0
  -40.3410  -65.5870   48.9960 O   0  0  0  0  0  0  0  0  0  0  0  0
  1  2  1  0  0  0  0
  2  3  1  0  0  0  0
  3  5  2  0  0  0  0
  3  4  1  0  0  0  0
  6  5  1  0  0  0  0
  7  2  1  0  0  0  0
  7  6  2  0  0  0  0
  8  6  1  0  0  0  0
  8 15  1  0  0  0  0
  9  7  1  0  0  0  0
 10  9  1  0  0  0  0
 10 12  1  0  0  0  0
 11  9  2  0  0  0  0
 12  8  1  0  0  0  0
 13 10  1  0  0  0  0
 14 12  2  0  0  0  0
 16  1  2  0  0  0  0
 17 16  1  0  0  0  0
 17 23  1  0  0  0  0
 18 17  1  0  0  0  0
 19 18  2  0  0  0  0
 19 21  1  0  0  0  0
 20 30  2  0  0  0  0
 20 18  1  0  0  0  0
 21 23  2  0  0  0  0
 22 19  1  0  0  0  0
 23 24  1  0  0  0  0
 25 28  1  0  0  0  0
 25 22  1  0  0  0  0
 26 22  1  0  0  0  0
 27 25  2  0  0  0  0
 28 20  1  0  0  0  0
 29 28  1  0  0  0  0
M  END
>  <Pose>
1

>  <Score>
-7.883

$$$$
