/Users/jonathanwahrer/Desktop/Msc/3_Semester/Drug_Design_Praktikum/waehrer_HTS_screening/HTS_experiment/out/docking_results/vina_output/3e7o/0716_docked.pdbqt
 OpenBabel03192215513D

 31 35  0  0  1  0  0  0  0  0999 V2000
  -36.9410  -66.7590   49.4800 C   0  0  1  0  0  0  0  0  0  0  0  0
  -38.1630  -67.1890   50.2590 C   0  0  0  0  0  2  0  0  0  0  0  0
  -39.3460  -66.3760   49.8200 C   0  0  2  0  0  0  0  0  0  0  0  0
  -39.6160  -66.7690   48.3610 C   0  0  0  0  0  2  0  0  0  0  0  0
  -38.3860  -66.4670   47.5440 C   0  0  2  0  0  3  0  0  0  0  0  0
  -37.1580  -67.1830   48.0440 C   0  0  0  0  0  2  0  0  0  0  0  0
  -38.1600  -64.9890   47.5500 C   0  0  0  0  0  2  0  0  0  0  0  0
  -37.9240  -64.5440   48.9770 C   0  0  2  0  0  3  0  0  0  0  0  0
  -36.7340  -65.2760   49.5010 C   0  0  0  0  0  2  0  0  0  0  0  0
  -39.1190  -64.9010   49.8330 C   0  0  0  0  0  2  0  0  0  0  0  0
  -40.5460  -66.6860   50.6260 C   0  0  0  0  0  0  0  0  0  0  0  0
  -41.5630  -67.1210   50.0270 O   0  0  0  0  0  0  0  0  0  0  0  0
  -40.5510  -66.4980   52.0380 N   0  0  0  0  0  0  0  0  0  0  0  0
  -39.6740  -66.1350   52.4560 H   0  0  0  0  0  0  0  0  0  0  0  0
  -41.6530  -66.7670   52.8910 C   0  0  0  0  0  0  0  0  0  0  0  0
  -42.7810  -65.9980   52.9630 C   0  0  0  0  0  0  0  0  0  0  0  0
  -43.5960  -66.5710   53.8810 N   0  0  0  0  0  0  0  0  0  0  0  0
  -43.0060  -67.6450   54.3600 N   0  0  0  0  0  0  0  0  0  0  0  0
  -44.9100  -66.1200   54.3050 C   0  0  0  0  0  1  0  0  0  0  0  0
  -41.8110  -67.8070   53.7830 C   0  0  0  0  0  3  0  0  0  0  0  0
  -43.1580  -64.7910   52.2570 C   0  0  0  0  0  0  0  0  0  0  0  0
  -43.0710  -63.6620   52.8020 O   0  0  0  0  0  0  0  0  0  0  0  0
  -43.6460  -64.7850   50.9220 N   0  0  0  0  0  0  0  0  0  0  0  0
  -42.9690  -64.5210   50.1500 H   0  0  0  0  0  0  0  0  0  0  0  0
  -44.6180  -65.0190   50.6410 H   0  0  0  0  0  0  0  0  0  0  0  0
  -35.7560  -67.3970   50.0520 N   0  0  0  0  0  0  0  0  0  0  0  0
  -35.7060  -68.5120   50.7690 N   0  0  0  0  0  0  0  0  0  0  0  0
  -34.4390  -68.7940   51.1240 C   0  0  0  0  0  0  0  0  0  0  0  0
  -33.8160  -70.2830   52.1590 Br  0  0  0  0  0  0  0  0  0  0  0  0
  -33.6630  -67.8140   50.6090 N   0  0  0  0  0  0  0  0  0  0  0  0
  -34.4820  -66.9730   49.9590 C   0  0  0  0  0  3  0  0  0  0  0  0
  1  6  1  6  0  0  0
  1  9  1  0  0  0  0
  1 26  1  0  0  0  0
  1  2  1  0  0  0  0
  3 10  1  0  0  0  0
  3  2  1  0  0  0  0
  3 11  1  1  0  0  0
  4  3  1  0  0  0  0
  5  7  1  1  0  0  0
  5  6  1  0  0  0  0
  5  4  1  0  0  0  0
  8  7  1  6  0  0  0
  8  9  1  0  0  0  0
  8 10  1  0  0  0  0
 11 13  1  0  0  0  0
 12 11  2  0  0  0  0
 13 14  1  0  0  0  0
 13 15  1  0  0  0  0
 15 16  2  0  0  0  0
 15 20  1  0  0  0  0
 16 17  1  0  0  0  0
 17 19  1  0  0  0  0
 17 18  1  0  0  0  0
 20 18  2  0  0  0  0
 21 22  2  0  0  0  0
 21 16  1  0  0  0  0
 23 21  1  0  0  0  0
 24 23  1  0  0  0  0
 25 23  1  0  0  0  0
 26 27  1  0  0  0  0
 27 28  2  0  0  0  0
 28 29  1  0  0  0  0
 30 28  1  0  0  0  0
 31 26  1  0  0  0  0
 31 30  2  0  0  0  0
M  END
>  <Pose>
1

>  <Score>
-7.778

$$$$
