/Users/jonathanwahrer/Desktop/Msc/3_Semester/Drug_Design_Praktikum/waehrer_HTS_screening/HTS_experiment/out/docking_results/vina_output/3e7o/0723_docked.pdbqt
 OpenBabel03192215513D

 23 26  0  0  1  0  0  0  0  0999 V2000
  -35.4180  -64.8700   48.7240 N   0  0  0  0  0  0  0  0  0  0  0  0
  -35.1940  -64.8620   47.3120 C   0  0  1  0  0  3  0  0  0  0  0  0
  -34.5690  -63.6130   46.8230 C   0  0  0  0  0  2  0  0  0  0  0  0
  -34.4720  -62.5710   47.7060 O   0  0  0  0  0  0  0  0  0  0  0  0
  -35.5690  -62.4750   48.5550 C   0  0  0  0  0  2  0  0  0  0  0  0
  -35.7070  -63.6680   49.4440 C   0  0  0  0  0  2  0  0  0  0  0  0
  -35.3860  -66.0830   49.4920 C   0  0  0  0  0  0  0  0  0  0  0  0
  -34.2020  -66.4700   50.0590 N   0  0  0  0  0  0  0  0  0  0  0  0
  -34.1270  -67.5680   50.8330 C   0  0  0  0  0  3  0  0  0  0  0  0
  -35.2190  -68.3160   51.0710 N   0  0  0  0  0  0  0  0  0  0  0  0
  -36.4090  -68.0000   50.5500 C   0  0  0  0  0  0  0  0  0  0  0  0
  -37.6110  -68.5980   50.6370 N   0  0  0  0  0  0  0  0  0  0  0  0
  -36.4840  -66.8570   49.7440 C   0  0  0  0  0  0  0  0  0  0  0  0
  -38.4340  -67.8730   49.9140 N   0  0  0  0  0  0  0  0  0  0  0  0
  -37.9520  -69.8010   51.3730 C   0  0  0  0  0  1  0  0  0  0  0  0
  -37.8020  -66.8160   49.3570 C   0  0  0  0  0  0  0  0  0  0  0  0
  -38.5520  -65.5030   48.2010 Br  0  0  0  0  0  0  0  0  0  0  0  0
  -34.5010  -66.0890   46.8610 C   0  0  0  0  0  0  0  0  0  0  0  0
  -33.1820  -66.2420   46.7300 N   0  0  0  0  0  0  0  0  0  0  0  0
  -32.9840  -67.5180   46.2920 C   0  0  0  0  0  0  0  0  0  0  0  0
  -34.2030  -68.0750   46.1780 N   0  0  0  0  0  0  0  0  0  0  0  0
  -31.6900  -68.1740   45.9950 C   0  0  0  0  0  1  0  0  0  0  0  0
  -35.0970  -67.1960   46.5260 O   0  0  0  0  0  0  0  0  0  0  0  0
  1  6  1  0  0  0  0
  1  7  1  0  0  0  0
  2 18  1  1  0  0  0
  2  1  1  0  0  0  0
  3  2  1  0  0  0  0
  3  4  1  0  0  0  0
  4  5  1  0  0  0  0
  5  6  1  0  0  0  0
  7 13  2  0  0  0  0
  7  8  1  0  0  0  0
  8  9  2  0  0  0  0
  9 10  1  0  0  0  0
 11 12  1  0  0  0  0
 11 10  2  0  0  0  0
 12 15  1  0  0  0  0
 13 11  1  0  0  0  0
 14 12  1  0  0  0  0
 16 13  1  0  0  0  0
 16 14  2  0  0  0  0
 17 16  1  0  0  0  0
 19 18  2  0  0  0  0
 20 19  1  0  0  0  0
 21 20  2  0  0  0  0
 21 23  1  0  0  0  0
 22 20  1  0  0  0  0
 23 18  1  0  0  0  0
M  END
>  <Pose>
1

>  <Score>
-5.617

$$$$
