/Users/jonathanwahrer/Desktop/Msc/3_Semester/Drug_Design_Praktikum/waehrer_HTS_screening/HTS_experiment/out/docking_results/vina_output/3e7o/0727_docked.pdbqt
 OpenBabel03192215523D

 21 24  0  0  0  0  0  0  0  0999 V2000
  -39.9670  -66.2200   48.7350 Br  0  0  0  0  0  0  0  0  0  0  0  0
  -39.6980  -67.3980   50.2060 C   0  0  0  0  0  0  0  0  0  0  0  0
  -40.6630  -67.8410   51.0650 N   0  0  0  0  0  0  0  0  0  0  0  0
  -40.1100  -68.6530   51.9340 N   0  0  0  0  0  0  0  0  0  0  0  0
  -38.7960  -68.7680   51.6830 C   0  0  0  0  0  0  0  0  0  0  0  0
  -37.7980  -69.4640   52.2510 N   0  0  0  0  0  0  0  0  0  0  0  0
  -36.5520  -69.4110   51.7890 C   0  0  0  0  0  3  0  0  0  0  0  0
  -36.2710  -68.6500   50.7350 N   0  0  0  0  0  0  0  0  0  0  0  0
  -37.2160  -67.8980   50.0790 C   0  0  0  0  0  0  0  0  0  0  0  0
  -38.4960  -67.9670   50.5690 C   0  0  0  0  0  0  0  0  0  0  0  0
  -40.7580  -69.3680   53.0440 C   0  0  0  0  0  1  0  0  0  0  0  0
  -36.8640  -67.0840   49.0020 N   0  0  0  0  0  0  0  0  0  0  0  0
  -36.6310  -65.6670   49.1760 C   0  0  0  0  0  2  0  0  0  0  0  0
  -35.1110  -65.4350   49.0380 C   0  0  0  0  0  2  0  0  0  0  0  0
  -34.5750  -66.3270   47.9880 C   0  0  0  0  0  0  0  0  0  0  0  0
  -33.3190  -66.3260   47.4840 N   0  0  0  0  0  0  0  0  0  0  0  0
  -35.2490  -67.3140   47.3320 C   0  0  0  0  0  0  0  0  0  0  0  0
  -33.2510  -67.2910   46.5520 C   0  0  0  0  0  3  0  0  0  0  0  0
  -32.2160  -65.4730   47.8430 C   0  0  0  0  0  1  0  0  0  0  0  0
  -34.4250  -67.9100   46.4420 N   0  0  0  0  0  0  0  0  0  0  0  0
  -36.6710  -67.5730   47.6610 C   0  0  0  0  0  2  0  0  0  0  0  0
  1  2  1  0  0  0  0
  2 10  1  0  0  0  0
  2  3  2  0  0  0  0
  3  4  1  0  0  0  0
  4 11  1  0  0  0  0
  5  4  1  0  0  0  0
  5  6  1  0  0  0  0
  7  6  2  0  0  0  0
  8  7  1  0  0  0  0
  9 10  1  0  0  0  0
  9  8  2  0  0  0  0
 10  5  2  0  0  0  0
 12 13  1  0  0  0  0
 12  9  1  0  0  0  0
 14 13  1  0  0  0  0
 15 14  1  0  0  0  0
 16 19  1  0  0  0  0
 16 15  1  0  0  0  0
 17 21  1  0  0  0  0
 17 15  2  0  0  0  0
 18 16  1  0  0  0  0
 20 18  2  0  0  0  0
 20 17  1  0  0  0  0
 21 12  1  0  0  0  0
M  END
>  <Pose>
1

>  <Score>
-6.774

$$$$
