/Users/jonathanwahrer/Desktop/Msc/3_Semester/Drug_Design_Praktikum/waehrer_HTS_screening/HTS_experiment/out/docking_results/vina_output/3e7o/0729_docked.pdbqt
 OpenBabel03192215523D

 27 30  0  0  1  0  0  0  0  0999 V2000
  -38.6270  -65.9320   49.1760 N   0  0  0  0  0  0  0  0  0  0  0  0
  -38.9440  -64.7090   49.8570 C   0  0  0  0  0  2  0  0  0  0  0  0
  -39.9780  -65.0990   50.9150 C   0  0  0  0  0  2  0  0  0  0  0  0
  -40.6180  -66.3750   50.5750 N   0  0  0  0  0  0  0  0  0  0  0  0
  -40.9370  -66.3950   49.1450 C   0  0  0  0  0  2  0  0  0  0  0  0
  -39.6610  -66.4740   48.3280 C   0  0  0  0  0  2  0  0  0  0  0  0
  -37.3970  -66.5750   49.3520 C   0  0  0  0  0  0  0  0  0  0  0  0
  -37.2640  -67.6200   50.2040 N   0  0  0  0  0  0  0  0  0  0  0  0
  -36.1050  -68.2300   50.4170 C   0  0  0  0  0  3  0  0  0  0  0  0
  -35.0160  -67.8030   49.7720 N   0  0  0  0  0  0  0  0  0  0  0  0
  -35.0470  -66.7740   48.9070 C   0  0  0  0  0  0  0  0  0  0  0  0
  -34.1060  -66.1820   48.1470 N   0  0  0  0  0  0  0  0  0  0  0  0
  -36.2620  -66.1340   48.6820 C   0  0  0  0  0  0  0  0  0  0  0  0
  -34.6900  -65.2240   47.4780 N   0  0  0  0  0  0  0  0  0  0  0  0
  -32.7130  -66.6060   48.1400 C   0  0  0  0  0  1  0  0  0  0  0  0
  -36.0030  -65.1460   47.7600 C   0  0  0  0  0  0  0  0  0  0  0  0
  -37.2940  -63.9550   47.0470 Br  0  0  0  0  0  0  0  0  0  0  0  0
  -41.8660  -66.4200   51.3210 C   0  0  2  0  0  3  0  0  0  0  0  0
  -42.4550  -64.9830   51.2950 C   0  0  0  0  0  1  0  0  0  0  0  0
  -41.6350  -66.8040   52.7250 C   0  0  0  0  0  0  0  0  0  0  0  0
  -42.4610  -66.2410   53.5570 O   0  0  0  0  0  0  0  0  0  0  0  0
  -40.6620  -67.6690   53.2510 N   0  0  0  0  0  0  0  0  0  0  0  0
  -39.6270  -68.3760   52.5590 C   0  0  0  0  0  2  0  0  0  0  0  0
  -40.6830  -67.8850   54.7160 C   0  0  0  0  0  2  0  0  0  0  0  0
  -39.4790  -69.8260   52.9710 C   0  0  0  0  0  2  0  0  0  0  0  0
  -39.7410  -70.0880   54.4140 C   0  0  0  0  0  2  0  0  0  0  0  0
  -40.9620  -69.3510   54.9220 C   0  0  0  0  0  2  0  0  0  0  0  0
  1  7  1  0  0  0  0
  1  2  1  0  0  0  0
  2  3  1  0  0  0  0
  4  3  1  0  0  0  0
  4 18  1  0  0  0  0
  5  4  1  0  0  0  0
  6  5  1  0  0  0  0
  6  1  1  0  0  0  0
  7  8  1  0  0  0  0
  8  9  2  0  0  0  0
 10  9  1  0  0  0  0
 11 10  2  0  0  0  0
 12 11  1  0  0  0  0
 13 11  1  0  0  0  0
 13  7  2  0  0  0  0
 14 16  2  0  0  0  0
 14 12  1  0  0  0  0
 15 12  1  0  0  0  0
 16 13  1  0  0  0  0
 17 16  1  0  0  0  0
 18 19  1  1  0  0  0
 18 20  1  0  0  0  0
 20 22  1  0  0  0  0
 20 21  2  0  0  0  0
 22 24  1  0  0  0  0
 23 25  1  0  0  0  0
 23 22  1  0  0  0  0
 24 27  1  0  0  0  0
 25 26  1  0  0  0  0
 26 27  1  0  0  0  0
M  END
>  <Pose>
1

>  <Score>
-7.857

$$$$
