/Users/jonathanwahrer/Desktop/Msc/3_Semester/Drug_Design_Praktikum/waehrer_HTS_screening/HTS_experiment/out/docking_results/vina_output/3e7o/0737_docked.pdbqt
 OpenBabel03192215523D

 21 24  0  0  1  0  0  0  0  0999 V2000
  -42.1750  -66.6110   52.7570 C   0  0  2  0  0  3  0  0  0  0  0  0
  -43.4560  -66.3420   52.6420 C   0  0  0  0  0  3  0  0  0  0  0  0
  -44.4560  -66.9400   53.5410 C   0  0  0  0  0  0  0  0  0  0  0  0
  -45.7470  -66.6780   53.4370 C   0  0  0  0  0  1  0  0  0  0  0  0
  -43.9360  -67.8170   54.5280 N   0  0  0  0  0  0  0  0  0  0  0  0
  -42.5340  -68.0980   54.6380 C   0  0  0  0  0  0  0  0  0  0  0  0
  -41.6970  -67.4910   53.7550 N   0  0  0  0  0  0  0  0  0  0  0  0
  -40.4690  -67.9170   54.0710 N   0  0  0  0  0  0  0  0  0  0  0  0
  -40.5040  -68.7620   55.1110 C   0  0  0  0  0  3  0  0  0  0  0  0
  -41.7980  -68.8680   55.4570 N   0  0  0  0  0  0  0  0  0  0  0  0
  -44.5940  -68.2730   55.1960 H   0  0  0  0  0  0  0  0  0  0  0  0
  -41.2610  -66.0100   51.8690 N   0  0  2  0  0  0  0  0  0  0  0  0
  -40.5260  -66.8690   50.9740 C   0  0  0  0  0  2  0  0  0  0  0  0
  -40.1010  -66.1100   49.7600 C   0  0  0  0  0  0  0  0  0  0  0  0
  -39.8510  -64.8040   49.8280 N   0  0  0  0  0  0  0  0  0  0  0  0
  -39.8900  -66.4900   48.4720 N   0  0  0  0  0  0  0  0  0  0  0  0
  -39.4890  -64.3550   48.6210 C   0  0  0  0  0  0  0  0  0  0  0  0
  -39.9790  -64.0700   51.0710 C   0  0  0  0  0  2  0  0  0  0  0  0
  -39.0130  -62.5680   48.1130 Br  0  0  0  0  0  0  0  0  0  0  0  0
  -39.5110  -65.4230   47.7480 C   0  0  0  0  0  3  0  0  0  0  0  0
  -41.1150  -64.5740   51.9120 C   0  0  0  0  0  2  0  0  0  0  0  0
  1  2  1  1  0  0  0
  1  7  1  0  0  0  0
  2  3  2  0  0  0  0
  3  5  1  0  0  0  0
  4  3  1  0  0  0  0
  5  6  1  0  0  0  0
  5 11  1  0  0  0  0
  6 10  2  0  0  0  0
  7  8  1  0  0  0  0
  7  6  1  0  0  0  0
  8  9  2  0  0  0  0
  9 10  1  0  0  0  0
 12 13  1  1  0  0  0
 12 21  1  0  0  0  0
 12  1  1  0  0  0  0
 14 15  1  0  0  0  0
 14 13  1  0  0  0  0
 15 18  1  0  0  0  0
 16 14  2  0  0  0  0
 17 15  1  0  0  0  0
 18 21  1  0  0  0  0
 19 17  1  0  0  0  0
 20 16  1  0  0  0  0
 20 17  2  0  0  0  0
M  END
>  <Pose>
1

>  <Score>
-7.144

$$$$
