/Users/jonathanwahrer/Desktop/Msc/3_Semester/Drug_Design_Praktikum/waehrer_HTS_screening/HTS_experiment/out/docking_results/vina_output/3e7o/0743_docked.pdbqt
 OpenBabel03192215523D

 30 33  0  0  1  0  0  0  0  0999 V2000
  -35.6260  -67.9190   50.3130 C   0  0  0  0  0  0  0  0  0  0  0  0
  -34.8040  -68.6790   50.9250 O   0  0  0  0  0  0  0  0  0  0  0  0
  -35.3270  -66.5420   50.1260 N   0  0  0  0  0  0  0  0  0  0  0  0
  -34.0920  -66.0090   50.6310 C   0  0  0  0  0  2  0  0  0  0  0  0
  -33.5170  -64.9050   49.7970 C   0  0  0  0  0  2  0  0  0  0  0  0
  -34.5400  -64.1790   48.9730 C   0  0  1  0  0  0  0  0  0  0  0  0
  -34.1450  -62.8210   48.7530 N   0  0  0  0  0  0  0  0  0  0  0  0
  -35.0830  -62.0470   48.0140 C   0  0  0  0  0  2  0  0  0  0  0  0
  -35.6720  -62.7220   46.8200 C   0  0  0  0  0  2  0  0  0  0  0  0
  -35.1660  -64.1050   46.6220 C   0  0  0  0  0  0  0  0  0  0  0  0
  -35.1250  -64.8870   45.5430 N   0  0  0  0  0  0  0  0  0  0  0  0
  -34.5700  -66.0620   45.8680 C   0  0  0  0  0  3  0  0  0  0  0  0
  -34.2480  -66.0430   47.1690 N   0  0  0  0  0  0  0  0  0  0  0  0
  -34.6120  -64.8430   47.6380 C   0  0  0  0  0  0  0  0  0  0  0  0
  -35.9120  -64.3030   49.6150 C   0  0  0  0  0  2  0  0  0  0  0  0
  -36.3230  -65.7470   49.4150 C   0  0  0  0  0  2  0  0  0  0  0  0
  -33.9970  -62.3720   49.6830 H   0  0  0  0  0  0  0  0  0  0  0  0
  -33.7890  -66.8320   47.7280 H   0  0  0  0  0  0  0  0  0  0  0  0
  -36.8660  -68.5450   49.8280 C   0  0  0  0  0  2  0  0  0  0  0  0
  -37.5280  -69.4120   50.8540 C   0  0  0  0  0  2  0  0  0  0  0  0
  -38.5460  -68.7400   51.5990 N   0  0  0  0  0  0  0  0  0  0  0  0
  -39.2270  -69.3510   52.6870 C   0  0  0  0  0  0  0  0  0  0  0  0
  -38.9050  -70.5380   52.9910 O   0  0  0  0  0  0  0  0  0  0  0  0
  -38.8080  -67.7680   51.3470 H   0  0  0  0  0  0  0  0  0  0  0  0
  -40.2560  -68.6940   53.4520 C   0  0  0  0  0  0  0  0  0  0  0  0
  -41.2320  -67.9850   52.9910 O   0  0  0  0  0  0  0  0  0  0  0  0
  -41.9990  -67.5210   53.9310 C   0  0  0  0  0  0  0  0  0  0  0  0
  -43.5700  -66.4210   53.7760 Br  0  0  0  0  0  0  0  0  0  0  0  0
  -41.4830  -67.9630   55.1280 C   0  0  0  0  0  3  0  0  0  0  0  0
  -40.3630  -68.7170   54.8480 C   0  0  0  0  0  3  0  0  0  0  0  0
  1  2  2  0  0  0  0
  3  1  1  0  0  0  0
  3  4  1  0  0  0  0
  5  4  1  0  0  0  0
  6 15  1  1  0  0  0
  6  5  1  0  0  0  0
  7  6  1  0  0  0  0
  7 17  1  0  0  0  0
  8  7  1  0  0  0  0
  9  8  1  0  0  0  0
 10  9  1  0  0  0  0
 10 14  2  0  0  0  0
 11 12  2  0  0  0  0
 11 10  1  0  0  0  0
 12 13  1  0  0  0  0
 13 14  1  0  0  0  0
 13 18  1  0  0  0  0
 14  6  1  0  0  0  0
 16 15  1  0  0  0  0
 16  3  1  0  0  0  0
 19  1  1  0  0  0  0
 19 20  1  0  0  0  0
 20 21  1  0  0  0  0
 21 22  1  0  0  0  0
 22 23  2  0  0  0  0
 22 25  1  0  0  0  0
 24 21  1  0  0  0  0
 25 30  2  0  0  0  0
 26 25  1  0  0  0  0
 26 27  1  0  0  0  0
 27 29  2  0  0  0  0
 28 27  1  0  0  0  0
 30 29  1  0  0  0  0
M  END
>  <Pose>
1

>  <Score>
-7.974

$$$$
