/Users/jonathanwahrer/Desktop/Msc/3_Semester/Drug_Design_Praktikum/waehrer_HTS_screening/HTS_experiment/out/docking_results/vina_output/3e7o/0746_docked.pdbqt
 OpenBabel03192215523D

 30 33  0  0  1  0  0  0  0  0999 V2000
  -37.4500  -65.6160   49.4310 C   0  0  0  0  0  0  0  0  0  0  0  0
  -37.8870  -64.4140   49.4840 O   0  0  0  0  0  0  0  0  0  0  0  0
  -36.0780  -65.8030   49.6340 N   0  0  0  0  0  0  0  0  0  0  0  0
  -35.4490  -67.1070   49.6070 C   0  0  0  0  0  2  0  0  0  0  0  0
  -34.4560  -67.1160   48.4860 C   0  0  0  0  0  2  0  0  0  0  0  0
  -33.5120  -65.9580   48.5580 C   0  0  1  0  0  0  0  0  0  0  0  0
  -32.1550  -66.4730   48.5920 N   0  0  0  0  0  0  0  0  0  0  0  0
  -31.8940  -67.1290   47.3240 C   0  0  0  0  0  2  0  0  0  0  0  0
  -31.5310  -66.0150   46.3360 C   0  0  0  0  0  2  0  0  0  0  0  0
  -32.6860  -65.0850   46.3370 C   0  0  0  0  0  0  0  0  0  0  0  0
  -33.0450  -64.1630   45.4230 N   0  0  0  0  0  0  0  0  0  0  0  0
  -34.1640  -63.5730   45.8710 C   0  0  0  0  0  3  0  0  0  0  0  0
  -34.4870  -64.1300   47.0520 N   0  0  0  0  0  0  0  0  0  0  0  0
  -33.5890  -65.0760   47.3720 C   0  0  0  0  0  0  0  0  0  0  0  0
  -33.7660  -65.1660   49.8400 C   0  0  0  0  0  2  0  0  0  0  0  0
  -35.1810  -64.6910   49.8960 C   0  0  0  0  0  2  0  0  0  0  0  0
  -32.0490  -67.2210   49.3330 H   0  0  0  0  0  0  0  0  0  0  0  0
  -32.5780  -63.9100   44.5160 H   0  0  0  0  0  0  0  0  0  0  0  0
  -38.4590  -66.6550   49.1630 C   0  0  2  0  0  3  0  0  0  0  0  0
  -39.3410  -66.3990   47.9950 C   0  0  0  0  0  1  0  0  0  0  0  0
  -39.2840  -66.9310   50.3220 N   0  0  0  0  0  0  0  0  0  0  0  0
  -39.1070  -68.0550   51.1480 C   0  0  0  0  0  0  0  0  0  0  0  0
  -38.2000  -68.8730   50.8890 O   0  0  0  0  0  0  0  0  0  0  0  0
  -40.0430  -66.2550   50.5460 H   0  0  0  0  0  0  0  0  0  0  0  0
  -39.9700  -68.2750   52.2980 C   0  0  0  0  0  0  0  0  0  0  0  0
  -41.0610  -67.5630   52.5800 O   0  0  0  0  0  0  0  0  0  0  0  0
  -41.6220  -68.0000   53.6780 C   0  0  0  0  0  0  0  0  0  0  0  0
  -43.2200  -67.2870   54.4810 Br  0  0  0  0  0  0  0  0  0  0  0  0
  -40.8860  -69.0630   54.1740 C   0  0  0  0  0  3  0  0  0  0  0  0
  -39.8480  -69.2210   53.2910 C   0  0  0  0  0  3  0  0  0  0  0  0
  1  2  2  0  0  0  0
  1  3  1  0  0  0  0
  3 16  1  0  0  0  0
  4  3  1  0  0  0  0
  5  4  1  0  0  0  0
  6  5  1  6  0  0  0
  6  7  1  0  0  0  0
  6 15  1  0  0  0  0
  7 17  1  0  0  0  0
  8  7  1  0  0  0  0
  9 10  1  0  0  0  0
  9  8  1  0  0  0  0
 10 14  2  0  0  0  0
 11 12  1  0  0  0  0
 11 10  1  0  0  0  0
 12 13  2  0  0  0  0
 13 14  1  0  0  0  0
 14  6  1  0  0  0  0
 15 16  1  0  0  0  0
 18 11  1  0  0  0  0
 19 20  1  6  0  0  0
 19  1  1  0  0  0  0
 19 21  1  0  0  0  0
 21 24  1  0  0  0  0
 21 22  1  0  0  0  0
 22 25  1  0  0  0  0
 23 22  2  0  0  0  0
 25 26  1  0  0  0  0
 25 30  2  0  0  0  0
 26 27  1  0  0  0  0
 27 29  2  0  0  0  0
 27 28  1  0  0  0  0
 30 29  1  0  0  0  0
M  END
>  <Pose>
1

>  <Score>
-7.291

$$$$
