/Users/jonathanwahrer/Desktop/Msc/3_Semester/Drug_Design_Praktikum/waehrer_HTS_screening/HTS_experiment/out/docking_results/vina_output/3e7o/0754_docked.pdbqt
 OpenBabel03192215523D

 27 30  0  0  0  0  0  0  0  0999 V2000
  -36.1920  -64.3330   49.0660 C   0  0  0  0  0  0  0  0  0  0  0  0
  -36.0580  -63.1610   49.4460 O   0  0  0  0  0  0  0  0  0  0  0  0
  -37.4300  -64.7640   48.5290 N   0  0  0  0  0  0  0  0  0  0  0  0
  -38.5330  -63.8310   48.4240 C   0  0  0  0  0  2  0  0  0  0  0  0
  -39.7340  -64.2750   49.2230 C   0  0  0  0  0  2  0  0  0  0  0  0
  -39.6900  -65.7470   49.2540 N   0  0  0  0  0  0  0  0  0  0  0  0
  -39.2050  -66.3840   48.0780 C   0  0  0  0  0  2  0  0  0  0  0  0
  -37.6900  -66.1110   48.0590 C   0  0  0  0  0  2  0  0  0  0  0  0
  -40.1340  -66.3730   50.4440 C   0  0  0  0  0  0  0  0  0  0  0  0
  -41.1020  -65.8170   51.2240 N   0  0  0  0  0  0  0  0  0  0  0  0
  -41.5300  -66.3990   52.3550 C   0  0  0  0  0  0  0  0  0  0  0  0
  -40.9980  -67.5750   52.7550 N   0  0  0  0  0  0  0  0  0  0  0  0
  -40.0390  -68.1980   52.0490 C   0  0  0  0  0  0  0  0  0  0  0  0
  -39.6150  -67.5610   50.8730 C   0  0  0  0  0  3  0  0  0  0  0  0
  -39.4400  -69.4930   52.4700 C   0  0  0  0  0  1  0  0  0  0  0  0
  -42.5410  -65.7800   53.1320 N   0  0  0  0  0  0  0  0  0  0  0  0
  -43.0180  -64.4410   52.8870 C   0  0  0  0  0  2  0  0  0  0  0  0
  -44.5130  -64.4420   52.7630 C   0  0  0  0  0  2  0  0  0  0  0  0
  -45.0910  -65.6540   53.1380 O   0  0  0  0  0  0  0  0  0  0  0  0
  -44.5790  -66.0860   54.3580 C   0  0  0  0  0  2  0  0  0  0  0  0
  -43.1370  -66.5130   54.2280 C   0  0  0  0  0  2  0  0  0  0  0  0
  -35.0440  -65.2510   49.1870 C   0  0  0  0  0  0  0  0  0  0  0  0
  -34.0530  -65.4140   48.3630 O   0  0  0  0  0  0  0  0  0  0  0  0
  -33.2230  -66.3020   48.7780 C   0  0  0  0  0  0  0  0  0  0  0  0
  -31.5970  -66.9080   47.9240 Br  0  0  0  0  0  0  0  0  0  0  0  0
  -33.6760  -66.7870   49.9800 C   0  0  0  0  0  3  0  0  0  0  0  0
  -34.8420  -66.1140   50.2390 C   0  0  0  0  0  3  0  0  0  0  0  0
  1 22  1  0  0  0  0
  1  2  2  0  0  0  0
  3  1  1  0  0  0  0
  4  3  1  0  0  0  0
  4  5  1  0  0  0  0
  5  6  1  0  0  0  0
  6  9  1  0  0  0  0
  7  6  1  0  0  0  0
  8  7  1  0  0  0  0
  8  3  1  0  0  0  0
  9 14  2  0  0  0  0
  9 10  1  0  0  0  0
 10 11  2  0  0  0  0
 11 12  1  0  0  0  0
 11 16  1  0  0  0  0
 13 15  1  0  0  0  0
 13 12  2  0  0  0  0
 14 13  1  0  0  0  0
 16 21  1  0  0  0  0
 17 16  1  0  0  0  0
 18 17  1  0  0  0  0
 18 19  1  0  0  0  0
 19 20  1  0  0  0  0
 21 20  1  0  0  0  0
 22 27  2  0  0  0  0
 23 24  1  0  0  0  0
 23 22  1  0  0  0  0
 24 26  2  0  0  0  0
 25 24  1  0  0  0  0
 26 27  1  0  0  0  0
M  END
>  <Pose>
1

>  <Score>
-7.728

$$$$
