/Users/jonathanwahrer/Desktop/Msc/3_Semester/Drug_Design_Praktikum/waehrer_HTS_screening/HTS_experiment/out/docking_results/vina_output/3e7o/0755_docked.pdbqt
 OpenBabel03192215533D

 28 31  0  0  0  0  0  0  0  0999 V2000
  -42.8060  -64.8880   51.9710 C   0  0  0  0  0  0  0  0  0  0  0  0
  -42.9320  -63.6860   52.2470 O   0  0  0  0  0  0  0  0  0  0  0  0
  -41.9590  -65.3110   50.9130 N   0  0  0  0  0  0  0  0  0  0  0  0
  -41.8170  -66.7300   50.5950 C   0  0  0  0  0  2  0  0  0  0  0  0
  -40.8040  -66.9120   49.4670 C   0  0  0  0  0  2  0  0  0  0  0  0
  -39.6170  -66.1640   49.8310 N   0  0  0  0  0  0  0  0  0  0  0  0
  -39.7420  -64.7560   50.0910 C   0  0  0  0  0  2  0  0  0  0  0  0
  -41.2010  -64.3780   50.1030 C   0  0  0  0  0  2  0  0  0  0  0  0
  -38.3360  -66.7990   49.9330 C   0  0  0  0  0  0  0  0  0  0  0  0
  -38.1750  -67.9550   50.5910 N   0  0  0  0  0  0  0  0  0  0  0  0
  -36.9660  -68.5240   50.6710 C   0  0  0  0  0  0  0  0  0  0  0  0
  -35.8800  -67.9650   50.1030 N   0  0  0  0  0  0  0  0  0  0  0  0
  -36.7980  -69.8050   51.4020 C   0  0  0  0  0  1  0  0  0  0  0  0
  -35.9730  -66.8050   49.4290 C   0  0  0  0  0  0  0  0  0  0  0  0
  -37.2260  -66.2360   49.3570 C   0  0  0  0  0  3  0  0  0  0  0  0
  -34.8610  -66.1790   48.8140 N   0  0  0  0  0  0  0  0  0  0  0  0
  -33.6630  -65.8990   49.5790 C   0  0  0  0  0  2  0  0  0  0  0  0
  -32.5760  -65.5290   48.5930 C   0  0  0  0  0  2  0  0  0  0  0  0
  -32.9790  -64.3460   47.8820 N   0  0  0  0  0  0  0  0  0  0  0  0
  -34.3130  -64.3740   47.3690 C   0  0  0  0  0  2  0  0  0  0  0  0
  -32.6590  -63.1730   48.6550 C   0  0  0  0  0  1  0  0  0  0  0  0
  -34.8510  -65.7880   47.4180 C   0  0  0  0  0  2  0  0  0  0  0  0
  -43.5480  -65.9020   52.7560 C   0  0  0  0  0  0  0  0  0  0  0  0
  -44.8130  -66.2170   52.6320 O   0  0  0  0  0  0  0  0  0  0  0  0
  -45.1770  -67.1530   53.4710 C   0  0  0  0  0  0  0  0  0  0  0  0
  -46.9280  -67.9020   53.6230 Br  0  0  0  0  0  0  0  0  0  0  0  0
  -44.0680  -67.4920   54.2170 C   0  0  0  0  0  3  0  0  0  0  0  0
  -43.0490  -66.6980   53.7580 C   0  0  0  0  0  3  0  0  0  0  0  0
  1  2  2  0  0  0  0
  1 23  1  0  0  0  0
  3  1  1  0  0  0  0
  4  3  1  0  0  0  0
  5  6  1  0  0  0  0
  5  4  1  0  0  0  0
  6  9  1  0  0  0  0
  6  7  1  0  0  0  0
  7  8  1  0  0  0  0
  8  3  1  0  0  0  0
  9 10  1  0  0  0  0
 10 11  2  0  0  0  0
 11 13  1  0  0  0  0
 12 11  1  0  0  0  0
 14 12  2  0  0  0  0
 15 14  1  0  0  0  0
 15  9  2  0  0  0  0
 16 14  1  0  0  0  0
 16 17  1  0  0  0  0
 18 17  1  0  0  0  0
 19 18  1  0  0  0  0
 19 21  1  0  0  0  0
 20 22  1  0  0  0  0
 20 19  1  0  0  0  0
 22 16  1  0  0  0  0
 23 28  2  0  0  0  0
 24 23  1  0  0  0  0
 24 25  1  0  0  0  0
 25 26  1  0  0  0  0
 25 27  2  0  0  0  0
 28 27  1  0  0  0  0
M  END
>  <Pose>
1

>  <Score>
-7.995

$$$$
