/Users/jonathanwahrer/Desktop/Msc/3_Semester/Drug_Design_Praktikum/waehrer_HTS_screening/HTS_experiment/out/docking_results/vina_output/3e7o/0767_docked.pdbqt
 OpenBabel03192215533D

 32 35  0  0  0  0  0  0  0  0999 V2000
  -43.8040  -63.2730   49.4180 C   0  0  0  0  0  2  0  0  0  0  0  0
  -42.6970  -64.1440   49.2130 N   0  0  0  0  0  0  0  0  0  0  0  0
  -41.4140  -63.6540   48.8410 C   0  0  0  0  0  0  0  0  0  0  0  0
  -41.2710  -62.3930   48.6910 O   0  0  0  0  0  0  0  0  0  0  0  0
  -42.8210  -65.1660   49.3360 H   0  0  0  0  0  0  0  0  0  0  0  0
  -40.2790  -64.5430   48.6290 C   0  0  0  0  0  0  0  0  0  0  0  0
  -39.8420  -64.8930   47.4460 O   0  0  0  0  0  0  0  0  0  0  0  0
  -38.8190  -65.6920   47.5610 N   0  0  0  0  0  0  0  0  0  0  0  0
  -38.5480  -65.8950   48.8700 C   0  0  0  0  0  0  0  0  0  0  0  0
  -39.4790  -65.1620   49.5050 N   0  0  0  0  0  0  0  0  0  0  0  0
  -37.4910  -66.7180   49.4450 C   0  0  0  0  0  0  0  0  0  0  0  0
  -36.2270  -66.4130   49.5930 O   0  0  0  0  0  0  0  0  0  0  0  0
  -35.5480  -67.3730   50.1430 C   0  0  0  0  0  0  0  0  0  0  0  0
  -33.7010  -67.4330   50.5710 Br  0  0  0  0  0  0  0  0  0  0  0  0
  -36.4140  -68.4380   50.4000 C   0  0  0  0  0  3  0  0  0  0  0  0
  -37.6480  -67.9980   49.9460 C   0  0  0  0  0  3  0  0  0  0  0  0
  -44.6250  -63.6390   50.6360 C   0  0  0  0  0  2  0  0  0  0  0  0
  -44.1510  -64.8760   51.2410 N   0  0  0  0  0  0  0  0  0  0  0  0
  -43.3300  -64.8080   52.3800 C   0  0  0  0  0  0  0  0  0  0  0  0
  -43.0660  -63.6230   52.7940 O   0  0  0  0  0  0  0  0  0  0  0  0
  -44.4070  -65.8020   50.8560 H   0  0  0  0  0  0  0  0  0  0  0  0
  -42.7580  -65.8980   53.1270 C   0  0  0  0  0  0  0  0  0  0  0  0
  -41.6820  -66.5920   52.5750 C   0  0  0  0  0  3  0  0  0  0  0  0
  -41.1110  -67.6290   53.2700 C   0  0  0  0  0  0  0  0  0  0  0  0
  -41.5910  -67.9820   54.4930 C   0  0  0  0  0  0  0  0  0  0  0  0
  -40.0310  -68.3460   52.7470 C   0  0  0  0  0  3  0  0  0  0  0  0
  -41.0070  -69.0380   55.1960 C   0  0  0  0  0  3  0  0  0  0  0  0
  -42.5960  -67.3150   54.9820 O   0  0  0  0  0  0  0  0  0  0  0  0
  -39.9450  -69.7450   54.6870 C   0  0  0  0  0  3  0  0  0  0  0  0
  -39.4660  -69.3850   53.4530 C   0  0  0  0  0  3  0  0  0  0  0  0
  -43.1940  -66.3020   54.3640 C   0  0  0  0  0  0  0  0  0  0  0  0
  -44.1540  -65.7450   54.9460 O   0  0  0  0  0  0  0  0  0  0  0  0
  1 17  1  0  0  0  0
  2  5  1  0  0  0  0
  2  1  1  0  0  0  0
  3  2  1  0  0  0  0
  4  3  2  0  0  0  0
  6  3  1  0  0  0  0
  6 10  2  0  0  0  0
  7  8  1  0  0  0  0
  7  6  1  0  0  0  0
  8  9  2  0  0  0  0
  9 11  1  0  0  0  0
  9 10  1  0  0  0  0
 11 12  1  0  0  0  0
 11 16  2  0  0  0  0
 12 13  1  0  0  0  0
 13 15  2  0  0  0  0
 13 14  1  0  0  0  0
 16 15  1  0  0  0  0
 17 18  1  0  0  0  0
 18 19  1  0  0  0  0
 19 20  2  0  0  0  0
 19 22  1  0  0  0  0
 21 18  1  0  0  0  0
 22 31  1  0  0  0  0
 23 22  2  0  0  0  0
 23 24  1  0  0  0  0
 24 25  1  0  0  0  0
 25 28  1  0  0  0  0
 25 27  2  0  0  0  0
 26 24  2  0  0  0  0
 26 30  1  0  0  0  0
 29 27  1  0  0  0  0
 30 29  2  0  0  0  0
 31 32  2  0  0  0  0
 31 28  1  0  0  0  0
M  END
>  <Pose>
1

>  <Score>
-9.426

$$$$
