/Users/jonathanwahrer/Desktop/Msc/3_Semester/Drug_Design_Praktikum/waehrer_HTS_screening/HTS_experiment/out/docking_results/vina_output/3e7o/0769_docked.pdbqt
 OpenBabel03192215533D

 26 29  0  0  0  0  0  0  0  0999 V2000
  -34.3450  -67.5990   50.3780 C   0  0  0  0  0  0  0  0  0  0  0  0
  -33.2930  -68.1730   50.9300 O   0  0  0  0  0  0  0  0  0  0  0  0
  -35.5490  -68.2670   50.5470 N   0  0  0  0  0  0  0  0  0  0  0  0
  -35.5610  -69.5390   51.3140 C   0  0  0  0  0  2  0  0  0  0  0  0
  -36.5510  -69.4110   52.4470 C   0  0  0  0  0  2  0  0  0  0  0  0
  -37.8250  -69.1000   51.9310 N   0  0  0  0  0  0  0  0  0  0  0  0
  -37.8170  -68.9700   50.5140 C   0  0  0  0  0  2  0  0  0  0  0  0
  -36.8170  -67.8770   50.0640 C   0  0  0  0  0  2  0  0  0  0  0  0
  -34.0000  -66.3640   49.7000 C   0  0  0  0  0  0  0  0  0  0  0  0
  -34.8480  -65.2950   49.5930 C   0  0  0  0  0  3  0  0  0  0  0  0
  -34.4230  -64.1450   48.9210 C   0  0  0  0  0  0  0  0  0  0  0  0
  -35.5400  -62.6390   48.7370 Br  0  0  0  0  0  0  0  0  0  0  0  0
  -33.1590  -64.1210   48.3850 C   0  0  0  0  0  0  0  0  0  0  0  0
  -32.3870  -65.1430   48.5050 O   0  0  0  0  0  0  0  0  0  0  0  0
  -32.7290  -63.1100   47.7720 O   0  0  0  0  0  0  0  0  0  0  0  0
  -32.7360  -66.2290   49.1180 C   0  0  0  0  0  3  0  0  0  0  0  0
  -38.9100  -69.9020   52.4000 C   0  0  0  0  0  2  0  0  0  0  0  0
  -39.9810  -69.1750   53.1060 C   0  0  0  0  0  0  0  0  0  0  0  0
  -40.7650  -68.2170   52.5490 C   0  0  0  0  0  3  0  0  0  0  0  0
  -41.7370  -67.5920   53.2900 C   0  0  0  0  0  0  0  0  0  0  0  0
  -41.9140  -67.9380   54.6020 C   0  0  0  0  0  0  0  0  0  0  0  0
  -42.6810  -66.5920   53.0080 O   0  0  0  0  0  0  0  0  0  0  0  0
  -41.1310  -68.9060   55.1890 C   0  0  0  0  0  3  0  0  0  0  0  0
  -42.9400  -67.1830   55.1450 O   0  0  0  0  0  0  0  0  0  0  0  0
  -40.1790  -69.5080   54.4330 C   0  0  0  0  0  3  0  0  0  0  0  0
  -43.1510  -66.1000   54.2490 C   0  0  0  0  0  2  0  0  0  0  0  0
  1  3  1  0  0  0  0
  1  2  2  0  0  0  0
  3  4  1  0  0  0  0
  4  5  1  0  0  0  0
  6 17  1  0  0  0  0
  6  5  1  0  0  0  0
  7  6  1  0  0  0  0
  8  7  1  0  0  0  0
  8  3  1  0  0  0  0
  9  1  1  0  0  0  0
 10  9  1  0  0  0  0
 11 10  2  0  0  0  0
 12 11  1  0  0  0  0
 13 14  1  0  0  0  0
 13 11  1  0  0  0  0
 14 16  1  0  0  0  0
 15 13  2  0  0  0  0
 16  9  2  0  0  0  0
 17 18  1  0  0  0  0
 18 25  1  0  0  0  0
 19 18  2  0  0  0  0
 19 20  1  0  0  0  0
 20 21  2  0  0  0  0
 21 24  1  0  0  0  0
 21 23  1  0  0  0  0
 22 20  1  0  0  0  0
 22 26  1  0  0  0  0
 25 23  2  0  0  0  0
 26 24  1  0  0  0  0
M  END
>  <Pose>
1

>  <Score>
-8.423

$$$$
