/Users/jonathanwahrer/Desktop/Msc/3_Semester/Drug_Design_Praktikum/waehrer_HTS_screening/HTS_experiment/out/docking_results/vina_output/3e7o/0776_docked.pdbqt
 OpenBabel03192215533D

 38 41  0  0  1  0  0  0  0  0999 V2000
  -34.0820  -65.2520   49.3150 C   0  0  2  0  0  3  0  0  0  0  0  0
  -33.9850  -66.6480   48.6860 C   0  0  1  0  0  0  0  0  0  0  0  0
  -35.3570  -67.1380   48.3720 C   0  0  0  0  0  2  0  0  0  0  0  0
  -36.1290  -67.2730   49.6650 C   0  0  1  0  0  0  0  0  0  0  0  0
  -35.5740  -66.5390   50.6960 O   0  0  0  0  0  0  0  0  0  0  0  0
  -35.1830  -65.2610   50.3220 C   0  0  0  0  0  2  0  0  0  0  0  0
  -37.5490  -66.9440   49.3810 C   0  0  0  0  0  2  0  0  0  0  0  0
  -38.3540  -67.1140   50.6790 C   0  0  0  0  0  2  0  0  0  0  0  0
  -38.3610  -68.5020   51.0050 N   0  0  0  0  0  0  0  0  0  0  0  0
  -37.4420  -69.3430   50.1670 C   0  0  0  0  0  2  0  0  0  0  0  0
  -36.0830  -68.7310   50.0730 C   0  0  0  0  0  2  0  0  0  0  0  0
  -39.1110  -69.1100   51.9920 C   0  0  0  0  0  0  0  0  0  0  0  0
  -38.9620  -70.4140   52.0890 O   0  0  0  0  0  0  0  0  0  0  0  0
  -33.0510  -66.6530   47.5190 C   0  0  0  0  0  1  0  0  0  0  0  0
  -33.4470  -67.4830   49.6680 O   0  0  0  0  0  0  0  0  0  0  0  0
  -34.1410  -67.9630   50.1880 H   0  0  0  0  0  0  0  0  0  0  0  0
  -34.1430  -64.2140   48.3360 N   0  0  0  0  0  0  0  0  0  0  0  0
  -35.1410  -64.0710   47.4450 C   0  0  0  0  0  3  0  0  0  0  0  0
  -35.1710  -63.0630   46.5150 C   0  0  0  0  0  0  0  0  0  0  0  0
  -36.6460  -62.9820   45.3150 Br  0  0  0  0  0  0  0  0  0  0  0  0
  -34.1480  -62.1470   46.4730 C   0  0  0  0  0  0  0  0  0  0  0  0
  -33.1520  -62.2910   47.3640 N   0  0  0  0  0  0  0  0  0  0  0  0
  -34.1840  -61.2290   45.6190 O   0  0  0  0  0  0  0  0  0  0  0  0
  -33.1530  -63.2760   48.2480 C   0  0  0  0  0  0  0  0  0  0  0  0
  -32.3830  -61.5890   47.3200 H   0  0  0  0  0  0  0  0  0  0  0  0
  -32.1790  -63.3430   49.0530 O   0  0  0  0  0  0  0  0  0  0  0  0
  -40.0250  -68.5670   52.9330 C   0  0  0  0  0  0  0  0  0  0  0  0
  -40.9940  -67.6340   52.5210 C   0  0  0  0  0  3  0  0  0  0  0  0
  -41.9310  -67.0590   53.3190 C   0  0  0  0  0  0  0  0  0  0  0  0
  -41.9210  -67.4410   54.6760 C   0  0  0  0  0  3  0  0  0  0  0  0
  -40.9990  -68.3370   55.0970 C   0  0  0  0  0  3  0  0  0  0  0  0
  -40.0410  -68.9130   54.2460 C   0  0  0  0  0  3  0  0  0  0  0  0
  -42.8520  -66.1540   52.8810 O   0  0  0  0  0  0  0  0  0  0  0  0
  -43.4600  -65.0990   53.4930 C   0  0  0  0  0  2  0  0  0  0  0  0
  -44.9470  -65.2020   53.4920 C   0  0  0  0  0  2  0  0  0  0  0  0
  -45.3600  -66.3260   54.3350 N   0  0  0  0  0  0  0  0  0  0  0  0
  -45.9670  -66.0270   55.1120 H   0  0  0  0  0  0  0  0  0  0  0  0
  -44.5790  -66.9350   54.5980 H   0  0  0  0  0  0  0  0  0  0  0  0
  1 17  1  6  0  0  0
  1  6  1  0  0  0  0
  2 14  1  6  0  0  0
  2  1  1  0  0  0  0
  2 15  1  0  0  0  0
  3  2  1  0  0  0  0
  4  3  1  6  0  0  0
  4 11  1  0  0  0  0
  4  5  1  0  0  0  0
  6  5  1  0  0  0  0
  7  4  1  0  0  0  0
  7  8  1  0  0  0  0
  8  9  1  0  0  0  0
  9 12  1  0  0  0  0
 10  9  1  0  0  0  0
 11 10  1  0  0  0  0
 12 13  2  0  0  0  0
 12 27  1  0  0  0  0
 15 16  1  0  0  0  0
 18 17  1  0  0  0  0
 19 18  2  0  0  0  0
 20 19  1  0  0  0  0
 21 19  1  0  0  0  0
 21 22  1  0  0  0  0
 22 24  1  0  0  0  0
 23 21  2  0  0  0  0
 24 17  1  0  0  0  0
 24 26  2  0  0  0  0
 25 22  1  0  0  0  0
 27 32  1  0  0  0  0
 28 27  2  0  0  0  0
 28 29  1  0  0  0  0
 29 30  2  0  0  0  0
 30 31  1  0  0  0  0
 32 31  2  0  0  0  0
 33 29  1  0  0  0  0
 33 34  1  0  0  0  0
 35 34  1  0  0  0  0
 35 36  1  0  0  0  0
 36 38  1  0  0  0  0
 36 37  1  0  0  0  0
M  END
>  <Pose>
1

>  <Score>
-8.378

$$$$
