/Users/jonathanwahrer/Desktop/Msc/3_Semester/Drug_Design_Praktikum/waehrer_HTS_screening/HTS_experiment/out/docking_results/vina_output/3e7o/0783_docked.pdbqt
 OpenBabel03192215543D

 39 42  0  0  1  0  0  0  0  0999 V2000
  -39.6780  -63.6810   48.7280 C   0  0  1  0  0  3  0  0  0  0  0  0
  -40.4600  -64.0110   49.9350 C   0  0  2  0  0  0  0  0  0  0  0  0
  -40.0720  -65.3440   50.5870 C   0  0  0  0  0  2  0  0  0  0  0  0
  -40.1360  -66.4650   49.5800 C   0  0  2  0  0  0  0  0  0  0  0  0
  -40.0370  -65.9960   48.2830 O   0  0  0  0  0  0  0  0  0  0  0  0
  -39.1830  -64.9540   48.0970 C   0  0  0  0  0  2  0  0  0  0  0  0
  -41.4380  -67.2100   49.8090 C   0  0  0  0  0  2  0  0  0  0  0  0
  -41.2110  -68.4090   50.6890 C   0  0  0  0  0  2  0  0  0  0  0  0
  -40.2770  -68.0520   51.7260 N   0  0  0  0  0  0  0  0  0  0  0  0
  -38.9110  -67.8040   51.2890 C   0  0  0  0  0  2  0  0  0  0  0  0
  -38.9690  -67.3890   49.8360 C   0  0  0  0  0  2  0  0  0  0  0  0
  -40.6750  -67.9750   53.0630 C   0  0  0  0  0  0  0  0  0  0  0  0
  -39.7520  -67.6430   53.8930 O   0  0  0  0  0  0  0  0  0  0  0  0
  -41.9450  -63.9360   49.7850 C   0  0  0  0  0  1  0  0  0  0  0  0
  -40.1250  -63.0480   50.9220 O   0  0  0  0  0  0  0  0  0  0  0  0
  -39.6780  -62.2640   50.5280 H   0  0  0  0  0  0  0  0  0  0  0  0
  -40.3740  -62.8520   47.7640 N   0  0  0  0  0  0  0  0  0  0  0  0
  -40.8500  -63.3980   46.6500 C   0  0  0  0  0  3  0  0  0  0  0  0
  -41.5080  -62.6350   45.7130 C   0  0  0  0  0  0  0  0  0  0  0  0
  -42.1880  -63.4460   44.1100 Br  0  0  0  0  0  0  0  0  0  0  0  0
  -41.6680  -61.2860   45.9520 C   0  0  0  0  0  0  0  0  0  0  0  0
  -41.1650  -60.7910   47.0970 N   0  0  0  0  0  0  0  0  0  0  0  0
  -42.2680  -60.5430   45.1200 O   0  0  0  0  0  0  0  0  0  0  0  0
  -40.5240  -61.5510   47.9990 C   0  0  0  0  0  0  0  0  0  0  0  0
  -41.2860  -59.7500   47.2860 H   0  0  0  0  0  0  0  0  0  0  0  0
  -40.0820  -60.9910   49.0560 O   0  0  0  0  0  0  0  0  0  0  0  0
  -41.9850  -68.2220   53.6550 C   0  0  1  0  0  3  0  0  0  0  0  0
  -41.9970  -69.4360   54.4720 N   0  0  0  0  0  0  0  0  0  0  0  0
  -41.9620  -70.2910   53.8750 H   0  0  0  0  0  0  0  0  0  0  0  0
  -42.9100  -69.4780   54.9890 H   0  0  0  0  0  0  0  0  0  0  0  0
  -42.5090  -67.1180   54.5470 C   0  0  0  0  0  2  0  0  0  0  0  0
  -43.3530  -66.2350   53.6600 C   0  0  0  0  0  0  0  0  0  0  0  0
  -44.4810  -66.7330   53.0630 C   0  0  0  0  0  3  0  0  0  0  0  0
  -45.2300  -65.8840   52.2530 C   0  0  0  0  0  3  0  0  0  0  0  0
  -44.8670  -64.5730   52.0440 C   0  0  0  0  0  0  0  0  0  0  0  0
  -43.7240  -64.1090   52.6630 C   0  0  0  0  0  3  0  0  0  0  0  0
  -42.9590  -64.9260   53.4710 C   0  0  0  0  0  3  0  0  0  0  0  0
  -45.6490  -63.7770   51.2300 O   0  0  0  0  0  0  0  0  0  0  0  0
  -46.5380  -63.3680   51.5160 H   0  0  0  0  0  0  0  0  0  0  0  0
  1 17  1  6  0  0  0
  1  2  1  0  0  0  0
  2 14  1  6  0  0  0
  2  3  1  0  0  0  0
  2 15  1  0  0  0  0
  4  7  1  1  0  0  0
  4 11  1  0  0  0  0
  4  3  1  0  0  0  0
  5  4  1  0  0  0  0
  6  5  1  0  0  0  0
  6  1  1  0  0  0  0
  7  8  1  0  0  0  0
  8  9  1  0  0  0  0
  9 12  1  0  0  0  0
 10  9  1  0  0  0  0
 11 10  1  0  0  0  0
 12 27  1  0  0  0  0
 12 13  2  0  0  0  0
 16 15  1  0  0  0  0
 17 24  1  0  0  0  0
 18 17  1  0  0  0  0
 19 21  1  0  0  0  0
 19 18  2  0  0  0  0
 20 19  1  0  0  0  0
 21 22  1  0  0  0  0
 22 25  1  0  0  0  0
 22 24  1  0  0  0  0
 23 21  2  0  0  0  0
 24 26  2  0  0  0  0
 27 28  1  0  0  0  0
 27 31  1  1  0  0  0
 28 30  1  0  0  0  0
 29 28  1  0  0  0  0
 32 31  1  0  0  0  0
 33 32  2  0  0  0  0
 34 33  1  0  0  0  0
 35 34  2  0  0  0  0
 35 36  1  0  0  0  0
 36 37  2  0  0  0  0
 37 32  1  0  0  0  0
 38 39  1  0  0  0  0
 38 35  1  0  0  0  0
M  END
>  <Pose>
1

>  <Score>
-6.731

$$$$
