/Users/jonathanwahrer/Desktop/Msc/3_Semester/Drug_Design_Praktikum/waehrer_HTS_screening/HTS_experiment/out/docking_results/vina_output/3e7o/0784_docked.pdbqt
 OpenBabel03192215543D

 39 42  0  0  1  0  0  0  0  0999 V2000
  -36.7420  -65.5110   48.4850 C   0  0  1  0  0  3  0  0  0  0  0  0
  -37.1650  -64.3300   49.3730 C   0  0  2  0  0  0  0  0  0  0  0  0
  -38.6630  -64.5660   49.6100 C   0  0  0  0  0  2  0  0  0  0  0  0
  -39.3820  -64.7640   48.3050 C   0  0  2  0  0  0  0  0  0  0  0  0
  -38.5220  -64.4910   47.2690 O   0  0  0  0  0  0  0  0  0  0  0  0
  -37.4170  -65.3350   47.1870 C   0  0  0  0  0  2  0  0  0  0  0  0
  -40.4760  -63.7060   48.2580 C   0  0  0  0  0  2  0  0  0  0  0  0
  -41.6980  -64.2040   48.9870 C   0  0  0  0  0  2  0  0  0  0  0  0
  -41.3290  -65.2640   49.9400 N   0  0  0  0  0  0  0  0  0  0  0  0
  -40.8800  -66.4890   49.3490 C   0  0  0  0  0  2  0  0  0  0  0  0
  -40.0310  -66.0930   48.1440 C   0  0  0  0  0  2  0  0  0  0  0  0
  -41.3750  -65.0770   51.3210 C   0  0  0  0  0  0  0  0  0  0  0  0
  -41.7000  -63.9330   51.8260 O   0  0  0  0  0  0  0  0  0  0  0  0
  -36.9030  -63.0200   48.7000 C   0  0  0  0  0  1  0  0  0  0  0  0
  -36.5200  -64.3370   50.5900 O   0  0  0  0  0  0  0  0  0  0  0  0
  -36.9230  -65.0350   51.1670 H   0  0  0  0  0  0  0  0  0  0  0  0
  -35.3570  -65.7580   48.5280 N   0  0  0  0  0  0  0  0  0  0  0  0
  -34.4330  -65.1370   47.7910 C   0  0  0  0  0  3  0  0  0  0  0  0
  -33.0760  -65.4410   47.8940 C   0  0  0  0  0  0  0  0  0  0  0  0
  -31.8480  -64.5010   46.8020 Br  0  0  0  0  0  0  0  0  0  0  0  0
  -32.6580  -66.4110   48.7790 C   0  0  0  0  0  0  0  0  0  0  0  0
  -33.6010  -67.0280   49.5140 N   0  0  0  0  0  0  0  0  0  0  0  0
  -31.4250  -66.7090   48.8930 O   0  0  0  0  0  0  0  0  0  0  0  0
  -34.9010  -66.7130   49.3930 C   0  0  0  0  0  0  0  0  0  0  0  0
  -33.3320  -67.7770   50.2060 H   0  0  0  0  0  0  0  0  0  0  0  0
  -35.7350  -67.3290   50.1110 O   0  0  0  0  0  0  0  0  0  0  0  0
  -41.0690  -66.1280   52.2800 C   0  0  1  0  0  3  0  0  0  0  0  0
  -42.2620  -66.8390   52.6680 N   0  0  0  0  0  0  0  0  0  0  0  0
  -43.2320  -66.4710   53.5930 C   0  0  0  0  0  0  0  0  0  0  0  0
  -43.2230  -65.4270   54.2790 O   0  0  0  0  0  0  0  0  0  0  0  0
  -44.4350  -67.3600   53.8490 C   0  0  0  0  0  1  0  0  0  0  0  0
  -42.3990  -67.7720   52.1690 H   0  0  0  0  0  0  0  0  0  0  0  0
  -40.0430  -67.1520   51.7010 C   0  0  0  0  0  2  0  0  0  0  0  0
  -39.8270  -68.2450   52.6660 C   0  0  0  0  0  0  0  0  0  0  0  0
  -40.1640  -68.3280   53.9430 N   0  0  0  0  0  0  0  0  0  0  0  0
  -39.7800  -69.5170   54.4840 C   0  0  0  0  0  3  0  0  0  0  0  0
  -39.1770  -70.2010   53.4940 N   0  0  0  0  0  0  0  0  0  0  0  0
  -39.1940  -69.4430   52.3770 C   0  0  0  0  0  3  0  0  0  0  0  0
  -38.7750  -71.1620   53.6220 H   0  0  0  0  0  0  0  0  0  0  0  0
  1  6  1  6  0  0  0
  1 17  1  0  0  0  0
  1  2  1  0  0  0  0
  2 14  1  6  0  0  0
  2  3  1  0  0  0  0
  2 15  1  0  0  0  0
  4 11  1  6  0  0  0
  4  3  1  0  0  0  0
  5  4  1  0  0  0  0
  6  5  1  0  0  0  0
  7  4  1  0  0  0  0
  7  8  1  0  0  0  0
  8  9  1  0  0  0  0
  9 12  1  0  0  0  0
 10  9  1  0  0  0  0
 11 10  1  0  0  0  0
 12 13  2  0  0  0  0
 12 27  1  0  0  0  0
 15 16  1  0  0  0  0
 17 24  1  0  0  0  0
 18 19  2  0  0  0  0
 18 17  1  0  0  0  0
 19 21  1  0  0  0  0
 20 19  1  0  0  0  0
 21 23  2  0  0  0  0
 21 22  1  0  0  0  0
 22 25  1  0  0  0  0
 24 22  1  0  0  0  0
 24 26  2  0  0  0  0
 27 33  1  6  0  0  0
 27 28  1  0  0  0  0
 28 29  1  0  0  0  0
 29 31  1  0  0  0  0
 29 30  2  0  0  0  0
 32 28  1  0  0  0  0
 33 34  1  0  0  0  0
 34 35  1  0  0  0  0
 35 36  2  0  0  0  0
 37 39  1  0  0  0  0
 37 36  1  0  0  0  0
 38 34  2  0  0  0  0
 38 37  1  0  0  0  0
M  END
>  <Pose>
1

>  <Score>
-7.978

$$$$
