/Users/jonathanwahrer/Desktop/Msc/3_Semester/Drug_Design_Praktikum/waehrer_HTS_screening/HTS_experiment/out/docking_results/vina_output/3e7o/0797_docked.pdbqt
 OpenBabel03192215553D

 28 31  0  0  0  0  0  0  0  0999 V2000
  -42.8320  -67.6360   55.0710 O   0  0  0  0  0  0  0  0  0  0  0  0
  -43.0650  -66.2520   55.1080 C   0  0  0  0  0  2  0  0  0  0  0  0
  -43.8720  -65.7530   53.9650 C   0  0  0  0  0  0  0  0  0  0  0  0
  -45.1060  -66.2420   53.6970 N   0  0  0  0  0  0  0  0  0  0  0  0
  -45.8570  -65.8040   52.6720 C   0  0  0  0  0  0  0  0  0  0  0  0
  -45.4350  -64.8430   51.8310 N   0  0  0  0  0  0  0  0  0  0  0  0
  -47.1280  -66.3320   52.4270 C   0  0  0  0  0  3  0  0  0  0  0  0
  -46.2040  -64.4160   50.8060 C   0  0  0  0  0  3  0  0  0  0  0  0
  -44.2100  -64.3260   52.0580 C   0  0  0  0  0  0  0  0  0  0  0  0
  -47.4590  -64.9170   50.5390 C   0  0  0  0  0  0  0  0  0  0  0  0
  -48.5080  -64.2740   49.0680 Br  0  0  0  0  0  0  0  0  0  0  0  0
  -47.9200  -65.9040   51.3840 C   0  0  0  0  0  3  0  0  0  0  0  0
  -43.4180  -64.7660   53.1140 C   0  0  0  0  0  3  0  0  0  0  0  0
  -43.8120  -63.4390   51.2870 O   0  0  0  0  0  0  0  0  0  0  0  0
  -41.6230  -68.2370   54.7910 C   0  0  0  0  0  0  0  0  0  0  0  0
  -40.6090  -67.9160   55.4430 O   0  0  0  0  0  0  0  0  0  0  0  0
  -41.5670  -69.2550   53.7170 C   0  0  0  0  0  2  0  0  0  0  0  0
  -40.4880  -68.9890   52.8090 N   0  0  0  0  0  0  0  0  0  0  0  0
  -39.2490  -69.6620   52.7690 C   0  0  0  0  0  0  0  0  0  0  0  0
  -38.8290  -70.6050   53.4880 O   0  0  0  0  0  0  0  0  0  0  0  0
  -38.4370  -69.0690   51.6840 C   0  0  0  0  0  0  0  0  0  0  0  0
  -39.1810  -68.0770   51.1060 C   0  0  0  0  0  0  0  0  0  0  0  0
  -37.1610  -69.3590   51.2310 C   0  0  0  0  0  3  0  0  0  0  0  0
  -38.7000  -67.3360   50.0640 C   0  0  0  0  0  3  0  0  0  0  0  0
  -40.4710  -68.0100   51.7960 C   0  0  0  0  0  0  0  0  0  0  0  0
  -37.4370  -67.6040   49.5960 C   0  0  0  0  0  3  0  0  0  0  0  0
  -36.6860  -68.6060   50.1800 C   0  0  0  0  0  3  0  0  0  0  0  0
  -41.3970  -67.1940   51.5040 O   0  0  0  0  0  0  0  0  0  0  0  0
  1  2  1  0  0  0  0
  3  2  1  0  0  0  0
  4  3  1  0  0  0  0
  5  4  2  0  0  0  0
  6  9  1  0  0  0  0
  6  5  1  0  0  0  0
  7  5  1  0  0  0  0
  8  6  1  0  0  0  0
  9 13  1  0  0  0  0
 10  8  2  0  0  0  0
 10 12  1  0  0  0  0
 11 10  1  0  0  0  0
 12  7  2  0  0  0  0
 13  3  2  0  0  0  0
 14  9  2  0  0  0  0
 15  1  1  0  0  0  0
 15 16  2  0  0  0  0
 17 15  1  0  0  0  0
 18 17  1  0  0  0  0
 19 18  1  0  0  0  0
 19 20  2  0  0  0  0
 21 19  1  0  0  0  0
 22 21  2  0  0  0  0
 22 25  1  0  0  0  0
 23 21  1  0  0  0  0
 24 22  1  0  0  0  0
 25 18  1  0  0  0  0
 26 24  2  0  0  0  0
 26 27  1  0  0  0  0
 27 23  2  0  0  0  0
 28 25  2  0  0  0  0
M  END
>  <Pose>
1

>  <Score>
-8.779

$$$$
