/Users/jonathanwahrer/Desktop/Msc/3_Semester/Drug_Design_Praktikum/waehrer_HTS_screening/HTS_experiment/out/docking_results/vina_output/3e7o/0800_docked.pdbqt
 OpenBabel03192215553D

 29 32  0  0  1  0  0  0  0  0999 V2000
  -35.9810  -68.2690   49.8150 C   0  0  0  0  0  0  0  0  0  0  0  0
  -35.0940  -68.6460   50.6240 O   0  0  0  0  0  0  0  0  0  0  0  0
  -37.2430  -68.7990   49.9390 O   0  0  0  0  0  0  0  0  0  0  0  0
  -37.5920  -69.7270   50.9490 C   0  0  0  0  0  2  0  0  0  0  0  0
  -38.7290  -69.1760   51.7270 C   0  0  0  0  0  0  0  0  0  0  0  0
  -39.5850  -68.2880   51.1930 N   0  0  0  0  0  0  0  0  0  0  0  0
  -40.6270  -67.7790   51.8940 C   0  0  1  0  0  3  0  0  0  0  0  0
  -40.8460  -68.1490   53.1720 N   0  0  0  0  0  0  0  0  0  0  0  0
  -41.4770  -66.8680   51.2980 C   0  0  0  0  0  3  0  0  0  0  0  0
  -41.8740  -67.6570   53.8850 C   0  0  0  0  0  3  0  0  0  0  0  0
  -40.0130  -69.0410   53.7530 C   0  0  0  0  0  0  0  0  0  0  0  0
  -42.7250  -66.7480   53.2960 C   0  0  0  0  0  0  0  0  0  0  0  0
  -44.1840  -66.0510   54.3140 Br  0  0  0  0  0  0  0  0  0  0  0  0
  -42.5430  -66.3330   51.9850 C   0  0  0  0  0  3  0  0  0  0  0  0
  -38.9380  -69.5670   53.0300 C   0  0  0  0  0  2  0  0  0  0  0  0
  -40.2100  -69.3870   54.9300 O   0  0  0  0  0  0  0  0  0  0  0  0
  -35.5840  -67.2730   48.7850 C   0  0  0  0  0  2  0  0  0  0  0  0
  -36.2290  -66.0060   48.9680 N   0  0  0  0  0  0  0  0  0  0  0  0
  -35.7730  -64.9310   49.7880 C   0  0  0  0  0  0  0  0  0  0  0  0
  -34.7160  -64.9460   50.4820 O   0  0  0  0  0  0  0  0  0  0  0  0
  -36.7100  -63.8660   49.6800 N   0  0  0  0  0  0  0  0  0  0  0  0
  -37.8460  -64.3200   48.9180 C   0  0  0  0  0  0  0  0  0  0  0  0
  -36.5670  -62.9290   50.0940 H   0  0  0  0  0  0  0  0  0  0  0  0
  -39.0800  -64.5080   49.7610 C   0  0  0  0  0  2  0  0  0  0  0  0
  -38.2950  -63.3570   47.8730 C   0  0  0  0  0  2  0  0  0  0  0  0
  -37.4540  -65.6080   48.3480 C   0  0  0  0  0  0  0  0  0  0  0  0
  -40.1880  -64.4880   48.7550 C   0  0  0  0  0  2  0  0  0  0  0  0
  -39.6420  -63.9210   47.4770 C   0  0  0  0  0  2  0  0  0  0  0  0
  -38.0430  -66.2860   47.4740 O   0  0  0  0  0  0  0  0  0  0  0  0
  1  3  1  0  0  0  0
  1  2  2  0  0  0  0
  3  4  1  0  0  0  0
  4  5  1  0  0  0  0
  5 15  1  0  0  0  0
  6  5  2  0  0  0  0
  6  7  1  0  0  0  0
  7  9  1  1  0  0  0
  7  8  1  0  0  0  0
  8 11  1  0  0  0  0
  8 10  1  0  0  0  0
  9 14  2  0  0  0  0
 11 16  2  0  0  0  0
 12 10  2  0  0  0  0
 12 13  1  0  0  0  0
 14 12  1  0  0  0  0
 15 11  1  0  0  0  0
 17 18  1  0  0  0  0
 17  1  1  0  0  0  0
 18 19  1  0  0  0  0
 19 20  2  0  0  0  0
 21 19  1  0  0  0  0
 21 23  1  0  0  0  0
 22 21  1  0  0  0  0
 22 24  1  0  0  0  0
 25 22  1  0  0  0  0
 26 22  1  0  0  0  0
 26 18  1  0  0  0  0
 27 24  1  0  0  0  0
 28 25  1  0  0  0  0
 28 27  1  0  0  0  0
 29 26  2  0  0  0  0
M  END
>  <Pose>
1

>  <Score>
-8.055

$$$$
