/Users/jonathanwahrer/Desktop/Msc/3_Semester/Drug_Design_Praktikum/waehrer_HTS_screening/HTS_experiment/out/docking_results/vina_output/3e7o/0803_docked.pdbqt
 OpenBabel03192215553D

 31 34  0  0  0  0  0  0  0  0999 V2000
  -38.2430  -64.4310   47.5780 Br  0  0  0  0  0  0  0  0  0  0  0  0
  -38.9020  -65.3670   49.0940 C   0  0  0  0  0  0  0  0  0  0  0  0
  -39.9950  -64.9820   49.7890 C   0  0  0  0  0  2  0  0  0  0  0  0
  -40.5140  -65.6830   50.8010 N   0  0  0  0  0  0  0  0  0  0  0  0
  -39.9240  -66.8270   51.1480 C   0  0  0  0  0  0  0  0  0  0  0  0
  -40.4310  -67.5550   52.1820 N   0  0  0  0  0  0  0  0  0  0  0  0
  -41.4970  -67.1810   52.8770 C   0  0  0  0  0  0  0  0  0  0  0  0
  -42.1250  -66.0040   52.5380 C   0  0  0  0  0  0  0  0  0  0  0  0
  -43.2350  -65.5580   53.2280 C   0  0  0  0  0  3  0  0  0  0  0  0
  -43.7800  -66.2690   54.2980 C   0  0  0  0  0  3  0  0  0  0  0  0
  -43.1430  -67.4460   54.6280 C   0  0  0  0  0  3  0  0  0  0  0  0
  -42.0310  -67.8960   53.9390 C   0  0  0  0  0  3  0  0  0  0  0  0
  -41.5930  -65.2770   51.4800 C   0  0  0  0  0  0  0  0  0  0  0  0
  -42.1540  -64.2050   51.1620 O   0  0  0  0  0  0  0  0  0  0  0  0
  -38.8270  -67.2340   50.4680 N   0  0  0  0  0  0  0  0  0  0  0  0
  -38.2540  -66.5950   49.4570 C   0  0  0  0  0  0  0  0  0  0  0  0
  -38.4510  -68.1640   50.8430 H   0  0  0  0  0  0  0  0  0  0  0  0
  -37.1000  -66.8860   48.8010 N   0  0  0  0  0  0  0  0  0  0  0  0
  -36.7210  -67.7780   49.7650 H   0  0  0  0  0  0  0  0  0  0  0  0
  -35.9630  -67.1740   48.1550 C   0  0  0  0  0  0  0  0  0  0  0  0
  -34.7370  -66.7910   48.7130 C   0  0  0  0  0  0  0  0  0  0  0  0
  -33.5940  -66.8520   47.9850 C   0  0  0  0  0  3  0  0  0  0  0  0
  -33.6180  -67.2970   46.6860 C   0  0  0  0  0  3  0  0  0  0  0  0
  -34.7900  -67.6940   46.0810 C   0  0  0  0  0  3  0  0  0  0  0  0
  -35.9350  -67.6200   46.8390 C   0  0  0  0  0  3  0  0  0  0  0  0
  -34.6060  -66.4540   50.1360 C   0  0  0  0  0  0  0  0  0  0  0  0
  -34.3440  -65.2610   50.4310 O   0  0  0  0  0  0  0  0  0  0  0  0
  -34.7380  -67.3300   51.1740 O   0  0  0  0  0  0  0  0  0  0  0  0
  -33.9050  -68.4620   51.3340 C   0  0  0  0  0  2  0  0  0  0  0  0
  -34.7380  -69.6780   51.7510 C   0  0  0  0  0  2  0  0  0  0  0  0
  -36.1860  -69.4080   51.4210 C   0  0  0  0  0  1  0  0  0  0  0  0
  1  2  1  0  0  0  0
  2 16  2  0  0  0  0
  2  3  1  0  0  0  0
  3  4  1  0  0  0  0
  4  5  1  0  0  0  0
  4 13  1  0  0  0  0
  5  6  2  0  0  0  0
  6  7  1  0  0  0  0
  7 12  1  0  0  0  0
  8  7  2  0  0  0  0
  8  9  1  0  0  0  0
  9 10  2  0  0  0  0
 10 11  1  0  0  0  0
 12 11  2  0  0  0  0
 13  8  1  0  0  0  0
 14 13  2  0  0  0  0
 15 17  1  0  0  0  0
 15  5  1  0  0  0  0
 16 15  1  0  0  0  0
 18 16  1  0  0  0  0
 18 19  1  0  0  0  0
 20 21  1  0  0  0  0
 20 18  1  0  0  0  0
 21 26  1  0  0  0  0
 22 21  2  0  0  0  0
 23 22  1  0  0  0  0
 24 23  2  0  0  0  0
 24 25  1  0  0  0  0
 25 20  2  0  0  0  0
 26 27  2  0  0  0  0
 26 28  1  0  0  0  0
 28 29  1  0  0  0  0
 29 30  1  0  0  0  0
 31 30  1  0  0  0  0
M  END
>  <Pose>
1

>  <Score>
-7.672

$$$$
