/Users/jonathanwahrer/Desktop/Msc/3_Semester/Drug_Design_Praktikum/waehrer_HTS_screening/HTS_experiment/out/docking_results/vina_output/3e7o/0833_docked.pdbqt
 OpenBabel03192215563D

 28 31  0  0  1  0  0  0  0  0999 V2000
  -37.2930  -66.8320   47.9690 C   0  0  1  0  0  0  0  0  0  0  0  0
  -36.6080  -65.5770   48.2490 N   0  0  0  0  0  0  0  0  0  0  0  0
  -36.8800  -64.7820   49.4410 C   0  0  0  0  0  2  0  0  0  0  0  0
  -36.3080  -63.4140   49.3770 C   0  0  0  0  0  2  0  0  0  0  0  0
  -36.6640  -62.6560   48.1240 C   0  0  0  0  0  2  0  0  0  0  0  0
  -35.4910  -62.8380   47.1780 C   0  0  0  0  0  2  0  0  0  0  0  0
  -35.2490  -64.1790   46.7340 C   0  0  0  0  0  3  0  0  0  0  0  0
  -35.7280  -65.3590   47.1920 C   0  0  0  0  0  0  0  0  0  0  0  0
  -35.3340  -66.5750   46.6000 N   0  0  0  0  0  4  0  0  0  0  0  0
  -36.2470  -67.5240   47.1670 C   0  0  0  0  0  2  0  0  0  0  0  0
  -35.4280  -66.6000   45.5590 H   0  0  0  0  0  0  0  0  0  0  0  0
  -37.6380  -67.5260   49.2260 C   0  0  0  0  0  0  0  0  0  0  0  0
  -36.7050  -68.4130   49.7700 C   0  0  0  0  0  3  0  0  0  0  0  0
  -37.0730  -69.0820   50.9370 C   0  0  0  0  0  3  0  0  0  0  0  0
  -38.3050  -68.8680   51.5110 C   0  0  0  0  0  0  0  0  0  0  0  0
  -38.7700  -69.8070   53.1140 Br  0  0  0  0  0  0  0  0  0  0  0  0
  -39.2040  -67.9800   50.9440 C   0  0  0  0  0  3  0  0  0  0  0  0
  -38.8570  -67.3060   49.7860 C   0  0  0  0  0  3  0  0  0  0  0  0
  -38.4320  -66.5290   47.2690 O   0  0  0  0  0  0  0  0  0  0  0  0
  -38.9830  -65.8310   47.6790 H   0  0  0  0  0  0  0  0  0  0  0  0
  -33.9860  -66.8000   47.0160 C   0  0  0  0  0  0  0  0  0  0  0  0
  -32.9940  -67.0680   46.0890 C   0  0  0  0  0  0  0  0  0  0  0  0
  -31.7330  -67.3480   46.6000 C   0  0  0  0  0  3  0  0  0  0  0  0
  -31.4300  -67.3720   47.9490 C   0  0  0  0  0  3  0  0  0  0  0  0
  -32.4740  -67.0910   48.8560 C   0  0  0  0  0  3  0  0  0  0  0  0
  -33.6920  -66.8190   48.3460 C   0  0  0  0  0  3  0  0  0  0  0  0
  -33.2790  -67.0460   44.7580 O   0  0  0  0  0  0  0  0  0  0  0  0
  -32.3150  -67.3740   43.7920 C   0  0  0  0  0  1  0  0  0  0  0  0
  1 19  1  6  0  0  0
  1  2  1  0  0  0  0
  1 12  1  0  0  0  0
  2  3  1  0  0  0  0
  4  3  1  0  0  0  0
  5  4  1  0  0  0  0
  6  5  1  0  0  0  0
  7  6  1  0  0  0  0
  7  8  2  0  0  0  0
  8  2  1  0  0  0  0
  9 21  1  0  0  0  0
  9 10  1  0  0  0  0
  9  8  1  0  0  0  0
 10  1  1  0  0  0  0
 11  9  1  0  0  0  0
 12 13  2  0  0  0  0
 12 18  1  0  0  0  0
 13 14  1  0  0  0  0
 14 15  2  0  0  0  0
 15 16  1  0  0  0  0
 17 15  1  0  0  0  0
 18 17  2  0  0  0  0
 19 20  1  0  0  0  0
 21 26  1  0  0  0  0
 22 23  1  0  0  0  0
 22 21  2  0  0  0  0
 23 24  2  0  0  0  0
 24 25  1  0  0  0  0
 26 25  2  0  0  0  0
 27 22  1  0  0  0  0
 28 27  1  0  0  0  0
M  END
>  <Pose>
1

>  <Score>
-7.036

$$$$
