/Users/jonathanwahrer/Desktop/Msc/3_Semester/Drug_Design_Praktikum/waehrer_HTS_screening/HTS_experiment/out/docking_results/vina_output/3e7o/0836_docked.pdbqt
 OpenBabel03192215573D

 27 30  0  0  1  0  0  0  0  0999 V2000
  -36.7700  -67.3390   48.6930 C   0  0  2  0  0  0  0  0  0  0  0  0
  -35.9730  -66.1660   48.9530 N   0  0  0  0  0  0  0  0  0  0  0  0
  -35.1930  -65.6610   50.0750 C   0  0  0  0  0  2  0  0  0  0  0  0
  -34.0370  -64.8190   49.7020 C   0  0  0  0  0  2  0  0  0  0  0  0
  -33.7610  -64.7010   48.2240 C   0  0  0  0  0  2  0  0  0  0  0  0
  -34.9730  -64.6830   47.4110 C   0  0  0  0  0  3  0  0  0  0  0  0
  -36.0310  -65.3880   47.7670 C   0  0  0  0  0  0  0  0  0  0  0  0
  -37.3210  -65.5620   47.1900 N   0  0  0  0  0  4  0  0  0  0  0  0
  -37.7480  -66.8470   47.6510 C   0  0  0  0  0  2  0  0  0  0  0  0
  -37.1850  -65.5710   46.1430 H   0  0  0  0  0  0  0  0  0  0  0  0
  -37.4230  -67.9100   49.8690 C   0  0  0  0  0  0  0  0  0  0  0  0
  -36.7750  -68.8550   50.6360 C   0  0  0  0  0  3  0  0  0  0  0  0
  -37.3430  -69.4290   51.7550 C   0  0  0  0  0  3  0  0  0  0  0  0
  -38.6130  -69.0750   52.1670 C   0  0  0  0  0  0  0  0  0  0  0  0
  -39.4210  -69.8560   53.7090 Br  0  0  0  0  0  0  0  0  0  0  0  0
  -39.2760  -68.1310   51.4120 C   0  0  0  0  0  3  0  0  0  0  0  0
  -38.7000  -67.5610   50.2920 C   0  0  0  0  0  3  0  0  0  0  0  0
  -35.9060  -68.3130   48.1520 O   0  0  0  0  0  0  0  0  0  0  0  0
  -35.5660  -68.8290   48.9230 H   0  0  0  0  0  0  0  0  0  0  0  0
  -38.1290  -64.4940   47.5550 C   0  0  0  0  0  0  0  0  0  0  0  0
  -38.1480  -63.3390   46.8080 C   0  0  0  0  0  3  0  0  0  0  0  0
  -38.9650  -62.2590   47.1790 C   0  0  0  0  0  3  0  0  0  0  0  0
  -39.7660  -62.3130   48.2850 C   0  0  0  0  0  0  0  0  0  0  0  0
  -39.7450  -63.4960   49.0470 C   0  0  0  0  0  3  0  0  0  0  0  0
  -38.9310  -64.5390   48.6560 C   0  0  0  0  0  3  0  0  0  0  0  0
  -40.6010  -61.2820   48.7110 O   0  0  0  0  0  0  0  0  0  0  0  0
  -41.3050  -60.4000   47.8980 C   0  0  0  0  0  1  0  0  0  0  0  0
  1 18  1  6  0  0  0
  1  2  1  0  0  0  0
  1 11  1  0  0  0  0
  2  3  1  0  0  0  0
  4  3  1  0  0  0  0
  5  4  1  0  0  0  0
  6  7  2  0  0  0  0
  6  5  1  0  0  0  0
  7  2  1  0  0  0  0
  8 20  1  0  0  0  0
  8  9  1  0  0  0  0
  8  7  1  0  0  0  0
  9  1  1  0  0  0  0
 10  8  1  0  0  0  0
 11 17  2  0  0  0  0
 11 12  1  0  0  0  0
 12 13  2  0  0  0  0
 13 14  1  0  0  0  0
 14 15  1  0  0  0  0
 16 14  2  0  0  0  0
 17 16  1  0  0  0  0
 18 19  1  0  0  0  0
 20 25  1  0  0  0  0
 21 22  1  0  0  0  0
 21 20  2  0  0  0  0
 22 23  2  0  0  0  0
 23 26  1  0  0  0  0
 23 24  1  0  0  0  0
 25 24  2  0  0  0  0
 27 26  1  0  0  0  0
M  END
>  <Pose>
1

>  <Score>
-7.409

$$$$
