/Users/jonathanwahrer/Desktop/Msc/3_Semester/Drug_Design_Praktikum/waehrer_HTS_screening/HTS_experiment/out/docking_results/vina_output/3e7o/0847_docked.pdbqt
 OpenBabel03192215573D

 31 34  0  0  1  0  0  0  0  0999 V2000
  -36.2190  -67.0070   49.6680 C   0  0  0  0  0  0  0  0  0  0  0  0
  -35.3750  -65.9760   49.5020 N   0  0  0  0  0  0  0  0  0  0  0  0
  -35.9160  -65.1370   48.5990 C   0  0  1  0  0  3  0  0  0  0  0  0
  -37.1220  -65.6600   48.1970 N   0  0  0  0  0  0  0  0  0  0  0  0
  -37.2680  -66.7910   48.8660 N   0  0  0  0  0  0  0  0  0  0  0  0
  -35.4640  -63.8630   48.0320 C   0  0  0  0  0  2  0  0  0  0  0  0
  -33.9730  -63.7330   47.8690 C   0  0  0  0  0  2  0  0  0  0  0  0
  -33.2180  -63.8190   49.1550 C   0  0  0  0  0  2  0  0  0  0  0  0
  -32.9970  -65.2850   49.4440 C   0  0  0  0  0  2  0  0  0  0  0  0
  -34.1450  -65.8850   50.2180 C   0  0  0  0  0  2  0  0  0  0  0  0
  -38.0670  -65.1190   47.3040 C   0  0  0  0  0  3  0  0  0  0  0  0
  -39.3680  -64.7660   47.8100 C   0  0  0  0  0  0  0  0  0  0  0  0
  -40.1780  -64.3050   46.8560 O   0  0  0  0  0  1  0  0  0  0  0  0
  -39.9870  -64.8000   49.1040 C   0  0  0  0  0  0  0  0  0  0  0  0
  -41.1980  -65.4990   49.3010 C   0  0  0  0  0  3  0  0  0  0  0  0
  -41.8350  -65.5590   50.5120 C   0  0  0  0  0  3  0  0  0  0  0  0
  -41.3130  -64.9280   51.6130 C   0  0  0  0  0  0  0  0  0  0  0  0
  -40.1410  -64.2380   51.4660 C   0  0  0  0  0  3  0  0  0  0  0  0
  -39.4980  -64.1850   50.2160 C   0  0  0  0  0  3  0  0  0  0  0  0
  -41.9620  -64.9900   52.8450 O   0  0  0  0  0  0  0  0  0  0  0  0
  -43.3040  -64.6040   53.0120 C   0  0  0  0  0  1  0  0  0  0  0  0
  -36.1000  -68.2120   50.5510 C   0  0  0  0  0  2  0  0  0  0  0  0
  -37.2640  -69.0720   50.4810 N   0  0  0  0  0  0  0  0  0  0  0  0
  -37.4000  -69.7300   49.6830 H   0  0  0  0  0  0  0  0  0  0  0  0
  -38.2880  -69.0720   51.4850 C   0  0  0  0  0  0  0  0  0  0  0  0
  -39.4390  -68.3360   51.3080 C   0  0  0  0  0  3  0  0  0  0  0  0
  -40.4150  -68.3430   52.2670 C   0  0  0  0  0  3  0  0  0  0  0  0
  -40.2520  -69.0920   53.4280 C   0  0  0  0  0  0  0  0  0  0  0  0
  -41.6080  -69.1030   54.7590 Br  0  0  0  0  0  0  0  0  0  0  0  0
  -39.1030  -69.8380   53.6240 C   0  0  0  0  0  3  0  0  0  0  0  0
  -38.1410  -69.8100   52.6410 C   0  0  0  0  0  3  0  0  0  0  0  0
  1 22  1  0  0  0  0
  2  1  1  0  0  0  0
  2 10  1  0  0  0  0
  3  6  1  1  0  0  0
  3  2  1  0  0  0  0
  4  3  1  0  0  0  0
  4  5  1  0  0  0  0
  5  1  2  0  0  0  0
  7  6  1  0  0  0  0
  7  8  1  0  0  0  0
  8  9  1  0  0  0  0
  9 10  1  0  0  0  0
 11 12  2  0  0  0  0
 11  4  1  0  0  0  0
 12 14  1  0  0  0  0
 13 12  1  0  0  0  0
 14 15  2  0  0  0  0
 14 19  1  0  0  0  0
 15 16  1  0  0  0  0
 16 17  2  0  0  0  0
 17 20  1  0  0  0  0
 18 17  1  0  0  0  0
 19 18  2  0  0  0  0
 20 21  1  0  0  0  0
 23 22  1  0  0  0  0
 23 25  1  0  0  0  0
 24 23  1  0  0  0  0
 25 31  1  0  0  0  0
 26 25  2  0  0  0  0
 26 27  1  0  0  0  0
 27 28  2  0  0  0  0
 28 30  1  0  0  0  0
 28 29  1  0  0  0  0
 31 30  2  0  0  0  0
M  END
>  <Pose>
1

>  <Score>
-8.116

$$$$
