/Users/jonathanwahrer/Desktop/Msc/3_Semester/Drug_Design_Praktikum/waehrer_HTS_screening/HTS_experiment/out/docking_results/vina_output/3e7o/0850_docked.pdbqt
 OpenBabel03192215573D

 29 32  0  0  1  0  0  0  0  0999 V2000
  -37.3120  -67.5280   49.1560 N   0  0  0  0  0  4  0  0  0  0  0  0
  -35.8960  -67.5070   49.3690 C   0  0  1  0  0  0  0  0  0  0  0  0
  -35.7610  -66.1740   50.1030 C   0  0  0  0  0  2  0  0  0  0  0  0
  -36.7160  -65.3100   49.3920 N   0  0  0  0  0  0  0  0  0  0  0  0
  -36.6280  -63.8950   49.4820 C   0  0  0  0  0  2  0  0  0  0  0  0
  -37.6300  -63.1450   48.6570 C   0  0  0  0  0  2  0  0  0  0  0  0
  -37.6210  -63.6810   47.2520 C   0  0  0  0  0  2  0  0  0  0  0  0
  -38.8310  -64.6240   47.1780 C   0  0  0  0  0  2  0  0  0  0  0  0
  -38.4450  -65.9280   47.7540 C   0  0  0  0  0  3  0  0  0  0  0  0
  -37.5770  -66.2120   48.6980 C   0  0  0  0  0  0  0  0  0  0  0  0
  -37.5000  -68.2690   48.4100 H   0  0  0  0  0  0  0  0  0  0  0  0
  -35.3360  -68.5770   49.9920 O   0  0  0  0  0  0  0  0  0  0  0  0
  -34.3730  -68.6480   49.8590 H   0  0  0  0  0  0  0  0  0  0  0  0
  -35.1440  -67.3240   48.0940 C   0  0  0  0  0  0  0  0  0  0  0  0
  -35.5560  -67.7600   46.8710 C   0  0  0  0  0  3  0  0  0  0  0  0
  -34.7980  -67.5470   45.7000 C   0  0  0  0  0  3  0  0  0  0  0  0
  -33.5970  -66.8810   45.7500 C   0  0  0  0  0  0  0  0  0  0  0  0
  -33.1710  -66.4370   46.9780 C   0  0  0  0  0  3  0  0  0  0  0  0
  -33.9130  -66.6480   48.1180 C   0  0  0  0  0  3  0  0  0  0  0  0
  -32.8370  -66.6600   44.5890 O   0  0  0  0  0  0  0  0  0  0  0  0
  -31.5230  -67.1490   44.4640 C   0  0  0  0  0  2  0  0  0  0  0  0
  -31.4460  -68.6350   44.6170 C   0  0  0  0  0  1  0  0  0  0  0  0
  -38.1220  -67.8690   50.2180 C   0  0  0  0  0  0  0  0  0  0  0  0
  -37.8080  -68.9910   50.9820 C   0  0  0  0  0  3  0  0  0  0  0  0
  -38.5660  -69.3750   52.0790 C   0  0  0  0  0  3  0  0  0  0  0  0
  -39.6730  -68.6490   52.4580 C   0  0  0  0  0  0  0  0  0  0  0  0
  -40.7210  -69.1510   53.9830 Br  0  0  0  0  0  0  0  0  0  0  0  0
  -40.0050  -67.5490   51.7310 C   0  0  0  0  0  3  0  0  0  0  0  0
  -39.2260  -67.1870   50.6340 C   0  0  0  0  0  3  0  0  0  0  0  0
  1  2  1  0  0  0  0
  1 23  1  0  0  0  0
  2 12  1  1  0  0  0
  2  3  1  0  0  0  0
  4  5  1  0  0  0  0
  4  3  1  0  0  0  0
  6  5  1  0  0  0  0
  7  6  1  0  0  0  0
  8  7  1  0  0  0  0
  8  9  1  0  0  0  0
  9 10  2  0  0  0  0
 10  1  1  0  0  0  0
 10  4  1  0  0  0  0
 11  1  1  0  0  0  0
 13 12  1  0  0  0  0
 14 19  1  0  0  0  0
 14  2  1  0  0  0  0
 15 14  2  0  0  0  0
 16 17  2  0  0  0  0
 16 15  1  0  0  0  0
 17 18  1  0  0  0  0
 18 19  2  0  0  0  0
 20 17  1  0  0  0  0
 21 20  1  0  0  0  0
 21 22  1  0  0  0  0
 23 29  2  0  0  0  0
 23 24  1  0  0  0  0
 24 25  2  0  0  0  0
 25 26  1  0  0  0  0
 26 27  1  0  0  0  0
 28 26  2  0  0  0  0
 29 28  1  0  0  0  0
M  END
>  <Pose>
1

>  <Score>
-6.765

$$$$
