/Users/jonathanwahrer/Desktop/Msc/3_Semester/Drug_Design_Praktikum/waehrer_HTS_screening/HTS_experiment/out/docking_results/vina_output/3e7o/0862_docked.pdbqt
 OpenBabel03192215583D

 30 33  0  0  0  0  0  0  0  0999 V2000
  -41.6760  -65.9010   50.9100 Br  0  0  0  0  0  0  0  0  0  0  0  0
  -40.2300  -67.0920   51.1390 C   0  0  0  0  0  0  0  0  0  0  0  0
  -39.2990  -67.1740   50.1320 C   0  0  0  0  0  0  0  0  0  0  0  0
  -38.1810  -68.0230   50.1880 C   0  0  0  0  0  0  0  0  0  0  0  0
  -38.0070  -68.8250   51.3230 C   0  0  0  0  0  3  0  0  0  0  0  0
  -38.9480  -68.7320   52.3240 C   0  0  0  0  0  0  0  0  0  0  0  0
  -40.0420  -67.8890   52.2490 C   0  0  0  0  0  0  0  0  0  0  0  0
  -41.0520  -67.8120   53.3580 C   0  0  0  0  0  1  0  0  0  0  0  0
  -38.7080  -69.8220   53.8690 Br  0  0  0  0  0  0  0  0  0  0  0  0
  -37.2340  -68.0730   49.0900 C   0  0  0  0  0  0  0  0  0  0  0  0
  -36.6710  -69.1780   48.8900 O   0  0  0  0  0  0  0  0  0  0  0  0
  -37.0250  -66.8320   48.3210 C   0  0  0  0  0  0  0  0  0  0  0  0
  -38.5290  -66.5390   47.8760 C   0  0  0  0  0  2  0  0  0  0  0  0
  -39.3700  -66.4320   48.9670 O   0  0  0  0  0  0  0  0  0  0  0  0
  -36.2710  -66.9370   47.0880 C   0  0  0  0  0  2  0  0  0  0  0  0
  -34.9730  -67.3850   46.8970 N   0  0  0  0  0  4  0  0  0  0  0  0
  -33.9620  -67.2500   47.8710 C   0  0  0  0  0  2  0  0  0  0  0  0
  -32.5570  -67.1620   47.2870 C   0  0  0  0  0  2  0  0  0  0  0  0
  -32.3650  -65.9150   46.4850 C   0  0  0  0  0  2  0  0  0  0  0  0
  -33.6610  -65.5850   45.8110 C   0  0  0  0  0  2  0  0  0  0  0  0
  -34.4560  -66.8350   45.6250 C   0  0  0  0  0  2  0  0  0  0  0  0
  -34.9620  -68.4570   46.6300 H   0  0  0  0  0  0  0  0  0  0  0  0
  -36.6190  -65.7350   49.2290 C   0  0  0  0  0  2  0  0  0  0  0  0
  -35.9030  -64.6280   48.7510 N   0  0  0  0  0  4  0  0  0  0  0  0
  -36.7520  -63.4370   48.8870 C   0  0  0  0  0  2  0  0  0  0  0  0
  -36.1920  -62.2480   48.1350 C   0  0  0  0  0  2  0  0  0  0  0  0
  -34.8710  -61.9000   48.8390 C   0  0  0  0  0  2  0  0  0  0  0  0
  -34.0210  -63.1390   48.6690 C   0  0  0  0  0  2  0  0  0  0  0  0
  -34.6890  -64.2720   49.4660 C   0  0  0  0  0  2  0  0  0  0  0  0
  -35.6260  -64.6130   47.7480 H   0  0  0  0  0  0  0  0  0  0  0  0
  1  2  1  0  0  0  0
  2  7  1  0  0  0  0
  3  4  1  0  0  0  0
  3  2  2  0  0  0  0
  4  5  2  0  0  0  0
  5  6  1  0  0  0  0
  6  9  1  0  0  0  0
  7  6  2  0  0  0  0
  7  8  1  0  0  0  0
 10  4  1  0  0  0  0
 11 10  2  0  0  0  0
 12 10  1  0  0  0  0
 12 23  1  0  0  0  0
 13 12  1  0  0  0  0
 13 14  1  0  0  0  0
 14  3  1  0  0  0  0
 15 12  1  0  0  0  0
 16 15  1  0  0  0  0
 16 17  1  0  0  0  0
 18 17  1  0  0  0  0
 19 18  1  0  0  0  0
 20 19  1  0  0  0  0
 21 20  1  0  0  0  0
 21 16  1  0  0  0  0
 22 16  1  0  0  0  0
 24 25  1  0  0  0  0
 24 23  1  0  0  0  0
 24 29  1  0  0  0  0
 26 27  1  0  0  0  0
 26 25  1  0  0  0  0
 28 27  1  0  0  0  0
 28 29  1  0  0  0  0
 30 24  1  0  0  0  0
M  END
>  <Pose>
1

>  <Score>
-6.544

$$$$
