/Users/jonathanwahrer/Desktop/Msc/3_Semester/Drug_Design_Praktikum/waehrer_HTS_screening/HTS_experiment/out/docking_results/vina_output/3e7o/0873_docked.pdbqt
 OpenBabel03192215593D

 32 35  0  0  1  0  0  0  0  0999 V2000
  -36.8720  -66.2320   49.4370 C   0  0  2  0  0  3  0  0  0  0  0  0
  -37.7030  -66.7280   48.3510 N   0  0  0  0  0  0  0  0  0  0  0  0
  -36.7080  -67.2320   47.4360 C   0  0  0  0  0  0  0  0  0  0  0  0
  -36.7970  -68.1960   46.6300 O   0  0  0  0  0  0  0  0  0  0  0  0
  -35.4720  -66.4110   47.5760 C   0  0  0  0  0  0  0  0  0  0  0  0
  -34.3780  -66.4580   47.0160 O   0  0  0  0  0  0  0  0  0  0  0  0
  -35.8740  -65.4310   48.6280 C   0  0  0  0  0  0  0  0  0  0  0  0
  -35.4350  -64.2050   48.7740 C   0  0  0  0  0  0  0  0  0  0  0  0
  -35.9210  -63.4230   49.8400 O   0  0  0  0  0  1  0  0  0  0  0  0
  -39.0810  -66.7760   48.1090 C   0  0  0  0  0  2  0  0  0  0  0  0
  -39.9180  -65.5570   48.2630 C   0  0  0  0  0  2  0  0  0  0  0  0
  -40.7360  -65.5470   49.4420 N   0  0  0  0  0  4  0  0  0  0  0  0
  -40.0870  -64.7430   50.4560 C   0  0  0  0  0  2  0  0  0  0  0  0
  -40.9730  -64.6060   51.6820 C   0  0  0  0  0  2  0  0  0  0  0  0
  -41.2390  -65.8640   52.1880 O   0  0  0  0  0  0  0  0  0  0  0  0
  -41.8270  -66.6690   51.2160 C   0  0  0  0  0  2  0  0  0  0  0  0
  -40.8480  -66.8870   50.0540 C   0  0  0  0  0  2  0  0  0  0  0  0
  -41.7280  -65.2830   49.2710 H   0  0  0  0  0  0  0  0  0  0  0  0
  -36.1350  -67.2720   50.1710 C   0  0  0  0  0  0  0  0  0  0  0  0
  -36.7150  -68.4510   50.5920 C   0  0  0  0  0  0  0  0  0  0  0  0
  -37.9820  -68.7380   50.3370 F   0  0  0  0  0  0  0  0  0  0  0  0
  -35.9880  -69.4020   51.3140 C   0  0  0  0  0  3  0  0  0  0  0  0
  -34.6830  -69.2030   51.6250 C   0  0  0  0  0  3  0  0  0  0  0  0
  -34.0730  -68.0480   51.2250 C   0  0  0  0  0  3  0  0  0  0  0  0
  -34.8140  -67.1180   50.5130 C   0  0  0  0  0  3  0  0  0  0  0  0
  -34.4600  -63.6240   47.8630 C   0  0  0  0  0  0  0  0  0  0  0  0
  -34.8970  -63.0760   46.6770 C   0  0  0  0  0  3  0  0  0  0  0  0
  -34.0210  -62.5310   45.7520 C   0  0  0  0  0  3  0  0  0  0  0  0
  -32.6670  -62.5270   46.0110 C   0  0  0  0  0  0  0  0  0  0  0  0
  -32.2130  -63.0630   47.1760 C   0  0  0  0  0  3  0  0  0  0  0  0
  -31.4250  -61.7750   44.7420 Br  0  0  0  0  0  0  0  0  0  0  0  0
  -33.1120  -63.6140   48.1070 C   0  0  0  0  0  3  0  0  0  0  0  0
  1 19  1  6  0  0  0
  2  1  1  0  0  0  0
  3  5  1  0  0  0  0
  3  2  1  0  0  0  0
  4  3  2  0  0  0  0
  5  7  1  0  0  0  0
  6  5  2  0  0  0  0
  7  8  2  0  0  0  0
  7  1  1  0  0  0  0
  8  9  1  0  0  0  0
 10 11  1  0  0  0  0
 10  2  1  0  0  0  0
 11 12  1  0  0  0  0
 12 17  1  0  0  0  0
 12 13  1  0  0  0  0
 13 14  1  0  0  0  0
 14 15  1  0  0  0  0
 16 15  1  0  0  0  0
 17 16  1  0  0  0  0
 18 12  1  0  0  0  0
 19 25  2  0  0  0  0
 19 20  1  0  0  0  0
 20 22  2  0  0  0  0
 21 20  1  0  0  0  0
 22 23  1  0  0  0  0
 24 23  2  0  0  0  0
 25 24  1  0  0  0  0
 26 32  1  0  0  0  0
 26  8  1  0  0  0  0
 27 26  2  0  0  0  0
 28 29  2  0  0  0  0
 28 27  1  0  0  0  0
 29 30  1  0  0  0  0
 30 32  2  0  0  0  0
 31 29  1  0  0  0  0
M  END
>  <Pose>
1

>  <Score>
-7.065

$$$$
