/Users/jonathanwahrer/Desktop/Msc/3_Semester/Drug_Design_Praktikum/waehrer_HTS_screening/HTS_experiment/out/docking_results/vina_output/3e7o/0886_docked.pdbqt
 OpenBabel03192215593D

 31 34  0  0  0  0  0  0  0  0999 V2000
  -41.5850  -67.5580   53.2380 N   0  0  0  0  0  0  0  0  0  0  0  0
  -40.7760  -67.9290   52.2310 C   0  0  0  0  0  0  0  0  0  0  0  0
  -40.9280  -67.4780   51.0630 O   0  0  0  0  0  0  0  0  0  0  0  0
  -39.8090  -68.8270   52.6420 C   0  0  0  0  0  0  0  0  0  0  0  0
  -40.0410  -69.0060   53.9400 C   0  0  0  0  0  0  0  0  0  0  0  0
  -39.1260  -69.8750   54.3800 N   0  0  0  0  0  0  0  0  0  0  0  0
  -38.3530  -70.2180   53.3670 N   0  0  0  0  0  0  0  0  0  0  0  0
  -38.7490  -69.5850   52.2660 N   0  0  0  0  0  0  0  0  0  0  0  0
  -41.1210  -68.2380   54.3170 C   0  0  0  0  0  0  0  0  0  0  0  0
  -41.6570  -68.1240   55.4560 O   0  0  0  0  0  0  0  0  0  0  0  0
  -39.0660  -70.2060   55.3820 H   0  0  0  0  0  0  0  0  0  0  0  0
  -37.5600  -70.8730   53.4000 H   0  0  0  0  0  0  0  0  0  0  0  0
  -38.2080  -69.6460   50.9400 C   0  0  0  0  0  2  0  0  0  0  0  0
  -36.9150  -68.9790   50.7510 C   0  0  0  0  0  0  0  0  0  0  0  0
  -35.9590  -69.3810   51.4320 O   0  0  0  0  0  0  0  0  0  0  0  0
  -36.7800  -67.9330   49.8340 N   0  0  0  0  0  0  0  0  0  0  0  0
  -37.6580  -67.6370   49.2720 H   0  0  0  0  0  0  0  0  0  0  0  0
  -35.6330  -67.1710   49.5100 C   0  0  0  0  0  0  0  0  0  0  0  0
  -35.0820  -66.2710   50.3910 C   0  0  0  0  0  3  0  0  0  0  0  0
  -33.9510  -65.5000   50.1070 C   0  0  0  0  0  3  0  0  0  0  0  0
  -33.3840  -65.6780   48.8710 C   0  0  0  0  0  0  0  0  0  0  0  0
  -33.9140  -66.5700   47.9720 C   0  0  0  0  0  3  0  0  0  0  0  0
  -31.8200  -64.6480   48.4110 Br  0  0  0  0  0  0  0  0  0  0  0  0
  -35.0240  -67.3140   48.2750 C   0  0  0  0  0  3  0  0  0  0  0  0
  -42.6940  -66.6610   53.2040 C   0  0  0  0  0  0  0  0  0  0  0  0
  -42.5950  -65.3200   52.9100 C   0  0  0  0  0  3  0  0  0  0  0  0
  -43.7150  -64.4850   52.8980 C   0  0  0  0  0  3  0  0  0  0  0  0
  -44.9520  -64.9880   53.1850 C   0  0  0  0  0  0  0  0  0  0  0  0
  -46.0410  -64.1630   53.1720 F   0  0  0  0  0  0  0  0  0  0  0  0
  -45.0740  -66.3260   53.4820 C   0  0  0  0  0  3  0  0  0  0  0  0
  -43.9630  -67.1390   53.4900 C   0  0  0  0  0  3  0  0  0  0  0  0
  1  9  1  0  0  0  0
  2  4  1  0  0  0  0
  2  1  1  0  0  0  0
  3  2  2  0  0  0  0
  4  5  2  0  0  0  0
  5  9  1  0  0  0  0
  5  6  1  0  0  0  0
  6 11  1  0  0  0  0
  7 12  1  0  0  0  0
  7  6  1  0  0  0  0
  8  4  1  0  0  0  0
  8  7  1  0  0  0  0
  9 10  2  0  0  0  0
 13  8  1  0  0  0  0
 14 13  1  0  0  0  0
 14 15  2  0  0  0  0
 16 14  1  0  0  0  0
 17 16  1  0  0  0  0
 18 16  1  0  0  0  0
 18 19  1  0  0  0  0
 20 19  2  0  0  0  0
 21 20  1  0  0  0  0
 22 24  1  0  0  0  0
 22 21  2  0  0  0  0
 23 21  1  0  0  0  0
 24 18  2  0  0  0  0
 25  1  1  0  0  0  0
 25 31  1  0  0  0  0
 26 25  2  0  0  0  0
 27 26  1  0  0  0  0
 27 28  2  0  0  0  0
 28 30  1  0  0  0  0
 29 28  1  0  0  0  0
 30 31  2  0  0  0  0
M  END
>  <Pose>
1

>  <Score>
-8.509

$$$$
