/Users/jonathanwahrer/Desktop/Msc/3_Semester/Drug_Design_Praktikum/waehrer_HTS_screening/HTS_experiment/out/docking_results/vina_output/3e7o/0892_docked.pdbqt
 OpenBabel03192215593D

 27 30  0  0  1  0  0  0  0  0999 V2000
  -40.8010  -66.5420   49.0110 C   0  0  2  0  0  3  0  0  0  0  0  0
  -39.7640  -66.9140   48.0760 N   0  0  0  0  0  0  0  0  0  0  0  0
  -38.4660  -66.3200   48.1860 C   0  0  0  0  0  0  0  0  0  0  0  0
  -36.8780  -66.8320   47.7000 S   0  0  0  0  0  0  0  0  0  0  0  0
  -35.9780  -65.4930   48.2370 C   0  0  0  0  0  0  0  0  0  0  0  0
  -36.9240  -64.6920   48.7770 C   0  0  0  0  0  0  0  0  0  0  0  0
  -38.2010  -65.1080   48.7550 C   0  0  0  0  0  0  0  0  0  0  0  0
  -39.4460  -64.4610   49.2580 C   0  0  0  0  0  0  0  0  0  0  0  0
  -39.4150  -63.3370   49.8110 O   0  0  0  0  0  0  0  0  0  0  0  0
  -40.7010  -65.0960   49.1230 N   0  0  0  0  0  0  0  0  0  0  0  0
  -36.3900  -63.3850   49.3500 C   0  0  0  0  0  2  0  0  0  0  0  0
  -35.0810  -63.0870   48.6950 C   0  0  0  0  0  2  0  0  0  0  0  0
  -34.1860  -64.1900   49.0790 N   0  0  0  0  0  4  0  0  0  0  0  0
  -34.5210  -65.2460   48.1470 C   0  0  0  0  0  2  0  0  0  0  0  0
  -32.8000  -63.7960   48.9940 C   0  0  0  0  0  1  0  0  0  0  0  0
  -39.9090  -67.6050   47.3060 H   0  0  0  0  0  0  0  0  0  0  0  0
  -41.5900  -64.5350   49.1020 H   0  0  0  0  0  0  0  0  0  0  0  0
  -34.4510  -64.5190   50.0310 H   0  0  0  0  0  0  0  0  0  0  0  0
  -40.4570  -67.1890   50.3040 C   0  0  0  0  0  0  0  0  0  0  0  0
  -41.2430  -67.1270   51.4300 C   0  0  0  0  0  0  0  0  0  0  0  0
  -40.8680  -67.7430   52.6250 C   0  0  0  0  0  0  0  0  0  0  0  0
  -42.4360  -66.4400   51.3840 O   0  0  0  0  0  1  0  0  0  0  0  0
  -42.1170  -67.6100   54.3120 I   0  0  0  0  0  0  0  0  0  0  0  0
  -39.7010  -68.4360   52.7230 C   0  0  0  0  0  3  0  0  0  0  0  0
  -38.9000  -68.5110   51.6080 C   0  0  0  0  0  0  0  0  0  0  0  0
  -39.2590  -67.9080   50.4310 C   0  0  0  0  0  3  0  0  0  0  0  0
  -37.2660  -69.4790   51.7410 Br  0  0  0  0  0  0  0  0  0  0  0  0
  1 10  1  0  0  0  0
  1 19  1  1  0  0  0
  2  3  1  0  0  0  0
  2  1  1  0  0  0  0
  3  7  2  0  0  0  0
  4  3  1  0  0  0  0
  4  5  1  0  0  0  0
  5  6  2  0  0  0  0
  6 11  1  0  0  0  0
  7  6  1  0  0  0  0
  7  8  1  0  0  0  0
  8  9  2  0  0  0  0
 10  8  1  0  0  0  0
 12 13  1  0  0  0  0
 12 11  1  0  0  0  0
 13 18  1  0  0  0  0
 14  5  1  0  0  0  0
 14 13  1  0  0  0  0
 15 13  1  0  0  0  0
 16  2  1  0  0  0  0
 17 10  1  0  0  0  0
 19 26  2  0  0  0  0
 19 20  1  0  0  0  0
 20 21  2  0  0  0  0
 21 24  1  0  0  0  0
 21 23  1  0  0  0  0
 22 20  1  0  0  0  0
 25 27  1  0  0  0  0
 25 24  2  0  0  0  0
 26 25  1  0  0  0  0
M  END
>  <Pose>
1

>  <Score>
-7.650

$$$$
