/Users/jonathanwahrer/Desktop/Msc/3_Semester/Drug_Design_Praktikum/waehrer_HTS_screening/HTS_experiment/out/docking_results/vina_output/3e7o/0908_docked.pdbqt
 OpenBabel03192216003D

 25 28  0  0  0  0  0  0  0  0999 V2000
  -38.0220  -66.7840   48.6600 N   0  0  0  0  0  0  0  0  0  0  0  0
  -38.3130  -67.3260   49.8560 C   0  0  0  0  0  0  0  0  0  0  0  0
  -37.4940  -67.9530   50.5930 O   0  0  0  0  0  0  0  0  0  0  0  0
  -39.6340  -67.1180   50.1950 C   0  0  0  0  0  0  0  0  0  0  0  0
  -40.1550  -66.4360   49.1880 C   0  0  0  0  0  0  0  0  0  0  0  0
  -41.4490  -66.2380   49.5350 N   0  0  0  0  0  0  0  0  0  0  0  0
  -41.7020  -66.7820   50.7120 N   0  0  0  0  0  0  0  0  0  0  0  0
  -40.5940  -67.3320   51.1380 N   0  0  0  0  0  0  0  0  0  0  0  0
  -39.1700  -66.2240   48.2370 C   0  0  0  0  0  0  0  0  0  0  0  0
  -39.3480  -65.5970   47.1430 O   0  0  0  0  0  0  0  0  0  0  0  0
  -42.1630  -65.7310   48.9700 H   0  0  0  0  0  0  0  0  0  0  0  0
  -42.6150  -66.7770   51.2100 H   0  0  0  0  0  0  0  0  0  0  0  0
  -36.7770  -66.7800   47.9590 C   0  0  0  0  0  0  0  0  0  0  0  0
  -35.8770  -65.7420   48.0910 C   0  0  0  0  0  0  0  0  0  0  0  0
  -36.4130  -64.1490   49.3770 I   0  0  0  0  0  0  0  0  0  0  0  0
  -34.6690  -65.7170   47.4230 C   0  0  0  0  0  3  0  0  0  0  0  0
  -34.3080  -66.7500   46.5830 C   0  0  0  0  0  3  0  0  0  0  0  0
  -35.2000  -67.7930   46.4430 C   0  0  0  0  0  3  0  0  0  0  0  0
  -36.4090  -67.8090   47.1170 C   0  0  0  0  0  3  0  0  0  0  0  0
  -40.3690  -68.0350   52.3520 C   0  0  0  0  0  0  0  0  0  0  0  0
  -39.8090  -69.2930   52.3760 C   0  0  0  0  0  3  0  0  0  0  0  0
  -39.6030  -69.9530   53.5770 C   0  0  0  0  0  3  0  0  0  0  0  0
  -39.9450  -69.3870   54.7880 C   0  0  0  0  0  3  0  0  0  0  0  0
  -40.5050  -68.1280   54.7650 C   0  0  0  0  0  3  0  0  0  0  0  0
  -40.7140  -67.4660   53.5800 C   0  0  0  0  0  3  0  0  0  0  0  0
  1  2  1  0  0  0  0
  2  4  1  0  0  0  0
  2  3  2  0  0  0  0
  4  8  1  0  0  0  0
  5  6  1  0  0  0  0
  5  4  2  0  0  0  0
  6  7  1  0  0  0  0
  7  8  1  0  0  0  0
  7 12  1  0  0  0  0
  8 20  1  0  0  0  0
  9  1  1  0  0  0  0
  9  5  1  0  0  0  0
 10  9  2  0  0  0  0
 11  6  1  0  0  0  0
 13 14  1  0  0  0  0
 13  1  1  0  0  0  0
 14 15  1  0  0  0  0
 16 14  2  0  0  0  0
 17 16  1  0  0  0  0
 18 17  2  0  0  0  0
 18 19  1  0  0  0  0
 19 13  2  0  0  0  0
 20 21  2  0  0  0  0
 20 25  1  0  0  0  0
 21 22  1  0  0  0  0
 22 23  2  0  0  0  0
 24 23  1  0  0  0  0
 25 24  2  0  0  0  0
M  END
>  <Pose>
1

>  <Score>
-8.343

$$$$
