/Users/jonathanwahrer/Desktop/Msc/3_Semester/Drug_Design_Praktikum/waehrer_HTS_screening/HTS_experiment/out/docking_results/vina_output/3e7o/0920_docked.pdbqt
 OpenBabel03192216003D

 24 27  0  0  1  0  0  0  0  0999 V2000
  -37.3150  -68.7580   50.6720 N   0  0  0  0  0  0  0  0  0  0  0  0
  -36.0440  -68.5580   50.8280 C   0  0  1  0  0  3  0  0  0  0  0  0
  -34.6220  -69.2310   51.7040 S   0  0  0  0  0  0  0  0  0  0  0  0
  -33.4930  -68.0290   51.0400 C   0  0  0  0  0  3  0  0  0  0  0  0
  -34.1540  -67.2200   50.2420 C   0  0  0  0  0  0  0  0  0  0  0  0
  -35.5400  -67.4780   50.1010 N   0  0  0  0  0  0  0  0  0  0  0  0
  -36.6940  -66.9070   49.3590 C   0  0  0  0  0  3  0  0  0  0  0  0
  -37.8440  -67.7380   49.8090 C   0  0  0  0  0  3  0  0  0  0  0  0
  -38.0690  -69.7860   51.2880 C   0  0  0  0  0  2  0  0  0  0  0  0
  -39.2860  -69.5100   52.0040 C   0  0  1  0  0  3  0  0  0  0  0  0
  -39.6530  -70.5000   52.7740 O   0  0  0  0  0  1  0  0  0  0  0  0
  -40.1720  -68.3790   52.0460 C   0  0  0  0  0  0  0  0  0  0  0  0
  -40.4530  -67.7060   53.1960 C   0  0  0  0  0  3  0  0  0  0  0  0
  -41.3160  -66.6430   53.2040 C   0  0  0  0  0  3  0  0  0  0  0  0
  -41.9500  -66.1850   52.0660 C   0  0  0  0  0  0  0  0  0  0  0  0
  -43.2700  -64.5750   52.0260 I   0  0  0  0  0  0  0  0  0  0  0  0
  -41.6570  -66.8790   50.8920 C   0  0  0  0  0  3  0  0  0  0  0  0
  -40.8030  -67.9320   50.8870 C   0  0  0  0  0  3  0  0  0  0  0  0
  -33.3940  -66.1210   49.5760 C   0  0  0  0  0  0  0  0  0  0  0  0
  -33.7090  -64.8000   49.7570 C   0  0  0  0  0  3  0  0  0  0  0  0
  -32.9830  -63.7660   49.1350 C   0  0  0  0  0  3  0  0  0  0  0  0
  -31.9200  -64.0640   48.3140 C   0  0  0  0  0  3  0  0  0  0  0  0
  -31.6000  -65.3860   48.1290 C   0  0  0  0  0  3  0  0  0  0  0  0
  -32.3220  -66.3990   48.7480 C   0  0  0  0  0  3  0  0  0  0  0  0
  1  2  1  0  0  0  0
  1  9  1  0  0  0  0
  2  3  1  6  0  0  0
  4  3  1  0  0  0  0
  5  4  2  0  0  0  0
  6  5  1  0  0  0  0
  6  2  1  0  0  0  0
  7  8  2  0  0  0  0
  7  6  1  0  0  0  0
  8  1  1  0  0  0  0
  9 10  1  0  0  0  0
 10 12  1  0  0  0  0
 10 11  1  1  0  0  0
 12 13  1  0  0  0  0
 13 14  2  0  0  0  0
 15 14  1  0  0  0  0
 16 15  1  0  0  0  0
 17 15  2  0  0  0  0
 18 17  1  0  0  0  0
 18 12  2  0  0  0  0
 19 20  1  0  0  0  0
 19  5  1  0  0  0  0
 21 20  2  0  0  0  0
 22 21  1  0  0  0  0
 23 22  2  0  0  0  0
 23 24  1  0  0  0  0
 24 19  2  0  0  0  0
M  END
>  <Pose>
1

>  <Score>
-8.025

$$$$
