/Users/jonathanwahrer/Desktop/Msc/3_Semester/Drug_Design_Praktikum/waehrer_HTS_screening/HTS_experiment/out/docking_results/vina_output/3e7o/0935_docked.pdbqt
 OpenBabel03192216013D

 34 38  0  0  1  0  0  0  0  0999 V2000
  -40.3560  -64.5580   49.1910 N   0  0  0  0  0  0  0  0  0  0  0  0
  -39.1180  -64.8680   48.7680 C   0  0  0  0  0  0  0  0  0  0  0  0
  -38.5530  -64.2920   47.6510 C   0  0  2  0  0  3  0  0  0  0  0  0
  -39.3350  -63.3690   46.9860 C   0  0  0  0  0  0  0  0  0  0  0  0
  -38.9620  -62.7510   45.9430 O   0  0  0  0  0  0  0  0  0  0  0  0
  -40.5970  -63.0440   47.4070 N   0  0  0  0  0  0  0  0  0  0  0  0
  -41.0750  -63.6540   48.5060 C   0  0  0  0  0  0  0  0  0  0  0  0
  -42.2280  -63.3890   48.9300 O   0  0  0  0  0  0  0  0  0  0  0  0
  -38.3720  -65.7880   49.4580 O   0  0  0  0  0  0  0  0  0  0  0  0
  -41.1810  -62.3510   46.9040 H   0  0  0  0  0  0  0  0  0  0  0  0
  -37.2330  -64.5860   47.1240 C   0  0  1  0  0  3  0  0  0  0  0  0
  -36.5110  -63.5120   46.5190 N   0  0  0  0  0  4  0  0  0  0  0  0
  -36.1630  -62.4440   47.4160 C   0  0  0  0  0  2  0  0  0  0  0  0
  -35.2120  -64.1050   46.1090 C   0  0  0  0  0  1  0  0  0  0  0  0
  -36.8680  -63.1670   45.6130 H   0  0  0  0  0  0  0  0  0  0  0  0
  -36.4140  -62.7770   48.8710 C   0  0  0  0  0  2  0  0  0  0  0  0
  -35.9070  -64.1750   49.1340 C   0  0  0  0  0  0  0  0  0  0  0  0
  -36.3220  -65.0990   48.2080 C   0  0  0  0  0  0  0  0  0  0  0  0
  -35.0880  -64.5080   50.1620 C   0  0  0  0  0  3  0  0  0  0  0  0
  -35.9120  -66.4080   48.2970 C   0  0  0  0  0  0  0  0  0  0  0  0
  -35.0740  -66.7410   49.3520 C   0  0  0  0  0  0  0  0  0  0  0  0
  -34.6490  -65.8250   50.2910 C   0  0  0  0  0  0  0  0  0  0  0  0
  -34.4820  -67.9560   49.7310 O   0  0  0  0  0  0  0  0  0  0  0  0
  -33.8300  -66.4760   51.2010 O   0  0  0  0  0  0  0  0  0  0  0  0
  -34.0200  -67.8940   51.0680 C   0  0  0  0  0  2  0  0  0  0  0  0
  -36.3290  -67.3200   47.3700 O   0  0  0  0  0  0  0  0  0  0  0  0
  -35.5510  -67.9610   46.4100 C   0  0  0  0  0  1  0  0  0  0  0  0
  -40.9190  -65.1650   50.3440 C   0  0  0  0  0  0  0  0  0  0  0  0
  -41.0090  -64.5100   51.5620 C   0  0  0  0  0  3  0  0  0  0  0  0
  -41.5500  -65.0920   52.6710 C   0  0  0  0  0  3  0  0  0  0  0  0
  -42.0400  -66.3920   52.6150 C   0  0  0  0  0  0  0  0  0  0  0  0
  -42.8690  -67.2760   54.3290 I   0  0  0  0  0  0  0  0  0  0  0  0
  -41.9520  -67.0450   51.4080 C   0  0  0  0  0  3  0  0  0  0  0  0
  -41.4080  -66.4660   50.2810 C   0  0  0  0  0  3  0  0  0  0  0  0
  1 28  1  0  0  0  0
  2  1  1  0  0  0  0
  2  9  2  0  0  0  0
  3  4  1  6  0  0  0
  3  2  1  0  0  0  0
  4  6  1  0  0  0  0
  5  4  2  0  0  0  0
  6  7  1  0  0  0  0
  7  8  2  0  0  0  0
  7  1  1  0  0  0  0
 10  6  1  0  0  0  0
 11  3  1  0  0  0  0
 11 18  1  1  0  0  0
 12 11  1  0  0  0  0
 12 13  1  0  0  0  0
 13 16  1  0  0  0  0
 14 12  1  0  0  0  0
 15 12  1  0  0  0  0
 16 17  1  0  0  0  0
 17 19  1  0  0  0  0
 18 20  1  0  0  0  0
 18 17  2  0  0  0  0
 19 22  2  0  0  0  0
 20 21  2  0  0  0  0
 21 23  1  0  0  0  0
 21 22  1  0  0  0  0
 22 24  1  0  0  0  0
 23 25  1  0  0  0  0
 25 24  1  0  0  0  0
 26 20  1  0  0  0  0
 27 26  1  0  0  0  0
 28 29  1  0  0  0  0
 29 30  2  0  0  0  0
 31 30  1  0  0  0  0
 31 32  1  0  0  0  0
 33 31  2  0  0  0  0
 34 28  2  0  0  0  0
 34 33  1  0  0  0  0
M  END
>  <Pose>
1

>  <Score>
-7.835

$$$$
