/Users/jonathanwahrer/Desktop/Msc/3_Semester/Drug_Design_Praktikum/waehrer_HTS_screening/HTS_experiment/out/docking_results/vina_output/3e7o/0937_docked.pdbqt
 OpenBabel03192216013D

 26 29  0  0  1  0  0  0  0  0999 V2000
  -38.1670  -66.8420   49.6630 N   0  0  0  0  0  0  0  0  0  0  0  0
  -39.5550  -66.7640   49.3840 C   0  0  0  0  0  0  0  0  0  0  0  0
  -40.0320  -66.2040   48.3630 O   0  0  0  0  0  0  0  0  0  0  0  0
  -40.3220  -67.4390   50.4680 C   0  0  1  0  0  3  0  0  0  0  0  0
  -39.3260  -68.4860   50.9360 C   0  0  0  0  0  2  0  0  0  0  0  0
  -38.0070  -67.9360   50.5630 C   0  0  0  0  0  0  0  0  0  0  0  0
  -36.8800  -68.3510   50.9620 O   0  0  0  0  0  0  0  0  0  0  0  0
  -40.6410  -66.4830   51.4470 N   0  0  1  0  0  0  0  0  0  0  0  0
  -41.3140  -65.3070   51.1190 C   0  0  0  0  0  2  0  0  0  0  0  0
  -42.0570  -64.8390   52.3980 C   0  0  0  0  0  2  0  0  0  0  0  0
  -42.7890  -65.9780   52.9320 N   0  0  0  0  0  0  0  0  0  0  0  0
  -42.0030  -67.1250   53.3130 C   0  0  0  0  0  2  0  0  0  0  0  0
  -40.5870  -66.8950   52.7910 C   0  0  0  0  0  2  0  0  0  0  0  0
  -44.1930  -65.9510   53.0600 C   0  0  0  0  0  0  0  0  0  0  0  0
  -44.8910  -67.0950   53.2980 N   0  0  0  0  0  0  0  0  0  0  0  0
  -46.2140  -67.1320   53.4380 C   0  0  0  0  0  3  0  0  0  0  0  0
  -46.9590  -65.9640   53.3410 C   0  0  0  0  0  3  0  0  0  0  0  0
  -46.2440  -64.8040   53.0980 C   0  0  0  0  0  3  0  0  0  0  0  0
  -44.9110  -64.8130   52.9650 N   0  0  0  0  0  0  0  0  0  0  0  0
  -37.1090  -66.0040   49.1600 C   0  0  0  0  0  0  0  0  0  0  0  0
  -36.9100  -64.7550   49.7090 C   0  0  0  0  0  3  0  0  0  0  0  0
  -35.9100  -63.9160   49.2590 C   0  0  0  0  0  3  0  0  0  0  0  0
  -35.0700  -64.3020   48.2360 C   0  0  0  0  0  0  0  0  0  0  0  0
  -33.5270  -63.0510   47.5180 I   0  0  0  0  0  0  0  0  0  0  0  0
  -35.2540  -65.5480   47.6760 C   0  0  0  0  0  3  0  0  0  0  0  0
  -36.2610  -66.3700   48.1420 C   0  0  0  0  0  3  0  0  0  0  0  0
  1  6  1  0  0  0  0
  2  1  1  0  0  0  0
  2  4  1  0  0  0  0
  3  2  2  0  0  0  0
  4  5  1  1  0  0  0
  4  8  1  0  0  0  0
  6  5  1  0  0  0  0
  6  7  2  0  0  0  0
  8  9  1  6  0  0  0
  8 13  1  0  0  0  0
  9 10  1  0  0  0  0
 10 11  1  0  0  0  0
 11 14  1  0  0  0  0
 11 12  1  0  0  0  0
 13 12  1  0  0  0  0
 14 15  2  0  0  0  0
 15 16  1  0  0  0  0
 17 16  2  0  0  0  0
 18 17  1  0  0  0  0
 19 14  1  0  0  0  0
 19 18  2  0  0  0  0
 20  1  1  0  0  0  0
 20 21  1  0  0  0  0
 22 21  2  0  0  0  0
 23 22  1  0  0  0  0
 24 23  1  0  0  0  0
 25 26  1  0  0  0  0
 25 23  2  0  0  0  0
 26 20  2  0  0  0  0
M  END
>  <Pose>
1

>  <Score>
-7.131

$$$$
