/Users/jonathanwahrer/Desktop/Msc/3_Semester/Drug_Design_Praktikum/waehrer_HTS_screening/HTS_experiment/out/docking_results/vina_output/3e7o/0969_docked.pdbqt
 OpenBabel03192216013D

 31 34  0  0  1  0  0  0  0  0999 V2000
  -40.2100  -67.3440   50.5220 Br  0  0  0  0  0  0  0  0  0  0  0  0
  -38.3370  -67.4150   50.2080 C   0  0  0  0  0  0  0  0  0  0  0  0
  -37.6770  -66.5630   49.3270 C   0  0  2  0  0  3  0  0  0  0  0  0
  -36.3090  -66.6560   49.1320 C   0  0  0  0  0  0  0  0  0  0  0  0
  -35.5760  -67.6050   49.8150 C   0  0  0  0  0  3  0  0  0  0  0  0
  -36.2160  -68.4460   50.6820 C   0  0  0  0  0  0  0  0  0  0  0  0
  -37.5720  -68.3480   50.8700 C   0  0  0  0  0  0  0  0  0  0  0  0
  -38.1590  -69.2480   51.7790 O   0  0  0  0  0  1  0  0  0  0  0  0
  -35.1370  -69.7410   51.6010 Br  0  0  0  0  0  0  0  0  0  0  0  0
  -35.6310  -65.8250   48.2670 C   0  0  0  0  0  0  0  0  0  0  0  0
  -36.3710  -64.8780   47.5880 C   0  0  0  0  0  0  0  0  0  0  0  0
  -37.8140  -64.8520   47.8560 C   0  0  0  0  0  0  0  0  0  0  0  0
  -38.5490  -63.8900   47.1610 C   0  0  1  0  0  3  0  0  0  0  0  0
  -37.9280  -63.0310   46.2840 C   0  0  0  0  0  0  0  0  0  0  0  0
  -38.6300  -62.1810   45.6820 O   0  0  0  0  0  0  0  0  0  0  0  0
  -36.5570  -63.0820   46.0520 C   0  0  0  0  0  0  0  0  0  0  0  0
  -35.7780  -63.9970   46.6980 C   0  0  0  0  0  3  0  0  0  0  0  0
  -35.7760  -61.8500   44.8170 Br  0  0  0  0  0  0  0  0  0  0  0  0
  -40.4450  -63.7990   47.4610 Br  0  0  0  0  0  0  0  0  0  0  0  0
  -38.3990  -65.6740   48.6950 O   0  0  0  0  0  0  0  0  0  0  0  0
  -34.1870  -65.9300   48.0560 C   0  0  0  0  0  0  0  0  0  0  0  0
  -33.3030  -65.2760   48.8950 C   0  0  0  0  0  0  0  0  0  0  0  0
  -31.9380  -65.3550   48.7140 C   0  0  0  0  0  3  0  0  0  0  0  0
  -33.9470  -64.3170   50.2320 Cl  0  0  0  0  0  0  0  0  0  0  0  0
  -31.4550  -66.1100   47.6650 C   0  0  0  0  0  3  0  0  0  0  0  0
  -32.2890  -66.7700   46.8160 C   0  0  0  0  0  0  0  0  0  0  0  0
  -33.6500  -66.6790   47.0110 C   0  0  0  0  0  0  0  0  0  0  0  0
  -31.5880  -67.7100   45.5080 Cl  0  0  0  0  0  0  0  0  0  0  0  0
  -34.5420  -67.3710   46.1130 C   0  0  0  0  0  0  0  0  0  0  0  0
  -35.1290  -68.4400   46.4350 O   0  0  0  0  0  1  0  0  0  0  0  0
  -34.7850  -66.8690   44.8360 O   0  0  0  0  0  0  0  0  0  0  0  0
  2  1  1  0  0  0  0
  2  7  2  0  0  0  0
  3 20  1  1  0  0  0
  3  2  1  0  0  0  0
  4  3  1  0  0  0  0
  4  5  1  0  0  0  0
  5  6  2  0  0  0  0
  6  7  1  0  0  0  0
  6  9  1  0  0  0  0
  7  8  1  0  0  0  0
 10  4  2  0  0  0  0
 11 12  2  0  0  0  0
 11 10  1  0  0  0  0
 12 20  1  0  0  0  0
 13 19  1  6  0  0  0
 13 12  1  0  0  0  0
 14 13  1  0  0  0  0
 15 14  2  0  0  0  0
 16 14  1  0  0  0  0
 16 17  2  0  0  0  0
 17 11  1  0  0  0  0
 18 16  1  0  0  0  0
 21 10  1  0  0  0  0
 21 22  1  0  0  0  0
 22 24  1  0  0  0  0
 23 22  2  0  0  0  0
 25 23  1  0  0  0  0
 26 27  1  0  0  0  0
 26 25  2  0  0  0  0
 27 21  2  0  0  0  0
 28 26  1  0  0  0  0
 29 30  1  0  0  0  0
 29 27  1  0  0  0  0
 31 29  2  0  0  0  0
M  END
>  <Pose>
1

>  <Score>
-6.975

$$$$
