/Users/jonathanwahrer/Desktop/Msc/3_Semester/Drug_Design_Praktikum/waehrer_HTS_screening/HTS_experiment/out/docking_results/vina_output/3e7o/0971_docked.pdbqt
 OpenBabel03192216013D

 29 33  0  0  1  0  0  0  0  0999 V2000
  -41.2650  -62.3950   47.9920 Br  0  0  0  0  0  0  0  0  0  0  0  0
  -39.5560  -63.1090   47.5340 C   0  0  0  0  0  0  0  0  0  0  0  0
  -39.0550  -64.2690   48.1550 C   0  0  0  0  0  0  0  0  0  0  0  0
  -37.8400  -64.8100   47.8570 C   0  0  0  0  0  0  0  0  0  0  0  0
  -37.0690  -64.1690   46.8850 C   0  0  0  0  0  3  0  0  0  0  0  0
  -37.5540  -63.0450   46.2840 C   0  0  0  0  0  0  0  0  0  0  0  0
  -38.7830  -62.4930   46.5810 C   0  0  0  0  0  0  0  0  0  0  0  0
  -39.2190  -61.3320   45.9200 O   0  0  0  0  0  1  0  0  0  0  0  0
  -36.5080  -62.1630   44.9550 Br  0  0  0  0  0  0  0  0  0  0  0  0
  -37.3480  -66.0120   48.5160 C   0  0  1  0  0  0  0  0  0  0  0  0
  -37.2080  -67.0050   47.5020 O   0  0  0  0  0  0  0  0  0  0  0  0
  -35.9160  -67.4380   47.3800 C   0  0  0  0  0  0  0  0  0  0  0  0
  -35.5100  -68.3030   46.5700 O   0  0  0  0  0  0  0  0  0  0  0  0
  -35.1530  -66.6960   48.3650 C   0  0  0  0  0  0  0  0  0  0  0  0
  -35.9710  -65.8360   49.0620 C   0  0  0  0  0  0  0  0  0  0  0  0
  -35.4150  -65.0630   50.0270 C   0  0  0  0  0  3  0  0  0  0  0  0
  -34.0630  -65.1500   50.2860 C   0  0  0  0  0  3  0  0  0  0  0  0
  -33.2400  -66.0090   49.5900 C   0  0  0  0  0  3  0  0  0  0  0  0
  -33.7870  -66.7980   48.6130 C   0  0  0  0  0  3  0  0  0  0  0  0
  -38.2700  -66.5600   49.5050 C   0  0  0  0  0  0  0  0  0  0  0  0
  -39.4770  -65.9710   49.7610 C   0  0  0  0  0  0  0  0  0  0  0  0
  -40.3560  -66.5150   50.7200 C   0  0  0  0  0  0  0  0  0  0  0  0
  -39.9780  -67.6520   51.3960 C   0  0  0  0  0  0  0  0  0  0  0  0
  -38.7550  -68.2550   51.1420 C   0  0  0  0  0  0  0  0  0  0  0  0
  -37.9080  -67.7220   50.2110 C   0  0  0  0  0  3  0  0  0  0  0  0
  -38.2170  -69.8300   52.0700 Br  0  0  0  0  0  0  0  0  0  0  0  0
  -40.8510  -68.1760   52.3360 O   0  0  0  0  0  1  0  0  0  0  0  0
  -42.0370  -65.6620   51.0500 Br  0  0  0  0  0  0  0  0  0  0  0  0
  -39.9100  -64.8250   49.1090 O   0  0  0  0  0  0  0  0  0  0  0  0
  2  1  1  0  0  0  0
  2  3  1  0  0  0  0
  3 29  1  0  0  0  0
  4  3  2  0  0  0  0
  4 10  1  0  0  0  0
  5  4  1  0  0  0  0
  6  7  1  0  0  0  0
  6  5  2  0  0  0  0
  7  2  2  0  0  0  0
  8  7  1  0  0  0  0
  9  6  1  0  0  0  0
 10 11  1  6  0  0  0
 10 15  1  0  0  0  0
 10 20  1  0  0  0  0
 12 11  1  0  0  0  0
 12 14  1  0  0  0  0
 13 12  2  0  0  0  0
 14 19  2  0  0  0  0
 14 15  1  0  0  0  0
 15 16  2  0  0  0  0
 16 17  1  0  0  0  0
 18 17  2  0  0  0  0
 19 18  1  0  0  0  0
 20 21  2  0  0  0  0
 20 25  1  0  0  0  0
 21 22  1  0  0  0  0
 22 28  1  0  0  0  0
 22 23  2  0  0  0  0
 23 27  1  0  0  0  0
 24 23  1  0  0  0  0
 24 26  1  0  0  0  0
 25 24  2  0  0  0  0
 29 21  1  0  0  0  0
M  END
>  <Pose>
1

>  <Score>
-8.424

$$$$
