/Users/jonathanwahrer/Desktop/Msc/3_Semester/Drug_Design_Praktikum/waehrer_HTS_screening/HTS_experiment/out/docking_results/vina_output/3e7o/0978_docked.pdbqt
 OpenBabel03192216023D

 33 37  0  0  1  0  0  0  0  0999 V2000
  -47.2090  -62.5970   49.8920 I   0  0  0  0  0  0  0  0  0  0  0  0
  -47.2140  -64.0770   51.4000 C   0  0  0  0  0  0  0  0  0  0  0  0
  -48.4490  -64.4420   51.9260 C   0  0  0  0  0  0  0  0  0  0  0  0
  -48.4840  -65.3900   52.8960 C   0  0  0  0  0  0  0  0  0  0  0  0
  -47.2860  -65.9630   53.3300 C   0  0  0  0  0  3  0  0  0  0  0  0
  -46.0590  -65.6080   52.8150 C   0  0  0  0  0  0  0  0  0  0  0  0
  -46.0320  -64.6430   51.8280 C   0  0  0  0  0  0  0  0  0  0  0  0
  -44.8070  -64.2690   51.2950 O   0  0  0  0  0  1  0  0  0  0  0  0
  -44.2690  -66.5080   53.5080 I   0  0  0  0  0  0  0  0  0  0  0  0
  -49.7160  -65.8450   53.5130 C   0  0  2  0  0  0  0  0  0  0  0  0
  -49.7070  -65.6170   54.9300 O   0  0  0  0  0  0  0  0  0  0  0  0
  -49.8810  -66.7740   55.6410 C   0  0  0  0  0  0  0  0  0  0  0  0
  -49.9260  -66.9540   56.8920 O   0  0  0  0  0  0  0  0  0  0  0  0
  -50.0160  -67.8400   54.6580 C   0  0  0  0  0  0  0  0  0  0  0  0
  -49.9200  -67.2990   53.4120 C   0  0  0  0  0  0  0  0  0  0  0  0
  -50.0160  -68.1110   52.2820 C   0  0  0  0  0  0  0  0  0  0  0  0
  -50.2100  -69.4710   52.3970 C   0  0  0  0  0  0  0  0  0  0  0  0
  -50.3080  -70.0210   53.6730 C   0  0  0  0  0  0  0  0  0  0  0  0
  -50.2140  -69.2260   54.7860 C   0  0  0  0  0  0  0  0  0  0  0  0
  -50.3360  -69.9220   56.3570 Cl  0  0  0  0  0  0  0  0  0  0  0  0
  -50.5530  -71.7320   53.8870 Cl  0  0  0  0  0  0  0  0  0  0  0  0
  -50.3270  -70.4580   50.9590 Cl  0  0  0  0  0  0  0  0  0  0  0  0
  -49.8860  -67.3580   50.7280 Cl  0  0  0  0  0  0  0  0  0  0  0  0
  -50.9090  -65.1510   52.9560 C   0  0  0  0  0  0  0  0  0  0  0  0
  -50.8380  -64.2090   51.9870 C   0  0  0  0  0  0  0  0  0  0  0  0
  -52.0330  -63.6380   51.5560 C   0  0  0  0  0  0  0  0  0  0  0  0
  -53.2600  -63.9930   52.0700 C   0  0  0  0  0  0  0  0  0  0  0  0
  -53.2940  -64.9580   53.0570 C   0  0  0  0  0  0  0  0  0  0  0  0
  -52.1370  -65.5400   53.5060 C   0  0  0  0  0  3  0  0  0  0  0  0
  -55.1560  -65.5220   53.8640 I   0  0  0  0  0  0  0  0  0  0  0  0
  -54.4360  -63.4320   51.6460 O   0  0  0  0  0  1  0  0  0  0  0  0
  -51.9360  -62.1750   50.0540 I   0  0  0  0  0  0  0  0  0  0  0  0
  -49.6230  -63.8280   51.4470 O   0  0  0  0  0  0  0  0  0  0  0  0
  1  2  1  0  0  0  0
  2  7  2  0  0  0  0
  2  3  1  0  0  0  0
  3  4  2  0  0  0  0
  4  5  1  0  0  0  0
  6  5  2  0  0  0  0
  6  9  1  0  0  0  0
  7  6  1  0  0  0  0
  8  7  1  0  0  0  0
 10  4  1  6  0  0  0
 10 11  1  0  0  0  0
 11 12  1  0  0  0  0
 12 13  2  0  0  0  0
 14 19  1  0  0  0  0
 14 12  1  0  0  0  0
 15 10  1  0  0  0  0
 15 14  2  0  0  0  0
 16 17  2  0  0  0  0
 16 15  1  0  0  0  0
 17 18  1  0  0  0  0
 18 21  1  0  0  0  0
 18 19  2  0  0  0  0
 19 20  1  0  0  0  0
 22 17  1  0  0  0  0
 23 16  1  0  0  0  0
 24 29  1  0  0  0  0
 24 10  1  0  0  0  0
 25 24  2  0  0  0  0
 26 25  1  0  0  0  0
 26 27  2  0  0  0  0
 27 28  1  0  0  0  0
 28 29  2  0  0  0  0
 28 30  1  0  0  0  0
 31 27  1  0  0  0  0
 32 26  1  0  0  0  0
 33  3  1  0  0  0  0
 33 25  1  0  0  0  0
M  END
>  <Pose>
1

>  <Score>
-5.672

$$$$
