/Users/jonathanwahrer/Desktop/Msc/3_Semester/Drug_Design_Praktikum/waehrer_HTS_screening/HTS_experiment/out/docking_results/vina_output/3e7o/0980_docked.pdbqt
 OpenBabel03192216023D

 27 30  0  0  1  0  0  0  0  0999 V2000
  -40.9010  -68.3960   53.5720 I   0  0  0  0  0  0  0  0  0  0  0  0
  -39.2680  -68.5690   52.2510 C   0  0  0  0  0  0  0  0  0  0  0  0
  -39.0610  -67.6910   51.2070 C   0  0  0  0  0  0  0  0  0  0  0  0
  -37.9940  -67.8010   50.3400 C   0  0  0  0  0  0  0  0  0  0  0  0
  -37.1090  -68.8430   50.5470 C   0  0  0  0  0  2  0  0  0  0  0  0
  -37.3100  -69.7310   51.5930 C   0  0  0  0  0  3  0  0  0  0  0  0
  -38.3880  -69.6120   52.4610 C   0  0  0  0  0  0  0  0  0  0  0  0
  -38.5410  -70.5320   53.4960 O   0  0  0  0  0  1  0  0  0  0  0  0
  -37.7700  -66.9330   49.2920 C   0  0  0  0  0  0  0  0  0  0  0  0
  -38.7010  -65.9090   49.1450 C   0  0  0  0  0  0  0  0  0  0  0  0
  -39.8170  -65.8260   50.0830 C   0  0  0  0  0  0  0  0  0  0  0  0
  -40.7050  -64.7890   49.8860 C   0  0  1  0  0  3  0  0  0  0  0  0
  -40.5710  -63.8690   48.8690 C   0  0  0  0  0  0  0  0  0  0  0  0
  -41.3980  -62.9240   48.7050 O   0  0  0  0  0  0  0  0  0  0  0  0
  -39.5160  -63.9470   47.9810 C   0  0  0  0  0  3  0  0  0  0  0  0
  -38.6080  -64.9730   48.1510 C   0  0  0  0  0  3  0  0  0  0  0  0
  -42.3440  -64.5870   51.1870 I   0  0  0  0  0  0  0  0  0  0  0  0
  -39.9170  -66.7150   51.0400 O   0  0  0  0  0  0  0  0  0  0  0  0
  -36.6420  -67.0460   48.3730 C   0  0  0  0  0  0  0  0  0  0  0  0
  -35.4660  -66.3690   48.6800 C   0  0  0  0  0  0  0  0  0  0  0  0
  -34.3810  -66.4460   47.8480 C   0  0  0  0  0  3  0  0  0  0  0  0
  -34.4580  -67.2000   46.6980 C   0  0  0  0  0  3  0  0  0  0  0  0
  -35.6100  -67.8800   46.3700 C   0  0  0  0  0  3  0  0  0  0  0  0
  -36.6880  -67.7890   47.2220 C   0  0  0  0  0  3  0  0  0  0  0  0
  -35.3740  -65.5670   49.8970 C   0  0  0  0  0  0  0  0  0  0  0  0
  -34.8150  -65.9750   50.9390 O   0  0  0  0  0  1  0  0  0  0  0  0
  -35.9180  -64.2910   49.9440 O   0  0  0  0  0  0  0  0  0  0  0  0
  2  7  1  0  0  0  0
  2  1  1  0  0  0  0
  3  2  2  0  0  0  0
  4  5  1  0  0  0  0
  4  3  1  0  0  0  0
  5  6  1  0  0  0  0
  6  7  2  0  0  0  0
  7  8  1  0  0  0  0
  9  4  2  0  0  0  0
 10  9  1  0  0  0  0
 10 11  2  0  0  0  0
 11 18  1  0  0  0  0
 12 11  1  0  0  0  0
 12 17  1  6  0  0  0
 13 12  1  0  0  0  0
 14 13  2  0  0  0  0
 15 16  2  0  0  0  0
 15 13  1  0  0  0  0
 16 10  1  0  0  0  0
 18  3  1  0  0  0  0
 19 20  1  0  0  0  0
 19  9  1  0  0  0  0
 20 25  1  0  0  0  0
 21 20  2  0  0  0  0
 22 21  1  0  0  0  0
 23 22  2  0  0  0  0
 23 24  1  0  0  0  0
 24 19  2  0  0  0  0
 25 27  2  0  0  0  0
 25 26  1  0  0  0  0
M  END
>  <Pose>
1

>  <Score>
-8.074

$$$$
