/Users/jonathanwahrer/Desktop/Msc/3_Semester/Drug_Design_Praktikum/waehrer_HTS_screening/HTS_experiment/out/docking_results/vina_output/3e7o/0991_docked.pdbqt
 OpenBabel03192216023D

 34 39  0  0  1  0  0  0  0  0999 V2000
  -42.1940  -63.1910   47.8120 N   0  0  0  0  0  0  0  0  0  0  0  0
  -41.5710  -64.1540   48.5370 C   0  0  0  0  0  0  0  0  0  0  0  0
  -40.4080  -64.5540   47.9160 C   0  0  0  0  0  0  0  0  0  0  0  0
  -40.3350  -63.8120   46.7910 N   0  0  0  0  0  0  0  0  0  0  0  0
  -41.4100  -62.9990   46.7370 C   0  0  0  0  0  0  0  0  0  0  0  0
  -41.8300  -61.7300   45.3690 Br  0  0  0  0  0  0  0  0  0  0  0  0
  -39.6260  -65.5310   48.4980 C   0  0  0  0  0  0  0  0  0  0  0  0
  -38.5680  -65.9020   47.9430 O   0  0  0  0  0  0  0  0  0  0  0  0
  -39.9600  -66.1180   49.6710 N   0  0  0  0  0  0  0  0  0  0  0  0
  -41.1000  -65.7120   50.2600 C   0  0  0  0  0  0  0  0  0  0  0  0
  -41.2040  -66.4350   51.3890 N   0  0  0  0  0  0  0  0  0  0  0  0
  -40.1700  -67.2840   51.5360 C   0  0  0  0  0  0  0  0  0  0  0  0
  -39.3710  -67.0810   50.4310 C   0  0  0  0  0  3  0  0  0  0  0  0
  -41.8850  -64.7490   49.7000 N   0  0  0  0  0  0  0  0  0  0  0  0
  -42.7690  -64.4370   50.1620 H   0  0  0  0  0  0  0  0  0  0  0  0
  -43.4470  -62.5060   48.1220 C   0  0  2  0  0  3  0  0  0  0  0  0
  -43.7680  -62.6380   49.4710 O   0  0  0  0  0  0  0  0  0  0  0  0
  -45.1230  -62.5080   49.5990 C   0  0  1  0  0  3  0  0  0  0  0  0
  -45.6830  -63.1830   48.3450 C   0  0  1  0  0  3  0  0  0  0  0  0
  -45.7030  -63.2540   50.7770 C   0  0  0  0  0  2  0  0  0  0  0  0
  -46.8500  -62.4940   48.0270 O   0  0  0  0  0  0  0  0  0  0  0  0
  -44.5980  -63.0130   47.3250 C   0  0  1  0  0  3  0  0  0  0  0  0
  -47.6790  -62.2470   49.4890 P   0  0  1  0  0  0  0  0  0  0  0  0
  -49.3400  -62.6940   49.2430 S   0  0  0  0  0  1  0  0  0  0  0  0
  -47.0790  -63.2400   50.7160 O   0  0  0  0  0  0  0  0  0  0  0  0
  -47.5450  -60.6460   50.0150 O   0  0  0  0  0  0  0  0  0  0  0  0
  -44.9850  -62.0870   46.3470 O   0  0  0  0  0  0  0  0  0  0  0  0
  -45.5250  -62.5000   45.6420 H   0  0  0  0  0  0  0  0  0  0  0  0
  -39.9380  -68.2290   52.6360 C   0  0  0  0  0  0  0  0  0  0  0  0
  -39.0980  -69.3060   52.4600 C   0  0  0  0  0  3  0  0  0  0  0  0
  -38.8570  -70.2170   53.4810 C   0  0  0  0  0  3  0  0  0  0  0  0
  -39.4790  -70.0300   54.6940 C   0  0  0  0  0  3  0  0  0  0  0  0
  -40.3320  -68.9590   54.9120 C   0  0  0  0  0  3  0  0  0  0  0  0
  -40.5330  -68.0870   53.8650 C   0  0  0  0  0  3  0  0  0  0  0  0
  1  2  1  0  0  0  0
  2 14  1  0  0  0  0
  3  7  1  0  0  0  0
  3  2  2  0  0  0  0
  4  3  1  0  0  0  0
  5  4  2  0  0  0  0
  5  1  1  0  0  0  0
  6  5  1  0  0  0  0
  7  9  1  0  0  0  0
  8  7  2  0  0  0  0
  9 10  1  0  0  0  0
  9 13  1  0  0  0  0
 10 11  2  0  0  0  0
 11 12  1  0  0  0  0
 12 29  1  0  0  0  0
 13 12  2  0  0  0  0
 14 15  1  0  0  0  0
 14 10  1  0  0  0  0
 16  1  1  1  0  0  0
 16 17  1  0  0  0  0
 17 18  1  0  0  0  0
 18 20  1  1  0  0  0
 19 21  1  6  0  0  0
 19 18  1  0  0  0  0
 21 23  1  0  0  0  0
 22 27  1  6  0  0  0
 22 16  1  0  0  0  0
 22 19  1  0  0  0  0
 23 24  1  6  0  0  0
 23 26  2  0  0  0  0
 23 25  1  0  0  0  0
 25 20  1  0  0  0  0
 28 27  1  0  0  0  0
 29 34  1  0  0  0  0
 30 29  2  0  0  0  0
 30 31  1  0  0  0  0
 31 32  2  0  0  0  0
 32 33  1  0  0  0  0
 34 33  2  0  0  0  0
M  END
>  <Pose>
1

>  <Score>
-8.730

$$$$
