/Users/jonathanwahrer/Desktop/Msc/3_Semester/Drug_Design_Praktikum/waehrer_HTS_screening/HTS_experiment/out/docking_results/vina_output/3e7o/0993_docked.pdbqt
 OpenBabel03192216033D

 26 29  0  0  1  0  0  0  0  0999 V2000
  -39.3090  -63.6290   48.7190 P   0  0  2  0  0  0  0  0  0  0  0  0
  -37.6250  -64.0270   48.9520 S   0  0  0  0  0  1  0  0  0  0  0  0
  -40.1140  -63.6380   50.2250 O   0  0  0  0  0  0  0  0  0  0  0  0
  -40.2280  -64.9520   50.6070 C   0  0  2  0  0  3  0  0  0  0  0  0
  -41.0910  -65.6890   49.5750 C   0  0  2  0  0  3  0  0  0  0  0  0
  -41.3810  -66.8530   50.2850 O   0  0  0  0  0  0  0  0  0  0  0  0
  -41.7900  -66.4380   51.5300 C   0  0  2  0  0  3  0  0  0  0  0  0
  -41.0880  -65.1400   51.8430 C   0  0  2  0  0  3  0  0  0  0  0  0
  -40.3290  -65.9470   48.3130 C   0  0  0  0  0  2  0  0  0  0  0  0
  -40.0550  -64.7320   47.7110 O   0  0  0  0  0  0  0  0  0  0  0  0
  -39.3950  -62.0840   48.0940 O   0  0  0  0  0  0  0  0  0  0  0  0
  -41.4500  -67.3800   52.5800 N   0  0  0  0  0  0  0  0  0  0  0  0
  -40.3940  -68.2300   52.5260 C   0  0  0  0  0  0  0  0  0  0  0  0
  -39.4410  -68.4380   51.5810 N   0  0  0  0  0  0  0  0  0  0  0  0
  -40.3690  -68.9760   53.6870 C   0  0  0  0  0  0  0  0  0  0  0  0
  -38.4730  -69.3590   51.7580 C   0  0  0  0  0  3  0  0  0  0  0  0
  -38.4450  -70.0940   52.8970 N   0  0  0  0  0  0  0  0  0  0  0  0
  -39.3710  -69.9180   53.8560 C   0  0  0  0  0  0  0  0  0  0  0  0
  -41.4090  -68.5770   54.4420 N   0  0  0  0  0  0  0  0  0  0  0  0
  -42.0560  -67.6070   53.7570 C   0  0  0  0  0  0  0  0  0  0  0  0
  -43.6210  -66.6440   54.3130 Br  0  0  0  0  0  0  0  0  0  0  0  0
  -39.3280  -70.7020   55.0520 N   0  0  0  0  0  0  0  0  0  0  0  0
  -38.4210  -71.1830   55.3050 H   0  0  0  0  0  0  0  0  0  0  0  0
  -40.1500  -70.8140   55.6770 H   0  0  0  0  0  0  0  0  0  0  0  0
  -42.0590  -64.1310   51.8090 O   0  0  0  0  0  0  0  0  0  0  0  0
  -42.9700  -64.4720   51.8660 H   0  0  0  0  0  0  0  0  0  0  0  0
  1 11  2  6  0  0  0
  1  2  1  0  0  0  0
  1  3  1  0  0  0  0
  4  3  1  6  0  0  0
  4  8  1  0  0  0  0
  5  9  1  6  0  0  0
  5  6  1  0  0  0  0
  5  4  1  0  0  0  0
  6  7  1  0  0  0  0
  7  8  1  0  0  0  0
  7 12  1  1  0  0  0
  8 25  1  6  0  0  0
 10  9  1  0  0  0  0
 10  1  1  0  0  0  0
 12 20  1  0  0  0  0
 13 12  1  0  0  0  0
 13 15  1  0  0  0  0
 14 16  1  0  0  0  0
 14 13  2  0  0  0  0
 15 18  2  0  0  0  0
 15 19  1  0  0  0  0
 16 17  2  0  0  0  0
 17 18  1  0  0  0  0
 18 22  1  0  0  0  0
 20 21  1  0  0  0  0
 20 19  2  0  0  0  0
 22 23  1  0  0  0  0
 22 24  1  0  0  0  0
 25 26  1  0  0  0  0
M  END
>  <Pose>
1

>  <Score>
-7.601

$$$$
