/Users/jonathanwahrer/Desktop/Msc/3_Semester/Drug_Design_Praktikum/waehrer_HTS_screening/HTS_experiment/out/docking_results/vina_output/3e7o/0999_docked.pdbqt
 OpenBabel03192216033D

 35 39  0  0  1  0  0  0  0  0999 V2000
  -36.9130  -63.6740   46.7700 N   0  0  0  0  0  0  0  0  0  0  0  0
  -37.8060  -62.8070   47.4470 C   0  0  0  0  0  0  0  0  0  0  0  0
  -37.5140  -61.5830   47.5130 O   0  0  0  0  0  0  0  0  0  0  0  0
  -37.1770  -64.6900   46.7280 H   0  0  0  0  0  0  0  0  0  0  0  0
  -35.7240  -63.1390   46.1900 C   0  0  1  0  0  3  0  0  0  0  0  0
  -34.4590  -63.2680   46.9290 C   0  0  1  0  0  0  0  0  0  0  0  0
  -34.3820  -63.0290   48.7020 S   0  0  0  0  0  0  0  0  0  0  0  0
  -34.5630  -64.6690   46.6690 N   0  0  0  0  0  0  0  0  0  0  0  0
  -33.0320  -64.2150   49.0460 C   0  0  0  0  0  2  0  0  0  0  0  0
  -33.5630  -65.5850   48.6000 C   0  0  0  0  0  0  0  0  0  0  0  0
  -34.2550  -65.7760   47.5210 C   0  0  0  0  0  0  0  0  0  0  0  0
  -35.0550  -64.2560   45.4060 C   0  0  1  0  0  0  0  0  0  0  0  0
  -35.0630  -64.5130   44.1970 O   0  0  0  0  0  1  0  0  0  0  0  0
  -33.1830  -66.5960   49.5530 C   0  0  0  0  0  2  0  0  0  0  0  0
  -33.9000  -66.8800   50.6670 O   0  0  0  0  0  0  0  0  0  0  0  0
  -34.4980  -68.1240   50.9020 C   0  0  0  0  0  0  0  0  0  0  0  0
  -33.7680  -69.0290   51.3460 O   0  0  0  0  0  0  0  0  0  0  0  0
  -35.9430  -68.2660   50.6040 C   0  0  0  0  0  1  0  0  0  0  0  0
  -34.7720  -67.1020   47.0730 C   0  0  0  0  0  0  0  0  0  0  0  0
  -35.9120  -67.5040   47.1640 O   0  0  0  0  0  1  0  0  0  0  0  0
  -33.8730  -68.0080   46.4790 O   0  0  0  0  0  0  0  0  0  0  0  0
  -39.0440  -63.2910   48.0640 C   0  0  0  0  0  0  0  0  0  0  0  0
  -39.2610  -63.6800   49.2810 O   0  0  0  0  0  0  0  0  0  0  0  0
  -40.4880  -64.0450   49.4730 C   0  0  0  0  0  0  0  0  0  0  0  0
  -41.1630  -63.8850   48.2580 C   0  0  0  0  0  3  0  0  0  0  0  0
  -40.2310  -63.4070   47.3760 C   0  0  0  0  0  3  0  0  0  0  0  0
  -41.1250  -64.5530   50.7420 C   0  0  0  0  0  2  0  0  0  0  0  0
  -41.3890  -65.9300   50.6510 O   0  0  0  0  0  0  0  0  0  0  0  0
  -40.8140  -66.9120   51.4060 C   0  0  0  0  0  0  0  0  0  0  0  0
  -39.9350  -67.8720   50.9140 C   0  0  0  0  0  3  0  0  0  0  0  0
  -39.4100  -68.8180   51.7660 C   0  0  0  0  0  3  0  0  0  0  0  0
  -39.7080  -68.8760   53.1080 C   0  0  0  0  0  0  0  0  0  0  0  0
  -40.5820  -67.9240   53.6060 C   0  0  0  0  0  3  0  0  0  0  0  0
  -38.9500  -70.2100   54.2410 Br  0  0  0  0  0  0  0  0  0  0  0  0
  -41.1140  -66.9670   52.7510 C   0  0  0  0  0  3  0  0  0  0  0  0
  1  2  1  0  0  0  0
  2  3  2  0  0  0  0
  2 22  1  0  0  0  0
  4  1  1  0  0  0  0
  5  1  1  1  0  0  0
  5  6  1  0  0  0  0
  6  7  1  1  0  0  0
  7  9  1  0  0  0  0
  8  6  1  0  0  0  0
  8 11  1  0  0  0  0
 10  9  1  0  0  0  0
 10 14  1  0  0  0  0
 11 10  2  0  0  0  0
 12 13  1  6  0  0  0
 12  5  1  0  0  0  0
 12  8  1  0  0  0  0
 12  6  1  0  0  0  0
 14 15  1  0  0  0  0
 15 16  1  0  0  0  0
 16 17  2  0  0  0  0
 18 16  1  0  0  0  0
 19 20  1  0  0  0  0
 19 11  1  0  0  0  0
 21 19  2  0  0  0  0
 22 23  1  0  0  0  0
 23 24  1  0  0  0  0
 24 27  1  0  0  0  0
 25 24  2  0  0  0  0
 26 22  2  0  0  0  0
 26 25  1  0  0  0  0
 28 27  1  0  0  0  0
 28 29  1  0  0  0  0
 29 35  1  0  0  0  0
 30 29  2  0  0  0  0
 30 31  1  0  0  0  0
 31 32  2  0  0  0  0
 32 33  1  0  0  0  0
 32 34  1  0  0  0  0
 35 33  2  0  0  0  0
M  END
>  <Pose>
1

>  <Score>
-7.257

$$$$
