/Users/jonathanwahrer/Desktop/Msc/3_Semester/Drug_Design_Praktikum/waehrer_HTS_screening/HTS_experiment/out/docking_results/vina_output/3e7o/1001_docked.pdbqt
 OpenBabel03192216033D

 26 29  0  0  1  0  0  0  0  0999 V2000
  -40.0660  -63.4690   48.6220 P   0  0  2  0  0  0  0  0  0  0  0  0
  -39.0080  -62.3920   48.3760 O   0  0  0  0  0  1  0  0  0  0  0  0
  -40.4440  -63.4410   50.2570 O   0  0  0  0  0  0  0  0  0  0  0  0
  -40.4590  -64.6990   50.8010 C   0  0  2  0  0  3  0  0  0  0  0  0
  -40.9670  -65.6450   49.7030 C   0  0  2  0  0  3  0  0  0  0  0  0
  -41.5700  -66.6850   50.3450 O   0  0  0  0  0  0  0  0  0  0  0  0
  -42.0020  -66.2870   51.5800 C   0  0  2  0  0  3  0  0  0  0  0  0
  -41.5170  -64.9060   51.8520 C   0  0  2  0  0  3  0  0  0  0  0  0
  -39.7730  -66.0050   48.8800 C   0  0  0  0  0  2  0  0  0  0  0  0
  -39.4280  -64.9220   48.1070 O   0  0  0  0  0  0  0  0  0  0  0  0
  -41.4250  -63.0010   47.6960 O   0  0  0  0  0  0  0  0  0  0  0  0
  -41.5180  -67.2570   52.5530 N   0  0  0  0  0  0  0  0  0  0  0  0
  -40.4770  -68.1050   52.3770 C   0  0  0  0  0  0  0  0  0  0  0  0
  -39.6530  -68.2820   51.3310 N   0  0  0  0  0  0  0  0  0  0  0  0
  -40.3330  -68.8600   53.5220 C   0  0  0  0  0  0  0  0  0  0  0  0
  -38.6810  -69.2060   51.4070 C   0  0  0  0  0  3  0  0  0  0  0  0
  -38.5420  -69.9410   52.5250 N   0  0  0  0  0  0  0  0  0  0  0  0
  -39.3260  -69.8180   53.6070 C   0  0  0  0  0  0  0  0  0  0  0  0
  -41.2710  -68.4780   54.3840 N   0  0  0  0  0  0  0  0  0  0  0  0
  -41.9840  -67.5060   53.7870 C   0  0  0  0  0  0  0  0  0  0  0  0
  -43.4840  -66.5510   54.5350 Br  0  0  0  0  0  0  0  0  0  0  0  0
  -39.1890  -70.5880   54.7920 N   0  0  0  0  0  0  0  0  0  0  0  0
  -38.3300  -71.2080   54.8840 H   0  0  0  0  0  0  0  0  0  0  0  0
  -39.8600  -70.5880   55.5660 H   0  0  0  0  0  0  0  0  0  0  0  0
  -42.4970  -63.9390   51.7450 O   0  0  0  0  0  0  0  0  0  0  0  0
  -42.1810  -63.0360   51.9120 H   0  0  0  0  0  0  0  0  0  0  0  0
  1 11  2  6  0  0  0
  1  3  1  0  0  0  0
  2  1  1  0  0  0  0
  4  3  1  6  0  0  0
  4  8  1  0  0  0  0
  5  9  1  1  0  0  0
  5  6  1  0  0  0  0
  5  4  1  0  0  0  0
  6  7  1  0  0  0  0
  7  8  1  0  0  0  0
  7 12  1  1  0  0  0
  8 25  1  6  0  0  0
 10  1  1  0  0  0  0
 10  9  1  0  0  0  0
 12 20  1  0  0  0  0
 13 12  1  0  0  0  0
 13 15  1  0  0  0  0
 14 16  1  0  0  0  0
 14 13  2  0  0  0  0
 15 18  2  0  0  0  0
 15 19  1  0  0  0  0
 16 17  2  0  0  0  0
 17 18  1  0  0  0  0
 18 22  1  0  0  0  0
 20 19  2  0  0  0  0
 20 21  1  0  0  0  0
 22 23  1  0  0  0  0
 22 24  1  0  0  0  0
 25 26  1  0  0  0  0
M  END
>  <Pose>
1

>  <Score>
-7.925

$$$$
