/Users/jonathanwahrer/Desktop/Msc/3_Semester/Drug_Design_Praktikum/waehrer_HTS_screening/HTS_experiment/out/docking_results/vina_output/3e7o/1027_docked.pdbqt
 OpenBabel03192216043D

 32 35  0  0  0  0  0  0  0  0999 V2000
  -34.9170  -65.3350   48.1650 N   0  0  0  0  0  0  0  0  0  0  0  0
  -35.4730  -66.2200   47.2470 C   0  0  0  0  0  2  0  0  0  0  0  0
  -36.2620  -67.3300   47.8260 C   0  0  0  0  0  0  0  0  0  0  0  0
  -37.1890  -67.8730   47.1780 O   0  0  0  0  0  0  0  0  0  0  0  0
  -35.9070  -67.7360   49.1440 N   0  0  0  0  0  0  0  0  0  0  0  0
  -34.6770  -67.2440   49.6490 C   0  0  0  0  0  0  0  0  0  0  0  0
  -34.0810  -67.9240   50.5310 O   0  0  0  0  0  0  0  0  0  0  0  0
  -34.0860  -65.9740   49.1760 C   0  0  0  0  0  2  0  0  0  0  0  0
  -35.7780  -64.0220   48.7510 S   0  0  0  0  0  0  0  0  0  0  0  0
  -34.8890  -62.7860   48.6070 O   0  0  0  0  0  0  0  0  0  0  0  0
  -35.9940  -64.1500   50.2410 O   0  0  0  0  0  0  0  0  0  0  0  0
  -37.2770  -63.6380   47.9500 C   0  0  0  0  0  0  0  0  0  0  0  0
  -38.4630  -63.7100   48.6920 C   0  0  0  0  0  3  0  0  0  0  0  0
  -39.7140  -63.4960   48.1610 C   0  0  0  0  0  0  0  0  0  0  0  0
  -39.8500  -63.1910   46.8240 C   0  0  0  0  0  0  0  0  0  0  0  0
  -41.0200  -63.5250   48.7410 N   0  0  0  0  0  0  0  0  0  0  0  0
  -38.6980  -63.1140   46.0810 C   0  0  0  0  0  3  0  0  0  0  0  0
  -41.2780  -62.9980   46.4750 C   0  0  0  0  0  2  0  0  0  0  0  0
  -37.4230  -63.3330   46.6280 C   0  0  0  0  0  0  0  0  0  0  0  0
  -35.8820  -63.0980   45.5120 Br  0  0  0  0  0  0  0  0  0  0  0  0
  -41.9050  -62.7790   47.8530 C   0  0  0  0  0  2  0  0  0  0  0  0
  -41.4250  -64.1510   49.9330 C   0  0  0  0  0  0  0  0  0  0  0  0
  -42.6470  -64.0380   50.2980 O   0  0  0  0  0  0  0  0  0  0  0  0
  -40.5580  -64.9500   50.8310 C   0  0  0  0  0  1  0  0  0  0  0  0
  -36.7750  -68.6120   49.9010 C   0  0  0  0  0  2  0  0  0  0  0  0
  -38.0130  -67.9650   50.4190 C   0  0  0  0  0  2  0  0  0  0  0  0
  -38.6240  -68.5970   51.5870 C   0  0  0  0  0  0  0  0  0  0  0  0
  -37.9590  -69.5130   52.3530 C   0  0  0  0  0  3  0  0  0  0  0  0
  -38.5900  -70.0700   53.4300 C   0  0  0  0  0  3  0  0  0  0  0  0
  -39.8950  -69.7340   53.7730 C   0  0  0  0  0  3  0  0  0  0  0  0
  -40.5400  -68.8150   52.9910 C   0  0  0  0  0  3  0  0  0  0  0  0
  -39.9350  -68.2360   51.9020 C   0  0  0  0  0  3  0  0  0  0  0  0
  1  9  1  0  0  0  0
  1  8  1  0  0  0  0
  2  3  1  0  0  0  0
  2  1  1  0  0  0  0
  3  5  1  0  0  0  0
  4  3  2  0  0  0  0
  5  6  1  0  0  0  0
  5 25  1  0  0  0  0
  6  7  2  0  0  0  0
  8  6  1  0  0  0  0
  9 11  2  0  0  0  0
 10  9  2  0  0  0  0
 12 13  1  0  0  0  0
 12  9  1  0  0  0  0
 14 13  2  0  0  0  0
 14 16  1  0  0  0  0
 15 14  1  0  0  0  0
 16 22  1  0  0  0  0
 17 19  1  0  0  0  0
 17 15  2  0  0  0  0
 18 15  1  0  0  0  0
 18 21  1  0  0  0  0
 19 12  2  0  0  0  0
 20 19  1  0  0  0  0
 21 16  1  0  0  0  0
 22 23  2  0  0  0  0
 22 24  1  0  0  0  0
 25 26  1  0  0  0  0
 26 27  1  0  0  0  0
 27 32  2  0  0  0  0
 27 28  1  0  0  0  0
 28 29  2  0  0  0  0
 29 30  1  0  0  0  0
 31 30  2  0  0  0  0
 32 31  1  0  0  0  0
M  END
>  <Pose>
1

>  <Score>
-8.188

$$$$
