/Users/jonathanwahrer/Desktop/Msc/3_Semester/Drug_Design_Praktikum/waehrer_HTS_screening/HTS_experiment/out/docking_results/vina_output/3e7o/1028_docked.pdbqt
 OpenBabel03192216043D

 25 28  0  0  1  0  0  0  0  0999 V2000
  -42.7730  -66.8320   53.1170 N   0  0  0  0  0  0  0  0  0  0  0  0
  -41.4300  -66.4920   52.8080 C   0  0  0  0  0  2  0  0  0  0  0  0
  -40.9220  -67.4360   53.8270 C   0  0  1  0  0  3  0  0  0  0  0  0
  -42.3340  -67.8890   53.9570 C   0  0  0  0  0  2  0  0  0  0  0  0
  -40.0390  -68.4840   53.3540 N   0  0  0  0  0  0  0  0  0  0  0  0
  -39.7010  -69.5960   53.9550 N   0  0  0  0  0  0  0  0  0  0  0  0
  -38.8600  -70.3030   53.1880 N   0  0  0  0  0  0  0  0  0  0  0  0
  -38.6450  -69.6250   52.0470 C   0  0  0  0  0  0  0  0  0  0  0  0
  -39.4030  -68.4690   52.1710 C   0  0  0  0  0  3  0  0  0  0  0  0
  -37.7770  -70.0210   50.8880 C   0  0  0  0  0  2  0  0  0  0  0  0
  -36.5780  -69.2040   50.9320 N   0  0  0  0  0  0  0  0  0  0  0  0
  -35.4140  -69.4710   51.7220 C   0  0  0  0  0  2  0  0  0  0  0  0
  -34.4210  -68.3990   51.3740 C   0  0  0  0  0  2  0  0  0  0  0  0
  -34.9290  -67.6550   50.1810 C   0  0  0  0  0  2  0  0  0  0  0  0
  -36.3910  -68.0060   50.1850 C   0  0  0  0  0  0  0  0  0  0  0  0
  -37.2600  -67.3240   49.6110 O   0  0  0  0  0  0  0  0  0  0  0  0
  -43.7750  -65.6890   53.8520 S   0  0  0  0  0  0  0  0  0  0  0  0
  -43.3930  -64.3210   53.3630 O   0  0  0  0  0  0  0  0  0  0  0  0
  -43.6070  -65.6670   55.3530 O   0  0  0  0  0  0  0  0  0  0  0  0
  -45.4840  -65.9030   53.4810 C   0  0  0  0  0  0  0  0  0  0  0  0
  -46.6130  -64.7090   52.9920 S   0  0  0  0  0  0  0  0  0  0  0  0
  -48.0020  -65.6910   52.8380 C   0  0  0  0  0  0  0  0  0  0  0  0
  -47.5330  -66.9330   53.1770 C   0  0  0  0  0  3  0  0  0  0  0  0
  -49.7930  -65.2060   52.3190 Br  0  0  0  0  0  0  0  0  0  0  0  0
  -46.2430  -67.0350   53.5040 C   0  0  0  0  0  3  0  0  0  0  0  0
  1 17  1  0  0  0  0
  1  4  1  0  0  0  0
  2  1  1  0  0  0  0
  3  2  1  6  0  0  0
  3  4  1  0  0  0  0
  5  3  1  0  0  0  0
  5  6  1  0  0  0  0
  7  6  2  0  0  0  0
  8  9  2  0  0  0  0
  8  7  1  0  0  0  0
  9  5  1  0  0  0  0
 10 11  1  0  0  0  0
 10  8  1  0  0  0  0
 11 12  1  0  0  0  0
 13 12  1  0  0  0  0
 14 15  1  0  0  0  0
 14 13  1  0  0  0  0
 15 11  1  0  0  0  0
 16 15  2  0  0  0  0
 17 19  2  0  0  0  0
 18 17  2  0  0  0  0
 20 25  2  0  0  0  0
 20 17  1  0  0  0  0
 21 20  1  0  0  0  0
 22 21  1  0  0  0  0
 22 23  2  0  0  0  0
 23 25  1  0  0  0  0
 24 22  1  0  0  0  0
M  END
>  <Pose>
1

>  <Score>
-7.682

$$$$
