/Users/jonathanwahrer/Desktop/Msc/3_Semester/Drug_Design_Praktikum/waehrer_HTS_screening/HTS_experiment/out/docking_results/vina_output/3e7o/1037_docked.pdbqt
 OpenBabel03192216053D

 31 34  0  0  0  0  0  0  0  0999 V2000
  -33.9840  -66.7350   48.7090 N   0  0  0  0  0  0  0  0  0  0  0  0
  -33.4850  -67.2280   49.9470 C   0  0  0  0  0  3  0  0  0  0  0  0
  -34.4180  -67.8380   50.8850 C   0  0  0  0  0  3  0  0  0  0  0  0
  -35.7360  -68.2070   50.4050 N   0  0  0  0  0  0  0  0  0  0  0  0
  -36.2090  -67.7410   49.1380 C   0  0  0  0  0  2  0  0  0  0  0  0
  -35.0660  -67.4730   48.1660 C   0  0  0  0  0  2  0  0  0  0  0  0
  -36.5110  -69.0480   51.2050 C   0  0  0  0  0  0  0  0  0  0  0  0
  -35.8050  -69.4660   52.2770 O   0  0  0  0  0  0  0  0  0  0  0  0
  -34.1050  -65.0510   48.5660 S   0  0  0  0  0  0  0  0  0  0  0  0
  -33.1940  -64.5790   47.4660 O   0  0  0  0  0  0  0  0  0  0  0  0
  -33.6200  -64.3740   49.8360 O   0  0  0  0  0  0  0  0  0  0  0  0
  -35.7070  -64.4760   48.1510 C   0  0  0  0  0  0  0  0  0  0  0  0
  -36.6880  -64.3750   49.1360 C   0  0  0  0  0  3  0  0  0  0  0  0
  -37.9690  -63.9420   48.8690 C   0  0  0  0  0  0  0  0  0  0  0  0
  -38.3410  -63.5840   47.5930 C   0  0  0  0  0  0  0  0  0  0  0  0
  -38.9690  -63.8570   49.8990 N   0  0  0  0  0  0  0  0  0  0  0  0
  -37.3760  -63.6820   46.6140 C   0  0  0  0  0  3  0  0  0  0  0  0
  -39.6490  -63.1430   47.3100 O   0  0  0  0  0  0  0  0  0  0  0  0
  -36.0820  -64.1180   46.8750 C   0  0  0  0  0  3  0  0  0  0  0  0
  -40.4350  -62.5420   48.3550 C   0  0  0  0  0  2  0  0  0  0  0  0
  -40.2680  -63.4200   49.5430 C   0  0  0  0  0  0  0  0  0  0  0  0
  -41.2370  -63.7900   50.2440 O   0  0  0  0  0  0  0  0  0  0  0  0
  -38.6820  -64.1260   50.8510 H   0  0  0  0  0  0  0  0  0  0  0  0
  -37.8550  -69.5420   51.1290 C   0  0  0  0  0  2  0  0  0  0  0  0
  -38.9920  -68.7340   51.5630 C   0  0  0  0  0  0  0  0  0  0  0  0
  -39.5680  -68.9120   52.7970 C   0  0  0  0  0  0  0  0  0  0  0  0
  -40.6490  -68.1300   53.2020 C   0  0  0  0  0  3  0  0  0  0  0  0
  -38.9010  -70.2530   53.9940 Br  0  0  0  0  0  0  0  0  0  0  0  0
  -41.1380  -67.1740   52.3610 C   0  0  0  0  0  3  0  0  0  0  0  0
  -40.5560  -66.9860   51.1060 C   0  0  0  0  0  3  0  0  0  0  0  0
  -39.5030  -67.7510   50.7150 C   0  0  0  0  0  3  0  0  0  0  0  0
  1  2  1  0  0  0  0
  2  3  2  0  0  0  0
  4  3  1  0  0  0  0
  4  7  1  0  0  0  0
  5  4  1  0  0  0  0
  6  1  1  0  0  0  0
  6  5  1  0  0  0  0
  7  8  2  0  0  0  0
  9  1  1  0  0  0  0
  9 11  2  0  0  0  0
 10  9  2  0  0  0  0
 12  9  1  0  0  0  0
 12 13  1  0  0  0  0
 14 13  2  0  0  0  0
 14 16  1  0  0  0  0
 15 14  1  0  0  0  0
 16 23  1  0  0  0  0
 17 19  1  0  0  0  0
 17 15  2  0  0  0  0
 18 15  1  0  0  0  0
 18 20  1  0  0  0  0
 19 12  2  0  0  0  0
 20 21  1  0  0  0  0
 21 16  1  0  0  0  0
 21 22  2  0  0  0  0
 24  7  1  0  0  0  0
 24 25  1  0  0  0  0
 25 26  1  0  0  0  0
 26 27  2  0  0  0  0
 26 28  1  0  0  0  0
 29 27  1  0  0  0  0
 30 29  2  0  0  0  0
 31 30  1  0  0  0  0
 31 25  2  0  0  0  0
M  END
>  <Pose>
1

>  <Score>
-8.851

$$$$
