/Users/jonathanwahrer/Desktop/Msc/3_Semester/Drug_Design_Praktikum/waehrer_HTS_screening/HTS_experiment/out/docking_results/vina_output/3e7o/1040_docked.pdbqt
 OpenBabel03192216053D

 34 38  0  0  0  0  0  0  0  0999 V2000
  -37.7090  -66.5410   48.2660 S   0  0  0  0  0  0  0  0  0  0  0  0
  -36.7370  -67.4700   47.6470 O   0  0  0  0  0  0  0  0  0  0  0  0
  -38.7780  -66.3190   47.1910 O   0  0  0  0  0  0  0  0  0  0  0  0
  -37.0710  -64.9720   48.5690 N   0  0  0  0  0  0  0  0  0  0  0  0
  -36.6660  -64.2710   47.4000 C   0  0  0  0  0  2  0  0  0  0  0  0
  -35.2300  -64.5470   46.9730 C   0  0  0  0  0  2  0  0  0  0  0  0
  -34.3710  -64.3470   48.0920 N   0  0  0  0  0  0  0  0  0  0  0  0
  -34.7110  -65.2590   49.2310 C   0  0  0  0  0  2  0  0  0  0  0  0
  -33.3140  -63.4820   48.2960 C   0  0  0  0  0  0  0  0  0  0  0  0
  -36.1140  -64.9380   49.6220 C   0  0  0  0  0  2  0  0  0  0  0  0
  -32.7430  -63.5750   49.4800 O   0  0  0  0  0  0  0  0  0  0  0  0
  -32.7190  -62.4930   47.4450 C   0  0  0  0  0  2  0  0  0  0  0  0
  -33.2140  -62.3000   46.1310 N   0  0  0  0  0  0  0  0  0  0  0  0
  -34.1810  -61.4730   45.7360 N   0  0  0  0  0  0  0  0  0  0  0  0
  -34.3500  -61.5340   44.4100 C   0  0  0  0  0  3  0  0  0  0  0  0
  -33.4350  -62.4510   43.9540 C   0  0  0  0  0  0  0  0  0  0  0  0
  -32.7340  -62.9230   45.0230 C   0  0  0  0  0  3  0  0  0  0  0  0
  -33.1820  -62.9830   42.1220 Br  0  0  0  0  0  0  0  0  0  0  0  0
  -38.5610  -67.1790   49.6370 C   0  0  0  0  0  0  0  0  0  0  0  0
  -37.9650  -68.0770   50.5340 C   0  0  0  0  0  0  0  0  0  0  0  0
  -38.6500  -68.5820   51.6200 C   0  0  0  0  0  0  0  0  0  0  0  0
  -36.6740  -68.5960   50.5130 O   0  0  0  0  0  0  0  0  0  0  0  0
  -39.9580  -68.2200   51.8700 C   0  0  0  0  0  0  0  0  0  0  0  0
  -37.7940  -69.4250   52.2940 O   0  0  0  0  0  0  0  0  0  0  0  0
  -40.5470  -67.3460   50.9980 C   0  0  0  0  0  0  0  0  0  0  0  0
  -39.8440  -66.8440   49.9070 C   0  0  0  0  0  0  0  0  0  0  0  0
  -41.9390  -66.8590   51.1300 C   0  0  0  0  0  2  0  0  0  0  0  0
  -40.6130  -65.9230   49.0540 C   0  0  0  0  0  2  0  0  0  0  0  0
  -41.3080  -64.8680   49.8860 C   0  0  0  0  0  2  0  0  0  0  0  0
  -41.8980  -65.4350   51.0380 N   0  0  0  0  0  0  0  0  0  0  0  0
  -41.7080  -64.7440   52.2650 C   0  0  0  0  0  1  0  0  0  0  0  0
  -36.6120  -69.5580   51.5550 C   0  0  0  0  0  2  0  0  0  0  0  0
  -40.6650  -68.7320   52.9770 O   0  0  0  0  0  0  0  0  0  0  0  0
  -40.4570  -68.1270   54.2610 C   0  0  0  0  0  1  0  0  0  0  0  0
  1  4  1  0  0  0  0
  1 19  1  0  0  0  0
  2  1  2  0  0  0  0
  3  1  2  0  0  0  0
  4 10  1  0  0  0  0
  5  4  1  0  0  0  0
  6  5  1  0  0  0  0
  6  7  1  0  0  0  0
  7  9  1  0  0  0  0
  7  8  1  0  0  0  0
  8 10  1  0  0  0  0
  9 11  2  0  0  0  0
 12  9  1  0  0  0  0
 13 12  1  0  0  0  0
 14 13  1  0  0  0  0
 15 14  2  0  0  0  0
 16 15  1  0  0  0  0
 16 17  2  0  0  0  0
 17 13  1  0  0  0  0
 18 16  1  0  0  0  0
 19 26  2  0  0  0  0
 19 20  1  0  0  0  0
 20 21  2  0  0  0  0
 21 23  1  0  0  0  0
 21 24  1  0  0  0  0
 22 20  1  0  0  0  0
 22 32  1  0  0  0  0
 23 33  1  0  0  0  0
 25 27  1  0  0  0  0
 25 23  2  0  0  0  0
 26 25  1  0  0  0  0
 28 29  1  0  0  0  0
 28 26  1  0  0  0  0
 29 30  1  0  0  0  0
 30 27  1  0  0  0  0
 30 31  1  0  0  0  0
 32 24  1  0  0  0  0
 33 34  1  0  0  0  0
M  END
>  <Pose>
1

>  <Score>
-8.325

$$$$
