/Users/jonathanwahrer/Desktop/Msc/3_Semester/Drug_Design_Praktikum/waehrer_HTS_screening/HTS_experiment/out/docking_results/vina_output/3e7o/1044_docked.pdbqt
 OpenBabel03192216063D

 30 33  0  0  0  0  0  0  0  0999 V2000
  -44.9890  -66.3140   52.7440 N   0  0  0  0  0  0  0  0  0  0  0  0
  -45.7590  -65.4100   52.0100 C   0  0  0  0  0  2  0  0  0  0  0  0
  -47.1550  -65.8150   51.6950 C   0  0  0  0  0  2  0  0  0  0  0  0
  -47.7320  -66.7410   52.6170 N   0  0  0  0  0  0  0  0  0  0  0  0
  -46.9470  -67.1880   53.7480 C   0  0  0  0  0  2  0  0  0  0  0  0
  -45.5670  -67.5170   53.1850 C   0  0  0  0  0  2  0  0  0  0  0  0
  -49.0480  -67.2410   52.4680 C   0  0  0  0  0  0  0  0  0  0  0  0
  -49.7760  -66.8760   51.4900 O   0  0  0  0  0  0  0  0  0  0  0  0
  -43.7050  -65.6950   53.6550 S   0  0  0  0  0  0  0  0  0  0  0  0
  -43.3170  -64.3110   53.3080 O   0  0  0  0  0  0  0  0  0  0  0  0
  -44.1430  -65.6790   55.1150 O   0  0  0  0  0  0  0  0  0  0  0  0
  -42.3280  -66.7890   53.5890 C   0  0  0  0  0  0  0  0  0  0  0  0
  -41.4920  -66.8280   52.4920 C   0  0  0  0  0  3  0  0  0  0  0  0
  -40.4050  -67.6730   52.4100 C   0  0  0  0  0  0  0  0  0  0  0  0
  -40.1090  -68.5310   53.4500 C   0  0  0  0  0  0  0  0  0  0  0  0
  -39.5420  -67.7190   51.2810 N   0  0  0  0  0  0  0  0  0  0  0  0
  -40.9460  -68.4930   54.5540 C   0  0  0  0  0  3  0  0  0  0  0  0
  -39.0180  -69.3960   53.3970 O   0  0  0  0  0  0  0  0  0  0  0  0
  -42.0320  -67.6450   54.6300 C   0  0  0  0  0  3  0  0  0  0  0  0
  -38.2770  -69.6690   52.2220 C   0  0  0  0  0  2  0  0  0  0  0  0
  -38.4230  -68.5950   51.2070 C   0  0  0  0  0  0  0  0  0  0  0  0
  -37.5350  -68.5170   50.3210 O   0  0  0  0  0  0  0  0  0  0  0  0
  -39.7520  -67.0780   50.4870 H   0  0  0  0  0  0  0  0  0  0  0  0
  -49.6520  -68.1860   53.3980 C   0  0  0  0  0  0  0  0  0  0  0  0
  -50.3660  -67.7770   54.5090 C   0  0  0  0  0  0  0  0  0  0  0  0
  -50.9410  -68.6600   55.3930 C   0  0  0  0  0  3  0  0  0  0  0  0
  -50.5320  -65.8940   54.7820 Br  0  0  0  0  0  0  0  0  0  0  0  0
  -50.7910  -70.0160   55.1480 C   0  0  0  0  0  3  0  0  0  0  0  0
  -50.0920  -70.4810   54.0590 C   0  0  0  0  0  3  0  0  0  0  0  0
  -49.5350  -69.5560   53.2040 C   0  0  0  0  0  3  0  0  0  0  0  0
  1  6  1  0  0  0  0
  1  9  1  0  0  0  0
  2  1  1  0  0  0  0
  3  2  1  0  0  0  0
  3  4  1  0  0  0  0
  4  5  1  0  0  0  0
  6  5  1  0  0  0  0
  7  4  1  0  0  0  0
  7 24  1  0  0  0  0
  8  7  2  0  0  0  0
  9 11  2  0  0  0  0
 10  9  2  0  0  0  0
 12  9  1  0  0  0  0
 12 19  1  0  0  0  0
 13 12  2  0  0  0  0
 14 13  1  0  0  0  0
 14 15  2  0  0  0  0
 15 17  1  0  0  0  0
 16 14  1  0  0  0  0
 17 19  2  0  0  0  0
 18 15  1  0  0  0  0
 20 18  1  0  0  0  0
 21 16  1  0  0  0  0
 21 20  1  0  0  0  0
 22 21  2  0  0  0  0
 23 16  1  0  0  0  0
 24 25  1  0  0  0  0
 25 27  1  0  0  0  0
 25 26  2  0  0  0  0
 28 26  1  0  0  0  0
 29 28  2  0  0  0  0
 30 24  2  0  0  0  0
 30 29  1  0  0  0  0
M  END
>  <Pose>
1

>  <Score>
-8.704

$$$$
