/Users/jonathanwahrer/Desktop/Msc/3_Semester/Drug_Design_Praktikum/waehrer_HTS_screening/HTS_experiment/out/docking_results/vina_output/3e7o/1061_docked.pdbqt
 OpenBabel03192216063D

 30 34  0  0  1  0  0  0  0  0999 V2000
  -34.2910  -62.6930   47.6440 N   0  0  0  0  0  0  0  0  0  0  0  0
  -34.8790  -62.8470   46.3390 C   0  0  0  0  0  2  0  0  0  0  0  0
  -36.3410  -62.4640   46.3380 C   0  0  0  0  0  2  0  0  0  0  0  0
  -37.0680  -63.2310   47.3810 N   0  0  0  0  0  0  0  0  0  0  0  0
  -36.5340  -62.8250   48.6740 C   0  0  0  0  0  2  0  0  0  0  0  0
  -35.2060  -62.0960   48.5680 C   0  0  0  0  0  2  0  0  0  0  0  0
  -38.4340  -62.7720   47.2560 C   0  0  0  0  0  2  0  0  0  0  0  0
  -39.5000  -63.7820   47.2320 C   0  0  0  0  0  2  0  0  0  0  0  0
  -39.6310  -64.7010   48.3110 N   0  0  0  0  0  0  0  0  0  0  0  0
  -39.2910  -66.0800   48.4040 C   0  0  0  0  0  0  0  0  0  0  0  0
  -39.2180  -66.8660   47.4480 O   0  0  0  0  0  0  0  0  0  0  0  0
  -39.0420  -66.4160   49.8270 C   0  0  1  0  0  3  0  0  0  0  0  0
  -39.9810  -65.4030   50.5200 C   0  0  2  0  0  3  0  0  0  0  0  0
  -39.7160  -67.6930   50.1800 C   0  0  2  0  0  3  0  0  0  0  0  0
  -41.2110  -66.1610   50.8500 C   0  0  1  0  0  3  0  0  0  0  0  0
  -40.1360  -64.2850   49.6000 C   0  0  0  0  0  0  0  0  0  0  0  0
  -41.1650  -67.3120   49.8300 C   0  0  0  0  0  2  0  0  0  0  0  0
  -40.8820  -66.9940   52.0720 C   0  0  0  0  0  2  0  0  0  0  0  0
  -39.8350  -67.7190   51.6760 C   0  0  0  0  0  2  0  0  0  0  0  0
  -40.6260  -63.1700   49.9060 O   0  0  0  0  0  0  0  0  0  0  0  0
  -33.3330  -63.9570   48.1950 S   0  0  0  0  0  0  0  0  0  0  0  0
  -32.4050  -64.3710   47.0600 O   0  0  0  0  0  0  0  0  0  0  0  0
  -32.3850  -63.3920   49.2530 O   0  0  0  0  0  0  0  0  0  0  0  0
  -34.1310  -65.3080   48.8940 C   0  0  0  0  0  0  0  0  0  0  0  0
  -35.0300  -66.0490   48.1660 C   0  0  0  0  0  3  0  0  0  0  0  0
  -35.6450  -67.1360   48.7600 C   0  0  0  0  0  3  0  0  0  0  0  0
  -35.3920  -67.5120   50.0670 C   0  0  0  0  0  0  0  0  0  0  0  0
  -34.4890  -66.7650   50.7930 C   0  0  0  0  0  3  0  0  0  0  0  0
  -36.2410  -69.0090   50.8870 Br  0  0  0  0  0  0  0  0  0  0  0  0
  -33.8710  -65.6720   50.1960 C   0  0  0  0  0  3  0  0  0  0  0  0
  1 21  1  0  0  0  0
  1  6  1  0  0  0  0
  2  1  1  0  0  0  0
  3  2  1  0  0  0  0
  3  4  1  0  0  0  0
  4  5  1  0  0  0  0
  6  5  1  0  0  0  0
  7  4  1  0  0  0  0
  8  7  1  0  0  0  0
  8  9  1  0  0  0  0
  9 10  1  0  0  0  0
  9 16  1  0  0  0  0
 11 10  2  0  0  0  0
 12 10  1  6  0  0  0
 12 14  1  0  0  0  0
 12 13  1  0  0  0  0
 13 16  1  6  0  0  0
 13 15  1  0  0  0  0
 14 17  1  6  0  0  0
 14 19  1  0  0  0  0
 15 17  1  6  0  0  0
 15 18  1  0  0  0  0
 16 20  2  0  0  0  0
 19 18  1  0  0  0  0
 21 24  1  0  0  0  0
 21 23  2  0  0  0  0
 22 21  2  0  0  0  0
 24 30  1  0  0  0  0
 25 26  1  0  0  0  0
 25 24  2  0  0  0  0
 26 27  2  0  0  0  0
 27 28  1  0  0  0  0
 27 29  1  0  0  0  0
 30 28  2  0  0  0  0
M  END
>  <Pose>
1

>  <Score>
-8.020

$$$$
