/Users/jonathanwahrer/Desktop/Msc/3_Semester/Drug_Design_Praktikum/waehrer_HTS_screening/HTS_experiment/out/docking_results/vina_output/3e7o/1073_docked.pdbqt
 OpenBabel03192216073D

 28 31  0  0  0  0  0  0  0  0999 V2000
  -39.7070  -64.9620   49.0650 N   0  0  0  0  0  0  0  0  0  0  0  0
  -40.7860  -64.2760   48.4790 C   0  0  0  0  0  2  0  0  0  0  0  0
  -41.7320  -63.6790   49.4840 C   0  0  0  0  0  2  0  0  0  0  0  0
  -41.6620  -64.2650   50.7750 N   0  0  0  0  0  0  0  0  0  0  0  0
  -40.3460  -64.1970   51.3020 C   0  0  0  0  0  2  0  0  0  0  0  0
  -39.2700  -64.5530   50.3440 C   0  0  0  0  0  2  0  0  0  0  0  0
  -42.3400  -65.5050   50.8360 C   0  0  0  0  0  2  0  0  0  0  0  0
  -42.2970  -66.2070   52.0740 N   0  0  0  0  0  0  0  0  0  0  0  0
  -41.4260  -67.1750   52.2700 N   0  0  0  0  0  0  0  0  0  0  0  0
  -41.3230  -67.8880   53.4010 C   0  0  0  0  0  0  0  0  0  0  0  0
  -42.1960  -67.5710   54.4150 C   0  0  0  0  0  3  0  0  0  0  0  0
  -43.1320  -66.5680   54.2720 C   0  0  0  0  0  3  0  0  0  0  0  0
  -43.1530  -65.8920   53.0600 C   0  0  0  0  0  0  0  0  0  0  0  0
  -44.0220  -64.9610   52.9320 O   0  0  0  0  0  0  0  0  0  0  0  0
  -40.3640  -68.9370   53.5830 N   0  0  0  0  0  0  0  0  0  0  0  0
  -39.9020  -69.4560   54.7250 C   0  0  0  0  0  3  0  0  0  0  0  0
  -39.0120  -70.4220   54.4280 N   0  0  0  0  0  0  0  0  0  0  0  0
  -38.9000  -70.5240   53.0920 C   0  0  0  0  0  3  0  0  0  0  0  0
  -39.7590  -69.5800   52.5720 C   0  0  0  0  0  3  0  0  0  0  0  0
  -38.6070  -65.7220   48.0800 S   0  0  0  0  0  0  0  0  0  0  0  0
  -39.2320  -66.7510   47.1990 O   0  0  0  0  0  0  0  0  0  0  0  0
  -37.8910  -64.7270   47.2240 O   0  0  0  0  0  0  0  0  0  0  0  0
  -37.4030  -66.5560   49.0860 C   0  0  0  0  0  0  0  0  0  0  0  0
  -37.5510  -68.0170   49.9500 S   0  0  0  0  0  0  0  0  0  0  0  0
  -35.9880  -68.0950   50.6220 C   0  0  0  0  0  0  0  0  0  0  0  0
  -35.3830  -66.9580   50.1460 C   0  0  0  0  0  3  0  0  0  0  0  0
  -35.2300  -69.4310   51.7670 Br  0  0  0  0  0  0  0  0  0  0  0  0
  -36.1210  -66.1670   49.3520 C   0  0  0  0  0  3  0  0  0  0  0  0
  1  6  1  0  0  0  0
  2  1  1  0  0  0  0
  2  3  1  0  0  0  0
  3  4  1  0  0  0  0
  4  7  1  0  0  0  0
  4  5  1  0  0  0  0
  6  5  1  0  0  0  0
  7  8  1  0  0  0  0
  8  9  1  0  0  0  0
  8 13  1  0  0  0  0
  9 10  2  0  0  0  0
 10 15  1  0  0  0  0
 10 11  1  0  0  0  0
 12 11  2  0  0  0  0
 13 12  1  0  0  0  0
 14 13  2  0  0  0  0
 15 16  1  0  0  0  0
 17 16  2  0  0  0  0
 18 17  1  0  0  0  0
 19 18  2  0  0  0  0
 19 15  1  0  0  0  0
 20  1  1  0  0  0  0
 20 23  1  0  0  0  0
 21 20  2  0  0  0  0
 22 20  2  0  0  0  0
 23 28  2  0  0  0  0
 23 24  1  0  0  0  0
 24 25  1  0  0  0  0
 25 27  1  0  0  0  0
 26 25  2  0  0  0  0
 28 26  1  0  0  0  0
M  END
>  <Pose>
1

>  <Score>
-7.738

$$$$
