/Users/jonathanwahrer/Desktop/Msc/3_Semester/Drug_Design_Praktikum/waehrer_HTS_screening/HTS_experiment/out/docking_results/vina_output/3e7o/1076_docked.pdbqt
 OpenBabel03192216073D

 29 32  0  0  0  0  0  0  0  0999 V2000
  -38.9350  -65.3620   48.9180 N   0  0  0  0  0  0  0  0  0  0  0  0
  -38.7280  -64.2750   49.8230 C   0  0  0  0  0  2  0  0  0  0  0  0
  -40.0180  -64.1690   50.6540 C   0  0  0  0  0  2  0  0  0  0  0  0
  -41.1400  -64.5660   49.9210 N   0  0  0  0  0  0  0  0  0  0  0  0
  -41.0930  -64.3230   48.5050 C   0  0  0  0  0  2  0  0  0  0  0  0
  -39.8180  -64.8270   47.8660 C   0  0  0  0  0  2  0  0  0  0  0  0
  -41.9230  -65.6580   50.3220 C   0  0  0  0  0  2  0  0  0  0  0  0
  -41.3840  -66.5680   51.2800 N   0  0  0  0  0  0  0  0  0  0  0  0
  -40.2880  -67.4080   50.9560 N   0  0  0  0  0  0  0  0  0  0  0  0
  -40.0150  -68.1580   52.1360 C   0  0  0  0  0  0  0  0  0  0  0  0
  -39.7840  -67.4650   50.0400 H   0  0  0  0  0  0  0  0  0  0  0  0
  -39.0420  -69.0590   52.2110 C   0  0  0  0  0  3  0  0  0  0  0  0
  -40.9080  -67.8110   53.1830 N   0  0  0  0  0  0  0  0  0  0  0  0
  -38.5470  -69.9580   53.2780 C   0  0  0  0  0  2  0  0  0  0  0  0
  -39.6490  -70.2980   54.2520 C   0  0  0  0  0  2  0  0  0  0  0  0
  -39.8980  -69.0390   55.0640 C   0  0  0  0  0  2  0  0  0  0  0  0
  -41.0600  -68.2570   54.5340 C   0  0  0  0  0  2  0  0  0  0  0  0
  -41.7600  -66.8140   52.6270 C   0  0  0  0  0  0  0  0  0  0  0  0
  -42.6890  -66.2620   53.2680 O   0  0  0  0  0  0  0  0  0  0  0  0
  -37.5110  -65.9000   48.1360 S   0  0  0  0  0  0  0  0  0  0  0  0
  -36.9660  -64.8690   47.1830 O   0  0  0  0  0  0  0  0  0  0  0  0
  -37.8870  -67.0980   47.2960 O   0  0  0  0  0  0  0  0  0  0  0  0
  -36.2610  -66.3820   49.2170 C   0  0  0  0  0  0  0  0  0  0  0  0
  -36.1960  -67.5620   49.8970 C   0  0  0  0  0  3  0  0  0  0  0  0
  -35.1400  -67.8530   50.7480 C   0  0  0  0  0  0  0  0  0  0  0  0
  -34.1190  -66.9710   50.9400 C   0  0  0  0  0  3  0  0  0  0  0  0
  -35.0710  -69.5230   51.6950 Br  0  0  0  0  0  0  0  0  0  0  0  0
  -34.1570  -65.7620   50.2620 C   0  0  0  0  0  3  0  0  0  0  0  0
  -35.2070  -65.4850   49.4240 C   0  0  0  0  0  3  0  0  0  0  0  0
  1  2  1  0  0  0  0
  2  3  1  0  0  0  0
  4  7  1  0  0  0  0
  4  3  1  0  0  0  0
  5  4  1  0  0  0  0
  6  5  1  0  0  0  0
  6  1  1  0  0  0  0
  7  8  1  0  0  0  0
  8 18  1  0  0  0  0
  9  8  1  0  0  0  0
  9 10  1  0  0  0  0
 10 12  2  0  0  0  0
 10 13  1  0  0  0  0
 11  9  1  0  0  0  0
 12 14  1  0  0  0  0
 13 17  1  0  0  0  0
 14 15  1  0  0  0  0
 15 16  1  0  0  0  0
 17 16  1  0  0  0  0
 18 13  1  0  0  0  0
 18 19  2  0  0  0  0
 20  1  1  0  0  0  0
 20 23  1  0  0  0  0
 21 20  2  0  0  0  0
 22 20  2  0  0  0  0
 23 29  2  0  0  0  0
 23 24  1  0  0  0  0
 24 25  2  0  0  0  0
 25 26  1  0  0  0  0
 25 27  1  0  0  0  0
 28 26  2  0  0  0  0
 29 28  1  0  0  0  0
M  END
>  <Pose>
1

>  <Score>
-8.361

$$$$
