/Users/jonathanwahrer/Desktop/Msc/3_Semester/Drug_Design_Praktikum/waehrer_HTS_screening/HTS_experiment/out/docking_results/vina_output/3e7o/1084_docked.pdbqt
 OpenBabel03192216073D

 29 32  0  0  0  0  0  0  0  0999 V2000
  -36.2160  -66.7860   49.9400 N   0  0  0  0  0  0  0  0  0  0  0  0
  -35.9950  -68.1450   50.3040 C   0  0  0  0  0  2  0  0  0  0  0  0
  -37.2480  -68.9920   50.2590 C   0  0  0  0  0  2  0  0  0  0  0  0
  -38.3670  -68.1210   50.4720 N   0  0  0  0  0  0  0  0  0  0  0  0
  -38.6210  -67.0830   49.5170 C   0  0  0  0  0  2  0  0  0  0  0  0
  -37.2930  -66.5910   48.9980 C   0  0  0  0  0  2  0  0  0  0  0  0
  -39.1910  -68.2930   51.5970 C   0  0  0  0  0  0  0  0  0  0  0  0
  -40.3150  -67.5830   51.7880 N   0  0  0  0  0  0  0  0  0  0  0  0
  -41.1290  -67.6970   52.8220 C   0  0  0  0  0  0  0  0  0  0  0  0
  -40.8030  -68.6270   53.7950 C   0  0  0  0  0  3  0  0  0  0  0  0
  -39.6600  -69.3800   53.6440 C   0  0  0  0  0  0  0  0  0  0  0  0
  -38.8870  -69.1980   52.5580 N   0  0  0  0  0  0  0  0  0  0  0  0
  -39.2750  -70.3890   54.6670 C   0  0  0  0  0  1  0  0  0  0  0  0
  -42.2870  -66.8870   52.9070 N   0  0  0  0  0  0  0  0  0  0  0  0
  -43.1550  -66.8480   54.0650 C   0  0  0  0  0  2  0  0  0  0  0  0
  -43.8810  -65.5040   54.0100 C   0  0  0  0  0  2  0  0  0  0  0  0
  -42.9360  -64.5460   53.6380 O   0  0  0  0  0  0  0  0  0  0  0  0
  -42.5960  -64.6040   52.3060 C   0  0  0  0  0  2  0  0  0  0  0  0
  -42.6350  -66.0450   51.7850 C   0  0  0  0  0  2  0  0  0  0  0  0
  -34.7750  -66.1880   49.1930 S   0  0  0  0  0  0  0  0  0  0  0  0
  -33.7690  -65.8970   50.2940 O   0  0  0  0  0  0  0  0  0  0  0  0
  -34.2000  -67.2580   48.3110 O   0  0  0  0  0  0  0  0  0  0  0  0
  -35.0750  -64.7170   48.3120 C   0  0  0  0  0  0  0  0  0  0  0  0
  -35.3800  -63.5650   49.0240 C   0  0  0  0  0  3  0  0  0  0  0  0
  -35.6290  -62.3660   48.3940 C   0  0  0  0  0  3  0  0  0  0  0  0
  -35.5790  -62.2940   47.0230 C   0  0  0  0  0  0  0  0  0  0  0  0
  -35.2800  -63.4190   46.2780 C   0  0  0  0  0  3  0  0  0  0  0  0
  -35.9260  -60.6270   46.1680 Br  0  0  0  0  0  0  0  0  0  0  0  0
  -35.0320  -64.6160   46.9450 C   0  0  0  0  0  3  0  0  0  0  0  0
  1  2  1  0  0  0  0
  3  2  1  0  0  0  0
  3  4  1  0  0  0  0
  4  7  1  0  0  0  0
  5  4  1  0  0  0  0
  6  5  1  0  0  0  0
  6  1  1  0  0  0  0
  7  8  2  0  0  0  0
  7 12  1  0  0  0  0
  8  9  1  0  0  0  0
  9 14  1  0  0  0  0
  9 10  2  0  0  0  0
 11 10  1  0  0  0  0
 11 13  1  0  0  0  0
 12 11  2  0  0  0  0
 14 15  1  0  0  0  0
 16 15  1  0  0  0  0
 17 16  1  0  0  0  0
 18 17  1  0  0  0  0
 19 18  1  0  0  0  0
 19 14  1  0  0  0  0
 20  1  1  0  0  0  0
 20 21  2  0  0  0  0
 22 20  2  0  0  0  0
 23 24  1  0  0  0  0
 23 20  1  0  0  0  0
 25 24  2  0  0  0  0
 26 25  1  0  0  0  0
 27 29  1  0  0  0  0
 27 26  2  0  0  0  0
 28 26  1  0  0  0  0
 29 23  2  0  0  0  0
M  END
>  <Pose>
1

>  <Score>
-8.284

$$$$
