/Users/jonathanwahrer/Desktop/Msc/3_Semester/Drug_Design_Praktikum/waehrer_HTS_screening/HTS_experiment/out/docking_results/vina_output/3e7o/1089_docked.pdbqt
 OpenBabel03192216083D

 25 28  0  0  0  0  0  0  0  0999 V2000
  -37.1790  -67.8470   49.2220 N   0  0  0  0  0  0  0  0  0  0  0  0
  -36.1850  -68.0300   50.2080 C   0  0  0  0  0  2  0  0  0  0  0  0
  -34.9330  -67.2050   50.0460 C   0  0  0  0  0  2  0  0  0  0  0  0
  -34.9300  -66.4240   48.8490 N   0  0  0  0  0  0  0  0  0  0  0  0
  -35.6410  -66.8090   47.6430 C   0  0  0  0  0  2  0  0  0  0  0  0
  -36.6610  -67.8760   47.9110 C   0  0  0  0  0  2  0  0  0  0  0  0
  -34.2090  -65.2000   48.8030 C   0  0  0  0  0  0  0  0  0  0  0  0
  -32.8430  -65.2240   48.8020 N   0  0  0  0  0  0  0  0  0  0  0  0
  -32.1460  -64.0880   48.7510 C   0  0  0  0  0  3  0  0  0  0  0  0
  -32.7380  -62.8960   48.6980 N   0  0  0  0  0  0  0  0  0  0  0  0
  -34.0680  -62.8510   48.6970 C   0  0  0  0  0  0  0  0  0  0  0  0
  -34.9180  -61.8210   48.6560 N   0  0  0  0  0  0  0  0  0  0  0  0
  -34.8620  -63.9980   48.7500 C   0  0  0  0  0  0  0  0  0  0  0  0
  -36.1900  -62.3100   48.6830 C   0  0  0  0  0  3  0  0  0  0  0  0
  -36.1550  -63.6410   48.7400 N   0  0  0  0  0  0  0  0  0  0  0  0
  -36.9860  -64.2600   48.7730 H   0  0  0  0  0  0  0  0  0  0  0  0
  -38.4920  -66.8680   49.5540 S   0  0  0  0  0  0  0  0  0  0  0  0
  -39.4200  -66.8730   48.3450 O   0  0  0  0  0  0  0  0  0  0  0  0
  -38.1300  -65.4490   49.7980 O   0  0  0  0  0  0  0  0  0  0  0  0
  -39.4960  -67.4060   50.9050 C   0  0  0  0  0  0  0  0  0  0  0  0
  -40.6830  -66.5500   51.7770 S   0  0  0  0  0  0  0  0  0  0  0  0
  -41.1530  -67.7620   52.8760 C   0  0  0  0  0  0  0  0  0  0  0  0
  -40.3540  -68.8230   52.5240 C   0  0  0  0  0  3  0  0  0  0  0  0
  -42.4640  -67.6910   54.2630 Br  0  0  0  0  0  0  0  0  0  0  0  0
  -39.5040  -68.6320   51.5090 C   0  0  0  0  0  3  0  0  0  0  0  0
  1 17  1  0  0  0  0
  1  2  1  0  0  0  0
  3  2  1  0  0  0  0
  4  3  1  0  0  0  0
  5  6  1  0  0  0  0
  5  4  1  0  0  0  0
  6  1  1  0  0  0  0
  7  4  1  0  0  0  0
  8  7  1  0  0  0  0
  9  8  2  0  0  0  0
 10  9  1  0  0  0  0
 11 10  2  0  0  0  0
 11 13  1  0  0  0  0
 12 14  2  0  0  0  0
 12 11  1  0  0  0  0
 13  7  2  0  0  0  0
 14 15  1  0  0  0  0
 15 13  1  0  0  0  0
 15 16  1  0  0  0  0
 17 19  2  0  0  0  0
 17 20  1  0  0  0  0
 18 17  2  0  0  0  0
 20 25  2  0  0  0  0
 20 21  1  0  0  0  0
 21 22  1  0  0  0  0
 22 24  1  0  0  0  0
 23 22  2  0  0  0  0
 25 23  1  0  0  0  0
M  END
>  <Pose>
1

>  <Score>
-7.112

$$$$
