/Users/jonathanwahrer/Desktop/Msc/3_Semester/Drug_Design_Praktikum/waehrer_HTS_screening/HTS_experiment/out/docking_results/vina_output/3e7o/1100_docked.pdbqt
 OpenBabel03192216083D

 26 29  0  0  1  0  0  0  0  0999 V2000
  -39.2050  -65.3280   49.6330 N   0  0  0  0  0  0  0  0  0  0  0  0
  -39.7730  -64.6160   50.7270 C   0  0  0  0  0  2  0  0  0  0  0  0
  -41.0550  -65.2410   51.2370 C   0  0  0  0  0  2  0  0  0  0  0  0
  -40.9210  -66.6680   51.0940 N   0  0  2  0  0  0  0  0  0  0  0  0
  -40.8590  -67.1610   49.7410 C   0  0  0  0  0  2  0  0  0  0  0  0
  -40.0700  -66.2060   48.9190 C   0  0  0  0  0  2  0  0  0  0  0  0
  -40.8520  -67.5570   52.1910 C   0  0  1  0  0  3  0  0  0  0  0  0
  -39.8310  -68.3970   52.3620 C   0  0  0  0  0  3  0  0  0  0  0  0
  -39.7230  -69.3230   53.4740 C   0  0  0  0  0  0  0  0  0  0  0  0
  -38.6860  -70.1350   53.5930 C   0  0  0  0  0  1  0  0  0  0  0  0
  -40.7540  -69.3460   54.4390 N   0  0  0  0  0  0  0  0  0  0  0  0
  -41.8370  -68.4280   54.2230 C   0  0  0  0  0  0  0  0  0  0  0  0
  -40.7720  -69.9630   55.2620 H   0  0  0  0  0  0  0  0  0  0  0  0
  -41.8900  -67.5900   53.1760 N   0  0  0  0  0  0  0  0  0  0  0  0
  -42.9650  -68.1930   54.9380 N   0  0  0  0  0  0  0  0  0  0  0  0
  -43.0110  -66.8680   53.2510 N   0  0  0  0  0  0  0  0  0  0  0  0
  -43.6960  -67.2320   54.3490 C   0  0  0  0  0  3  0  0  0  0  0  0
  -38.3570  -64.2670   48.6140 S   0  0  0  0  0  0  0  0  0  0  0  0
  -38.8680  -62.8510   48.6880 O   0  0  0  0  0  0  0  0  0  0  0  0
  -38.5840  -64.7200   47.1790 O   0  0  0  0  0  0  0  0  0  0  0  0
  -36.6150  -64.3230   48.8760 C   0  0  0  0  0  0  0  0  0  0  0  0
  -35.4380  -63.4030   48.0690 S   0  0  0  0  0  0  0  0  0  0  0  0
  -34.0420  -63.9960   48.8420 C   0  0  0  0  0  0  0  0  0  0  0  0
  -34.5400  -64.9150   49.7270 C   0  0  0  0  0  3  0  0  0  0  0  0
  -32.1910  -63.5200   48.5700 Br  0  0  0  0  0  0  0  0  0  0  0  0
  -35.8840  -65.0830   49.7430 C   0  0  0  0  0  3  0  0  0  0  0  0
  1  2  1  0  0  0  0
  2  3  1  0  0  0  0
  4  5  1  6  0  0  0
  4  3  1  0  0  0  0
  4  7  1  0  0  0  0
  6  1  1  0  0  0  0
  6  5  1  0  0  0  0
  7  8  1  1  0  0  0
  7 14  1  0  0  0  0
  8  9  2  0  0  0  0
  9 10  1  0  0  0  0
  9 11  1  0  0  0  0
 11 13  1  0  0  0  0
 12 11  1  0  0  0  0
 12 15  2  0  0  0  0
 14 16  1  0  0  0  0
 14 12  1  0  0  0  0
 16 17  2  0  0  0  0
 17 15  1  0  0  0  0
 18 19  2  0  0  0  0
 18 21  1  0  0  0  0
 18  1  1  0  0  0  0
 20 18  2  0  0  0  0
 21 26  2  0  0  0  0
 22 23  1  0  0  0  0
 22 21  1  0  0  0  0
 23 24  2  0  0  0  0
 24 26  1  0  0  0  0
 25 23  1  0  0  0  0
M  END
>  <Pose>
1

>  <Score>
-7.923

$$$$
