/Users/jonathanwahrer/Desktop/Msc/3_Semester/Drug_Design_Praktikum/waehrer_HTS_screening/HTS_experiment/out/docking_results/vina_output/3e7o/1101_docked.pdbqt
 OpenBabel03192216083D

 26 29  0  0  0  0  0  0  0  0999 V2000
  -36.8750  -65.9950   48.2660 N   0  0  0  0  0  0  0  0  0  0  0  0
  -37.9570  -65.8660   47.3640 C   0  0  0  0  0  2  0  0  0  0  0  0
  -39.3150  -65.8120   47.9710 C   0  0  0  0  0  2  0  0  0  0  0  0
  -39.3320  -64.9730   49.1790 N   0  0  0  0  0  0  0  0  0  0  0  0
  -38.1190  -64.2150   49.4030 C   0  0  0  0  0  2  0  0  0  0  0  0
  -36.9880  -65.2240   49.4730 C   0  0  0  0  0  2  0  0  0  0  0  0
  -36.3190  -67.5820   48.5280 S   0  0  0  0  0  0  0  0  0  0  0  0
  -34.8090  -67.5080   48.7170 O   0  0  0  0  0  0  0  0  0  0  0  0
  -36.5450  -68.4340   47.3150 O   0  0  0  0  0  0  0  0  0  0  0  0
  -36.9610  -68.3100   49.9760 C   0  0  0  0  0  0  0  0  0  0  0  0
  -38.3250  -68.3500   50.2310 C   0  0  0  0  0  3  0  0  0  0  0  0
  -38.8300  -68.9260   51.3760 C   0  0  0  0  0  3  0  0  0  0  0  0
  -37.9470  -69.4760   52.2900 C   0  0  0  0  0  0  0  0  0  0  0  0
  -36.5810  -69.4610   52.0810 C   0  0  0  0  0  3  0  0  0  0  0  0
  -38.6670  -70.2730   53.8770 Br  0  0  0  0  0  0  0  0  0  0  0  0
  -36.1180  -68.8770   50.9260 C   0  0  0  0  0  3  0  0  0  0  0  0
  -40.4650  -64.9400   50.0240 C   0  0  0  0  0  0  0  0  0  0  0  0
  -40.4860  -65.7620   51.1450 C   0  0  0  0  0  3  0  0  0  0  0  0
  -41.6080  -65.7210   51.9700 C   0  0  0  0  0  0  0  0  0  0  0  0
  -42.6360  -64.9240   51.7090 N   0  0  0  0  0  0  0  0  0  0  0  0
  -41.8620  -66.4110   53.0950 N   0  0  0  0  0  0  0  0  0  0  0  0
  -43.5480  -65.1110   52.6760 C   0  0  0  0  0  0  0  0  0  0  0  0
  -42.6290  -64.1480   50.6610 N   0  0  0  0  0  0  0  0  0  0  0  0
  -43.0540  -66.0340   53.5240 N   0  0  0  0  0  0  0  0  0  0  0  0
  -44.8750  -64.4250   52.7960 C   0  0  0  0  0  1  0  0  0  0  0  0
  -41.5590  -64.1490   49.8240 C   0  0  0  0  0  3  0  0  0  0  0  0
  1  7  1  0  0  0  0
  1  6  1  0  0  0  0
  2  3  1  0  0  0  0
  2  1  1  0  0  0  0
  3  4  1  0  0  0  0
  4  5  1  0  0  0  0
  4 17  1  0  0  0  0
  5  6  1  0  0  0  0
  7  8  2  0  0  0  0
  7 10  1  0  0  0  0
  9  7  2  0  0  0  0
 10 11  2  0  0  0  0
 10 16  1  0  0  0  0
 11 12  1  0  0  0  0
 12 13  2  0  0  0  0
 13 15  1  0  0  0  0
 14 13  1  0  0  0  0
 16 14  2  0  0  0  0
 17 18  2  0  0  0  0
 18 19  1  0  0  0  0
 19 21  2  0  0  0  0
 20 19  1  0  0  0  0
 20 22  1  0  0  0  0
 21 24  1  0  0  0  0
 22 25  1  0  0  0  0
 22 24  2  0  0  0  0
 23 20  1  0  0  0  0
 26 17  1  0  0  0  0
 26 23  2  0  0  0  0
M  END
>  <Pose>
1

>  <Score>
-7.892

$$$$
