/Users/jonathanwahrer/Desktop/Msc/3_Semester/Drug_Design_Praktikum/waehrer_HTS_screening/HTS_experiment/out/docking_results/vina_output/3e7o/1112_docked.pdbqt
 OpenBabel03192216093D

 32 35  0  0  0  0  0  0  0  0999 V2000
  -34.3830  -67.8900   50.7210 C   0  0  0  0  0  2  0  0  0  0  0  0
  -34.9770  -66.6900   50.0820 C   0  0  0  0  0  0  0  0  0  0  0  0
  -34.8340  -65.4150   50.5400 C   0  0  0  0  0  3  0  0  0  0  0  0
  -35.4270  -64.3390   49.8860 C   0  0  0  0  0  3  0  0  0  0  0  0
  -36.1770  -64.5150   48.7590 C   0  0  0  0  0  0  0  0  0  0  0  0
  -36.3240  -65.8070   48.2900 C   0  0  0  0  0  3  0  0  0  0  0  0
  -35.7360  -66.8770   48.9400 C   0  0  0  0  0  3  0  0  0  0  0  0
  -36.9400  -63.1810   47.9070 S   0  0  0  0  0  0  0  0  0  0  0  0
  -36.2230  -61.8970   48.1480 O   0  0  0  0  0  0  0  0  0  0  0  0
  -36.8120  -63.4930   46.4290 O   0  0  0  0  0  0  0  0  0  0  0  0
  -38.6060  -63.0520   48.2600 N   0  0  0  0  0  0  0  0  0  0  0  0
  -38.9740  -63.6820   49.5000 C   0  0  0  0  0  2  0  0  0  0  0  0
  -40.4870  -63.9110   49.4410 C   0  0  0  0  0  2  0  0  0  0  0  0
  -40.7850  -64.9550   48.5920 O   0  0  0  0  0  0  0  0  0  0  0  0
  -39.7500  -65.0850   47.6490 C   0  0  0  0  0  2  0  0  0  0  0  0
  -39.3830  -63.6770   47.2060 C   0  0  0  0  0  2  0  0  0  0  0  0
  -35.1970  -69.0320   50.5700 O   0  0  0  0  0  0  0  0  0  0  0  0
  -36.1990  -69.4050   51.4320 C   0  0  0  0  0  0  0  0  0  0  0  0
  -35.9770  -69.4150   52.6580 O   0  0  0  0  0  0  0  0  0  0  0  0
  -37.5170  -69.7890   50.9310 C   0  0  0  0  0  2  0  0  0  0  0  0
  -38.6040  -69.2370   51.6850 N   0  0  0  0  0  0  0  0  0  0  0  0
  -39.2740  -68.0250   51.3180 C   0  0  0  0  0  0  0  0  0  0  0  0
  -39.0050  -67.3060   50.3130 O   0  0  0  0  0  0  0  0  0  0  0  0
  -40.3250  -67.7490   52.2900 C   0  0  0  0  0  0  0  0  0  0  0  0
  -40.3210  -68.7420   53.2340 C   0  0  0  0  0  0  0  0  0  0  0  0
  -41.2530  -66.7410   52.4220 C   0  0  0  0  0  3  0  0  0  0  0  0
  -41.2250  -68.7210   54.2790 C   0  0  0  0  0  3  0  0  0  0  0  0
  -39.2480  -69.6820   52.8670 C   0  0  0  0  0  0  0  0  0  0  0  0
  -42.1510  -67.7020   54.3970 C   0  0  0  0  0  3  0  0  0  0  0  0
  -42.1670  -66.6960   53.4540 C   0  0  0  0  0  0  0  0  0  0  0  0
  -43.4250  -65.2690   53.5750 Br  0  0  0  0  0  0  0  0  0  0  0  0
  -38.9280  -70.7220   53.4830 O   0  0  0  0  0  0  0  0  0  0  0  0
  2  3  1  0  0  0  0
  2  1  1  0  0  0  0
  4  3  2  0  0  0  0
  5  4  1  0  0  0  0
  6  5  2  0  0  0  0
  6  7  1  0  0  0  0
  7  2  2  0  0  0  0
  8  9  2  0  0  0  0
  8 11  1  0  0  0  0
  8  5  1  0  0  0  0
 10  8  2  0  0  0  0
 11 12  1  0  0  0  0
 13 12  1  0  0  0  0
 14 13  1  0  0  0  0
 15 14  1  0  0  0  0
 16 15  1  0  0  0  0
 16 11  1  0  0  0  0
 17  1  1  0  0  0  0
 17 18  1  0  0  0  0
 18 19  2  0  0  0  0
 20 18  1  0  0  0  0
 20 21  1  0  0  0  0
 21 28  1  0  0  0  0
 22 21  1  0  0  0  0
 22 24  1  0  0  0  0
 23 22  2  0  0  0  0
 24 26  2  0  0  0  0
 24 25  1  0  0  0  0
 25 27  2  0  0  0  0
 26 30  1  0  0  0  0
 27 29  1  0  0  0  0
 28 25  1  0  0  0  0
 28 32  2  0  0  0  0
 30 31  1  0  0  0  0
 30 29  2  0  0  0  0
M  END
>  <Pose>
1

>  <Score>
-8.327

$$$$
