/Users/jonathanwahrer/Desktop/Msc/3_Semester/Drug_Design_Praktikum/waehrer_HTS_screening/HTS_experiment/out/docking_results/vina_output/3e7o/1114_docked.pdbqt
 OpenBabel03192216093D

 27 30  0  0  0  0  0  0  0  0999 V2000
  -36.8060  -65.4170   48.7140 C   0  0  0  0  0  0  0  0  0  0  0  0
  -37.4380  -65.6770   47.5560 N   0  0  0  0  0  0  0  0  0  0  0  0
  -38.6680  -65.1330   47.6080 C   0  0  0  0  0  3  0  0  0  0  0  0
  -38.8580  -64.5180   48.7850 N   0  0  0  0  0  0  0  0  0  0  0  0
  -37.7140  -64.6910   49.4660 C   0  0  0  0  0  3  0  0  0  0  0  0
  -40.0500  -63.8170   49.2160 C   0  0  0  0  0  2  0  0  0  0  0  0
  -40.7610  -64.5180   50.3100 C   0  0  0  0  0  0  0  0  0  0  0  0
  -41.9590  -64.1530   50.8020 N   0  0  0  0  0  0  0  0  0  0  0  0
  -42.2870  -64.9790   51.7490 O   0  0  0  0  0  0  0  0  0  0  0  0
  -41.3640  -65.8860   51.9170 C   0  0  0  0  0  0  0  0  0  0  0  0
  -40.4070  -65.6010   51.0190 N   0  0  0  0  0  0  0  0  0  0  0  0
  -41.4100  -66.9720   52.8980 C   0  0  0  0  0  0  0  0  0  0  0  0
  -40.3920  -67.8940   53.0160 C   0  0  0  0  0  3  0  0  0  0  0  0
  -40.4500  -68.9220   53.9540 C   0  0  0  0  0  0  0  0  0  0  0  0
  -41.5300  -69.0510   54.7980 C   0  0  0  0  0  3  0  0  0  0  0  0
  -39.0260  -70.1900   54.1010 Br  0  0  0  0  0  0  0  0  0  0  0  0
  -42.5490  -68.1310   54.6830 C   0  0  0  0  0  3  0  0  0  0  0  0
  -42.4890  -67.1020   53.7400 C   0  0  0  0  0  3  0  0  0  0  0  0
  -35.1680  -65.8980   49.1730 S   0  0  0  0  0  0  0  0  0  0  0  0
  -34.3110  -65.7860   47.9410 O   0  0  0  0  0  0  0  0  0  0  0  0
  -34.6050  -64.9660   50.1960 O   0  0  0  0  0  0  0  0  0  0  0  0
  -35.1320  -67.5200   49.7140 N   0  0  0  0  0  0  0  0  0  0  0  0
  -36.4050  -68.1210   49.8560 C   0  0  0  0  0  2  0  0  0  0  0  0
  -36.5730  -69.0780   50.9900 C   0  0  0  0  0  2  0  0  0  0  0  0
  -35.3430  -69.7580   51.1470 O   0  0  0  0  0  0  0  0  0  0  0  0
  -34.4960  -68.8100   51.7300 C   0  0  0  0  0  2  0  0  0  0  0  0
  -34.1590  -67.7790   50.7120 C   0  0  0  0  0  2  0  0  0  0  0  0
  1 19  1  0  0  0  0
  1  5  2  0  0  0  0
  2  3  2  0  0  0  0
  2  1  1  0  0  0  0
  3  4  1  0  0  0  0
  4  6  1  0  0  0  0
  4  5  1  0  0  0  0
  6  7  1  0  0  0  0
  7  8  2  0  0  0  0
  7 11  1  0  0  0  0
  8  9  1  0  0  0  0
  9 10  1  0  0  0  0
 10 12  1  0  0  0  0
 11 10  2  0  0  0  0
 12 13  2  0  0  0  0
 12 18  1  0  0  0  0
 13 14  1  0  0  0  0
 14 16  1  0  0  0  0
 14 15  2  0  0  0  0
 17 15  1  0  0  0  0
 18 17  2  0  0  0  0
 19 22  1  0  0  0  0
 19 21  2  0  0  0  0
 20 19  2  0  0  0  0
 22 23  1  0  0  0  0
 22 27  1  0  0  0  0
 23 24  1  0  0  0  0
 24 25  1  0  0  0  0
 25 26  1  0  0  0  0
 27 26  1  0  0  0  0
M  END
>  <Pose>
1

>  <Score>
-8.091

$$$$
