/Users/jonathanwahrer/Desktop/Msc/3_Semester/Drug_Design_Praktikum/waehrer_HTS_screening/HTS_experiment/out/docking_results/vina_output/3e7o/1133_docked.pdbqt
 OpenBabel03192216103D

 35 38  0  0  1  0  0  0  0  0999 V2000
  -39.7910  -68.3050   51.7700 C   0  0  0  0  0  0  0  0  0  0  0  0
  -40.6040  -67.2590   51.6250 N   0  0  0  0  0  0  0  0  0  0  0  0
  -41.4270  -67.2500   52.7070 C   0  0  0  0  0  0  0  0  0  0  0  0
  -42.4830  -66.5440   53.1400 N   0  0  0  0  0  0  0  0  0  0  0  0
  -43.1870  -66.7880   54.2510 C   0  0  0  0  0  0  0  0  0  0  0  0
  -42.7940  -67.8600   55.0410 N   0  0  0  0  0  0  0  0  0  0  0  0
  -41.7750  -68.6070   54.6970 C   0  0  0  0  0  0  0  0  0  0  0  0
  -41.0670  -68.3430   53.5410 C   0  0  0  0  0  0  0  0  0  0  0  0
  -40.0670  -68.9490   52.9140 N   0  0  0  0  0  0  0  0  0  0  0  0
  -40.6610  -66.2570   50.6100 C   0  0  2  0  0  3  0  0  0  0  0  0
  -39.7650  -66.4720   49.5390 O   0  0  0  0  0  0  0  0  0  0  0  0
  -39.9490  -65.2520   48.8490 C   0  0  1  0  0  3  0  0  0  0  0  0
  -39.5290  -64.2990   49.9990 C   0  0  2  0  0  3  0  0  0  0  0  0
  -40.5000  -64.8400   51.0570 C   0  0  1  0  0  3  0  0  0  0  0  0
  -39.0630  -65.1320   47.6670 C   0  0  0  0  0  2  0  0  0  0  0  0
  -38.7690  -66.3950   47.1390 O   0  0  0  0  0  0  0  0  0  0  0  0
  -39.6260  -66.7630   46.7620 H   0  0  0  0  0  0  0  0  0  0  0  0
  -39.7440  -62.9820   49.6950 O   0  0  0  0  0  0  0  0  0  0  0  0
  -38.8830  -62.5040   49.6220 H   0  0  0  0  0  0  0  0  0  0  0  0
  -41.7070  -64.1110   50.9050 O   0  0  0  0  0  0  0  0  0  0  0  0
  -42.4050  -64.8030   50.8950 H   0  0  0  0  0  0  0  0  0  0  0  0
  -38.5620  -68.8630   50.5830 S   0  0  0  0  0  0  0  0  0  0  0  0
  -36.9650  -69.2310   51.4350 C   0  0  0  0  0  2  0  0  0  0  0  0
  -35.9060  -68.3400   50.9080 C   0  0  0  0  0  0  0  0  0  0  0  0
  -34.5740  -68.4500   51.2240 C   0  0  0  0  0  0  0  0  0  0  0  0
  -33.6600  -67.5350   50.8300 C   0  0  0  0  0  3  0  0  0  0  0  0
  -34.0670  -70.0500   52.1410 Br  0  0  0  0  0  0  0  0  0  0  0  0
  -34.0210  -66.4280   50.0700 C   0  0  0  0  0  3  0  0  0  0  0  0
  -35.3730  -66.2830   49.7320 C   0  0  0  0  0  3  0  0  0  0  0  0
  -36.2980  -67.2240   50.1440 C   0  0  0  0  0  3  0  0  0  0  0  0
  -44.3440  -66.0510   54.6730 N   0  0  0  0  0  0  0  0  0  0  0  0
  -45.0110  -65.5640   54.0780 H   0  0  0  0  0  0  0  0  0  0  0  0
  -44.5040  -65.9710   55.7370 H   0  0  0  0  0  0  0  0  0  0  0  0
  -41.3390  -69.6720   55.4450 O   0  0  0  0  0  0  0  0  0  0  0  0
  -41.1670  -70.5950   55.0650 H   0  0  0  0  0  0  0  0  0  0  0  0
  1  9  2  0  0  0  0
  2  1  1  0  0  0  0
  2  3  1  0  0  0  0
  3  4  1  0  0  0  0
  3  8  2  0  0  0  0
  4  5  2  0  0  0  0
  5 31  1  0  0  0  0
  5  6  1  0  0  0  0
  7  6  2  0  0  0  0
  7 34  1  0  0  0  0
  8  7  1  0  0  0  0
  9  8  1  0  0  0  0
 10 14  1  0  0  0  0
 10  2  1  1  0  0  0
 11 10  1  0  0  0  0
 12 15  1  6  0  0  0
 12 11  1  0  0  0  0
 12 13  1  0  0  0  0
 13 18  1  6  0  0  0
 13 14  1  0  0  0  0
 14 20  1  6  0  0  0
 16 15  1  0  0  0  0
 17 16  1  0  0  0  0
 19 18  1  0  0  0  0
 21 20  1  0  0  0  0
 22 23  1  0  0  0  0
 22  1  1  0  0  0  0
 24 25  1  0  0  0  0
 24 23  1  0  0  0  0
 25 27  1  0  0  0  0
 26 25  2  0  0  0  0
 28 26  1  0  0  0  0
 29 28  2  0  0  0  0
 29 30  1  0  0  0  0
 30 24  2  0  0  0  0
 31 33  1  0  0  0  0
 32 31  1  0  0  0  0
 35 34  1  0  0  0  0
M  END
>  <Pose>
1

>  <Score>
-8.157

$$$$
