/Users/jonathanwahrer/Desktop/Msc/3_Semester/Drug_Design_Praktikum/waehrer_HTS_screening/HTS_experiment/out/docking_results/vina_output/3e7o/1151_docked.pdbqt
 OpenBabel03192216103D

 24 27  0  0  1  0  0  0  0  0999 V2000
  -33.5630  -62.7860   46.9360 S   0  0  0  0  0  0  0  0  0  0  0  0
  -34.0680  -61.5510   46.2460 O   0  0  0  0  0  0  0  0  0  0  0  0
  -32.2880  -62.5230   47.6870 O   0  0  0  0  0  0  0  0  0  0  0  0
  -34.7880  -63.4610   48.0360 C   0  0  0  0  0  2  0  0  0  0  0  0
  -34.4760  -64.9400   48.1460 C   0  0  2  0  0  3  0  0  0  0  0  0
  -34.7920  -65.5770   46.8840 N   0  0  0  0  0  0  0  0  0  0  0  0
  -34.5380  -64.8970   45.6310 C   0  0  0  0  0  2  0  0  0  0  0  0
  -33.2440  -64.0870   45.7360 C   0  0  0  0  0  2  0  0  0  0  0  0
  -35.3300  -66.8460   47.2320 C   0  0  0  0  0  0  0  0  0  0  0  0
  -35.5090  -67.8300   46.4370 O   0  0  0  0  0  0  0  0  0  0  0  0
  -35.6520  -66.8930   48.6160 N   0  0  0  0  0  0  0  0  0  0  0  0
  -35.3080  -65.6200   49.1440 C   0  0  0  0  0  0  0  0  0  0  0  0
  -35.6460  -65.1420   50.2670 O   0  0  0  0  0  0  0  0  0  0  0  0
  -36.2200  -68.0010   49.3680 C   0  0  1  0  0  3  0  0  0  0  0  0
  -35.4650  -68.2290   50.6660 C   0  0  0  0  0  2  0  0  0  0  0  0
  -36.0940  -69.4690   51.3040 C   0  0  0  0  0  2  0  0  0  0  0  0
  -37.4130  -69.0990   51.6630 O   0  0  0  0  0  0  0  0  0  0  0  0
  -38.1660  -68.2690   50.8400 C   0  0  0  0  0  0  0  0  0  0  0  0
  -37.6240  -67.7140   49.7160 C   0  0  0  0  0  0  0  0  0  0  0  0
  -39.4790  -68.0340   51.2180 C   0  0  0  0  0  0  0  0  0  0  0  0
  -38.3630  -66.8960   48.9070 C   0  0  0  0  0  3  0  0  0  0  0  0
  -39.6700  -66.6400   49.2470 C   0  0  0  0  0  3  0  0  0  0  0  0
  -40.2010  -67.2040   50.3790 C   0  0  0  0  0  3  0  0  0  0  0  0
  -40.2270  -68.8100   52.7840 Br  0  0  0  0  0  0  0  0  0  0  0  0
  1  3  2  0  0  0  0
  1  4  1  0  0  0  0
  2  1  2  0  0  0  0
  5  4  1  6  0  0  0
  5 12  1  0  0  0  0
  6  9  1  0  0  0  0
  6  5  1  0  0  0  0
  7  8  1  0  0  0  0
  7  6  1  0  0  0  0
  8  1  1  0  0  0  0
  9 11  1  0  0  0  0
 10  9  2  0  0  0  0
 11 12  1  0  0  0  0
 12 13  2  0  0  0  0
 14 11  1  1  0  0  0
 14 19  1  0  0  0  0
 14 15  1  0  0  0  0
 15 16  1  0  0  0  0
 16 17  1  0  0  0  0
 18 20  1  0  0  0  0
 18 17  1  0  0  0  0
 19 18  2  0  0  0  0
 20 24  1  0  0  0  0
 21 22  2  0  0  0  0
 21 19  1  0  0  0  0
 22 23  1  0  0  0  0
 23 20  2  0  0  0  0
M  END
>  <Pose>
1

>  <Score>
-7.463

$$$$
