/Users/jonathanwahrer/Desktop/Msc/3_Semester/Drug_Design_Praktikum/waehrer_HTS_screening/HTS_experiment/out/docking_results/vina_output/3e7o/1157_docked.pdbqt
 OpenBabel03192216103D

 24 27  0  0  1  0  0  0  0  0999 V2000
  -39.4760  -69.9590   52.7920 C   0  0  2  0  0  3  0  0  0  0  0  0
  -40.9610  -69.7810   52.9790 C   0  0  0  0  0  2  0  0  0  0  0  0
  -41.0070  -68.7240   53.9790 N   0  0  0  0  0  0  0  0  0  0  0  0
  -40.0490  -69.1140   54.9860 C   0  0  0  0  0  2  0  0  0  0  0  0
  -38.9870  -69.8820   54.2220 C   0  0  0  0  0  2  0  0  0  0  0  0
  -38.8830  -68.8390   52.0740 N   0  0  0  0  0  0  0  0  0  0  0  0
  -37.9960  -69.0310   50.9920 C   0  0  0  0  0  0  0  0  0  0  0  0
  -37.6590  -70.1670   50.5750 O   0  0  0  0  0  0  0  0  0  0  0  0
  -39.1080  -67.8590   52.3540 H   0  0  0  0  0  0  0  0  0  0  0  0
  -37.4020  -67.8800   50.2740 C   0  0  0  0  0  0  0  0  0  0  0  0
  -38.1540  -66.7150   49.2810 S   0  0  0  0  0  0  0  0  0  0  0  0
  -36.7900  -65.7790   48.8720 C   0  0  0  0  0  3  0  0  0  0  0  0
  -35.7710  -66.4130   49.5350 C   0  0  0  0  0  0  0  0  0  0  0  0
  -36.0880  -67.4920   50.2540 C   0  0  0  0  0  3  0  0  0  0  0  0
  -33.9690  -65.7100   49.3830 Br  0  0  0  0  0  0  0  0  0  0  0  0
  -41.8490  -67.5620   53.9220 C   0  0  0  0  0  0  0  0  0  0  0  0
  -42.8790  -67.4070   54.7740 N   0  0  0  0  0  0  0  0  0  0  0  0
  -43.6510  -66.3090   54.6950 C   0  0  0  0  0  3  0  0  0  0  0  0
  -43.4260  -65.3260   53.7660 C   0  0  0  0  0  3  0  0  0  0  0  0
  -42.4000  -65.4640   52.9090 N   0  0  0  0  0  0  0  0  0  0  0  0
  -41.6340  -66.5690   52.9960 C   0  0  0  0  0  0  0  0  0  0  0  0
  -41.9460  -64.6730   51.9070 C   0  0  0  0  0  3  0  0  0  0  0  0
  -40.7100  -66.4260   52.0270 N   0  0  0  0  0  0  0  0  0  0  0  0
  -40.8850  -65.2940   51.3660 N   0  0  0  0  0  0  0  0  0  0  0  0
  1  6  1  6  0  0  0
  1  2  1  0  0  0  0
  1  5  1  0  0  0  0
  2  3  1  0  0  0  0
  3  4  1  0  0  0  0
  5  4  1  0  0  0  0
  6  9  1  0  0  0  0
  7  6  1  0  0  0  0
  8  7  2  0  0  0  0
 10  7  1  0  0  0  0
 11 10  1  0  0  0  0
 12 11  1  0  0  0  0
 12 13  2  0  0  0  0
 13 14  1  0  0  0  0
 14 10  2  0  0  0  0
 15 13  1  0  0  0  0
 16  3  1  0  0  0  0
 16 17  2  0  0  0  0
 18 17  1  0  0  0  0
 19 18  2  0  0  0  0
 20 21  1  0  0  0  0
 20 19  1  0  0  0  0
 21 16  1  0  0  0  0
 22 20  1  0  0  0  0
 23 21  2  0  0  0  0
 24 22  2  0  0  0  0
 24 23  1  0  0  0  0
M  END
>  <Pose>
1

>  <Score>
-7.301

$$$$
