/Users/jonathanwahrer/Desktop/Msc/3_Semester/Drug_Design_Praktikum/waehrer_HTS_screening/HTS_experiment/out/docking_results/vina_output/3e7o/1177_docked.pdbqt
 OpenBabel03192216113D

 33 36  0  0  1  0  0  0  0  0999 V2000
  -39.8840  -65.2120   49.6890 C   0  0  2  0  0  3  0  0  0  0  0  0
  -38.5180  -64.6270   49.4820 C   0  0  2  0  0  3  0  0  0  0  0  0
  -38.7590  -63.4830   48.6600 N   0  0  0  0  0  0  0  0  0  0  0  0
  -40.0510  -62.9860   49.1060 C   0  0  0  0  0  0  0  0  0  0  0  0
  -40.4270  -61.7960   48.9240 O   0  0  0  0  0  0  0  0  0  0  0  0
  -40.7750  -64.0620   49.7600 C   0  0  0  0  0  0  0  0  0  0  0  0
  -41.9360  -64.0110   50.2850 O   0  0  0  0  0  0  0  0  0  0  0  0
  -37.9580  -62.8430   47.6580 C   0  0  0  0  0  2  0  0  0  0  0  0
  -36.5660  -62.4750   48.0570 C   0  0  0  0  0  2  0  0  0  0  0  0
  -35.5610  -62.8880   46.9710 C   0  0  0  0  0  2  0  0  0  0  0  0
  -34.7120  -63.8970   47.5090 N   0  0  0  0  0  4  0  0  0  0  0  0
  -33.8390  -64.5490   46.5860 C   0  0  0  0  0  2  0  0  0  0  0  0
  -32.6540  -63.7060   46.1800 C   0  0  0  0  0  2  0  0  0  0  0  0
  -32.8070  -62.4540   46.8170 O   0  0  0  0  0  0  0  0  0  0  0  0
  -32.6520  -62.7290   48.1900 C   0  0  0  0  0  2  0  0  0  0  0  0
  -33.9270  -63.4170   48.6320 C   0  0  0  0  0  2  0  0  0  0  0  0
  -35.3450  -64.6520   47.9120 H   0  0  0  0  0  0  0  0  0  0  0  0
  -37.5690  -65.6180   48.9920 C   0  0  0  0  0  0  0  0  0  0  0  0
  -36.4670  -65.9290   49.8060 C   0  0  0  0  0  3  0  0  0  0  0  0
  -35.5210  -66.8610   49.4660 C   0  0  0  0  0  0  0  0  0  0  0  0
  -35.6330  -67.5380   48.2760 C   0  0  0  0  0  3  0  0  0  0  0  0
  -34.0320  -67.2640   50.5930 Br  0  0  0  0  0  0  0  0  0  0  0  0
  -36.7080  -67.2590   47.4460 C   0  0  0  0  0  3  0  0  0  0  0  0
  -37.6410  -66.3150   47.8210 C   0  0  0  0  0  3  0  0  0  0  0  0
  -40.2180  -66.4800   49.8390 C   0  0  1  0  0  3  0  0  0  0  0  0
  -40.6580  -67.2080   48.7090 O   0  0  0  0  0  1  0  0  0  0  0  0
  -40.1390  -67.1330   51.1430 C   0  0  0  0  0  0  0  0  0  0  0  0
  -41.0410  -66.7350   52.5430 S   0  0  0  0  0  0  0  0  0  0  0  0
  -40.3580  -67.8630   53.6240 C   0  0  0  0  0  0  0  0  0  0  0  0
  -39.4770  -68.4830   52.8620 N   0  0  0  0  0  0  0  0  0  0  0  0
  -40.6770  -68.0970   55.0830 C   0  0  0  0  0  1  0  0  0  0  0  0
  -39.3400  -68.1410   51.6140 C   0  0  0  0  0  0  0  0  0  0  0  0
  -38.2910  -68.8310   50.7510 C   0  0  0  0  0  1  0  0  0  0  0  0
  1  6  1  0  0  0  0
  1 25  1  1  0  0  0
  2 18  1  6  0  0  0
  2  1  1  0  0  0  0
  3  4  1  0  0  0  0
  3  2  1  0  0  0  0
  4  6  1  0  0  0  0
  5  4  2  0  0  0  0
  6  7  2  0  0  0  0
  8  9  1  0  0  0  0
  8  3  1  0  0  0  0
 10 11  1  0  0  0  0
 10  9  1  0  0  0  0
 11 17  1  0  0  0  0
 11 16  1  0  0  0  0
 12 11  1  0  0  0  0
 13 12  1  0  0  0  0
 13 14  1  0  0  0  0
 14 15  1  0  0  0  0
 15 16  1  0  0  0  0
 18 19  1  0  0  0  0
 20 19  2  0  0  0  0
 20 22  1  0  0  0  0
 21 20  1  0  0  0  0
 23 24  1  0  0  0  0
 23 21  2  0  0  0  0
 24 18  2  0  0  0  0
 25 26  1  6  0  0  0
 25 27  1  0  0  0  0
 27 32  2  0  0  0  0
 27 28  1  0  0  0  0
 28 29  1  0  0  0  0
 29 31  1  0  0  0  0
 30 29  2  0  0  0  0
 32 30  1  0  0  0  0
 33 32  1  0  0  0  0
M  END
>  <Pose>
1

>  <Score>
-7.398

$$$$
