/Users/jonathanwahrer/Desktop/Msc/3_Semester/Drug_Design_Praktikum/waehrer_HTS_screening/HTS_experiment/out/docking_results/vina_output/3e7o/1192_docked.pdbqt
 OpenBabel03192216123D

 27 30  0  0  1  0  0  0  0  0999 V2000
  -36.6580  -67.3490   47.4350 S   0  0  0  0  0  0  0  0  0  0  0  0
  -36.6720  -68.2820   48.8780 C   0  0  0  0  0  0  0  0  0  0  0  0
  -35.6430  -67.7340   49.5950 C   0  0  0  0  0  0  0  0  0  0  0  0
  -34.9690  -66.7180   49.0330 C   0  0  0  0  0  0  0  0  0  0  0  0
  -35.3640  -66.3090   47.7880 C   0  0  0  0  0  0  0  0  0  0  0  0
  -34.5970  -65.1720   47.1790 C   0  0  0  0  0  2  0  0  0  0  0  0
  -34.6180  -64.0590   48.1260 N   0  0  0  0  0  4  0  0  0  0  0  0
  -34.1540  -64.4170   49.4300 C   0  0  0  0  0  2  0  0  0  0  0  0
  -33.7950  -65.8950   49.5430 C   0  0  0  0  0  2  0  0  0  0  0  0
  -36.0230  -63.6720   48.2490 C   0  0  0  0  0  1  0  0  0  0  0  0
  -35.4180  -68.3660   50.9240 C   0  0  0  0  0  0  0  0  0  0  0  0
  -34.4960  -67.9540   51.6880 O   0  0  0  0  0  0  0  0  0  0  0  0
  -36.2560  -69.4410   51.3190 N   0  0  0  0  0  0  0  0  0  0  0  0
  -37.5600  -69.6970   50.7810 C   0  0  2  0  0  3  0  0  0  0  0  0
  -37.4800  -69.3810   49.3640 N   0  0  0  0  0  0  0  0  0  0  0  0
  -34.1340  -63.2340   47.7180 H   0  0  0  0  0  0  0  0  0  0  0  0
  -35.8750  -70.0890   52.0660 H   0  0  0  0  0  0  0  0  0  0  0  0
  -37.9970  -69.9250   48.6430 H   0  0  0  0  0  0  0  0  0  0  0  0
  -38.6150  -68.8690   51.4140 C   0  0  0  0  0  0  0  0  0  0  0  0
  -39.2150  -67.8190   50.7490 C   0  0  0  0  0  3  0  0  0  0  0  0
  -40.1960  -67.0410   51.3190 C   0  0  0  0  0  0  0  0  0  0  0  0
  -40.6140  -67.3000   52.6090 C   0  0  0  0  0  0  0  0  0  0  0  0
  -41.0130  -65.6020   50.3940 Br  0  0  0  0  0  0  0  0  0  0  0  0
  -40.0300  -68.3410   53.2910 C   0  0  0  0  0  0  0  0  0  0  0  0
  -41.6020  -66.5190   53.1900 O   0  0  0  0  0  1  0  0  0  0  0  0
  -39.0460  -69.1180   52.7110 C   0  0  0  0  0  3  0  0  0  0  0  0
  -40.6420  -68.6660   55.0830 Br  0  0  0  0  0  0  0  0  0  0  0  0
  1  5  1  0  0  0  0
  1  2  1  0  0  0  0
  2 15  1  0  0  0  0
  2  3  2  0  0  0  0
  3 11  1  0  0  0  0
  4  9  1  0  0  0  0
  4  3  1  0  0  0  0
  5  4  2  0  0  0  0
  6  5  1  0  0  0  0
  6  7  1  0  0  0  0
  7 10  1  0  0  0  0
  7  8  1  0  0  0  0
  8  9  1  0  0  0  0
 11 13  1  0  0  0  0
 11 12  2  0  0  0  0
 13 17  1  0  0  0  0
 14 13  1  0  0  0  0
 14 19  1  1  0  0  0
 15 14  1  0  0  0  0
 16  7  1  0  0  0  0
 18 15  1  0  0  0  0
 19 26  1  0  0  0  0
 20 21  1  0  0  0  0
 20 19  2  0  0  0  0
 21 22  2  0  0  0  0
 22 25  1  0  0  0  0
 22 24  1  0  0  0  0
 23 21  1  0  0  0  0
 24 27  1  0  0  0  0
 26 24  2  0  0  0  0
M  END
>  <Pose>
1

>  <Score>
-7.628

$$$$
