/Users/jonathanwahrer/Desktop/Msc/3_Semester/Drug_Design_Praktikum/waehrer_HTS_screening/HTS_experiment/out/docking_results/vina_output/3e7o/1206_docked.pdbqt
 OpenBabel03192216133D

 25 28  0  0  1  0  0  0  0  0999 V2000
  -42.7240  -66.8690   54.8120 S   0  0  0  0  0  0  0  0  0  0  0  0
  -41.4440  -68.1290   55.0480 C   0  0  2  0  0  3  0  0  0  0  0  0
  -40.4490  -67.6610   54.0210 C   0  0  0  0  0  2  0  0  0  0  0  0
  -41.0860  -67.0740   52.8810 N   0  0  0  0  0  0  0  0  0  0  0  0
  -42.3290  -66.6080   53.0860 C   0  0  2  0  0  3  0  0  0  0  0  0
  -42.8110  -66.1140   51.9400 N   0  0  0  0  0  0  0  0  0  0  0  0
  -41.8700  -66.2600   50.9800 C   0  0  0  0  0  3  0  0  0  0  0  0
  -40.7770  -66.8610   51.5560 C   0  0  0  0  0  0  0  0  0  0  0  0
  -41.9320  -69.4950   54.6300 C   0  0  0  0  0  1  0  0  0  0  0  0
  -39.5630  -67.1960   50.8490 C   0  0  0  0  0  0  0  0  0  0  0  0
  -39.1120  -66.3020   49.8620 C   0  0  0  0  0  3  0  0  0  0  0  0
  -37.9460  -66.5380   49.1800 C   0  0  0  0  0  3  0  0  0  0  0  0
  -37.1560  -67.6360   49.4090 C   0  0  0  0  0  0  0  0  0  0  0  0
  -37.5750  -68.5260   50.3700 C   0  0  0  0  0  3  0  0  0  0  0  0
  -38.7650  -68.2870   51.0680 C   0  0  0  0  0  3  0  0  0  0  0  0
  -35.9680  -67.8070   48.6610 N   0  0  0  0  0  0  0  0  0  0  0  0
  -34.8640  -67.8040   49.2180 O   0  0  0  0  0  0  0  0  0  0  0  0
  -36.0460  -67.9780   47.3130 O   0  0  0  0  0  0  0  0  0  0  0  0
  -44.0920  -65.5300   51.7400 C   0  0  0  0  0  0  0  0  0  0  0  0
  -44.2450  -64.2830   51.1780 C   0  0  0  0  0  3  0  0  0  0  0  0
  -45.4750  -63.6940   50.9730 C   0  0  0  0  0  3  0  0  0  0  0  0
  -46.6190  -64.3670   51.3420 C   0  0  0  0  0  0  0  0  0  0  0  0
  -46.5040  -65.6230   51.9100 C   0  0  0  0  0  3  0  0  0  0  0  0
  -48.3430  -63.5810   51.0730 Br  0  0  0  0  0  0  0  0  0  0  0  0
  -45.2610  -66.1900   52.1040 C   0  0  0  0  0  3  0  0  0  0  0  0
  1  2  1  0  0  0  0
  2  9  1  6  0  0  0
  3  2  1  0  0  0  0
  4  5  1  0  0  0  0
  4  3  1  0  0  0  0
  5  1  1  1  0  0  0
  6  5  1  0  0  0  0
  7  8  2  0  0  0  0
  7  6  1  0  0  0  0
  8  4  1  0  0  0  0
 10 15  1  0  0  0  0
 10  8  1  0  0  0  0
 11 10  2  0  0  0  0
 12 13  2  0  0  0  0
 12 11  1  0  0  0  0
 13 14  1  0  0  0  0
 14 15  2  0  0  0  0
 16 17  2  0  0  0  0
 16 13  1  0  0  0  0
 18 16  2  0  0  0  0
 19  6  1  0  0  0  0
 19 25  1  0  0  0  0
 20 19  2  0  0  0  0
 21 20  1  0  0  0  0
 21 22  2  0  0  0  0
 22 23  1  0  0  0  0
 23 25  2  0  0  0  0
 24 22  1  0  0  0  0
M  END
>  <Pose>
1

>  <Score>
-7.770

$$$$
