/Users/jonathanwahrer/Desktop/Msc/3_Semester/Drug_Design_Praktikum/waehrer_HTS_screening/HTS_experiment/out/docking_results/vina_output/3e7o/1209_docked.pdbqt
 OpenBabel03192216133D

 24 27  0  0  1  0  0  0  0  0999 V2000
  -37.2070  -67.6430   49.3900 S   0  0  0  0  0  0  0  0  0  0  0  0
  -35.7730  -68.4060   50.2000 C   0  0  0  0  0  2  0  0  0  0  0  0
  -36.2680  -69.0320   51.4910 C   0  0  0  0  0  2  0  0  0  0  0  0
  -37.5590  -69.7860   51.2440 C   0  0  0  0  0  2  0  0  0  0  0  0
  -38.6350  -68.8140   51.3430 N   0  0  0  0  0  0  0  0  0  0  0  0
  -38.5800  -67.7620   50.5230 C   0  0  2  0  0  3  0  0  0  0  0  0
  -39.6750  -66.9580   50.7610 N   0  0  0  0  0  0  0  0  0  0  0  0
  -40.4040  -67.5040   51.7200 C   0  0  0  0  0  0  0  0  0  0  0  0
  -39.7340  -68.6720   52.0750 C   0  0  0  0  0  3  0  0  0  0  0  0
  -41.6450  -67.0670   52.3410 C   0  0  0  0  0  0  0  0  0  0  0  0
  -41.8770  -67.3640   53.6920 C   0  0  0  0  0  3  0  0  0  0  0  0
  -43.0240  -66.9810   54.3300 C   0  0  0  0  0  3  0  0  0  0  0  0
  -44.0290  -66.2800   53.7020 C   0  0  0  0  0  0  0  0  0  0  0  0
  -43.8120  -65.9850   52.3810 C   0  0  0  0  0  3  0  0  0  0  0  0
  -42.6430  -66.3690   51.7070 C   0  0  0  0  0  3  0  0  0  0  0  0
  -45.1790  -65.9080   54.3830 O   0  0  0  0  0  0  0  0  0  0  0  0
  -46.4500  -66.3330   53.9260 C   0  0  0  0  0  1  0  0  0  0  0  0
  -39.8950  -65.7510   50.0350 C   0  0  0  0  0  0  0  0  0  0  0  0
  -40.3900  -65.7810   48.7430 C   0  0  0  0  0  3  0  0  0  0  0  0
  -40.6420  -64.6300   48.0240 C   0  0  0  0  0  3  0  0  0  0  0  0
  -40.3860  -63.4170   48.6310 C   0  0  0  0  0  0  0  0  0  0  0  0
  -39.8930  -63.3960   49.9180 C   0  0  0  0  0  3  0  0  0  0  0  0
  -40.7050  -61.7610   47.7090 Br  0  0  0  0  0  0  0  0  0  0  0  0
  -39.6340  -64.5320   50.6540 C   0  0  0  0  0  3  0  0  0  0  0  0
  1  2  1  0  0  0  0
  2  3  1  0  0  0  0
  4  5  1  0  0  0  0
  4  3  1  0  0  0  0
  5  9  1  0  0  0  0
  6  1  1  6  0  0  0
  6  7  1  0  0  0  0
  6  5  1  0  0  0  0
  7  8  1  0  0  0  0
  8  9  2  0  0  0  0
  8 10  1  0  0  0  0
 10 11  1  0  0  0  0
 11 12  2  0  0  0  0
 13 12  1  0  0  0  0
 13 16  1  0  0  0  0
 14 13  2  0  0  0  0
 15 10  2  0  0  0  0
 15 14  1  0  0  0  0
 17 16  1  0  0  0  0
 18 24  1  0  0  0  0
 18  7  1  0  0  0  0
 19 18  2  0  0  0  0
 20 21  2  0  0  0  0
 20 19  1  0  0  0  0
 21 22  1  0  0  0  0
 22 24  2  0  0  0  0
 23 21  1  0  0  0  0
M  END
>  <Pose>
1

>  <Score>
-7.223

$$$$
