/Users/jonathanwahrer/Desktop/Msc/3_Semester/Drug_Design_Praktikum/waehrer_HTS_screening/HTS_experiment/out/docking_results/vina_output/3e7o/1211_docked.pdbqt
 OpenBabel03192216133D

 26 29  0  0  1  0  0  0  0  0999 V2000
  -35.6060  -67.0810   46.6400 S   0  0  0  0  0  0  0  0  0  0  0  0
  -34.4310  -67.3020   45.2480 C   0  0  0  0  0  2  0  0  0  0  0  0
  -33.1170  -67.7030   45.9220 C   0  0  0  0  0  2  0  0  0  0  0  0
  -32.6230  -66.5030   46.7220 C   0  0  0  0  0  2  0  0  0  0  0  0
  -33.2950  -66.5330   47.9980 N   0  0  1  0  0  0  0  0  0  0  0  0
  -34.5780  -66.7750   48.0710 C   0  0  2  0  0  3  0  0  0  0  0  0
  -34.9400  -66.7550   49.4770 N   0  0  0  0  0  0  0  0  0  0  0  0
  -34.0830  -65.7020   49.9770 C   0  0  2  0  0  0  0  0  0  0  0  0
  -32.7870  -66.3490   49.3610 C   0  0  0  0  0  2  0  0  0  0  0  0
  -33.9950  -65.5950   51.3290 O   0  0  0  0  0  0  0  0  0  0  0  0
  -34.9220  -65.4600   51.6980 H   0  0  0  0  0  0  0  0  0  0  0  0
  -34.3570  -64.4560   49.2520 C   0  0  0  0  0  0  0  0  0  0  0  0
  -33.3580  -63.6200   48.7820 C   0  0  0  0  0  3  0  0  0  0  0  0
  -33.7000  -62.4270   48.1270 C   0  0  0  0  0  3  0  0  0  0  0  0
  -34.9760  -62.0520   47.9320 C   0  0  0  0  0  0  0  0  0  0  0  0
  -36.0180  -62.8820   48.3950 C   0  0  0  0  0  3  0  0  0  0  0  0
  -35.6390  -64.0480   49.0360 C   0  0  0  0  0  3  0  0  0  0  0  0
  -35.3630  -60.8540   47.2760 O   0  0  0  0  0  0  0  0  0  0  0  0
  -36.2170  -60.9000   46.1530 C   0  0  0  0  0  1  0  0  0  0  0  0
  -35.8370  -67.6200   50.1360 C   0  0  0  0  0  0  0  0  0  0  0  0
  -37.2230  -67.3590   49.9970 C   0  0  0  0  0  3  0  0  0  0  0  0
  -38.1770  -68.1200   50.6480 C   0  0  0  0  0  3  0  0  0  0  0  0
  -37.8170  -69.1610   51.4590 C   0  0  0  0  0  0  0  0  0  0  0  0
  -36.4750  -69.4400   51.6150 C   0  0  0  0  0  3  0  0  0  0  0  0
  -39.0960  -70.2270   52.3950 Br  0  0  0  0  0  0  0  0  0  0  0  0
  -35.5100  -68.6620   50.9470 C   0  0  0  0  0  3  0  0  0  0  0  0
  2  3  1  0  0  0  0
  2  1  1  0  0  0  0
  3  4  1  0  0  0  0
  5  4  1  1  0  0  0
  5  6  1  0  0  0  0
  5  9  1  0  0  0  0
  6  1  1  1  0  0  0
  6  7  1  0  0  0  0
  7  8  1  0  0  0  0
  7 20  1  0  0  0  0
  8 10  1  1  0  0  0
  9  8  1  0  0  0  0
 10 11  1  0  0  0  0
 12  8  1  0  0  0  0
 13 12  2  0  0  0  0
 14 13  1  0  0  0  0
 15 14  2  0  0  0  0
 15 16  1  0  0  0  0
 16 17  2  0  0  0  0
 17 12  1  0  0  0  0
 18 15  1  0  0  0  0
 19 18  1  0  0  0  0
 20 26  1  0  0  0  0
 21 20  2  0  0  0  0
 21 22  1  0  0  0  0
 22 23  2  0  0  0  0
 23 24  1  0  0  0  0
 23 25  1  0  0  0  0
 26 24  2  0  0  0  0
M  END
>  <Pose>
1

>  <Score>
-6.629

$$$$
