/Users/jonathanwahrer/Desktop/Msc/3_Semester/Drug_Design_Praktikum/waehrer_HTS_screening/HTS_experiment/out/docking_results/vina_output/3e7o/1217_docked.pdbqt
 OpenBabel03192216133D

 28 31  0  0  1  0  0  0  0  0999 V2000
  -35.5870  -64.4660   49.7940 S   0  0  0  0  0  0  0  0  0  0  0  0
  -35.7020  -62.8770   49.0090 C   0  0  0  0  0  2  0  0  0  0  0  0
  -37.1330  -62.6250   48.5780 C   0  0  0  0  0  2  0  0  0  0  0  0
  -37.5550  -63.6980   47.5900 C   0  0  0  0  0  2  0  0  0  0  0  0
  -37.8030  -64.9400   48.2870 N   0  0  2  0  0  0  0  0  0  0  0  0
  -38.9460  -65.7920   48.3390 C   0  0  2  0  0  0  0  0  0  0  0  0
  -38.2530  -67.1400   48.4680 C   0  0  0  0  0  2  0  0  0  0  0  0
  -37.1070  -66.8380   49.2960 N   0  0  0  0  0  0  0  0  0  0  0  0
  -36.8400  -65.5890   49.1360 C   0  0  2  0  0  3  0  0  0  0  0  0
  -36.4120  -67.7210   50.1640 C   0  0  0  0  0  0  0  0  0  0  0  0
  -37.1820  -68.5480   50.9720 C   0  0  0  0  0  0  0  0  0  0  0  0
  -36.5700  -69.4270   51.8720 C   0  0  0  0  0  3  0  0  0  0  0  0
  -35.1890  -69.4690   51.9560 C   0  0  0  0  0  3  0  0  0  0  0  0
  -34.3980  -68.6660   51.1710 C   0  0  0  0  0  0  0  0  0  0  0  0
  -35.0750  -67.8040   50.2860 C   0  0  0  0  0  3  0  0  0  0  0  0
  -38.5560  -68.5000   50.8860 O   0  0  0  0  0  0  0  0  0  0  0  0
  -39.4480  -69.0480   51.8280 C   0  0  0  0  0  1  0  0  0  0  0  0
  -33.0140  -68.6620   51.2080 O   0  0  0  0  0  0  0  0  0  0  0  0
  -32.1650  -68.2250   50.1850 C   0  0  0  0  0  1  0  0  0  0  0  0
  -39.6630  -65.7120   47.1490 O   0  0  0  0  0  0  0  0  0  0  0  0
  -40.3670  -65.0280   47.2220 H   0  0  0  0  0  0  0  0  0  0  0  0
  -39.8160  -65.6250   49.5190 C   0  0  0  0  0  0  0  0  0  0  0  0
  -39.6680  -64.7010   50.5050 C   0  0  0  0  0  3  0  0  0  0  0  0
  -40.5320  -64.6560   51.6010 C   0  0  0  0  0  3  0  0  0  0  0  0
  -41.5720  -65.5530   51.7270 C   0  0  0  0  0  0  0  0  0  0  0  0
  -41.7300  -66.4830   50.7460 C   0  0  0  0  0  3  0  0  0  0  0  0
  -42.7480  -65.4840   53.2410 Br  0  0  0  0  0  0  0  0  0  0  0  0
  -40.8830  -66.5270   49.6730 C   0  0  0  0  0  3  0  0  0  0  0  0
  2  1  1  0  0  0  0
  3  2  1  0  0  0  0
  4  3  1  0  0  0  0
  5  4  1  1  0  0  0
  5  6  1  0  0  0  0
  5  9  1  0  0  0  0
  6 20  1  6  0  0  0
  6  7  1  0  0  0  0
  6 22  1  0  0  0  0
  7  8  1  0  0  0  0
  8 10  1  0  0  0  0
  9  8  1  0  0  0  0
  9  1  1  1  0  0  0
 10 15  2  0  0  0  0
 10 11  1  0  0  0  0
 11 12  2  0  0  0  0
 12 13  1  0  0  0  0
 14 18  1  0  0  0  0
 14 13  2  0  0  0  0
 15 14  1  0  0  0  0
 16 11  1  0  0  0  0
 16 17  1  0  0  0  0
 19 18  1  0  0  0  0
 20 21  1  0  0  0  0
 22 28  2  0  0  0  0
 22 23  1  0  0  0  0
 23 24  2  0  0  0  0
 24 25  1  0  0  0  0
 25 27  1  0  0  0  0
 26 25  2  0  0  0  0
 28 26  1  0  0  0  0
M  END
>  <Pose>
1

>  <Score>
-6.927

$$$$
