/Users/jonathanwahrer/Desktop/Msc/3_Semester/Drug_Design_Praktikum/waehrer_HTS_screening/HTS_experiment/out/docking_results/vina_output/3e7o/1219_docked.pdbqt
 OpenBabel03192216133D

 27 30  0  0  1  0  0  0  0  0999 V2000
  -39.7770  -63.7830   49.8280 S   0  0  0  0  0  0  0  0  0  0  0  0
  -40.2860  -62.9990   48.2420 C   0  0  0  0  0  2  0  0  0  0  0  0
  -39.7630  -63.8350   47.0870 C   0  0  0  0  0  2  0  0  0  0  0  0
  -38.3250  -64.2270   47.3080 C   0  0  0  0  0  2  0  0  0  0  0  0
  -38.2570  -65.3570   48.1790 N   0  0  2  0  0  0  0  0  0  0  0  0
  -37.5090  -66.5980   48.2460 C   0  0  1  0  0  0  0  0  0  0  0  0
  -38.4550  -67.5290   48.9840 C   0  0  0  0  0  2  0  0  0  0  0  0
  -39.2300  -66.5710   49.7970 N   0  0  0  0  0  0  0  0  0  0  0  0
  -39.1120  -65.3900   49.3340 C   0  0  1  0  0  3  0  0  0  0  0  0
  -37.1700  -67.0780   46.9960 O   0  0  0  0  0  0  0  0  0  0  0  0
  -37.8990  -67.1780   46.3670 H   0  0  0  0  0  0  0  0  0  0  0  0
  -36.2830  -66.4550   49.0670 C   0  0  0  0  0  0  0  0  0  0  0  0
  -35.8040  -67.5370   49.7790 C   0  0  0  0  0  3  0  0  0  0  0  0
  -34.6470  -67.3580   50.5370 C   0  0  0  0  0  0  0  0  0  0  0  0
  -34.0080  -66.1560   50.5760 C   0  0  0  0  0  3  0  0  0  0  0  0
  -34.4750  -65.0640   49.8670 C   0  0  0  0  0  3  0  0  0  0  0  0
  -35.6370  -65.2520   49.1080 C   0  0  0  0  0  3  0  0  0  0  0  0
  -34.1480  -68.4630   51.2720 N   0  0  0  0  0  0  0  0  0  0  0  0
  -32.9570  -68.8220   51.1910 O   0  0  0  0  0  0  0  0  0  0  0  0
  -34.9560  -69.1850   52.1030 O   0  0  0  0  0  0  0  0  0  0  0  0
  -40.0130  -66.9350   50.9300 C   0  0  0  0  0  0  0  0  0  0  0  0
  -41.1970  -66.3730   51.3070 C   0  0  0  0  0  3  0  0  0  0  0  0
  -41.9190  -66.7920   52.4160 C   0  0  0  0  0  3  0  0  0  0  0  0
  -41.4370  -67.8250   53.1940 C   0  0  0  0  0  0  0  0  0  0  0  0
  -40.2320  -68.4220   52.8400 C   0  0  0  0  0  3  0  0  0  0  0  0
  -42.3550  -68.4690   54.7440 Br  0  0  0  0  0  0  0  0  0  0  0  0
  -39.5270  -67.9860   51.7250 C   0  0  0  0  0  3  0  0  0  0  0  0
  2  1  1  0  0  0  0
  3  4  1  0  0  0  0
  3  2  1  0  0  0  0
  5  4  1  6  0  0  0
  5  6  1  0  0  0  0
  5  9  1  0  0  0  0
  6 10  1  6  0  0  0
  6  7  1  0  0  0  0
  6 12  1  0  0  0  0
  7  8  1  0  0  0  0
  8 21  1  0  0  0  0
  9  8  1  0  0  0  0
  9  1  1  1  0  0  0
 11 10  1  0  0  0  0
 12 17  2  0  0  0  0
 12 13  1  0  0  0  0
 13 14  2  0  0  0  0
 14 15  1  0  0  0  0
 14 18  1  0  0  0  0
 16 15  2  0  0  0  0
 17 16  1  0  0  0  0
 18 20  2  0  0  0  0
 19 18  2  0  0  0  0
 21 22  2  0  0  0  0
 21 27  1  0  0  0  0
 22 23  1  0  0  0  0
 23 24  2  0  0  0  0
 24 26  1  0  0  0  0
 25 24  1  0  0  0  0
 27 25  2  0  0  0  0
M  END
>  <Pose>
1

>  <Score>
-7.712

$$$$
