/Users/jonathanwahrer/Desktop/Msc/3_Semester/Drug_Design_Praktikum/waehrer_HTS_screening/HTS_experiment/out/docking_results/vina_output/3e7o/1220_docked.pdbqt
 OpenBabel03192216143D

 27 30  0  0  1  0  0  0  0  0999 V2000
  -38.5450  -69.3340   51.1080 S   0  0  0  0  0  0  0  0  0  0  0  0
  -36.8070  -69.5040   51.6820 C   0  0  0  0  0  2  0  0  0  0  0  0
  -35.8570  -68.6690   50.9330 C   0  0  0  0  0  2  0  0  0  0  0  0
  -36.2940  -68.0020   49.6930 C   0  0  0  0  0  2  0  0  0  0  0  0
  -37.4970  -67.2760   49.7130 N   0  0  1  0  0  0  0  0  0  0  0  0
  -37.9910  -66.1420   48.9920 C   0  0  2  0  0  0  0  0  0  0  0  0
  -38.8430  -65.4830   50.0550 C   0  0  0  0  0  2  0  0  0  0  0  0
  -39.3580  -66.6300   50.7710 N   0  0  0  0  0  0  0  0  0  0  0  0
  -38.6070  -67.6100   50.5850 C   0  0  1  0  0  3  0  0  0  0  0  0
  -38.8700  -66.5780   47.9980 O   0  0  0  0  0  0  0  0  0  0  0  0
  -38.3590  -66.9900   47.2820 H   0  0  0  0  0  0  0  0  0  0  0  0
  -36.9750  -65.2190   48.4520 C   0  0  0  0  0  0  0  0  0  0  0  0
  -36.4990  -64.2270   49.3050 C   0  0  0  0  0  3  0  0  0  0  0  0
  -35.5480  -63.3200   48.8940 C   0  0  0  0  0  3  0  0  0  0  0  0
  -35.0190  -63.3490   47.6160 C   0  0  0  0  0  0  0  0  0  0  0  0
  -35.4860  -64.3330   46.7660 C   0  0  0  0  0  3  0  0  0  0  0  0
  -36.4530  -65.2530   47.1860 C   0  0  0  0  0  3  0  0  0  0  0  0
  -34.0400  -62.4070   47.2200 N   0  0  0  0  0  0  0  0  0  0  0  0
  -34.2090  -61.5890   46.3080 O   0  0  0  0  0  0  0  0  0  0  0  0
  -32.8360  -62.3830   47.8760 O   0  0  0  0  0  0  0  0  0  0  0  0
  -40.5570  -66.6370   51.5560 C   0  0  0  0  0  0  0  0  0  0  0  0
  -41.6970  -66.0480   51.0260 C   0  0  0  0  0  3  0  0  0  0  0  0
  -42.8930  -65.9980   51.7390 C   0  0  0  0  0  3  0  0  0  0  0  0
  -42.9770  -66.5360   53.0050 C   0  0  0  0  0  0  0  0  0  0  0  0
  -41.8570  -67.1220   53.5420 C   0  0  0  0  0  3  0  0  0  0  0  0
  -44.6270  -66.4480   53.9910 Br  0  0  0  0  0  0  0  0  0  0  0  0
  -40.6680  -67.1560   52.8020 C   0  0  0  0  0  3  0  0  0  0  0  0
  1  2  1  0  0  0  0
  3  2  1  0  0  0  0
  4  3  1  0  0  0  0
  5  4  1  6  0  0  0
  5  9  1  0  0  0  0
  6 10  1  6  0  0  0
  6  5  1  0  0  0  0
  6  7  1  0  0  0  0
  7  8  1  0  0  0  0
  8 21  1  0  0  0  0
  9  8  1  0  0  0  0
  9  1  1  6  0  0  0
 11 10  1  0  0  0  0
 12  6  1  0  0  0  0
 12 13  1  0  0  0  0
 14 13  2  0  0  0  0
 15 14  1  0  0  0  0
 16 17  1  0  0  0  0
 16 15  2  0  0  0  0
 17 12  2  0  0  0  0
 18 15  1  0  0  0  0
 18 20  2  0  0  0  0
 19 18  2  0  0  0  0
 21 27  1  0  0  0  0
 22 21  2  0  0  0  0
 22 23  1  0  0  0  0
 23 24  2  0  0  0  0
 24 25  1  0  0  0  0
 24 26  1  0  0  0  0
 27 25  2  0  0  0  0
M  END
>  <Pose>
1

>  <Score>
-7.234

$$$$
