/Users/jonathanwahrer/Desktop/Msc/3_Semester/Drug_Design_Praktikum/waehrer_HTS_screening/HTS_experiment/out/docking_results/vina_output/3e7o/1224_docked.pdbqt
 OpenBabel03192216143D

 26 29  0  0  1  0  0  0  0  0999 V2000
  -34.1890  -67.4270   46.7660 S   0  0  0  0  0  0  0  0  0  0  0  0
  -32.5180  -67.5120   46.0020 C   0  0  0  0  0  2  0  0  0  0  0  0
  -32.0620  -66.0660   45.8770 C   0  0  0  0  0  2  0  0  0  0  0  0
  -31.7720  -65.4530   47.2110 C   0  0  0  0  0  2  0  0  0  0  0  0
  -32.9050  -65.3350   48.0770 N   0  0  2  0  0  0  0  0  0  0  0  0
  -33.4140  -64.3220   49.0070 C   0  0  1  0  0  0  0  0  0  0  0  0
  -33.8380  -65.2950   50.1240 C   0  0  0  0  0  2  0  0  0  0  0  0
  -34.4590  -66.3590   49.3570 N   0  0  0  0  0  0  0  0  0  0  0  0
  -33.9130  -66.3740   48.2100 C   0  0  1  0  0  3  0  0  0  0  0  0
  -32.3860  -63.5080   49.4190 O   0  0  0  0  0  0  0  0  0  0  0  0
  -31.7800  -63.9460   50.0630 H   0  0  0  0  0  0  0  0  0  0  0  0
  -34.5960  -63.6110   48.4880 C   0  0  0  0  0  0  0  0  0  0  0  0
  -35.7790  -63.4210   49.1670 C   0  0  0  0  0  3  0  0  0  0  0  0
  -36.8300  -62.7270   48.5910 C   0  0  0  0  0  3  0  0  0  0  0  0
  -36.7090  -62.2150   47.3310 C   0  0  0  0  0  0  0  0  0  0  0  0
  -35.5320  -62.3980   46.6380 C   0  0  0  0  0  3  0  0  0  0  0  0
  -38.1300  -61.2450   46.4750 Br  0  0  0  0  0  0  0  0  0  0  0  0
  -34.4990  -63.0870   47.2200 C   0  0  0  0  0  3  0  0  0  0  0  0
  -35.5060  -67.1980   49.8950 C   0  0  0  0  0  0  0  0  0  0  0  0
  -35.1790  -68.2640   50.7290 C   0  0  0  0  0  3  0  0  0  0  0  0
  -36.1540  -69.0830   51.2550 C   0  0  0  0  0  3  0  0  0  0  0  0
  -37.4950  -68.9020   50.9920 C   0  0  0  0  0  0  0  0  0  0  0  0
  -37.8270  -67.8520   50.1690 C   0  0  0  0  0  3  0  0  0  0  0  0
  -36.8300  -67.0200   49.6350 C   0  0  0  0  0  3  0  0  0  0  0  0
  -38.4520  -69.7480   51.5430 O   0  0  0  0  0  0  0  0  0  0  0  0
  -38.8880  -69.7260   52.8720 C   0  0  0  0  0  1  0  0  0  0  0  0
  2  1  1  0  0  0  0
  3  2  1  0  0  0  0
  3  4  1  0  0  0  0
  5  4  1  1  0  0  0
  5  9  1  0  0  0  0
  5  6  1  0  0  0  0
  6 10  1  1  0  0  0
  6  7  1  0  0  0  0
  8 19  1  0  0  0  0
  8  7  1  0  0  0  0
  9  1  1  6  0  0  0
  9  8  1  0  0  0  0
 10 11  1  0  0  0  0
 12  6  1  0  0  0  0
 12 13  1  0  0  0  0
 14 13  2  0  0  0  0
 15 14  1  0  0  0  0
 16 18  1  0  0  0  0
 16 15  2  0  0  0  0
 17 15  1  0  0  0  0
 18 12  2  0  0  0  0
 19 20  1  0  0  0  0
 20 21  2  0  0  0  0
 22 21  1  0  0  0  0
 22 25  1  0  0  0  0
 23 22  2  0  0  0  0
 24 19  2  0  0  0  0
 24 23  1  0  0  0  0
 25 26  1  0  0  0  0
M  END
>  <Pose>
1

>  <Score>
-6.693

$$$$
