/Users/jonathanwahrer/Desktop/Msc/3_Semester/Drug_Design_Praktikum/waehrer_HTS_screening/HTS_experiment/out/docking_results/vina_output/3e7o/1265_docked.pdbqt
 OpenBabel03192216163D

 24 27  0  0  1  0  0  0  0  0999 V2000
  -38.2120  -67.0000   49.4540 S   0  0  0  0  0  0  0  0  0  0  0  0
  -37.1920  -68.0970   50.4290 C   0  0  1  0  0  3  0  0  0  0  0  0
  -37.2480  -69.1400   51.1920 N   0  0  0  0  0  0  0  0  0  0  0  0
  -35.9680  -69.5080   51.6690 C   0  0  0  0  0  3  0  0  0  0  0  0
  -35.0380  -68.5040   51.0710 C   0  0  0  0  0  3  0  0  0  0  0  0
  -35.8870  -67.6000   50.2580 N   0  0  0  0  0  0  0  0  0  0  0  0
  -35.7530  -66.4740   49.4370 C   0  0  0  0  0  0  0  0  0  0  0  0
  -36.8490  -65.9840   48.9030 C   0  0  0  0  0  3  0  0  0  0  0  0
  -38.5260  -69.8180   51.4730 C   0  0  0  0  0  2  0  0  0  0  0  0
  -38.8150  -69.6140   52.9060 C   0  0  0  0  0  0  0  0  0  0  0  0
  -38.1210  -70.1540   53.7920 O   0  0  0  0  0  0  0  0  0  0  0  0
  -39.9280  -68.7690   53.3140 C   0  0  0  0  0  0  0  0  0  0  0  0
  -40.4020  -68.7890   54.6270 C   0  0  0  0  0  3  0  0  0  0  0  0
  -41.4620  -68.0030   55.0390 C   0  0  0  0  0  3  0  0  0  0  0  0
  -42.0490  -67.1880   54.1070 C   0  0  0  0  0  0  0  0  0  0  0  0
  -41.6160  -67.1320   52.7950 C   0  0  0  0  0  3  0  0  0  0  0  0
  -43.5180  -66.1020   54.6890 Br  0  0  0  0  0  0  0  0  0  0  0  0
  -40.5430  -67.9350   52.4040 C   0  0  0  0  0  3  0  0  0  0  0  0
  -34.4490  -65.8060   49.1190 C   0  0  0  0  0  0  0  0  0  0  0  0
  -33.4040  -66.5020   48.5530 C   0  0  0  0  0  3  0  0  0  0  0  0
  -32.1840  -65.9390   48.2450 C   0  0  0  0  0  3  0  0  0  0  0  0
  -31.9570  -64.6060   48.5020 C   0  0  0  0  0  3  0  0  0  0  0  0
  -32.9780  -63.8940   49.0640 C   0  0  0  0  0  3  0  0  0  0  0  0
  -34.2200  -64.4790   49.3750 C   0  0  0  0  0  3  0  0  0  0  0  0
  2  1  1  6  0  0  0
  2  3  1  0  0  0  0
  3  9  1  0  0  0  0
  3  4  1  0  0  0  0
  5  4  2  0  0  0  0
  6  2  1  0  0  0  0
  6  5  1  0  0  0  0
  7  6  1  0  0  0  0
  8  7  2  0  0  0  0
  8  1  1  0  0  0  0
  9 10  1  0  0  0  0
 10 12  1  0  0  0  0
 10 11  2  0  0  0  0
 12 13  1  0  0  0  0
 13 14  2  0  0  0  0
 15 17  1  0  0  0  0
 15 14  1  0  0  0  0
 16 15  2  0  0  0  0
 18 16  1  0  0  0  0
 18 12  2  0  0  0  0
 19 24  1  0  0  0  0
 19  7  1  0  0  0  0
 20 19  2  0  0  0  0
 21 22  2  0  0  0  0
 21 20  1  0  0  0  0
 22 23  1  0  0  0  0
 23 24  2  0  0  0  0
M  END
>  <Pose>
1

>  <Score>
-8.159

$$$$
