/Users/jonathanwahrer/Desktop/Msc/3_Semester/Drug_Design_Praktikum/waehrer_HTS_screening/HTS_experiment/out/docking_results/vina_output/3e7o/1266_docked.pdbqt
 OpenBabel03192216163D

 28 31  0  0  1  0  0  0  0  0999 V2000
  -36.8020  -64.7560   47.5010 C   0  0  2  0  0  3  0  0  0  0  0  0
  -36.7070  -63.3140   47.6930 N   0  0  0  0  0  0  0  0  0  0  0  0
  -37.8340  -62.6040   48.0800 C   0  0  0  0  0  2  0  0  0  0  0  0
  -38.9330  -63.3130   48.8430 C   0  0  0  0  0  2  0  0  0  0  0  0
  -39.0070  -64.6830   48.5790 N   0  0  0  0  0  0  0  0  0  0  0  0
  -38.1830  -65.2230   47.5400 C   0  0  0  0  0  2  0  0  0  0  0  0
  -39.8300  -65.6250   49.2490 C   0  0  0  0  0  0  0  0  0  0  0  0
  -39.7910  -66.8050   48.6750 O   0  0  0  0  0  0  0  0  0  0  0  0
  -35.8570  -63.0770   48.2430 H   0  0  0  0  0  0  0  0  0  0  0  0
  -40.6620  -65.5490   50.3950 C   0  0  0  0  0  0  0  0  0  0  0  0
  -41.6180  -64.5050   50.4330 C   0  0  0  0  0  3  0  0  0  0  0  0
  -42.5280  -64.4380   51.4050 N   0  0  0  0  0  0  0  0  0  0  0  0
  -42.5820  -65.3440   52.3830 C   0  0  0  0  0  0  0  0  0  0  0  0
  -41.6840  -66.3760   52.3990 C   0  0  0  0  0  0  0  0  0  0  0  0
  -43.5420  -65.2540   53.3970 O   0  0  0  0  0  0  0  0  0  0  0  0
  -40.7170  -66.4820   51.4020 C   0  0  0  0  0  3  0  0  0  0  0  0
  -41.7540  -67.3730   53.4230 N   0  0  0  0  0  0  0  0  0  0  0  0
  -42.7760  -67.2600   54.4150 C   0  0  0  0  0  0  0  0  0  0  0  0
  -41.0950  -68.1650   53.4570 H   0  0  0  0  0  0  0  0  0  0  0  0
  -43.2260  -68.2190   55.0750 O   0  0  0  0  0  0  0  0  0  0  0  0
  -43.3320  -65.8950   54.6660 C   0  0  0  0  0  2  0  0  0  0  0  0
  -35.9240  -65.3360   48.5780 C   0  0  0  0  0  0  0  0  0  0  0  0
  -35.3600  -66.6000   48.3470 C   0  0  0  0  0  0  0  0  0  0  0  0
  -35.8670  -67.4560   46.8760 Cl  0  0  0  0  0  0  0  0  0  0  0  0
  -34.4510  -67.1880   49.2000 C   0  0  0  0  0  3  0  0  0  0  0  0
  -34.0670  -66.5070   50.3510 C   0  0  0  0  0  3  0  0  0  0  0  0
  -34.6240  -65.2610   50.5770 C   0  0  0  0  0  3  0  0  0  0  0  0
  -35.5350  -64.6820   49.7110 C   0  0  0  0  0  3  0  0  0  0  0  0
  1  6  1  0  0  0  0
  1  2  1  0  0  0  0
  1 22  1  1  0  0  0
  2  3  1  0  0  0  0
  2  9  1  0  0  0  0
  3  4  1  0  0  0  0
  5  4  1  0  0  0  0
  5  7  1  0  0  0  0
  6  5  1  0  0  0  0
  7 10  1  0  0  0  0
  8  7  2  0  0  0  0
 10 11  2  0  0  0  0
 10 16  1  0  0  0  0
 11 12  1  0  0  0  0
 12 13  2  0  0  0  0
 13 14  1  0  0  0  0
 13 15  1  0  0  0  0
 14 17  1  0  0  0  0
 15 21  1  0  0  0  0
 16 14  2  0  0  0  0
 17 19  1  0  0  0  0
 17 18  1  0  0  0  0
 18 21  1  0  0  0  0
 18 20  2  0  0  0  0
 22 28  1  0  0  0  0
 23 22  2  0  0  0  0
 23 25  1  0  0  0  0
 24 23  1  0  0  0  0
 25 26  2  0  0  0  0
 26 27  1  0  0  0  0
 28 27  2  0  0  0  0
M  END
>  <Pose>
1

>  <Score>
-7.901

$$$$
