/Users/jonathanwahrer/Desktop/Msc/3_Semester/Drug_Design_Praktikum/waehrer_HTS_screening/HTS_experiment/out/docking_results/vina_output/3e7o/1280_docked.pdbqt
 OpenBabel03192216173D

 35 38  0  0  1  0  0  0  0  0999 V2000
  -42.1860  -66.6940   51.4900 C   0  0  1  0  0  3  0  0  0  0  0  0
  -43.2270  -65.7660   51.8820 N   0  0  0  0  0  0  0  0  0  0  0  0
  -42.5810  -64.6050   52.3760 C   0  0  0  0  0  0  0  0  0  0  0  0
  -43.0610  -63.8110   53.1920 O   0  0  0  0  0  0  0  0  0  0  0  0
  -41.2600  -64.5550   51.7280 C   0  0  0  0  0  0  0  0  0  0  0  0
  -40.3660  -63.6870   51.8750 O   0  0  0  0  0  0  0  0  0  0  0  0
  -41.2120  -65.7330   50.8700 C   0  0  0  0  0  0  0  0  0  0  0  0
  -40.4800  -65.8570   49.7730 C   0  0  0  0  0  0  0  0  0  0  0  0
  -40.6340  -67.0780   49.0740 O   0  0  0  0  0  1  0  0  0  0  0  0
  -41.6540  -67.3950   52.6670 C   0  0  0  0  0  0  0  0  0  0  0  0
  -40.5830  -68.2670   52.5340 C   0  0  0  0  0  3  0  0  0  0  0  0
  -40.0400  -68.9310   53.6410 C   0  0  0  0  0  0  0  0  0  0  0  0
  -38.5560  -70.1320   53.4200 Br  0  0  0  0  0  0  0  0  0  0  0  0
  -40.5650  -68.7300   54.8910 C   0  0  0  0  0  3  0  0  0  0  0  0
  -41.6260  -67.8680   55.0380 C   0  0  0  0  0  3  0  0  0  0  0  0
  -42.1510  -67.2180   53.9290 C   0  0  0  0  0  3  0  0  0  0  0  0
  -39.5640  -64.8340   49.2820 C   0  0  0  0  0  0  0  0  0  0  0  0
  -39.9290  -63.7890   48.4850 C   0  0  0  0  0  0  0  0  0  0  0  0
  -38.9700  -62.8740   48.0140 C   0  0  0  0  0  3  0  0  0  0  0  0
  -41.3530  -63.5720   48.1380 C   0  0  0  0  0  1  0  0  0  0  0  0
  -37.6410  -62.9750   48.3240 C   0  0  0  0  0  0  0  0  0  0  0  0
  -37.2700  -64.0300   49.1310 C   0  0  0  0  0  3  0  0  0  0  0  0
  -38.1950  -64.9270   49.5960 C   0  0  0  0  0  3  0  0  0  0  0  0
  -36.6860  -62.0700   47.8620 O   0  0  0  0  0  0  0  0  0  0  0  0
  -35.3280  -62.2390   48.1740 C   0  0  0  0  0  1  0  0  0  0  0  0
  -44.6460  -66.0350   51.7710 C   0  0  0  0  0  2  0  0  0  0  0  0
  -45.2080  -66.7820   52.9390 C   0  0  0  0  0  2  0  0  0  0  0  0
  -46.0160  -65.9840   53.8900 C   0  0  0  0  0  2  0  0  0  0  0  0
  -47.3660  -66.3950   54.0450 N   0  0  0  0  0  4  0  0  0  0  0  0
  -48.3070  -65.6720   53.1730 C   0  0  0  0  0  2  0  0  0  0  0  0
  -49.6710  -65.8070   53.8540 C   0  0  0  0  0  2  0  0  0  0  0  0
  -49.6570  -66.7530   54.8630 O   0  0  0  0  0  0  0  0  0  0  0  0
  -49.1160  -67.9570   54.4110 C   0  0  0  0  0  2  0  0  0  0  0  0
  -47.6680  -67.7740   53.9180 C   0  0  0  0  0  2  0  0  0  0  0  0
  -47.6600  -66.1120   55.0300 H   0  0  0  0  0  0  0  0  0  0  0  0
  1  2  1  0  0  0  0
  1 10  1  1  0  0  0
  2  3  1  0  0  0  0
  3  4  2  0  0  0  0
  5  6  2  0  0  0  0
  5  3  1  0  0  0  0
  7  1  1  0  0  0  0
  7  5  1  0  0  0  0
  8  7  2  0  0  0  0
  9  8  1  0  0  0  0
 10 16  1  0  0  0  0
 11 10  2  0  0  0  0
 11 12  1  0  0  0  0
 12 14  2  0  0  0  0
 13 12  1  0  0  0  0
 14 15  1  0  0  0  0
 16 15  2  0  0  0  0
 17 23  1  0  0  0  0
 17  8  1  0  0  0  0
 18 17  2  0  0  0  0
 19 21  2  0  0  0  0
 19 18  1  0  0  0  0
 20 18  1  0  0  0  0
 21 22  1  0  0  0  0
 22 23  2  0  0  0  0
 24 25  1  0  0  0  0
 24 21  1  0  0  0  0
 26  2  1  0  0  0  0
 26 27  1  0  0  0  0
 27 28  1  0  0  0  0
 28 29  1  0  0  0  0
 29 35  1  0  0  0  0
 30 31  1  0  0  0  0
 30 29  1  0  0  0  0
 31 32  1  0  0  0  0
 33 32  1  0  0  0  0
 34 29  1  0  0  0  0
 34 33  1  0  0  0  0
M  END
>  <Pose>
1

>  <Score>
-8.738

$$$$
