/Users/jonathanwahrer/Desktop/Msc/3_Semester/Drug_Design_Praktikum/waehrer_HTS_screening/HTS_experiment/out/docking_results/vina_output/3e7o/1284_docked.pdbqt
 OpenBabel03192216183D

 35 38  0  0  1  0  0  0  0  0999 V2000
  -36.3350  -66.0340   47.7250 C   0  0  1  0  0  3  0  0  0  0  0  0
  -35.2880  -66.8430   48.2260 N   0  0  0  0  0  0  0  0  0  0  0  0
  -35.7350  -67.5470   49.3740 C   0  0  0  0  0  0  0  0  0  0  0  0
  -35.0040  -68.2830   50.1070 O   0  0  0  0  0  0  0  0  0  0  0  0
  -37.1470  -67.2870   49.5520 C   0  0  0  0  0  0  0  0  0  0  0  0
  -37.7970  -67.7910   50.5070 O   0  0  0  0  0  0  0  0  0  0  0  0
  -37.5610  -66.3990   48.4830 C   0  0  0  0  0  0  0  0  0  0  0  0
  -38.7920  -65.9810   48.2950 C   0  0  0  0  0  0  0  0  0  0  0  0
  -39.0480  -65.0850   47.2820 O   0  0  0  0  0  1  0  0  0  0  0  0
  -36.0090  -64.6100   47.8580 C   0  0  0  0  0  0  0  0  0  0  0  0
  -35.7030  -63.8960   46.7120 C   0  0  0  0  0  3  0  0  0  0  0  0
  -35.3980  -62.5700   46.6620 C   0  0  0  0  0  0  0  0  0  0  0  0
  -34.9840  -61.6340   45.0500 Br  0  0  0  0  0  0  0  0  0  0  0  0
  -35.3960  -61.8800   47.8850 C   0  0  0  0  0  3  0  0  0  0  0  0
  -35.6970  -62.5660   49.0490 C   0  0  0  0  0  3  0  0  0  0  0  0
  -36.0040  -63.9130   49.0630 C   0  0  0  0  0  3  0  0  0  0  0  0
  -39.8750  -66.4490   49.1230 C   0  0  0  0  0  0  0  0  0  0  0  0
  -40.3180  -65.7900   50.2830 C   0  0  0  0  0  0  0  0  0  0  0  0
  -41.3580  -66.4590   50.7970 N   0  0  0  0  0  0  0  0  0  0  0  0
  -39.6970  -64.5440   50.8180 C   0  0  0  0  0  1  0  0  0  0  0  0
  -41.5780  -67.4960   50.0100 N   0  0  0  0  0  0  0  0  0  0  0  0
  -40.7080  -67.5260   48.9900 C   0  0  0  0  0  3  0  0  0  0  0  0
  -42.1070  -66.1250   51.9570 C   0  0  0  0  0  0  0  0  0  0  0  0
  -42.7530  -64.8970   52.0040 C   0  0  0  0  0  3  0  0  0  0  0  0
  -43.5070  -64.5110   53.0950 C   0  0  0  0  0  3  0  0  0  0  0  0
  -43.6500  -65.3500   54.2010 C   0  0  0  0  0  3  0  0  0  0  0  0
  -43.0060  -66.5730   54.1540 C   0  0  0  0  0  3  0  0  0  0  0  0
  -42.2630  -66.9330   53.0590 C   0  0  0  0  0  3  0  0  0  0  0  0
  -33.9190  -66.9880   47.6560 C   0  0  0  0  0  2  0  0  0  0  0  0
  -32.9280  -66.2640   48.5300 C   0  0  0  0  0  2  0  0  0  0  0  0
  -31.6860  -65.8500   47.8070 C   0  0  0  0  0  2  0  0  0  0  0  0
  -31.4930  -64.4480   47.6350 N   0  0  0  0  0  4  0  0  0  0  0  0
  -31.8880  -63.9020   46.3790 C   0  0  0  0  0  1  0  0  0  0  0  0
  -32.2070  -63.7060   48.6870 C   0  0  0  0  0  1  0  0  0  0  0  0
  -30.4680  -64.2070   47.7980 H   0  0  0  0  0  0  0  0  0  0  0  0
  1 10  1  1  0  0  0
  1  2  1  0  0  0  0
  1  7  1  0  0  0  0
  2  3  1  0  0  0  0
  3  5  1  0  0  0  0
  3  4  2  0  0  0  0
  5  6  2  0  0  0  0
  7  5  1  0  0  0  0
  8  7  2  0  0  0  0
  8 17  1  0  0  0  0
  9  8  1  0  0  0  0
 10 16  1  0  0  0  0
 11 10  2  0  0  0  0
 12 11  1  0  0  0  0
 12 14  2  0  0  0  0
 13 12  1  0  0  0  0
 14 15  1  0  0  0  0
 15 16  2  0  0  0  0
 17 18  2  0  0  0  0
 18 19  1  0  0  0  0
 18 20  1  0  0  0  0
 19 23  1  0  0  0  0
 21 19  1  0  0  0  0
 22 17  1  0  0  0  0
 22 21  2  0  0  0  0
 23 24  2  0  0  0  0
 23 28  1  0  0  0  0
 24 25  1  0  0  0  0
 25 26  2  0  0  0  0
 27 26  1  0  0  0  0
 28 27  2  0  0  0  0
 29  2  1  0  0  0  0
 29 30  1  0  0  0  0
 31 30  1  0  0  0  0
 32 35  1  0  0  0  0
 32 31  1  0  0  0  0
 32 34  1  0  0  0  0
 33 32  1  0  0  0  0
M  END
>  <Pose>
1

>  <Score>
-7.153

$$$$
