/Users/jonathanwahrer/Desktop/Msc/3_Semester/Drug_Design_Praktikum/waehrer_HTS_screening/HTS_experiment/out/docking_results/vina_output/3e7o/1295_docked.pdbqt
 OpenBabel03192216183D

 26 29  0  0  1  0  0  0  0  0999 V2000
  -41.8600  -66.5810   51.5700 C   0  0  0  0  0  0  0  0  0  0  0  0
  -40.9980  -67.5660   52.1840 C   0  0  0  0  0  0  0  0  0  0  0  0
  -41.1320  -67.9010   53.5030 C   0  0  1  0  0  3  0  0  0  0  0  0
  -42.1400  -67.3190   54.3380 N   0  0  0  0  0  0  0  0  0  0  0  0
  -42.9950  -66.3720   53.7110 C   0  0  0  0  0  0  0  0  0  0  0  0
  -42.8900  -66.0380   52.4550 C   0  0  0  0  0  0  0  0  0  0  0  0
  -43.9660  -65.0510   52.1290 C   0  0  0  0  0  0  0  0  0  0  0  0
  -44.1110  -64.5470   50.9750 O   0  0  0  0  0  0  0  0  0  0  0  0
  -44.6640  -64.8670   53.2770 O   0  0  0  0  0  0  0  0  0  0  0  0
  -44.1400  -65.5950   54.3350 C   0  0  0  0  0  2  0  0  0  0  0  0
  -40.2870  -68.8320   54.0510 N   0  0  0  0  0  0  0  0  0  0  0  0
  -39.3370  -69.4120   53.3090 C   0  0  0  0  0  0  0  0  0  0  0  0
  -38.5700  -70.2670   53.8350 O   0  0  0  0  0  0  0  0  0  0  0  0
  -39.2140  -69.0760   52.0140 N   0  0  0  0  0  0  0  0  0  0  0  0
  -39.9920  -68.1840   51.4060 C   0  0  0  0  0  0  0  0  0  0  0  0
  -39.8840  -67.8640   50.1960 O   0  0  0  0  0  0  0  0  0  0  0  0
  -38.1600  -69.7370   51.2410 C   0  0  0  0  0  1  0  0  0  0  0  0
  -40.4800  -69.1450   55.4600 C   0  0  0  0  0  1  0  0  0  0  0  0
  -42.2070  -67.5990   55.3330 H   0  0  0  0  0  0  0  0  0  0  0  0
  -41.1890  -65.5550   50.7770 C   0  0  0  0  0  0  0  0  0  0  0  0
  -40.3660  -64.6230   51.3360 C   0  0  0  0  0  3  0  0  0  0  0  0
  -39.7370  -63.6440   50.5470 C   0  0  0  0  0  3  0  0  0  0  0  0
  -39.9530  -63.6260   49.1930 C   0  0  0  0  0  0  0  0  0  0  0  0
  -39.1150  -62.3070   48.0730 Br  0  0  0  0  0  0  0  0  0  0  0  0
  -40.7740  -64.5540   48.6220 C   0  0  0  0  0  3  0  0  0  0  0  0
  -41.3980  -65.5280   49.4210 C   0  0  0  0  0  3  0  0  0  0  0  0
  1  2  2  0  0  0  0
  1  6  1  0  0  0  0
  3  2  1  6  0  0  0
  3 11  1  0  0  0  0
  3  4  1  0  0  0  0
  4 19  1  0  0  0  0
  5 10  1  0  0  0  0
  5  4  1  0  0  0  0
  6  5  2  0  0  0  0
  7  6  1  0  0  0  0
  7  9  1  0  0  0  0
  8  7  2  0  0  0  0
  9 10  1  0  0  0  0
 11 18  1  0  0  0  0
 12 13  2  0  0  0  0
 12 11  1  0  0  0  0
 14 12  1  0  0  0  0
 15 14  1  0  0  0  0
 15  2  1  0  0  0  0
 16 15  2  0  0  0  0
 17 14  1  0  0  0  0
 20 21  1  0  0  0  0
 20  1  1  0  0  0  0
 22 21  2  0  0  0  0
 23 22  1  0  0  0  0
 24 23  1  0  0  0  0
 25 23  2  0  0  0  0
 25 26  1  0  0  0  0
 26 20  2  0  0  0  0
M  END
>  <Pose>
1

>  <Score>
-7.882

$$$$
