/Users/jonathanwahrer/Desktop/Msc/3_Semester/Drug_Design_Praktikum/waehrer_HTS_screening/HTS_experiment/out/docking_results/vina_output/3e7o/1299_docked.pdbqt
 OpenBabel03192216183D

 36 39  0  0  0  0  0  0  0  0999 V2000
  -37.2460  -64.3280   47.5560 C   0  0  0  0  0  0  0  0  0  0  0  0
  -36.0330  -64.6280   46.9900 N   0  0  0  0  0  0  0  0  0  0  0  0
  -35.9080  -63.8080   45.9670 N   0  0  0  0  0  0  0  0  0  0  0  0
  -36.9310  -63.0270   45.8480 N   0  0  0  0  0  0  0  0  0  0  0  0
  -37.8220  -63.3150   46.8380 C   0  0  0  0  0  0  0  0  0  0  0  0
  -37.7140  -65.0550   48.7290 C   0  0  0  0  0  0  0  0  0  0  0  0
  -38.3760  -66.3030   48.7440 N   0  0  0  0  0  0  0  0  0  0  0  0
  -38.6200  -66.8790   47.9080 H   0  0  0  0  0  0  0  0  0  0  0  0
  -37.5300  -64.5500   49.9020 O   0  0  0  0  0  0  0  0  0  0  0  0
  -38.7410  -66.8180   50.0330 N   0  0  0  0  0  0  0  0  0  0  0  0
  -39.9540  -67.0750   50.3330 C   0  0  0  0  0  3  0  0  0  0  0  0
  -40.3270  -67.6020   51.6540 C   0  0  0  0  0  0  0  0  0  0  0  0
  -39.6140  -68.6010   52.2400 C   0  0  0  0  0  3  0  0  0  0  0  0
  -39.9650  -69.0960   53.4820 C   0  0  0  0  0  0  0  0  0  0  0  0
  -41.0450  -68.5970   54.1650 C   0  0  0  0  0  0  0  0  0  0  0  0
  -38.9480  -70.5080   54.3010 Br  0  0  0  0  0  0  0  0  0  0  0  0
  -41.7720  -67.5840   53.5740 C   0  0  0  0  0  0  0  0  0  0  0  0
  -43.2770  -66.8820   54.5150 Br  0  0  0  0  0  0  0  0  0  0  0  0
  -41.4130  -67.0960   52.3330 C   0  0  0  0  0  3  0  0  0  0  0  0
  -41.3670  -69.1190   55.4100 O   0  0  0  0  0  0  0  0  0  0  0  0
  -42.2090  -69.6350   55.5920 H   0  0  0  0  0  0  0  0  0  0  0  0
  -35.1130  -65.6110   47.4170 C   0  0  0  0  0  0  0  0  0  0  0  0
  -34.0840  -65.5100   48.2940 N   0  0  0  0  0  0  0  0  0  0  0  0
  -33.5030  -66.6520   48.3900 O   0  0  0  0  0  0  0  0  0  0  0  0
  -34.0560  -67.5510   47.6390 N   0  0  0  0  0  0  0  0  0  0  0  0
  -35.0840  -66.9290   47.0010 C   0  0  0  0  0  0  0  0  0  0  0  0
  -35.9530  -67.5650   46.0790 N   0  0  0  0  0  0  0  0  0  0  0  0
  -36.3040  -67.0080   45.2780 H   0  0  0  0  0  0  0  0  0  0  0  0
  -36.2570  -68.5530   46.1560 H   0  0  0  0  0  0  0  0  0  0  0  0
  -39.1230  -62.6980   47.0930 C   0  0  0  0  0  2  0  0  0  0  0  0
  -40.2580  -63.5240   46.7080 N   0  0  0  0  0  0  0  0  0  0  0  0
  -40.9950  -63.9480   47.8910 C   0  0  0  0  0  2  0  0  0  0  0  0
  -42.1000  -62.9890   48.2350 C   0  0  0  0  0  2  0  0  0  0  0  0
  -41.9170  -61.7130   47.7340 O   0  0  0  0  0  0  0  0  0  0  0  0
  -41.7920  -61.6490   46.3550 C   0  0  0  0  0  2  0  0  0  0  0  0
  -41.1430  -62.8750   45.7720 C   0  0  0  0  0  2  0  0  0  0  0  0
  1  6  1  0  0  0  0
  2 22  1  0  0  0  0
  2  1  1  0  0  0  0
  3  2  1  0  0  0  0
  4  3  2  0  0  0  0
  4  5  1  0  0  0  0
  5 30  1  0  0  0  0
  5  1  2  0  0  0  0
  6  7  1  0  0  0  0
  6  9  2  0  0  0  0
  7 10  1  0  0  0  0
  8  7  1  0  0  0  0
 10 11  2  0  0  0  0
 11 12  1  0  0  0  0
 12 13  2  0  0  0  0
 12 19  1  0  0  0  0
 13 14  1  0  0  0  0
 14 15  2  0  0  0  0
 14 16  1  0  0  0  0
 15 20  1  0  0  0  0
 17 15  1  0  0  0  0
 17 18  1  0  0  0  0
 19 17  2  0  0  0  0
 20 21  1  0  0  0  0
 22 23  2  0  0  0  0
 23 24  1  0  0  0  0
 25 24  1  0  0  0  0
 26 22  1  0  0  0  0
 26 25  2  0  0  0  0
 27 29  1  0  0  0  0
 27 26  1  0  0  0  0
 28 27  1  0  0  0  0
 31 30  1  0  0  0  0
 31 32  1  0  0  0  0
 32 33  1  0  0  0  0
 34 33  1  0  0  0  0
 35 34  1  0  0  0  0
 36 35  1  0  0  0  0
 36 31  1  0  0  0  0
M  END
>  <Pose>
1

>  <Score>
-7.637

$$$$
