/Users/jonathanwahrer/Desktop/Msc/3_Semester/Drug_Design_Praktikum/waehrer_HTS_screening/HTS_experiment/out/docking_results/vina_output/3e7o/1301_docked.pdbqt
 OpenBabel03192216193D

 24 27  0  0  1  0  0  0  0  0999 V2000
  -42.5430  -66.3760   53.3490 N   0  0  0  0  0  0  0  0  0  0  0  0
  -42.7720  -64.9840   53.1640 C   0  0  0  0  0  0  0  0  0  0  0  0
  -41.9250  -64.1000   52.9100 O   0  0  0  0  0  0  0  0  0  0  0  0
  -44.2310  -64.6970   53.3190 C   0  0  1  0  0  3  0  0  0  0  0  0
  -44.9760  -64.8660   52.0370 C   0  0  1  0  0  0  0  0  0  0  0  0
  -45.1190  -66.2730   51.9350 O   0  0  0  0  0  0  0  0  0  0  0  0
  -45.7710  -66.4510   53.1810 C   0  0  1  0  0  0  0  0  0  0  0  0
  -44.7430  -65.8960   54.1120 C   0  0  1  0  0  3  0  0  0  0  0  0
  -43.5840  -66.8150   54.2120 C   0  0  0  0  0  0  0  0  0  0  0  0
  -43.5340  -67.8240   54.9450 O   0  0  0  0  0  0  0  0  0  0  0  0
  -46.8970  -65.4870   53.0010 C   0  0  0  0  0  2  0  0  0  0  0  0
  -46.3950  -64.4820   52.2610 C   0  0  0  0  0  2  0  0  0  0  0  0
  -46.1830  -67.8400   53.4270 C   0  0  0  0  0  1  0  0  0  0  0  0
  -41.4820  -67.1180   52.7620 C   0  0  0  0  0  0  0  0  0  0  0  0
  -41.0680  -66.9260   51.4600 C   0  0  0  0  0  3  0  0  0  0  0  0
  -40.0230  -67.6570   50.8840 C   0  0  0  0  0  3  0  0  0  0  0  0
  -39.3540  -68.6160   51.6090 C   0  0  0  0  0  0  0  0  0  0  0  0
  -39.7550  -68.8180   52.9090 C   0  0  0  0  0  0  0  0  0  0  0  0
  -38.2420  -69.3950   50.9900 C   0  0  0  0  0  1  0  0  0  0  0  0
  -38.8540  -70.1370   53.9440 Br  0  0  0  0  0  0  0  0  0  0  0  0
  -40.7990  -68.0850   53.4790 C   0  0  0  0  0  3  0  0  0  0  0  0
  -44.3570  -64.2550   50.8470 C   0  0  0  0  0  2  0  0  0  0  0  0
  -44.1870  -62.8800   50.9940 O   0  0  0  0  0  0  0  0  0  0  0  0
  -44.8470  -62.4710   51.6200 H   0  0  0  0  0  0  0  0  0  0  0  0
  1  9  1  0  0  0  0
  2  1  1  0  0  0  0
  3  2  2  0  0  0  0
  4  2  1  6  0  0  0
  4  8  1  0  0  0  0
  5 22  1  6  0  0  0
  5 12  1  0  0  0  0
  5  4  1  0  0  0  0
  6  5  1  0  0  0  0
  6  7  1  0  0  0  0
  7 13  1  1  0  0  0
  7  8  1  0  0  0  0
  8  9  1  6  0  0  0
  9 10  2  0  0  0  0
 11  7  1  0  0  0  0
 12 11  1  0  0  0  0
 14  1  1  0  0  0  0
 14 21  1  0  0  0  0
 15 14  2  0  0  0  0
 16 15  1  0  0  0  0
 16 17  2  0  0  0  0
 17 18  1  0  0  0  0
 18 21  2  0  0  0  0
 18 20  1  0  0  0  0
 19 17  1  0  0  0  0
 22 23  1  0  0  0  0
 23 24  1  0  0  0  0
M  END
>  <Pose>
1

>  <Score>
-8.567

$$$$
