/Users/jonathanwahrer/Desktop/Msc/3_Semester/Drug_Design_Praktikum/waehrer_HTS_screening/HTS_experiment/out/docking_results/vina_output/3e7o/1310_docked.pdbqt
 OpenBabel03192216193D

 32 35  0  0  1  0  0  0  0  0999 V2000
  -42.2640  -66.8110   51.5440 C   0  0  1  0  0  3  0  0  0  0  0  0
  -43.2830  -65.8370   51.8730 N   0  0  0  0  0  0  0  0  0  0  0  0
  -42.6090  -64.6550   52.2660 C   0  0  0  0  0  0  0  0  0  0  0  0
  -43.0170  -63.7510   53.0370 O   0  0  0  0  0  0  0  0  0  0  0  0
  -41.3140  -64.6830   51.5850 C   0  0  0  0  0  0  0  0  0  0  0  0
  -40.3800  -63.8500   51.6300 O   0  0  0  0  0  0  0  0  0  0  0  0
  -41.3070  -65.9300   50.8030 C   0  0  0  0  0  0  0  0  0  0  0  0
  -40.5780  -66.1530   49.7330 C   0  0  0  0  0  0  0  0  0  0  0  0
  -40.6760  -67.4230   49.1510 O   0  0  0  0  0  1  0  0  0  0  0  0
  -41.6690  -67.4800   52.7050 C   0  0  0  0  0  0  0  0  0  0  0  0
  -40.6070  -68.3460   52.6590 C   0  0  0  0  0  3  0  0  0  0  0  0
  -40.0740  -68.9520   53.7980 C   0  0  0  0  0  0  0  0  0  0  0  0
  -38.5830  -70.1580   53.6510 Br  0  0  0  0  0  0  0  0  0  0  0  0
  -40.6210  -68.6850   55.0350 C   0  0  0  0  0  3  0  0  0  0  0  0
  -41.6890  -67.8180   55.1110 C   0  0  0  0  0  3  0  0  0  0  0  0
  -42.2040  -67.2290   53.9790 C   0  0  0  0  0  3  0  0  0  0  0  0
  -39.6940  -65.1260   49.1450 C   0  0  0  0  0  0  0  0  0  0  0  0
  -39.9970  -64.1520   48.3390 O   0  0  0  0  0  0  0  0  0  0  0  0
  -38.9410  -63.4350   48.0290 C   0  0  0  0  0  0  0  0  0  0  0  0
  -37.8350  -63.9620   48.6750 C   0  0  0  0  0  0  0  0  0  0  0  0
  -38.7430  -62.3230   47.2290 C   0  0  0  0  0  3  0  0  0  0  0  0
  -38.3350  -65.0380   49.3820 C   0  0  0  0  0  3  0  0  0  0  0  0
  -36.5930  -63.3870   48.5150 C   0  0  0  0  0  3  0  0  0  0  0  0
  -36.3950  -62.2810   47.7190 C   0  0  0  0  0  3  0  0  0  0  0  0
  -37.4850  -61.7450   47.0700 C   0  0  0  0  0  3  0  0  0  0  0  0
  -44.7390  -65.9460   51.8190 C   0  0  0  0  0  2  0  0  0  0  0  0
  -45.2460  -66.8420   52.9330 C   0  0  0  0  0  2  0  0  0  0  0  0
  -45.9520  -66.0760   54.0210 C   0  0  0  0  0  2  0  0  0  0  0  0
  -47.2870  -66.5620   54.1620 N   0  0  0  0  0  4  0  0  0  0  0  0
  -48.2520  -65.8220   53.3760 C   0  0  0  0  0  1  0  0  0  0  0  0
  -47.4670  -67.9530   53.8770 C   0  0  0  0  0  1  0  0  0  0  0  0
  -47.5680  -66.4160   55.1770 H   0  0  0  0  0  0  0  0  0  0  0  0
  1  2  1  0  0  0  0
  1 10  1  1  0  0  0
  2  3  1  0  0  0  0
  3  4  2  0  0  0  0
  5  6  2  0  0  0  0
  5  3  1  0  0  0  0
  7  1  1  0  0  0  0
  7  5  1  0  0  0  0
  8  7  2  0  0  0  0
  9  8  1  0  0  0  0
 10 16  1  0  0  0  0
 11 10  2  0  0  0  0
 11 12  1  0  0  0  0
 12 14  2  0  0  0  0
 13 12  1  0  0  0  0
 14 15  1  0  0  0  0
 16 15  2  0  0  0  0
 17 22  2  0  0  0  0
 17  8  1  0  0  0  0
 18 17  1  0  0  0  0
 19 18  1  0  0  0  0
 19 20  1  0  0  0  0
 20 22  1  0  0  0  0
 21 19  2  0  0  0  0
 23 20  2  0  0  0  0
 24 23  1  0  0  0  0
 25 21  1  0  0  0  0
 25 24  2  0  0  0  0
 26  2  1  0  0  0  0
 26 27  1  0  0  0  0
 27 28  1  0  0  0  0
 28 29  1  0  0  0  0
 29 32  1  0  0  0  0
 30 29  1  0  0  0  0
 31 29  1  0  0  0  0
M  END
>  <Pose>
1

>  <Score>
-8.512

$$$$
