/Users/jonathanwahrer/Desktop/Msc/3_Semester/Drug_Design_Praktikum/waehrer_HTS_screening/HTS_experiment/out/docking_results/vina_output/3e7o/1325_docked.pdbqt
 OpenBabel03192216203D

 31 34  0  0  1  0  0  0  0  0999 V2000
  -37.2690  -66.5070   49.1480 C   0  0  1  0  0  3  0  0  0  0  0  0
  -36.2780  -67.1470   49.9620 N   0  0  0  0  0  0  0  0  0  0  0  0
  -36.9870  -68.2910   50.5250 C   0  0  0  0  0  0  0  0  0  0  0  0
  -36.4700  -69.3600   50.9150 O   0  0  0  0  0  0  0  0  0  0  0  0
  -38.4000  -67.9600   50.5490 C   0  0  0  0  0  0  0  0  0  0  0  0
  -39.3770  -68.6580   50.9540 O   0  0  0  0  0  0  0  0  0  0  0  0
  -38.4940  -66.6060   49.9920 C   0  0  0  0  0  0  0  0  0  0  0  0
  -39.4660  -65.7600   50.1920 C   0  0  0  0  0  0  0  0  0  0  0  0
  -39.4210  -64.5260   49.5330 O   0  0  0  0  0  1  0  0  0  0  0  0
  -36.9960  -65.1940   48.6200 C   0  0  0  0  0  0  0  0  0  0  0  0
  -37.2420  -64.9710   47.2530 C   0  0  0  0  0  3  0  0  0  0  0  0
  -37.0380  -63.7590   46.6450 C   0  0  0  0  0  3  0  0  0  0  0  0
  -36.5720  -62.6860   47.3620 C   0  0  0  0  0  0  0  0  0  0  0  0
  -36.2740  -60.9790   46.5450 Br  0  0  0  0  0  0  0  0  0  0  0  0
  -36.3280  -62.8960   48.7000 C   0  0  0  0  0  3  0  0  0  0  0  0
  -36.5350  -64.1170   49.3120 C   0  0  0  0  0  3  0  0  0  0  0  0
  -40.5930  -66.0730   51.0940 C   0  0  0  0  0  0  0  0  0  0  0  0
  -40.4820  -66.5710   52.3200 O   0  0  0  0  0  0  0  0  0  0  0  0
  -41.6540  -66.7440   52.8750 C   0  0  0  0  0  0  0  0  0  0  0  0
  -42.6450  -66.3520   52.0000 C   0  0  0  0  0  0  0  0  0  0  0  0
  -42.0650  -67.2280   54.1210 C   0  0  0  0  0  3  0  0  0  0  0  0
  -41.9440  -65.9330   50.8820 C   0  0  0  0  0  3  0  0  0  0  0  0
  -43.9720  -66.4400   52.3570 C   0  0  0  0  0  3  0  0  0  0  0  0
  -44.3870  -66.9140   53.5820 C   0  0  0  0  0  3  0  0  0  0  0  0
  -43.3970  -67.3100   54.4630 C   0  0  0  0  0  3  0  0  0  0  0  0
  -34.8750  -66.8920   50.2010 C   0  0  0  0  0  2  0  0  0  0  0  0
  -33.9260  -67.1390   49.1060 C   0  0  0  0  0  2  0  0  0  0  0  0
  -33.2130  -66.0040   48.5800 N   0  0  0  0  0  4  0  0  0  0  0  0
  -33.6180  -65.6700   47.2440 C   0  0  0  0  0  1  0  0  0  0  0  0
  -33.1070  -64.8880   49.4750 C   0  0  0  0  0  1  0  0  0  0  0  0
  -32.2060  -66.3700   48.4680 H   0  0  0  0  0  0  0  0  0  0  0  0
  1 10  1  1  0  0  0
  1  2  1  0  0  0  0
  1  7  1  0  0  0  0
  2 26  1  0  0  0  0
  2  3  1  0  0  0  0
  3  5  1  0  0  0  0
  3  4  2  0  0  0  0
  5  6  2  0  0  0  0
  7  8  2  0  0  0  0
  7  5  1  0  0  0  0
  8 17  1  0  0  0  0
  9  8  1  0  0  0  0
 10 16  1  0  0  0  0
 11 10  2  0  0  0  0
 12 11  1  0  0  0  0
 12 13  2  0  0  0  0
 13 15  1  0  0  0  0
 14 13  1  0  0  0  0
 15 16  2  0  0  0  0
 17 18  1  0  0  0  0
 18 19  1  0  0  0  0
 19 21  1  0  0  0  0
 20 23  1  0  0  0  0
 20 19  2  0  0  0  0
 21 25  2  0  0  0  0
 22 17  2  0  0  0  0
 22 20  1  0  0  0  0
 23 24  2  0  0  0  0
 24 25  1  0  0  0  0
 27 26  1  0  0  0  0
 28 27  1  0  0  0  0
 28 30  1  0  0  0  0
 29 28  1  0  0  0  0
 31 28  1  0  0  0  0
M  END
>  <Pose>
1

>  <Score>
-7.621

$$$$
