/Users/jonathanwahrer/Desktop/Msc/3_Semester/Drug_Design_Praktikum/waehrer_HTS_screening/HTS_experiment/out/docking_results/vina_output/3e7o/1329_docked.pdbqt
 OpenBabel03192216203D

 28 31  0  0  0  0  0  0  0  0999 V2000
  -43.1490  -67.3060   54.6020 C   0  0  0  0  0  3  0  0  0  0  0  0
  -42.0370  -67.8150   54.0680 C   0  0  0  0  0  0  0  0  0  0  0  0
  -41.5190  -67.5590   52.7990 O   0  0  0  0  0  0  0  0  0  0  0  0
  -40.3590  -68.2550   52.6010 C   0  0  0  0  0  0  0  0  0  0  0  0
  -40.0500  -69.0080   53.7290 C   0  0  0  0  0  0  0  0  0  0  0  0
  -38.8970  -69.7760   53.7080 C   0  0  0  0  0  3  0  0  0  0  0  0
  -38.0870  -69.7820   52.5960 C   0  0  0  0  0  3  0  0  0  0  0  0
  -38.4300  -69.0120   51.4810 C   0  0  0  0  0  0  0  0  0  0  0  0
  -39.5650  -68.2450   51.4730 C   0  0  0  0  0  0  0  0  0  0  0  0
  -37.5510  -69.0860   50.4110 O   0  0  0  0  0  1  0  0  0  0  0  0
  -41.1190  -68.7520   54.7100 C   0  0  0  0  0  0  0  0  0  0  0  0
  -41.1800  -69.2690   55.8550 O   0  0  0  0  0  0  0  0  0  0  0  0
  -39.9200  -67.5200   50.2520 C   0  0  0  0  0  2  0  0  0  0  0  0
  -39.8500  -66.1060   50.3140 N   0  0  0  0  0  4  0  0  0  0  0  0
  -41.1360  -65.5670   49.9010 C   0  0  0  0  0  2  0  0  0  0  0  0
  -41.0690  -64.3300   49.0740 C   0  0  0  0  0  2  0  0  0  0  0  0
  -40.1710  -64.3790   47.9740 N   0  0  0  0  0  0  0  0  0  0  0  0
  -39.2690  -65.4790   48.0700 C   0  0  0  0  0  2  0  0  0  0  0  0
  -39.4810  -63.1130   47.8450 C   0  0  0  0  0  1  0  0  0  0  0  0
  -38.7840  -65.6160   49.4740 C   0  0  0  0  0  2  0  0  0  0  0  0
  -39.6140  -65.7460   51.2880 H   0  0  0  0  0  0  0  0  0  0  0  0
  -43.9750  -66.3740   53.8620 C   0  0  0  0  0  0  0  0  0  0  0  0
  -45.2680  -66.6940   53.5120 C   0  0  0  0  0  3  0  0  0  0  0  0
  -46.0470  -65.7940   52.7890 C   0  0  0  0  0  0  0  0  0  0  0  0
  -47.8370  -66.2430   52.2950 Br  0  0  0  0  0  0  0  0  0  0  0  0
  -45.5190  -64.5670   52.4200 C   0  0  0  0  0  3  0  0  0  0  0  0
  -44.2230  -64.2850   52.7880 C   0  0  0  0  0  3  0  0  0  0  0  0
  -43.4400  -65.1610   53.5020 C   0  0  0  0  0  3  0  0  0  0  0  0
  2  1  2  0  0  0  0
  2 11  1  0  0  0  0
  3  2  1  0  0  0  0
  4  3  1  0  0  0  0
  4  5  1  0  0  0  0
  5 11  1  0  0  0  0
  6  5  2  0  0  0  0
  7  6  1  0  0  0  0
  8  7  2  0  0  0  0
  9  8  1  0  0  0  0
  9  4  2  0  0  0  0
 10  8  1  0  0  0  0
 11 12  2  0  0  0  0
 13 14  1  0  0  0  0
 13  9  1  0  0  0  0
 14 21  1  0  0  0  0
 15 14  1  0  0  0  0
 16 15  1  0  0  0  0
 17 18  1  0  0  0  0
 17 16  1  0  0  0  0
 18 20  1  0  0  0  0
 19 17  1  0  0  0  0
 20 14  1  0  0  0  0
 22  1  1  0  0  0  0
 23 22  1  0  0  0  0
 24 23  2  0  0  0  0
 25 24  1  0  0  0  0
 26 27  2  0  0  0  0
 26 24  1  0  0  0  0
 27 28  1  0  0  0  0
 28 22  2  0  0  0  0
M  END
>  <Pose>
1

>  <Score>
-9.099

$$$$
