/Users/jonathanwahrer/Desktop/Msc/3_Semester/Drug_Design_Praktikum/waehrer_HTS_screening/HTS_experiment/out/docking_results/vina_output/3e7o/1337_docked.pdbqt
 OpenBabel03192216203D

 32 35  0  0  1  0  0  0  0  0999 V2000
  -41.0280  -67.3370   51.2990 C   0  0  2  0  0  3  0  0  0  0  0  0
  -40.6490  -66.7320   50.1600 O   0  0  0  0  0  0  0  0  0  0  0  0
  -41.2980  -65.6010   49.7760 C   0  0  2  0  0  3  0  0  0  0  0  0
  -40.5190  -64.9750   48.7920 O   0  0  0  0  0  0  0  0  0  0  0  0
  -39.6430  -64.1320   49.4320 C   0  0  0  0  0  0  0  0  0  0  0  0
  -39.9950  -64.0560   50.7650 O   0  0  0  0  0  0  0  0  0  0  0  0
  -41.3270  -64.5250   50.8370 C   0  0  2  0  0  3  0  0  0  0  0  0
  -41.6660  -65.0560   52.1760 C   0  0  1  0  0  3  0  0  0  0  0  0
  -42.9540  -64.6430   52.5840 O   0  0  0  0  0  0  0  0  0  0  0  0
  -43.5720  -65.7250   53.1570 C   0  0  0  0  0  0  0  0  0  0  0  0
  -43.0410  -66.8070   52.5040 O   0  0  0  0  0  0  0  0  0  0  0  0
  -41.6780  -66.5140   52.3460 C   0  0  1  0  0  3  0  0  0  0  0  0
  -45.0720  -65.5810   52.8750 C   0  0  0  0  0  1  0  0  0  0  0  0
  -43.4290  -65.7760   54.6560 C   0  0  0  0  0  1  0  0  0  0  0  0
  -39.7160  -62.7080   48.8800 C   0  0  0  0  0  1  0  0  0  0  0  0
  -38.1970  -64.5740   49.2840 C   0  0  0  0  0  1  0  0  0  0  0  0
  -39.8690  -68.0850   51.8530 C   0  0  0  0  0  0  0  0  0  0  0  0
  -38.9100  -68.6550   50.9780 N   0  0  0  0  0  0  0  0  0  0  0  0
  -39.0480  -68.5320   49.9530 H   0  0  0  0  0  0  0  0  0  0  0  0
  -39.6970  -68.2390   53.0930 O   0  0  0  0  0  0  0  0  0  0  0  0
  -37.7660  -69.3910   51.4260 C   0  0  0  0  0  2  0  0  0  0  0  0
  -36.5100  -68.8020   50.8940 C   0  0  0  0  0  0  0  0  0  0  0  0
  -36.4810  -67.5800   50.1980 N   0  0  0  0  0  0  0  0  0  0  0  0
  -37.4340  -67.1050   50.0790 H   0  0  0  0  0  0  0  0  0  0  0  0
  -35.4640  -69.4500   51.0950 O   0  0  0  0  0  0  0  0  0  0  0  0
  -35.3900  -66.9150   49.6480 C   0  0  0  0  0  0  0  0  0  0  0  0
  -34.7270  -65.9560   50.4020 C   0  0  0  0  0  3  0  0  0  0  0  0
  -33.6400  -65.2450   49.9480 C   0  0  0  0  0  3  0  0  0  0  0  0
  -33.1580  -65.4750   48.6790 C   0  0  0  0  0  0  0  0  0  0  0  0
  -31.6430  -64.4710   48.0730 Br  0  0  0  0  0  0  0  0  0  0  0  0
  -33.7770  -66.4050   47.9060 C   0  0  0  0  0  3  0  0  0  0  0  0
  -34.8850  -67.1210   48.3850 C   0  0  0  0  0  3  0  0  0  0  0  0
  1 17  1  1  0  0  0
  1 12  1  0  0  0  0
  2  1  1  0  0  0  0
  3  4  1  6  0  0  0
  3  2  1  0  0  0  0
  3  7  1  0  0  0  0
  4  5  1  0  0  0  0
  5  6  1  0  0  0  0
  7  6  1  1  0  0  0
  7  8  1  0  0  0  0
  8 12  1  0  0  0  0
  8  9  1  6  0  0  0
  9 10  1  0  0  0  0
 10 14  1  0  0  0  0
 11 10  1  0  0  0  0
 12 11  1  6  0  0  0
 13 10  1  0  0  0  0
 15  5  1  0  0  0  0
 16  5  1  0  0  0  0
 17 20  2  0  0  0  0
 18 21  1  0  0  0  0
 18 17  1  0  0  0  0
 19 18  1  0  0  0  0
 22 25  2  0  0  0  0
 22 21  1  0  0  0  0
 23 22  1  0  0  0  0
 24 23  1  0  0  0  0
 26 23  1  0  0  0  0
 26 27  1  0  0  0  0
 28 27  2  0  0  0  0
 29 28  1  0  0  0  0
 30 29  1  0  0  0  0
 31 32  1  0  0  0  0
 31 29  2  0  0  0  0
 32 26  2  0  0  0  0
M  END
>  <Pose>
1

>  <Score>
-8.325

$$$$
