/Users/jonathanwahrer/Desktop/Msc/3_Semester/Drug_Design_Praktikum/waehrer_HTS_screening/HTS_experiment/out/docking_results/vina_output/3e7o/1341_docked.pdbqt
 OpenBabel03192216203D

 28 31  0  0  0  0  0  0  0  0999 V2000
  -40.5560  -67.1410   51.9680 C   0  0  0  0  0  0  0  0  0  0  0  0
  -40.9620  -67.9370   52.9850 N   0  0  0  0  0  0  0  0  0  0  0  0
  -42.0160  -67.3540   53.5920 C   0  0  0  0  0  0  0  0  0  0  0  0
  -42.3140  -66.1820   52.9910 N   0  0  0  0  0  0  0  0  0  0  0  0
  -41.4100  -66.0610   51.9930 C   0  0  0  0  0  3  0  0  0  0  0  0
  -42.4840  -68.2080   54.7140 C   0  0  0  0  0  3  0  0  0  0  0  0
  -41.5340  -69.3530   54.7890 C   0  0  0  0  0  3  0  0  0  0  0  0
  -40.6320  -69.1930   53.6220 C   0  0  0  0  0  3  0  0  0  0  0  0
  -43.3650  -65.2420   53.3210 C   0  0  0  0  0  2  0  0  0  0  0  0
  -44.6840  -65.7810   52.8810 C   0  0  0  0  0  0  0  0  0  0  0  0
  -44.8900  -65.8850   51.6710 O   0  0  0  0  0  0  0  0  0  0  0  0
  -45.6060  -66.1360   53.8670 N   0  0  0  0  0  0  0  0  0  0  0  0
  -45.3720  -66.0230   54.9100 H   0  0  0  0  0  0  0  0  0  0  0  0
  -46.8970  -66.6690   53.6140 C   0  0  0  0  0  0  0  0  0  0  0  0
  -47.0930  -68.0500   53.7420 C   0  0  0  0  0  3  0  0  0  0  0  0
  -48.3110  -68.5960   53.4890 C   0  0  0  0  0  3  0  0  0  0  0  0
  -49.3850  -67.8110   53.1010 C   0  0  0  0  0  0  0  0  0  0  0  0
  -49.1830  -66.4660   52.9780 C   0  0  0  0  0  3  0  0  0  0  0  0
  -47.9390  -65.8730   53.2320 C   0  0  0  0  0  3  0  0  0  0  0  0
  -50.7060  -68.4310   52.8300 C   0  0  0  0  0  2  0  0  0  0  0  0
  -50.5030  -69.5630   51.8180 C   0  0  0  0  0  1  0  0  0  0  0  0
  -39.4620  -67.3230   51.0150 C   0  0  0  0  0  0  0  0  0  0  0  0
  -39.3170  -66.4790   49.9310 C   0  0  0  0  0  3  0  0  0  0  0  0
  -38.2930  -66.6300   49.0140 C   0  0  0  0  0  3  0  0  0  0  0  0
  -37.3620  -67.6380   49.1430 C   0  0  0  0  0  0  0  0  0  0  0  0
  -36.0570  -67.8360   47.9810 Cl  0  0  0  0  0  0  0  0  0  0  0  0
  -37.4950  -68.4900   50.2190 C   0  0  0  0  0  3  0  0  0  0  0  0
  -38.5330  -68.3340   51.1450 C   0  0  0  0  0  3  0  0  0  0  0  0
  1  5  2  0  0  0  0
  1  2  1  0  0  0  0
  2  3  1  0  0  0  0
  2  8  1  0  0  0  0
  3  6  2  0  0  0  0
  4  9  1  0  0  0  0
  4  3  1  0  0  0  0
  5  4  1  0  0  0  0
  6  7  1  0  0  0  0
  8  7  2  0  0  0  0
 10  9  1  0  0  0  0
 10 12  1  0  0  0  0
 11 10  2  0  0  0  0
 12 13  1  0  0  0  0
 14 15  1  0  0  0  0
 14 12  1  0  0  0  0
 16 15  2  0  0  0  0
 17 16  1  0  0  0  0
 18 17  2  0  0  0  0
 18 19  1  0  0  0  0
 19 14  2  0  0  0  0
 20 17  1  0  0  0  0
 21 20  1  0  0  0  0
 22 28  1  0  0  0  0
 22  1  1  0  0  0  0
 23 22  2  0  0  0  0
 24 25  2  0  0  0  0
 24 23  1  0  0  0  0
 25 27  1  0  0  0  0
 26 25  1  0  0  0  0
 27 28  2  0  0  0  0
M  END
>  <Pose>
1

>  <Score>
-7.940

$$$$
