/Users/jonathanwahrer/Desktop/Msc/3_Semester/Drug_Design_Praktikum/waehrer_HTS_screening/HTS_experiment/out/docking_results/vina_output/3e7o/1372_docked.pdbqt
 OpenBabel03192216223D

 31 34  0  0  1  0  0  0  0  0999 V2000
  -35.1980  -66.4040   48.9580 C   0  0  0  0  0  0  0  0  0  0  0  0
  -34.2810  -67.2510   48.9220 O   0  0  0  0  0  0  0  0  0  0  0  0
  -34.9010  -65.0580   49.2000 N   0  0  0  0  0  0  0  0  0  0  0  0
  -33.6710  -64.3480   49.1010 C   0  0  0  0  0  2  0  0  0  0  0  0
  -34.0890  -62.9200   48.7140 C   0  0  0  0  0  2  0  0  0  0  0  0
  -35.3630  -62.9020   47.9070 C   0  0  1  0  0  0  0  0  0  0  0  0
  -35.7450  -61.5600   47.5610 N   0  0  0  0  0  0  0  0  0  0  0  0
  -37.0370  -61.6310   46.8640 C   0  0  0  0  0  2  0  0  0  0  0  0
  -36.9160  -62.3100   45.5360 C   0  0  0  0  0  2  0  0  0  0  0  0
  -35.8860  -63.3730   45.5280 C   0  0  0  0  0  0  0  0  0  0  0  0
  -35.5000  -64.1970   44.5480 N   0  0  0  0  0  0  0  0  0  0  0  0
  -34.5260  -64.9990   45.0210 C   0  0  0  0  0  3  0  0  0  0  0  0
  -34.3180  -64.6610   46.3010 N   0  0  0  0  0  0  0  0  0  0  0  0
  -35.1300  -63.6590   46.6720 C   0  0  0  0  0  0  0  0  0  0  0  0
  -36.5650  -63.4500   48.6950 C   0  0  0  0  0  2  0  0  0  0  0  0
  -35.9700  -64.1990   49.8100 C   0  0  0  0  0  2  0  0  0  0  0  0
  -35.9280  -61.0150   48.4370 H   0  0  0  0  0  0  0  0  0  0  0  0
  -35.8390  -64.2730   43.5630 H   0  0  0  0  0  0  0  0  0  0  0  0
  -36.5950  -66.8810   48.7240 C   0  0  1  0  0  3  0  0  0  0  0  0
  -36.5210  -67.8920   47.5490 C   0  0  0  0  0  1  0  0  0  0  0  0
  -37.1330  -67.6670   49.8070 N   0  0  0  0  0  0  0  0  0  0  0  0
  -38.5330  -67.5100   50.1640 C   0  0  0  0  0  0  0  0  0  0  0  0
  -39.2830  -66.7540   49.5330 O   0  0  0  0  0  0  0  0  0  0  0  0
  -36.5450  -68.3270   50.3110 H   0  0  0  0  0  0  0  0  0  0  0  0
  -38.9920  -68.2920   51.3240 C   0  0  0  0  0  0  0  0  0  0  0  0
  -40.0840  -67.7970   52.0550 C   0  0  0  0  0  3  0  0  0  0  0  0
  -40.5920  -68.4280   53.1630 C   0  0  0  0  0  0  0  0  0  0  0  0
  -42.1040  -67.6730   54.0970 Br  0  0  0  0  0  0  0  0  0  0  0  0
  -40.0050  -69.5990   53.5780 C   0  0  0  0  0  3  0  0  0  0  0  0
  -38.9250  -70.1010   52.8710 C   0  0  0  0  0  3  0  0  0  0  0  0
  -38.4180  -69.4520   51.7500 C   0  0  0  0  0  3  0  0  0  0  0  0
  1  3  1  0  0  0  0
  2  1  2  0  0  0  0
  3 16  1  0  0  0  0
  4  3  1  0  0  0  0
  5  4  1  0  0  0  0
  6 15  1  1  0  0  0
  6  5  1  0  0  0  0
  7  6  1  0  0  0  0
  7 17  1  0  0  0  0
  8  7  1  0  0  0  0
  9  8  1  0  0  0  0
 10  9  1  0  0  0  0
 10 14  2  0  0  0  0
 11 12  1  0  0  0  0
 11 10  1  0  0  0  0
 12 13  2  0  0  0  0
 13 14  1  0  0  0  0
 14  6  1  0  0  0  0
 15 16  1  0  0  0  0
 18 11  1  0  0  0  0
 19 20  1  6  0  0  0
 19  1  1  0  0  0  0
 19 21  1  0  0  0  0
 21 22  1  0  0  0  0
 21 24  1  0  0  0  0
 22 25  1  0  0  0  0
 23 22  2  0  0  0  0
 25 31  2  0  0  0  0
 25 26  1  0  0  0  0
 26 27  2  0  0  0  0
 27 29  1  0  0  0  0
 27 28  1  0  0  0  0
 30 29  2  0  0  0  0
 31 30  1  0  0  0  0
M  END
>  <Pose>
1

>  <Score>
-8.390

$$$$
