/Users/jonathanwahrer/Desktop/Msc/3_Semester/Drug_Design_Praktikum/waehrer_HTS_screening/HTS_experiment/out/docking_results/vina_output/3e7o/1381_docked.pdbqt
 OpenBabel03192216223D

 31 34  0  0  0  0  0  0  0  0999 V2000
  -40.7450  -66.4930   50.5590 C   0  0  0  0  0  0  0  0  0  0  0  0
  -41.0710  -66.8760   49.4430 O   0  0  0  0  0  0  0  0  0  0  0  0
  -40.0110  -65.2760   50.4940 O   0  0  0  0  0  0  0  0  0  0  0  0
  -40.0140  -64.5770   49.2790 C   0  0  0  0  0  2  0  0  0  0  0  0
  -38.6300  -64.1340   49.0210 C   0  0  0  0  0  0  0  0  0  0  0  0
  -37.5980  -64.8650   49.4730 N   0  0  0  0  0  0  0  0  0  0  0  0
  -36.3190  -64.5100   49.2680 C   0  0  0  0  0  0  0  0  0  0  0  0
  -36.0240  -63.3940   48.5930 N   0  0  0  0  0  0  0  0  0  0  0  0
  -35.2940  -65.2820   49.7450 C   0  0  0  0  0  3  0  0  0  0  0  0
  -34.7340  -63.0310   48.3830 C   0  0  0  0  0  3  0  0  0  0  0  0
  -36.9990  -62.6020   48.1040 C   0  0  0  0  0  0  0  0  0  0  0  0
  -33.6850  -63.7970   48.8580 C   0  0  0  0  0  0  0  0  0  0  0  0
  -31.8630  -63.2630   48.5480 Br  0  0  0  0  0  0  0  0  0  0  0  0
  -33.9690  -64.9470   49.5530 C   0  0  0  0  0  3  0  0  0  0  0  0
  -38.3290  -62.9880   48.3280 C   0  0  0  0  0  3  0  0  0  0  0  0
  -36.7580  -61.5470   47.4660 O   0  0  0  0  0  0  0  0  0  0  0  0
  -40.9960  -67.0860   51.8580 C   0  0  0  0  0  0  0  0  0  0  0  0
  -42.0450  -66.6600   52.6240 N   0  0  0  0  0  0  0  0  0  0  0  0
  -42.2950  -67.1840   53.8100 N   0  0  0  0  0  0  0  0  0  0  0  0
  -41.5290  -68.1630   54.3200 C   0  0  0  0  0  0  0  0  0  0  0  0
  -41.7800  -68.6620   55.4680 O   0  0  0  0  0  0  0  0  0  0  0  0
  -40.4540  -68.6480   53.6130 C   0  0  0  0  0  0  0  0  0  0  0  0
  -40.2120  -68.0770   52.3610 C   0  0  0  0  0  0  0  0  0  0  0  0
  -39.6870  -69.6470   54.1520 C   0  0  0  0  0  3  0  0  0  0  0  0
  -39.1300  -68.5920   51.6900 C   0  0  0  0  0  3  0  0  0  0  0  0
  -38.3430  -69.6060   52.2270 C   0  0  0  0  0  3  0  0  0  0  0  0
  -38.6100  -70.1450   53.4630 C   0  0  0  0  0  3  0  0  0  0  0  0
  -43.4090  -66.7230   54.6130 C   0  0  0  0  0  2  0  0  0  0  0  0
  -44.2510  -65.7000   53.8960 C   0  0  0  0  0  2  0  0  0  0  0  0
  -43.5630  -64.5290   53.6370 O   0  0  0  0  0  0  0  0  0  0  0  0
  -43.4480  -64.4610   52.6600 H   0  0  0  0  0  0  0  0  0  0  0  0
  1 17  1  0  0  0  0
  2  1  2  0  0  0  0
  3  1  1  0  0  0  0
  4  3  1  0  0  0  0
  5  4  1  0  0  0  0
  5  6  1  0  0  0  0
  7  6  2  0  0  0  0
  7  9  1  0  0  0  0
  8  7  1  0  0  0  0
 10  8  1  0  0  0  0
 10 12  2  0  0  0  0
 11 15  1  0  0  0  0
 11  8  1  0  0  0  0
 12 14  1  0  0  0  0
 13 12  1  0  0  0  0
 14  9  2  0  0  0  0
 15  5  2  0  0  0  0
 16 11  2  0  0  0  0
 17 23  1  0  0  0  0
 17 18  2  0  0  0  0
 18 19  1  0  0  0  0
 19 20  1  0  0  0  0
 19 28  1  0  0  0  0
 20 21  2  0  0  0  0
 22 24  1  0  0  0  0
 22 20  1  0  0  0  0
 23 22  2  0  0  0  0
 25 26  2  0  0  0  0
 25 23  1  0  0  0  0
 26 27  1  0  0  0  0
 27 24  2  0  0  0  0
 29 28  1  0  0  0  0
 30 29  1  0  0  0  0
 31 30  1  0  0  0  0
M  END
>  <Pose>
1

>  <Score>
-8.923

$$$$
