/Users/jonathanwahrer/Desktop/Msc/3_Semester/Drug_Design_Praktikum/waehrer_HTS_screening/HTS_experiment/out/docking_results/vina_output/3e7o/1386_docked.pdbqt
 OpenBabel03192216233D

 33 36  0  0  1  0  0  0  0  0999 V2000
  -36.3230  -67.5690   49.1430 C   0  0  0  0  0  0  0  0  0  0  0  0
  -35.2130  -68.0850   49.4070 O   0  0  0  0  0  0  0  0  0  0  0  0
  -36.3610  -66.3760   48.3310 N   0  0  0  0  0  0  0  0  0  0  0  0
  -35.1240  -65.8210   47.8520 C   0  0  0  0  0  2  0  0  0  0  0  0
  -34.9280  -64.4930   48.5520 C   0  0  2  0  0  3  0  0  0  0  0  0
  -36.1990  -63.7880   48.8610 C   0  0  2  0  0  0  0  0  0  0  0  0
  -37.3800  -64.2160   48.0700 C   0  0  0  0  0  2  0  0  0  0  0  0
  -37.5700  -65.6940   47.9620 C   0  0  0  0  0  2  0  0  0  0  0  0
  -35.9730  -62.2970   48.5770 C   0  0  0  0  0  1  0  0  0  0  0  0
  -37.5880  -68.1290   49.6300 C   0  0  0  0  0  2  0  0  0  0  0  0
  -37.6160  -68.6980   50.9850 C   0  0  0  0  0  2  0  0  0  0  0  0
  -38.8470  -68.4790   51.7870 C   0  0  0  0  0  0  0  0  0  0  0  0
  -39.7640  -67.4790   51.5450 N   0  0  0  0  0  0  0  0  0  0  0  0
  -40.7220  -67.5200   52.4830 C   0  0  0  0  0  0  0  0  0  0  0  0
  -41.8610  -66.7670   52.7190 C   0  0  0  0  0  3  0  0  0  0  0  0
  -40.4390  -68.5490   53.3510 C   0  0  0  0  0  0  0  0  0  0  0  0
  -42.6830  -67.0430   53.7870 C   0  0  0  0  0  0  0  0  0  0  0  0
  -44.1270  -66.0520   54.0450 Cl  0  0  0  0  0  0  0  0  0  0  0  0
  -42.3840  -68.0810   54.6480 C   0  0  0  0  0  3  0  0  0  0  0  0
  -41.2570  -68.8340   54.4240 C   0  0  0  0  0  3  0  0  0  0  0  0
  -39.2820  -69.0990   52.8780 N   0  0  0  0  0  0  0  0  0  0  0  0
  -38.6500  -70.2010   53.5810 C   0  0  0  0  0  1  0  0  0  0  0  0
  -34.0070  -63.7100   47.7640 N   0  0  0  0  0  0  0  0  0  0  0  0
  -34.2530  -63.4850   46.4590 C   0  0  0  0  0  3  0  0  0  0  0  0
  -33.4030  -62.7440   45.6690 C   0  0  0  0  0  3  0  0  0  0  0  0
  -32.2670  -62.2200   46.2420 C   0  0  0  0  0  0  0  0  0  0  0  0
  -31.4400  -61.5250   45.5640 O   0  0  0  0  0  0  0  0  0  0  0  0
  -32.0480  -62.4610   47.5440 N   0  0  0  0  0  0  0  0  0  0  0  0
  -32.8880  -63.1830   48.2880 C   0  0  0  0  0  0  0  0  0  0  0  0
  -31.1810  -62.0760   48.0270 H   0  0  0  0  0  0  0  0  0  0  0  0
  -32.6340  -63.3800   49.5110 O   0  0  0  0  0  0  0  0  0  0  0  0
  -36.5430  -63.8560   50.2210 O   0  0  0  0  0  0  0  0  0  0  0  0
  -36.9300  -64.7700   50.3940 H   0  0  0  0  0  0  0  0  0  0  0  0
  1  2  2  0  0  0  0
  1 10  1  0  0  0  0
  3  1  1  0  0  0  0
  4  3  1  0  0  0  0
  4  5  1  0  0  0  0
  5 23  1  6  0  0  0
  5  6  1  0  0  0  0
  6  9  1  6  0  0  0
  6 32  1  0  0  0  0
  7  6  1  0  0  0  0
  8  7  1  0  0  0  0
  8  3  1  0  0  0  0
 10 11  1  0  0  0  0
 11 12  1  0  0  0  0
 12 21  1  0  0  0  0
 13 12  2  0  0  0  0
 13 14  1  0  0  0  0
 14 15  2  0  0  0  0
 14 16  1  0  0  0  0
 15 17  1  0  0  0  0
 16 20  2  0  0  0  0
 17 18  1  0  0  0  0
 17 19  2  0  0  0  0
 20 19  1  0  0  0  0
 21 16  1  0  0  0  0
 21 22  1  0  0  0  0
 23 29  1  0  0  0  0
 24 23  1  0  0  0  0
 25 26  1  0  0  0  0
 25 24  2  0  0  0  0
 26 28  1  0  0  0  0
 27 26  2  0  0  0  0
 28 30  1  0  0  0  0
 28 29  1  0  0  0  0
 29 31  2  0  0  0  0
 32 33  1  0  0  0  0
M  END
>  <Pose>
1

>  <Score>
-8.917

$$$$
