/Users/jonathanwahrer/Desktop/Msc/3_Semester/Drug_Design_Praktikum/waehrer_HTS_screening/HTS_experiment/out/docking_results/vina_output/3e7o/1404_docked.pdbqt
 OpenBabel03192216233D

 26 29  0  0  1  0  0  0  0  0999 V2000
  -40.8650  -67.9140   54.3950 Br  0  0  0  0  0  0  0  0  0  0  0  0
  -40.0670  -67.8030   52.6650 C   0  0  0  0  0  0  0  0  0  0  0  0
  -40.2270  -66.6820   51.8730 C   0  0  0  0  0  3  0  0  0  0  0  0
  -39.6710  -66.5550   50.6170 C   0  0  0  0  0  0  0  0  0  0  0  0
  -38.9160  -67.6440   50.1730 C   0  0  0  0  0  0  0  0  0  0  0  0
  -38.7570  -68.7580   50.9610 C   0  0  0  0  0  3  0  0  0  0  0  0
  -39.3190  -68.8710   52.2150 C   0  0  0  0  0  0  0  0  0  0  0  0
  -39.1140  -70.1040   53.0270 C   0  0  0  0  0  1  0  0  0  0  0  0
  -38.3710  -67.4790   48.9070 O   0  0  0  0  0  0  0  0  0  0  0  0
  -38.7090  -66.4280   48.0210 C   0  0  0  0  0  2  0  0  0  0  0  0
  -38.7900  -65.0690   48.7930 C   0  0  2  0  0  0  0  0  0  0  0  0
  -39.8560  -65.3810   49.7760 C   0  0  0  0  0  0  0  0  0  0  0  0
  -40.9100  -64.7490   49.9670 O   0  0  0  0  0  0  0  0  0  0  0  0
  -38.9870  -63.9930   47.9850 N   0  0  0  0  0  0  0  0  0  0  0  0
  -38.7690  -62.6650   48.3730 C   0  0  0  0  0  2  0  0  0  0  0  0
  -40.0860  -61.9980   48.7060 C   0  0  0  0  0  2  0  0  0  0  0  0
  -40.7920  -61.9260   47.4810 O   0  0  0  0  0  0  0  0  0  0  0  0
  -41.1810  -63.2530   47.2290 C   0  0  0  0  0  2  0  0  0  0  0  0
  -39.9170  -64.0680   46.9470 C   0  0  0  0  0  2  0  0  0  0  0  0
  -37.4740  -64.9990   49.4820 C   0  0  0  0  0  2  0  0  0  0  0  0
  -36.3110  -65.4370   48.7750 N   0  0  0  0  0  0  0  0  0  0  0  0
  -35.5790  -64.4890   48.0240 C   0  0  0  0  0  2  0  0  0  0  0  0
  -34.7370  -63.6000   48.9510 C   0  0  0  0  0  2  0  0  0  0  0  0
  -33.7830  -64.4510   49.5190 O   0  0  0  0  0  0  0  0  0  0  0  0
  -34.4680  -65.2970   50.3990 C   0  0  0  0  0  2  0  0  0  0  0  0
  -35.4530  -66.1810   49.6980 C   0  0  0  0  0  2  0  0  0  0  0  0
  2  1  1  0  0  0  0
  3  2  2  0  0  0  0
  4  3  1  0  0  0  0
  5  4  2  0  0  0  0
  5  6  1  0  0  0  0
  6  7  2  0  0  0  0
  7  2  1  0  0  0  0
  7  8  1  0  0  0  0
  9  5  1  0  0  0  0
 10 11  1  0  0  0  0
 10  9  1  0  0  0  0
 11 20  1  1  0  0  0
 11 12  1  0  0  0  0
 12 13  2  0  0  0  0
 12  4  1  0  0  0  0
 14 15  1  0  0  0  0
 14 11  1  0  0  0  0
 15 16  1  0  0  0  0
 17 16  1  0  0  0  0
 18 17  1  0  0  0  0
 19 18  1  0  0  0  0
 19 14  1  0  0  0  0
 21 20  1  0  0  0  0
 21 26  1  0  0  0  0
 22 21  1  0  0  0  0
 22 23  1  0  0  0  0
 23 24  1  0  0  0  0
 24 25  1  0  0  0  0
 26 25  1  0  0  0  0
M  END
>  <Pose>
1

>  <Score>
-6.789

$$$$
