/Users/jonathanwahrer/Desktop/Msc/3_Semester/Drug_Design_Praktikum/waehrer_HTS_screening/HTS_experiment/out/docking_results/vina_output/3e7o/1415_docked.pdbqt
 OpenBabel03192216233D

 32 35  0  0  1  0  0  0  0  0999 V2000
  -37.8210  -70.1070   50.6410 Br  0  0  0  0  0  0  0  0  0  0  0  0
  -38.9390  -68.7630   51.4260 C   0  0  0  0  0  0  0  0  0  0  0  0
  -39.3090  -67.6640   50.6880 C   0  0  0  0  0  0  0  0  0  0  0  0
  -40.1270  -66.6560   51.2260 C   0  0  0  0  0  0  0  0  0  0  0  0
  -40.5380  -66.8300   52.5290 C   0  0  0  0  0  3  0  0  0  0  0  0
  -40.1820  -67.9210   53.2910 C   0  0  0  0  0  0  0  0  0  0  0  0
  -39.3800  -68.8960   52.7420 C   0  0  0  0  0  0  0  0  0  0  0  0
  -38.9420  -70.1080   53.4810 C   0  0  0  0  0  1  0  0  0  0  0  0
  -40.7670  -68.1350   55.0950 Br  0  0  0  0  0  0  0  0  0  0  0  0
  -40.4900  -65.5140   50.4140 C   0  0  0  0  0  0  0  0  0  0  0  0
  -41.2910  -64.6760   50.8410 O   0  0  0  0  0  0  0  0  0  0  0  0
  -39.8950  -65.3590   49.0740 C   0  0  1  0  0  0  0  0  0  0  0  0
  -39.6870  -66.7490   48.5140 C   0  0  0  0  0  2  0  0  0  0  0  0
  -38.8740  -67.5250   49.3740 O   0  0  0  0  0  0  0  0  0  0  0  0
  -40.7090  -64.5060   48.1490 C   0  0  0  0  0  2  0  0  0  0  0  0
  -41.0090  -63.2040   48.6060 N   0  0  0  0  0  4  0  0  0  0  0  0
  -40.2580  -62.2380   47.8610 C   0  0  0  0  0  2  0  0  0  0  0  0
  -40.6900  -62.0510   46.4500 C   0  0  2  0  0  3  0  0  0  0  0  0
  -41.9540  -62.7050   46.0480 C   0  0  0  0  0  2  0  0  0  0  0  0
  -39.5770  -62.5980   45.5490 C   0  0  0  0  0  1  0  0  0  0  0  0
  -42.9110  -63.0250   47.1290 C   0  0  0  0  0  2  0  0  0  0  0  0
  -42.3890  -62.8130   48.5200 C   0  0  0  0  0  2  0  0  0  0  0  0
  -40.7270  -63.1040   49.6140 H   0  0  0  0  0  0  0  0  0  0  0  0
  -38.5330  -64.7320   49.2920 C   0  0  0  0  0  2  0  0  0  0  0  0
  -37.5080  -65.1830   48.4140 N   0  0  0  0  0  4  0  0  0  0  0  0
  -36.3520  -65.6440   49.1800 C   0  0  0  0  0  2  0  0  0  0  0  0
  -35.2480  -64.6290   49.2250 C   0  0  1  0  0  3  0  0  0  0  0  0
  -35.8340  -63.2510   49.4340 C   0  0  0  0  0  2  0  0  0  0  0  0
  -34.4090  -64.9340   50.4730 C   0  0  0  0  0  1  0  0  0  0  0  0
  -36.6160  -62.8960   48.2070 C   0  0  0  0  0  2  0  0  0  0  0  0
  -37.0170  -64.1700   47.5060 C   0  0  0  0  0  2  0  0  0  0  0  0
  -37.8290  -65.9840   47.8640 H   0  0  0  0  0  0  0  0  0  0  0  0
  1  2  1  0  0  0  0
  2  7  1  0  0  0  0
  3  4  1  0  0  0  0
  3  2  2  0  0  0  0
  4  5  2  0  0  0  0
  5  6  1  0  0  0  0
  6  9  1  0  0  0  0
  7  6  2  0  0  0  0
  7  8  1  0  0  0  0
 10 11  2  0  0  0  0
 10  4  1  0  0  0  0
 12 15  1  6  0  0  0
 12 24  1  0  0  0  0
 12 10  1  0  0  0  0
 13 12  1  0  0  0  0
 13 14  1  0  0  0  0
 14  3  1  0  0  0  0
 15 16  1  0  0  0  0
 16 23  1  0  0  0  0
 17 16  1  0  0  0  0
 18 20  1  6  0  0  0
 18 17  1  0  0  0  0
 19 18  1  0  0  0  0
 19 21  1  0  0  0  0
 21 22  1  0  0  0  0
 22 16  1  0  0  0  0
 25 26  1  0  0  0  0
 25 24  1  0  0  0  0
 26 27  1  0  0  0  0
 27 28  1  0  0  0  0
 27 29  1  1  0  0  0
 30 28  1  0  0  0  0
 31 30  1  0  0  0  0
 31 25  1  0  0  0  0
 32 25  1  0  0  0  0
M  END
>  <Pose>
1

>  <Score>
-7.405

$$$$
