/Users/jonathanwahrer/Desktop/Msc/3_Semester/Drug_Design_Praktikum/waehrer_HTS_screening/HTS_experiment/out/docking_results/vina_output/3e7o/1428_docked.pdbqt
 OpenBabel03192216243D

 37 40  0  0  1  0  0  0  0  0999 V2000
  -38.7150  -68.9360   50.9350 Cl  0  0  0  0  0  0  0  0  0  0  0  0
  -39.8450  -68.4140   52.1810 C   0  0  0  0  0  0  0  0  0  0  0  0
  -40.8290  -67.4960   51.9320 C   0  0  0  0  0  3  0  0  0  0  0  0
  -41.6860  -67.1230   52.9420 C   0  0  0  0  0  0  0  0  0  0  0  0
  -41.5200  -67.6920   54.1780 C   0  0  0  0  0  0  0  0  0  0  0  0
  -40.5140  -68.6290   54.4290 C   0  0  0  0  0  3  0  0  0  0  0  0
  -39.6700  -68.9910   53.4200 C   0  0  0  0  0  3  0  0  0  0  0  0
  -42.4790  -67.2270   55.1200 N   0  0  0  0  0  0  0  0  0  0  0  0
  -43.2910  -66.3160   54.4330 C   0  0  0  0  0  0  0  0  0  0  0  0
  -44.2690  -65.7260   55.0000 O   0  0  0  0  0  0  0  0  0  0  0  0
  -42.8300  -66.1860   53.0440 C   0  0  2  0  0  0  0  0  0  0  0  0
  -43.9170  -66.5600   52.1830 N   0  0  0  0  0  0  0  0  0  0  0  0
  -44.3770  -65.4010   51.4850 C   0  0  2  0  0  3  0  0  0  0  0  0
  -43.7660  -64.2090   52.1490 C   0  0  0  0  0  2  0  0  0  0  0  0
  -42.5130  -64.7850   52.7470 C   0  0  2  0  0  3  0  0  0  0  0  0
  -42.5670  -67.5080   56.1330 H   0  0  0  0  0  0  0  0  0  0  0  0
  -43.6510  -67.3540   51.5630 H   0  0  0  0  0  0  0  0  0  0  0  0
  -41.3110  -64.5430   51.9080 C   0  0  0  0  0  0  0  0  0  0  0  0
  -40.2860  -64.1510   52.5150 O   0  0  0  0  0  0  0  0  0  0  0  0
  -41.2800  -64.7280   50.5210 N   0  0  0  0  0  0  0  0  0  0  0  0
  -42.1990  -65.0740   50.1040 H   0  0  0  0  0  0  0  0  0  0  0  0
  -40.2220  -64.5310   49.6330 C   0  0  0  0  0  0  0  0  0  0  0  0
  -40.2500  -63.4420   48.7750 C   0  0  0  0  0  0  0  0  0  0  0  0
  -39.2370  -63.1850   47.8730 C   0  0  0  0  0  3  0  0  0  0  0  0
  -38.1420  -64.0070   47.7830 C   0  0  0  0  0  3  0  0  0  0  0  0
  -38.0860  -65.0880   48.6140 C   0  0  0  0  0  0  0  0  0  0  0  0
  -39.1150  -65.3350   49.5200 C   0  0  0  0  0  3  0  0  0  0  0  0
  -41.3210  -62.5660   48.8060 O   0  0  0  0  0  0  0  0  0  0  0  0
  -42.3330  -62.5330   47.8470 C   0  0  0  0  0  1  0  0  0  0  0  0
  -36.9990  -65.9410   48.5550 O   0  0  0  0  0  0  0  0  0  0  0  0
  -37.0580  -67.2150   47.9380 C   0  0  0  0  0  1  0  0  0  0  0  0
  -45.8950  -65.3240   51.4570 C   0  0  0  0  0  2  0  0  0  0  0  0
  -46.4960  -65.8610   52.6860 C   0  0  0  0  0  0  0  0  0  0  0  0
  -46.5900  -67.0870   52.8550 O   0  0  0  0  0  0  0  0  0  0  0  0
  -46.9680  -64.9790   53.6760 N   0  0  0  0  0  0  0  0  0  0  0  0
  -46.6960  -65.1580   54.6660 H   0  0  0  0  0  0  0  0  0  0  0  0
  -47.5780  -64.1460   53.4880 H   0  0  0  0  0  0  0  0  0  0  0  0
  1  2  1  0  0  0  0
  2  7  1  0  0  0  0
  3  2  2  0  0  0  0
  3  4  1  0  0  0  0
  4  5  2  0  0  0  0
  5  6  1  0  0  0  0
  5  8  1  0  0  0  0
  7  6  2  0  0  0  0
  8 16  1  0  0  0  0
  9 10  2  0  0  0  0
  9  8  1  0  0  0  0
 11  4  1  6  0  0  0
 11  9  1  0  0  0  0
 12 11  1  0  0  0  0
 13 32  1  1  0  0  0
 13 14  1  0  0  0  0
 13 12  1  0  0  0  0
 14 15  1  0  0  0  0
 15 18  1  6  0  0  0
 15 11  1  0  0  0  0
 17 12  1  0  0  0  0
 18 19  2  0  0  0  0
 20 18  1  0  0  0  0
 21 20  1  0  0  0  0
 22 20  1  0  0  0  0
 23 28  1  0  0  0  0
 23 22  2  0  0  0  0
 24 23  1  0  0  0  0
 25 24  2  0  0  0  0
 25 26  1  0  0  0  0
 26 27  2  0  0  0  0
 27 22  1  0  0  0  0
 29 28  1  0  0  0  0
 30 26  1  0  0  0  0
 31 30  1  0  0  0  0
 32 33  1  0  0  0  0
 33 34  2  0  0  0  0
 33 35  1  0  0  0  0
 35 36  1  0  0  0  0
 37 35  1  0  0  0  0
M  END
>  <Pose>
1

>  <Score>
-8.243

$$$$
