/Users/jonathanwahrer/Desktop/Msc/3_Semester/Drug_Design_Praktikum/waehrer_HTS_screening/HTS_experiment/out/docking_results/vina_output/3e7o/1432_docked.pdbqt
 OpenBabel03192216243D

 21 24  0  0  0  0  0  0  0  0999 V2000
  -38.3910  -68.6610   51.2180 C   0  0  0  0  0  0  0  0  0  0  0  0
  -39.1510  -67.7690   50.5620 N   0  0  0  0  0  0  0  0  0  0  0  0
  -40.2260  -67.4350   51.2940 N   0  0  0  0  0  0  0  0  0  0  0  0
  -40.1500  -68.1290   52.4440 C   0  0  0  0  0  0  0  0  0  0  0  0
  -39.0290  -68.8720   52.3890 N   0  0  0  0  0  0  0  0  0  0  0  0
  -41.1580  -67.9490   53.3710 C   0  0  0  0  0  0  0  0  0  0  0  0
  -42.2190  -67.0910   53.1480 C   0  0  0  0  0  0  0  0  0  0  0  0
  -43.0590  -67.1020   54.2050 N   0  0  0  0  0  0  0  0  0  0  0  0
  -42.5360  -67.9460   55.0730 N   0  0  0  0  0  0  0  0  0  0  0  0
  -41.3900  -68.4840   54.6160 C   0  0  0  0  0  3  0  0  0  0  0  0
  -44.2890  -66.3230   54.3320 C   0  0  0  0  0  1  0  0  0  0  0  0
  -42.2300  -66.4310   51.9770 N   0  0  0  0  0  0  0  0  0  0  0  0
  -41.2560  -66.5970   51.0680 C   0  0  0  0  0  3  0  0  0  0  0  0
  -37.1170  -69.2980   50.7820 C   0  0  0  0  0  2  0  0  0  0  0  0
  -36.2950  -68.3810   50.0100 N   0  0  0  0  0  0  0  0  0  0  0  0
  -35.3910  -67.5040   50.4930 C   0  0  0  0  0  3  0  0  0  0  0  0
  -34.8260  -66.8210   49.4180 C   0  0  0  0  0  0  0  0  0  0  0  0
  -33.4920  -65.4610   49.4610 Br  0  0  0  0  0  0  0  0  0  0  0  0
  -35.4280  -67.3270   48.2860 C   0  0  0  0  0  0  0  0  0  0  0  0
  -36.3090  -68.2670   48.6810 N   0  0  0  0  0  0  0  0  0  0  0  0
  -35.1100  -66.8690   46.9130 C   0  0  0  0  0  1  0  0  0  0  0  0
  1  5  1  0  0  0  0
  2  1  2  0  0  0  0
  2  3  1  0  0  0  0
  3  4  1  0  0  0  0
  4  6  1  0  0  0  0
  5  4  2  0  0  0  0
  6 10  1  0  0  0  0
  7  6  2  0  0  0  0
  7  8  1  0  0  0  0
  8 11  1  0  0  0  0
  8  9  1  0  0  0  0
 10  9  2  0  0  0  0
 12  7  1  0  0  0  0
 13  3  1  0  0  0  0
 13 12  2  0  0  0  0
 14  1  1  0  0  0  0
 15 16  1  0  0  0  0
 15 14  1  0  0  0  0
 17 18  1  0  0  0  0
 17 16  2  0  0  0  0
 19 20  2  0  0  0  0
 19 17  1  0  0  0  0
 20 15  1  0  0  0  0
 21 19  1  0  0  0  0
M  END
>  <Pose>
1

>  <Score>
-7.297

$$$$
