/Users/jonathanwahrer/Desktop/Msc/3_Semester/Drug_Design_Praktikum/waehrer_HTS_screening/HTS_experiment/out/docking_results/vina_output/3e7o/1433_docked.pdbqt
 OpenBabel03192216243D

 28 31  0  0  1  0  0  0  0  0999 V2000
  -35.0590  -69.6870   51.7220 Br  0  0  0  0  0  0  0  0  0  0  0  0
  -36.2650  -68.5530   50.7950 C   0  0  0  0  0  0  0  0  0  0  0  0
  -35.7760  -67.6570   49.8390 C   0  0  0  0  0  0  0  0  0  0  0  0
  -36.6210  -66.8300   49.1400 C   0  0  0  0  0  0  0  0  0  0  0  0
  -37.9650  -66.9140   49.4150 C   0  0  0  0  0  3  0  0  0  0  0  0
  -38.4790  -67.7980   50.3630 C   0  0  0  0  0  0  0  0  0  0  0  0
  -37.6070  -68.6360   51.0640 C   0  0  0  0  0  0  0  0  0  0  0  0
  -38.1440  -69.5880   52.0750 C   0  0  0  0  0  1  0  0  0  0  0  0
  -39.9390  -67.8360   50.6400 C   0  0  0  0  0  1  0  0  0  0  0  0
  -36.1940  -65.8740   48.0790 C   0  0  2  0  0  3  0  0  0  0  0  0
  -34.7110  -65.6990   47.9600 C   0  0  2  0  0  0  0  0  0  0  0  0
  -34.0610  -66.1460   49.2560 C   0  0  0  0  0  2  0  0  0  0  0  0
  -34.4300  -67.5230   49.5280 O   0  0  0  0  0  0  0  0  0  0  0  0
  -34.4790  -64.2770   47.8170 N   0  0  0  0  0  0  0  0  0  0  0  0
  -34.3510  -63.8500   46.4640 C   0  0  0  0  0  2  0  0  0  0  0  0
  -33.7280  -62.4980   46.2670 C   0  0  0  0  0  2  0  0  0  0  0  0
  -32.7170  -62.1870   47.1360 O   0  0  0  0  0  0  0  0  0  0  0  0
  -33.2250  -62.2820   48.4390 C   0  0  0  0  0  2  0  0  0  0  0  0
  -33.4090  -63.8080   48.6470 C   0  0  0  0  0  2  0  0  0  0  0  0
  -34.0420  -66.5030   46.9110 C   0  0  0  0  0  2  0  0  0  0  0  0
  -32.8040  -67.1150   47.0700 N   0  0  0  0  0  0  0  0  0  0  0  0
  -32.5780  -68.0860   45.9450 C   0  0  0  0  0  2  0  0  0  0  0  0
  -32.7080  -67.4190   44.6260 C   0  0  0  0  0  2  0  0  0  0  0  0
  -32.3340  -66.1020   44.6030 O   0  0  0  0  0  0  0  0  0  0  0  0
  -31.4420  -65.7150   45.5600 C   0  0  0  0  0  2  0  0  0  0  0  0
  -31.6000  -66.3190   46.9190 C   0  0  0  0  0  2  0  0  0  0  0  0
  -36.8130  -64.6200   48.3760 O   0  0  0  0  0  0  0  0  0  0  0  0
  -37.3400  -64.7520   49.2020 H   0  0  0  0  0  0  0  0  0  0  0  0
  2  7  1  0  0  0  0
  2  1  1  0  0  0  0
  3  2  2  0  0  0  0
  4  5  2  0  0  0  0
  4  3  1  0  0  0  0
  5  6  1  0  0  0  0
  6  9  1  0  0  0  0
  6  7  2  0  0  0  0
  7  8  1  0  0  0  0
 10 27  1  1  0  0  0
 10  4  1  0  0  0  0
 11 20  1  6  0  0  0
 11 10  1  0  0  0  0
 11 12  1  0  0  0  0
 12 13  1  0  0  0  0
 13  3  1  0  0  0  0
 14 11  1  0  0  0  0
 14 19  1  0  0  0  0
 15 14  1  0  0  0  0
 16 15  1  0  0  0  0
 16 17  1  0  0  0  0
 17 18  1  0  0  0  0
 18 19  1  0  0  0  0
 20 21  1  0  0  0  0
 22 21  1  0  0  0  0
 23 22  1  0  0  0  0
 24 23  1  0  0  0  0
 24 25  1  0  0  0  0
 25 26  1  0  0  0  0
 26 21  1  0  0  0  0
 27 28  1  0  0  0  0
M  END
>  <Pose>
1

>  <Score>
-6.785

$$$$
