/Users/jonathanwahrer/Desktop/Msc/3_Semester/Drug_Design_Praktikum/waehrer_HTS_screening/HTS_experiment/out/docking_results/vina_output/3e7o/1434_docked.pdbqt
 OpenBabel03192216243D

 28 31  0  0  1  0  0  0  0  0999 V2000
  -40.3670  -65.7390   50.0550 C   0  0  0  0  0  0  0  0  0  0  0  0
  -41.1840  -66.7330   49.7200 O   0  0  0  0  0  0  0  0  0  0  0  0
  -39.3360  -65.5180   49.1550 N   0  0  0  0  0  0  0  0  0  0  0  0
  -38.3060  -64.5450   49.2250 C   0  0  0  0  0  2  0  0  0  0  0  0
  -36.9720  -65.2230   49.5430 C   0  0  0  0  0  2  0  0  0  0  0  0
  -36.9470  -66.6110   48.9250 C   0  0  1  0  0  0  0  0  0  0  0  0
  -35.5680  -66.8350   48.5240 N   0  0  0  0  0  0  0  0  0  0  0  0
  -34.9070  -67.4300   49.6610 C   0  0  0  0  0  0  0  0  0  0  0  0
  -33.6660  -67.4860   49.8460 O   0  0  0  0  0  0  0  0  0  0  0  0
  -35.9350  -67.9410   50.5310 N   0  0  0  0  0  0  0  0  0  0  0  0
  -37.1950  -67.6620   49.9340 C   0  0  0  0  0  0  0  0  0  0  0  0
  -38.2770  -68.2190   50.2340 O   0  0  0  0  0  0  0  0  0  0  0  0
  -37.8160  -66.7200   47.7130 C   0  0  0  0  0  2  0  0  0  0  0  0
  -39.2520  -66.3890   47.9580 C   0  0  0  0  0  2  0  0  0  0  0  0
  -35.1310  -66.6170   47.6050 H   0  0  0  0  0  0  0  0  0  0  0  0
  -35.7780  -68.4230   51.4270 H   0  0  0  0  0  0  0  0  0  0  0  0
  -40.7600  -65.1190   51.3040 C   0  0  0  0  0  2  0  0  0  0  0  0
  -41.7790  -65.7100   52.1000 N   0  0  0  0  0  0  0  0  0  0  0  0
  -41.5500  -66.7520   52.9530 C   0  0  0  0  0  0  0  0  0  0  0  0
  -42.7210  -67.0780   53.5880 C   0  0  0  0  0  0  0  0  0  0  0  0
  -40.3910  -67.4730   53.2440 C   0  0  0  0  0  3  0  0  0  0  0  0
  -43.6810  -66.2190   53.1130 C   0  0  0  0  0  0  0  0  0  0  0  0
  -42.7420  -68.1140   54.5080 C   0  0  0  0  0  3  0  0  0  0  0  0
  -45.5010  -66.2650   53.6950 Br  0  0  0  0  0  0  0  0  0  0  0  0
  -43.0890  -65.3870   52.2040 C   0  0  0  0  0  0  0  0  0  0  0  0
  -43.7610  -64.3040   51.4510 C   0  0  0  0  0  1  0  0  0  0  0  0
  -41.5940  -68.8200   54.7890 C   0  0  0  0  0  3  0  0  0  0  0  0
  -40.4170  -68.5110   54.1670 C   0  0  0  0  0  3  0  0  0  0  0  0
  1 17  1  0  0  0  0
  2  1  2  0  0  0  0
  3  4  1  0  0  0  0
  3  1  1  0  0  0  0
  4  5  1  0  0  0  0
  6 13  1  6  0  0  0
  6  5  1  0  0  0  0
  6 11  1  0  0  0  0
  7  6  1  0  0  0  0
  7  8  1  0  0  0  0
  8  9  2  0  0  0  0
  8 10  1  0  0  0  0
 10 16  1  0  0  0  0
 11 12  2  0  0  0  0
 11 10  1  0  0  0  0
 13 14  1  0  0  0  0
 14  3  1  0  0  0  0
 15  7  1  0  0  0  0
 17 18  1  0  0  0  0
 18 25  1  0  0  0  0
 18 19  1  0  0  0  0
 19 21  2  0  0  0  0
 19 20  1  0  0  0  0
 20 23  2  0  0  0  0
 21 28  1  0  0  0  0
 22 20  1  0  0  0  0
 22 24  1  0  0  0  0
 23 27  1  0  0  0  0
 25 22  2  0  0  0  0
 26 25  1  0  0  0  0
 28 27  2  0  0  0  0
M  END
>  <Pose>
1

>  <Score>
-8.827

$$$$
