/Users/jonathanwahrer/Desktop/Msc/3_Semester/Drug_Design_Praktikum/waehrer_HTS_screening/HTS_experiment/out/docking_results/vina_output/3e7o/1435_docked.pdbqt
 OpenBabel03192216253D

 32 35  0  0  0  0  0  0  0  0999 V2000
  -37.1230  -68.8440   50.4860 C   0  0  0  0  0  2  0  0  0  0  0  0
  -36.6870  -68.3070   49.1300 C   0  0  0  0  0  2  0  0  0  0  0  0
  -36.2100  -66.9480   49.2300 N   0  0  0  0  0  0  0  0  0  0  0  0
  -35.1390  -66.4710   49.9100 C   0  0  0  0  0  0  0  0  0  0  0  0
  -33.9760  -67.5810   50.9400 Br  0  0  0  0  0  0  0  0  0  0  0  0
  -35.0360  -65.1390   49.7490 N   0  0  0  0  0  0  0  0  0  0  0  0
  -36.0470  -64.7210   48.9510 C   0  0  0  0  0  0  0  0  0  0  0  0
  -36.7600  -65.8610   48.6440 C   0  0  0  0  0  0  0  0  0  0  0  0
  -36.3920  -63.4990   48.4880 N   0  0  0  0  0  0  0  0  0  0  0  0
  -37.8700  -65.7310   47.8260 C   0  0  0  0  0  0  0  0  0  0  0  0
  -38.2050  -64.5140   47.3720 N   0  0  0  0  0  0  0  0  0  0  0  0
  -38.5070  -66.7730   47.5560 O   0  0  0  0  0  0  0  0  0  0  0  0
  -37.4770  -63.4110   47.6970 C   0  0  0  0  0  0  0  0  0  0  0  0
  -39.0430  -64.4060   46.7530 H   0  0  0  0  0  0  0  0  0  0  0  0
  -37.8590  -62.3070   47.2280 O   0  0  0  0  0  0  0  0  0  0  0  0
  -35.6310  -62.3100   48.8220 C   0  0  0  0  0  1  0  0  0  0  0  0
  -38.3290  -68.1030   50.9990 C   0  0  0  0  0  2  0  0  0  0  0  0
  -39.5340  -68.9600   51.2490 C   0  0  0  0  0  2  0  0  0  0  0  0
  -40.3770  -68.3620   52.2310 N   0  0  0  0  0  0  0  0  0  0  0  0
  -41.3080  -67.4170   52.1200 C   0  0  0  0  0  0  0  0  0  0  0  0
  -41.8820  -67.2060   53.3690 C   0  0  0  0  0  0  0  0  0  0  0  0
  -41.7760  -66.6540   51.0820 C   0  0  0  0  0  0  0  0  0  0  0  0
  -41.2650  -68.0440   54.1960 N   0  0  0  0  0  0  0  0  0  0  0  0
  -42.8480  -66.2970   53.5340 N   0  0  0  0  0  0  0  0  0  0  0  0
  -40.3510  -68.7520   53.5300 C   0  0  0  0  0  0  0  0  0  0  0  0
  -39.2300  -70.0720   54.3270 Br  0  0  0  0  0  0  0  0  0  0  0  0
  -43.2900  -65.5600   52.4960 C   0  0  0  0  0  0  0  0  0  0  0  0
  -43.4670  -66.0550   54.8320 C   0  0  0  0  0  1  0  0  0  0  0  0
  -44.1990  -64.7080   52.6590 O   0  0  0  0  0  0  0  0  0  0  0  0
  -42.7470  -65.7520   51.2900 N   0  0  0  0  0  0  0  0  0  0  0  0
  -43.0650  -65.1940   50.4480 H   0  0  0  0  0  0  0  0  0  0  0  0
  -41.2790  -66.8180   49.9500 O   0  0  0  0  0  0  0  0  0  0  0  0
  1 17  1  0  0  0  0
  2  3  1  0  0  0  0
  2  1  1  0  0  0  0
  3  4  1  0  0  0  0
  4  5  1  0  0  0  0
  6  4  2  0  0  0  0
  7  6  1  0  0  0  0
  8  7  2  0  0  0  0
  8  3  1  0  0  0  0
  9 16  1  0  0  0  0
  9  7  1  0  0  0  0
 10  8  1  0  0  0  0
 11 13  1  0  0  0  0
 11 10  1  0  0  0  0
 12 10  2  0  0  0  0
 13  9  1  0  0  0  0
 14 11  1  0  0  0  0
 15 13  2  0  0  0  0
 17 18  1  0  0  0  0
 18 19  1  0  0  0  0
 19 25  1  0  0  0  0
 20 19  1  0  0  0  0
 20 21  2  0  0  0  0
 21 24  1  0  0  0  0
 21 23  1  0  0  0  0
 22 30  1  0  0  0  0
 22 20  1  0  0  0  0
 24 28  1  0  0  0  0
 25 23  2  0  0  0  0
 25 26  1  0  0  0  0
 27 29  2  0  0  0  0
 27 24  1  0  0  0  0
 30 27  1  0  0  0  0
 31 30  1  0  0  0  0
 32 22  2  0  0  0  0
M  END
>  <Pose>
1

>  <Score>
-8.310

$$$$
