/Users/jonathanwahrer/Desktop/Msc/3_Semester/Drug_Design_Praktikum/waehrer_HTS_screening/HTS_experiment/out/docking_results/vina_output/3e7o/1436_docked.pdbqt
 OpenBabel03192216253D

 33 36  0  0  0  0  0  0  0  0999 V2000
  -39.8660  -65.4260   48.0590 O   0  0  0  0  0  0  0  0  0  0  0  0
  -38.7730  -64.6730   48.3340 C   0  0  0  0  0  2  0  0  0  0  0  0
  -37.6950  -64.4590   47.3540 C   0  0  0  0  0  2  0  0  0  0  0  0
  -36.3990  -64.9690   47.6490 N   0  0  0  0  0  0  0  0  0  0  0  0
  -35.9120  -66.2080   47.6190 C   0  0  0  0  0  0  0  0  0  0  0  0
  -36.8670  -67.8210   47.2370 Br  0  0  0  0  0  0  0  0  0  0  0  0
  -34.6000  -66.2330   47.9480 N   0  0  0  0  0  0  0  0  0  0  0  0
  -34.2550  -64.9760   48.1930 C   0  0  0  0  0  0  0  0  0  0  0  0
  -35.3580  -64.1700   48.0150 C   0  0  0  0  0  0  0  0  0  0  0  0
  -33.0760  -64.4080   48.5710 N   0  0  0  0  0  0  0  0  0  0  0  0
  -35.3020  -62.8040   48.2090 C   0  0  0  0  0  0  0  0  0  0  0  0
  -34.0940  -62.2960   48.5860 N   0  0  0  0  0  0  0  0  0  0  0  0
  -36.2970  -62.0530   48.0540 O   0  0  0  0  0  0  0  0  0  0  0  0
  -33.0250  -63.0900   48.7570 C   0  0  0  0  0  0  0  0  0  0  0  0
  -34.0390  -61.2660   48.7350 H   0  0  0  0  0  0  0  0  0  0  0  0
  -31.9160  -62.5910   49.1060 O   0  0  0  0  0  0  0  0  0  0  0  0
  -31.8930  -65.2200   48.7680 C   0  0  0  0  0  1  0  0  0  0  0  0
  -39.9350  -66.5400   48.8800 C   0  0  0  0  0  2  0  0  0  0  0  0
  -39.3570  -66.1980   50.2210 C   0  0  0  0  0  2  0  0  0  0  0  0
  -40.1080  -66.7710   51.2920 N   0  0  0  0  0  0  0  0  0  0  0  0
  -41.1500  -66.2010   51.9120 C   0  0  0  0  0  0  0  0  0  0  0  0
  -41.5820  -67.0590   52.8740 C   0  0  0  0  0  0  0  0  0  0  0  0
  -41.7900  -64.9900   51.7340 C   0  0  0  0  0  0  0  0  0  0  0  0
  -40.7940  -68.1300   52.8170 N   0  0  0  0  0  0  0  0  0  0  0  0
  -42.6290  -66.7300   53.6510 N   0  0  0  0  0  0  0  0  0  0  0  0
  -39.8710  -67.9890   51.8510 C   0  0  0  0  0  0  0  0  0  0  0  0
  -38.4940  -69.1810   51.3140 Br  0  0  0  0  0  0  0  0  0  0  0  0
  -43.2310  -65.5590   53.4620 C   0  0  0  0  0  0  0  0  0  0  0  0
  -43.1020  -67.6310   54.6800 C   0  0  0  0  0  1  0  0  0  0  0  0
  -44.2110  -65.2630   54.1970 O   0  0  0  0  0  0  0  0  0  0  0  0
  -42.8260  -64.7070   52.5290 N   0  0  0  0  0  0  0  0  0  0  0  0
  -43.3110  -63.7930   52.3970 H   0  0  0  0  0  0  0  0  0  0  0  0
  -41.4330  -64.1470   50.8510 O   0  0  0  0  0  0  0  0  0  0  0  0
  1  2  1  0  0  0  0
  1 18  1  0  0  0  0
  3  4  1  0  0  0  0
  3  2  1  0  0  0  0
  4  9  1  0  0  0  0
  5  4  1  0  0  0  0
  5  7  2  0  0  0  0
  6  5  1  0  0  0  0
  7  8  1  0  0  0  0
  8 10  1  0  0  0  0
  9  8  2  0  0  0  0
  9 11  1  0  0  0  0
 10 14  1  0  0  0  0
 10 17  1  0  0  0  0
 11 12  1  0  0  0  0
 12 15  1  0  0  0  0
 12 14  1  0  0  0  0
 13 11  2  0  0  0  0
 14 16  2  0  0  0  0
 18 19  1  0  0  0  0
 19 20  1  0  0  0  0
 20 26  1  0  0  0  0
 20 21  1  0  0  0  0
 21 22  2  0  0  0  0
 22 25  1  0  0  0  0
 23 21  1  0  0  0  0
 23 31  1  0  0  0  0
 24 22  1  0  0  0  0
 25 29  1  0  0  0  0
 26 24  2  0  0  0  0
 27 26  1  0  0  0  0
 28 25  1  0  0  0  0
 28 30  2  0  0  0  0
 31 28  1  0  0  0  0
 32 31  1  0  0  0  0
 33 23  2  0  0  0  0
M  END
>  <Pose>
1

>  <Score>
-7.776

$$$$
