/Users/jonathanwahrer/Desktop/Msc/3_Semester/Drug_Design_Praktikum/waehrer_HTS_screening/HTS_experiment/out/docking_results/vina_output/3e7o/1444_docked.pdbqt
 OpenBabel03192216253D

 33 36  0  0  0  0  0  0  0  0999 V2000
  -39.6620  -66.4120   49.2330 N   0  0  0  0  0  0  0  0  0  0  0  0
  -40.5940  -66.7230   50.1720 C   0  0  0  0  0  0  0  0  0  0  0  0
  -41.5210  -67.5500   49.5810 O   0  0  0  0  0  0  0  0  0  0  0  0
  -39.8760  -66.9110   48.2490 H   0  0  0  0  0  0  0  0  0  0  0  0
  -40.9490  -66.4960   51.5630 C   0  0  0  0  0  2  0  0  0  0  0  0
  -40.9610  -67.4520   52.5850 N   0  0  0  0  0  0  0  0  0  0  0  0
  -40.1770  -68.7140   52.5190 C   0  0  0  0  0  2  0  0  0  0  0  0
  -40.7540  -69.5790   53.6200 C   0  0  0  0  0  2  0  0  0  0  0  0
  -40.4780  -68.9180   54.9450 C   0  0  0  0  0  2  0  0  0  0  0  0
  -41.2990  -67.6510   55.0540 C   0  0  0  0  0  2  0  0  0  0  0  0
  -41.8300  -67.2720   53.7130 C   0  0  0  0  0  0  0  0  0  0  0  0
  -43.0980  -66.8780   53.5780 C   0  0  0  0  0  0  0  0  0  0  0  0
  -43.9480  -66.6910   54.7220 N   0  0  0  0  0  0  0  0  0  0  0  0
  -43.8970  -66.6360   52.4640 N   0  0  0  0  0  0  0  0  0  0  0  0
  -45.2400  -66.3410   54.2890 N   0  0  0  0  0  0  0  0  0  0  0  0
  -43.7580  -66.7680   55.7400 H   0  0  0  0  0  0  0  0  0  0  0  0
  -45.2320  -66.2990   52.8800 C   0  0  0  0  0  0  0  0  0  0  0  0
  -46.0850  -66.1380   54.8800 H   0  0  0  0  0  0  0  0  0  0  0  0
  -46.1620  -66.0310   52.0860 O   0  0  0  0  0  0  0  0  0  0  0  0
  -43.6010  -66.7080   51.4770 H   0  0  0  0  0  0  0  0  0  0  0  0
  -38.5580  -65.5790   49.1030 C   0  0  0  0  0  0  0  0  0  0  0  0
  -37.2890  -65.9500   48.7570 N   0  0  0  0  0  0  0  0  0  0  0  0
  -36.5370  -64.8590   48.6800 N   0  0  0  0  0  0  0  0  0  0  0  0
  -37.2360  -63.7720   48.9560 C   0  0  0  0  0  3  0  0  0  0  0  0
  -38.5410  -64.2080   49.2300 C   0  0  0  0  0  3  0  0  0  0  0  0
  -36.8670  -67.2880   48.5300 C   0  0  0  0  0  2  0  0  0  0  0  0
  -36.3340  -67.9710   49.7230 C   0  0  0  0  0  0  0  0  0  0  0  0
  -35.0510  -67.8350   50.1670 C   0  0  0  0  0  0  0  0  0  0  0  0
  -33.9370  -66.8010   49.3030 Cl  0  0  0  0  0  0  0  0  0  0  0  0
  -34.6090  -68.4980   51.2880 C   0  0  0  0  0  3  0  0  0  0  0  0
  -35.4480  -69.3240   52.0020 C   0  0  0  0  0  3  0  0  0  0  0  0
  -36.7470  -69.4680   51.5620 C   0  0  0  0  0  3  0  0  0  0  0  0
  -37.1680  -68.7980   50.4420 C   0  0  0  0  0  3  0  0  0  0  0  0
  1  2  1  0  0  0  0
  2  5  1  0  0  0  0
  3  2  2  0  0  0  0
  4  1  1  0  0  0  0
  5  6  1  0  0  0  0
  6 11  1  0  0  0  0
  7  6  1  0  0  0  0
  7  8  1  0  0  0  0
  8  9  1  0  0  0  0
  9 10  1  0  0  0  0
 11 10  1  0  0  0  0
 12 11  2  0  0  0  0
 12 13  1  0  0  0  0
 13 16  1  0  0  0  0
 14 17  1  0  0  0  0
 14 12  1  0  0  0  0
 15 13  1  0  0  0  0
 15 18  1  0  0  0  0
 17 15  1  0  0  0  0
 19 17  2  0  0  0  0
 20 14  1  0  0  0  0
 21 25  2  0  0  0  0
 21  1  1  0  0  0  0
 22 21  1  0  0  0  0
 23 22  1  0  0  0  0
 23 24  2  0  0  0  0
 24 25  1  0  0  0  0
 26 22  1  0  0  0  0
 26 27  1  0  0  0  0
 27 28  2  0  0  0  0
 27 33  1  0  0  0  0
 28 30  1  0  0  0  0
 29 28  1  0  0  0  0
 30 31  2  0  0  0  0
 32 31  1  0  0  0  0
 33 32  2  0  0  0  0
M  END
>  <Pose>
1

>  <Score>
-8.930

$$$$
