/Users/jonathanwahrer/Desktop/Msc/3_Semester/Drug_Design_Praktikum/waehrer_HTS_screening/HTS_experiment/out/docking_results/vina_output/3e7o/1447_docked.pdbqt
 OpenBabel03192216263D

 38 41  0  0  0  0  0  0  0  0999 V2000
  -39.1020  -62.8260   47.9410 C   0  0  0  0  0  0  0  0  0  0  0  0
  -39.8100  -62.1430   46.9850 N   0  0  0  0  0  0  0  0  0  0  0  0
  -38.9920  -61.4120   46.2790 N   0  0  0  0  0  0  0  0  0  0  0  0
  -37.7440  -61.5490   46.6920 N   0  0  0  0  0  0  0  0  0  0  0  0
  -37.7830  -62.4150   47.7190 C   0  0  0  0  0  0  0  0  0  0  0  0
  -39.6740  -63.7350   48.9160 C   0  0  0  0  0  0  0  0  0  0  0  0
  -39.8510  -65.1090   48.8320 N   0  0  0  0  0  0  0  0  0  0  0  0
  -39.5990  -65.7340   48.0300 H   0  0  0  0  0  0  0  0  0  0  0  0
  -40.0670  -63.1690   50.0050 O   0  0  0  0  0  0  0  0  0  0  0  0
  -40.4500  -65.7630   49.9620 N   0  0  0  0  0  0  0  0  0  0  0  0
  -39.7380  -66.5620   50.6730 C   0  0  0  0  0  3  0  0  0  0  0  0
  -40.2460  -67.2730   51.8370 C   0  0  0  0  0  0  0  0  0  0  0  0
  -41.4250  -66.9120   52.4300 C   0  0  0  0  0  3  0  0  0  0  0  0
  -41.9270  -67.5790   53.5430 C   0  0  0  0  0  0  0  0  0  0  0  0
  -41.2180  -68.6510   54.0800 C   0  0  0  0  0  0  0  0  0  0  0  0
  -43.5650  -67.0440   54.3330 Br  0  0  0  0  0  0  0  0  0  0  0  0
  -40.0420  -69.0170   53.4950 C   0  0  0  0  0  0  0  0  0  0  0  0
  -39.0470  -70.4710   54.1930 Br  0  0  0  0  0  0  0  0  0  0  0  0
  -39.5550  -68.3350   52.3780 C   0  0  0  0  0  0  0  0  0  0  0  0
  -41.7350  -69.3030   55.1900 O   0  0  0  0  0  0  0  0  0  0  0  0
  -42.6730  -69.1220   55.5090 H   0  0  0  0  0  0  0  0  0  0  0  0
  -38.3620  -68.6920   51.7690 O   0  0  0  0  0  0  0  0  0  0  0  0
  -38.2820  -69.5780   51.2870 H   0  0  0  0  0  0  0  0  0  0  0  0
  -36.6430  -62.9160   48.4920 C   0  0  0  0  0  2  0  0  0  0  0  0
  -35.7930  -63.8660   47.7680 N   0  0  0  0  0  0  0  0  0  0  0  0
  -36.1940  -65.2350   48.1470 C   0  0  0  0  0  2  0  0  0  0  0  0
  -36.3300  -65.3300   49.6260 C   0  0  0  0  0  2  0  0  0  0  0  0
  -35.1700  -64.9030   50.2250 O   0  0  0  0  0  0  0  0  0  0  0  0
  -34.1290  -64.6960   49.3580 C   0  0  0  0  0  2  0  0  0  0  0  0
  -34.4040  -63.7030   48.2590 C   0  0  0  0  0  2  0  0  0  0  0  0
  -36.6350  -60.9020   46.0930 C   0  0  0  0  0  0  0  0  0  0  0  0
  -35.5270  -61.4370   45.5380 N   0  0  0  0  0  0  0  0  0  0  0  0
  -34.7530  -60.4850   45.0890 O   0  0  0  0  0  0  0  0  0  0  0  0
  -35.2910  -59.3140   45.3170 N   0  0  0  0  0  0  0  0  0  0  0  0
  -36.4610  -59.5350   45.9390 C   0  0  0  0  0  0  0  0  0  0  0  0
  -37.3450  -58.5150   46.3530 N   0  0  0  0  0  0  0  0  0  0  0  0
  -37.6930  -58.5210   47.3290 H   0  0  0  0  0  0  0  0  0  0  0  0
  -37.6610  -57.7590   45.7200 H   0  0  0  0  0  0  0  0  0  0  0  0
  1  6  1  0  0  0  0
  2  1  1  0  0  0  0
  3  4  1  0  0  0  0
  3  2  2  0  0  0  0
  4  5  1  0  0  0  0
  5  1  2  0  0  0  0
  5 24  1  0  0  0  0
  6  9  2  0  0  0  0
  7  6  1  0  0  0  0
  7 10  1  0  0  0  0
  8  7  1  0  0  0  0
 10 11  2  0  0  0  0
 11 12  1  0  0  0  0
 12 19  2  0  0  0  0
 12 13  1  0  0  0  0
 13 14  2  0  0  0  0
 14 15  1  0  0  0  0
 14 16  1  0  0  0  0
 15 20  1  0  0  0  0
 17 15  2  0  0  0  0
 17 18  1  0  0  0  0
 19 17  1  0  0  0  0
 20 21  1  0  0  0  0
 22 19  1  0  0  0  0
 23 22  1  0  0  0  0
 25 26  1  0  0  0  0
 25 30  1  0  0  0  0
 25 24  1  0  0  0  0
 26 27  1  0  0  0  0
 27 28  1  0  0  0  0
 29 28  1  0  0  0  0
 30 29  1  0  0  0  0
 31  4  1  0  0  0  0
 32 31  2  0  0  0  0
 33 34  1  0  0  0  0
 33 32  1  0  0  0  0
 34 35  2  0  0  0  0
 35 31  1  0  0  0  0
 35 36  1  0  0  0  0
 36 37  1  0  0  0  0
 38 36  1  0  0  0  0
M  END
>  <Pose>
1

>  <Score>
-7.537

$$$$
