/Users/jonathanwahrer/Desktop/Msc/3_Semester/Drug_Design_Praktikum/waehrer_HTS_screening/HTS_experiment/out/docking_results/vina_output/3e7o/1466_docked.pdbqt
 OpenBabel03192216263D

 29 32  0  0  0  0  0  0  0  0999 V2000
  -40.2430  -64.6860   49.2880 N   0  0  0  0  0  0  0  0  0  0  0  0
  -39.6470  -64.1860   50.3570 N   0  0  0  0  0  0  0  0  0  0  0  0
  -40.5030  -64.0940   51.3660 N   0  0  0  0  0  0  0  0  0  0  0  0
  -41.7050  -64.5420   50.9700 C   0  0  0  0  0  0  0  0  0  0  0  0
  -41.5320  -64.9140   49.6570 C   0  0  0  0  0  3  0  0  0  0  0  0
  -39.6630  -64.9520   47.9670 C   0  0  0  0  0  2  0  0  0  0  0  0
  -39.0420  -66.3280   48.0510 C   0  0  0  0  0  2  0  0  0  0  0  0
  -39.5710  -67.0640   49.1890 N   0  0  0  0  0  0  0  0  0  0  0  0
  -38.6580  -67.4960   50.1870 C   0  0  0  0  0  0  0  0  0  0  0  0
  -37.4160  -67.2340   50.0640 O   0  0  0  0  0  0  0  0  0  0  0  0
  -40.5860  -67.2690   49.2760 H   0  0  0  0  0  0  0  0  0  0  0  0
  -39.0770  -68.2390   51.3670 C   0  0  0  0  0  0  0  0  0  0  0  0
  -38.3930  -69.3570   51.7470 C   0  0  0  0  0  3  0  0  0  0  0  0
  -38.7000  -70.1100   52.8200 N   0  0  0  0  0  0  0  0  0  0  0  0
  -39.7590  -69.7480   53.5820 C   0  0  0  0  0  3  0  0  0  0  0  0
  -40.4920  -68.6300   53.2530 C   0  0  0  0  0  0  0  0  0  0  0  0
  -41.9770  -68.1550   54.3570 Br  0  0  0  0  0  0  0  0  0  0  0  0
  -40.1590  -67.8600   52.1380 C   0  0  0  0  0  3  0  0  0  0  0  0
  -42.9250  -64.6200   51.7520 C   0  0  0  0  0  0  0  0  0  0  0  0
  -43.8390  -65.6070   51.7380 N   0  0  0  0  0  0  0  0  0  0  0  0
  -44.8250  -65.3130   52.6010 C   0  0  0  0  0  0  0  0  0  0  0  0
  -44.4950  -64.1290   53.1400 N   0  0  0  0  0  0  0  0  0  0  0  0
  -43.3690  -63.7480   52.6190 O   0  0  0  0  0  0  0  0  0  0  0  0
  -46.0260  -66.1240   52.8950 C   0  0  0  0  0  0  0  0  0  0  0  0
  -47.2770  -65.6080   52.6490 C   0  0  0  0  0  3  0  0  0  0  0  0
  -48.3780  -66.3370   52.9120 N   0  0  0  0  0  0  0  0  0  0  0  0
  -48.3270  -67.5860   53.4200 C   0  0  0  0  0  3  0  0  0  0  0  0
  -47.0670  -68.0950   53.6630 C   0  0  0  0  0  3  0  0  0  0  0  0
  -45.9210  -67.3870   53.4090 C   0  0  0  0  0  3  0  0  0  0  0  0
  1  5  1  0  0  0  0
  1  2  1  0  0  0  0
  2  3  2  0  0  0  0
  4  3  1  0  0  0  0
  4 19  1  0  0  0  0
  5  4  2  0  0  0  0
  6  7  1  0  0  0  0
  6  1  1  0  0  0  0
  7  8  1  0  0  0  0
  8 11  1  0  0  0  0
  8  9  1  0  0  0  0
  9 12  1  0  0  0  0
 10  9  2  0  0  0  0
 12 13  2  0  0  0  0
 12 18  1  0  0  0  0
 13 14  1  0  0  0  0
 14 15  2  0  0  0  0
 16 15  1  0  0  0  0
 16 17  1  0  0  0  0
 18 16  2  0  0  0  0
 19 23  1  0  0  0  0
 20 19  2  0  0  0  0
 20 21  1  0  0  0  0
 21 24  1  0  0  0  0
 21 22  2  0  0  0  0
 23 22  1  0  0  0  0
 24 29  1  0  0  0  0
 25 24  2  0  0  0  0
 25 26  1  0  0  0  0
 26 27  2  0  0  0  0
 27 28  1  0  0  0  0
 29 28  2  0  0  0  0
M  END
>  <Pose>
1

>  <Score>
-7.927

$$$$
