/Users/jonathanwahrer/Desktop/Msc/3_Semester/Drug_Design_Praktikum/waehrer_HTS_screening/HTS_experiment/out/docking_results/vina_output/3e7o/1477_docked.pdbqt
 OpenBabel03192216273D

 35 39  0  0  1  0  0  0  0  0999 V2000
  -39.2970  -65.1990   48.2490 C   0  0  2  0  0  3  0  0  0  0  0  0
  -39.3000  -63.8170   48.0490 N   0  0  0  0  0  0  0  0  0  0  0  0
  -39.9330  -63.2170   49.2190 C   0  0  0  0  0  0  0  0  0  0  0  0
  -40.0140  -61.9960   49.5060 O   0  0  0  0  0  0  0  0  0  0  0  0
  -40.4940  -64.2620   50.0610 C   0  0  0  0  0  0  0  0  0  0  0  0
  -41.1110  -64.0950   51.1660 O   0  0  0  0  0  0  0  0  0  0  0  0
  -40.2050  -65.5070   49.4010 C   0  0  2  0  0  3  0  0  0  0  0  0
  -40.6300  -66.6930   49.7860 C   0  0  2  0  0  3  0  0  0  0  0  0
  -41.1630  -67.5040   48.7570 O   0  0  0  0  0  1  0  0  0  0  0  0
  -40.6030  -67.2190   51.1380 C   0  0  0  0  0  0  0  0  0  0  0  0
  -41.4380  -67.0920   52.1820 N   0  0  0  0  0  0  0  0  0  0  0  0
  -40.9930  -67.7220   53.2790 C   0  0  0  0  0  0  0  0  0  0  0  0
  -42.6300  -66.4380   52.2280 C   0  0  0  0  0  3  0  0  0  0  0  0
  -39.8150  -68.2850   52.9290 N   0  0  0  0  0  0  0  0  0  0  0  0
  -41.7040  -67.7350   54.4640 C   0  0  0  0  0  3  0  0  0  0  0  0
  -39.5470  -68.0040   51.6520 C   0  0  0  0  0  0  0  0  0  0  0  0
  -38.3680  -68.4260   50.8830 C   0  0  0  0  0  1  0  0  0  0  0  0
  -42.9040  -67.0790   54.5230 C   0  0  0  0  0  3  0  0  0  0  0  0
  -43.3620  -66.4300   53.3920 C   0  0  0  0  0  3  0  0  0  0  0  0
  -38.0870  -65.9970   48.2820 C   0  0  0  0  0  0  0  0  0  0  0  0
  -37.0480  -65.6730   49.1640 C   0  0  0  0  0  3  0  0  0  0  0  0
  -35.9160  -66.4540   49.2400 C   0  0  0  0  0  0  0  0  0  0  0  0
  -34.5130  -66.0130   50.4390 Br  0  0  0  0  0  0  0  0  0  0  0  0
  -35.7690  -67.5790   48.4520 C   0  0  0  0  0  3  0  0  0  0  0  0
  -36.7740  -67.9300   47.5690 C   0  0  0  0  0  3  0  0  0  0  0  0
  -37.8780  -67.1290   47.5260 C   0  0  0  0  0  3  0  0  0  0  0  0
  -38.8900  -63.0690   46.9170 C   0  0  0  0  0  2  0  0  0  0  0  0
  -37.4780  -62.8540   46.6120 C   0  0  0  0  0  2  0  0  0  0  0  0
  -36.7570  -61.7660   47.2040 N   0  0  0  0  0  4  0  0  0  0  0  0
  -36.1360  -62.2890   48.4220 C   0  0  0  0  0  2  0  0  0  0  0  0
  -34.7790  -62.8660   48.1790 C   0  0  0  0  0  2  0  0  0  0  0  0
  -34.5370  -63.0230   46.8060 O   0  0  0  0  0  0  0  0  0  0  0  0
  -34.5010  -61.7470   46.2920 C   0  0  0  0  0  2  0  0  0  0  0  0
  -35.8480  -61.1260   46.3140 C   0  0  0  0  0  2  0  0  0  0  0  0
  -37.4130  -61.0210   47.5830 H   0  0  0  0  0  0  0  0  0  0  0  0
  1 20  1  1  0  0  0
  1  7  1  0  0  0  0
  2  1  1  0  0  0  0
  2  3  1  0  0  0  0
  3  4  2  0  0  0  0
  3  5  1  0  0  0  0
  5  6  2  0  0  0  0
  7  8  1  1  0  0  0
  7  5  1  0  0  0  0
  8  9  1  1  0  0  0
  8 10  1  0  0  0  0
 10 16  2  0  0  0  0
 10 11  1  0  0  0  0
 11 13  1  0  0  0  0
 11 12  1  0  0  0  0
 12 15  1  0  0  0  0
 13 19  2  0  0  0  0
 14 12  2  0  0  0  0
 15 18  2  0  0  0  0
 16 14  1  0  0  0  0
 17 16  1  0  0  0  0
 19 18  1  0  0  0  0
 20 21  1  0  0  0  0
 21 22  2  0  0  0  0
 22 23  1  0  0  0  0
 24 22  1  0  0  0  0
 25 24  2  0  0  0  0
 26 25  1  0  0  0  0
 26 20  2  0  0  0  0
 27  2  1  0  0  0  0
 28 27  1  0  0  0  0
 28 29  1  0  0  0  0
 29 35  1  0  0  0  0
 29 30  1  0  0  0  0
 31 30  1  0  0  0  0
 32 31  1  0  0  0  0
 33 34  1  0  0  0  0
 33 32  1  0  0  0  0
 34 29  1  0  0  0  0
M  END
>  <Pose>
1

>  <Score>
-8.294

$$$$
