/Users/jonathanwahrer/Desktop/Msc/3_Semester/Drug_Design_Praktikum/waehrer_HTS_screening/HTS_experiment/out/docking_results/vina_output/3e7o/1486_docked.pdbqt
 OpenBabel03192216273D

 31 34  0  0  1  0  0  0  0  0999 V2000
  -42.1370  -66.3920   53.1450 N   0  0  0  0  0  0  0  0  0  0  0  0
  -41.8380  -66.1740   51.8850 N   0  0  0  0  0  0  0  0  0  0  0  0
  -41.1580  -67.2120   51.3760 C   0  0  0  0  0  0  0  0  0  0  0  0
  -41.0290  -68.1150   52.3590 N   0  0  0  0  0  0  0  0  0  0  0  0
  -41.6430  -67.5940   53.4620 C   0  0  2  0  0  3  0  0  0  0  0  0
  -41.7500  -68.2350   54.7710 C   0  0  0  0  0  2  0  0  0  0  0  0
  -40.4060  -68.5680   55.3770 C   0  0  0  0  0  2  0  0  0  0  0  0
  -39.7400  -69.7280   54.6720 C   0  0  0  0  0  2  0  0  0  0  0  0
  -39.2470  -69.3820   53.3010 C   0  0  0  0  0  2  0  0  0  0  0  0
  -40.3620  -69.3980   52.2660 C   0  0  0  0  0  2  0  0  0  0  0  0
  -40.6400  -67.3680   50.0090 C   0  0  0  0  0  2  0  0  0  0  0  0
  -39.6040  -66.4300   49.7040 N   0  0  0  0  0  0  0  0  0  0  0  0
  -39.8420  -65.4600   49.4500 H   0  0  0  0  0  0  0  0  0  0  0  0
  -38.2200  -66.7670   49.7300 C   0  0  0  0  0  0  0  0  0  0  0  0
  -37.7700  -67.9920   50.1680 C   0  0  0  0  0  3  0  0  0  0  0  0
  -36.4360  -68.3080   50.1830 C   0  0  0  0  0  3  0  0  0  0  0  0
  -35.5250  -67.3930   49.7570 C   0  0  0  0  0  0  0  0  0  0  0  0
  -35.9710  -66.1660   49.3180 C   0  0  0  0  0  3  0  0  0  0  0  0
  -37.3110  -65.8380   49.2970 C   0  0  0  0  0  3  0  0  0  0  0  0
  -34.1810  -67.6810   49.7620 O   0  0  0  0  0  0  0  0  0  0  0  0
  -33.1970  -66.7470   49.3930 C   0  0  0  0  0  1  0  0  0  0  0  0
  -42.8550  -65.5150   54.0220 C   0  0  0  0  0  2  0  0  0  0  0  0
  -44.0560  -64.9360   53.3630 C   0  0  0  0  0  0  0  0  0  0  0  0
  -43.9360  -63.8010   52.8280 O   0  0  0  0  0  0  0  0  0  0  0  0
  -45.3340  -65.6120   53.3130 C   0  0  0  0  0  0  0  0  0  0  0  0
  -46.5000  -64.9460   53.0180 C   0  0  0  0  0  3  0  0  0  0  0  0
  -47.7230  -65.6090   52.9740 C   0  0  0  0  0  3  0  0  0  0  0  0
  -47.7850  -66.9680   53.2290 C   0  0  0  0  0  0  0  0  0  0  0  0
  -49.4790  -67.8780   53.1660 Br  0  0  0  0  0  0  0  0  0  0  0  0
  -46.6240  -67.6430   53.5250 C   0  0  0  0  0  3  0  0  0  0  0  0
  -45.4320  -66.9630   53.5610 C   0  0  0  0  0  3  0  0  0  0  0  0
  1  5  1  0  0  0  0
  1 22  1  0  0  0  0
  2  1  1  0  0  0  0
  3  2  2  0  0  0  0
  3  4  1  0  0  0  0
  4  5  1  0  0  0  0
  5  6  1  6  0  0  0
  6  7  1  0  0  0  0
  8  7  1  0  0  0  0
  9  8  1  0  0  0  0
 10  4  1  0  0  0  0
 10  9  1  0  0  0  0
 11  3  1  0  0  0  0
 12 14  1  0  0  0  0
 12 11  1  0  0  0  0
 13 12  1  0  0  0  0
 14 15  1  0  0  0  0
 15 16  2  0  0  0  0
 17 20  1  0  0  0  0
 17 16  1  0  0  0  0
 18 17  2  0  0  0  0
 19 18  1  0  0  0  0
 19 14  2  0  0  0  0
 21 20  1  0  0  0  0
 23 22  1  0  0  0  0
 24 23  2  0  0  0  0
 25 23  1  0  0  0  0
 25 31  1  0  0  0  0
 26 25  2  0  0  0  0
 27 26  1  0  0  0  0
 27 28  2  0  0  0  0
 28 30  1  0  0  0  0
 29 28  1  0  0  0  0
 30 31  2  0  0  0  0
M  END
>  <Pose>
1

>  <Score>
-8.661

$$$$
