/Users/jonathanwahrer/Desktop/Msc/3_Semester/Drug_Design_Praktikum/waehrer_HTS_screening/HTS_experiment/out/docking_results/vina_output/3e7o/1487_docked.pdbqt
 OpenBabel03192216273D

 29 32  0  0  1  0  0  0  0  0999 V2000
  -38.3610  -65.4480   47.2020 N   0  0  0  0  0  4  0  0  0  0  0  0
  -38.4670  -66.8390   47.5650 C   0  0  0  0  0  2  0  0  0  0  0  0
  -37.2300  -67.3300   48.1930 C   0  0  2  0  0  0  0  0  0  0  0  0
  -36.3600  -66.1890   48.1560 N   0  0  0  0  0  0  0  0  0  0  0  0
  -34.9230  -66.0600   48.2070 C   0  0  0  0  0  3  0  0  0  0  0  0
  -34.3990  -65.2620   49.3580 C   0  0  0  0  0  3  0  0  0  0  0  0
  -35.4280  -64.5240   50.1400 C   0  0  0  0  0  2  0  0  0  0  0  0
  -35.8680  -63.2970   49.3100 C   0  0  0  0  0  2  0  0  0  0  0  0
  -37.0270  -63.8170   48.4780 C   0  0  0  0  0  3  0  0  0  0  0  0
  -37.2170  -65.0250   47.9980 C   0  0  0  0  0  0  0  0  0  0  0  0
  -38.1350  -65.2290   46.2380 H   0  0  0  0  0  0  0  0  0  0  0  0
  -36.6340  -68.3140   47.3560 O   0  0  0  0  0  0  0  0  0  0  0  0
  -35.7530  -68.5440   47.8010 H   0  0  0  0  0  0  0  0  0  0  0  0
  -37.3450  -67.9540   49.4880 C   0  0  0  0  0  0  0  0  0  0  0  0
  -38.4960  -67.8870   50.2740 C   0  0  0  0  0  3  0  0  0  0  0  0
  -38.6100  -68.5100   51.5090 C   0  0  0  0  0  0  0  0  0  0  0  0
  -37.5230  -69.2400   51.9900 C   0  0  0  0  0  3  0  0  0  0  0  0
  -36.3770  -69.3300   51.2540 C   0  0  0  0  0  3  0  0  0  0  0  0
  -36.3010  -68.6860   50.0090 C   0  0  0  0  0  3  0  0  0  0  0  0
  -39.8070  -68.3980   52.2510 N   0  0  0  0  0  0  0  0  0  0  0  0
  -40.3980  -69.4500   52.6510 O   0  0  0  0  0  0  0  0  0  0  0  0
  -40.3800  -67.2230   52.5650 O   0  0  0  0  0  0  0  0  0  0  0  0
  -39.4320  -64.6210   47.6340 C   0  0  0  0  0  0  0  0  0  0  0  0
  -40.1630  -64.8810   48.7670 C   0  0  0  0  0  3  0  0  0  0  0  0
  -41.2800  -64.1310   49.1250 C   0  0  0  0  0  0  0  0  0  0  0  0
  -42.1590  -64.4870   50.6040 Cl  0  0  0  0  0  0  0  0  0  0  0  0
  -41.6890  -63.0800   48.3290 C   0  0  0  0  0  3  0  0  0  0  0  0
  -40.9890  -62.7900   47.1890 C   0  0  0  0  0  3  0  0  0  0  0  0
  -39.8770  -63.5510   46.8490 C   0  0  0  0  0  3  0  0  0  0  0  0
  1  2  1  0  0  0  0
  1 23  1  0  0  0  0
  1 10  1  0  0  0  0
  2  3  1  0  0  0  0
  3 12  1  6  0  0  0
  3 14  1  0  0  0  0
  4  3  1  0  0  0  0
  4  5  1  0  0  0  0
  5  6  2  0  0  0  0
  6  7  1  0  0  0  0
  8  7  1  0  0  0  0
  9  8  1  0  0  0  0
 10  4  1  0  0  0  0
 10  9  2  0  0  0  0
 11  1  1  0  0  0  0
 12 13  1  0  0  0  0
 14 19  2  0  0  0  0
 14 15  1  0  0  0  0
 15 16  2  0  0  0  0
 16 17  1  0  0  0  0
 16 20  1  0  0  0  0
 18 17  2  0  0  0  0
 19 18  1  0  0  0  0
 20 22  2  0  0  0  0
 20 21  2  0  0  0  0
 23 24  1  0  0  0  0
 24 25  2  0  0  0  0
 25 26  1  0  0  0  0
 27 25  1  0  0  0  0
 28 27  2  0  0  0  0
 29 28  1  0  0  0  0
 29 23  2  0  0  0  0
M  END
>  <Pose>
1

>  <Score>
-7.445

$$$$
