/Users/jonathanwahrer/Desktop/Msc/3_Semester/Drug_Design_Praktikum/waehrer_HTS_screening/HTS_experiment/out/docking_results/vina_output/3e7o/1491_docked.pdbqt
 OpenBabel03192216283D

 34 38  0  0  0  0  0  0  0  0999 V2000
  -45.7770  -64.2240   50.5920 F   0  0  0  0  0  0  0  0  0  0  0  0
  -46.5300  -65.1530   51.2070 C   0  0  0  0  0  0  0  0  0  0  0  0
  -47.7920  -65.3240   50.6470 C   0  0  0  0  0  3  0  0  0  0  0  0
  -48.6690  -66.2480   51.1690 C   0  0  0  0  0  0  0  0  0  0  0  0
  -48.2590  -66.9900   52.2510 C   0  0  0  0  0  0  0  0  0  0  0  0
  -46.9920  -66.8050   52.7970 C   0  0  0  0  0  3  0  0  0  0  0  0
  -46.1120  -65.8890   52.2870 C   0  0  0  0  0  0  0  0  0  0  0  0
  -49.1340  -67.8890   52.7450 N   0  0  0  0  0  0  0  0  0  0  0  0
  -50.3590  -68.0720   52.2210 C   0  0  0  0  0  3  0  0  0  0  0  0
  -50.8000  -67.3450   51.1370 C   0  0  0  0  0  0  0  0  0  0  0  0
  -49.9400  -66.4160   50.6010 C   0  0  0  0  0  0  0  0  0  0  0  0
  -50.2780  -65.7220   49.6140 O   0  0  0  0  0  0  0  0  0  0  0  0
  -44.8540  -65.7260   52.8680 N   0  0  0  0  0  4  0  0  0  0  0  0
  -43.7310  -66.0200   52.0160 C   0  0  0  0  0  2  0  0  0  0  0  0
  -42.4140  -65.6540   52.7400 C   0  0  0  0  0  2  0  0  0  0  0  0
  -42.3500  -66.5050   53.8610 N   0  0  0  0  0  0  0  0  0  0  0  0
  -43.4230  -66.1300   54.8620 C   0  0  0  0  0  2  0  0  0  0  0  0
  -41.5840  -67.5760   54.1760 C   0  0  0  0  0  0  0  0  0  0  0  0
  -44.6880  -66.4080   54.1090 C   0  0  0  0  0  2  0  0  0  0  0  0
  -41.7760  -68.0710   55.3750 O   0  0  0  0  0  0  0  0  0  0  0  0
  -44.7650  -64.6870   53.0950 H   0  0  0  0  0  0  0  0  0  0  0  0
  -40.5820  -68.2800   53.4240 C   0  0  0  0  0  0  0  0  0  0  0  0
  -40.0210  -67.8200   52.2780 C   0  0  0  0  0  3  0  0  0  0  0  0
  -39.0140  -68.5100   51.6130 C   0  0  0  0  0  0  0  0  0  0  0  0
  -38.5690  -69.7010   52.1270 C   0  0  0  0  0  3  0  0  0  0  0  0
  -38.3120  -67.8710   50.1250 Cl  0  0  0  0  0  0  0  0  0  0  0  0
  -39.1010  -70.2100   53.2770 C   0  0  0  0  0  3  0  0  0  0  0  0
  -40.0850  -69.5090   53.9060 C   0  0  0  0  0  3  0  0  0  0  0  0
  -48.6780  -68.6710   53.9000 C   0  0  0  0  0  3  0  0  0  0  0  0
  -49.6220  -69.4570   54.7000 C   0  0  0  0  0  2  0  0  0  0  0  0
  -49.2500  -68.1590   55.2640 C   0  0  0  0  0  2  0  0  0  0  0  0
  -52.1480  -67.5580   50.5750 C   0  0  0  0  0  0  0  0  0  0  0  0
  -53.1330  -66.8960   50.9360 O   0  0  0  0  0  1  0  0  0  0  0  0
  -52.3000  -68.5310   49.6140 O   0  0  0  0  0  0  0  0  0  0  0  0
  1  2  1  0  0  0  0
  2  7  1  0  0  0  0
  3  4  1  0  0  0  0
  3  2  2  0  0  0  0
  4  5  2  0  0  0  0
  5  8  1  0  0  0  0
  5  6  1  0  0  0  0
  7  6  2  0  0  0  0
  7 13  1  0  0  0  0
  8 29  1  0  0  0  0
  9  8  1  0  0  0  0
 10  9  2  0  0  0  0
 11 10  1  0  0  0  0
 11  4  1  0  0  0  0
 12 11  2  0  0  0  0
 13 21  1  0  0  0  0
 13 19  1  0  0  0  0
 14 15  1  0  0  0  0
 14 13  1  0  0  0  0
 15 16  1  0  0  0  0
 16 18  1  0  0  0  0
 16 17  1  0  0  0  0
 18 20  2  0  0  0  0
 19 17  1  0  0  0  0
 22 28  1  0  0  0  0
 22 18  1  0  0  0  0
 23 22  2  0  0  0  0
 24 25  2  0  0  0  0
 24 23  1  0  0  0  0
 25 27  1  0  0  0  0
 26 24  1  0  0  0  0
 27 28  2  0  0  0  0
 29 30  1  0  0  0  0
 29 31  1  0  0  0  0
 30 31  1  0  0  0  0
 32 33  1  0  0  0  0
 32 10  1  0  0  0  0
 34 32  2  0  0  0  0
M  END
>  <Pose>
1

>  <Score>
-8.657

$$$$
