/Users/jonathanwahrer/Desktop/Msc/3_Semester/Drug_Design_Praktikum/waehrer_HTS_screening/HTS_experiment/out/docking_results/vina_output/3e7o/1506_docked.pdbqt
 OpenBabel03192216283D

 32 35  0  0  1  0  0  0  0  0999 V2000
  -42.3570  -64.4490   49.4730 N   0  0  0  0  0  0  0  0  0  0  0  0
  -40.9420  -64.1760   49.4450 C   0  0  0  0  0  0  0  0  0  0  0  0
  -40.4530  -63.4290   50.3070 O   0  0  0  0  0  0  0  0  0  0  0  0
  -42.6820  -65.0920   48.7560 H   0  0  0  0  0  0  0  0  0  0  0  0
  -40.0590  -64.7680   48.4120 C   0  0  2  0  0  3  0  0  0  0  0  0
  -40.1610  -66.2730   48.5160 C   0  0  0  0  0  2  0  0  0  0  0  0
  -39.4530  -66.6840   49.7870 C   0  0  0  0  0  2  0  0  0  0  0  0
  -38.0320  -66.4590   49.5350 N   0  0  0  0  0  0  0  0  0  0  0  0
  -37.6170  -65.3570   48.7350 C   0  0  0  0  0  2  0  0  0  0  0  0
  -38.6490  -64.3140   48.4990 C   0  0  0  0  0  2  0  0  0  0  0  0
  -37.1150  -67.3670   50.1120 C   0  0  0  0  0  0  0  0  0  0  0  0
  -35.7820  -67.1740   50.0910 N   0  0  0  0  0  0  0  0  0  0  0  0
  -34.9130  -68.0130   50.6230 N   0  0  0  0  0  0  0  0  0  0  0  0
  -33.5870  -67.9890   50.6980 N   0  0  0  0  0  0  0  0  0  0  0  0
  -35.2900  -69.1410   51.2370 C   0  0  0  0  0  0  0  0  0  0  0  0
  -33.1430  -69.0450   51.3250 N   0  0  0  0  0  0  0  0  0  0  0  0
  -34.1810  -69.7760   51.6710 N   0  0  0  0  0  0  0  0  0  0  0  0
  -36.6480  -69.3970   51.2910 C   0  0  0  0  0  3  0  0  0  0  0  0
  -37.5580  -68.5210   50.7350 C   0  0  0  0  0  3  0  0  0  0  0  0
  -43.1100  -63.8390   50.4970 C   0  0  0  0  0  2  0  0  0  0  0  0
  -43.5780  -64.5880   51.6750 C   0  0  0  0  0  2  0  0  0  0  0  0
  -42.7790  -65.6430   52.1690 N   0  0  0  0  0  0  0  0  0  0  0  0
  -42.7480  -66.2710   53.4060 C   0  0  0  0  0  0  0  0  0  0  0  0
  -43.5220  -65.9460   54.3320 O   0  0  0  0  0  0  0  0  0  0  0  0
  -42.0240  -66.0680   51.4720 H   0  0  0  0  0  0  0  0  0  0  0  0
  -41.8010  -67.3660   53.7200 C   0  0  0  0  0  0  0  0  0  0  0  0
  -41.1570  -68.0260   52.6960 C   0  0  0  0  0  3  0  0  0  0  0  0
  -40.2640  -69.0430   52.9380 C   0  0  0  0  0  3  0  0  0  0  0  0
  -40.0010  -69.4170   54.2460 C   0  0  0  0  0  0  0  0  0  0  0  0
  -38.8620  -70.7150   54.5680 Cl  0  0  0  0  0  0  0  0  0  0  0  0
  -40.6220  -68.7820   55.2870 C   0  0  0  0  0  3  0  0  0  0  0  0
  -41.5240  -67.7530   55.0040 C   0  0  0  0  0  3  0  0  0  0  0  0
  1 20  1  0  0  0  0
  2  1  1  0  0  0  0
  2  3  2  0  0  0  0
  4  1  1  0  0  0  0
  5 10  1  0  0  0  0
  5  6  1  0  0  0  0
  5  2  1  1  0  0  0
  6  7  1  0  0  0  0
  8  7  1  0  0  0  0
  8 11  1  0  0  0  0
  9  8  1  0  0  0  0
 10  9  1  0  0  0  0
 11 19  1  0  0  0  0
 12 11  2  0  0  0  0
 12 13  1  0  0  0  0
 13 14  1  0  0  0  0
 13 15  1  0  0  0  0
 14 16  2  0  0  0  0
 15 18  1  0  0  0  0
 15 17  2  0  0  0  0
 16 17  1  0  0  0  0
 19 18  2  0  0  0  0
 20 21  1  0  0  0  0
 21 22  1  0  0  0  0
 22 23  1  0  0  0  0
 23 26  1  0  0  0  0
 23 24  2  0  0  0  0
 25 22  1  0  0  0  0
 26 32  1  0  0  0  0
 27 28  1  0  0  0  0
 27 26  2  0  0  0  0
 28 29  2  0  0  0  0
 29 30  1  0  0  0  0
 29 31  1  0  0  0  0
 32 31  2  0  0  0  0
M  END
>  <Pose>
1

>  <Score>
-9.235

$$$$
