/Users/jonathanwahrer/Desktop/Msc/3_Semester/Drug_Design_Praktikum/waehrer_HTS_screening/HTS_experiment/out/docking_results/vina_output/3e7o/1507_docked.pdbqt
 OpenBabel03192216283D

 32 35  0  0  1  0  0  0  0  0999 V2000
  -38.0930  -67.1470   49.7140 C   0  0  0  0  0  0  0  0  0  0  0  0
  -39.2690  -66.5990   49.4860 C   0  0  0  0  0  0  0  0  0  0  0  0
  -40.5530  -66.7410   50.2460 C   0  0  2  0  0  3  0  0  0  0  0  0
  -41.0440  -65.4100   50.2470 N   0  0  0  0  0  0  0  0  0  0  0  0
  -40.8150  -64.9590   48.8770 C   0  0  0  0  0  0  0  0  0  0  0  0
  -41.4620  -64.0910   48.2360 O   0  0  0  0  0  0  0  0  0  0  0  0
  -39.6730  -65.7220   48.3870 C   0  0  0  0  0  0  0  0  0  0  0  0
  -39.0880  -65.6900   47.2540 O   0  0  0  0  0  0  0  0  0  0  0  0
  -37.8760  -68.0060   50.7770 O   0  0  0  0  0  1  0  0  0  0  0  0
  -36.9520  -66.8750   48.8480 C   0  0  0  0  0  0  0  0  0  0  0  0
  -36.6000  -67.7270   47.8180 C   0  0  0  0  0  3  0  0  0  0  0  0
  -35.5000  -67.4180   47.0680 C   0  0  0  0  0  3  0  0  0  0  0  0
  -34.7150  -66.3060   47.2740 C   0  0  0  0  0  0  0  0  0  0  0  0
  -33.1810  -65.9400   46.1740 Br  0  0  0  0  0  0  0  0  0  0  0  0
  -35.0600  -65.4530   48.3010 C   0  0  0  0  0  3  0  0  0  0  0  0
  -36.1830  -65.7570   49.0770 C   0  0  0  0  0  3  0  0  0  0  0  0
  -40.4600  -67.5380   51.4230 C   0  0  0  0  0  0  0  0  0  0  0  0
  -40.3830  -66.9190   52.6470 C   0  0  0  0  0  3  0  0  0  0  0  0
  -40.3070  -67.6190   53.8270 C   0  0  0  0  0  3  0  0  0  0  0  0
  -40.3070  -69.0060   53.8230 C   0  0  0  0  0  0  0  0  0  0  0  0
  -40.3850  -69.6090   52.5830 C   0  0  0  0  0  3  0  0  0  0  0  0
  -40.2120  -69.9080   55.3150 Cl  0  0  0  0  0  0  0  0  0  0  0  0
  -40.4600  -68.9000   51.4050 C   0  0  0  0  0  3  0  0  0  0  0  0
  -41.6990  -64.5690   51.2300 C   0  0  0  0  0  2  0  0  0  0  0  0
  -43.1780  -64.5630   51.2470 C   0  0  0  0  0  2  0  0  0  0  0  0
  -43.7610  -64.2380   52.5530 N   0  0  0  0  0  4  0  0  0  0  0  0
  -42.9930  -64.8250   53.5970 C   0  0  0  0  0  2  0  0  0  0  0  0
  -43.6650  -65.8730   54.4130 C   0  0  0  0  0  2  0  0  0  0  0  0
  -45.0400  -65.7700   54.5040 O   0  0  0  0  0  0  0  0  0  0  0  0
  -45.5020  -65.8880   53.1730 C   0  0  0  0  0  2  0  0  0  0  0  0
  -45.1450  -64.6080   52.5020 C   0  0  0  0  0  2  0  0  0  0  0  0
  -43.7090  -63.1740   52.6070 H   0  0  0  0  0  0  0  0  0  0  0  0
  1  9  1  0  0  0  0
  2  1  2  0  0  0  0
  2  3  1  0  0  0  0
  3  4  1  0  0  0  0
  3 17  1  1  0  0  0
  4 24  1  0  0  0  0
  5  4  1  0  0  0  0
  6  5  2  0  0  0  0
  7  5  1  0  0  0  0
  7  2  1  0  0  0  0
  8  7  2  0  0  0  0
 10 16  1  0  0  0  0
 10  1  1  0  0  0  0
 11 10  2  0  0  0  0
 12 13  2  0  0  0  0
 12 11  1  0  0  0  0
 13 15  1  0  0  0  0
 14 13  1  0  0  0  0
 15 16  2  0  0  0  0
 17 18  1  0  0  0  0
 18 19  2  0  0  0  0
 20 19  1  0  0  0  0
 20 22  1  0  0  0  0
 21 20  2  0  0  0  0
 23 17  2  0  0  0  0
 23 21  1  0  0  0  0
 24 25  1  0  0  0  0
 25 26  1  0  0  0  0
 26 32  1  0  0  0  0
 26 27  1  0  0  0  0
 27 28  1  0  0  0  0
 28 29  1  0  0  0  0
 30 29  1  0  0  0  0
 31 26  1  0  0  0  0
 31 30  1  0  0  0  0
M  END
>  <Pose>
1

>  <Score>
-8.165

$$$$
