/Users/jonathanwahrer/Desktop/Msc/3_Semester/Drug_Design_Praktikum/waehrer_HTS_screening/HTS_experiment/out/docking_results/vina_output/3e7o/1516_docked.pdbqt
 OpenBabel03192216293D

 30 33  0  0  1  0  0  0  0  0999 V2000
  -36.1570  -68.6620   50.9220 C   0  0  0  0  0  0  0  0  0  0  0  0
  -35.3980  -69.2540   51.8170 O   0  0  0  0  0  0  0  0  0  0  0  0
  -35.5370  -67.6100   50.2620 N   0  0  0  0  0  0  0  0  0  0  0  0
  -36.1420  -66.8370   49.2280 C   0  0  0  0  0  2  0  0  0  0  0  0
  -35.0310  -66.0100   48.5400 C   0  0  0  0  0  2  0  0  0  0  0  0
  -34.5720  -64.9830   49.5570 C   0  0  2  0  0  0  0  0  0  0  0  0
  -35.6560  -64.1580   49.9040 N   0  0  0  0  0  0  0  0  0  0  0  0
  -35.9810  -63.0370   49.1310 C   0  0  0  0  0  2  0  0  0  0  0  0
  -34.8650  -62.2610   48.5390 C   0  0  0  0  0  2  0  0  0  0  0  0
  -33.5800  -62.9910   48.5150 C   0  0  0  0  0  0  0  0  0  0  0  0
  -32.3900  -62.5610   48.0510 N   0  0  0  0  0  0  0  0  0  0  0  0
  -31.4990  -63.5420   48.2230 C   0  0  0  0  0  3  0  0  0  0  0  0
  -32.1310  -64.5910   48.7970 N   0  0  0  0  0  0  0  0  0  0  0  0
  -33.4230  -64.2660   48.9840 C   0  0  0  0  0  0  0  0  0  0  0  0
  -34.1480  -65.7450   50.8240 C   0  0  0  0  0  2  0  0  0  0  0  0
  -34.1600  -67.2340   50.6180 C   0  0  0  0  0  2  0  0  0  0  0  0
  -36.3060  -64.4660   50.6160 H   0  0  0  0  0  0  0  0  0  0  0  0
  -31.6860  -65.4930   49.0460 H   0  0  0  0  0  0  0  0  0  0  0  0
  -37.4960  -69.2340   50.8050 C   0  0  0  0  0  2  0  0  0  0  0  0
  -38.1890  -69.4950   51.9570 N   0  0  0  0  0  0  0  0  0  0  0  0
  -38.8730  -69.7530   53.0980 C   0  0  0  0  0  0  0  0  0  0  0  0
  -38.6450  -70.6640   53.9350 O   0  0  0  0  0  0  0  0  0  0  0  0
  -37.3760  -70.5850   52.1700 H   0  0  0  0  0  0  0  0  0  0  0  0
  -40.0400  -68.8710   53.4280 C   0  0  0  0  0  0  0  0  0  0  0  0
  -40.5450  -68.8960   54.6940 C   0  0  0  0  0  3  0  0  0  0  0  0
  -41.6330  -68.0790   55.0170 C   0  0  0  0  0  3  0  0  0  0  0  0
  -42.1620  -67.2760   54.0450 C   0  0  0  0  0  0  0  0  0  0  0  0
  -43.5340  -66.2540   54.4530 Cl  0  0  0  0  0  0  0  0  0  0  0  0
  -41.6580  -67.2520   52.7780 C   0  0  0  0  0  3  0  0  0  0  0  0
  -40.5600  -68.0780   52.4620 C   0  0  0  0  0  3  0  0  0  0  0  0
  1  2  2  0  0  0  0
  3 16  1  0  0  0  0
  3  1  1  0  0  0  0
  4  3  1  0  0  0  0
  5  4  1  0  0  0  0
  6  5  1  6  0  0  0
  6  7  1  0  0  0  0
  6 15  1  0  0  0  0
  7 17  1  0  0  0  0
  8  7  1  0  0  0  0
  9  8  1  0  0  0  0
 10  9  1  0  0  0  0
 10 14  2  0  0  0  0
 11 12  2  0  0  0  0
 11 10  1  0  0  0  0
 12 13  1  0  0  0  0
 13 14  1  0  0  0  0
 13 18  1  0  0  0  0
 14  6  1  0  0  0  0
 16 15  1  0  0  0  0
 19  1  1  0  0  0  0
 19 20  1  0  0  0  0
 20 23  1  0  0  0  0
 20 21  1  0  0  0  0
 21 24  1  0  0  0  0
 21 22  2  0  0  0  0
 24 25  1  0  0  0  0
 25 26  2  0  0  0  0
 27 28  1  0  0  0  0
 27 26  1  0  0  0  0
 29 27  2  0  0  0  0
 30 29  1  0  0  0  0
 30 24  2  0  0  0  0
M  END
>  <Pose>
1

>  <Score>
-9.567

$$$$
