/Users/jonathanwahrer/Desktop/Msc/3_Semester/Drug_Design_Praktikum/waehrer_HTS_screening/HTS_experiment/out/docking_results/vina_output/3e7o/1518_docked.pdbqt
 OpenBabel03192216293D

 31 34  0  0  1  0  0  0  0  0999 V2000
  -40.1690  -64.1250   48.9190 C   0  0  0  0  0  0  0  0  0  0  0  0
  -40.2670  -62.8900   49.1220 O   0  0  0  0  0  0  0  0  0  0  0  0
  -40.5290  -65.0460   49.9310 N   0  0  0  0  0  0  0  0  0  0  0  0
  -40.4370  -66.4820   49.7590 C   0  0  0  0  0  2  0  0  0  0  0  0
  -41.5600  -67.1160   50.5670 C   0  0  0  0  0  2  0  0  0  0  0  0
  -41.3640  -66.8370   52.0570 C   0  0  1  0  0  0  0  0  0  0  0  0
  -42.6730  -66.6980   52.6270 N   0  0  0  0  0  0  0  0  0  0  0  0
  -42.6680  -66.9090   54.0580 C   0  0  0  0  0  2  0  0  0  0  0  0
  -42.4310  -68.3930   54.3300 C   0  0  0  0  0  2  0  0  0  0  0  0
  -41.1020  -68.7180   53.7360 C   0  0  0  0  0  0  0  0  0  0  0  0
  -40.1770  -69.6750   54.0450 N   0  0  0  0  0  0  0  0  0  0  0  0
  -39.1430  -69.5390   53.1970 C   0  0  0  0  0  3  0  0  0  0  0  0
  -39.4170  -68.5130   52.3720 N   0  0  0  0  0  0  0  0  0  0  0  0
  -40.6340  -67.9730   52.6770 C   0  0  0  0  0  0  0  0  0  0  0  0
  -40.5950  -65.5500   52.2640 C   0  0  0  0  0  2  0  0  0  0  0  0
  -41.0150  -64.5680   51.2100 C   0  0  0  0  0  2  0  0  0  0  0  0
  -43.0970  -65.7770   52.4010 H   0  0  0  0  0  0  0  0  0  0  0  0
  -40.3300  -70.3560   54.8230 H   0  0  0  0  0  0  0  0  0  0  0  0
  -39.6700  -64.5800   47.6020 C   0  0  0  0  0  2  0  0  0  0  0  0
  -38.1820  -64.4840   47.4820 C   0  0  0  0  0  2  0  0  0  0  0  0
  -37.5640  -65.5900   48.1880 N   0  0  0  0  0  0  0  0  0  0  0  0
  -36.6310  -65.4350   49.2130 C   0  0  0  0  0  0  0  0  0  0  0  0
  -36.2780  -64.2850   49.5770 O   0  0  0  0  0  0  0  0  0  0  0  0
  -37.8700  -66.5420   47.8760 H   0  0  0  0  0  0  0  0  0  0  0  0
  -36.0270  -66.5730   49.9030 C   0  0  0  0  0  0  0  0  0  0  0  0
  -36.7260  -67.7310   50.1600 C   0  0  0  0  0  3  0  0  0  0  0  0
  -36.0980  -68.7780   50.8190 C   0  0  0  0  0  3  0  0  0  0  0  0
  -34.7760  -68.6890   51.2310 C   0  0  0  0  0  0  0  0  0  0  0  0
  -34.0610  -70.0590   52.0590 Cl  0  0  0  0  0  0  0  0  0  0  0  0
  -34.0670  -67.5340   50.9800 C   0  0  0  0  0  3  0  0  0  0  0  0
  -34.7010  -66.5120   50.3280 C   0  0  0  0  0  3  0  0  0  0  0  0
  1  2  2  0  0  0  0
  1  3  1  0  0  0  0
  3 16  1  0  0  0  0
  4  3  1  0  0  0  0
  4  5  1  0  0  0  0
  6  5  1  6  0  0  0
  6 15  1  0  0  0  0
  6  7  1  0  0  0  0
  6 14  1  0  0  0  0
  7  8  1  0  0  0  0
  8  9  1  0  0  0  0
 10 11  1  0  0  0  0
 10  9  1  0  0  0  0
 11 18  1  0  0  0  0
 12 11  1  0  0  0  0
 13 14  1  0  0  0  0
 13 12  2  0  0  0  0
 14 10  2  0  0  0  0
 16 15  1  0  0  0  0
 17  7  1  0  0  0  0
 19  1  1  0  0  0  0
 20 19  1  0  0  0  0
 20 21  1  0  0  0  0
 21 22  1  0  0  0  0
 22 23  2  0  0  0  0
 22 25  1  0  0  0  0
 24 21  1  0  0  0  0
 25 26  2  0  0  0  0
 25 31  1  0  0  0  0
 26 27  1  0  0  0  0
 27 28  2  0  0  0  0
 28 29  1  0  0  0  0
 30 28  1  0  0  0  0
 31 30  2  0  0  0  0
M  END
>  <Pose>
1

>  <Score>
-8.566

$$$$
