/Users/jonathanwahrer/Desktop/Msc/3_Semester/Drug_Design_Praktikum/waehrer_HTS_screening/HTS_experiment/out/docking_results/vina_output/3e7o/1523_docked.pdbqt
 OpenBabel03192216293D

 25 28  0  0  0  0  0  0  0  0999 V2000
  -39.2340  -63.8180   48.7470 C   0  0  0  0  0  0  0  0  0  0  0  0
  -38.9160  -62.5800   48.6670 O   0  0  0  0  0  0  0  0  0  0  0  0
  -38.5350  -64.7790   48.0150 N   0  0  0  0  0  0  0  0  0  0  0  0
  -37.4530  -64.3740   47.1590 C   0  0  0  0  0  2  0  0  0  0  0  0
  -36.1720  -64.9270   47.7190 C   0  0  0  0  0  2  0  0  0  0  0  0
  -36.3680  -66.2980   48.0970 N   0  0  0  0  0  0  0  0  0  0  0  0
  -37.5710  -66.9450   47.5390 C   0  0  0  0  0  2  0  0  0  0  0  0
  -38.8040  -66.2000   48.0310 C   0  0  0  0  0  2  0  0  0  0  0  0
  -35.5640  -67.0800   48.9270 C   0  0  0  0  0  0  0  0  0  0  0  0
  -35.9580  -68.3080   49.0700 O   0  0  0  0  0  0  0  0  0  0  0  0
  -40.3660  -64.1180   49.6540 C   0  0  0  0  0  0  0  0  0  0  0  0
  -41.6270  -63.6710   49.5630 N   0  0  0  0  0  0  0  0  0  0  0  0
  -42.3330  -64.1620   50.5570 N   0  0  0  0  0  0  0  0  0  0  0  0
  -41.5720  -64.9420   51.3310 N   0  0  0  0  0  0  0  0  0  0  0  0
  -40.3500  -64.9160   50.7730 C   0  0  0  0  0  3  0  0  0  0  0  0
  -41.9980  -65.6370   52.4910 C   0  0  0  0  0  0  0  0  0  0  0  0
  -41.3650  -66.7910   52.8850 C   0  0  0  0  0  3  0  0  0  0  0  0
  -41.8010  -67.4640   54.0350 C   0  0  0  0  0  0  0  0  0  0  0  0
  -40.9360  -69.0680   54.5950 Br  0  0  0  0  0  0  0  0  0  0  0  0
  -42.8500  -66.9850   54.7740 C   0  0  0  0  0  3  0  0  0  0  0  0
  -43.4880  -65.8310   54.3890 C   0  0  0  0  0  3  0  0  0  0  0  0
  -43.0450  -65.1660   53.2380 C   0  0  0  0  0  3  0  0  0  0  0  0
  -34.3510  -66.7420   49.6610 C   0  0  0  0  0  3  0  0  0  0  0  0
  -34.2900  -65.7750   50.7570 C   0  0  0  0  0  2  0  0  0  0  0  0
  -34.0180  -67.2540   51.0130 C   0  0  0  0  0  2  0  0  0  0  0  0
  1 11  1  0  0  0  0
  2  1  2  0  0  0  0
  3  8  1  0  0  0  0
  3  1  1  0  0  0  0
  4  5  1  0  0  0  0
  4  3  1  0  0  0  0
  5  6  1  0  0  0  0
  6  9  1  0  0  0  0
  7  8  1  0  0  0  0
  7  6  1  0  0  0  0
  9 10  2  0  0  0  0
  9 23  1  0  0  0  0
 11 15  2  0  0  0  0
 12 11  1  0  0  0  0
 12 13  2  0  0  0  0
 13 14  1  0  0  0  0
 14 16  1  0  0  0  0
 15 14  1  0  0  0  0
 16 17  2  0  0  0  0
 16 22  1  0  0  0  0
 17 18  1  0  0  0  0
 18 19  1  0  0  0  0
 18 20  2  0  0  0  0
 21 20  1  0  0  0  0
 22 21  2  0  0  0  0
 23 24  1  0  0  0  0
 23 25  1  0  0  0  0
 24 25  1  0  0  0  0
M  END
>  <Pose>
1

>  <Score>
-8.306

$$$$
