/Users/jonathanwahrer/Desktop/Msc/3_Semester/Drug_Design_Praktikum/waehrer_HTS_screening/HTS_experiment/out/docking_results/vina_output/3e7o/1531_docked.pdbqt
 OpenBabel03192216303D

 27 30  0  0  0  0  0  0  0  0999 V2000
  -40.9090  -64.4240   49.8990 N   0  0  0  0  0  0  0  0  0  0  0  0
  -40.7930  -63.9620   48.6140 C   0  0  0  0  0  0  0  0  0  0  0  0
  -39.5000  -64.0610   48.2960 N   0  0  0  0  0  0  0  0  0  0  0  0
  -38.7650  -64.5620   49.3030 C   0  0  0  0  0  0  0  0  0  0  0  0
  -39.6700  -64.7920   50.3240 C   0  0  0  0  0  3  0  0  0  0  0  0
  -39.2760  -63.5870   46.9340 C   0  0  0  0  0  3  0  0  0  0  0  0
  -40.6060  -63.0690   46.4720 C   0  0  0  0  0  3  0  0  0  0  0  0
  -41.6150  -63.4120   47.5090 C   0  0  0  0  0  3  0  0  0  0  0  0
  -42.1170  -64.5460   50.6410 C   0  0  0  0  0  3  0  0  0  0  0  0
  -42.3310  -65.6350   51.5650 C   0  0  0  0  0  0  0  0  0  0  0  0
  -43.4940  -65.6000   52.1850 O   0  0  0  0  0  1  0  0  0  0  0  0
  -41.5060  -66.7530   51.9360 C   0  0  0  0  0  0  0  0  0  0  0  0
  -40.8490  -67.5970   51.0920 C   0  0  0  0  0  3  0  0  0  0  0  0
  -40.0530  -68.6730   51.5130 C   0  0  0  0  0  3  0  0  0  0  0  0
  -39.9050  -68.9230   52.8550 C   0  0  0  0  0  0  0  0  0  0  0  0
  -40.5530  -68.0930   53.7420 C   0  0  0  0  0  0  0  0  0  0  0  0
  -38.9160  -70.2630   53.3850 Cl  0  0  0  0  0  0  0  0  0  0  0  0
  -40.3770  -68.3950   55.4490 Cl  0  0  0  0  0  0  0  0  0  0  0  0
  -41.3160  -67.0600   53.3060 C   0  0  0  0  0  3  0  0  0  0  0  0
  -37.3280  -64.8260   49.3620 C   0  0  0  0  0  0  0  0  0  0  0  0
  -36.3550  -63.8590   49.3520 C   0  0  0  0  0  3  0  0  0  0  0  0
  -34.9940  -64.1910   49.4130 C   0  0  0  0  0  3  0  0  0  0  0  0
  -34.5660  -65.4980   49.4860 C   0  0  0  0  0  0  0  0  0  0  0  0
  -35.5370  -66.4760   49.4960 C   0  0  0  0  0  3  0  0  0  0  0  0
  -36.8750  -66.1470   49.4370 C   0  0  0  0  0  3  0  0  0  0  0  0
  -33.2230  -65.8410   49.5470 O   0  0  0  0  0  0  0  0  0  0  0  0
  -32.2890  -65.2480   48.6630 C   0  0  0  0  0  1  0  0  0  0  0  0
  1  5  1  0  0  0  0
  1  9  1  0  0  0  0
  2  1  1  0  0  0  0
  3  2  1  0  0  0  0
  3  4  1  0  0  0  0
  4 20  1  0  0  0  0
  4  5  2  0  0  0  0
  6  3  1  0  0  0  0
  7  6  2  0  0  0  0
  7  8  1  0  0  0  0
  8  2  2  0  0  0  0
  9 10  2  0  0  0  0
 10 12  1  0  0  0  0
 10 11  1  0  0  0  0
 12 19  1  0  0  0  0
 13 14  1  0  0  0  0
 13 12  2  0  0  0  0
 14 15  2  0  0  0  0
 15 17  1  0  0  0  0
 15 16  1  0  0  0  0
 16 18  1  0  0  0  0
 19 16  2  0  0  0  0
 20 25  1  0  0  0  0
 21 20  2  0  0  0  0
 21 22  1  0  0  0  0
 22 23  2  0  0  0  0
 23 24  1  0  0  0  0
 23 26  1  0  0  0  0
 25 24  2  0  0  0  0
 27 26  1  0  0  0  0
M  END
>  <Pose>
1

>  <Score>
-8.000

$$$$
