/Users/jonathanwahrer/Desktop/Msc/3_Semester/Drug_Design_Praktikum/waehrer_HTS_screening/HTS_experiment/out/docking_results/vina_output/3e7o/1536_docked.pdbqt
 OpenBabel03192216303D

 31 34  0  0  1  0  0  0  0  0999 V2000
  -38.4070  -64.4800   48.2590 S   0  0  0  0  0  0  0  0  0  0  0  0
  -38.4360  -63.1280   48.9800 O   0  0  0  0  0  0  0  0  0  0  0  0
  -37.9860  -64.1050   46.8360 O   0  0  0  0  0  0  0  0  0  0  0  0
  -39.9410  -65.0950   48.2440 N   0  0  0  0  0  0  0  0  0  0  0  0
  -41.0700  -64.4020   48.6650 C   0  0  0  0  0  2  0  0  0  0  0  0
  -41.4740  -64.5800   50.0940 C   0  0  0  0  0  2  0  0  0  0  0  0
  -40.8950  -65.8940   50.6140 C   0  0  2  0  0  3  0  0  0  0  0  0
  -41.1150  -66.8700   49.4470 C   0  0  0  0  0  2  0  0  0  0  0  0
  -40.0230  -66.5370   48.4420 C   0  0  0  0  0  2  0  0  0  0  0  0
  -41.5520  -66.3430   51.8290 C   0  0  0  0  0  0  0  0  0  0  0  0
  -42.6860  -65.8870   52.1280 O   0  0  0  0  0  0  0  0  0  0  0  0
  -40.9560  -67.2780   52.6820 N   0  0  0  0  0  0  0  0  0  0  0  0
  -41.6090  -67.7820   53.8960 C   0  0  0  0  0  2  0  0  0  0  0  0
  -39.6390  -67.7880   52.4250 C   0  0  0  0  0  2  0  0  0  0  0  0
  -40.5660  -68.5970   54.6330 C   0  0  0  0  0  2  0  0  0  0  0  0
  -40.1510  -69.7300   53.8280 N   0  0  0  0  0  0  0  0  0  0  0  0
  -39.5830  -69.3000   52.5630 C   0  0  0  0  0  2  0  0  0  0  0  0
  -39.2170  -70.5660   54.5510 C   0  0  0  0  0  1  0  0  0  0  0  0
  -37.1450  -65.3930   49.0340 C   0  0  0  0  0  0  0  0  0  0  0  0
  -37.4020  -66.7180   49.4290 C   0  0  0  0  0  3  0  0  0  0  0  0
  -36.4760  -67.4830   50.0890 C   0  0  0  0  0  0  0  0  0  0  0  0
  -35.2540  -66.9590   50.3820 C   0  0  0  0  0  0  0  0  0  0  0  0
  -36.7680  -68.8000   50.4670 O   0  0  0  0  0  0  0  0  0  0  0  0
  -34.9460  -65.6720   50.0200 C   0  0  0  0  0  3  0  0  0  0  0  0
  -34.2980  -67.7750   51.0790 N   0  0  0  0  0  0  0  0  0  0  0  0
  -35.9070  -64.9140   49.3470 C   0  0  0  0  0  0  0  0  0  0  0  0
  -35.4320  -63.3020   48.8390 Cl  0  0  0  0  0  0  0  0  0  0  0  0
  -34.6450  -69.0990   51.4450 C   0  0  0  0  0  0  0  0  0  0  0  0
  -33.3620  -67.3830   51.3060 H   0  0  0  0  0  0  0  0  0  0  0  0
  -33.7750  -69.9600   51.6960 O   0  0  0  0  0  0  0  0  0  0  0  0
  -36.0910  -69.4330   51.5200 C   0  0  0  0  0  2  0  0  0  0  0  0
  1  2  2  0  0  0  0
  1 19  1  0  0  0  0
  3  1  2  0  0  0  0
  4  1  1  0  0  0  0
  4  9  1  0  0  0  0
  4  5  1  0  0  0  0
  5  6  1  0  0  0  0
  6  7  1  0  0  0  0
  7 10  1  1  0  0  0
  8  7  1  0  0  0  0
  9  8  1  0  0  0  0
 10 11  2  0  0  0  0
 10 12  1  0  0  0  0
 12 13  1  0  0  0  0
 13 15  1  0  0  0  0
 14 17  1  0  0  0  0
 14 12  1  0  0  0  0
 16 18  1  0  0  0  0
 16 15  1  0  0  0  0
 17 16  1  0  0  0  0
 19 26  2  0  0  0  0
 19 20  1  0  0  0  0
 20 21  2  0  0  0  0
 21 22  1  0  0  0  0
 21 23  1  0  0  0  0
 22 25  1  0  0  0  0
 23 31  1  0  0  0  0
 24 22  2  0  0  0  0
 25 29  1  0  0  0  0
 25 28  1  0  0  0  0
 26 24  1  0  0  0  0
 27 26  1  0  0  0  0
 28 31  1  0  0  0  0
 28 30  2  0  0  0  0
M  END
>  <Pose>
1

>  <Score>
-8.656

$$$$
