/Users/jonathanwahrer/Desktop/Msc/3_Semester/Drug_Design_Praktikum/waehrer_HTS_screening/HTS_experiment/out/docking_results/vina_output/3e7o/1553_docked.pdbqt
 OpenBabel03192216313D

 29 32  0  0  1  0  0  0  0  0999 V2000
  -40.7050  -67.0540   50.0580 C   0  0  1  0  0  3  0  0  0  0  0  0
  -41.5470  -65.9720   49.7110 N   0  0  0  0  0  4  0  0  0  0  0  0
  -40.9440  -64.8810   49.0040 C   0  0  2  0  0  3  0  0  0  0  0  0
  -39.7300  -64.3770   49.8030 C   0  0  0  0  0  2  0  0  0  0  0  0
  -38.7950  -65.5190   49.7810 C   0  0  0  0  0  0  0  0  0  0  0  0
  -37.4180  -65.5760   49.6430 C   0  0  0  0  0  0  0  0  0  0  0  0
  -37.0770  -66.9100   49.6840 C   0  0  0  0  0  0  0  0  0  0  0  0
  -38.1850  -67.6510   49.8390 N   0  0  0  0  0  0  0  0  0  0  0  0
  -39.2560  -66.7930   49.8990 C   0  0  0  0  0  0  0  0  0  0  0  0
  -35.7390  -67.2370   49.5640 C   0  0  0  0  0  3  0  0  0  0  0  0
  -34.8190  -66.2300   49.4120 C   0  0  0  0  0  3  0  0  0  0  0  0
  -35.1620  -64.8980   49.3720 C   0  0  0  0  0  3  0  0  0  0  0  0
  -36.5070  -64.5530   49.4910 C   0  0  0  0  0  3  0  0  0  0  0  0
  -42.3220  -66.3570   49.0820 H   0  0  0  0  0  0  0  0  0  0  0  0
  -42.0640  -65.5490   50.5220 H   0  0  0  0  0  0  0  0  0  0  0  0
  -38.2780  -68.6970   49.9090 H   0  0  0  0  0  0  0  0  0  0  0  0
  -40.9230  -67.4040   51.5090 C   0  0  0  0  0  0  0  0  0  0  0  0
  -41.8800  -66.7670   52.2780 C   0  0  0  0  0  0  0  0  0  0  0  0
  -42.0670  -67.1160   53.6190 C   0  0  0  0  0  0  0  0  0  0  0  0
  -43.3920  -66.2210   54.6690 Br  0  0  0  0  0  0  0  0  0  0  0  0
  -41.3110  -68.0940   54.2060 C   0  0  0  0  0  3  0  0  0  0  0  0
  -40.3590  -68.7300   53.4440 C   0  0  0  0  0  0  0  0  0  0  0  0
  -40.1670  -68.3890   52.1110 C   0  0  0  0  0  3  0  0  0  0  0  0
  -39.2720  -70.1100   54.2330 Br  0  0  0  0  0  0  0  0  0  0  0  0
  -42.6900  -65.7740   51.7930 O   0  0  0  0  0  0  0  0  0  0  0  0
  -42.5590  -65.2560   50.9680 H   0  0  0  0  0  0  0  0  0  0  0  0
  -41.9320  -63.8000   48.8130 C   0  0  0  0  0  0  0  0  0  0  0  0
  -42.6750  -63.4760   49.7750 O   0  0  0  0  0  1  0  0  0  0  0  0
  -42.0230  -63.1670   47.5840 O   0  0  0  0  0  0  0  0  0  0  0  0
  1 17  1  1  0  0  0
  2  1  1  0  0  0  0
  2 15  1  0  0  0  0
  3 27  1  1  0  0  0
  3  2  1  0  0  0  0
  3  4  1  0  0  0  0
  5  4  1  0  0  0  0
  5  9  2  0  0  0  0
  6  7  1  0  0  0  0
  6  5  1  0  0  0  0
  7  8  1  0  0  0  0
  8  9  1  0  0  0  0
  8 16  1  0  0  0  0
  9  1  1  0  0  0  0
 10  7  2  0  0  0  0
 11 10  1  0  0  0  0
 12 11  2  0  0  0  0
 12 13  1  0  0  0  0
 13  6  2  0  0  0  0
 14  2  1  0  0  0  0
 17 23  2  0  0  0  0
 17 18  1  0  0  0  0
 18 19  2  0  0  0  0
 19 21  1  0  0  0  0
 19 20  1  0  0  0  0
 22 21  2  0  0  0  0
 22 24  1  0  0  0  0
 23 22  1  0  0  0  0
 25 18  1  0  0  0  0
 26 25  1  0  0  0  0
 27 28  1  0  0  0  0
 29 27  2  0  0  0  0
M  END
>  <Pose>
1

>  <Score>
-8.720

$$$$
