/Users/jonathanwahrer/Desktop/Msc/3_Semester/Drug_Design_Praktikum/waehrer_HTS_screening/HTS_experiment/out/docking_results/vina_output/3e7o/1576_docked.pdbqt
 OpenBabel03192216323D

 30 33  0  0  0  0  0  0  0  0999 V2000
  -40.9380  -67.2040   51.7420 N   0  0  0  0  0  0  0  0  0  0  0  0
  -41.2410  -65.8880   52.2620 C   0  0  0  0  0  2  0  0  0  0  0  0
  -41.6980  -65.0040   51.1040 C   0  0  0  0  0  2  0  0  0  0  0  0
  -40.8700  -65.2700   49.9380 N   0  0  0  0  0  0  0  0  0  0  0  0
  -40.8060  -66.6210   49.4330 C   0  0  0  0  0  2  0  0  0  0  0  0
  -41.5050  -67.5230   50.4220 C   0  0  0  0  0  2  0  0  0  0  0  0
  -40.1330  -64.2370   49.2940 C   0  0  0  0  0  0  0  0  0  0  0  0
  -40.2170  -63.0590   49.7620 O   0  0  0  0  0  0  0  0  0  0  0  0
  -39.2800  -64.4470   48.1190 C   0  0  0  0  0  2  0  0  0  0  0  0
  -37.8520  -64.3500   48.4120 N   0  0  0  0  0  0  0  0  0  0  0  0
  -37.0470  -65.2430   48.9530 N   0  0  0  0  0  0  0  0  0  0  0  0
  -35.7910  -64.8060   49.0690 C   0  0  0  0  0  0  0  0  0  0  0  0
  -35.7790  -63.5210   48.5590 C   0  0  0  0  0  3  0  0  0  0  0  0
  -37.0710  -63.2630   48.1580 C   0  0  0  0  0  0  0  0  0  0  0  0
  -37.5290  -61.9970   47.5490 C   0  0  0  0  0  1  0  0  0  0  0  0
  -34.6450  -65.5480   49.6270 C   0  0  0  0  0  0  0  0  0  0  0  0
  -34.3850  -65.4770   50.8450 O   0  0  0  0  0  0  0  0  0  0  0  0
  -33.8550  -66.3350   48.7610 N   0  0  0  0  0  0  0  0  0  0  0  0
  -34.0940  -66.4640   47.3510 C   0  0  0  0  0  2  0  0  0  0  0  0
  -32.7130  -67.0780   49.3030 C   0  0  0  0  0  2  0  0  0  0  0  0
  -32.9230  -67.2790   46.7880 C   0  0  0  0  0  2  0  0  0  0  0  0
  -31.7140  -66.7240   47.1440 O   0  0  0  0  0  0  0  0  0  0  0  0
  -31.4910  -66.6860   48.5000 C   0  0  0  0  0  2  0  0  0  0  0  0
  -40.1640  -68.1760   52.3770 C   0  0  0  0  0  0  0  0  0  0  0  0
  -40.5010  -68.7950   53.5620 C   0  0  0  0  0  0  0  0  0  0  0  0
  -41.9780  -68.3540   54.3410 Cl  0  0  0  0  0  0  0  0  0  0  0  0
  -39.7070  -69.7550   54.1580 C   0  0  0  0  0  3  0  0  0  0  0  0
  -38.5370  -70.1240   53.5710 C   0  0  0  0  0  3  0  0  0  0  0  0
  -38.1610  -69.5360   52.3930 C   0  0  0  0  0  3  0  0  0  0  0  0
  -38.9590  -68.5760   51.8030 C   0  0  0  0  0  3  0  0  0  0  0  0
  1  2  1  0  0  0  0
  1 24  1  0  0  0  0
  3  2  1  0  0  0  0
  4  3  1  0  0  0  0
  5  4  1  0  0  0  0
  5  6  1  0  0  0  0
  6  1  1  0  0  0  0
  7  8  2  0  0  0  0
  7  4  1  0  0  0  0
  9 10  1  0  0  0  0
  9  7  1  0  0  0  0
 10 11  1  0  0  0  0
 11 12  2  0  0  0  0
 12 16  1  0  0  0  0
 13 12  1  0  0  0  0
 14 10  1  0  0  0  0
 14 13  2  0  0  0  0
 15 14  1  0  0  0  0
 16 17  2  0  0  0  0
 18 20  1  0  0  0  0
 18 16  1  0  0  0  0
 19 18  1  0  0  0  0
 21 22  1  0  0  0  0
 21 19  1  0  0  0  0
 22 23  1  0  0  0  0
 23 20  1  0  0  0  0
 24 25  1  0  0  0  0
 25 27  2  0  0  0  0
 25 26  1  0  0  0  0
 28 27  1  0  0  0  0
 29 28  2  0  0  0  0
 30 24  2  0  0  0  0
 30 29  1  0  0  0  0
M  END
>  <Pose>
1

>  <Score>
-8.179

$$$$
