/Users/jonathanwahrer/Desktop/Msc/3_Semester/Drug_Design_Praktikum/waehrer_HTS_screening/HTS_experiment/out/docking_results/vina_output/3e7o/1591_docked.pdbqt
 OpenBabel03192216323D

 26 29  0  0  0  0  0  0  0  0999 V2000
  -38.9960  -64.0470   49.8680 Cl  0  0  0  0  0  0  0  0  0  0  0  0
  -39.8160  -65.4830   50.4390 C   0  0  0  0  0  0  0  0  0  0  0  0
  -39.3530  -66.7220   50.1000 C   0  0  0  0  0  0  0  0  0  0  0  0
  -40.0960  -67.7940   50.6010 C   0  0  0  0  0  3  0  0  0  0  0  0
  -41.1830  -67.5830   51.3600 N   0  0  0  0  0  0  0  0  0  0  0  0
  -41.6440  -66.4000   51.6990 N   0  0  0  0  0  0  0  0  0  0  0  0
  -40.9630  -65.3420   51.2400 C   0  0  0  0  0  0  0  0  0  0  0  0
  -41.3260  -64.1690   51.5100 O   0  0  0  0  0  0  0  0  0  0  0  0
  -38.1940  -66.9350   49.3170 N   0  0  0  0  0  0  0  0  0  0  0  0
  -37.0320  -67.6580   49.8090 C   0  0  0  0  0  2  0  0  0  0  0  0
  -35.8140  -66.7740   49.8730 C   0  0  0  0  0  2  0  0  0  0  0  0
  -35.8300  -65.9560   48.6850 N   0  0  0  0  0  0  0  0  0  0  0  0
  -36.5660  -66.4370   47.5440 C   0  0  0  0  0  2  0  0  0  0  0  0
  -38.0540  -66.4250   47.9570 C   0  0  0  0  0  2  0  0  0  0  0  0
  -35.1430  -64.7190   48.6350 C   0  0  0  0  0  0  0  0  0  0  0  0
  -35.6780  -63.4710   48.7630 N   0  0  0  0  0  0  0  0  0  0  0  0
  -34.7170  -62.5740   48.6610 N   0  0  0  0  0  0  0  0  0  0  0  0
  -33.5750  -63.2220   48.4690 C   0  0  0  0  0  0  0  0  0  0  0  0
  -33.8540  -64.4990   48.4580 O   0  0  0  0  0  0  0  0  0  0  0  0
  -32.1950  -62.6650   48.2920 C   0  0  0  0  0  1  0  0  0  0  0  0
  -42.8070  -66.2650   52.5100 C   0  0  0  0  0  0  0  0  0  0  0  0
  -44.0670  -66.0660   51.9810 C   0  0  0  0  0  3  0  0  0  0  0  0
  -45.1850  -65.9360   52.7760 C   0  0  0  0  0  3  0  0  0  0  0  0
  -45.0810  -66.0010   54.1510 C   0  0  0  0  0  3  0  0  0  0  0  0
  -43.8260  -66.2000   54.6850 C   0  0  0  0  0  3  0  0  0  0  0  0
  -42.7070  -66.3300   53.8850 C   0  0  0  0  0  3  0  0  0  0  0  0
  1  2  1  0  0  0  0
  2  7  1  0  0  0  0
  3  2  2  0  0  0  0
  3  4  1  0  0  0  0
  4  5  2  0  0  0  0
  5  6  1  0  0  0  0
  6 21  1  0  0  0  0
  7  8  2  0  0  0  0
  7  6  1  0  0  0  0
  9 10  1  0  0  0  0
  9  3  1  0  0  0  0
 10 11  1  0  0  0  0
 12 11  1  0  0  0  0
 13 14  1  0  0  0  0
 13 12  1  0  0  0  0
 14  9  1  0  0  0  0
 15 12  1  0  0  0  0
 15 16  2  0  0  0  0
 17 16  1  0  0  0  0
 18 17  2  0  0  0  0
 19 18  1  0  0  0  0
 19 15  1  0  0  0  0
 20 18  1  0  0  0  0
 21 26  1  0  0  0  0
 22 21  2  0  0  0  0
 22 23  1  0  0  0  0
 23 24  2  0  0  0  0
 24 25  1  0  0  0  0
 26 25  2  0  0  0  0
M  END
>  <Pose>
1

>  <Score>
-7.383

$$$$
