/Users/jonathanwahrer/Desktop/Msc/3_Semester/Drug_Design_Praktikum/waehrer_HTS_screening/HTS_experiment/out/docking_results/vina_output/3e7o/1612_docked.pdbqt
 OpenBabel03192216333D

 31 34  0  0  0  0  0  0  0  0999 V2000
  -39.2650  -67.9180   50.9010 N   0  0  0  0  0  0  0  0  0  0  0  0
  -39.7790  -68.3940   52.0540 C   0  0  0  0  0  0  0  0  0  0  0  0
  -40.7430  -67.5020   52.4610 C   0  0  0  0  0  0  0  0  0  0  0  0
  -40.7860  -66.5350   51.5670 N   0  0  0  0  0  0  0  0  0  0  0  0
  -39.8780  -66.7720   50.5870 C   0  0  0  0  0  0  0  0  0  0  0  0
  -41.4130  -67.7720   53.6170 N   0  0  0  0  0  0  0  0  0  0  0  0
  -41.1520  -68.8660   54.3420 C   0  0  0  0  0  0  0  0  0  0  0  0
  -41.8010  -69.0720   55.4050 O   0  0  0  0  0  0  0  0  0  0  0  0
  -40.2220  -69.7600   53.9810 N   0  0  0  0  0  0  0  0  0  0  0  0
  -39.5400  -69.5180   52.8370 C   0  0  0  0  0  0  0  0  0  0  0  0
  -38.6710  -70.3500   52.4940 O   0  0  0  0  0  0  0  0  0  0  0  0
  -42.4450  -66.8400   54.0650 C   0  0  0  0  0  1  0  0  0  0  0  0
  -40.0510  -70.6010   54.5760 H   0  0  0  0  0  0  0  0  0  0  0  0
  -39.7100  -65.9510   49.4220 N   0  0  0  0  0  0  0  0  0  0  0  0
  -40.0540  -64.5180   49.5360 C   0  0  0  0  0  2  0  0  0  0  0  0
  -38.9050  -63.6400   49.1600 C   0  0  0  0  0  2  0  0  0  0  0  0
  -37.9790  -64.3300   48.2930 N   0  0  0  0  0  0  0  0  0  0  0  0
  -38.5280  -65.3100   47.3790 C   0  0  0  0  0  2  0  0  0  0  0  0
  -36.5870  -64.0450   48.3360 C   0  0  0  0  0  0  0  0  0  0  0  0
  -39.2300  -66.4030   48.1660 C   0  0  0  0  0  2  0  0  0  0  0  0
  -36.1440  -63.1770   49.1190 O   0  0  0  0  0  0  0  0  0  0  0  0
  -35.6270  -64.7600   47.4620 C   0  0  0  0  0  2  0  0  0  0  0  0
  -34.5880  -63.7400   47.0040 C   0  0  0  0  0  1  0  0  0  0  0  0
  -38.2660  -68.6120   50.1530 C   0  0  0  0  0  2  0  0  0  0  0  0
  -36.8640  -68.3850   50.5760 C   0  0  0  0  0  0  0  0  0  0  0  0
  -36.1790  -67.2520   50.2420 C   0  0  0  0  0  3  0  0  0  0  0  0
  -34.8530  -67.1340   50.6380 C   0  0  0  0  0  0  0  0  0  0  0  0
  -33.9970  -65.6580   50.1940 Cl  0  0  0  0  0  0  0  0  0  0  0  0
  -34.1910  -68.1050   51.3560 C   0  0  0  0  0  3  0  0  0  0  0  0
  -34.8990  -69.2470   51.6870 C   0  0  0  0  0  3  0  0  0  0  0  0
  -36.2030  -69.3900   51.3100 C   0  0  0  0  0  3  0  0  0  0  0  0
  1  2  1  0  0  0  0
  2  3  2  0  0  0  0
  2 10  1  0  0  0  0
  3  6  1  0  0  0  0
  4  3  1  0  0  0  0
  5  1  1  0  0  0  0
  5  4  2  0  0  0  0
  6 12  1  0  0  0  0
  6  7  1  0  0  0  0
  7  8  2  0  0  0  0
  9  7  1  0  0  0  0
  9 13  1  0  0  0  0
 10  9  1  0  0  0  0
 11 10  2  0  0  0  0
 14 15  1  0  0  0  0
 14  5  1  0  0  0  0
 16 15  1  0  0  0  0
 17 19  1  0  0  0  0
 17 16  1  0  0  0  0
 18 20  1  0  0  0  0
 18 17  1  0  0  0  0
 19 21  2  0  0  0  0
 20 14  1  0  0  0  0
 22 19  1  0  0  0  0
 23 22  1  0  0  0  0
 24 25  1  0  0  0  0
 24  1  1  0  0  0  0
 25 31  1  0  0  0  0
 26 25  2  0  0  0  0
 26 27  1  0  0  0  0
 27 29  2  0  0  0  0
 28 27  1  0  0  0  0
 29 30  1  0  0  0  0
 31 30  2  0  0  0  0
M  END
>  <Pose>
1

>  <Score>
-8.527

$$$$
