/Users/jonathanwahrer/Desktop/Msc/3_Semester/Drug_Design_Praktikum/waehrer_HTS_screening/HTS_experiment/out/docking_results/vina_output/3e7o/1622_docked.pdbqt
 OpenBabel03192216333D

 28 31  0  0  1  0  0  0  0  0999 V2000
  -38.3050  -66.4710   48.4630 C   0  0  0  0  0  0  0  0  0  0  0  0
  -38.9330  -66.8280   47.4340 O   0  0  0  0  0  0  0  0  0  0  0  0
  -37.0800  -65.7540   48.3940 N   0  0  0  0  0  0  0  0  0  0  0  0
  -36.5410  -65.4220   47.0940 C   0  0  0  0  0  2  0  0  0  0  0  0
  -35.6950  -64.1750   47.2720 C   0  0  0  0  0  2  0  0  0  0  0  0
  -36.2800  -63.2370   48.3050 C   0  0  1  0  0  0  0  0  0  0  0  0
  -35.5310  -62.0040   48.2330 N   0  0  0  0  0  0  0  0  0  0  0  0
  -36.1180  -61.1830   47.2350 C   0  0  0  0  0  0  0  0  0  0  0  0
  -35.5940  -60.2020   46.6200 O   0  0  0  0  0  0  0  0  0  0  0  0
  -37.4450  -61.6830   47.0480 N   0  0  0  0  0  0  0  0  0  0  0  0
  -37.6450  -62.7900   47.9280 C   0  0  0  0  0  0  0  0  0  0  0  0
  -38.7620  -63.2570   48.2810 O   0  0  0  0  0  0  0  0  0  0  0  0
  -38.4660  -61.1810   46.1250 C   0  0  0  0  0  1  0  0  0  0  0  0
  -36.2760  -63.8350   49.6810 C   0  0  0  0  0  2  0  0  0  0  0  0
  -36.3280  -65.3260   49.5520 C   0  0  0  0  0  2  0  0  0  0  0  0
  -34.7060  -61.7800   48.8220 H   0  0  0  0  0  0  0  0  0  0  0  0
  -38.9090  -66.8410   49.7470 C   0  0  0  0  0  0  0  0  0  0  0  0
  -38.4280  -67.9160   50.4610 C   0  0  0  0  0  0  0  0  0  0  0  0
  -37.0710  -68.8370   49.7980 Cl  0  0  0  0  0  0  0  0  0  0  0  0
  -38.9760  -68.2880   51.6720 C   0  0  0  0  0  3  0  0  0  0  0  0
  -40.0290  -67.5390   52.1420 C   0  0  0  0  0  3  0  0  0  0  0  0
  -40.5450  -66.4490   51.4580 C   0  0  0  0  0  0  0  0  0  0  0  0
  -39.9650  -66.1160   50.2520 C   0  0  0  0  0  3  0  0  0  0  0  0
  -41.6390  -65.7140   52.0020 N   0  0  0  0  0  0  0  0  0  0  0  0
  -42.0350  -64.4990   51.7090 N   0  0  0  0  0  0  0  0  0  0  0  0
  -43.1260  -64.1770   52.4640 C   0  0  0  0  0  3  0  0  0  0  0  0
  -43.4200  -65.2560   53.2680 C   0  0  0  0  0  3  0  0  0  0  0  0
  -42.4540  -66.2140   52.9480 C   0  0  0  0  0  3  0  0  0  0  0  0
  1 17  1  0  0  0  0
  2  1  2  0  0  0  0
  3  1  1  0  0  0  0
  3 15  1  0  0  0  0
  4  5  1  0  0  0  0
  4  3  1  0  0  0  0
  6  5  1  6  0  0  0
  6 14  1  0  0  0  0
  7  6  1  0  0  0  0
  7 16  1  0  0  0  0
  8  7  1  0  0  0  0
  9  8  2  0  0  0  0
 10  8  1  0  0  0  0
 10 11  1  0  0  0  0
 11 12  2  0  0  0  0
 11  6  1  0  0  0  0
 13 10  1  0  0  0  0
 15 14  1  0  0  0  0
 17 23  2  0  0  0  0
 17 18  1  0  0  0  0
 18 20  2  0  0  0  0
 19 18  1  0  0  0  0
 20 21  1  0  0  0  0
 22 24  1  0  0  0  0
 22 21  2  0  0  0  0
 23 22  1  0  0  0  0
 24 28  1  0  0  0  0
 25 24  1  0  0  0  0
 25 26  2  0  0  0  0
 26 27  1  0  0  0  0
 28 27  2  0  0  0  0
M  END
>  <Pose>
1

>  <Score>
-8.055

$$$$
