/Users/jonathanwahrer/Desktop/Msc/3_Semester/Drug_Design_Praktikum/waehrer_HTS_screening/HTS_experiment/out/docking_results/vina_output/3e7o/1630_docked.pdbqt
 OpenBabel03192216343D

 39 43  0  0  1  0  0  0  0  0999 V2000
  -41.2500  -67.3540   50.0800 Cl  0  0  0  0  0  0  0  0  0  0  0  0
  -39.5080  -67.1570   49.8280 C   0  0  0  0  0  0  0  0  0  0  0  0
  -38.6190  -67.9100   50.5550 C   0  0  0  0  0  0  0  0  0  0  0  0
  -37.2520  -67.7580   50.3590 C   0  0  0  0  0  0  0  0  0  0  0  0
  -36.7170  -66.8780   49.4580 C   0  0  0  0  0  0  0  0  0  0  0  0
  -37.6490  -66.1240   48.7280 C   0  0  0  0  0  3  0  0  0  0  0  0
  -39.0060  -66.2660   48.9150 C   0  0  0  0  0  3  0  0  0  0  0  0
  -35.2660  -66.9630   49.5000 C   0  0  1  0  0  0  0  0  0  0  0  0
  -34.8060  -67.4200   48.1910 N   0  0  0  0  0  0  0  0  0  0  0  0
  -34.2980  -66.2180   47.5880 C   0  0  1  0  0  3  0  0  0  0  0  0
  -33.5230  -65.5990   48.7280 C   0  0  2  0  0  3  0  0  0  0  0  0
  -34.5440  -65.7060   49.8400 C   0  0  1  0  0  3  0  0  0  0  0  0
  -35.2920  -64.4670   49.7690 C   0  0  0  0  0  0  0  0  0  0  0  0
  -36.3980  -64.2280   50.3020 O   0  0  0  0  0  0  0  0  0  0  0  0
  -34.5680  -63.5310   48.9830 N   0  0  0  0  0  0  0  0  0  0  0  0
  -33.3510  -64.1360   48.5420 C   0  0  0  0  0  0  0  0  0  0  0  0
  -32.3120  -63.6050   48.0820 O   0  0  0  0  0  0  0  0  0  0  0  0
  -34.9710  -67.9980   50.5190 C   0  0  0  0  0  0  0  0  0  0  0  0
  -33.8360  -68.4180   50.8940 O   0  0  0  0  0  0  0  0  0  0  0  0
  -36.2060  -68.4560   51.0230 N   0  0  0  0  0  0  0  0  0  0  0  0
  -39.1520  -68.8810   51.5490 C   0  0  0  0  0  1  0  0  0  0  0  0
  -35.5970  -67.8630   47.6770 H   0  0  0  0  0  0  0  0  0  0  0  0
  -36.3150  -69.1950   51.7680 H   0  0  0  0  0  0  0  0  0  0  0  0
  -33.4130  -66.5270   46.4000 C   0  0  0  0  0  2  0  0  0  0  0  0
  -32.2620  -67.3630   46.9190 C   0  0  0  0  0  2  0  0  0  0  0  0
  -31.8530  -68.4030   45.9430 C   0  0  0  0  0  0  0  0  0  0  0  0
  -31.7850  -69.6090   46.3130 O   0  0  0  0  0  0  0  0  0  0  0  0
  -31.5560  -67.9750   44.6210 N   0  0  0  0  0  0  0  0  0  0  0  0
  -32.1250  -67.2140   44.2130 H   0  0  0  0  0  0  0  0  0  0  0  0
  -30.7660  -68.4630   44.1270 H   0  0  0  0  0  0  0  0  0  0  0  0
  -34.9230  -62.1680   48.6360 C   0  0  0  0  0  2  0  0  0  0  0  0
  -35.8490  -62.1080   47.4910 C   0  0  0  0  0  0  0  0  0  0  0  0
  -35.3250  -61.8040   46.2530 C   0  0  0  0  0  0  0  0  0  0  0  0
  -36.2020  -61.7480   45.1780 C   0  0  0  0  0  3  0  0  0  0  0  0
  -37.5390  -61.9860   45.3340 C   0  0  0  0  0  3  0  0  0  0  0  0
  -38.0230  -62.2880   46.5850 C   0  0  0  0  0  3  0  0  0  0  0  0
  -37.2040  -62.3570   47.6900 C   0  0  0  0  0  3  0  0  0  0  0  0
  -33.9730  -61.5680   46.1200 O   0  0  0  0  0  0  0  0  0  0  0  0
  -33.1850  -62.0110   45.0600 C   0  0  0  0  0  1  0  0  0  0  0  0
  2  1  1  0  0  0  0
  2  3  1  0  0  0  0
  3 21  1  0  0  0  0
  4  3  2  0  0  0  0
  4 20  1  0  0  0  0
  5  4  1  0  0  0  0
  6  7  1  0  0  0  0
  6  5  2  0  0  0  0
  7  2  2  0  0  0  0
  8  5  1  6  0  0  0
  8 12  1  0  0  0  0
  8 18  1  0  0  0  0
  9  8  1  0  0  0  0
 10 24  1  6  0  0  0
 10  9  1  0  0  0  0
 10 11  1  0  0  0  0
 11 16  1  6  0  0  0
 11 12  1  0  0  0  0
 12 13  1  6  0  0  0
 13 14  2  0  0  0  0
 15 13  1  0  0  0  0
 16 15  1  0  0  0  0
 17 16  2  0  0  0  0
 18 19  2  0  0  0  0
 18 20  1  0  0  0  0
 20 23  1  0  0  0  0
 22  9  1  0  0  0  0
 24 25  1  0  0  0  0
 26 27  2  0  0  0  0
 26 25  1  0  0  0  0
 28 26  1  0  0  0  0
 29 28  1  0  0  0  0
 30 28  1  0  0  0  0
 31 15  1  0  0  0  0
 32 37  1  0  0  0  0
 32 31  1  0  0  0  0
 33 32  2  0  0  0  0
 34 35  2  0  0  0  0
 34 33  1  0  0  0  0
 35 36  1  0  0  0  0
 36 37  2  0  0  0  0
 38 33  1  0  0  0  0
 39 38  1  0  0  0  0
M  END
>  <Pose>
1

>  <Score>
-7.595

$$$$
