/Users/jonathanwahrer/Desktop/Msc/3_Semester/Drug_Design_Praktikum/waehrer_HTS_screening/HTS_experiment/out/docking_results/vina_output/3e7o/1631_docked.pdbqt
 OpenBabel03192216343D

 29 32  0  0  1  0  0  0  0  0999 V2000
  -42.0940  -66.8370   51.6120 C   0  0  1  0  0  3  0  0  0  0  0  0
  -43.0960  -65.9150   52.0680 N   0  0  0  0  0  0  0  0  0  0  0  0
  -42.5520  -64.6050   52.1930 C   0  0  0  0  0  0  0  0  0  0  0  0
  -43.0510  -63.6230   52.8160 O   0  0  0  0  0  0  0  0  0  0  0  0
  -41.2720  -64.5800   51.4550 C   0  0  0  0  0  0  0  0  0  0  0  0
  -40.5180  -63.5850   51.3550 O   0  0  0  0  0  0  0  0  0  0  0  0
  -41.1240  -65.9240   50.9130 C   0  0  0  0  0  0  0  0  0  0  0  0
  -40.2450  -66.2490   49.9880 C   0  0  0  0  0  0  0  0  0  0  0  0
  -40.1920  -67.6050   49.6050 O   0  0  0  0  0  1  0  0  0  0  0  0
  -41.4410  -67.6010   52.7040 C   0  0  0  0  0  0  0  0  0  0  0  0
  -40.6250  -68.6940   52.4430 C   0  0  0  0  0  3  0  0  0  0  0  0
  -40.0010  -69.4280   53.4240 C   0  0  0  0  0  0  0  0  0  0  0  0
  -38.9770  -70.7990   53.0570 Cl  0  0  0  0  0  0  0  0  0  0  0  0
  -40.2030  -69.0520   54.7340 C   0  0  0  0  0  3  0  0  0  0  0  0
  -41.0050  -67.9740   55.0430 C   0  0  0  0  0  3  0  0  0  0  0  0
  -41.6170  -67.2560   54.0410 C   0  0  0  0  0  3  0  0  0  0  0  0
  -39.3420  -65.3070   49.3430 C   0  0  0  0  0  0  0  0  0  0  0  0
  -38.0290  -65.1710   49.8180 C   0  0  0  0  0  3  0  0  0  0  0  0
  -37.1440  -64.3090   49.2090 C   0  0  0  0  0  3  0  0  0  0  0  0
  -37.4940  -63.5450   48.1150 C   0  0  0  0  0  3  0  0  0  0  0  0
  -38.7770  -63.6650   47.6320 C   0  0  0  0  0  3  0  0  0  0  0  0
  -39.6730  -64.5380   48.2510 C   0  0  0  0  0  3  0  0  0  0  0  0
  -44.4370  -66.2450   52.3600 C   0  0  1  0  0  3  0  0  0  0  0  0
  -45.3810  -65.6070   51.6180 N   0  0  0  0  0  0  0  0  0  0  0  0
  -46.6820  -65.8310   51.7960 C   0  0  0  0  0  3  0  0  0  0  0  0
  -45.1010  -64.9110   50.8730 H   0  0  0  0  0  0  0  0  0  0  0  0
  -47.0580  -66.7390   52.7600 C   0  0  0  0  0  3  0  0  0  0  0  0
  -46.0830  -67.3750   53.4990 C   0  0  0  0  0  3  0  0  0  0  0  0
  -44.7720  -67.1410   53.3140 N   0  0  0  0  0  0  0  0  0  0  0  0
  1  2  1  0  0  0  0
  1 10  1  1  0  0  0
  2  3  1  0  0  0  0
  3  4  2  0  0  0  0
  5  3  1  0  0  0  0
  6  5  2  0  0  0  0
  7  5  1  0  0  0  0
  7  1  1  0  0  0  0
  8  7  2  0  0  0  0
  9  8  1  0  0  0  0
 10 16  1  0  0  0  0
 11 10  2  0  0  0  0
 11 12  1  0  0  0  0
 12 14  2  0  0  0  0
 13 12  1  0  0  0  0
 14 15  1  0  0  0  0
 16 15  2  0  0  0  0
 17 18  1  0  0  0  0
 17  8  1  0  0  0  0
 19 18  2  0  0  0  0
 20 19  1  0  0  0  0
 21 20  2  0  0  0  0
 21 22  1  0  0  0  0
 22 17  2  0  0  0  0
 23  2  1  6  0  0  0
 23 29  1  0  0  0  0
 24 25  1  0  0  0  0
 24 23  1  0  0  0  0
 25 27  2  0  0  0  0
 26 24  1  0  0  0  0
 27 28  1  0  0  0  0
 29 28  2  0  0  0  0
M  END
>  <Pose>
1

>  <Score>
-8.984

$$$$
