/Users/jonathanwahrer/Desktop/Msc/3_Semester/Drug_Design_Praktikum/waehrer_HTS_screening/HTS_experiment/out/docking_results/vina_output/3e7o/1637_docked.pdbqt
 OpenBabel03192216343D

 29 32  0  0  0  0  0  0  0  0999 V2000
  -36.7000  -63.2340   47.6320 C   0  0  0  0  0  0  0  0  0  0  0  0
  -36.3860  -64.4250   48.1550 N   0  0  0  0  0  0  0  0  0  0  0  0
  -37.2180  -65.4590   48.2170 C   0  0  0  0  0  0  0  0  0  0  0  0
  -38.5120  -65.2710   47.7050 C   0  0  0  0  0  0  0  0  0  0  0  0
  -38.8230  -64.0680   47.1790 C   0  0  0  0  0  0  0  0  0  0  0  0
  -37.9130  -63.0540   47.1420 N   0  0  0  0  0  0  0  0  0  0  0  0
  -39.4330  -66.3890   47.9240 C   0  0  0  0  0  2  0  0  0  0  0  0
  -39.3300  -66.7050   49.3150 N   0  0  0  0  0  0  0  0  0  0  0  0
  -38.0470  -67.5370   49.3740 C   0  0  0  0  0  2  0  0  0  0  0  0
  -36.8940  -66.7830   48.8110 C   0  0  0  0  0  2  0  0  0  0  0  0
  -38.9490  -65.5820   50.2460 C   0  0  0  0  0  2  0  0  0  0  0  0
  -40.2700  -65.4450   51.0080 C   0  0  0  0  0  0  0  0  0  0  0  0
  -40.7440  -66.3070   51.9180 C   0  0  0  0  0  0  0  0  0  0  0  0
  -41.9770  -66.1370   52.6040 C   0  0  0  0  0  0  0  0  0  0  0  0
  -39.7740  -67.6800   52.3280 Cl  0  0  0  0  0  0  0  0  0  0  0  0
  -42.6740  -64.9750   52.2590 C   0  0  0  0  0  0  0  0  0  0  0  0
  -42.4960  -66.9800   53.5270 C   0  0  0  0  0  3  0  0  0  0  0  0
  -43.8660  -64.7580   52.8860 C   0  0  0  0  0  3  0  0  0  0  0  0
  -42.2210  -64.1350   51.3940 O   0  0  0  0  0  0  0  0  0  0  0  0
  -44.4290  -65.6260   53.8490 C   0  0  0  0  0  3  0  0  0  0  0  0
  -43.6870  -66.7780   54.1660 C   0  0  0  0  0  3  0  0  0  0  0  0
  -41.0540  -64.3210   50.7570 C   0  0  0  0  0  0  0  0  0  0  0  0
  -40.6190  -63.4760   49.8850 O   0  0  0  0  0  0  0  0  0  0  0  0
  -40.0960  -63.8830   46.6600 O   0  0  0  0  0  0  0  0  0  0  0  0
  -40.4570  -64.3830   45.8410 H   0  0  0  0  0  0  0  0  0  0  0  0
  -35.4980  -61.9320   47.7230 S   0  0  0  0  0  0  0  0  0  0  0  0
  -35.2060  -61.5460   49.0860 O   0  0  0  0  0  0  0  0  0  0  0  0
  -36.0480  -60.7910   46.9210 O   0  0  0  0  0  0  0  0  0  0  0  0
  -34.0480  -62.5580   46.8400 C   0  0  0  0  0  1  0  0  0  0  0  0
  1 26  1  0  0  0  0
  1  2  2  0  0  0  0
  2  3  1  0  0  0  0
  3 10  1  0  0  0  0
  4  7  1  0  0  0  0
  4  3  2  0  0  0  0
  5  4  1  0  0  0  0
  6  5  2  0  0  0  0
  6  1  1  0  0  0  0
  7  8  1  0  0  0  0
  8  9  1  0  0  0  0
  8 11  1  0  0  0  0
 10  9  1  0  0  0  0
 11 12  1  0  0  0  0
 12 13  2  0  0  0  0
 13 15  1  0  0  0  0
 13 14  1  0  0  0  0
 14 17  1  0  0  0  0
 16 14  2  0  0  0  0
 16 18  1  0  0  0  0
 17 21  2  0  0  0  0
 18 20  2  0  0  0  0
 19 16  1  0  0  0  0
 20 21  1  0  0  0  0
 22 12  1  0  0  0  0
 22 19  1  0  0  0  0
 23 22  2  0  0  0  0
 24  5  1  0  0  0  0
 25 24  1  0  0  0  0
 26 27  2  0  0  0  0
 28 26  2  0  0  0  0
 29 26  1  0  0  0  0
M  END
>  <Pose>
1

>  <Score>
-8.066

$$$$
