/Users/jonathanwahrer/Desktop/Msc/3_Semester/Drug_Design_Praktikum/waehrer_HTS_screening/HTS_experiment/out/docking_results/vina_output/3e7o/1638_docked.pdbqt
 OpenBabel03192216353D

 38 41  0  0  1  0  0  0  0  0999 V2000
  -39.5500  -65.8400   49.3500 C   0  0  0  0  0  0  0  0  0  0  0  0
  -39.0620  -64.6280   49.8200 C   0  0  0  0  0  0  0  0  0  0  0  0
  -38.0670  -63.9940   49.1440 N   0  0  0  0  0  0  0  0  0  0  0  0
  -37.5220  -64.4890   48.0240 C   0  0  0  0  0  0  0  0  0  0  0  0
  -37.9900  -65.6620   47.5630 N   0  0  0  0  0  0  0  0  0  0  0  0
  -38.9720  -66.3260   48.1970 C   0  0  0  0  0  3  0  0  0  0  0  0
  -36.4820  -63.8210   47.3140 N   0  0  0  0  0  0  0  0  0  0  0  0
  -36.1160  -62.4540   47.5920 C   0  0  0  0  0  2  0  0  0  0  0  0
  -34.6580  -62.2530   47.9010 C   0  0  0  0  0  2  0  0  0  0  0  0
  -33.7880  -63.3420   47.2940 C   0  0  2  0  0  0  0  0  0  0  0  0
  -34.5120  -63.6920   45.9830 C   0  0  0  0  0  2  0  0  0  0  0  0
  -35.7390  -64.4940   46.2630 C   0  0  0  0  0  2  0  0  0  0  0  0
  -33.6580  -64.4880   48.0590 N   0  0  0  0  0  0  0  0  0  0  0  0
  -33.5520  -64.4420   49.4650 C   0  0  0  0  0  2  0  0  0  0  0  0
  -34.2150  -65.7170   50.0140 C   0  0  0  0  0  2  0  0  0  0  0  0
  -34.1880  -66.7570   48.9260 C   0  0  0  0  0  2  0  0  0  0  0  0
  -32.9000  -66.7430   48.1440 C   0  0  0  0  0  2  0  0  0  0  0  0
  -32.6140  -65.3580   47.5890 C   0  0  0  0  0  2  0  0  0  0  0  0
  -32.5060  -62.7210   46.8890 C   0  0  0  0  0  0  0  0  0  0  0  0
  -32.2050  -62.5930   45.6550 O   0  0  0  0  0  0  0  0  0  0  0  0
  -31.5580  -62.2440   47.8010 N   0  0  0  0  0  0  0  0  0  0  0  0
  -30.6820  -62.8130   47.9540 H   0  0  0  0  0  0  0  0  0  0  0  0
  -31.6150  -61.3660   48.3560 H   0  0  0  0  0  0  0  0  0  0  0  0
  -39.6370  -64.1120   50.9960 N   0  0  0  0  0  0  0  0  0  0  0  0
  -39.1510  -63.4480   51.6330 H   0  0  0  0  0  0  0  0  0  0  0  0
  -40.6030  -64.4010   51.2560 H   0  0  0  0  0  0  0  0  0  0  0  0
  -40.8320  -66.6920   50.1850 S   0  0  0  0  0  0  0  0  0  0  0  0
  -41.7580  -65.7510   50.8850 O   0  0  0  0  0  0  0  0  0  0  0  0
  -41.5530  -67.5360   49.1640 O   0  0  0  0  0  0  0  0  0  0  0  0
  -40.0780  -67.7900   51.3500 C   0  0  0  0  0  0  0  0  0  0  0  0
  -40.7420  -68.1260   52.5120 C   0  0  0  0  0  0  0  0  0  0  0  0
  -40.1160  -68.9850   53.3910 C   0  0  0  0  0  3  0  0  0  0  0  0
  -38.8530  -69.5050   53.1290 C   0  0  0  0  0  3  0  0  0  0  0  0
  -38.2220  -69.1460   51.9570 C   0  0  0  0  0  0  0  0  0  0  0  0
  -38.8230  -68.2880   51.0580 C   0  0  0  0  0  3  0  0  0  0  0  0
  -36.6160  -69.7980   51.6070 Cl  0  0  0  0  0  0  0  0  0  0  0  0
  -41.9810  -67.5940   52.7360 O   0  0  0  0  0  0  0  0  0  0  0  0
  -42.6250  -67.5300   53.9780 C   0  0  0  0  0  1  0  0  0  0  0  0
  1  2  2  0  0  0  0
  1 27  1  0  0  0  0
  2 24  1  0  0  0  0
  3  2  1  0  0  0  0
  4  3  2  0  0  0  0
  5  4  1  0  0  0  0
  5  6  2  0  0  0  0
  6  1  1  0  0  0  0
  7  8  1  0  0  0  0
  7  4  1  0  0  0  0
  8  9  1  0  0  0  0
 10 19  1  6  0  0  0
 10  9  1  0  0  0  0
 10 13  1  0  0  0  0
 11 12  1  0  0  0  0
 11 10  1  0  0  0  0
 12  7  1  0  0  0  0
 13 14  1  0  0  0  0
 14 15  1  0  0  0  0
 16 15  1  0  0  0  0
 17 16  1  0  0  0  0
 18 13  1  0  0  0  0
 18 17  1  0  0  0  0
 19 21  1  0  0  0  0
 20 19  2  0  0  0  0
 21 22  1  0  0  0  0
 21 23  1  0  0  0  0
 24 26  1  0  0  0  0
 24 25  1  0  0  0  0
 27 28  2  0  0  0  0
 27 30  1  0  0  0  0
 29 27  2  0  0  0  0
 30 31  1  0  0  0  0
 31 37  1  0  0  0  0
 31 32  2  0  0  0  0
 33 32  1  0  0  0  0
 34 33  2  0  0  0  0
 35 30  2  0  0  0  0
 35 34  1  0  0  0  0
 36 34  1  0  0  0  0
 37 38  1  0  0  0  0
M  END
>  <Pose>
1

>  <Score>
-7.843

$$$$
