/Users/jonathanwahrer/Desktop/Msc/3_Semester/Drug_Design_Praktikum/waehrer_HTS_screening/HTS_experiment/out/docking_results/vina_output/3e7o/1651_docked.pdbqt
 OpenBabel03192216353D

 23 26  0  0  1  0  0  0  0  0999 V2000
  -34.4270  -69.9430   52.0090 Cl  0  0  0  0  0  0  0  0  0  0  0  0
  -35.8080  -69.0930   51.3100 C   0  0  0  0  0  0  0  0  0  0  0  0
  -35.6440  -68.0290   50.4570 C   0  0  0  0  0  3  0  0  0  0  0  0
  -36.7570  -67.3690   49.9140 C   0  0  0  0  0  0  0  0  0  0  0  0
  -38.0320  -67.7590   50.2130 C   0  0  0  0  0  0  0  0  0  0  0  0
  -38.2080  -68.8480   51.0860 C   0  0  0  0  0  3  0  0  0  0  0  0
  -37.0970  -69.4710   51.5990 C   0  0  0  0  0  3  0  0  0  0  0  0
  -39.0040  -66.9600   49.5590 N   0  0  0  0  0  0  0  0  0  0  0  0
  -38.2890  -66.0020   48.7980 C   0  0  0  0  0  0  0  0  0  0  0  0
  -38.8420  -65.1180   48.0800 O   0  0  0  0  0  0  0  0  0  0  0  0
  -36.8370  -66.2160   48.9850 C   0  0  1  0  0  0  0  0  0  0  0  0
  -36.2890  -64.9540   49.6180 C   0  0  0  0  0  2  0  0  0  0  0  0
  -36.3350  -63.9200   48.5300 C   0  0  0  0  0  0  0  0  0  0  0  0
  -36.8960  -62.8160   48.6610 O   0  0  0  0  0  0  0  0  0  0  0  0
  -35.6880  -64.2680   47.3000 N   0  0  0  0  0  0  0  0  0  0  0  0
  -35.6120  -65.6340   46.9130 C   0  0  0  0  0  0  0  0  0  0  0  0
  -35.0690  -66.2620   45.8350 N   0  0  0  0  0  0  0  0  0  0  0  0
  -35.2690  -67.5500   45.9680 N   0  0  0  0  0  0  0  0  0  0  0  0
  -35.9310  -67.8210   47.1040 C   0  0  0  0  0  3  0  0  0  0  0  0
  -36.1620  -66.5890   47.7290 C   0  0  0  0  0  0  0  0  0  0  0  0
  -40.4590  -67.1110   49.6640 C   0  0  0  0  0  1  0  0  0  0  0  0
  -35.2730  -63.5360   46.6830 H   0  0  0  0  0  0  0  0  0  0  0  0
  -34.5850  -65.7490   45.0610 H   0  0  0  0  0  0  0  0  0  0  0  0
  2  7  1  0  0  0  0
  2  1  1  0  0  0  0
  3  2  2  0  0  0  0
  4  5  2  0  0  0  0
  4  3  1  0  0  0  0
  5  6  1  0  0  0  0
  6  7  2  0  0  0  0
  8 21  1  0  0  0  0
  8  5  1  0  0  0  0
  9 11  1  0  0  0  0
  9  8  1  0  0  0  0
 10  9  2  0  0  0  0
 11 12  1  1  0  0  0
 11  4  1  0  0  0  0
 13 14  2  0  0  0  0
 13 12  1  0  0  0  0
 15 13  1  0  0  0  0
 16 15  1  0  0  0  0
 16 20  2  0  0  0  0
 17 18  1  0  0  0  0
 17 16  1  0  0  0  0
 18 19  2  0  0  0  0
 19 20  1  0  0  0  0
 20 11  1  0  0  0  0
 22 15  1  0  0  0  0
 23 17  1  0  0  0  0
M  END
>  <Pose>
1

>  <Score>
-7.457

$$$$
