/Users/jonathanwahrer/Desktop/Msc/3_Semester/Drug_Design_Praktikum/waehrer_HTS_screening/HTS_experiment/out/docking_results/vina_output/3e7o/1660_docked.pdbqt
 OpenBabel03192216353D

 31 34  0  0  0  0  0  0  0  0999 V2000
  -41.8660  -67.6140   53.9780 N   0  0  0  0  0  0  0  0  0  0  0  0
  -41.5900  -68.1270   55.1460 N   0  0  0  0  0  0  0  0  0  0  0  0
  -40.5090  -68.9130   55.1210 C   0  0  0  0  0  3  0  0  0  0  0  0
  -40.0420  -68.9080   53.8140 C   0  0  0  0  0  0  0  0  0  0  0  0
  -40.9240  -68.0790   53.1270 C   0  0  0  0  0  0  0  0  0  0  0  0
  -40.6850  -67.9140   51.8230 N   0  0  0  0  0  0  0  0  0  0  0  0
  -39.6440  -68.5190   51.2090 C   0  0  0  0  0  3  0  0  0  0  0  0
  -38.7780  -69.3230   51.8450 N   0  0  0  0  0  0  0  0  0  0  0  0
  -38.9880  -69.5160   53.1730 C   0  0  0  0  0  0  0  0  0  0  0  0
  -38.2030  -70.2620   53.8110 O   0  0  0  0  0  0  0  0  0  0  0  0
  -37.6380  -69.9690   51.1870 C   0  0  0  0  0  2  0  0  0  0  0  0
  -36.4880  -69.0580   51.0510 C   0  0  0  0  0  0  0  0  0  0  0  0
  -35.7220  -69.0080   52.0770 O   0  0  0  0  0  0  0  0  0  0  0  0
  -36.1640  -68.2740   49.9470 N   0  0  0  0  0  0  0  0  0  0  0  0
  -35.0120  -67.3590   49.9770 C   0  0  0  0  0  2  0  0  0  0  0  0
  -36.8980  -68.3180   48.7020 C   0  0  0  0  0  2  0  0  0  0  0  0
  -35.6390  -65.9630   49.8670 C   0  0  0  0  0  2  0  0  0  0  0  0
  -36.5270  -65.9000   48.7360 N   0  0  0  0  0  0  0  0  0  0  0  0
  -36.6200  -67.0770   47.8930 C   0  0  0  0  0  2  0  0  0  0  0  0
  -37.2990  -64.7480   48.4680 C   0  0  0  0  0  0  0  0  0  0  0  0
  -37.2040  -63.7670   49.2950 O   0  0  0  0  0  0  0  0  0  0  0  0
  -38.1480  -64.5670   47.4010 O   0  0  0  0  0  0  0  0  0  0  0  0
  -39.5660  -64.4130   47.6030 C   0  0  0  0  0  2  0  0  0  0  0  0
  -40.0210  -65.6440   48.3660 C   0  0  0  0  0  1  0  0  0  0  0  0
  -42.9270  -66.7290   53.6550 C   0  0  0  0  0  0  0  0  0  0  0  0
  -42.7750  -65.4680   53.1400 C   0  0  0  0  0  3  0  0  0  0  0  0
  -43.8790  -64.6770   52.8910 C   0  0  0  0  0  3  0  0  0  0  0  0
  -45.1690  -65.0880   53.1360 C   0  0  0  0  0  0  0  0  0  0  0  0
  -46.5720  -64.1120   52.8380 Cl  0  0  0  0  0  0  0  0  0  0  0  0
  -45.3440  -66.3570   53.6550 C   0  0  0  0  0  3  0  0  0  0  0  0
  -44.2300  -67.1320   53.8960 C   0  0  0  0  0  3  0  0  0  0  0  0
  1  2  1  0  0  0  0
  3  2  2  0  0  0  0
  4  3  1  0  0  0  0
  5  4  2  0  0  0  0
  5  1  1  0  0  0  0
  6  5  1  0  0  0  0
  7  6  2  0  0  0  0
  7  8  1  0  0  0  0
  8  9  1  0  0  0  0
  9 10  2  0  0  0  0
  9  4  1  0  0  0  0
 11  8  1  0  0  0  0
 12 11  1  0  0  0  0
 12 13  2  0  0  0  0
 14 15  1  0  0  0  0
 14 12  1  0  0  0  0
 16 14  1  0  0  0  0
 17 15  1  0  0  0  0
 18 17  1  0  0  0  0
 19 16  1  0  0  0  0
 19 18  1  0  0  0  0
 20 18  1  0  0  0  0
 20 21  2  0  0  0  0
 22 23  1  0  0  0  0
 22 20  1  0  0  0  0
 23 24  1  0  0  0  0
 25 31  1  0  0  0  0
 25  1  1  0  0  0  0
 26 25  2  0  0  0  0
 27 28  2  0  0  0  0
 27 26  1  0  0  0  0
 28 30  1  0  0  0  0
 29 28  1  0  0  0  0
 30 31  2  0  0  0  0
M  END
>  <Pose>
1

>  <Score>
-8.588

$$$$
