/Users/jonathanwahrer/Desktop/Msc/3_Semester/Drug_Design_Praktikum/waehrer_HTS_screening/HTS_experiment/out/docking_results/vina_output/3e7o/1673_docked.pdbqt
 OpenBabel03192216363D

 35 38  0  0  1  0  0  0  0  0999 V2000
  -40.4440  -64.8220   48.7650 C   0  0  2  0  0  3  0  0  0  0  0  0
  -39.1660  -64.4150   48.0820 C   0  0  1  0  0  3  0  0  0  0  0  0
  -39.1920  -63.0260   47.9580 N   0  0  0  0  0  0  0  0  0  0  0  0
  -40.6100  -62.7810   47.6010 C   0  0  0  0  0  0  0  0  0  0  0  0
  -41.0590  -61.8700   46.8540 O   0  0  0  0  0  0  0  0  0  0  0  0
  -41.3960  -63.7960   48.2850 C   0  0  0  0  0  0  0  0  0  0  0  0
  -42.6520  -63.7820   48.4270 O   0  0  0  0  0  0  0  0  0  0  0  0
  -38.0130  -65.2320   48.3650 C   0  0  0  0  0  0  0  0  0  0  0  0
  -36.9590  -64.8740   49.1460 C   0  0  0  0  0  3  0  0  0  0  0  0
  -35.9040  -65.7440   49.3720 C   0  0  0  0  0  0  0  0  0  0  0  0
  -35.9270  -67.0160   48.7800 C   0  0  0  0  0  0  0  0  0  0  0  0
  -36.9860  -67.3740   47.9960 C   0  0  0  0  0  3  0  0  0  0  0  0
  -38.0220  -66.5200   47.7760 C   0  0  0  0  0  3  0  0  0  0  0  0
  -34.9010  -67.9200   48.9720 O   0  0  0  0  0  1  0  0  0  0  0  0
  -40.3830  -64.8460   50.2260 C   0  0  0  0  0  0  0  0  0  0  0  0
  -40.4190  -63.7440   50.8760 O   0  0  0  0  0  0  0  0  0  0  0  0
  -40.2830  -66.0370   51.0570 C   0  0  0  0  0  0  0  0  0  0  0  0
  -40.7780  -66.0740   52.3410 C   0  0  0  0  0  3  0  0  0  0  0  0
  -40.6130  -67.2420   53.0780 C   0  0  0  0  0  3  0  0  0  0  0  0
  -39.9850  -68.3610   52.5970 C   0  0  0  0  0  0  0  0  0  0  0  0
  -39.7950  -69.9460   53.6780 Br  0  0  0  0  0  0  0  0  0  0  0  0
  -39.4880  -68.3290   51.3110 C   0  0  0  0  0  3  0  0  0  0  0  0
  -39.6500  -67.1750   50.5810 C   0  0  0  0  0  3  0  0  0  0  0  0
  -38.3350  -61.8820   47.9400 C   0  0  0  0  0  2  0  0  0  0  0  0
  -37.4470  -61.7170   46.7650 C   0  0  0  0  0  2  0  0  0  0  0  0
  -36.1830  -61.1210   46.8560 N   0  0  0  0  0  4  0  0  0  0  0  0
  -35.1570  -62.0340   47.3770 C   0  0  0  0  0  2  0  0  0  0  0  0
  -34.9170  -63.2040   46.4830 C   0  0  0  0  0  2  0  0  0  0  0  0
  -35.5920  -63.0300   45.2960 O   0  0  0  0  0  0  0  0  0  0  0  0
  -35.1830  -61.8020   44.7490 C   0  0  0  0  0  2  0  0  0  0  0  0
  -35.7620  -60.6400   45.5280 C   0  0  0  0  0  2  0  0  0  0  0  0
  -36.1740  -60.3050   47.4620 H   0  0  0  0  0  0  0  0  0  0  0  0
  -34.8390  -65.4170   50.1490 O   0  0  0  0  0  0  0  0  0  0  0  0
  -33.8240  -64.5480   49.7610 C   0  0  0  0  0  2  0  0  0  0  0  0
  -32.7250  -65.2150   48.9530 C   0  0  0  0  0  1  0  0  0  0  0  0
  1 15  1  1  0  0  0
  2  8  1  1  0  0  0
  2  1  1  0  0  0  0
  3  2  1  0  0  0  0
  4  3  1  0  0  0  0
  4  6  1  0  0  0  0
  5  4  2  0  0  0  0
  6  7  2  0  0  0  0
  6  1  1  0  0  0  0
  8  9  1  0  0  0  0
  9 10  2  0  0  0  0
 10 33  1  0  0  0  0
 11 14  1  0  0  0  0
 11 10  1  0  0  0  0
 12 11  2  0  0  0  0
 13 12  1  0  0  0  0
 13  8  2  0  0  0  0
 15 16  2  0  0  0  0
 15 17  1  0  0  0  0
 17 18  1  0  0  0  0
 18 19  2  0  0  0  0
 20 19  1  0  0  0  0
 20 21  1  0  0  0  0
 22 20  2  0  0  0  0
 23 17  2  0  0  0  0
 23 22  1  0  0  0  0
 24  3  1  0  0  0  0
 25 26  1  0  0  0  0
 25 24  1  0  0  0  0
 26 27  1  0  0  0  0
 26 32  1  0  0  0  0
 28 27  1  0  0  0  0
 29 28  1  0  0  0  0
 30 29  1  0  0  0  0
 30 31  1  0  0  0  0
 31 26  1  0  0  0  0
 34 33  1  0  0  0  0
 35 34  1  0  0  0  0
M  END
>  <Pose>
1

>  <Score>
-7.226

$$$$
