/Users/jonathanwahrer/Desktop/Msc/3_Semester/Drug_Design_Praktikum/waehrer_HTS_screening/HTS_experiment/out/docking_results/vina_output/3e7o/1687_docked.pdbqt
 OpenBabel03192216363D

 27 30  0  0  0  0  0  0  0  0999 V2000
  -40.9090  -66.5600   51.7680 N   0  0  0  0  0  0  0  0  0  0  0  0
  -40.3140  -67.6450   52.3140 C   0  0  0  0  0  2  0  0  0  0  0  0
  -40.8550  -68.3150   53.3880 C   0  0  0  0  0  0  0  0  0  0  0  0
  -42.1110  -67.8530   53.9660 C   0  0  0  0  0  0  0  0  0  0  0  0
  -42.3870  -68.6850   54.9790 N   0  0  0  0  0  2  0  0  0  0  0  0
  -41.4300  -69.6190   55.0900 N   0  0  0  0  0  0  0  0  0  0  0  0
  -40.5010  -69.4130   54.1420 C   0  0  0  0  0  0  0  0  0  0  0  0
  -39.4820  -70.1240   53.9920 O   0  0  0  0  0  0  0  0  0  0  0  0
  -42.6930  -66.7400   53.3820 C   0  0  0  0  0  0  0  0  0  0  0  0
  -42.0630  -66.1560   52.3180 C   0  0  0  0  0  3  0  0  0  0  0  0
  -41.4580  -70.3700   55.8250 H   0  0  0  0  0  0  0  0  0  0  0  0
  -40.3080  -65.8740   50.6300 C   0  0  0  0  0  2  0  0  0  0  0  0
  -39.7060  -66.9220   49.7190 C   0  0  0  0  0  2  0  0  0  0  0  0
  -38.2600  -66.8710   49.7240 N   0  0  0  0  0  0  0  0  0  0  0  0
  -37.5020  -65.9360   49.1120 C   0  0  0  0  0  3  0  0  0  0  0  0
  -36.1980  -66.1910   49.3200 N   0  0  0  0  0  0  0  0  0  0  0  0
  -36.0820  -67.3120   50.0810 C   0  0  0  0  0  0  0  0  0  0  0  0
  -34.9990  -68.0080   50.5810 C   0  0  0  0  0  3  0  0  0  0  0  0
  -37.3850  -67.7060   50.3120 C   0  0  0  0  0  0  0  0  0  0  0  0
  -35.2090  -69.1390   51.3410 C   0  0  0  0  0  0  0  0  0  0  0  0
  -33.8750  -70.0770   52.0110 Cl  0  0  0  0  0  0  0  0  0  0  0  0
  -36.5170  -69.5240   51.5640 C   0  0  0  0  0  3  0  0  0  0  0  0
  -37.6050  -68.8340   51.0680 C   0  0  0  0  0  3  0  0  0  0  0  0
  -43.9510  -66.2480   53.9330 C   0  0  0  0  0  0  0  0  0  0  0  0
  -43.9490  -65.6980   55.0630 O   0  0  0  0  0  0  0  0  0  0  0  0
  -45.1320  -66.3700   53.2520 O   0  0  0  0  0  0  0  0  0  0  0  0
  -45.9800  -67.4940   53.4270 C   0  0  0  0  0  1  0  0  0  0  0  0
  1  2  1  0  0  0  0
  1 10  1  0  0  0  0
  2  3  1  0  0  0  0
  3  4  2  0  0  0  0
  3  7  1  0  0  0  0
  4  5  1  0  0  0  0
  5  6  1  0  0  0  0
  6 11  1  0  0  0  0
  7  6  1  0  0  0  0
  8  7  2  0  0  0  0
  9 24  1  0  0  0  0
  9  4  1  0  0  0  0
 10  9  2  0  0  0  0
 12  1  1  0  0  0  0
 13 14  1  0  0  0  0
 13 12  1  0  0  0  0
 14 19  1  0  0  0  0
 15 16  2  0  0  0  0
 15 14  1  0  0  0  0
 16 17  1  0  0  0  0
 17 19  2  0  0  0  0
 17 18  1  0  0  0  0
 18 20  2  0  0  0  0
 19 23  1  0  0  0  0
 20 22  1  0  0  0  0
 20 21  1  0  0  0  0
 23 22  2  0  0  0  0
 24 25  2  0  0  0  0
 26 27  1  0  0  0  0
 26 24  1  0  0  0  0
M  END
>  <Pose>
1

>  <Score>
-8.649

$$$$
