/Users/jonathanwahrer/Desktop/Msc/3_Semester/Drug_Design_Praktikum/waehrer_HTS_screening/HTS_experiment/out/docking_results/vina_output/3e7o/1689_docked.pdbqt
 OpenBabel03192216373D

 32 35  0  0  1  0  0  0  0  0999 V2000
  -36.1540  -67.6590   49.9230 C   0  0  0  0  0  0  0  0  0  0  0  0
  -35.1980  -67.6150   50.7370 O   0  0  0  0  0  0  0  0  0  0  0  0
  -36.4410  -66.5050   49.1640 N   0  0  0  0  0  0  0  0  0  0  0  0
  -37.4690  -66.2570   48.1730 C   0  0  0  0  0  2  0  0  0  0  0  0
  -37.8970  -64.8890   48.4620 C   0  0  2  0  0  3  0  0  0  0  0  0
  -36.8810  -64.2930   49.4390 C   0  0  1  0  0  3  0  0  0  0  0  0
  -35.7040  -65.2710   49.2380 C   0  0  0  0  0  2  0  0  0  0  0  0
  -36.9220  -68.9160   49.8110 C   0  0  0  0  0  2  0  0  0  0  0  0
  -36.8530  -69.6870   51.0940 C   0  0  0  0  0  2  0  0  0  0  0  0
  -38.0170  -69.4070   51.9550 C   0  0  0  0  0  0  0  0  0  0  0  0
  -39.0960  -68.6530   51.6060 N   0  0  0  0  0  0  0  0  0  0  0  0
  -39.9810  -68.5760   52.6120 C   0  0  0  0  0  0  0  0  0  0  0  0
  -39.2670  -68.1720   50.6880 H   0  0  0  0  0  0  0  0  0  0  0  0
  -41.2090  -67.9580   52.7850 C   0  0  0  0  0  3  0  0  0  0  0  0
  -39.4510  -69.3090   53.6460 C   0  0  0  0  0  0  0  0  0  0  0  0
  -41.8990  -68.0740   53.9840 C   0  0  0  0  0  0  0  0  0  0  0  0
  -43.4450  -67.2840   54.1820 Cl  0  0  0  0  0  0  0  0  0  0  0  0
  -41.3710  -68.8080   55.0240 C   0  0  0  0  0  3  0  0  0  0  0  0
  -40.1410  -69.4200   54.8340 C   0  0  0  0  0  3  0  0  0  0  0  0
  -38.2750  -69.7970   53.2320 N   0  0  0  0  0  0  0  0  0  0  0  0
  -39.2210  -64.5920   48.8490 N   0  0  0  0  0  0  0  0  0  0  0  0
  -39.5210  -64.6760   50.1730 C   0  0  0  0  0  3  0  0  0  0  0  0
  -40.7830  -64.4040   50.6520 C   0  0  0  0  0  0  0  0  0  0  0  0
  -41.7870  -64.0340   49.7870 C   0  0  0  0  0  0  0  0  0  0  0  0
  -41.0980  -64.5000   52.1150 C   0  0  0  0  0  1  0  0  0  0  0  0
  -42.9570  -63.7780   50.2010 O   0  0  0  0  0  0  0  0  0  0  0  0
  -41.4910  -63.9510   48.4810 N   0  0  0  0  0  0  0  0  0  0  0  0
  -40.2490  -64.2270   48.0760 C   0  0  0  0  0  0  0  0  0  0  0  0
  -42.2520  -63.6690   47.7890 H   0  0  0  0  0  0  0  0  0  0  0  0
  -40.0300  -64.1310   46.8510 O   0  0  0  0  0  0  0  0  0  0  0  0
  -36.5120  -63.0100   49.1180 O   0  0  0  0  0  0  0  0  0  0  0  0
  -36.3760  -62.9630   48.1390 H   0  0  0  0  0  0  0  0  0  0  0  0
  1  2  2  0  0  0  0
  3  7  1  0  0  0  0
  3  1  1  0  0  0  0
  4  3  1  0  0  0  0
  5  4  1  1  0  0  0
  5 21  1  0  0  0  0
  5  6  1  0  0  0  0
  6 31  1  6  0  0  0
  7  6  1  0  0  0  0
  8  1  1  0  0  0  0
  8  9  1  0  0  0  0
  9 10  1  0  0  0  0
 10 20  2  0  0  0  0
 11 10  1  0  0  0  0
 11 12  1  0  0  0  0
 12 14  2  0  0  0  0
 12 15  1  0  0  0  0
 13 11  1  0  0  0  0
 14 16  1  0  0  0  0
 15 19  2  0  0  0  0
 16 17  1  0  0  0  0
 16 18  2  0  0  0  0
 19 18  1  0  0  0  0
 20 15  1  0  0  0  0
 21 22  1  0  0  0  0
 22 23  2  0  0  0  0
 23 25  1  0  0  0  0
 24 26  2  0  0  0  0
 24 23  1  0  0  0  0
 27 24  1  0  0  0  0
 28 27  1  0  0  0  0
 28 21  1  0  0  0  0
 29 27  1  0  0  0  0
 30 28  2  0  0  0  0
 32 31  1  0  0  0  0
M  END
>  <Pose>
1

>  <Score>
-8.872

$$$$
