/Users/jonathanwahrer/Desktop/Msc/3_Semester/Drug_Design_Praktikum/waehrer_HTS_screening/HTS_experiment/out/docking_results/vina_output/3e7o/1691_docked.pdbqt
 OpenBabel03192216373D

 35 39  0  0  1  0  0  0  0  0999 V2000
  -40.5350  -68.1130   52.8210 C   0  0  0  0  0  0  0  0  0  0  0  0
  -40.4820  -69.3490   52.6780 O   0  0  0  0  0  0  0  0  0  0  0  0
  -40.6860  -67.2790   51.7010 N   0  0  0  0  0  0  0  0  0  0  0  0
  -40.7920  -67.5700   50.3070 C   0  0  0  0  0  2  0  0  0  0  0  0
  -39.9300  -66.4840   49.6190 C   0  0  1  0  0  3  0  0  0  0  0  0
  -40.1910  -65.3400   50.5330 C   0  0  2  0  0  3  0  0  0  0  0  0
  -40.7910  -65.8360   51.8050 C   0  0  0  0  0  2  0  0  0  0  0  0
  -40.4380  -67.5380   54.1720 C   0  0  0  0  0  2  0  0  0  0  0  0
  -41.5920  -68.0050   55.0300 C   0  0  0  0  0  2  0  0  0  0  0  0
  -42.8550  -67.3620   54.5400 C   0  0  0  0  0  0  0  0  0  0  0  0
  -43.9960  -68.0230   54.2770 N   0  0  0  0  0  0  0  0  0  0  0  0
  -44.9530  -67.1800   53.8560 C   0  0  0  0  0  0  0  0  0  0  0  0
  -44.1530  -69.0620   54.3780 H   0  0  0  0  0  0  0  0  0  0  0  0
  -46.2810  -67.3560   53.4650 C   0  0  0  0  0  3  0  0  0  0  0  0
  -44.3790  -65.9270   53.8550 C   0  0  0  0  0  0  0  0  0  0  0  0
  -47.0300  -66.2720   53.0720 C   0  0  0  0  0  0  0  0  0  0  0  0
  -48.7080  -66.4410   52.5700 Cl  0  0  0  0  0  0  0  0  0  0  0  0
  -46.4580  -65.0300   53.0740 C   0  0  0  0  0  3  0  0  0  0  0  0
  -45.1320  -64.8400   53.4630 C   0  0  0  0  0  3  0  0  0  0  0  0
  -43.1070  -66.0790   54.2770 N   0  0  0  0  0  0  0  0  0  0  0  0
  -38.5650  -66.9290   49.5970 N   0  0  0  0  0  0  0  0  0  0  0  0
  -37.5590  -66.4770   48.8300 C   0  0  0  0  0  0  0  0  0  0  0  0
  -36.3920  -67.2020   49.1460 C   0  0  0  0  0  0  0  0  0  0  0  0
  -37.5030  -65.5160   47.8870 N   0  0  0  0  0  0  0  0  0  0  0  0
  -36.7460  -68.0750   50.1020 N   0  0  0  0  0  0  0  0  0  0  0  0
  -35.1990  -66.9480   48.5080 C   0  0  0  0  0  0  0  0  0  0  0  0
  -38.0380  -67.9260   50.3830 C   0  0  0  0  0  3  0  0  0  0  0  0
  -34.1720  -67.6130   48.8120 O   0  0  0  0  0  0  0  0  0  0  0  0
  -35.1840  -65.9860   47.5780 N   0  0  0  0  0  0  0  0  0  0  0  0
  -36.2920  -65.3040   47.2860 C   0  0  0  0  0  0  0  0  0  0  0  0
  -33.9290  -65.6920   46.8830 C   0  0  0  0  0  1  0  0  0  0  0  0
  -36.2610  -64.4030   46.4070 O   0  0  0  0  0  0  0  0  0  0  0  0
  -38.6510  -64.7480   47.5220 C   0  0  0  0  0  1  0  0  0  0  0  0
  -41.0770  -64.4020   50.0050 O   0  0  0  0  0  0  0  0  0  0  0  0
  -41.5900  -63.9350   50.7240 H   0  0  0  0  0  0  0  0  0  0  0  0
  1  8  1  0  0  0  0
  2  1  2  0  0  0  0
  3  7  1  0  0  0  0
  3  1  1  0  0  0  0
  4  3  1  0  0  0  0
  5 21  1  1  0  0  0
  5  4  1  0  0  0  0
  5  6  1  0  0  0  0
  6 34  1  6  0  0  0
  6  7  1  0  0  0  0
  8  9  1  0  0  0  0
 10  9  1  0  0  0  0
 11 13  1  0  0  0  0
 11 10  1  0  0  0  0
 12 11  1  0  0  0  0
 14 12  2  0  0  0  0
 15 12  1  0  0  0  0
 15 20  1  0  0  0  0
 16 18  2  0  0  0  0
 16 14  1  0  0  0  0
 17 16  1  0  0  0  0
 18 19  1  0  0  0  0
 19 15  2  0  0  0  0
 20 10  2  0  0  0  0
 21 27  1  0  0  0  0
 22 23  2  0  0  0  0
 22 21  1  0  0  0  0
 23 25  1  0  0  0  0
 24 22  1  0  0  0  0
 25 27  2  0  0  0  0
 26 28  2  0  0  0  0
 26 23  1  0  0  0  0
 29 26  1  0  0  0  0
 30 29  1  0  0  0  0
 30 24  1  0  0  0  0
 31 29  1  0  0  0  0
 32 30  2  0  0  0  0
 33 24  1  0  0  0  0
 34 35  1  0  0  0  0
M  END
>  <Pose>
1

>  <Score>
-8.957

$$$$
