/Users/jonathanwahrer/Desktop/Msc/3_Semester/Drug_Design_Praktikum/waehrer_HTS_screening/HTS_experiment/out/docking_results/vina_output/3e7o/1744_docked.pdbqt
 OpenBabel03192216403D

 34 37  0  0  1  0  0  0  0  0999 V2000
  -37.7680  -64.5000   48.3010 N   0  0  0  0  0  0  0  0  0  0  0  0
  -37.5050  -63.1330   48.6130 C   0  0  0  0  0  0  0  0  0  0  0  0
  -36.3550  -62.6770   48.8230 O   0  0  0  0  0  0  0  0  0  0  0  0
  -38.6090  -62.2340   48.6880 N   0  0  0  0  0  0  0  0  0  0  0  0
  -39.9370  -62.7270   48.4510 C   0  0  0  0  0  0  0  0  0  0  0  0
  -40.8400  -61.8380   48.2980 O   0  0  0  0  0  0  0  0  0  0  0  0
  -40.2510  -64.1670   48.3860 C   0  0  1  0  0  3  0  0  0  0  0  0
  -39.0740  -65.0080   48.0580 C   0  0  0  0  0  0  0  0  0  0  0  0
  -39.2740  -66.1490   47.5740 O   0  0  0  0  0  0  0  0  0  0  0  0
  -38.4870  -61.2130   48.9130 H   0  0  0  0  0  0  0  0  0  0  0  0
  -40.8700  -64.6330   49.6830 C   0  0  1  0  0  3  0  0  0  0  0  0
  -40.3880  -64.3460   50.8790 C   0  0  0  0  0  2  0  0  0  0  0  0
  -41.3040  -65.0070   51.8350 C   0  0  1  0  0  3  0  0  0  0  0  0
  -42.5530  -65.0180   51.0950 N   0  0  0  0  0  0  0  0  0  0  0  0
  -42.0580  -65.4110   49.8270 N   0  0  0  0  0  0  0  0  0  0  0  0
  -43.2780  -65.6350   51.4690 H   0  0  0  0  0  0  0  0  0  0  0  0
  -42.4000  -66.0730   49.1310 H   0  0  0  0  0  0  0  0  0  0  0  0
  -40.8520  -66.3960   52.1260 C   0  0  0  0  0  0  0  0  0  0  0  0
  -39.8160  -67.0300   51.5010 C   0  0  0  0  0  3  0  0  0  0  0  0
  -39.4110  -68.3070   51.8360 C   0  0  0  0  0  0  0  0  0  0  0  0
  -40.0580  -69.0040   52.8400 C   0  0  0  0  0  0  0  0  0  0  0  0
  -41.1220  -68.3460   53.4790 C   0  0  0  0  0  3  0  0  0  0  0  0
  -41.5120  -67.0740   53.1320 C   0  0  0  0  0  3  0  0  0  0  0  0
  -38.3400  -68.9170   51.1600 O   0  0  0  0  0  0  0  0  0  0  0  0
  -38.4320  -69.8950   50.9040 H   0  0  0  0  0  0  0  0  0  0  0  0
  -39.6800  -70.2740   53.2040 O   0  0  0  0  0  0  0  0  0  0  0  0
  -38.8860  -70.5180   54.3470 C   0  0  0  0  0  1  0  0  0  0  0  0
  -36.6530  -65.3830   48.2480 C   0  0  0  0  0  0  0  0  0  0  0  0
  -36.2510  -66.1020   49.3600 C   0  0  0  0  0  3  0  0  0  0  0  0
  -35.1900  -66.9730   49.3390 C   0  0  0  0  0  0  0  0  0  0  0  0
  -34.7160  -67.8540   50.7680 Cl  0  0  0  0  0  0  0  0  0  0  0  0
  -34.5060  -67.1220   48.1460 C   0  0  0  0  0  3  0  0  0  0  0  0
  -34.8750  -66.4220   47.0150 C   0  0  0  0  0  3  0  0  0  0  0  0
  -35.9580  -65.5520   47.0890 C   0  0  0  0  0  3  0  0  0  0  0  0
  1  2  1  0  0  0  0
  2  4  1  0  0  0  0
  2  3  2  0  0  0  0
  4 10  1  0  0  0  0
  5  4  1  0  0  0  0
  6  5  2  0  0  0  0
  7  8  1  1  0  0  0
  7  5  1  0  0  0  0
  7 11  1  0  0  0  0
  8  1  1  0  0  0  0
  9  8  2  0  0  0  0
 11 15  1  0  0  0  0
 11 12  1  1  0  0  0
 12 13  1  0  0  0  0
 13 18  1  6  0  0  0
 14 16  1  0  0  0  0
 14 13  1  0  0  0  0
 15 14  1  0  0  0  0
 17 15  1  0  0  0  0
 18 23  1  0  0  0  0
 19 20  1  0  0  0  0
 19 18  2  0  0  0  0
 20 21  2  0  0  0  0
 21 26  1  0  0  0  0
 21 22  1  0  0  0  0
 23 22  2  0  0  0  0
 24 20  1  0  0  0  0
 25 24  1  0  0  0  0
 26 27  1  0  0  0  0
 28  1  1  0  0  0  0
 28 29  1  0  0  0  0
 30 29  2  0  0  0  0
 30 31  1  0  0  0  0
 32 30  1  0  0  0  0
 33 34  1  0  0  0  0
 33 32  2  0  0  0  0
 34 28  2  0  0  0  0
M  END
>  <Pose>
1

>  <Score>
-8.527

$$$$
