/Users/jonathanwahrer/Desktop/Msc/3_Semester/Drug_Design_Praktikum/waehrer_HTS_screening/HTS_experiment/out/docking_results/vina_output/3e7o/1750_docked.pdbqt
 OpenBabel03192216403D

 27 30  0  0  0  0  0  0  0  0999 V2000
  -35.0670  -63.7960   48.4530 N   0  0  0  0  0  0  0  0  0  0  0  0
  -36.0860  -63.4350   49.3900 C   0  0  0  0  0  2  0  0  0  0  0  0
  -37.0480  -64.5730   49.6730 C   0  0  0  0  0  2  0  0  0  0  0  0
  -37.4750  -65.1460   48.4240 N   0  0  0  0  0  0  0  0  0  0  0  0
  -37.0530  -64.4990   47.1980 C   0  0  0  0  0  2  0  0  0  0  0  0
  -35.5460  -64.3800   47.2470 C   0  0  0  0  0  2  0  0  0  0  0  0
  -38.2880  -66.3120   48.3460 C   0  0  0  0  0  0  0  0  0  0  0  0
  -38.6460  -66.7920   47.2460 O   0  0  0  0  0  0  0  0  0  0  0  0
  -38.7350  -66.9920   49.5640 C   0  0  0  0  0  0  0  0  0  0  0  0
  -38.0670  -67.9710   50.2340 N   0  0  0  0  0  0  0  0  0  0  0  0
  -38.7930  -68.3440   51.2990 C   0  0  0  0  0  0  0  0  0  0  0  0
  -39.9030  -67.6070   51.2970 N   0  0  0  0  0  0  0  0  0  0  0  0
  -38.5930  -69.2800   52.3020 C   0  0  0  0  0  3  0  0  0  0  0  0
  -39.8930  -66.7740   50.2480 C   0  0  0  0  0  3  0  0  0  0  0  0
  -40.8070  -67.7940   52.2780 C   0  0  0  0  0  3  0  0  0  0  0  0
  -40.6620  -68.7020   53.2910 C   0  0  0  0  0  0  0  0  0  0  0  0
  -39.5100  -69.4800   53.3090 C   0  0  0  0  0  3  0  0  0  0  0  0
  -41.8650  -68.9200   54.5570 Cl  0  0  0  0  0  0  0  0  0  0  0  0
  -33.6950  -64.5290   49.1120 S   0  0  0  0  0  0  0  0  0  0  0  0
  -32.6480  -63.4990   49.3880 O   0  0  0  0  0  0  0  0  0  0  0  0
  -34.0750  -65.1780   50.4130 O   0  0  0  0  0  0  0  0  0  0  0  0
  -33.0080  -65.7470   48.1140 N   0  0  0  0  0  0  0  0  0  0  0  0
  -32.4640  -66.8500   48.8830 C   0  0  0  0  0  2  0  0  0  0  0  0
  -31.4240  -67.5260   48.0220 C   0  0  0  0  0  2  0  0  0  0  0  0
  -31.7650  -67.4810   46.6740 O   0  0  0  0  0  0  0  0  0  0  0  0
  -31.7250  -66.1900   46.1530 C   0  0  0  0  0  2  0  0  0  0  0  0
  -31.9160  -65.2300   47.3100 C   0  0  0  0  0  2  0  0  0  0  0  0
  1 19  1  0  0  0  0
  1  2  1  0  0  0  0
  2  3  1  0  0  0  0
  4  3  1  0  0  0  0
  5  6  1  0  0  0  0
  5  4  1  0  0  0  0
  6  1  1  0  0  0  0
  7  4  1  0  0  0  0
  7  9  1  0  0  0  0
  8  7  2  0  0  0  0
  9 10  1  0  0  0  0
  9 14  2  0  0  0  0
 10 11  2  0  0  0  0
 11 13  1  0  0  0  0
 12 11  1  0  0  0  0
 12 15  1  0  0  0  0
 13 17  2  0  0  0  0
 14 12  1  0  0  0  0
 15 16  2  0  0  0  0
 16 17  1  0  0  0  0
 16 18  1  0  0  0  0
 19 20  2  0  0  0  0
 19 21  2  0  0  0  0
 22 23  1  0  0  0  0
 22 19  1  0  0  0  0
 24 23  1  0  0  0  0
 25 24  1  0  0  0  0
 26 25  1  0  0  0  0
 26 27  1  0  0  0  0
 27 22  1  0  0  0  0
M  END
>  <Pose>
1

>  <Score>
-7.621

$$$$
