/Users/jonathanwahrer/Desktop/Msc/3_Semester/Drug_Design_Praktikum/waehrer_HTS_screening/HTS_experiment/out/docking_results/vina_output/3e7o/1758_docked.pdbqt
 OpenBabel03192216403D

 28 32  0  0  1  0  0  0  0  0999 V2000
  -43.5780  -66.9050   53.5510 N   0  0  0  0  0  0  0  0  0  0  0  0
  -42.9970  -67.5000   54.5770 N   0  0  0  0  0  0  0  0  0  0  0  0
  -41.6830  -67.7070   54.3560 C   0  0  0  0  0  0  0  0  0  0  0  0
  -40.7890  -68.2650   55.1380 C   0  0  0  0  0  1  0  0  0  0  0  0
  -41.4150  -67.2060   53.0980 C   0  0  0  0  0  0  0  0  0  0  0  0
  -42.6160  -66.7170   52.6320 C   0  0  0  0  0  0  0  0  0  0  0  0
  -42.7940  -66.1740   51.5120 O   0  0  0  0  0  0  0  0  0  0  0  0
  -43.4780  -67.7860   55.4620 H   0  0  0  0  0  0  0  0  0  0  0  0
  -40.2230  -67.2060   52.4820 C   0  0  0  0  0  2  0  0  0  0  0  0
  -40.2110  -67.6410   51.1290 N   0  0  0  0  0  0  0  0  0  0  0  0
  -40.6180  -68.5400   50.8020 H   0  0  0  0  0  0  0  0  0  0  0  0
  -39.5950  -66.7870   50.1270 C   0  0  2  0  0  0  0  0  0  0  0  0
  -39.5890  -65.3440   50.6090 C   0  0  0  0  0  2  0  0  0  0  0  0
  -38.9240  -64.5250   49.6340 N   0  0  2  0  0  0  0  0  0  0  0  0
  -39.6760  -64.6300   48.3890 C   0  0  0  0  0  2  0  0  0  0  0  0
  -37.5730  -65.0110   49.4690 C   0  0  0  0  0  2  0  0  0  0  0  0
  -39.6670  -65.9730   47.8790 N   0  0  1  0  0  0  0  0  0  0  0  0
  -38.3100  -66.4440   47.7110 C   0  0  0  0  0  2  0  0  0  0  0  0
  -40.3370  -66.8280   48.8260 C   0  0  0  0  0  2  0  0  0  0  0  0
  -37.5550  -66.3680   48.9330 N   0  0  2  0  0  0  0  0  0  0  0  0
  -38.1640  -67.2320   49.9180 C   0  0  0  0  0  2  0  0  0  0  0  0
  -44.9670  -66.5340   53.4440 C   0  0  0  0  0  0  0  0  0  0  0  0
  -45.3900  -65.2490   53.3190 C   0  0  0  0  0  3  0  0  0  0  0  0
  -46.7580  -64.9910   53.2220 C   0  0  0  0  0  3  0  0  0  0  0  0
  -47.6930  -66.0060   53.2490 C   0  0  0  0  0  0  0  0  0  0  0  0
  -49.7570  -65.6110   53.1020 I   0  0  0  0  0  0  0  0  0  0  0  0
  -47.2680  -67.3080   53.3750 C   0  0  0  0  0  3  0  0  0  0  0  0
  -45.9130  -67.5420   53.4690 C   0  0  0  0  0  3  0  0  0  0  0  0
  1  2  1  0  0  0  0
  2  8  1  0  0  0  0
  3  2  1  0  0  0  0
  3  4  1  0  0  0  0
  5  3  2  0  0  0  0
  6  5  1  0  0  0  0
  6  1  1  0  0  0  0
  7  6  2  0  0  0  0
  9  5  1  0  0  0  0
 10  9  1  0  0  0  0
 11 10  1  0  0  0  0
 12 13  1  0  0  0  0
 12 10  1  1  0  0  0
 14 15  1  6  0  0  0
 14 13  1  0  0  0  0
 16 14  1  0  0  0  0
 17 18  1  1  0  0  0
 17 15  1  0  0  0  0
 17 19  1  0  0  0  0
 19 12  1  0  0  0  0
 20 18  1  6  0  0  0
 20 16  1  0  0  0  0
 20 21  1  0  0  0  0
 21 12  1  0  0  0  0
 22 28  1  0  0  0  0
 22  1  1  0  0  0  0
 23 22  2  0  0  0  0
 24 25  2  0  0  0  0
 24 23  1  0  0  0  0
 25 27  1  0  0  0  0
 26 25  1  0  0  0  0
 27 28  2  0  0  0  0
M  END
>  <Pose>
1

>  <Score>
-7.338

$$$$
