/Users/jonathanwahrer/Desktop/Msc/3_Semester/Drug_Design_Praktikum/waehrer_HTS_screening/HTS_experiment/out/docking_results/vina_output/3e7o/1764_docked.pdbqt
 OpenBabel03192216413D

 34 37  0  0  1  0  0  0  0  0999 V2000
  -38.7320  -63.8090   48.1690 N   0  0  0  0  0  0  0  0  0  0  0  0
  -39.5910  -63.2050   49.0680 C   0  0  1  0  0  3  0  0  0  0  0  0
  -40.3830  -62.1750   48.2500 C   0  0  0  0  0  2  0  0  0  0  0  0
  -40.5560  -62.9010   46.9340 C   0  0  0  0  0  2  0  0  0  0  0  0
  -39.3460  -63.8000   46.8440 C   0  0  0  0  0  2  0  0  0  0  0  0
  -37.0800  -63.6480   48.1510 S   0  0  0  0  0  0  0  0  0  0  0  0
  -36.6140  -62.2930   48.6810 O   0  0  0  0  0  0  0  0  0  0  0  0
  -36.6120  -63.6420   46.6950 O   0  0  0  0  0  0  0  0  0  0  0  0
  -36.2000  -64.9080   48.9640 C   0  0  0  0  0  0  0  0  0  0  0  0
  -36.9030  -66.0340   49.4250 C   0  0  0  0  0  3  0  0  0  0  0  0
  -36.3280  -67.0540   50.1270 C   0  0  0  0  0  0  0  0  0  0  0  0
  -34.9740  -66.9540   50.3900 C   0  0  0  0  0  0  0  0  0  0  0  0
  -37.0270  -68.1630   50.5790 O   0  0  0  0  0  0  0  0  0  0  0  0
  -34.2310  -65.8910   49.9730 C   0  0  0  0  0  3  0  0  0  0  0  0
  -34.3550  -68.0220   51.1230 N   0  0  0  0  0  0  0  0  0  0  0  0
  -34.8670  -64.8810   49.2600 C   0  0  0  0  0  0  0  0  0  0  0  0
  -33.8270  -63.6040   48.6700 Cl  0  0  0  0  0  0  0  0  0  0  0  0
  -35.1430  -69.1320   51.5480 C   0  0  0  0  0  0  0  0  0  0  0  0
  -33.3280  -67.9600   51.3310 H   0  0  0  0  0  0  0  0  0  0  0  0
  -34.7830  -69.8160   52.5220 O   0  0  0  0  0  0  0  0  0  0  0  0
  -36.3830  -69.4180   50.7840 C   0  0  0  0  0  2  0  0  0  0  0  0
  -40.5640  -64.2530   49.5830 C   0  0  0  0  0  0  0  0  0  0  0  0
  -41.6750  -63.8300   49.9270 O   0  0  0  0  0  0  0  0  0  0  0  0
  -40.1660  -65.6000   49.6380 N   0  0  0  0  0  0  0  0  0  0  0  0
  -39.2190  -65.9200   49.3530 H   0  0  0  0  0  0  0  0  0  0  0  0
  -41.0810  -66.6080   50.1140 C   0  0  0  0  0  2  0  0  0  0  0  0
  -40.4600  -67.8320   50.6700 C   0  0  0  0  0  2  0  0  0  0  0  0
  -40.8070  -68.1710   52.0040 N   0  0  0  0  0  0  0  0  0  0  0  0
  -40.8470  -67.0860   52.9300 C   0  0  0  0  0  2  0  0  0  0  0  0
  -42.0270  -67.3080   53.8540 C   0  0  0  0  0  2  0  0  0  0  0  0
  -41.9400  -68.7060   54.4300 C   0  0  0  0  0  2  0  0  0  0  0  0
  -40.5300  -68.9370   54.9030 C   0  0  0  0  0  2  0  0  0  0  0  0
  -39.5680  -69.2860   53.8300 C   0  0  0  0  0  2  0  0  0  0  0  0
  -40.1130  -69.3330   52.4530 C   0  0  0  0  0  2  0  0  0  0  0  0
  1  2  1  0  0  0  0
  2 22  1  6  0  0  0
  3  2  1  0  0  0  0
  4  3  1  0  0  0  0
  5  4  1  0  0  0  0
  5  1  1  0  0  0  0
  6  1  1  0  0  0  0
  6  7  2  0  0  0  0
  6  9  1  0  0  0  0
  8  6  2  0  0  0  0
  9 16  2  0  0  0  0
  9 10  1  0  0  0  0
 10 11  2  0  0  0  0
 11 12  1  0  0  0  0
 11 13  1  0  0  0  0
 12 15  1  0  0  0  0
 13 21  1  0  0  0  0
 14 12  2  0  0  0  0
 15 19  1  0  0  0  0
 15 18  1  0  0  0  0
 16 14  1  0  0  0  0
 17 16  1  0  0  0  0
 18 20  2  0  0  0  0
 21 18  1  0  0  0  0
 22 24  1  0  0  0  0
 22 23  2  0  0  0  0
 24 26  1  0  0  0  0
 25 24  1  0  0  0  0
 26 27  1  0  0  0  0
 27 28  1  0  0  0  0
 28 34  1  0  0  0  0
 28 29  1  0  0  0  0
 29 30  1  0  0  0  0
 30 31  1  0  0  0  0
 31 32  1  0  0  0  0
 33 32  1  0  0  0  0
 34 33  1  0  0  0  0
M  END
>  <Pose>
1

>  <Score>
-8.024

$$$$
