/Users/jonathanwahrer/Desktop/Msc/3_Semester/Drug_Design_Praktikum/waehrer_HTS_screening/HTS_experiment/out/docking_results/vina_output/3e7o/1788_docked.pdbqt
 OpenBabel03192216413D

 30 33  0  0  0  0  0  0  0  0999 V2000
  -41.3730  -64.8760   50.9360 N   0  0  0  0  0  0  0  0  0  0  0  0
  -40.7330  -65.9010   51.3760 N   0  0  0  0  0  0  0  0  0  0  0  0
  -41.3120  -66.4060   52.5290 C   0  0  0  0  0  0  0  0  0  0  0  0
  -42.3500  -65.6320   52.7840 N   0  0  0  0  0  0  0  0  0  0  0  0
  -42.3840  -64.6840   51.7860 C   0  0  0  0  0  0  0  0  0  0  0  0
  -43.2530  -63.7890   51.7240 O   0  0  0  0  0  0  0  0  0  0  0  0
  -43.2370  -65.6410   53.9040 C   0  0  0  0  0  2  0  0  0  0  0  0
  -44.4520  -66.4620   53.7440 C   0  0  0  0  0  0  0  0  0  0  0  0
  -44.2540  -67.7220   53.9990 O   0  0  0  0  0  0  0  0  0  0  0  0
  -45.7360  -66.1260   53.3760 N   0  0  0  0  0  0  0  0  0  0  0  0
  -46.1840  -64.8110   53.0060 C   0  0  0  0  0  2  0  0  0  0  0  0
  -46.7740  -67.1720   53.3600 C   0  0  0  0  0  2  0  0  0  0  0  0
  -47.6680  -64.7940   52.5980 C   0  0  0  0  0  2  0  0  0  0  0  0
  -48.4630  -65.4030   53.6690 N   0  0  0  0  0  0  0  0  0  0  0  0
  -47.9080  -66.6440   54.1550 C   0  0  0  0  0  0  0  0  0  0  0  0
  -49.3250  -64.9930   54.0390 H   0  0  0  0  0  0  0  0  0  0  0  0
  -48.3830  -67.1920   55.1760 O   0  0  0  0  0  0  0  0  0  0  0  0
  -40.7180  -67.5580   53.2040 C   0  0  0  0  0  0  0  0  0  0  0  0
  -40.0400  -68.5020   52.4210 C   0  0  0  0  0  3  0  0  0  0  0  0
  -39.4930  -69.6530   52.9160 C   0  0  0  0  0  3  0  0  0  0  0  0
  -39.5870  -69.9540   54.2690 C   0  0  0  0  0  3  0  0  0  0  0  0
  -40.2480  -69.0410   55.0420 C   0  0  0  0  0  3  0  0  0  0  0  0
  -40.8060  -67.8660   54.5310 C   0  0  0  0  0  3  0  0  0  0  0  0
  -41.0390  -64.1240   49.7740 C   0  0  0  0  0  0  0  0  0  0  0  0
  -39.7510  -63.6600   49.5950 C   0  0  0  0  0  3  0  0  0  0  0  0
  -39.4080  -62.9270   48.4720 C   0  0  0  0  0  3  0  0  0  0  0  0
  -40.3220  -62.6220   47.4820 C   0  0  0  0  0  0  0  0  0  0  0  0
  -39.9010  -61.6920   46.0560 Cl  0  0  0  0  0  0  0  0  0  0  0  0
  -41.6150  -63.0880   47.6630 C   0  0  0  0  0  3  0  0  0  0  0  0
  -41.9610  -63.8260   48.7920 C   0  0  0  0  0  3  0  0  0  0  0  0
  1  2  1  0  0  0  0
  1  5  1  0  0  0  0
  2  3  2  0  0  0  0
  3  4  1  0  0  0  0
  3 18  1  0  0  0  0
  4  7  1  0  0  0  0
  5  4  1  0  0  0  0
  6  5  2  0  0  0  0
  8  7  1  0  0  0  0
  8  9  2  0  0  0  0
 10  8  1  0  0  0  0
 11 10  1  0  0  0  0
 12 10  1  0  0  0  0
 12 15  1  0  0  0  0
 13 11  1  0  0  0  0
 13 14  1  0  0  0  0
 14 16  1  0  0  0  0
 14 15  1  0  0  0  0
 15 17  2  0  0  0  0
 18 23  1  0  0  0  0
 19 20  1  0  0  0  0
 19 18  2  0  0  0  0
 20 21  2  0  0  0  0
 21 22  1  0  0  0  0
 23 22  2  0  0  0  0
 24  1  1  0  0  0  0
 25 24  1  0  0  0  0
 26 25  2  0  0  0  0
 27 29  2  0  0  0  0
 27 26  1  0  0  0  0
 28 27  1  0  0  0  0
 29 30  1  0  0  0  0
 30 24  2  0  0  0  0
M  END
>  <Pose>
1

>  <Score>
-8.707

$$$$
