/Users/jonathanwahrer/Desktop/Msc/3_Semester/Drug_Design_Praktikum/waehrer_HTS_screening/HTS_experiment/out/docking_results/vina_output/3e7o/1802_docked.pdbqt
 OpenBabel03192216423D

 27 30  0  0  0  0  0  0  0  0999 V2000
  -44.6380  -64.6050   53.1770 Cl  0  0  0  0  0  0  0  0  0  0  0  0
  -43.4330  -65.8750   53.4070 C   0  0  0  0  0  0  0  0  0  0  0  0
  -42.4250  -66.0100   52.4490 C   0  0  0  0  0  3  0  0  0  0  0  0
  -41.4460  -66.9750   52.5710 C   0  0  0  0  0  0  0  0  0  0  0  0
  -41.5180  -67.7930   53.6800 C   0  0  0  0  0  0  0  0  0  0  0  0
  -42.4790  -67.6970   54.6320 C   0  0  0  0  0  3  0  0  0  0  0  0
  -43.4690  -66.7120   54.5000 C   0  0  0  0  0  3  0  0  0  0  0  0
  -40.4550  -68.8230   53.7970 C   0  0  0  0  0  0  0  0  0  0  0  0
  -40.2360  -69.7330   54.6970 N   0  0  0  0  0  0  0  0  0  0  0  0
  -39.0600  -70.5040   54.3640 C   0  0  0  0  0  3  0  0  0  0  0  0
  -38.5150  -69.9350   53.0780 C   0  0  0  0  0  3  0  0  0  0  0  0
  -39.4780  -68.8850   52.7900 N   0  0  0  0  0  0  0  0  0  0  0  0
  -39.4730  -68.0000   51.6710 C   0  0  0  0  0  0  0  0  0  0  0  0
  -38.6400  -67.8850   50.6170 N   0  0  0  0  0  0  0  0  0  0  0  0
  -39.0570  -66.8880   49.8400 N   0  0  0  0  0  0  0  0  0  0  0  0
  -40.1450  -66.4070   50.4370 C   0  0  0  0  0  0  0  0  0  0  0  0
  -40.8390  -65.4430   50.0090 O   0  0  0  0  0  0  0  0  0  0  0  0
  -40.4320  -67.0830   51.5840 N   0  0  0  0  0  0  0  0  0  0  0  0
  -38.4250  -66.4240   48.6010 C   0  0  0  0  0  2  0  0  0  0  0  0
  -37.1890  -65.6300   49.1260 C   0  0  0  0  0  0  0  0  0  0  0  0
  -37.5790  -64.4450   49.4180 O   0  0  0  0  0  0  0  0  0  0  0  0
  -35.9820  -66.2090   49.2000 N   0  0  0  0  0  0  0  0  0  0  0  0
  -35.4790  -65.0900   49.7820 H   0  0  0  0  0  0  0  0  0  0  0  0
  -34.7420  -66.8030   49.2760 C   0  0  0  0  0  2  0  0  0  0  0  0
  -34.4360  -67.3460   50.6770 C   0  0  0  0  0  2  0  0  0  0  0  0
  -34.4880  -68.7200   50.7070 O   0  0  0  0  0  0  0  0  0  0  0  0
  -35.1510  -69.2600   51.7710 C   0  0  0  0  0  1  0  0  0  0  0  0
  1  2  1  0  0  0  0
  2  7  1  0  0  0  0
  3  4  1  0  0  0  0
  3  2  2  0  0  0  0
  4  5  2  0  0  0  0
  5  8  1  0  0  0  0
  5  6  1  0  0  0  0
  7  6  2  0  0  0  0
  8  9  2  0  0  0  0
 10  9  1  0  0  0  0
 11 10  2  0  0  0  0
 12 11  1  0  0  0  0
 12  8  1  0  0  0  0
 13 12  1  0  0  0  0
 14 13  2  0  0  0  0
 15 16  1  0  0  0  0
 15 14  1  0  0  0  0
 16 18  1  0  0  0  0
 17 16  2  0  0  0  0
 18 13  1  0  0  0  0
 18  4  1  0  0  0  0
 19 20  1  0  0  0  0
 19 15  1  0  0  0  0
 20 22  1  0  0  0  0
 20 21  2  0  0  0  0
 22 24  1  0  0  0  0
 22 23  1  0  0  0  0
 24 25  1  0  0  0  0
 25 26  1  0  0  0  0
 26 27  1  0  0  0  0
M  END
>  <Pose>
1

>  <Score>
-7.874

$$$$
