/Users/jonathanwahrer/Desktop/Msc/3_Semester/Drug_Design_Praktikum/waehrer_HTS_screening/HTS_experiment/out/docking_results/vina_output/3e7o/1804_docked.pdbqt
 OpenBabel03192216423D

 26 30  0  0  0  0  0  0  0  0999 V2000
  -38.9240  -70.5420   54.6910 Cl  0  0  0  0  0  0  0  0  0  0  0  0
  -39.9800  -69.2440   54.1800 C   0  0  0  0  0  0  0  0  0  0  0  0
  -39.8760  -68.6300   52.9430 C   0  0  0  0  0  3  0  0  0  0  0  0
  -40.7130  -67.6100   52.5540 C   0  0  0  0  0  0  0  0  0  0  0  0
  -41.6720  -67.2210   53.4570 C   0  0  0  0  0  0  0  0  0  0  0  0
  -41.8210  -67.7950   54.6980 C   0  0  0  0  0  3  0  0  0  0  0  0
  -40.9550  -68.8280   55.0630 C   0  0  0  0  0  3  0  0  0  0  0  0
  -42.5880  -66.1290   53.0740 C   0  0  0  0  0  0  0  0  0  0  0  0
  -43.5570  -65.5710   53.7030 N   0  0  0  0  0  0  0  0  0  0  0  0
  -44.1800  -64.5330   52.9270 C   0  0  0  0  0  3  0  0  0  0  0  0
  -43.4140  -64.5190   51.6420 C   0  0  0  0  0  3  0  0  0  0  0  0
  -42.4210  -65.5500   51.7960 N   0  0  0  0  0  0  0  0  0  0  0  0
  -41.3950  -66.0010   50.8880 C   0  0  0  0  0  0  0  0  0  0  0  0
  -41.0520  -65.6100   49.6460 N   0  0  0  0  0  0  0  0  0  0  0  0
  -40.0310  -66.3360   49.2250 N   0  0  0  0  0  0  0  0  0  0  0  0
  -39.7520  -67.1820   50.2300 C   0  0  0  0  0  0  0  0  0  0  0  0
  -38.8180  -68.0320   50.1700 O   0  0  0  0  0  0  0  0  0  0  0  0
  -40.5830  -66.9970   51.2780 N   0  0  0  0  0  0  0  0  0  0  0  0
  -39.3380  -66.2470   47.9310 C   0  0  0  0  0  2  0  0  0  0  0  0
  -38.9240  -64.8340   47.7260 C   0  0  0  0  0  0  0  0  0  0  0  0
  -39.6210  -64.1520   46.9330 O   0  0  0  0  0  0  0  0  0  0  0  0
  -37.7970  -64.2750   48.3870 N   0  0  0  0  0  0  0  0  0  0  0  0
  -37.3450  -62.9060   48.2270 C   0  0  0  0  0  2  0  0  0  0  0  0
  -36.9190  -64.9430   49.3180 C   0  0  0  0  0  2  0  0  0  0  0  0
  -36.0280  -62.8070   48.9480 C   0  0  0  0  0  2  0  0  0  0  0  0
  -35.5870  -64.2560   48.9980 C   0  0  0  0  0  2  0  0  0  0  0  0
  2  1  1  0  0  0  0
  2  7  1  0  0  0  0
  3  2  2  0  0  0  0
  4  3  1  0  0  0  0
  4  5  2  0  0  0  0
  5  6  1  0  0  0  0
  6  7  2  0  0  0  0
  8  5  1  0  0  0  0
  8  9  2  0  0  0  0
 10  9  1  0  0  0  0
 11 12  1  0  0  0  0
 11 10  2  0  0  0  0
 12  8  1  0  0  0  0
 13 18  1  0  0  0  0
 13 12  1  0  0  0  0
 14 13  2  0  0  0  0
 15 14  1  0  0  0  0
 15 16  1  0  0  0  0
 16 18  1  0  0  0  0
 17 16  2  0  0  0  0
 18  4  1  0  0  0  0
 19 15  1  0  0  0  0
 20 19  1  0  0  0  0
 20 22  1  0  0  0  0
 21 20  2  0  0  0  0
 22 24  1  0  0  0  0
 23 22  1  0  0  0  0
 23 25  1  0  0  0  0
 25 26  1  0  0  0  0
 26 24  1  0  0  0  0
M  END
>  <Pose>
1

>  <Score>
-8.984

$$$$
