/Users/jonathanwahrer/Desktop/Msc/3_Semester/Drug_Design_Praktikum/waehrer_HTS_screening/HTS_experiment/out/docking_results/vina_output/3e7o/1810_docked.pdbqt
 OpenBabel03192216433D

 32 35  0  0  1  0  0  0  0  0999 V2000
  -33.5970  -64.9610   47.4900 N   0  0  0  0  0  0  0  0  0  0  0  0
  -32.8950  -65.3790   48.6770 C   0  0  0  0  0  2  0  0  0  0  0  0
  -33.6130  -66.5850   49.2360 C   0  0  0  0  0  2  0  0  0  0  0  0
  -34.5580  -67.0720   48.2650 N   0  0  0  0  0  0  0  0  0  0  0  0
  -34.2280  -67.1480   46.8470 C   0  0  0  0  0  2  0  0  0  0  0  0
  -33.3530  -65.9530   46.4610 C   0  0  0  0  0  2  0  0  0  0  0  0
  -35.8390  -67.4780   48.6790 C   0  0  0  0  0  0  0  0  0  0  0  0
  -36.6530  -67.9460   47.8090 O   0  0  0  0  0  0  0  0  0  0  0  0
  -36.2460  -67.3630   50.1060 C   0  0  1  0  0  3  0  0  0  0  0  0
  -37.6940  -67.0010   50.2700 C   0  0  0  0  0  2  0  0  0  0  0  0
  -38.3640  -68.2390   50.6560 N   0  0  0  0  0  0  0  0  0  0  0  0
  -37.4340  -69.3060   50.6570 C   0  0  0  0  0  0  0  0  0  0  0  0
  -37.7390  -70.5170   50.5410 O   0  0  0  0  0  0  0  0  0  0  0  0
  -36.1050  -68.6770   50.8220 C   0  0  0  0  0  2  0  0  0  0  0  0
  -39.7690  -68.3460   50.9790 C   0  0  0  0  0  2  0  0  0  0  0  0
  -39.9890  -68.5120   52.4350 C   0  0  0  0  0  0  0  0  0  0  0  0
  -40.6110  -67.4970   53.1450 C   0  0  0  0  0  0  0  0  0  0  0  0
  -40.8500  -67.5800   54.5070 C   0  0  0  0  0  3  0  0  0  0  0  0
  -41.1070  -66.0700   52.2760 Cl  0  0  0  0  0  0  0  0  0  0  0  0
  -40.4380  -68.7300   55.1500 C   0  0  0  0  0  3  0  0  0  0  0  0
  -39.8140  -69.7620   54.4710 C   0  0  0  0  0  3  0  0  0  0  0  0
  -39.5880  -69.6510   53.1000 C   0  0  0  0  0  3  0  0  0  0  0  0
  -33.1140  -63.3860   46.9980 S   0  0  0  0  0  0  0  0  0  0  0  0
  -32.2610  -63.4290   45.7620 O   0  0  0  0  0  0  0  0  0  0  0  0
  -32.2240  -62.8420   48.0950 O   0  0  0  0  0  0  0  0  0  0  0  0
  -34.4780  -62.3280   46.8060 C   0  0  0  0  0  0  0  0  0  0  0  0
  -34.8290  -61.4890   45.7720 C   0  0  0  0  0  0  0  0  0  0  0  0
  -35.9960  -60.8670   46.1230 N   0  0  0  0  0  0  0  0  0  0  0  0
  -34.0690  -61.3180   44.5180 C   0  0  0  0  0  1  0  0  0  0  0  0
  -36.3300  -61.2940   47.2820 O   0  0  0  0  0  0  0  0  0  0  0  0
  -35.4720  -62.1670   47.7520 C   0  0  0  0  0  0  0  0  0  0  0  0
  -35.6130  -62.8230   49.0700 C   0  0  0  0  0  1  0  0  0  0  0  0
  1  2  1  0  0  0  0
  2  3  1  0  0  0  0
  4  7  1  0  0  0  0
  4  3  1  0  0  0  0
  5  4  1  0  0  0  0
  6  5  1  0  0  0  0
  6  1  1  0  0  0  0
  8  7  2  0  0  0  0
  9  7  1  6  0  0  0
  9 10  1  0  0  0  0
  9 14  1  0  0  0  0
 10 11  1  0  0  0  0
 11 12  1  0  0  0  0
 11 15  1  0  0  0  0
 12 14  1  0  0  0  0
 13 12  2  0  0  0  0
 15 16  1  0  0  0  0
 16 22  2  0  0  0  0
 16 17  1  0  0  0  0
 17 18  2  0  0  0  0
 18 20  1  0  0  0  0
 19 17  1  0  0  0  0
 21 20  2  0  0  0  0
 22 21  1  0  0  0  0
 23  1  1  0  0  0  0
 23 25  2  0  0  0  0
 24 23  2  0  0  0  0
 26 23  1  0  0  0  0
 26 31  2  0  0  0  0
 27 28  2  0  0  0  0
 27 26  1  0  0  0  0
 28 30  1  0  0  0  0
 29 27  1  0  0  0  0
 30 31  1  0  0  0  0
 31 32  1  0  0  0  0
M  END
>  <Pose>
1

>  <Score>
-8.404

$$$$
