/Users/jonathanwahrer/Desktop/Msc/3_Semester/Drug_Design_Praktikum/waehrer_HTS_screening/HTS_experiment/out/docking_results/vina_output/3e7o/1822_docked.pdbqt
 OpenBabel03192216433D

 24 27  0  0  1  0  0  0  0  0999 V2000
  -50.4100  -66.2410   53.2550 Cl  0  0  0  0  0  0  0  0  0  0  0  0
  -48.6880  -65.8770   53.2460 C   0  0  0  0  0  0  0  0  0  0  0  0
  -48.2970  -64.5570   53.2110 C   0  0  0  0  0  0  0  0  0  0  0  0
  -46.9820  -64.2920   53.2040 N   0  0  0  0  0  0  0  0  0  0  0  0
  -46.0360  -65.2660   53.2310 C   0  0  0  0  0  0  0  0  0  0  0  0
  -46.4050  -66.5580   53.2660 N   0  0  0  0  0  0  0  0  0  0  0  0
  -45.3120  -67.3140   53.2870 N   0  0  0  0  0  0  0  0  0  0  0  0
  -44.2100  -66.5380   53.2670 C   0  0  0  0  0  0  0  0  0  0  0  0
  -44.6900  -65.2700   53.2320 N   0  0  0  0  0  0  0  0  0  0  0  0
  -47.7260  -66.8630   53.2730 C   0  0  0  0  0  0  0  0  0  0  0  0
  -48.0780  -68.0840   53.3070 O   0  0  0  0  0  0  0  0  0  0  0  0
  -49.3310  -63.4680   53.1800 C   0  0  0  0  0  1  0  0  0  0  0  0
  -46.6780  -63.2890   53.1770 H   0  0  0  0  0  0  0  0  0  0  0  0
  -42.8460  -66.9530   53.2770 N   0  0  0  0  0  0  0  0  0  0  0  0
  -42.2310  -67.7680   54.2650 C   0  0  0  0  0  0  0  0  0  0  0  0
  -42.7820  -68.5380   55.0930 O   0  0  0  0  0  0  0  0  0  0  0  0
  -40.7410  -67.5850   54.1940 C   0  0  2  0  0  3  0  0  0  0  0  0
  -40.4870  -66.8600   52.9210 C   0  0  1  0  0  3  0  0  0  0  0  0
  -40.0830  -68.9480   54.1780 C   0  0  0  0  0  2  0  0  0  0  0  0
  -39.6900  -67.6490   51.8980 C   0  0  0  0  0  2  0  0  0  0  0  0
  -41.8260  -66.6560   52.3370 C   0  0  0  0  0  0  0  0  0  0  0  0
  -40.3470  -68.9910   51.7910 C   0  0  0  0  0  3  0  0  0  0  0  0
  -40.5350  -69.6200   52.9370 C   0  0  0  0  0  3  0  0  0  0  0  0
  -42.0540  -66.2660   51.1460 O   0  0  0  0  0  0  0  0  0  0  0  0
  2  1  1  0  0  0  0
  2 10  1  0  0  0  0
  3  2  2  0  0  0  0
  4  3  1  0  0  0  0
  4  5  1  0  0  0  0
  5  9  2  0  0  0  0
  5  6  1  0  0  0  0
  6 10  1  0  0  0  0
  6  7  1  0  0  0  0
  8 14  1  0  0  0  0
  8  7  2  0  0  0  0
  9  8  1  0  0  0  0
 10 11  2  0  0  0  0
 12  3  1  0  0  0  0
 13  4  1  0  0  0  0
 14 15  1  0  0  0  0
 15 16  2  0  0  0  0
 17 19  1  6  0  0  0
 17 15  1  0  0  0  0
 18 20  1  6  0  0  0
 18 17  1  0  0  0  0
 21 18  1  0  0  0  0
 21 14  1  0  0  0  0
 22 20  1  0  0  0  0
 22 23  2  0  0  0  0
 23 19  1  0  0  0  0
 24 21  2  0  0  0  0
M  END
>  <Pose>
1

>  <Score>
-7.939

$$$$
