/Users/jonathanwahrer/Desktop/Msc/3_Semester/Drug_Design_Praktikum/waehrer_HTS_screening/HTS_experiment/out/docking_results/vina_output/3e7o/1835_docked.pdbqt
 OpenBabel03192216443D

 36 39  0  0  1  0  0  0  0  0999 V2000
  -40.6470  -67.5770   50.7930 C   0  0  0  0  0  0  0  0  0  0  0  0
  -41.5350  -67.1900   51.7220 N   0  0  0  0  0  0  0  0  0  0  0  0
  -41.1740  -67.8060   52.8600 C   0  0  0  0  0  0  0  0  0  0  0  0
  -41.6870  -67.8010   54.1150 N   0  0  0  0  0  0  0  0  0  0  0  0
  -41.1340  -68.5190   55.1120 C   0  0  0  0  0  3  0  0  0  0  0  0
  -40.0370  -69.2720   54.8760 N   0  0  0  0  0  0  0  0  0  0  0  0
  -39.4700  -69.3290   53.6570 C   0  0  0  0  0  0  0  0  0  0  0  0
  -40.0550  -68.5840   52.6520 C   0  0  0  0  0  0  0  0  0  0  0  0
  -39.7440  -68.4230   51.3440 N   0  0  0  0  0  0  0  0  0  0  0  0
  -40.6420  -67.1680   49.4330 N   0  0  0  0  0  0  0  0  0  0  0  0
  -41.4120  -67.4480   48.7790 H   0  0  0  0  0  0  0  0  0  0  0  0
  -39.6230  -66.3800   48.8940 N   0  0  0  0  0  0  0  0  0  0  0  0
  -39.0330  -65.5340   49.6570 C   0  0  0  0  0  3  0  0  0  0  0  0
  -37.9540  -64.6670   49.1750 C   0  0  0  0  0  0  0  0  0  0  0  0
  -38.2120  -63.4030   48.6920 C   0  0  0  0  0  0  0  0  0  0  0  0
  -39.8710  -62.8520   48.6680 Cl  0  0  0  0  0  0  0  0  0  0  0  0
  -37.1670  -62.5940   48.2390 C   0  0  0  0  0  3  0  0  0  0  0  0
  -35.8570  -63.0240   48.2560 C   0  0  0  0  0  3  0  0  0  0  0  0
  -35.6080  -64.2910   48.7420 C   0  0  0  0  0  3  0  0  0  0  0  0
  -36.6440  -65.0970   49.1920 C   0  0  0  0  0  0  0  0  0  0  0  0
  -36.3090  -66.7110   49.8080 Cl  0  0  0  0  0  0  0  0  0  0  0  0
  -42.6620  -66.3090   51.6150 C   0  0  1  0  0  3  0  0  0  0  0  0
  -43.6800  -66.6280   52.5100 O   0  0  0  0  0  0  0  0  0  0  0  0
  -44.4680  -65.4800   52.4510 C   0  0  2  0  0  3  0  0  0  0  0  0
  -43.4370  -64.4070   52.7710 C   0  0  1  0  0  3  0  0  0  0  0  0
  -42.2710  -64.8750   51.9250 C   0  0  2  0  0  3  0  0  0  0  0  0
  -45.5910  -65.4940   53.4520 C   0  0  0  0  0  2  0  0  0  0  0  0
  -45.2310  -66.0390   54.6590 O   0  0  0  0  0  0  0  0  0  0  0  0
  -44.2610  -66.1790   54.7270 H   0  0  0  0  0  0  0  0  0  0  0  0
  -43.8740  -63.1440   52.3970 O   0  0  0  0  0  0  0  0  0  0  0  0
  -44.7120  -62.9580   52.9010 H   0  0  0  0  0  0  0  0  0  0  0  0
  -42.2600  -64.0890   50.7710 O   0  0  0  0  0  0  0  0  0  0  0  0
  -41.8710  -63.2060   50.9300 H   0  0  0  0  0  0  0  0  0  0  0  0
  -38.3230  -70.1270   53.4410 N   0  0  0  0  0  0  0  0  0  0  0  0
  -37.7500  -70.4840   54.2250 H   0  0  0  0  0  0  0  0  0  0  0  0
  -38.0470  -70.3600   52.4700 H   0  0  0  0  0  0  0  0  0  0  0  0
  1  9  2  0  0  0  0
  1  2  1  0  0  0  0
  2  3  1  0  0  0  0
  3  4  1  0  0  0  0
  4  5  2  0  0  0  0
  6  5  1  0  0  0  0
  7  6  2  0  0  0  0
  8  3  2  0  0  0  0
  8  7  1  0  0  0  0
  9  8  1  0  0  0  0
 10  1  1  0  0  0  0
 11 10  1  0  0  0  0
 12 10  1  0  0  0  0
 12 13  2  0  0  0  0
 14 20  1  0  0  0  0
 14 13  1  0  0  0  0
 15 14  2  0  0  0  0
 16 15  1  0  0  0  0
 17 18  2  0  0  0  0
 17 15  1  0  0  0  0
 18 19  1  0  0  0  0
 19 20  2  0  0  0  0
 20 21  1  0  0  0  0
 22  2  1  1  0  0  0
 22 26  1  0  0  0  0
 22 23  1  0  0  0  0
 24 23  1  0  0  0  0
 24 25  1  0  0  0  0
 24 27  1  1  0  0  0
 25 30  1  6  0  0  0
 26 32  1  6  0  0  0
 26 25  1  0  0  0  0
 27 28  1  0  0  0  0
 28 29  1  0  0  0  0
 30 31  1  0  0  0  0
 32 33  1  0  0  0  0
 34  7  1  0  0  0  0
 34 35  1  0  0  0  0
 36 34  1  0  0  0  0
M  END
>  <Pose>
1

>  <Score>
-8.044

$$$$
