/Users/jonathanwahrer/Desktop/Msc/3_Semester/Drug_Design_Praktikum/waehrer_HTS_screening/HTS_experiment/out/docking_results/vina_output/3e7o/1837_docked.pdbqt
 OpenBabel03192216443D

 29 32  0  0  0  0  0  0  0  0999 V2000
  -37.5580  -64.8240   48.9350 N   0  0  0  0  0  0  0  0  0  0  0  0
  -37.0660  -65.1940   47.5920 C   0  0  0  0  0  2  0  0  0  0  0  0
  -36.4320  -66.5770   47.8470 C   0  0  0  0  0  2  0  0  0  0  0  0
  -35.8480  -66.4290   49.1880 N   0  0  0  0  0  0  0  0  0  0  0  0
  -35.2450  -65.1590   49.4470 C   0  0  0  0  0  2  0  0  0  0  0  0
  -36.4060  -64.1610   49.5910 C   0  0  0  0  0  2  0  0  0  0  0  0
  -38.6480  -63.8710   48.8360 C   0  0  0  0  0  2  0  0  0  0  0  0
  -39.8560  -64.5410   49.4500 C   0  0  0  0  0  0  0  0  0  0  0  0
  -40.1260  -64.4680   50.8200 N   0  0  0  0  0  0  0  0  0  0  0  0
  -39.4080  -63.9440   51.4120 H   0  0  0  0  0  0  0  0  0  0  0  0
  -40.6290  -65.1810   48.6920 O   0  0  0  0  0  0  0  0  0  0  0  0
  -41.2100  -65.0270   51.5280 C   0  0  0  0  0  0  0  0  0  0  0  0
  -41.0200  -66.1600   52.3330 C   0  0  0  0  0  3  0  0  0  0  0  0
  -42.0360  -66.7370   53.0500 C   0  0  0  0  0  3  0  0  0  0  0  0
  -43.3160  -66.2050   53.0010 C   0  0  0  0  0  0  0  0  0  0  0  0
  -44.6360  -66.9160   53.9040 Cl  0  0  0  0  0  0  0  0  0  0  0  0
  -43.5180  -65.0940   52.2180 C   0  0  0  0  0  3  0  0  0  0  0  0
  -42.4780  -64.5190   51.4970 C   0  0  0  0  0  3  0  0  0  0  0  0
  -35.9390  -67.5020   50.0860 C   0  0  0  0  0  0  0  0  0  0  0  0
  -34.8050  -68.0970   50.5690 N   0  0  0  0  0  0  0  0  0  0  0  0
  -34.8100  -69.1290   51.4130 C   0  0  0  0  0  3  0  0  0  0  0  0
  -35.9770  -69.6330   51.8280 N   0  0  0  0  0  0  0  0  0  0  0  0
  -37.1450  -69.1400   51.4310 C   0  0  0  0  0  0  0  0  0  0  0  0
  -38.4320  -69.4520   51.6850 N   0  0  0  0  0  0  0  0  0  0  0  0
  -37.1250  -68.0580   50.5440 C   0  0  0  0  0  0  0  0  0  0  0  0
  -39.1620  -68.6110   50.9980 N   0  0  0  0  0  0  0  0  0  0  0  0
  -38.3940  -67.7760   50.3150 N   0  0  0  0  0  0  0  0  0  0  0  0
  -38.9560  -70.5010   52.5380 C   0  0  0  0  0  2  0  0  0  0  0  0
  -38.9600  -70.0790   53.9910 C   0  0  0  0  0  1  0  0  0  0  0  0
  1  6  1  0  0  0  0
  2  3  1  0  0  0  0
  2  1  1  0  0  0  0
  3  4  1  0  0  0  0
  4  5  1  0  0  0  0
  4 19  1  0  0  0  0
  5  6  1  0  0  0  0
  7  1  1  0  0  0  0
  7  8  1  0  0  0  0
  8  9  1  0  0  0  0
  9 10  1  0  0  0  0
  9 12  1  0  0  0  0
 11  8  2  0  0  0  0
 12 13  1  0  0  0  0
 13 14  2  0  0  0  0
 15 14  1  0  0  0  0
 15 16  1  0  0  0  0
 17 15  2  0  0  0  0
 18 12  2  0  0  0  0
 18 17  1  0  0  0  0
 19 25  2  0  0  0  0
 19 20  1  0  0  0  0
 20 21  2  0  0  0  0
 21 22  1  0  0  0  0
 23 24  1  0  0  0  0
 23 22  2  0  0  0  0
 24 28  1  0  0  0  0
 25 23  1  0  0  0  0
 26 24  1  0  0  0  0
 27 25  1  0  0  0  0
 27 26  2  0  0  0  0
 28 29  1  0  0  0  0
M  END
>  <Pose>
1

>  <Score>
-7.771

$$$$
