/Users/jonathanwahrer/Desktop/Msc/3_Semester/Drug_Design_Praktikum/waehrer_HTS_screening/HTS_experiment/out/docking_results/vina_output/3e7o/1846_docked.pdbqt
 OpenBabel03192216443D

 31 34  0  0  1  0  0  0  0  0999 V2000
  -38.0330  -68.2500   50.5820 N   0  0  0  0  0  0  0  0  0  0  0  0
  -38.6980  -67.3060   49.8800 C   0  0  0  0  0  2  0  0  0  0  0  0
  -39.8680  -66.8120   50.3360 N   0  0  0  0  0  0  0  0  0  0  0  0
  -40.4280  -67.2130   51.4830 C   0  0  0  0  0  0  0  0  0  0  0  0
  -41.5910  -66.7260   51.9460 N   0  0  0  0  0  0  0  0  0  0  0  0
  -42.1750  -67.1120   53.0930 C   0  0  0  0  0  0  0  0  0  0  0  0
  -41.5210  -68.0610   53.8150 N   0  0  0  0  0  0  0  0  0  0  0  0
  -40.3560  -68.5740   53.3900 C   0  0  0  0  0  3  0  0  0  0  0  0
  -39.7650  -68.1710   52.2110 C   0  0  1  0  0  3  0  0  0  0  0  0
  -38.5690  -68.6860   51.7560 C   0  0  0  0  0  0  0  0  0  0  0  0
  -38.0110  -69.5600   52.4650 O   0  0  0  0  0  0  0  0  0  0  0  0
  -36.7920  -68.8250   50.1700 C   0  0  0  0  0  2  0  0  0  0  0  0
  -35.8860  -67.8250   49.5070 C   0  0  0  0  0  0  0  0  0  0  0  0
  -35.2410  -66.8240   50.2520 N   0  0  0  0  0  0  0  0  0  0  0  0
  -35.4130  -66.7910   51.3120 H   0  0  0  0  0  0  0  0  0  0  0  0
  -35.7500  -67.9420   48.2790 O   0  0  0  0  0  0  0  0  0  0  0  0
  -34.3850  -65.8570   49.6820 C   0  0  0  0  0  0  0  0  0  0  0  0
  -33.0720  -66.0530   49.3400 C   0  0  0  0  0  3  0  0  0  0  0  0
  -32.3190  -65.0110   48.7950 C   0  0  0  0  0  3  0  0  0  0  0  0
  -32.8210  -63.7530   48.5700 C   0  0  0  0  0  0  0  0  0  0  0  0
  -34.1370  -63.5470   48.9110 C   0  0  0  0  0  0  0  0  0  0  0  0
  -34.8780  -61.9790   48.6640 Cl  0  0  0  0  0  0  0  0  0  0  0  0
  -34.8870  -64.5630   49.4460 C   0  0  0  0  0  3  0  0  0  0  0  0
  -32.0340  -62.7320   48.0210 O   0  0  0  0  0  0  0  0  0  0  0  0
  -31.9120  -62.6150   46.6220 C   0  0  0  0  0  1  0  0  0  0  0  0
  -43.4040  -66.5750   53.5450 N   0  0  0  0  0  0  0  0  0  0  0  0
  -43.5410  -65.1390   53.6220 C   0  0  0  0  0  2  0  0  0  0  0  0
  -44.9430  -64.7530   53.1550 C   0  0  0  0  0  2  0  0  0  0  0  0
  -45.9250  -65.5230   53.7740 O   0  0  0  0  0  0  0  0  0  0  0  0
  -45.7860  -66.8200   53.2790 C   0  0  0  0  0  2  0  0  0  0  0  0
  -44.5290  -67.3930   53.9340 C   0  0  0  0  0  2  0  0  0  0  0  0
  1 10  1  0  0  0  0
  2  3  1  0  0  0  0
  2  1  1  0  0  0  0
  3  4  2  0  0  0  0
  4  5  1  0  0  0  0
  4  9  1  0  0  0  0
  5  6  2  0  0  0  0
  6 26  1  0  0  0  0
  6  7  1  0  0  0  0
  8  7  2  0  0  0  0
  9  8  1  6  0  0  0
 10  9  1  0  0  0  0
 10 11  2  0  0  0  0
 12  1  1  0  0  0  0
 13 12  1  0  0  0  0
 13 14  1  0  0  0  0
 14 15  1  0  0  0  0
 16 13  2  0  0  0  0
 17 14  1  0  0  0  0
 18 17  2  0  0  0  0
 19 18  1  0  0  0  0
 20 19  2  0  0  0  0
 20 21  1  0  0  0  0
 21 23  2  0  0  0  0
 22 21  1  0  0  0  0
 23 17  1  0  0  0  0
 24 20  1  0  0  0  0
 25 24  1  0  0  0  0
 26 27  1  0  0  0  0
 26 31  1  0  0  0  0
 28 27  1  0  0  0  0
 28 29  1  0  0  0  0
 30 29  1  0  0  0  0
 30 31  1  0  0  0  0
M  END
>  <Pose>
1

>  <Score>
-8.184

$$$$
