/Users/jonathanwahrer/Desktop/Msc/3_Semester/Drug_Design_Praktikum/waehrer_HTS_screening/HTS_experiment/out/docking_results/vina_output/3e7o/1850_docked.pdbqt
 OpenBabel03192216443D

 24 27  0  0  0  0  0  0  0  0999 V2000
  -40.8290  -68.0220   55.0490 Cl  0  0  0  0  0  0  0  0  0  0  0  0
  -40.0320  -68.4410   53.5390 C   0  0  0  0  0  0  0  0  0  0  0  0
  -40.1660  -67.6330   52.4280 C   0  0  0  0  0  0  0  0  0  0  0  0
  -39.5470  -67.9580   51.2540 C   0  0  0  0  0  0  0  0  0  0  0  0
  -38.7920  -69.1070   51.2090 C   0  0  0  0  0  3  0  0  0  0  0  0
  -38.6450  -69.9290   52.3050 C   0  0  0  0  0  3  0  0  0  0  0  0
  -39.2740  -69.5910   53.4870 C   0  0  0  0  0  3  0  0  0  0  0  0
  -39.6430  -67.1420   50.0200 C   0  0  0  0  0  2  0  0  0  0  0  0
  -40.3140  -65.9140   50.3720 N   0  0  0  0  0  0  0  0  0  0  0  0
  -41.5000  -66.0320   51.1860 C   0  0  0  0  0  2  0  0  0  0  0  0
  -41.0090  -66.4120   52.5880 C   0  0  0  0  0  2  0  0  0  0  0  0
  -39.8540  -64.6430   49.9550 C   0  0  0  0  0  0  0  0  0  0  0  0
  -40.4860  -63.6090   50.2970 O   0  0  0  0  0  0  0  0  0  0  0  0
  -38.6450  -64.4480   49.1200 C   0  0  0  0  0  2  0  0  0  0  0  0
  -37.4710  -64.5250   49.8660 O   0  0  0  0  0  0  0  0  0  0  0  0
  -36.3340  -65.2120   49.4600 C   0  0  0  0  0  0  0  0  0  0  0  0
  -36.3740  -65.9390   48.3270 N   0  0  0  0  0  0  0  0  0  0  0  0
  -35.3190  -66.6200   47.8850 N   0  0  0  0  0  0  0  0  0  0  0  0
  -34.1480  -66.6270   48.5350 C   0  0  0  0  0  0  0  0  0  0  0  0
  -35.1660  -67.3920   46.7940 C   0  0  0  0  0  3  0  0  0  0  0  0
  -33.2720  -67.3950   47.8590 N   0  0  0  0  0  0  0  0  0  0  0  0
  -34.0690  -65.8870   49.7100 C   0  0  0  0  0  3  0  0  0  0  0  0
  -33.9040  -67.8520   46.8050 N   0  0  0  0  0  0  0  0  0  0  0  0
  -35.1570  -65.1840   50.1670 C   0  0  0  0  0  3  0  0  0  0  0  0
  2  1  1  0  0  0  0
  3 11  1  0  0  0  0
  3  2  2  0  0  0  0
  4  3  1  0  0  0  0
  5  4  2  0  0  0  0
  5  6  1  0  0  0  0
  6  7  2  0  0  0  0
  7  2  1  0  0  0  0
  8  9  1  0  0  0  0
  8  4  1  0  0  0  0
  9 10  1  0  0  0  0
 10 11  1  0  0  0  0
 12 13  2  0  0  0  0
 12  9  1  0  0  0  0
 14 15  1  0  0  0  0
 14 12  1  0  0  0  0
 16 15  1  0  0  0  0
 16 24  1  0  0  0  0
 17 16  2  0  0  0  0
 18 17  1  0  0  0  0
 18 19  1  0  0  0  0
 19 22  1  0  0  0  0
 20 23  2  0  0  0  0
 20 18  1  0  0  0  0
 21 19  2  0  0  0  0
 22 24  2  0  0  0  0
 23 21  1  0  0  0  0
M  END
>  <Pose>
1

>  <Score>
-8.342

$$$$
