/Users/jonathanwahrer/Desktop/Msc/3_Semester/Drug_Design_Praktikum/waehrer_HTS_screening/HTS_experiment/out/docking_results/vina_output/3e7o/1863_docked.pdbqt
 OpenBabel03192216453D

 33 36  0  0  0  0  0  0  0  0999 V2000
  -39.1720  -67.9230   50.8540 N   0  0  0  0  0  0  0  0  0  0  0  0
  -39.7300  -68.3760   52.0110 C   0  0  0  0  0  0  0  0  0  0  0  0
  -40.6400  -67.4400   52.4260 C   0  0  0  0  0  0  0  0  0  0  0  0
  -40.6050  -66.4640   51.5200 N   0  0  0  0  0  0  0  0  0  0  0  0
  -39.7030  -66.7390   50.5400 C   0  0  0  0  0  0  0  0  0  0  0  0
  -41.3130  -67.6640   53.5680 N   0  0  0  0  0  0  0  0  0  0  0  0
  -41.1080  -68.7860   54.3090 C   0  0  0  0  0  0  0  0  0  0  0  0
  -41.7390  -69.0070   55.3900 O   0  0  0  0  0  0  0  0  0  0  0  0
  -40.2210  -69.7210   53.9280 N   0  0  0  0  0  0  0  0  0  0  0  0
  -39.5420  -69.5150   52.7910 C   0  0  0  0  0  0  0  0  0  0  0  0
  -38.7220  -70.4030   52.4650 O   0  0  0  0  0  0  0  0  0  0  0  0
  -42.2770  -66.7090   54.0480 C   0  0  0  0  0  1  0  0  0  0  0  0
  -40.0640  -70.5980   54.5110 H   0  0  0  0  0  0  0  0  0  0  0  0
  -39.4020  -65.8570   49.4390 N   0  0  0  0  0  0  0  0  0  0  0  0
  -39.5410  -64.4470   49.7220 C   0  0  0  0  0  2  0  0  0  0  0  0
  -39.1360  -63.5560   48.5760 C   0  0  0  0  0  2  0  0  0  0  0  0
  -37.8950  -64.0240   48.0770 N   0  0  0  0  0  0  0  0  0  0  0  0
  -37.9990  -65.3260   47.5060 C   0  0  0  0  0  2  0  0  0  0  0  0
  -38.9970  -66.2540   48.1340 C   0  0  0  0  0  2  0  0  0  0  0  0
  -36.8650  -63.8900   49.0580 C   0  0  0  0  0  2  0  0  0  0  0  0
  -35.7710  -62.9520   48.6680 C   0  0  0  0  0  0  0  0  0  0  0  0
  -35.5810  -61.8440   49.1930 O   0  0  0  0  0  0  0  0  0  0  0  0
  -34.9200  -63.4190   47.6120 N   0  0  0  0  0  0  0  0  0  0  0  0
  -35.1890  -63.3240   46.6070 H   0  0  0  0  0  0  0  0  0  0  0  0
  -34.0340  -63.8540   47.8570 H   0  0  0  0  0  0  0  0  0  0  0  0
  -38.1970  -68.6560   50.1180 C   0  0  0  0  0  2  0  0  0  0  0  0
  -36.7920  -68.5000   50.5780 C   0  0  0  0  0  0  0  0  0  0  0  0
  -36.0940  -67.3480   50.1850 C   0  0  0  0  0  3  0  0  0  0  0  0
  -34.7980  -67.1030   50.5420 C   0  0  0  0  0  0  0  0  0  0  0  0
  -33.9160  -65.6560   50.0610 Cl  0  0  0  0  0  0  0  0  0  0  0  0
  -34.1300  -68.0220   51.3230 C   0  0  0  0  0  3  0  0  0  0  0  0
  -34.8090  -69.1580   51.7150 C   0  0  0  0  0  3  0  0  0  0  0  0
  -36.1250  -69.4020   51.3500 C   0  0  0  0  0  3  0  0  0  0  0  0
  1  2  1  0  0  0  0
  2  3  2  0  0  0  0
  2 10  1  0  0  0  0
  3  6  1  0  0  0  0
  4  3  1  0  0  0  0
  5  1  1  0  0  0  0
  5  4  2  0  0  0  0
  6 12  1  0  0  0  0
  6  7  1  0  0  0  0
  7  8  2  0  0  0  0
  9  7  1  0  0  0  0
  9 13  1  0  0  0  0
 10  9  1  0  0  0  0
 11 10  2  0  0  0  0
 14 15  1  0  0  0  0
 14  5  1  0  0  0  0
 16 15  1  0  0  0  0
 17 16  1  0  0  0  0
 17 20  1  0  0  0  0
 18 17  1  0  0  0  0
 18 19  1  0  0  0  0
 19 14  1  0  0  0  0
 21 20  1  0  0  0  0
 21 22  2  0  0  0  0
 23 25  1  0  0  0  0
 23 21  1  0  0  0  0
 24 23  1  0  0  0  0
 26 27  1  0  0  0  0
 26  1  1  0  0  0  0
 27 33  1  0  0  0  0
 28 29  1  0  0  0  0
 28 27  2  0  0  0  0
 29 31  2  0  0  0  0
 30 29  1  0  0  0  0
 31 32  1  0  0  0  0
 33 32  2  0  0  0  0
M  END
>  <Pose>
1

>  <Score>
-8.563

$$$$
