/Users/jonathanwahrer/Desktop/Msc/3_Semester/Drug_Design_Praktikum/waehrer_HTS_screening/HTS_experiment/out/docking_results/vina_output/3e7o/1865_docked.pdbqt
 OpenBabel03192216453D

 29 32  0  0  1  0  0  0  0  0999 V2000
  -35.6160  -67.6290   49.5280 N   0  0  0  0  0  0  0  0  0  0  0  0
  -34.5640  -67.6020   50.5040 C   0  0  0  0  0  0  0  0  0  0  0  0
  -34.3940  -68.4800   51.4130 O   0  0  0  0  0  0  0  0  0  0  0  0
  -33.7570  -66.4470   50.2860 N   0  0  0  0  0  0  0  0  0  0  0  0
  -34.5840  -65.5310   49.5330 C   0  0  1  0  0  0  0  0  0  0  0  0
  -35.5200  -64.8640   50.5230 C   0  0  0  0  0  2  0  0  0  0  0  0
  -36.6500  -64.2610   49.6960 C   0  0  0  0  0  2  0  0  0  0  0  0
  -36.1030  -63.5100   48.5820 N   0  0  0  0  0  0  0  0  0  0  0  0
  -34.6810  -63.3170   48.4810 C   0  0  0  0  0  2  0  0  0  0  0  0
  -33.8500  -64.5290   48.7500 C   0  0  0  0  0  2  0  0  0  0  0  0
  -36.9750  -62.9650   47.6040 C   0  0  0  0  0  0  0  0  0  0  0  0
  -36.4890  -62.3110   46.6260 O   0  0  0  0  0  0  0  0  0  0  0  0
  -35.4110  -66.4660   48.7300 C   0  0  0  0  0  0  0  0  0  0  0  0
  -35.8810  -66.3340   47.5680 O   0  0  0  0  0  0  0  0  0  0  0  0
  -32.7810  -66.2920   50.6010 H   0  0  0  0  0  0  0  0  0  0  0  0
  -36.6630  -68.6110   49.3700 C   0  0  0  0  0  2  0  0  0  0  0  0
  -37.7350  -68.4730   50.3780 C   0  0  0  0  0  0  0  0  0  0  0  0
  -37.7850  -69.2840   51.4890 C   0  0  0  0  0  3  0  0  0  0  0  0
  -38.7700  -69.1860   52.4500 C   0  0  0  0  0  0  0  0  0  0  0  0
  -38.8270  -70.2220   53.8620 Cl  0  0  0  0  0  0  0  0  0  0  0  0
  -39.7360  -68.2180   52.2600 C   0  0  0  0  0  3  0  0  0  0  0  0
  -39.6980  -67.3980   51.1510 C   0  0  0  0  0  3  0  0  0  0  0  0
  -38.7020  -67.5110   50.1960 C   0  0  0  0  0  3  0  0  0  0  0  0
  -38.4200  -63.1090   47.6480 C   0  0  0  0  0  0  0  0  0  0  0  0
  -39.2260  -62.1840   48.2050 N   0  0  0  0  0  0  0  0  0  0  0  0
  -40.5560  -62.3820   48.2110 C   0  0  0  0  0  3  0  0  0  0  0  0
  -41.1390  -63.5040   47.6640 C   0  0  0  0  0  3  0  0  0  0  0  0
  -40.3400  -64.4270   47.1080 N   0  0  0  0  0  0  0  0  0  0  0  0
  -38.9940  -64.2320   47.0990 C   0  0  0  0  0  3  0  0  0  0  0  0
  1  2  1  0  0  0  0
  2  3  2  0  0  0  0
  4  2  1  0  0  0  0
  4 15  1  0  0  0  0
  5 10  1  6  0  0  0
  5  4  1  0  0  0  0
  5  6  1  0  0  0  0
  7  6  1  0  0  0  0
  8  7  1  0  0  0  0
  9  8  1  0  0  0  0
  9 10  1  0  0  0  0
 11 24  1  0  0  0  0
 11  8  1  0  0  0  0
 12 11  2  0  0  0  0
 13  1  1  0  0  0  0
 13  5  1  0  0  0  0
 14 13  2  0  0  0  0
 16  1  1  0  0  0  0
 16 17  1  0  0  0  0
 17 18  1  0  0  0  0
 18 19  2  0  0  0  0
 19 20  1  0  0  0  0
 21 19  1  0  0  0  0
 22 21  2  0  0  0  0
 23 17  2  0  0  0  0
 23 22  1  0  0  0  0
 24 25  1  0  0  0  0
 25 26  2  0  0  0  0
 27 26  1  0  0  0  0
 28 27  2  0  0  0  0
 29 28  1  0  0  0  0
 29 24  2  0  0  0  0
M  END
>  <Pose>
1

>  <Score>
-7.724

$$$$
