/Users/jonathanwahrer/Desktop/Msc/3_Semester/Drug_Design_Praktikum/waehrer_HTS_screening/HTS_experiment/out/docking_results/vina_output/3e7o/1871_docked.pdbqt
 OpenBabel03192216463D

 28 31  0  0  1  0  0  0  0  0999 V2000
  -38.0090  -66.6870   48.3430 C   0  0  2  0  0  0  0  0  0  0  0  0
  -38.7370  -67.1400   49.4640 N   0  0  0  0  0  4  0  0  0  0  0  0
  -37.9510  -67.9940   50.2500 C   0  0  0  0  0  0  0  0  0  0  0  0
  -38.0240  -68.7810   51.2950 C   0  0  0  0  0  3  0  0  0  0  0  0
  -36.8560  -69.5200   51.7860 C   0  0  0  0  0  3  0  0  0  0  0  0
  -35.5140  -69.1450   51.3580 C   0  0  0  0  0  3  0  0  0  0  0  0
  -35.4480  -68.0680   50.3040 C   0  0  0  0  0  2  0  0  0  0  0  0
  -36.6620  -67.9850   49.5740 N   0  0  0  0  0  0  0  0  0  0  0  0
  -37.0500  -67.8780   48.1730 C   0  0  2  0  0  3  0  0  0  0  0  0
  -35.8790  -67.6390   47.3160 C   0  0  0  0  0  1  0  0  0  0  0  0
  -39.4150  -67.8940   48.9930 H   0  0  0  0  0  0  0  0  0  0  0  0
  -37.2360  -65.4530   48.4560 C   0  0  0  0  0  0  0  0  0  0  0  0
  -37.2900  -64.5210   47.4540 C   0  0  0  0  0  3  0  0  0  0  0  0
  -36.5570  -63.3360   47.5050 C   0  0  0  0  0  3  0  0  0  0  0  0
  -35.7510  -63.1080   48.6110 C   0  0  0  0  0  0  0  0  0  0  0  0
  -34.7880  -61.6510   48.7690 Cl  0  0  0  0  0  0  0  0  0  0  0  0
  -35.7080  -64.0570   49.6140 C   0  0  0  0  0  3  0  0  0  0  0  0
  -36.4340  -65.2290   49.5620 C   0  0  0  0  0  3  0  0  0  0  0  0
  -38.8110  -66.7020   47.2250 O   0  0  0  0  0  0  0  0  0  0  0  0
  -39.7590  -66.5160   47.3570 H   0  0  0  0  0  0  0  0  0  0  0  0
  -39.6850  -66.2850   50.0160 C   0  0  0  0  0  0  0  0  0  0  0  0
  -40.9140  -66.8330   50.3440 C   0  0  0  0  0  3  0  0  0  0  0  0
  -41.9390  -66.0950   50.8850 C   0  0  0  0  0  3  0  0  0  0  0  0
  -41.8080  -64.7270   51.1430 C   0  0  0  0  0  0  0  0  0  0  0  0
  -40.5810  -64.2100   50.8070 C   0  0  0  0  0  3  0  0  0  0  0  0
  -39.5610  -64.9540   50.2670 C   0  0  0  0  0  3  0  0  0  0  0  0
  -42.8440  -63.9960   51.6910 O   0  0  0  0  0  0  0  0  0  0  0  0
  -43.4080  -64.4000   52.9130 C   0  0  0  0  0  1  0  0  0  0  0  0
  1 19  1  6  0  0  0
  1 12  1  0  0  0  0
  1  2  1  0  0  0  0
  2 21  1  0  0  0  0
  2  3  1  0  0  0  0
  3  4  2  0  0  0  0
  4  5  1  0  0  0  0
  6  5  2  0  0  0  0
  7  6  1  0  0  0  0
  8  3  1  0  0  0  0
  8  7  1  0  0  0  0
  9 10  1  6  0  0  0
  9  1  1  0  0  0  0
  9  8  1  0  0  0  0
 11  2  1  0  0  0  0
 12 18  1  0  0  0  0
 13 14  1  0  0  0  0
 13 12  2  0  0  0  0
 14 15  2  0  0  0  0
 15 16  1  0  0  0  0
 15 17  1  0  0  0  0
 18 17  2  0  0  0  0
 19 20  1  0  0  0  0
 21 26  2  0  0  0  0
 21 22  1  0  0  0  0
 22 23  2  0  0  0  0
 23 24  1  0  0  0  0
 24 27  1  0  0  0  0
 25 24  2  0  0  0  0
 26 25  1  0  0  0  0
 27 28  1  0  0  0  0
M  END
>  <Pose>
1

>  <Score>
-7.960

$$$$
