/Users/jonathanwahrer/Desktop/Msc/3_Semester/Drug_Design_Praktikum/waehrer_HTS_screening/HTS_experiment/out/docking_results/vina_output/3e7o/1893_docked.pdbqt
 OpenBabel03192216463D

 28 31  0  0  0  0  0  0  0  0999 V2000
  -41.6980  -67.4040   52.8840 N   0  0  0  0  0  0  0  0  0  0  0  0
  -40.8230  -68.0400   52.0690 C   0  0  0  0  0  0  0  0  0  0  0  0
  -40.7620  -67.8580   50.8250 O   0  0  0  0  0  0  0  0  0  0  0  0
  -40.0170  -68.9070   52.7880 C   0  0  0  0  0  0  0  0  0  0  0  0
  -40.4020  -68.8010   54.0500 C   0  0  0  0  0  0  0  0  0  0  0  0
  -39.6150  -69.6480   54.7470 N   0  0  0  0  0  0  0  0  0  0  0  0
  -38.7710  -70.2510   53.8990 N   0  0  0  0  0  0  0  0  0  0  0  0
  -39.0140  -69.7970   52.6800 N   0  0  0  0  0  0  0  0  0  0  0  0
  -41.4300  -67.8830   54.1110 C   0  0  0  0  0  0  0  0  0  0  0  0
  -42.0090  -67.5610   55.1720 O   0  0  0  0  0  0  0  0  0  0  0  0
  -39.6640  -69.8010   55.7710 H   0  0  0  0  0  0  0  0  0  0  0  0
  -38.0370  -70.9580   54.1140 H   0  0  0  0  0  0  0  0  0  0  0  0
  -38.3340  -70.1770   51.4600 C   0  0  0  0  0  2  0  0  0  0  0  0
  -37.2070  -69.2730   51.1180 C   0  0  0  0  0  0  0  0  0  0  0  0
  -37.3090  -68.2040   50.2560 C   0  0  0  0  0  3  0  0  0  0  0  0
  -36.2580  -67.3650   49.9400 C   0  0  0  0  0  0  0  0  0  0  0  0
  -35.0310  -67.5990   50.5120 C   0  0  0  0  0  3  0  0  0  0  0  0
  -34.8840  -68.6560   51.3790 C   0  0  0  0  0  3  0  0  0  0  0  0
  -35.9550  -69.4820   51.6780 C   0  0  0  0  0  3  0  0  0  0  0  0
  -36.4700  -66.3050   49.0500 O   0  0  0  0  0  0  0  0  0  0  0  0
  -37.6620  -65.5470   49.0750 C   0  0  0  0  0  1  0  0  0  0  0  0
  -42.6690  -66.4520   52.5070 C   0  0  0  0  0  0  0  0  0  0  0  0
  -42.3250  -65.1610   52.1660 C   0  0  0  0  0  3  0  0  0  0  0  0
  -43.2570  -64.2100   51.7950 C   0  0  0  0  0  3  0  0  0  0  0  0
  -44.5870  -64.5760   51.7650 C   0  0  0  0  0  0  0  0  0  0  0  0
  -45.8370  -63.4170   51.3000 Cl  0  0  0  0  0  0  0  0  0  0  0  0
  -44.9830  -65.8560   52.0970 C   0  0  0  0  0  3  0  0  0  0  0  0
  -44.0100  -66.7800   52.4660 C   0  0  0  0  0  3  0  0  0  0  0  0
  1  9  1  0  0  0  0
  2  4  1  0  0  0  0
  2  1  1  0  0  0  0
  3  2  2  0  0  0  0
  4  5  2  0  0  0  0
  5  9  1  0  0  0  0
  5  6  1  0  0  0  0
  6 11  1  0  0  0  0
  7 12  1  0  0  0  0
  7  6  1  0  0  0  0
  8  4  1  0  0  0  0
  8  7  1  0  0  0  0
  9 10  2  0  0  0  0
 13  8  1  0  0  0  0
 14 13  1  0  0  0  0
 14 19  1  0  0  0  0
 15 14  2  0  0  0  0
 16 15  1  0  0  0  0
 16 17  2  0  0  0  0
 17 18  1  0  0  0  0
 18 19  2  0  0  0  0
 20 21  1  0  0  0  0
 20 16  1  0  0  0  0
 22  1  1  0  0  0  0
 23 22  2  0  0  0  0
 24 23  1  0  0  0  0
 25 24  2  0  0  0  0
 25 27  1  0  0  0  0
 26 25  1  0  0  0  0
 27 28  2  0  0  0  0
 28 22  1  0  0  0  0
M  END
>  <Pose>
1

>  <Score>
-8.185

$$$$
