/Users/jonathanwahrer/Desktop/Msc/3_Semester/Drug_Design_Praktikum/waehrer_HTS_screening/HTS_experiment/out/docking_results/vina_output/3e7o/1906_docked.pdbqt
 OpenBabel03192216463D

 33 36  0  0  1  0  0  0  0  0999 V2000
  -36.9400  -65.7310   48.9270 C   0  0  1  0  0  0  0  0  0  0  0  0
  -36.0710  -66.3220   49.8560 O   0  0  0  0  0  0  0  0  0  0  0  0
  -35.1390  -67.1610   49.3110 C   0  0  0  0  0  2  0  0  0  0  0  0
  -34.0640  -66.4550   48.5100 C   0  0  0  0  0  2  0  0  0  0  0  0
  -34.7990  -65.3750   47.8030 N   0  0  0  0  0  0  0  0  0  0  0  0
  -36.1710  -65.6360   47.5960 C   0  0  0  0  0  2  0  0  0  0  0  0
  -34.0960  -64.2500   47.4240 C   0  0  0  0  0  0  0  0  0  0  0  0
  -32.8260  -64.1530   47.6830 O   0  0  0  0  0  0  0  0  0  0  0  0
  -38.0330  -66.7350   48.6940 C   0  0  0  0  0  2  0  0  0  0  0  0
  -38.7810  -67.1700   49.6830 O   0  0  0  0  0  0  0  0  0  0  0  0
  -38.9830  -67.9260   50.7220 C   0  0  0  0  0  0  0  0  0  0  0  0
  -40.0410  -67.8190   51.5870 C   0  0  0  0  0  3  0  0  0  0  0  0
  -40.1590  -68.6660   52.6550 C   0  0  0  0  0  0  0  0  0  0  0  0
  -41.5340  -68.4990   53.7470 Cl  0  0  0  0  0  0  0  0  0  0  0  0
  -39.2260  -69.6560   52.9030 C   0  0  0  0  0  3  0  0  0  0  0  0
  -38.1680  -69.7670   52.0400 C   0  0  0  0  0  3  0  0  0  0  0  0
  -38.0350  -68.9360   50.9770 C   0  0  0  0  0  3  0  0  0  0  0  0
  -37.3400  -64.4230   49.4360 C   0  0  0  0  0  2  0  0  0  0  0  0
  -38.3390  -63.6560   48.6900 C   0  0  0  0  0  0  0  0  0  0  0  0
  -38.0610  -63.1350   47.5930 O   0  0  0  0  0  0  0  0  0  0  0  0
  -39.6620  -63.4770   49.1880 N   0  0  0  0  0  0  0  0  0  0  0  0
  -40.0790  -64.0490   50.4640 C   0  0  0  0  0  2  0  0  0  0  0  0
  -40.6540  -62.7190   48.4560 C   0  0  0  0  0  2  0  0  0  0  0  0
  -41.4080  -64.7350   50.2290 C   0  0  0  0  0  2  0  0  0  0  0  0
  -42.3190  -63.7960   49.7340 O   0  0  0  0  0  0  0  0  0  0  0  0
  -41.9490  -63.4640   48.4310 C   0  0  0  0  0  2  0  0  0  0  0  0
  -34.6540  -63.1240   46.7390 C   0  0  0  0  0  0  0  0  0  0  0  0
  -34.9510  -63.1190   45.4400 N   0  0  0  0  0  0  0  0  0  0  0  0
  -35.4770  -62.0630   44.7880 C   0  0  0  0  0  3  0  0  0  0  0  0
  -35.7360  -60.8940   45.4870 C   0  0  0  0  0  0  0  0  0  0  0  0
  -35.4550  -60.8630   46.7790 N   0  0  0  0  0  0  0  0  0  0  0  0
  -36.3150  -59.7640   44.7200 C   0  0  0  0  0  1  0  0  0  0  0  0
  -34.9310  -61.9270   47.4080 C   0  0  0  0  0  3  0  0  0  0  0  0
  1  9  1  6  0  0  0
  1 18  1  0  0  0  0
  1  2  1  0  0  0  0
  3  2  1  0  0  0  0
  4  3  1  0  0  0  0
  5  4  1  0  0  0  0
  6  5  1  0  0  0  0
  6  1  1  0  0  0  0
  7  8  2  0  0  0  0
  7  5  1  0  0  0  0
  9 10  1  0  0  0  0
 10 11  1  0  0  0  0
 11 17  2  0  0  0  0
 11 12  1  0  0  0  0
 12 13  2  0  0  0  0
 13 15  1  0  0  0  0
 13 14  1  0  0  0  0
 16 15  2  0  0  0  0
 17 16  1  0  0  0  0
 19 21  1  0  0  0  0
 19 18  1  0  0  0  0
 20 19  2  0  0  0  0
 21 22  1  0  0  0  0
 23 21  1  0  0  0  0
 24 22  1  0  0  0  0
 25 24  1  0  0  0  0
 26 23  1  0  0  0  0
 26 25  1  0  0  0  0
 27 33  1  0  0  0  0
 27  7  1  0  0  0  0
 28 27  2  0  0  0  0
 29 28  1  0  0  0  0
 29 30  2  0  0  0  0
 30 31  1  0  0  0  0
 31 33  2  0  0  0  0
 32 30  1  0  0  0  0
M  END
>  <Pose>
1

>  <Score>
-7.608

$$$$
