/Users/jonathanwahrer/Desktop/Msc/3_Semester/Drug_Design_Praktikum/waehrer_HTS_screening/HTS_experiment/out/docking_results/vina_output/3e7o/1913_docked.pdbqt
 OpenBabel03192216473D

 29 32  0  0  1  0  0  0  0  0999 V2000
  -40.6970  -66.5890   51.2460 N   0  0  0  0  0  0  0  0  0  0  0  0
  -40.4260  -65.1860   51.4630 C   0  0  0  0  0  2  0  0  0  0  0  0
  -40.4900  -64.3640   50.2040 C   0  0  0  0  0  2  0  0  0  0  0  0
  -39.7610  -65.0680   49.1130 C   0  0  2  0  0  3  0  0  0  0  0  0
  -40.4460  -66.3520   48.7940 C   0  0  0  0  0  3  0  0  0  0  0  0
  -40.8900  -67.1680   49.9520 C   0  0  0  0  0  3  0  0  0  0  0  0
  -38.3240  -65.1810   49.3710 C   0  0  0  0  0  0  0  0  0  0  0  0
  -37.8050  -66.3240   49.3710 O   0  0  0  0  0  0  0  0  0  0  0  0
  -37.4940  -64.0690   49.6200 N   0  0  0  0  0  0  0  0  0  0  0  0
  -37.9330  -63.1020   49.6190 H   0  0  0  0  0  0  0  0  0  0  0  0
  -36.0760  -64.1660   49.8770 C   0  0  0  0  0  2  0  0  0  0  0  0
  -35.2230  -63.7500   48.7130 C   0  0  0  0  0  2  0  0  0  0  0  0
  -34.1940  -64.7370   48.4400 N   0  0  0  0  0  0  0  0  0  0  0  0
  -34.4870  -65.5510   47.3090 C   0  0  0  0  0  2  0  0  0  0  0  0
  -34.8280  -66.9620   47.7460 C   0  0  0  0  0  2  0  0  0  0  0  0
  -33.7130  -67.4980   48.3410 O   0  0  0  0  0  0  0  0  0  0  0  0
  -33.1700  -66.7750   49.3690 C   0  0  0  0  0  2  0  0  0  0  0  0
  -33.7490  -65.4230   49.6000 C   0  0  0  0  0  2  0  0  0  0  0  0
  -40.7740  -67.4280   52.3760 C   0  0  0  0  0  0  0  0  0  0  0  0
  -41.8780  -67.4100   53.1860 C   0  0  0  0  0  0  0  0  0  0  0  0
  -41.9610  -68.2610   54.2980 C   0  0  0  0  0  0  0  0  0  0  0  0
  -43.0160  -66.6970   53.1780 N   0  0  0  0  0  0  0  0  0  0  0  0
  -40.9300  -69.0780   54.5290 N   0  0  0  0  0  4  0  0  0  0  0  0
  -43.1110  -68.0600   54.9280 N   0  0  0  0  0  0  0  0  0  0  0  0
  -39.8480  -69.1050   53.7480 C   0  0  0  0  0  0  0  0  0  0  0  0
  -38.5470  -70.1910   54.1080 Cl  0  0  0  0  0  0  0  0  0  0  0  0
  -39.7660  -68.2960   52.6880 N   0  0  0  0  0  2  0  0  0  0  0  0
  -43.7380  -67.1050   54.2300 C   0  0  0  0  0  3  0  0  0  0  0  0
  -43.2490  -65.9650   52.4660 H   0  0  0  0  0  0  0  0  0  0  0  0
  1  2  1  0  0  0  0
  1 19  1  0  0  0  0
  3  2  1  0  0  0  0
  4  7  1  1  0  0  0
  4  3  1  0  0  0  0
  5  4  1  0  0  0  0
  5  6  2  0  0  0  0
  6  1  1  0  0  0  0
  7  8  2  0  0  0  0
  7  9  1  0  0  0  0
  9 11  1  0  0  0  0
 10  9  1  0  0  0  0
 12 11  1  0  0  0  0
 13 12  1  0  0  0  0
 13 18  1  0  0  0  0
 14 15  1  0  0  0  0
 14 13  1  0  0  0  0
 15 16  1  0  0  0  0
 16 17  1  0  0  0  0
 17 18  1  0  0  0  0
 19 27  1  0  0  0  0
 19 20  2  0  0  0  0
 20 21  1  0  0  0  0
 21 23  2  0  0  0  0
 21 24  1  0  0  0  0
 22 20  1  0  0  0  0
 22 28  1  0  0  0  0
 25 26  1  0  0  0  0
 25 23  2  0  0  0  0
 27 25  1  0  0  0  0
 28 24  2  0  0  0  0
 29 22  1  0  0  0  0
M  END
>  <Pose>
1

>  <Score>
-7.663

$$$$
