/Users/jonathanwahrer/Desktop/Msc/3_Semester/Drug_Design_Praktikum/waehrer_HTS_screening/HTS_experiment/out/docking_results/vina_output/3e7o/1927_docked.pdbqt
 OpenBabel03192216473D

 36 39  0  0  1  0  0  0  0  0999 V2000
  -45.9460  -65.0640   53.5670 C   0  0  0  0  0  2  0  0  0  0  0  0
  -47.2160  -65.5210   52.9840 C   0  0  0  0  0  0  0  0  0  0  0  0
  -47.8440  -66.7590   53.0100 N   0  0  0  0  0  0  0  0  0  0  0  0
  -47.2720  -67.9830   53.4480 C   0  0  0  0  0  2  0  0  0  0  0  0
  -49.2570  -66.8310   52.5550 C   0  0  0  0  0  2  0  0  0  0  0  0
  -48.0870  -68.5680   54.5830 C   0  0  0  0  0  2  0  0  0  0  0  0
  -49.4020  -68.9680   53.9190 C   0  0  2  0  0  0  0  0  0  0  0  0
  -50.0920  -67.7960   53.3270 C   0  0  0  0  0  2  0  0  0  0  0  0
  -47.8380  -64.5780   52.3230 O   0  0  0  0  0  0  0  0  0  0  0  0
  -50.1850  -69.8060   54.8090 C   0  0  0  0  0  0  0  0  0  0  0  0
  -50.5550  -71.0750   54.3430 C   0  0  0  0  0  3  0  0  0  0  0  0
  -51.3350  -71.9450   55.1040 C   0  0  0  0  0  3  0  0  0  0  0  0
  -51.7740  -71.5860   56.3560 C   0  0  0  0  0  0  0  0  0  0  0  0
  -52.7800  -72.6910   57.3280 Cl  0  0  0  0  0  0  0  0  0  0  0  0
  -51.4150  -70.3340   56.8290 C   0  0  0  0  0  3  0  0  0  0  0  0
  -50.6420  -69.4830   56.0640 C   0  0  0  0  0  3  0  0  0  0  0  0
  -48.9780  -69.7890   52.8260 O   0  0  0  0  0  0  0  0  0  0  0  0
  -48.0030  -69.9170   52.9380 H   0  0  0  0  0  0  0  0  0  0  0  0
  -44.7600  -65.5810   53.0410 N   0  0  0  0  0  0  0  0  0  0  0  0
  -43.6550  -66.0510   53.8160 C   0  0  0  0  0  0  0  0  0  0  0  0
  -43.7990  -65.9480   55.0620 O   0  0  0  0  0  0  0  0  0  0  0  0
  -44.6370  -65.7270   52.0030 H   0  0  0  0  0  0  0  0  0  0  0  0
  -42.4830  -66.5970   53.1870 C   0  0  0  0  0  3  0  0  0  0  0  0
  -41.6650  -67.5210   53.5710 C   0  0  0  0  0  0  0  0  0  0  0  0
  -41.7940  -68.2180   54.8120 N   0  0  0  0  0  0  0  0  0  0  0  0
  -40.5310  -67.9410   52.7100 C   0  0  0  0  0  0  0  0  0  0  0  0
  -40.8990  -69.2390   55.1960 N   0  0  0  0  0  0  0  0  0  0  0  0
  -42.5660  -67.9870   55.4820 H   0  0  0  0  0  0  0  0  0  0  0  0
  -39.8290  -69.6180   54.3600 C   0  0  0  0  0  0  0  0  0  0  0  0
  -41.0240  -69.7340   56.1090 H   0  0  0  0  0  0  0  0  0  0  0  0
  -39.0510  -70.5410   54.7410 O   0  0  0  0  0  0  0  0  0  0  0  0
  -39.6620  -68.9370   53.0910 C   0  0  0  0  0  0  0  0  0  0  0  0
  -38.6160  -69.3630   52.2970 C   0  0  0  0  0  3  0  0  0  0  0  0
  -38.4450  -68.7480   51.0600 C   0  0  0  0  0  3  0  0  0  0  0  0
  -39.2820  -67.7530   50.6350 C   0  0  0  0  0  3  0  0  0  0  0  0
  -40.3220  -67.3670   51.4880 C   0  0  0  0  0  3  0  0  0  0  0  0
  2  3  1  0  0  0  0
  2  1  1  0  0  0  0
  3  4  1  0  0  0  0
  4  6  1  0  0  0  0
  5  3  1  0  0  0  0
  5  8  1  0  0  0  0
  7 17  1  6  0  0  0
  7  6  1  0  0  0  0
  7 10  1  0  0  0  0
  8  7  1  0  0  0  0
  9  2  2  0  0  0  0
 10 16  1  0  0  0  0
 11 10  2  0  0  0  0
 11 12  1  0  0  0  0
 12 13  2  0  0  0  0
 13 15  1  0  0  0  0
 13 14  1  0  0  0  0
 16 15  2  0  0  0  0
 17 18  1  0  0  0  0
 19  1  1  0  0  0  0
 19 20  1  0  0  0  0
 20 21  2  0  0  0  0
 22 19  1  0  0  0  0
 23 24  2  0  0  0  0
 23 20  1  0  0  0  0
 24 25  1  0  0  0  0
 25 27  1  0  0  0  0
 25 28  1  0  0  0  0
 26 32  1  0  0  0  0
 26 24  1  0  0  0  0
 27 30  1  0  0  0  0
 29 31  2  0  0  0  0
 29 27  1  0  0  0  0
 32 29  1  0  0  0  0
 33 32  2  0  0  0  0
 34 33  1  0  0  0  0
 35 34  2  0  0  0  0
 35 36  1  0  0  0  0
 36 26  2  0  0  0  0
M  END
>  <Pose>
1

>  <Score>
-9.389

$$$$
