/Users/jonathanwahrer/Desktop/Msc/3_Semester/Drug_Design_Praktikum/waehrer_HTS_screening/HTS_experiment/out/docking_results/vina_output/3e7o/1928_docked.pdbqt
 OpenBabel03192216473D

 28 31  0  0  0  0  0  0  0  0999 V2000
  -40.3030  -66.8530   51.7510 N   0  0  0  0  0  0  0  0  0  0  0  0
  -40.8260  -67.2800   52.9190 C   0  0  0  0  0  2  0  0  0  0  0  0
  -40.3420  -68.4060   53.5360 C   0  0  0  0  0  0  0  0  0  0  0  0
  -39.2420  -69.1490   52.9100 C   0  0  0  0  0  0  0  0  0  0  0  0
  -38.9740  -70.1930   53.7240 N   0  0  0  0  0  2  0  0  0  0  0  0
  -39.7870  -70.1600   54.7600 N   0  0  0  0  0  0  0  0  0  0  0  0
  -40.6260  -69.1150   54.7020 C   0  0  0  0  0  0  0  0  0  0  0  0
  -41.5170  -68.7970   55.5250 O   0  0  0  0  0  0  0  0  0  0  0  0
  -38.7400  -68.6730   51.7170 C   0  0  0  0  0  0  0  0  0  0  0  0
  -39.3050  -67.5410   51.2000 C   0  0  0  0  0  3  0  0  0  0  0  0
  -39.7770  -70.8570   55.5260 H   0  0  0  0  0  0  0  0  0  0  0  0
  -40.8590  -65.6450   51.1370 C   0  0  0  0  0  2  0  0  0  0  0  0
  -42.2230  -65.4050   51.6490 C   0  0  0  0  0  0  0  0  0  0  0  0
  -42.6200  -64.2870   52.2060 O   0  0  0  0  0  0  0  0  0  0  0  0
  -43.8690  -64.4050   52.5430 N   0  0  0  0  0  0  0  0  0  0  0  0
  -44.3270  -65.6210   52.2100 C   0  0  0  0  0  0  0  0  0  0  0  0
  -43.2870  -66.2510   51.6450 N   0  0  0  0  0  0  0  0  0  0  0  0
  -45.6800  -66.1080   52.4350 C   0  0  0  0  0  0  0  0  0  0  0  0
  -46.7590  -65.5840   51.7610 C   0  0  0  0  0  3  0  0  0  0  0  0
  -48.0480  -66.0390   51.9670 C   0  0  0  0  0  3  0  0  0  0  0  0
  -48.2940  -67.0540   52.8750 C   0  0  0  0  0  0  0  0  0  0  0  0
  -49.9220  -67.6490   53.1530 Cl  0  0  0  0  0  0  0  0  0  0  0  0
  -47.2080  -67.5850   53.5560 C   0  0  0  0  0  3  0  0  0  0  0  0
  -45.9200  -67.1210   53.3410 C   0  0  0  0  0  3  0  0  0  0  0  0
  -37.6440  -69.3870   51.0640 C   0  0  0  0  0  0  0  0  0  0  0  0
  -37.8360  -70.4860   50.5240 O   0  0  0  0  0  0  0  0  0  0  0  0
  -36.3650  -68.8580   51.0330 O   0  0  0  0  0  0  0  0  0  0  0  0
  -35.2650  -69.4320   51.6980 C   0  0  0  0  0  1  0  0  0  0  0  0
  1  2  1  0  0  0  0
  2  3  1  0  0  0  0
  3  7  1  0  0  0  0
  4  3  2  0  0  0  0
  4  5  1  0  0  0  0
  5  6  1  0  0  0  0
  6 11  1  0  0  0  0
  7  6  1  0  0  0  0
  7  8  2  0  0  0  0
  9  4  1  0  0  0  0
 10  9  2  0  0  0  0
 10  1  1  0  0  0  0
 12 13  1  0  0  0  0
 12  1  1  0  0  0  0
 13 14  1  0  0  0  0
 14 15  1  0  0  0  0
 16 18  1  0  0  0  0
 16 15  2  0  0  0  0
 17 13  2  0  0  0  0
 17 16  1  0  0  0  0
 18 24  1  0  0  0  0
 19 20  1  0  0  0  0
 19 18  2  0  0  0  0
 20 21  2  0  0  0  0
 21 22  1  0  0  0  0
 21 23  1  0  0  0  0
 24 23  2  0  0  0  0
 25  9  1  0  0  0  0
 26 25  2  0  0  0  0
 27 25  1  0  0  0  0
 27 28  1  0  0  0  0
M  END
>  <Pose>
1

>  <Score>
-8.602

$$$$
