/Users/jonathanwahrer/Desktop/Msc/3_Semester/Drug_Design_Praktikum/waehrer_HTS_screening/HTS_experiment/out/docking_results/vina_output/3e7o/1937_docked.pdbqt
 OpenBabel03192216483D

 31 34  0  0  1  0  0  0  0  0999 V2000
  -39.5440  -65.1070   48.7630 N   0  0  0  0  0  0  0  0  0  0  0  0
  -39.5080  -66.4170   48.3020 C   0  0  0  0  0  2  0  0  0  0  0  0
  -38.1040  -66.6230   47.5890 C   0  0  0  0  0  2  0  0  0  0  0  0
  -37.2910  -65.6970   48.3330 N   0  0  0  0  0  0  0  0  0  0  0  0
  -37.4600  -64.3100   47.8110 C   0  0  0  0  0  2  0  0  0  0  0  0
  -38.9550  -64.1770   47.7350 C   0  0  0  0  0  2  0  0  0  0  0  0
  -36.4130  -66.0320   49.3190 C   0  0  0  0  0  0  0  0  0  0  0  0
  -36.1250  -65.1360   50.1850 O   0  0  0  0  0  0  0  0  0  0  0  0
  -40.7490  -64.4710   49.2370 C   0  0  0  0  0  2  0  0  0  0  0  0
  -40.8370  -64.7590   50.7400 C   0  0  0  0  0  0  0  0  0  0  0  0
  -41.3630  -65.9920   51.1300 N   0  0  0  0  0  0  0  0  0  0  0  0
  -41.8890  -66.5210   50.3480 H   0  0  0  0  0  0  0  0  0  0  0  0
  -40.4440  -63.9370   51.5270 O   0  0  0  0  0  0  0  0  0  0  0  0
  -41.3680  -66.5550   52.4320 C   0  0  0  0  0  2  0  0  0  0  0  0
  -40.3830  -67.6550   52.5940 C   0  0  0  0  0  0  0  0  0  0  0  0
  -40.4390  -68.4190   53.7540 C   0  0  0  0  0  0  0  0  0  0  0  0
  -41.4670  -67.8710   55.0570 Cl  0  0  0  0  0  0  0  0  0  0  0  0
  -39.6860  -69.5340   53.9220 C   0  0  0  0  0  3  0  0  0  0  0  0
  -38.8200  -70.0180   52.9630 C   0  0  0  0  0  3  0  0  0  0  0  0
  -38.7650  -69.2420   51.7870 C   0  0  0  0  0  3  0  0  0  0  0  0
  -39.5250  -68.0900   51.6180 C   0  0  0  0  0  3  0  0  0  0  0  0
  -35.7030  -67.3350   49.5180 C   0  0  1  0  0  3  0  0  0  0  0  0
  -35.0270  -67.5680   48.2390 O   0  0  0  0  0  0  0  0  0  0  0  0
  -34.5660  -66.3350   47.6930 C   0  0  0  0  0  0  0  0  0  0  0  0
  -34.1350  -65.3780   48.5740 C   0  0  0  0  0  0  0  0  0  0  0  0
  -34.5420  -66.0940   46.3240 C   0  0  0  0  0  3  0  0  0  0  0  0
  -33.6750  -64.1410   48.1360 C   0  0  0  0  0  3  0  0  0  0  0  0
  -34.1590  -65.6540   49.9460 O   0  0  0  0  0  0  0  0  0  0  0  0
  -33.6760  -63.9340   46.7620 C   0  0  0  0  0  3  0  0  0  0  0  0
  -34.0950  -64.8770   45.8480 C   0  0  0  0  0  3  0  0  0  0  0  0
  -34.5060  -66.9730   50.4380 C   0  0  0  0  0  2  0  0  0  0  0  0
  1  9  1  0  0  0  0
  2  1  1  0  0  0  0
  3  2  1  0  0  0  0
  3  4  1  0  0  0  0
  4  7  1  0  0  0  0
  5  4  1  0  0  0  0
  6  5  1  0  0  0  0
  6  1  1  0  0  0  0
  7  8  2  0  0  0  0
  9 10  1  0  0  0  0
 10 11  1  0  0  0  0
 10 13  2  0  0  0  0
 11 14  1  0  0  0  0
 12 11  1  0  0  0  0
 14 15  1  0  0  0  0
 15 16  1  0  0  0  0
 16 18  2  0  0  0  0
 16 17  1  0  0  0  0
 19 18  1  0  0  0  0
 20 19  2  0  0  0  0
 21 20  1  0  0  0  0
 21 15  2  0  0  0  0
 22  7  1  6  0  0  0
 22 31  1  0  0  0  0
 23 22  1  0  0  0  0
 24 23  1  0  0  0  0
 24 25  1  0  0  0  0
 25 28  1  0  0  0  0
 26 24  2  0  0  0  0
 27 25  2  0  0  0  0
 28 31  1  0  0  0  0
 29 27  1  0  0  0  0
 30 26  1  0  0  0  0
 30 29  2  0  0  0  0
M  END
>  <Pose>
1

>  <Score>
-8.161

$$$$
