/Users/jonathanwahrer/Desktop/Msc/3_Semester/Drug_Design_Praktikum/waehrer_HTS_screening/HTS_experiment/out/docking_results/vina_output/3e7o/1939_docked.pdbqt
 OpenBabel03192216483D

 28 31  0  0  0  0  0  0  0  0999 V2000
  -38.6640  -67.3080   50.0340 N   0  0  0  0  0  0  0  0  0  0  0  0
  -37.5200  -67.9380   50.4380 C   0  0  0  0  0  0  0  0  0  0  0  0
  -36.4330  -67.1570   50.1560 C   0  0  0  0  0  0  0  0  0  0  0  0
  -36.9440  -66.0730   49.5870 N   0  0  0  0  0  0  0  0  0  0  0  0
  -38.3120  -66.1390   49.4980 C   0  0  0  0  0  0  0  0  0  0  0  0
  -35.1810  -67.5540   50.4490 N   0  0  0  0  0  0  0  0  0  0  0  0
  -34.9790  -68.7610   51.0410 C   0  0  0  0  0  0  0  0  0  0  0  0
  -33.7980  -69.0880   51.2960 O   0  0  0  0  0  0  0  0  0  0  0  0
  -36.0140  -69.5640   51.3380 N   0  0  0  0  0  0  0  0  0  0  0  0
  -37.2580  -69.1580   51.0400 C   0  0  0  0  0  0  0  0  0  0  0  0
  -38.1870  -69.9420   51.3340 O   0  0  0  0  0  0  0  0  0  0  0  0
  -34.0850  -66.6620   50.1160 C   0  0  0  0  0  1  0  0  0  0  0  0
  -35.8050  -70.4780   51.7900 H   0  0  0  0  0  0  0  0  0  0  0  0
  -39.9700  -67.8910   50.1980 C   0  0  0  0  0  2  0  0  0  0  0  0
  -40.7450  -67.4620   51.3590 C   0  0  0  0  0  0  0  0  0  0  0  0
  -40.4640  -67.8010   52.6420 C   0  0  0  0  0  3  0  0  0  0  0  0
  -41.2660  -67.4080   53.7170 C   0  0  0  0  0  3  0  0  0  0  0  0
  -42.3820  -66.6540   53.5060 C   0  0  0  0  0  0  0  0  0  0  0  0
  -43.3530  -66.1880   54.8850 Cl  0  0  0  0  0  0  0  0  0  0  0  0
  -42.7040  -66.2880   52.2200 C   0  0  0  0  0  3  0  0  0  0  0  0
  -41.9000  -66.6860   51.1770 C   0  0  0  0  0  3  0  0  0  0  0  0
  -39.0840  -65.1090   48.9180 N   0  0  0  0  0  0  0  0  0  0  0  0
  -39.7190  -64.1520   49.8140 C   0  0  0  0  0  2  0  0  0  0  0  0
  -39.6370  -62.8260   49.0360 C   0  0  0  0  0  2  0  0  0  0  0  0
  -38.4410  -62.7570   48.2270 N   0  0  0  0  0  0  0  0  0  0  0  0
  -38.4110  -63.7120   47.1400 C   0  0  0  0  0  2  0  0  0  0  0  0
  -38.4170  -61.8110   47.8120 H   0  0  0  0  0  0  0  0  0  0  0  0
  -39.3360  -64.8480   47.5490 C   0  0  0  0  0  2  0  0  0  0  0  0
  1 14  1  0  0  0  0
  1  2  1  0  0  0  0
  2 10  1  0  0  0  0
  3  2  2  0  0  0  0
  3  6  1  0  0  0  0
  4  3  1  0  0  0  0
  5  4  2  0  0  0  0
  5  1  1  0  0  0  0
  6  7  1  0  0  0  0
  7  8  2  0  0  0  0
  7  9  1  0  0  0  0
  9 13  1  0  0  0  0
 10 11  2  0  0  0  0
 10  9  1  0  0  0  0
 12  6  1  0  0  0  0
 14 15  1  0  0  0  0
 15 16  1  0  0  0  0
 16 17  2  0  0  0  0
 18 17  1  0  0  0  0
 18 19  1  0  0  0  0
 20 18  2  0  0  0  0
 21 15  2  0  0  0  0
 21 20  1  0  0  0  0
 22  5  1  0  0  0  0
 22 23  1  0  0  0  0
 24 23  1  0  0  0  0
 25 24  1  0  0  0  0
 26 28  1  0  0  0  0
 26 25  1  0  0  0  0
 27 25  1  0  0  0  0
 28 22  1  0  0  0  0
M  END
>  <Pose>
1

>  <Score>
-7.905

$$$$
