/Users/jonathanwahrer/Desktop/Msc/3_Semester/Drug_Design_Praktikum/waehrer_HTS_screening/HTS_experiment/out/docking_results/vina_output/3e7o/1943_docked.pdbqt
 OpenBabel03192216493D

 34 38  0  0  1  0  0  0  0  0999 V2000
  -38.0580  -67.4800   49.9510 N   0  0  0  0  0  0  0  0  0  0  0  0
  -36.6250  -67.6330   49.8610 C   0  0  0  0  0  0  0  0  0  0  0  0
  -35.8960  -68.1530   50.7110 O   0  0  0  0  0  0  0  0  0  0  0  0
  -36.1510  -67.0740   48.5880 C   0  0  2  0  0  3  0  0  0  0  0  0
  -34.9460  -66.1690   48.6800 C   0  0  2  0  0  0  0  0  0  0  0  0
  -35.4220  -64.8140   48.8220 N   0  0  0  0  0  0  0  0  0  0  0  0
  -36.8330  -64.9110   49.1380 C   0  0  2  0  0  3  0  0  0  0  0  0
  -37.2460  -66.0830   48.2700 C   0  0  2  0  0  3  0  0  0  0  0  0
  -38.4490  -66.7840   48.7560 C   0  0  0  0  0  0  0  0  0  0  0  0
  -39.5460  -66.7390   48.1940 O   0  0  0  0  0  0  0  0  0  0  0  0
  -34.2170  -66.3650   47.3790 C   0  0  0  0  0  0  0  0  0  0  0  0
  -33.0550  -67.0290   47.6530 C   0  0  0  0  0  0  0  0  0  0  0  0
  -32.1700  -67.4200   46.6360 C   0  0  0  0  0  3  0  0  0  0  0  0
  -32.4600  -67.1350   45.3180 C   0  0  0  0  0  3  0  0  0  0  0  0
  -33.6230  -66.4670   45.0420 C   0  0  0  0  0  3  0  0  0  0  0  0
  -34.4830  -66.0900   46.0530 C   0  0  0  0  0  3  0  0  0  0  0  0
  -32.8660  -67.1690   49.0520 N   0  0  0  0  0  0  0  0  0  0  0  0
  -33.9740  -66.5480   49.6860 C   0  0  0  0  0  0  0  0  0  0  0  0
  -34.0510  -66.3770   50.9210 O   0  0  0  0  0  0  0  0  0  0  0  0
  -34.8830  -64.3670   49.6010 H   0  0  0  0  0  0  0  0  0  0  0  0
  -32.0460  -67.6480   49.5360 H   0  0  0  0  0  0  0  0  0  0  0  0
  -37.5890  -63.6620   48.7650 C   0  0  0  0  0  2  0  0  0  0  0  0
  -36.7830  -62.6520   48.0860 C   0  0  0  0  0  0  0  0  0  0  0  0
  -35.9810  -61.9460   48.7260 O   0  0  0  0  0  0  0  0  0  0  0  0
  -36.9090  -62.4690   46.6890 N   0  0  0  0  0  0  0  0  0  0  0  0
  -37.6000  -62.9770   46.0850 H   0  0  0  0  0  0  0  0  0  0  0  0
  -36.3050  -61.7890   46.1420 H   0  0  0  0  0  0  0  0  0  0  0  0
  -38.9280  -67.9080   50.9600 C   0  0  0  0  0  0  0  0  0  0  0  0
  -38.8590  -69.1460   51.5370 C   0  0  0  0  0  3  0  0  0  0  0  0
  -39.7220  -69.5690   52.5420 C   0  0  0  0  0  3  0  0  0  0  0  0
  -40.6990  -68.7150   52.9920 C   0  0  0  0  0  0  0  0  0  0  0  0
  -41.7890  -69.2310   54.2660 Cl  0  0  0  0  0  0  0  0  0  0  0  0
  -40.7980  -67.4760   52.4390 C   0  0  0  0  0  3  0  0  0  0  0  0
  -39.9160  -67.0770   51.4290 C   0  0  0  0  0  3  0  0  0  0  0  0
  1 28  1  0  0  0  0
  2  1  1  0  0  0  0
  2  3  2  0  0  0  0
  4  5  1  0  0  0  0
  4  2  1  1  0  0  0
  5 11  1  6  0  0  0
  5  6  1  0  0  0  0
  5 18  1  0  0  0  0
  6  7  1  0  0  0  0
  6 20  1  0  0  0  0
  7 22  1  6  0  0  0
  8  4  1  0  0  0  0
  8  9  1  1  0  0  0
  8  7  1  0  0  0  0
  9  1  1  0  0  0  0
 10  9  2  0  0  0  0
 11 12  1  0  0  0  0
 12 17  1  0  0  0  0
 13 12  2  0  0  0  0
 14 13  1  0  0  0  0
 15 14  2  0  0  0  0
 15 16  1  0  0  0  0
 16 11  2  0  0  0  0
 17 21  1  0  0  0  0
 17 18  1  0  0  0  0
 18 19  2  0  0  0  0
 23 24  2  0  0  0  0
 23 22  1  0  0  0  0
 25 23  1  0  0  0  0
 26 25  1  0  0  0  0
 27 25  1  0  0  0  0
 28 34  2  0  0  0  0
 28 29  1  0  0  0  0
 29 30  2  0  0  0  0
 30 31  1  0  0  0  0
 31 32  1  0  0  0  0
 33 31  2  0  0  0  0
 34 33  1  0  0  0  0
M  END
>  <Pose>
1

>  <Score>
-8.255

$$$$
