/Users/jonathanwahrer/Desktop/Msc/3_Semester/Drug_Design_Praktikum/waehrer_HTS_screening/HTS_experiment/out/docking_results/vina_output/3e7o/1957_docked.pdbqt
 OpenBabel03192216503D

 36 40  0  0  1  0  0  0  0  0999 V2000
  -37.9660  -66.6780   49.7850 C   0  0  2  0  0  3  0  0  0  0  0  0
  -38.3830  -65.3250   49.4420 N   0  0  0  0  0  0  0  0  0  0  0  0
  -37.3790  -64.7950   48.5410 C   0  0  1  0  0  0  0  0  0  0  0  0
  -36.9430  -66.0160   47.7840 C   0  0  2  0  0  3  0  0  0  0  0  0
  -36.9730  -67.1300   48.7820 C   0  0  1  0  0  3  0  0  0  0  0  0
  -35.5900  -67.2300   49.3240 C   0  0  0  0  0  0  0  0  0  0  0  0
  -35.2340  -67.8500   50.3540 O   0  0  0  0  0  0  0  0  0  0  0  0
  -34.7460  -66.4730   48.4280 N   0  0  0  0  0  0  0  0  0  0  0  0
  -35.5330  -65.9950   47.3570 C   0  0  0  0  0  0  0  0  0  0  0  0
  -35.1300  -65.6140   46.2310 O   0  0  0  0  0  0  0  0  0  0  0  0
  -37.9330  -63.7580   47.6370 C   0  0  0  0  0  0  0  0  0  0  0  0
  -37.2560  -62.5930   47.9100 C   0  0  0  0  0  0  0  0  0  0  0  0
  -37.5780  -61.4480   47.1950 C   0  0  0  0  0  3  0  0  0  0  0  0
  -38.5610  -61.5080   46.2360 C   0  0  0  0  0  3  0  0  0  0  0  0
  -39.2480  -62.6770   45.9530 C   0  0  0  0  0  3  0  0  0  0  0  0
  -38.9190  -63.8070   46.6710 C   0  0  0  0  0  3  0  0  0  0  0  0
  -36.2860  -62.7930   48.9540 N   0  0  0  0  0  0  0  0  0  0  0  0
  -36.3610  -64.1500   49.3510 C   0  0  0  0  0  0  0  0  0  0  0  0
  -35.6570  -64.6490   50.2440 O   0  0  0  0  0  0  0  0  0  0  0  0
  -38.4830  -64.7520   50.2870 H   0  0  0  0  0  0  0  0  0  0  0  0
  -35.6650  -62.0300   49.3100 H   0  0  0  0  0  0  0  0  0  0  0  0
  -39.2280  -67.4980   49.8270 C   0  0  1  0  0  3  0  0  0  0  0  0
  -39.6430  -67.8610   51.2120 C   0  0  0  0  0  0  0  0  0  0  0  0
  -40.5780  -67.0860   51.8950 C   0  0  0  0  0  3  0  0  0  0  0  0
  -40.9600  -67.3880   53.1760 C   0  0  0  0  0  3  0  0  0  0  0  0
  -40.4380  -68.4740   53.8510 C   0  0  0  0  0  0  0  0  0  0  0  0
  -40.9190  -68.8720   55.4920 Cl  0  0  0  0  0  0  0  0  0  0  0  0
  -39.5160  -69.2250   53.1570 C   0  0  0  0  0  3  0  0  0  0  0  0
  -39.1160  -68.9440   51.8730 C   0  0  0  0  0  3  0  0  0  0  0  0
  -40.2900  -66.9210   49.1800 O   0  0  0  0  0  0  0  0  0  0  0  0
  -40.3500  -65.9750   49.4700 H   0  0  0  0  0  0  0  0  0  0  0  0
  -33.3430  -66.2410   48.6150 C   0  0  0  0  0  2  0  0  0  0  0  0
  -32.8260  -64.9450   48.1160 C   0  0  0  0  0  2  0  0  0  0  0  0
  -32.6040  -63.8770   49.1290 C   0  0  0  0  0  2  0  0  0  0  0  0
  -33.1370  -62.6480   48.7590 O   0  0  0  0  0  0  0  0  0  0  0  0
  -33.1410  -62.5460   47.3520 C   0  0  0  0  0  1  0  0  0  0  0  0
  1 22  1  6  0  0  0
  2  1  1  0  0  0  0
  2 20  1  0  0  0  0
  3 11  1  6  0  0  0
  3 18  1  0  0  0  0
  3  2  1  0  0  0  0
  4  9  1  1  0  0  0
  4  3  1  0  0  0  0
  4  5  1  0  0  0  0
  5  6  1  1  0  0  0
  5  1  1  0  0  0  0
  6  7  2  0  0  0  0
  8 32  1  0  0  0  0
  8  6  1  0  0  0  0
  9  8  1  0  0  0  0
 10  9  2  0  0  0  0
 11 12  1  0  0  0  0
 12 17  1  0  0  0  0
 13 12  2  0  0  0  0
 14 13  1  0  0  0  0
 15 14  2  0  0  0  0
 15 16  1  0  0  0  0
 16 11  2  0  0  0  0
 17 21  1  0  0  0  0
 17 18  1  0  0  0  0
 18 19  2  0  0  0  0
 22 30  1  1  0  0  0
 22 23  1  0  0  0  0
 23 29  2  0  0  0  0
 23 24  1  0  0  0  0
 24 25  2  0  0  0  0
 25 26  1  0  0  0  0
 26 27  1  0  0  0  0
 28 26  2  0  0  0  0
 29 28  1  0  0  0  0
 30 31  1  0  0  0  0
 33 32  1  0  0  0  0
 33 34  1  0  0  0  0
 35 34  1  0  0  0  0
 36 35  1  0  0  0  0
M  END
>  <Pose>
1

>  <Score>
-7.775

$$$$
