/Users/jonathanwahrer/Desktop/Msc/3_Semester/Drug_Design_Praktikum/waehrer_HTS_screening/HTS_experiment/out/docking_results/vina_output/3e7o/1958_docked.pdbqt
 OpenBabel03192216503D

 28 31  0  0  1  0  0  0  0  0999 V2000
  -40.1570  -66.7250   51.7240 C   0  0  0  0  0  0  0  0  0  0  0  0
  -40.5060  -65.5490   51.3600 O   0  0  0  0  0  0  0  0  0  0  0  0
  -39.3410  -67.5370   50.9230 N   0  0  0  0  0  0  0  0  0  0  0  0
  -38.9480  -68.8510   51.3230 C   0  0  0  0  0  2  0  0  0  0  0  0
  -37.6480  -69.3170   50.7290 C   0  0  0  0  0  2  0  0  0  0  0  0
  -36.8080  -68.1520   50.3610 C   0  0  2  0  0  3  0  0  0  0  0  0
  -37.3760  -67.0130   49.8220 C   0  0  0  0  0  0  0  0  0  0  0  0
  -36.6260  -65.9590   49.4810 N   0  0  0  0  0  0  0  0  0  0  0  0
  -35.2850  -65.9360   49.6370 C   0  0  2  0  0  3  0  0  0  0  0  0
  -34.7240  -67.0510   50.1650 N   0  0  0  0  0  0  0  0  0  0  0  0
  -35.4350  -68.1330   50.5230 C   0  0  0  0  0  0  0  0  0  0  0  0
  -38.8770  -67.0430   49.6560 C   0  0  0  0  0  2  0  0  0  0  0  0
  -40.6650  -67.1920   53.0540 C   0  0  0  0  0  2  0  0  0  0  0  0
  -42.1240  -67.0250   53.1560 C   0  0  0  0  0  0  0  0  0  0  0  0
  -42.8770  -66.3310   52.2340 C   0  0  0  0  0  3  0  0  0  0  0  0
  -44.2420  -66.1900   52.3570 C   0  0  0  0  0  3  0  0  0  0  0  0
  -44.9070  -66.7560   53.4410 C   0  0  0  0  0  0  0  0  0  0  0  0
  -46.6400  -66.5850   53.6120 Cl  0  0  0  0  0  0  0  0  0  0  0  0
  -44.1380  -67.4480   54.3570 C   0  0  0  0  0  3  0  0  0  0  0  0
  -42.7740  -67.5880   54.2310 C   0  0  0  0  0  3  0  0  0  0  0  0
  -34.8280  -69.2590   51.0610 O   0  0  0  0  0  0  0  0  0  0  0  0
  -33.9950  -69.1980   51.6520 H   0  0  0  0  0  0  0  0  0  0  0  0
  -34.5420  -64.8030   49.2650 N   0  0  0  0  0  0  0  0  0  0  0  0
  -33.1550  -64.6930   49.6030 C   0  0  0  0  0  2  0  0  0  0  0  0
  -32.5450  -63.7020   48.6020 C   0  0  0  0  0  2  0  0  0  0  0  0
  -33.1140  -62.4590   48.7240 O   0  0  0  0  0  0  0  0  0  0  0  0
  -34.4800  -62.4240   48.7800 C   0  0  0  0  0  2  0  0  0  0  0  0
  -35.1700  -63.7390   48.5390 C   0  0  0  0  0  2  0  0  0  0  0  0
  1 13  1  0  0  0  0
  2  1  2  0  0  0  0
  3  4  1  0  0  0  0
  3  1  1  0  0  0  0
  5  4  1  0  0  0  0
  6 11  1  0  0  0  0
  6  5  1  6  0  0  0
  7  6  1  0  0  0  0
  8  9  1  0  0  0  0
  8  7  2  0  0  0  0
  9 23  1  1  0  0  0
  9 10  1  0  0  0  0
 10 11  2  0  0  0  0
 11 21  1  0  0  0  0
 12  7  1  0  0  0  0
 12  3  1  0  0  0  0
 13 14  1  0  0  0  0
 14 20  1  0  0  0  0
 15 16  1  0  0  0  0
 15 14  2  0  0  0  0
 16 17  2  0  0  0  0
 17 18  1  0  0  0  0
 17 19  1  0  0  0  0
 20 19  2  0  0  0  0
 21 22  1  0  0  0  0
 23 24  1  0  0  0  0
 25 26  1  0  0  0  0
 25 24  1  0  0  0  0
 26 27  1  0  0  0  0
 28 27  1  0  0  0  0
 28 23  1  0  0  0  0
M  END
>  <Pose>
1

>  <Score>
-8.716

$$$$
