/Users/jonathanwahrer/Desktop/Msc/3_Semester/Drug_Design_Praktikum/waehrer_HTS_screening/HTS_experiment/out/docking_results/vina_output/3e7o/1969_docked.pdbqt
 OpenBabel03192216513D

 26 29  0  0  0  0  0  0  0  0999 V2000
  -38.5510  -64.5160   48.8330 C   0  0  0  0  0  0  0  0  0  0  0  0
  -37.7100  -63.4490   49.1320 O   0  0  0  0  0  0  0  0  0  0  0  0
  -37.9130  -65.4440   48.0810 N   0  0  0  0  0  0  0  0  0  0  0  0
  -38.3140  -66.7370   47.6120 C   0  0  0  0  0  2  0  0  0  0  0  0
  -37.0600  -67.6040   47.3750 C   0  0  0  0  0  2  0  0  0  0  0  0
  -36.1130  -67.1380   48.3990 N   0  0  0  0  0  0  0  0  0  0  0  0
  -35.5210  -65.8500   48.2500 C   0  0  0  0  0  2  0  0  0  0  0  0
  -36.5670  -65.0210   47.5770 C   0  0  0  0  0  2  0  0  0  0  0  0
  -39.7830  -64.1280   49.4960 C   0  0  0  0  0  0  0  0  0  0  0  0
  -40.8130  -63.8020   50.0510 N   0  0  0  0  0  0  0  0  0  0  0  0
  -41.4980  -64.2550   50.9060 N   0  0  0  0  0  0  0  0  0  0  0  0
  -40.8980  -65.3660   51.2760 N   0  0  0  0  0  0  0  0  0  0  0  0
  -39.8370  -65.4680   50.5210 C   0  0  0  0  0  3  0  0  0  0  0  0
  -41.4540  -66.1980   52.3200 C   0  0  0  0  0  0  0  0  0  0  0  0
  -40.7510  -67.0850   53.0580 C   0  0  0  0  0  3  0  0  0  0  0  0
  -41.3590  -67.8420   54.0520 C   0  0  0  0  0  0  0  0  0  0  0  0
  -40.5270  -69.0080   55.0320 Cl  0  0  0  0  0  0  0  0  0  0  0  0
  -42.7600  -67.6890   54.3060 C   0  0  0  0  0  3  0  0  0  0  0  0
  -43.4470  -66.7940   53.5610 C   0  0  0  0  0  3  0  0  0  0  0  0
  -42.8000  -66.0840   52.6060 C   0  0  0  0  0  3  0  0  0  0  0  0
  -35.9060  -67.9040   49.5400 C   0  0  0  0  0  0  0  0  0  0  0  0
  -34.6870  -67.8610   50.2250 N   0  0  0  0  0  0  0  0  0  0  0  0
  -34.4000  -68.5060   51.3000 C   0  0  0  0  0  3  0  0  0  0  0  0
  -35.3300  -69.3480   51.9290 C   0  0  0  0  0  3  0  0  0  0  0  0
  -36.5420  -69.4030   51.2530 C   0  0  0  0  0  3  0  0  0  0  0  0
  -36.7650  -68.7390   50.1820 N   0  0  0  0  0  0  0  0  0  0  0  0
  1  2  2  0  0  0  0
  1  9  1  0  0  0  0
  3  1  1  0  0  0  0
  4  3  1  0  0  0  0
  5  4  1  0  0  0  0
  5  6  1  0  0  0  0
  6 21  1  0  0  0  0
  7  6  1  0  0  0  0
  8  3  1  0  0  0  0
  8  7  1  0  0  0  0
  9 10  1  0  0  0  0
  9 13  2  0  0  0  0
 10 11  2  0  0  0  0
 11 12  1  0  0  0  0
 12 14  1  0  0  0  0
 13 12  1  0  0  0  0
 14 20  2  0  0  0  0
 14 15  1  0  0  0  0
 15 16  2  0  0  0  0
 16 18  1  0  0  0  0
 16 17  1  0  0  0  0
 19 18  2  0  0  0  0
 20 19  1  0  0  0  0
 21 26  1  0  0  0  0
 21 22  2  0  0  0  0
 22 23  1  0  0  0  0
 23 24  2  0  0  0  0
 25 24  1  0  0  0  0
 26 25  2  0  0  0  0
M  END
>  <Pose>
1

>  <Score>
-8.425

$$$$
