/Users/jonathanwahrer/Desktop/Msc/3_Semester/Drug_Design_Praktikum/waehrer_HTS_screening/HTS_experiment/out/docking_results/vina_output/3e7o/1971_docked.pdbqt
 OpenBabel03192216513D

 22 25  0  0  1  0  0  0  0  0999 V2000
  -41.8160  -67.0220   53.6440 N   0  0  0  0  0  0  0  0  0  0  0  0
  -43.0720  -67.1190   54.3410 C   0  0  0  0  0  0  0  0  0  0  0  0
  -43.4990  -68.1570   54.8980 O   0  0  0  0  0  0  0  0  0  0  0  0
  -43.7600  -65.8310   54.2960 C   0  0  2  0  0  3  0  0  0  0  0  0
  -44.9520  -65.7760   53.3980 C   0  0  1  0  0  0  0  0  0  0  0  0
  -44.9680  -64.3920   53.0900 O   0  0  0  0  0  0  0  0  0  0  0  0
  -43.6940  -64.3510   52.4670 C   0  0  1  0  0  3  0  0  0  0  0  0
  -42.8100  -64.8580   53.5790 C   0  0  2  0  0  3  0  0  0  0  0  0
  -41.7610  -65.7310   53.0480 C   0  0  0  0  0  0  0  0  0  0  0  0
  -40.9130  -65.4040   52.1820 O   0  0  0  0  0  0  0  0  0  0  0  0
  -43.8420  -65.4390   51.4770 C   0  0  0  0  0  2  0  0  0  0  0  0
  -44.6750  -66.3330   52.0560 C   0  0  0  0  0  2  0  0  0  0  0  0
  -40.7910  -68.0030   53.5360 C   0  0  0  0  0  0  0  0  0  0  0  0
  -40.0420  -68.1660   52.3820 C   0  0  0  0  0  3  0  0  0  0  0  0
  -39.0490  -69.1170   52.2800 C   0  0  0  0  0  0  0  0  0  0  0  0
  -38.1130  -69.3110   50.8140 Cl  0  0  0  0  0  0  0  0  0  0  0  0
  -38.7570  -69.9530   53.3380 C   0  0  0  0  0  3  0  0  0  0  0  0
  -39.4970  -69.7970   54.4930 C   0  0  0  0  0  3  0  0  0  0  0  0
  -40.4980  -68.8400   54.5940 C   0  0  0  0  0  3  0  0  0  0  0  0
  -46.2320  -66.2230   54.0120 C   0  0  0  0  0  2  0  0  0  0  0  0
  -46.3220  -67.6070   53.9330 O   0  0  0  0  0  0  0  0  0  0  0  0
  -46.8200  -67.9620   54.7050 H   0  0  0  0  0  0  0  0  0  0  0  0
  1  2  1  0  0  0  0
  2  3  2  0  0  0  0
  4  2  1  6  0  0  0
  5 20  1  1  0  0  0
  5  4  1  0  0  0  0
  6  5  1  0  0  0  0
  7 11  1  6  0  0  0
  7  6  1  0  0  0  0
  7  8  1  0  0  0  0
  8  9  1  6  0  0  0
  8  4  1  0  0  0  0
  9  1  1  0  0  0  0
 10  9  2  0  0  0  0
 11 12  1  0  0  0  0
 12  5  1  0  0  0  0
 13  1  1  0  0  0  0
 13 19  1  0  0  0  0
 14 13  2  0  0  0  0
 15 14  1  0  0  0  0
 15 17  2  0  0  0  0
 16 15  1  0  0  0  0
 17 18  1  0  0  0  0
 18 19  2  0  0  0  0
 21 20  1  0  0  0  0
 21 22  1  0  0  0  0
M  END
>  <Pose>
1

>  <Score>
-7.957

$$$$
