/Users/jonathanwahrer/Desktop/Msc/3_Semester/Drug_Design_Praktikum/waehrer_HTS_screening/HTS_experiment/out/docking_results/vina_output/3e7o/1974_docked.pdbqt
 OpenBabel03192216513D

 26 29  0  0  0  0  0  0  0  0999 V2000
  -37.6380  -70.0380   51.8060 F   0  0  0  0  0  0  0  0  0  0  0  0
  -38.6250  -69.5410   52.5910 C   0  0  0  0  0  0  0  0  0  0  0  0
  -39.3620  -68.4640   52.1200 C   0  0  0  0  0  0  0  0  0  0  0  0
  -40.3790  -67.9060   52.8620 C   0  0  0  0  0  0  0  0  0  0  0  0
  -40.6450  -68.4570   54.1040 C   0  0  0  0  0  0  0  0  0  0  0  0
  -39.9150  -69.5250   54.5720 C   0  0  0  0  0  3  0  0  0  0  0  0
  -38.9000  -70.0780   53.8260 C   0  0  0  0  0  3  0  0  0  0  0  0
  -41.9400  -67.7500   55.0540 Cl  0  0  0  0  0  0  0  0  0  0  0  0
  -40.9970  -66.8000   52.1610 C   0  0  0  0  0  0  0  0  0  0  0  0
  -41.9430  -66.0700   52.5350 O   0  0  0  0  0  0  0  0  0  0  0  0
  -40.2820  -66.6970   50.8950 C   0  0  0  0  0  0  0  0  0  0  0  0
  -40.5200  -65.8430   49.9840 O   0  0  0  0  0  0  0  0  0  0  0  0
  -39.2930  -67.7150   50.8890 N   0  0  0  0  0  0  0  0  0  0  0  0
  -38.3400  -67.9950   49.8350 C   0  0  0  0  0  2  0  0  0  0  0  0
  -37.2830  -67.0110   49.7400 N   0  0  0  0  0  0  0  0  0  0  0  0
  -36.0330  -67.5640   50.1350 C   0  0  0  0  0  2  0  0  0  0  0  0
  -34.8750  -67.2230   49.2650 C   0  0  0  0  0  2  0  0  0  0  0  0
  -35.1920  -67.1980   47.8610 N   0  0  0  0  0  0  0  0  0  0  0  0
  -36.5800  -67.1140   47.4700 C   0  0  0  0  0  2  0  0  0  0  0  0
  -37.2790  -66.2780   48.5200 C   0  0  0  0  0  2  0  0  0  0  0  0
  -34.1980  -67.2520   46.8580 C   0  0  0  0  0  0  0  0  0  0  0  0
  -32.9610  -67.7030   47.1230 N   0  0  0  0  0  0  0  0  0  0  0  0
  -31.9960  -67.7640   46.1850 C   0  0  0  0  0  3  0  0  0  0  0  0
  -32.2530  -67.3550   44.8900 C   0  0  0  0  0  3  0  0  0  0  0  0
  -33.4880  -66.9040   44.6190 N   0  0  0  0  0  0  0  0  0  0  0  0
  -34.4530  -66.8420   45.5560 C   0  0  0  0  0  3  0  0  0  0  0  0
  1  2  1  0  0  0  0
  2  7  1  0  0  0  0
  3  2  2  0  0  0  0
  3  4  1  0  0  0  0
  4  5  2  0  0  0  0
  5  6  1  0  0  0  0
  5  8  1  0  0  0  0
  7  6  2  0  0  0  0
  9 10  2  0  0  0  0
  9  4  1  0  0  0  0
 11  9  1  0  0  0  0
 12 11  2  0  0  0  0
 13 11  1  0  0  0  0
 13  3  1  0  0  0  0
 14 13  1  0  0  0  0
 15 14  1  0  0  0  0
 15 16  1  0  0  0  0
 17 16  1  0  0  0  0
 18 17  1  0  0  0  0
 19 18  1  0  0  0  0
 19 20  1  0  0  0  0
 20 15  1  0  0  0  0
 21 22  1  0  0  0  0
 21 18  1  0  0  0  0
 23 22  2  0  0  0  0
 24 23  1  0  0  0  0
 25 24  2  0  0  0  0
 25 26  1  0  0  0  0
 26 21  2  0  0  0  0
M  END
>  <Pose>
1

>  <Score>
-7.664

$$$$
