/Users/jonathanwahrer/Desktop/Msc/3_Semester/Drug_Design_Praktikum/waehrer_HTS_screening/HTS_experiment/out/docking_results/vina_output/3e7o/1991_docked.pdbqt
 OpenBabel03192216523D

 31 34  0  0  1  0  0  0  0  0999 V2000
  -41.1030  -69.0240   53.0820 Cl  0  0  0  0  0  0  0  0  0  0  0  0
  -40.5750  -67.6610   52.1240 C   0  0  0  0  0  0  0  0  0  0  0  0
  -39.7180  -67.8330   51.0600 C   0  0  0  0  0  3  0  0  0  0  0  0
  -39.3130  -66.7530   50.3200 C   0  0  0  0  0  0  0  0  0  0  0  0
  -39.7780  -65.4740   50.6510 C   0  0  0  0  0  0  0  0  0  0  0  0
  -40.6410  -65.2920   51.7200 C   0  0  0  0  0  3  0  0  0  0  0  0
  -41.0200  -66.3950   52.4340 C   0  0  0  0  0  3  0  0  0  0  0  0
  -39.4650  -64.2870   50.0060 O   0  0  0  0  0  0  0  0  0  0  0  0
  -39.0250  -64.1160   48.6800 C   0  0  0  0  0  0  0  0  0  0  0  0
  -37.6820  -64.7270   48.4410 C   0  0  0  0  0  2  0  0  0  0  0  0
  -37.4680  -66.0000   49.0610 N   0  0  0  0  0  0  0  0  0  0  0  0
  -38.3910  -67.0960   49.2080 C   0  0  0  0  0  2  0  0  0  0  0  0
  -36.1740  -66.2580   49.6280 C   0  0  0  0  0  0  0  0  0  0  0  0
  -36.0030  -67.3810   50.1640 O   0  0  0  0  0  0  0  0  0  0  0  0
  -40.0850  -64.6360   47.7220 C   0  0  0  0  0  2  0  0  0  0  0  0
  -41.0340  -63.5180   47.3310 C   0  0  0  0  0  2  0  0  0  0  0  0
  -40.4170  -62.5400   46.5760 O   0  0  0  0  0  0  0  0  0  0  0  0
  -39.0620  -62.4610   46.8770 C   0  0  0  0  0  2  0  0  0  0  0  0
  -38.8920  -62.6210   48.3760 C   0  0  0  0  0  2  0  0  0  0  0  0
  -35.1040  -65.2630   49.5860 C   0  0  0  0  0  2  0  0  0  0  0  0
  -34.0280  -65.4890   48.6920 N   0  0  0  0  0  0  0  0  0  0  0  0
  -32.8760  -64.6360   48.9970 C   0  0  0  0  0  2  0  0  0  0  0  0
  -33.2960  -63.2210   48.8620 C   0  0  0  0  0  2  0  0  0  0  0  0
  -34.0730  -62.8680   47.6380 C   0  0  1  0  0  3  0  0  0  0  0  0
  -34.6090  -63.9850   46.8320 C   0  0  0  0  0  2  0  0  0  0  0  0
  -34.3280  -65.3660   47.2870 C   0  0  0  0  0  2  0  0  0  0  0  0
  -35.1300  -61.8700   47.9310 C   0  0  0  0  0  0  0  0  0  0  0  0
  -35.5720  -61.7690   49.0930 O   0  0  0  0  0  0  0  0  0  0  0  0
  -35.6290  -61.0450   46.8990 N   0  0  0  0  0  0  0  0  0  0  0  0
  -35.3060  -60.0330   46.9230 H   0  0  0  0  0  0  0  0  0  0  0  0
  -36.2620  -61.3280   46.1420 H   0  0  0  0  0  0  0  0  0  0  0  0
  2  7  1  0  0  0  0
  2  1  1  0  0  0  0
  3  2  2  0  0  0  0
  4  5  2  0  0  0  0
  4  3  1  0  0  0  0
  5  6  1  0  0  0  0
  6  7  2  0  0  0  0
  8  5  1  0  0  0  0
  9  8  1  0  0  0  0
 10  9  1  0  0  0  0
 10 11  1  0  0  0  0
 11 12  1  0  0  0  0
 11 13  1  0  0  0  0
 12  4  1  0  0  0  0
 13 14  2  0  0  0  0
 15  9  1  0  0  0  0
 16 15  1  0  0  0  0
 17 18  1  0  0  0  0
 17 16  1  0  0  0  0
 18 19  1  0  0  0  0
 19  9  1  0  0  0  0
 20 13  1  0  0  0  0
 21 22  1  0  0  0  0
 21 20  1  0  0  0  0
 23 22  1  0  0  0  0
 24 27  1  1  0  0  0
 24 23  1  0  0  0  0
 25 26  1  0  0  0  0
 25 24  1  0  0  0  0
 26 21  1  0  0  0  0
 27 28  2  0  0  0  0
 29 30  1  0  0  0  0
 29 27  1  0  0  0  0
 31 29  1  0  0  0  0
M  END
>  <Pose>
1

>  <Score>
-7.632

$$$$
