/Users/jonathanwahrer/Desktop/Msc/3_Semester/Drug_Design_Praktikum/waehrer_HTS_screening/HTS_experiment/out/docking_results/vina_output/3e7o/2003_docked.pdbqt
 OpenBabel03192216523D

 28 31  0  0  1  0  0  0  0  0999 V2000
  -47.8150  -66.3970   52.5720 N   0  0  0  0  0  0  0  0  0  0  0  0
  -47.2040  -67.2060   53.5820 C   0  0  0  0  0  2  0  0  0  0  0  0
  -45.7110  -67.0290   53.6650 C   0  0  0  0  0  2  0  0  0  0  0  0
  -45.3030  -65.6650   53.4160 N   0  0  0  0  0  0  0  0  0  0  0  0
  -46.2280  -64.5950   53.1540 C   0  0  0  0  0  3  0  0  0  0  0  0
  -47.5650  -65.0030   52.6640 C   0  0  0  0  0  3  0  0  0  0  0  0
  -43.9140  -65.3670   53.4330 C   0  0  0  0  0  0  0  0  0  0  0  0
  -43.4900  -64.1820   53.2210 O   0  0  0  0  0  0  0  0  0  0  0  0
  -42.9240  -66.4120   53.6940 C   0  0  1  0  0  3  0  0  0  0  0  0
  -42.7490  -66.9960   54.9330 C   0  0  0  0  0  3  0  0  0  0  0  0
  -41.8180  -67.9530   55.0990 N   0  0  0  0  0  0  0  0  0  0  0  0
  -41.0230  -68.3930   54.1060 C   0  0  1  0  0  3  0  0  0  0  0  0
  -41.1820  -67.8340   52.8920 N   0  0  0  0  0  0  0  0  0  0  0  0
  -40.0730  -69.3840   54.3160 C   0  0  0  0  0  3  0  0  0  0  0  0
  -40.3950  -68.2620   51.8850 C   0  0  0  0  0  3  0  0  0  0  0  0
  -42.1020  -66.8730   52.6850 C   0  0  0  0  0  0  0  0  0  0  0  0
  -39.4410  -69.2440   52.0620 C   0  0  0  0  0  3  0  0  0  0  0  0
  -39.2540  -69.8370   53.2960 C   0  0  0  0  0  3  0  0  0  0  0  0
  -42.2500  -66.3520   51.5530 O   0  0  0  0  0  0  0  0  0  0  0  0
  -49.4080  -66.8260   52.1920 S   0  0  0  0  0  0  0  0  0  0  0  0
  -50.3530  -65.7390   52.5370 O   0  0  0  0  0  0  0  0  0  0  0  0
  -49.4910  -67.1250   50.7120 O   0  0  0  0  0  0  0  0  0  0  0  0
  -49.8300  -68.2970   53.0850 C   0  0  0  0  0  0  0  0  0  0  0  0
  -50.4190  -68.4670   54.6760 S   0  0  0  0  0  0  0  0  0  0  0  0
  -50.5520  -70.1660   54.7340 C   0  0  0  0  0  0  0  0  0  0  0  0
  -50.1270  -70.5520   53.4930 C   0  0  0  0  0  3  0  0  0  0  0  0
  -51.1030  -71.2150   56.0560 Cl  0  0  0  0  0  0  0  0  0  0  0  0
  -49.7540  -69.5920   52.6420 C   0  0  0  0  0  3  0  0  0  0  0  0
  1  6  1  0  0  0  0
  1  2  1  0  0  0  0
  2  3  1  0  0  0  0
  4  7  1  0  0  0  0
  4  3  1  0  0  0  0
  5  4  1  0  0  0  0
  6  5  2  0  0  0  0
  8  7  2  0  0  0  0
  9  7  1  6  0  0  0
  9 10  1  0  0  0  0
 10 11  2  0  0  0  0
 12 14  1  1  0  0  0
 12 11  1  0  0  0  0
 13 12  1  0  0  0  0
 15 17  2  0  0  0  0
 15 13  1  0  0  0  0
 16 13  1  0  0  0  0
 16  9  1  0  0  0  0
 17 18  1  0  0  0  0
 18 14  2  0  0  0  0
 19 16  2  0  0  0  0
 20 21  2  0  0  0  0
 20  1  1  0  0  0  0
 20 23  1  0  0  0  0
 22 20  2  0  0  0  0
 23 24  1  0  0  0  0
 24 25  1  0  0  0  0
 25 27  1  0  0  0  0
 26 25  2  0  0  0  0
 28 23  2  0  0  0  0
 28 26  1  0  0  0  0
M  END
>  <Pose>
1

>  <Score>
-8.462

$$$$
