/Users/jonathanwahrer/Desktop/Msc/3_Semester/Drug_Design_Praktikum/waehrer_HTS_screening/HTS_experiment/out/docking_results/vina_output/3e7o/2004_docked.pdbqt
 OpenBabel03192216523D

 29 32  0  0  1  0  0  0  0  0999 V2000
  -39.1240  -65.9910   48.2220 S   0  0  0  0  0  0  0  0  0  0  0  0
  -39.0200  -67.1130   47.2000 O   0  0  0  0  0  0  0  0  0  0  0  0
  -40.2210  -65.0860   47.6630 O   0  0  0  0  0  0  0  0  0  0  0  0
  -37.6970  -65.1230   48.3290 N   0  0  0  0  0  0  0  0  0  0  0  0
  -37.7640  -63.7290   48.2690 C   0  0  0  0  0  2  0  0  0  0  0  0
  -36.4390  -63.0510   48.6480 C   0  0  0  0  0  2  0  0  0  0  0  0
  -35.3130  -63.7790   48.1440 N   0  0  0  0  0  0  0  0  0  0  0  0
  -35.3110  -65.2180   48.2910 C   0  0  0  0  0  2  0  0  0  0  0  0
  -34.2500  -63.1060   47.5300 C   0  0  0  0  0  0  0  0  0  0  0  0
  -36.5820  -65.7200   47.6340 C   0  0  0  0  0  2  0  0  0  0  0  0
  -34.2740  -61.8540   47.4130 O   0  0  0  0  0  0  0  0  0  0  0  0
  -33.0520  -63.8230   46.9890 C   0  0  0  0  0  3  0  0  0  0  0  0
  -32.2950  -64.6090   48.0330 C   0  0  0  0  0  2  0  0  0  0  0  0
  -31.4440  -63.3620   48.2600 C   0  0  0  0  0  2  0  0  0  0  0  0
  -31.8630  -62.9050   46.8600 C   0  0  0  0  0  2  0  0  0  0  0  0
  -39.7460  -66.6670   49.7110 C   0  0  0  0  0  0  0  0  0  0  0  0
  -41.0340  -66.2890   50.1400 C   0  0  0  0  0  3  0  0  0  0  0  0
  -41.5550  -66.7400   51.3310 C   0  0  0  0  0  0  0  0  0  0  0  0
  -40.8600  -67.5790   52.1720 C   0  0  0  0  0  0  0  0  0  0  0  0
  -42.8340  -66.3510   51.7320 O   0  0  0  0  0  0  0  0  0  0  0  0
  -39.6050  -67.9520   51.7580 C   0  0  0  0  0  3  0  0  0  0  0  0
  -41.4510  -68.0040   53.3860 N   0  0  0  0  0  0  0  0  0  0  0  0
  -39.0570  -67.5040   50.5470 C   0  0  0  0  0  0  0  0  0  0  0  0
  -37.4840  -68.0860   50.0570 Cl  0  0  0  0  0  0  0  0  0  0  0  0
  -42.7540  -67.5950   53.7820 C   0  0  0  0  0  0  0  0  0  0  0  0
  -40.9180  -68.6420   54.0210 H   0  0  0  0  0  0  0  0  0  0  0  0
  -43.4240  -68.1250   54.6890 O   0  0  0  0  0  0  0  0  0  0  0  0
  -43.3330  -66.4460   53.0370 C   0  0  1  0  0  3  0  0  0  0  0  0
  -43.0440  -65.1450   53.7510 C   0  0  0  0  0  1  0  0  0  0  0  0
  1  4  1  0  0  0  0
  1 16  1  0  0  0  0
  2  1  2  0  0  0  0
  3  1  2  0  0  0  0
  5  4  1  0  0  0  0
  5  6  1  0  0  0  0
  7  8  1  0  0  0  0
  7  6  1  0  0  0  0
  9  7  1  0  0  0  0
 10  8  1  0  0  0  0
 10  4  1  0  0  0  0
 11  9  2  0  0  0  0
 12  9  1  0  0  0  0
 12 13  1  0  0  0  0
 13 14  1  0  0  0  0
 15 12  1  0  0  0  0
 15 14  1  0  0  0  0
 16 17  2  0  0  0  0
 16 23  1  0  0  0  0
 17 18  1  0  0  0  0
 18 20  1  0  0  0  0
 18 19  2  0  0  0  0
 19 22  1  0  0  0  0
 20 28  1  0  0  0  0
 21 19  1  0  0  0  0
 22 25  1  0  0  0  0
 22 26  1  0  0  0  0
 23 21  2  0  0  0  0
 24 23  1  0  0  0  0
 25 27  2  0  0  0  0
 28 29  1  1  0  0  0
 28 25  1  0  0  0  0
M  END
>  <Pose>
1

>  <Score>
-7.840

$$$$
