/Users/jonathanwahrer/Desktop/Msc/3_Semester/Drug_Design_Praktikum/waehrer_HTS_screening/HTS_experiment/out/docking_results/vina_output/3e7o/2012_docked.pdbqt
 OpenBabel03192216523D

 25 28  0  0  1  0  0  0  0  0999 V2000
  -41.6830  -66.8260   52.9590 N   0  0  0  0  0  0  0  0  0  0  0  0
  -41.5690  -65.5360   52.3690 C   0  0  0  0  0  0  0  0  0  0  0  0
  -40.6860  -65.2080   51.5590 O   0  0  0  0  0  0  0  0  0  0  0  0
  -42.6520  -64.6740   52.8740 C   0  0  1  0  0  3  0  0  0  0  0  0
  -43.2020  -63.7720   52.0210 O   0  0  0  0  0  0  0  0  0  0  0  0
  -44.5310  -63.7700   52.4030 N   0  0  0  0  0  0  0  0  0  0  0  0
  -44.9040  -65.1130   52.7200 C   0  0  0  0  0  0  0  0  0  0  0  0
  -43.7450  -65.6940   53.0100 C   0  0  0  0  0  0  0  0  0  0  0  0
  -43.0710  -66.9320   53.3720 C   0  0  0  0  0  0  0  0  0  0  0  0
  -43.6420  -67.8950   53.9430 O   0  0  0  0  0  0  0  0  0  0  0  0
  -45.1150  -62.9190   52.4460 H   0  0  0  0  0  0  0  0  0  0  0  0
  -40.7260  -67.8620   53.1380 C   0  0  0  0  0  0  0  0  0  0  0  0
  -39.9610  -68.3410   52.1000 C   0  0  0  0  0  3  0  0  0  0  0  0
  -39.0460  -69.3550   52.3700 C   0  0  0  0  0  0  0  0  0  0  0  0
  -38.0420  -70.0150   51.0830 Cl  0  0  0  0  0  0  0  0  0  0  0  0
  -38.9200  -69.8590   53.6480 C   0  0  0  0  0  3  0  0  0  0  0  0
  -39.6890  -69.3730   54.6920 C   0  0  0  0  0  3  0  0  0  0  0  0
  -40.5860  -68.3810   54.4350 C   0  0  0  0  0  3  0  0  0  0  0  0
  -46.2280  -65.7000   52.7710 C   0  0  0  0  0  0  0  0  0  0  0  0
  -46.7090  -66.3300   53.9230 C   0  0  0  0  0  3  0  0  0  0  0  0
  -47.9470  -66.7950   53.6990 N   0  0  0  0  0  0  0  0  0  0  0  0
  -48.2800  -66.4870   52.4440 N   0  0  0  0  0  0  0  0  0  0  0  0
  -48.8350  -67.5170   54.6020 C   0  0  0  0  0  1  0  0  0  0  0  0
  -47.2480  -65.8250   51.8730 C   0  0  0  0  0  0  0  0  0  0  0  0
  -47.2120  -65.3230   50.4760 C   0  0  0  0  0  1  0  0  0  0  0  0
  1 12  1  0  0  0  0
  1  9  1  0  0  0  0
  2  4  1  0  0  0  0
  2  1  1  0  0  0  0
  3  2  2  0  0  0  0
  4  5  1  6  0  0  0
  4  8  1  0  0  0  0
  5  6  1  0  0  0  0
  6 11  1  0  0  0  0
  6  7  1  0  0  0  0
  7 19  1  0  0  0  0
  7  8  2  0  0  0  0
  8  9  1  0  0  0  0
  9 10  2  0  0  0  0
 12 18  1  0  0  0  0
 13 14  1  0  0  0  0
 13 12  2  0  0  0  0
 14 16  2  0  0  0  0
 15 14  1  0  0  0  0
 16 17  1  0  0  0  0
 18 17  2  0  0  0  0
 19 20  2  0  0  0  0
 21 20  1  0  0  0  0
 21 23  1  0  0  0  0
 22 21  1  0  0  0  0
 24 22  2  0  0  0  0
 24 19  1  0  0  0  0
 25 24  1  0  0  0  0
M  END
>  <Pose>
1

>  <Score>
-8.794

$$$$
