/Users/jonathanwahrer/Desktop/Msc/3_Semester/Drug_Design_Praktikum/waehrer_HTS_screening/HTS_experiment/out/docking_results/vina_output/3e7o/2017_docked.pdbqt
 OpenBabel03192216523D

 24 27  0  0  0  0  0  0  0  0999 V2000
  -48.6380  -64.9250   52.7830 Cl  0  0  0  0  0  0  0  0  0  0  0  0
  -47.0360  -65.6080   53.0000 C   0  0  0  0  0  0  0  0  0  0  0  0
  -45.8840  -64.8860   52.7520 C   0  0  0  0  0  2  0  0  0  0  0  0
  -44.6490  -65.4250   52.9230 N   0  0  0  0  0  0  0  0  0  0  0  0
  -44.4630  -66.6880   53.3430 C   0  0  0  0  0  0  0  0  0  0  0  0
  -43.2430  -67.2300   53.5160 N   0  0  0  0  0  0  0  0  0  0  0  0
  -42.1170  -66.5350   53.2760 C   0  0  0  0  0  0  0  0  0  0  0  0
  -42.3000  -65.2220   52.8400 C   0  0  0  0  0  2  0  0  0  0  0  0
  -43.5540  -64.6770   52.6660 C   0  0  0  0  0  0  0  0  0  0  0  0
  -43.7150  -63.4790   52.2680 O   0  0  0  0  0  0  0  0  0  0  0  0
  -45.6040  -67.4360   53.6010 C   0  0  0  0  0  3  0  0  0  0  0  0
  -46.8680  -66.9070   53.4330 C   0  0  0  0  0  3  0  0  0  0  0  0
  -40.7500  -67.0900   53.4520 C   0  0  0  0  0  2  0  0  0  0  0  0
  -40.6090  -68.2490   52.6510 N   0  0  0  0  0  0  0  0  0  0  0  0
  -39.9610  -69.3710   53.2200 C   0  0  0  0  0  2  0  0  0  0  0  0
  -39.2400  -70.2560   52.2150 C   0  0  0  0  0  2  0  0  0  0  0  0
  -38.4090  -69.3400   51.3890 C   0  0  0  0  0  0  0  0  0  0  0  0
  -39.0520  -68.2210   50.9020 C   0  0  0  0  0  0  0  0  0  0  0  0
  -37.0840  -69.6160   51.1440 C   0  0  0  0  0  3  0  0  0  0  0  0
  -38.3420  -67.3650   50.1520 N   0  0  0  0  0  0  0  0  0  0  0  0
  -40.4840  -68.0530   51.2470 C   0  0  0  0  0  2  0  0  0  0  0  0
  -37.0210  -67.6060   49.8860 C   0  0  0  0  0  0  0  0  0  0  0  0
  -36.4240  -68.7150   50.3820 N   0  0  0  0  0  0  0  0  0  0  0  0
  -36.2250  -66.6640   49.0570 C   0  0  0  0  0  1  0  0  0  0  0  0
  1  2  1  0  0  0  0
  2 12  2  0  0  0  0
  3  4  1  0  0  0  0
  3  2  1  0  0  0  0
  4  5  1  0  0  0  0
  5  6  1  0  0  0  0
  5 11  2  0  0  0  0
  7 13  1  0  0  0  0
  7  6  2  0  0  0  0
  8  7  1  0  0  0  0
  9  8  1  0  0  0  0
  9  4  1  0  0  0  0
 10  9  2  0  0  0  0
 12 11  1  0  0  0  0
 14 15  1  0  0  0  0
 14 13  1  0  0  0  0
 16 15  1  0  0  0  0
 17 16  1  0  0  0  0
 18 21  1  0  0  0  0
 18 17  2  0  0  0  0
 19 17  1  0  0  0  0
 20 18  1  0  0  0  0
 21 14  1  0  0  0  0
 22 20  2  0  0  0  0
 22 23  1  0  0  0  0
 23 19  2  0  0  0  0
 24 22  1  0  0  0  0
M  END
>  <Pose>
1

>  <Score>
-8.140

$$$$
