/Users/jonathanwahrer/Desktop/Msc/3_Semester/Drug_Design_Praktikum/waehrer_HTS_screening/HTS_experiment/out/docking_results/vina_output/3e7o/2020_docked.pdbqt
 OpenBabel03192216523D

 22 24  0  0  1  0  0  0  0  0999 V2000
  -42.6880  -66.4090   51.2030 C   0  0  2  0  0  3  0  0  0  0  0  0
  -42.4920  -64.8950   50.9120 C   0  0  2  0  0  3  0  0  0  0  0  0
  -41.3700  -64.6340   51.9360 C   0  0  0  0  0  0  0  0  0  0  0  0
  -40.3390  -64.0410   51.6760 O   0  0  0  0  0  0  0  0  0  0  0  0
  -41.7200  -65.1880   53.2250 N   0  0  0  0  0  0  0  0  0  0  0  0
  -43.1630  -65.4400   53.3970 C   0  0  1  0  0  0  0  0  0  0  0  0
  -43.7800  -64.2030   52.8990 N   0  0  0  0  0  0  0  0  0  0  0  0
  -43.5960  -64.0590   51.4760 C   0  0  0  0  0  0  0  0  0  0  0  0
  -44.2860  -63.3060   50.7650 O   0  0  0  0  0  0  0  0  0  0  0  0
  -43.5410  -66.5230   52.3500 C   0  0  0  0  0  2  0  0  0  0  0  0
  -43.5860  -65.8120   54.7490 C   0  0  0  0  0  1  0  0  0  0  0  0
  -41.0380  -65.4100   53.9550 H   0  0  0  0  0  0  0  0  0  0  0  0
  -44.2720  -63.5350   53.5030 H   0  0  0  0  0  0  0  0  0  0  0  0
  -41.3230  -66.9220   51.1680 C   0  0  0  0  0  0  0  0  0  0  0  0
  -40.5350  -66.5480   50.0720 C   0  0  0  0  0  3  0  0  0  0  0  0
  -39.2460  -67.0570   49.9000 C   0  0  0  0  0  0  0  0  0  0  0  0
  -38.2100  -66.5360   48.3920 Br  0  0  0  0  0  0  0  0  0  0  0  0
  -38.7080  -67.9310   50.7890 C   0  0  0  0  0  3  0  0  0  0  0  0
  -39.4640  -68.3060   51.8640 C   0  0  0  0  0  3  0  0  0  0  0  0
  -40.7430  -67.8130   52.0530 C   0  0  0  0  0  0  0  0  0  0  0  0
  -41.5190  -68.1590   53.1220 O   0  0  0  0  0  0  0  0  0  0  0  0
  -40.9180  -68.5430   54.3290 C   0  0  0  0  0  1  0  0  0  0  0  0
  1 14  1  1  0  0  0
  1 10  1  0  0  0  0
  2  1  1  0  0  0  0
  2  8  1  1  0  0  0
  2  3  1  0  0  0  0
  3  5  1  0  0  0  0
  4  3  2  0  0  0  0
  5  6  1  0  0  0  0
  5 12  1  0  0  0  0
  6 11  1  1  0  0  0
  7  6  1  0  0  0  0
  7 13  1  0  0  0  0
  8  7  1  0  0  0  0
  9  8  2  0  0  0  0
 10  6  1  0  0  0  0
 14 20  1  0  0  0  0
 15 14  2  0  0  0  0
 16 15  1  0  0  0  0
 16 18  2  0  0  0  0
 17 16  1  0  0  0  0
 18 19  1  0  0  0  0
 19 20  2  0  0  0  0
 20 21  1  0  0  0  0
 21 22  1  0  0  0  0
M  END
>  <Pose>
1

>  <Score>
-6.772

$$$$
