/Users/jonathanwahrer/Desktop/Msc/3_Semester/Drug_Design_Praktikum/waehrer_HTS_screening/HTS_experiment/out/docking_results/vina_output/3e7o/2028_docked.pdbqt
 OpenBabel03192216533D

 31 34  0  0  1  0  0  0  0  0999 V2000
  -42.4570  -66.5570   51.5380 Cl  0  0  0  0  0  0  0  0  0  0  0  0
  -40.8460  -67.2390   51.3230 C   0  0  0  0  0  0  0  0  0  0  0  0
  -40.0600  -66.7560   50.2610 C   0  0  0  0  0  0  0  0  0  0  0  0
  -38.8120  -67.2810   50.1010 C   0  0  0  0  0  0  0  0  0  0  0  0
  -38.3190  -68.2670   50.9440 C   0  0  0  0  0  3  0  0  0  0  0  0
  -39.1120  -68.7220   51.9720 C   0  0  0  0  0  0  0  0  0  0  0  0
  -40.3760  -68.2140   52.1730 C   0  0  0  0  0  3  0  0  0  0  0  0
  -38.5520  -69.7910   52.8700 C   0  0  0  0  0  1  0  0  0  0  0  0
  -38.1510  -66.5160   49.0000 C   0  0  2  0  0  0  0  0  0  0  0  0
  -37.3230  -67.2780   48.1530 N   0  0  0  0  0  0  0  0  0  0  0  0
  -36.0130  -67.2720   48.7390 C   0  0  2  0  0  3  0  0  0  0  0  0
  -35.9750  -66.2870   49.8350 C   0  0  2  0  0  3  0  0  0  0  0  0
  -37.2370  -65.4680   49.5540 C   0  0  1  0  0  3  0  0  0  0  0  0
  -36.7420  -64.5340   48.5590 C   0  0  0  0  0  0  0  0  0  0  0  0
  -37.2390  -64.0350   47.5250 O   0  0  0  0  0  0  0  0  0  0  0  0
  -35.3950  -64.2120   48.9930 N   0  0  0  0  0  0  0  0  0  0  0  0
  -34.9240  -65.2770   49.8050 C   0  0  0  0  0  0  0  0  0  0  0  0
  -33.8220  -65.3120   50.3690 O   0  0  0  0  0  0  0  0  0  0  0  0
  -39.2670  -65.8450   48.3380 C   0  0  0  0  0  0  0  0  0  0  0  0
  -39.3580  -65.3050   47.1900 O   0  0  0  0  0  0  0  0  0  0  0  0
  -40.3780  -65.8590   49.2030 N   0  0  0  0  0  0  0  0  0  0  0  0
  -37.6750  -68.2550   48.0040 H   0  0  0  0  0  0  0  0  0  0  0  0
  -41.2880  -65.3370   49.1370 H   0  0  0  0  0  0  0  0  0  0  0  0
  -34.9190  -67.1370   47.6960 C   0  0  2  0  0  3  0  0  0  0  0  0
  -35.4080  -67.6820   46.3950 C   0  0  0  0  0  1  0  0  0  0  0  0
  -33.6810  -67.5450   48.0970 O   0  0  0  0  0  0  0  0  0  0  0  0
  -33.1890  -68.0880   47.4310 H   0  0  0  0  0  0  0  0  0  0  0  0
  -34.6260  -63.0330   48.6950 C   0  0  0  0  0  2  0  0  0  0  0  0
  -33.8070  -63.0930   47.4590 C   0  0  0  0  0  2  0  0  0  0  0  0
  -32.6760  -63.8520   47.4820 O   0  0  0  0  0  0  0  0  0  0  0  0
  -31.6830  -63.4060   48.3290 C   0  0  0  0  0  1  0  0  0  0  0  0
  2  1  1  0  0  0  0
  2  7  1  0  0  0  0
  3  2  2  0  0  0  0
  4  3  1  0  0  0  0
  4  5  2  0  0  0  0
  5  6  1  0  0  0  0
  6  7  2  0  0  0  0
  6  8  1  0  0  0  0
  9 19  1  6  0  0  0
  9 13  1  0  0  0  0
  9  4  1  0  0  0  0
 10 11  1  0  0  0  0
 10  9  1  0  0  0  0
 11 24  1  6  0  0  0
 11 12  1  0  0  0  0
 12 17  1  6  0  0  0
 13 14  1  6  0  0  0
 13 12  1  0  0  0  0
 14 16  1  0  0  0  0
 15 14  2  0  0  0  0
 16 17  1  0  0  0  0
 17 18  2  0  0  0  0
 19 21  1  0  0  0  0
 20 19  2  0  0  0  0
 21  3  1  0  0  0  0
 22 10  1  0  0  0  0
 23 21  1  0  0  0  0
 24 25  1  6  0  0  0
 24 26  1  0  0  0  0
 27 26  1  0  0  0  0
 28 16  1  0  0  0  0
 29 30  1  0  0  0  0
 29 28  1  0  0  0  0
 30 31  1  0  0  0  0
M  END
>  <Pose>
1

>  <Score>
-7.847

$$$$
