/Users/jonathanwahrer/Desktop/Msc/3_Semester/Drug_Design_Praktikum/waehrer_HTS_screening/HTS_experiment/out/docking_results/vina_output/3e7o/2032_docked.pdbqt
 OpenBabel03192216533D

 31 34  0  0  0  0  0  0  0  0999 V2000
  -43.5550  -67.4120   54.4440 C   0  0  0  0  0  3  0  0  0  0  0  0
  -42.4510  -67.7980   53.8900 C   0  0  0  0  0  0  0  0  0  0  0  0
  -42.0510  -67.5530   52.6070 O   0  0  0  0  0  0  0  0  0  0  0  0
  -40.7990  -68.1310   52.4020 C   0  0  0  0  0  0  0  0  0  0  0  0
  -40.3410  -68.7660   53.5110 C   0  0  0  0  0  0  0  0  0  0  0  0
  -39.0920  -69.3980   53.5200 C   0  0  0  0  0  3  0  0  0  0  0  0
  -38.2740  -69.4120   52.4210 C   0  0  0  0  0  3  0  0  0  0  0  0
  -38.7940  -68.7460   51.2960 C   0  0  0  0  0  0  0  0  0  0  0  0
  -39.9940  -68.1220   51.2570 C   0  0  0  0  0  0  0  0  0  0  0  0
  -37.9240  -68.8050   50.1880 O   0  0  0  0  0  1  0  0  0  0  0  0
  -41.3880  -68.5810   54.5220 C   0  0  0  0  0  0  0  0  0  0  0  0
  -41.3670  -69.0150   55.7110 O   0  0  0  0  0  0  0  0  0  0  0  0
  -44.6190  -66.6320   53.8280 C   0  0  0  0  0  0  0  0  0  0  0  0
  -45.8510  -67.1930   53.6120 C   0  0  0  0  0  3  0  0  0  0  0  0
  -46.8720  -66.4590   52.9820 C   0  0  0  0  0  0  0  0  0  0  0  0
  -48.5930  -67.1950   52.6700 Br  0  0  0  0  0  0  0  0  0  0  0  0
  -46.6220  -65.1650   52.5810 C   0  0  0  0  0  3  0  0  0  0  0  0
  -45.4020  -64.6100   52.7920 C   0  0  0  0  0  3  0  0  0  0  0  0
  -44.3820  -65.3400   53.4210 C   0  0  0  0  0  0  0  0  0  0  0  0
  -43.1470  -64.8420   53.6580 O   0  0  0  0  0  0  0  0  0  0  0  0
  -42.2730  -64.2770   52.7430 C   0  0  0  0  0  1  0  0  0  0  0  0
  -40.5650  -67.4670   50.0650 C   0  0  0  0  0  2  0  0  0  0  0  0
  -39.6460  -66.5100   49.4950 N   0  0  0  0  0  4  0  0  0  0  0  0
  -39.7370  -65.2620   50.2310 C   0  0  0  0  0  2  0  0  0  0  0  0
  -39.6590  -64.0470   49.4080 C   0  0  0  0  0  2  0  0  0  0  0  0
  -38.8700  -64.1380   48.2210 N   0  0  0  0  0  0  0  0  0  0  0  0
  -38.4080  -65.3920   47.8320 C   0  0  0  0  0  2  0  0  0  0  0  0
  -39.4940  -66.4620   48.1220 C   0  0  0  0  0  2  0  0  0  0  0  0
  -38.6720  -66.9250   49.8620 H   0  0  0  0  0  0  0  0  0  0  0  0
  -39.1180  -63.1750   47.2160 C   0  0  0  0  0  2  0  0  0  0  0  0
  -40.5030  -63.1530   46.6740 C   0  0  0  0  0  1  0  0  0  0  0  0
  2  1  2  0  0  0  0
  2 11  1  0  0  0  0
  3  2  1  0  0  0  0
  4  3  1  0  0  0  0
  4  5  1  0  0  0  0
  5  6  2  0  0  0  0
  5 11  1  0  0  0  0
  7  6  1  0  0  0  0
  8  7  2  0  0  0  0
  9  8  1  0  0  0  0
  9  4  2  0  0  0  0
 10  8  1  0  0  0  0
 11 12  2  0  0  0  0
 13  1  1  0  0  0  0
 14 13  1  0  0  0  0
 15 14  2  0  0  0  0
 16 15  1  0  0  0  0
 17 18  2  0  0  0  0
 17 15  1  0  0  0  0
 18 19  1  0  0  0  0
 19 20  1  0  0  0  0
 19 13  2  0  0  0  0
 21 20  1  0  0  0  0
 22  9  1  0  0  0  0
 23 29  1  0  0  0  0
 23 22  1  0  0  0  0
 23 24  1  0  0  0  0
 25 24  1  0  0  0  0
 26 25  1  0  0  0  0
 27 28  1  0  0  0  0
 27 26  1  0  0  0  0
 28 23  1  0  0  0  0
 30 26  1  0  0  0  0
 31 30  1  0  0  0  0
M  END
>  <Pose>
1

>  <Score>
-8.470

$$$$
