/Users/jonathanwahrer/Desktop/Msc/3_Semester/Drug_Design_Praktikum/waehrer_HTS_screening/HTS_experiment/out/docking_results/vina_output/3e7o/2063_docked.pdbqt
 OpenBabel03192216543D

 34 37  0  0  1  0  0  0  0  0999 V2000
  -35.5960  -65.8080   48.4270 C   0  0  0  0  0  0  0  0  0  0  0  0
  -36.9500  -65.4850   48.4180 C   0  0  0  0  0  3  0  0  0  0  0  0
  -37.8460  -66.1790   49.0800 O   0  0  0  0  0  0  0  0  0  0  0  0
  -37.5400  -67.2310   49.8020 C   0  0  0  0  0  0  0  0  0  0  0  0
  -36.2250  -67.6270   49.8720 C   0  0  0  0  0  0  0  0  0  0  0  0
  -35.9500  -68.7330   50.6390 C   0  0  0  0  0  3  0  0  0  0  0  0
  -36.9110  -69.4380   51.3190 C   0  0  0  0  0  3  0  0  0  0  0  0
  -38.2640  -69.0480   51.2620 C   0  0  0  0  0  0  0  0  0  0  0  0
  -38.5320  -67.9410   50.4910 C   0  0  0  0  0  3  0  0  0  0  0  0
  -35.2590  -66.9200   49.1880 C   0  0  0  0  0  0  0  0  0  0  0  0
  -34.0540  -67.2820   49.2510 O   0  0  0  0  0  0  0  0  0  0  0  0
  -39.2000  -69.7830   51.9600 O   0  0  0  0  0  0  0  0  0  0  0  0
  -40.1640  -69.2930   52.7910 C   0  0  2  0  0  3  0  0  0  0  0  0
  -40.4170  -67.9080   52.6020 O   0  0  0  0  0  0  0  0  0  0  0  0
  -41.6920  -67.6990   53.0800 C   0  0  1  0  0  3  0  0  0  0  0  0
  -41.8520  -67.9410   54.5490 C   0  0  2  0  0  3  0  0  0  0  0  0
  -41.1450  -69.1940   55.0070 C   0  0  1  0  0  3  0  0  0  0  0  0
  -39.8390  -69.4080   54.2690 C   0  0  1  0  0  3  0  0  0  0  0  0
  -42.2390  -66.3390   52.7240 C   0  0  0  0  0  2  0  0  0  0  0  0
  -43.5910  -66.3890   52.3950 O   0  0  0  0  0  0  0  0  0  0  0  0
  -43.7350  -67.3050   51.9990 H   0  0  0  0  0  0  0  0  0  0  0  0
  -43.2210  -68.1440   54.7880 O   0  0  0  0  0  0  0  0  0  0  0  0
  -43.3580  -68.6420   55.6320 H   0  0  0  0  0  0  0  0  0  0  0  0
  -40.9750  -69.1550   56.3850 O   0  0  0  0  0  0  0  0  0  0  0  0
  -41.4880  -69.8850   56.8500 H   0  0  0  0  0  0  0  0  0  0  0  0
  -39.3640  -70.6720   54.5950 O   0  0  0  0  0  0  0  0  0  0  0  0
  -39.2170  -70.7530   55.5670 H   0  0  0  0  0  0  0  0  0  0  0  0
  -34.6260  -65.0270   47.6880 C   0  0  0  0  0  0  0  0  0  0  0  0
  -34.2810  -65.2940   46.3800 C   0  0  0  0  0  3  0  0  0  0  0  0
  -33.3410  -64.5050   45.7280 C   0  0  0  0  0  3  0  0  0  0  0  0
  -32.7210  -63.4430   46.3450 C   0  0  0  0  0  0  0  0  0  0  0  0
  -31.4290  -62.3660   45.4360 Br  0  0  0  0  0  0  0  0  0  0  0  0
  -33.0670  -63.1740   47.6620 C   0  0  0  0  0  3  0  0  0  0  0  0
  -34.0010  -63.9580   48.3080 C   0  0  0  0  0  3  0  0  0  0  0  0
  1 10  1  0  0  0  0
  2  1  2  0  0  0  0
  2  3  1  0  0  0  0
  3  4  1  0  0  0  0
  4  5  2  0  0  0  0
  4  9  1  0  0  0  0
  5  6  1  0  0  0  0
  6  7  2  0  0  0  0
  8  7  1  0  0  0  0
  8 12  1  0  0  0  0
  9  8  2  0  0  0  0
 10 11  2  0  0  0  0
 10  5  1  0  0  0  0
 13 12  1  6  0  0  0
 13 18  1  0  0  0  0
 14 13  1  0  0  0  0
 14 15  1  0  0  0  0
 15 19  1  1  0  0  0
 15 16  1  0  0  0  0
 16 22  1  6  0  0  0
 16 17  1  0  0  0  0
 17 24  1  1  0  0  0
 18 26  1  6  0  0  0
 18 17  1  0  0  0  0
 20 19  1  0  0  0  0
 21 20  1  0  0  0  0
 22 23  1  0  0  0  0
 24 25  1  0  0  0  0
 26 27  1  0  0  0  0
 28 34  1  0  0  0  0
 28  1  1  0  0  0  0
 29 28  2  0  0  0  0
 30 31  2  0  0  0  0
 30 29  1  0  0  0  0
 31 33  1  0  0  0  0
 32 31  1  0  0  0  0
 33 34  2  0  0  0  0
M  END
>  <Pose>
1

>  <Score>
-8.086

$$$$
