/Users/jonathanwahrer/Desktop/Msc/3_Semester/Drug_Design_Praktikum/waehrer_HTS_screening/HTS_experiment/out/docking_results/vina_output/3e7o/2072_docked.pdbqt
 OpenBabel03192216543D

 27 30  0  0  0  0  0  0  0  0999 V2000
  -35.5110  -65.5530   48.1240 N   0  0  0  0  0  0  0  0  0  0  0  0
  -35.4650  -64.8790   49.3690 C   0  0  0  0  0  2  0  0  0  0  0  0
  -36.7080  -64.1670   49.8200 C   0  0  0  0  0  2  0  0  0  0  0  0
  -37.8510  -64.8720   49.3420 N   0  0  0  0  0  0  0  0  0  0  0  0
  -37.8230  -64.7470   47.8850 C   0  0  0  0  0  2  0  0  0  0  0  0
  -36.6950  -65.5610   47.3710 C   0  0  0  0  0  2  0  0  0  0  0  0
  -39.0980  -64.4380   49.8720 C   0  0  0  0  0  2  0  0  0  0  0  0
  -40.1800  -65.4390   49.6500 C   0  0  0  0  0  2  0  0  0  0  0  0
  -40.9160  -65.7350   50.8600 N   0  0  0  0  0  0  0  0  0  0  0  0
  -40.7220  -66.7540   51.6960 N   0  0  0  0  0  0  0  0  0  0  0  0
  -41.5890  -66.6940   52.7160 C   0  0  0  0  0  0  0  0  0  0  0  0
  -42.3520  -65.6110   52.5230 N   0  0  0  0  0  0  0  0  0  0  0  0
  -41.8350  -67.4620   53.8390 C   0  0  0  0  0  3  0  0  0  0  0  0
  -43.3330  -65.2780   53.3960 C   0  0  0  0  0  3  0  0  0  0  0  0
  -41.9250  -65.0240   51.3670 C   0  0  0  0  0  0  0  0  0  0  0  0
  -43.5980  -66.0270   54.5200 C   0  0  0  0  0  3  0  0  0  0  0  0
  -42.8250  -67.1490   54.7450 C   0  0  0  0  0  3  0  0  0  0  0  0
  -42.4630  -63.9800   50.9260 O   0  0  0  0  0  0  0  0  0  0  0  0
  -34.9350  -67.1640   48.3280 S   0  0  0  0  0  0  0  0  0  0  0  0
  -35.1750  -67.9240   47.0430 O   0  0  0  0  0  0  0  0  0  0  0  0
  -33.4810  -67.1990   48.6120 O   0  0  0  0  0  0  0  0  0  0  0  0
  -35.7730  -67.9450   49.6770 C   0  0  0  0  0  0  0  0  0  0  0  0
  -37.4340  -68.2730   49.8740 S   0  0  0  0  0  0  0  0  0  0  0  0
  -37.3900  -69.0220   51.4020 C   0  0  0  0  0  0  0  0  0  0  0  0
  -36.0580  -68.9950   51.7210 C   0  0  0  0  0  3  0  0  0  0  0  0
  -38.8360  -69.7430   52.4530 Br  0  0  0  0  0  0  0  0  0  0  0  0
  -35.2250  -68.4410   50.8330 C   0  0  0  0  0  3  0  0  0  0  0  0
  1 19  1  0  0  0  0
  1  2  1  0  0  0  0
  2  3  1  0  0  0  0
  4  3  1  0  0  0  0
  4  7  1  0  0  0  0
  5  4  1  0  0  0  0
  6  5  1  0  0  0  0
  6  1  1  0  0  0  0
  8  7  1  0  0  0  0
  8  9  1  0  0  0  0
  9 15  1  0  0  0  0
  9 10  1  0  0  0  0
 10 11  2  0  0  0  0
 11 13  1  0  0  0  0
 12 11  1  0  0  0  0
 12 14  1  0  0  0  0
 13 17  2  0  0  0  0
 14 16  2  0  0  0  0
 15 12  1  0  0  0  0
 16 17  1  0  0  0  0
 18 15  2  0  0  0  0
 19 21  2  0  0  0  0
 19 22  1  0  0  0  0
 20 19  2  0  0  0  0
 22 23  1  0  0  0  0
 22 27  2  0  0  0  0
 23 24  1  0  0  0  0
 24 25  2  0  0  0  0
 24 26  1  0  0  0  0
 27 25  1  0  0  0  0
M  END
>  <Pose>
1

>  <Score>
-7.543

$$$$
