/Users/jonathanwahrer/Desktop/Msc/3_Semester/Drug_Design_Praktikum/waehrer_HTS_screening/HTS_experiment/out/docking_results/vina_output/3e7o/2079_docked.pdbqt
 OpenBabel03192216553D

 31 34  0  0  0  0  0  0  0  0999 V2000
  -38.0180  -67.6560   50.4140 C   0  0  0  0  0  0  0  0  0  0  0  0
  -37.9180  -68.6710   51.3380 C   0  0  0  0  0  3  0  0  0  0  0  0
  -38.9410  -68.8240   52.2840 C   0  0  0  0  0  0  0  0  0  0  0  0
  -40.0300  -67.9810   52.3060 C   0  0  0  0  0  0  0  0  0  0  0  0
  -41.0960  -68.0560   53.2040 C   0  0  0  0  0  0  0  0  0  0  0  0
  -40.9750  -69.1210   54.1310 C   0  0  0  0  0  0  0  0  0  0  0  0
  -39.8940  -69.9970   54.1380 C   0  0  0  0  0  3  0  0  0  0  0  0
  -38.8820  -69.8390   53.2050 C   0  0  0  0  0  3  0  0  0  0  0  0
  -41.9220  -69.3780   55.1040 O   0  0  0  0  0  1  0  0  0  0  0  0
  -40.0810  -67.0570   51.4340 O   0  0  0  0  0  0  0  0  0  0  0  0
  -39.1600  -66.8330   50.4930 C   0  0  0  0  0  0  0  0  0  0  0  0
  -39.2710  -65.9090   49.6790 O   0  0  0  0  0  0  0  0  0  0  0  0
  -42.3180  -67.3320   53.1870 C   0  0  0  0  0  2  0  0  0  0  0  0
  -43.2550  -67.2760   54.2800 N   0  0  0  0  0  4  0  0  0  0  0  0
  -43.3700  -65.8970   54.8330 C   0  0  0  0  0  2  0  0  0  0  0  0
  -43.3600  -64.9050   53.7240 C   0  0  0  0  0  2  0  0  0  0  0  0
  -44.4350  -65.0370   52.7680 N   0  0  0  0  0  0  0  0  0  0  0  0
  -44.9080  -66.3730   52.6410 C   0  0  0  0  0  2  0  0  0  0  0  0
  -44.6220  -67.3600   53.6720 C   0  0  0  0  0  2  0  0  0  0  0  0
  -43.2470  -67.9720   54.9890 H   0  0  0  0  0  0  0  0  0  0  0  0
  -44.0150  -64.5180   51.4570 C   0  0  0  0  0  2  0  0  0  0  0  0
  -42.5140  -64.5470   51.2870 C   0  0  0  0  0  2  0  0  0  0  0  0
  -42.1140  -65.2900   50.1860 O   0  0  0  0  0  0  0  0  0  0  0  0
  -42.0790  -66.2610   50.4600 H   0  0  0  0  0  0  0  0  0  0  0  0
  -37.0410  -67.5080   49.3160 C   0  0  0  0  0  0  0  0  0  0  0  0
  -35.8850  -66.7550   49.5960 C   0  0  0  0  0  3  0  0  0  0  0  0
  -34.9010  -66.6170   48.6340 C   0  0  0  0  0  3  0  0  0  0  0  0
  -35.0110  -67.2010   47.3770 C   0  0  0  0  0  0  0  0  0  0  0  0
  -33.7150  -67.1120   46.1580 Cl  0  0  0  0  0  0  0  0  0  0  0  0
  -36.1530  -67.9350   47.1090 C   0  0  0  0  0  3  0  0  0  0  0  0
  -37.1230  -68.0570   48.0870 C   0  0  0  0  0  3  0  0  0  0  0  0
  1 11  1  0  0  0  0
  1  2  2  0  0  0  0
  2  3  1  0  0  0  0
  3  4  2  0  0  0  0
  3  8  1  0  0  0  0
  4  5  1  0  0  0  0
  5  6  2  0  0  0  0
  6  7  1  0  0  0  0
  6  9  1  0  0  0  0
  8  7  2  0  0  0  0
 10  4  1  0  0  0  0
 11 10  1  0  0  0  0
 12 11  2  0  0  0  0
 13  5  1  0  0  0  0
 13 14  1  0  0  0  0
 14 15  1  0  0  0  0
 14 20  1  0  0  0  0
 16 15  1  0  0  0  0
 17 16  1  0  0  0  0
 18 17  1  0  0  0  0
 18 19  1  0  0  0  0
 19 14  1  0  0  0  0
 21 17  1  0  0  0  0
 22 21  1  0  0  0  0
 23 24  1  0  0  0  0
 23 22  1  0  0  0  0
 25 26  1  0  0  0  0
 25  1  1  0  0  0  0
 27 26  2  0  0  0  0
 28 27  1  0  0  0  0
 29 28  1  0  0  0  0
 30 28  2  0  0  0  0
 30 31  1  0  0  0  0
 31 25  2  0  0  0  0
M  END
>  <Pose>
1

>  <Score>
-8.504

$$$$
