/Users/jonathanwahrer/Desktop/Msc/3_Semester/Drug_Design_Praktikum/waehrer_HTS_screening/HTS_experiment/out/docking_results/vina_output/3e7o/2087_docked.pdbqt
 OpenBabel03192216553D

 32 35  0  0  0  0  0  0  0  0999 V2000
  -38.4630  -67.1540   49.7900 N   0  0  0  0  0  0  0  0  0  0  0  0
  -37.2410  -67.6260   50.2010 C   0  0  0  0  0  0  0  0  0  0  0  0
  -36.2870  -66.6410   50.0390 C   0  0  0  0  0  0  0  0  0  0  0  0
  -36.9450  -65.5940   49.5320 N   0  0  0  0  0  0  0  0  0  0  0  0
  -38.2720  -65.9010   49.3750 C   0  0  0  0  0  0  0  0  0  0  0  0
  -34.9990  -66.8620   50.3650 N   0  0  0  0  0  0  0  0  0  0  0  0
  -34.6650  -68.0660   50.8510 C   0  0  0  0  0  0  0  0  0  0  0  0
  -33.4610  -68.2600   51.1510 O   0  0  0  0  0  0  0  0  0  0  0  0
  -35.5600  -69.0450   51.0200 N   0  0  0  0  0  0  0  0  0  0  0  0
  -36.8760  -68.8580   50.7010 C   0  0  0  0  0  0  0  0  0  0  0  0
  -37.6890  -69.7980   50.8690 O   0  0  0  0  0  0  0  0  0  0  0  0
  -34.0300  -65.7970   50.1840 C   0  0  0  0  0  1  0  0  0  0  0  0
  -35.2800  -69.9850   51.4000 H   0  0  0  0  0  0  0  0  0  0  0  0
  -39.1690  -65.0070   48.7690 N   0  0  0  0  0  0  0  0  0  0  0  0
  -39.6650  -64.9730   47.4400 C   0  0  0  0  0  2  0  0  0  0  0  0
  -40.0370  -63.5540   46.9960 C   0  0  0  0  0  2  0  0  0  0  0  0
  -39.3790  -62.5130   47.6720 N   0  0  0  0  0  0  0  0  0  0  0  0
  -39.3250  -62.5830   49.0790 C   0  0  0  0  0  2  0  0  0  0  0  0
  -39.7170  -63.9310   49.6400 C   0  0  0  0  0  2  0  0  0  0  0  0
  -38.4580  -61.6990   46.9920 C   0  0  0  0  0  2  0  0  0  0  0  0
  -37.0610  -62.1550   46.9370 C   0  0  0  0  0  0  0  0  0  0  0  0
  -36.6690  -63.0520   46.1440 O   0  0  0  0  0  0  0  0  0  0  0  0
  -36.1230  -61.5930   47.7770 O   0  0  0  0  0  0  0  0  0  0  0  0
  -35.4460  -62.3320   48.7560 C   0  0  0  0  0  1  0  0  0  0  0  0
  -39.6830  -67.9170   49.8530 C   0  0  0  0  0  2  0  0  0  0  0  0
  -40.5300  -67.5010   51.0420 C   0  0  0  0  0  0  0  0  0  0  0  0
  -41.6500  -66.7680   50.7810 C   0  0  0  0  0  3  0  0  0  0  0  0
  -42.4760  -66.3930   51.8420 C   0  0  0  0  0  3  0  0  0  0  0  0
  -42.1610  -66.7610   53.1310 C   0  0  0  0  0  0  0  0  0  0  0  0
  -43.2750  -66.2630   54.5970 Br  0  0  0  0  0  0  0  0  0  0  0  0
  -41.0160  -67.5050   53.3590 C   0  0  0  0  0  3  0  0  0  0  0  0
  -40.2040  -67.8740   52.3140 C   0  0  0  0  0  3  0  0  0  0  0  0
  1 25  1  0  0  0  0
  1  2  1  0  0  0  0
  2 10  1  0  0  0  0
  3  2  2  0  0  0  0
  3  6  1  0  0  0  0
  4  3  1  0  0  0  0
  5  4  2  0  0  0  0
  5  1  1  0  0  0  0
  6  7  1  0  0  0  0
  7  9  1  0  0  0  0
  7  8  2  0  0  0  0
  9 13  1  0  0  0  0
 10 11  2  0  0  0  0
 10  9  1  0  0  0  0
 12  6  1  0  0  0  0
 14  5  1  0  0  0  0
 14 19  1  0  0  0  0
 15 14  1  0  0  0  0
 16 15  1  0  0  0  0
 16 17  1  0  0  0  0
 17 18  1  0  0  0  0
 18 19  1  0  0  0  0
 20 17  1  0  0  0  0
 21 20  1  0  0  0  0
 21 23  1  0  0  0  0
 22 21  2  0  0  0  0
 23 24  1  0  0  0  0
 25 26  1  0  0  0  0
 26 32  1  0  0  0  0
 27 26  2  0  0  0  0
 27 28  1  0  0  0  0
 28 29  2  0  0  0  0
 29 31  1  0  0  0  0
 29 30  1  0  0  0  0
 32 31  2  0  0  0  0
M  END
>  <Pose>
1

>  <Score>
-7.296

$$$$
