/Users/jonathanwahrer/Desktop/Msc/3_Semester/Drug_Design_Praktikum/waehrer_HTS_screening/HTS_experiment/out/docking_results/vina_output/3e7o/2105_docked.pdbqt
 OpenBabel03192216553D

 29 32  0  0  1  0  0  0  0  0999 V2000
  -31.4250  -68.5750   47.0320 Cl  0  0  0  0  0  0  0  0  0  0  0  0
  -32.6220  -67.3690   46.6090 C   0  0  0  0  0  0  0  0  0  0  0  0
  -33.3400  -66.7020   47.6020 C   0  0  0  0  0  0  0  0  0  0  0  0
  -34.2800  -65.7580   47.3140 C   0  0  0  0  0  0  0  0  0  0  0  0
  -34.4940  -65.4860   45.9700 C   0  0  0  0  0  3  0  0  0  0  0  0
  -33.7950  -66.1340   44.9750 C   0  0  0  0  0  3  0  0  0  0  0  0
  -32.8490  -67.0850   45.2860 C   0  0  0  0  0  3  0  0  0  0  0  0
  -34.8520  -65.2480   48.5770 C   0  0  2  0  0  0  0  0  0  0  0  0
  -36.3240  -65.5660   48.6490 C   0  0  0  0  0  0  0  0  0  0  0  0
  -37.2470  -64.6620   48.8270 C   0  0  0  0  0  0  0  0  0  0  0  0
  -36.9270  -63.2800   48.9680 N   0  0  0  0  0  0  0  0  0  0  0  0
  -35.5660  -62.8930   48.9120 C   0  0  0  0  0  0  0  0  0  0  0  0
  -34.6280  -63.7950   48.7340 C   0  0  0  0  0  0  0  0  0  0  0  0
  -33.2410  -63.3540   48.6830 C   0  0  0  0  0  0  0  0  0  0  0  0
  -32.1340  -63.0190   48.6360 N   0  0  0  0  0  0  0  0  0  0  0  0
  -38.5670  -65.3250   48.8480 C   0  0  0  0  0  0  0  0  0  0  0  0
  -38.3170  -66.6640   48.6680 O   0  0  0  0  0  0  0  0  0  0  0  0
  -36.9630  -66.8710   48.5420 C   0  0  0  0  0  0  0  0  0  0  0  0
  -36.3510  -67.9810   48.3630 O   0  0  0  0  0  0  0  0  0  0  0  0
  -39.4440  -64.7070   47.7820 C   0  0  0  0  0  1  0  0  0  0  0  0
  -39.2710  -65.1420   50.1800 C   0  0  0  0  0  1  0  0  0  0  0  0
  -34.1380  -66.0010   49.6350 C   0  0  0  0  0  0  0  0  0  0  0  0
  -34.3100  -65.8880   50.9010 O   0  0  0  0  0  0  0  0  0  0  0  0
  -33.2290  -66.8750   49.0040 N   0  0  0  0  0  0  0  0  0  0  0  0
  -37.6600  -62.5520   49.1100 H   0  0  0  0  0  0  0  0  0  0  0  0
  -32.5830  -67.5380   49.5310 H   0  0  0  0  0  0  0  0  0  0  0  0
  -35.1670  -61.5250   49.0470 N   0  0  0  0  0  0  0  0  0  0  0  0
  -35.3670  -60.8430   48.3030 H   0  0  0  0  0  0  0  0  0  0  0  0
  -34.6760  -61.2420   49.9030 H   0  0  0  0  0  0  0  0  0  0  0  0
  2  1  1  0  0  0  0
  2  3  1  0  0  0  0
  3 24  1  0  0  0  0
  4  3  2  0  0  0  0
  5  4  1  0  0  0  0
  6  7  1  0  0  0  0
  6  5  2  0  0  0  0
  7  2  2  0  0  0  0
  8  4  1  6  0  0  0
  8  9  1  0  0  0  0
  8 13  1  0  0  0  0
  8 22  1  0  0  0  0
  9 10  2  0  0  0  0
 10 16  1  0  0  0  0
 10 11  1  0  0  0  0
 11 25  1  0  0  0  0
 12 11  1  0  0  0  0
 12 27  1  0  0  0  0
 13 12  2  0  0  0  0
 14 13  1  0  0  0  0
 15 14  3  0  0  0  0
 16 21  1  0  0  0  0
 17 16  1  0  0  0  0
 18  9  1  0  0  0  0
 18 17  1  0  0  0  0
 19 18  2  0  0  0  0
 20 16  1  0  0  0  0
 22 23  2  0  0  0  0
 24 26  1  0  0  0  0
 24 22  1  0  0  0  0
 27 29  1  0  0  0  0
 28 27  1  0  0  0  0
M  END
>  <Pose>
1

>  <Score>
-6.714

$$$$
