/Users/jonathanwahrer/Desktop/Msc/3_Semester/Drug_Design_Praktikum/waehrer_HTS_screening/HTS_experiment/out/docking_results/vina_output/3e7o/2121_docked.pdbqt
 OpenBabel03192216563D

 31 34  0  0  1  0  0  0  0  0999 V2000
  -36.4200  -67.8680   48.8420 C   0  0  0  0  0  0  0  0  0  0  0  0
  -37.0750  -67.9700   47.6770 O   0  0  0  0  0  0  0  0  0  0  0  0
  -35.1130  -67.4530   48.6950 N   0  0  0  0  0  0  0  0  0  0  0  0
  -34.7860  -67.1830   47.2670 C   0  0  0  0  0  2  0  0  0  0  0  0
  -35.0940  -65.7310   46.9560 C   0  0  0  0  0  2  0  0  0  0  0  0
  -35.0950  -64.9840   48.2350 C   0  0  1  0  0  3  0  0  0  0  0  0
  -33.7740  -65.0880   48.9240 C   0  0  2  0  0  3  0  0  0  0  0  0
  -34.0360  -65.8570   50.2310 C   0  0  0  0  0  2  0  0  0  0  0  0
  -34.1900  -67.3180   49.7680 C   0  0  0  0  0  2  0  0  0  0  0  0
  -37.2320  -68.2150   49.9760 C   0  0  0  0  0  0  0  0  0  0  0  0
  -37.0440  -69.1270   50.9320 N   0  0  0  0  0  0  0  0  0  0  0  0
  -38.0970  -69.1440   51.8040 C   0  0  0  0  0  0  0  0  0  0  0  0
  -36.2400  -69.7540   51.0700 H   0  0  0  0  0  0  0  0  0  0  0  0
  -38.9770  -68.2090   51.3820 C   0  0  0  0  0  0  0  0  0  0  0  0
  -38.3750  -69.8850   52.9200 C   0  0  0  0  0  3  0  0  0  0  0  0
  -40.1830  -67.9600   52.0470 C   0  0  0  0  0  3  0  0  0  0  0  0
  -38.4620  -67.6160   50.2460 C   0  0  0  0  0  3  0  0  0  0  0  0
  -40.4440  -68.7040   53.1520 C   0  0  0  0  0  0  0  0  0  0  0  0
  -41.9580  -68.4210   54.0170 Cl  0  0  0  0  0  0  0  0  0  0  0  0
  -39.5620  -69.6640   53.6030 C   0  0  0  0  0  3  0  0  0  0  0  0
  -35.5440  -63.6280   48.2230 N   0  0  0  0  0  0  0  0  0  0  0  0
  -36.4230  -63.2680   49.3070 C   0  0  0  0  0  2  0  0  0  0  0  0
  -37.7020  -64.0140   49.2540 C   0  0  0  0  0  2  0  0  0  0  0  0
  -38.2810  -63.7570   47.9300 N   0  0  0  0  0  0  0  0  0  0  0  0
  -37.5290  -62.8730   47.0780 C   0  0  0  0  0  2  0  0  0  0  0  0
  -39.5260  -64.3550   47.5670 C   0  0  0  0  0  0  0  0  0  0  0  0
  -36.0710  -63.2050   46.9540 C   0  0  0  0  0  2  0  0  0  0  0  0
  -39.9990  -64.1430   46.4430 O   0  0  0  0  0  0  0  0  0  0  0  0
  -40.2190  -65.2230   48.5710 C   0  0  0  0  0  1  0  0  0  0  0  0
  -33.1680  -63.8590   49.1770 O   0  0  0  0  0  0  0  0  0  0  0  0
  -32.2980  -63.8750   48.6600 H   0  0  0  0  0  0  0  0  0  0  0  0
  1 10  1  0  0  0  0
  2  1  2  0  0  0  0
  3  1  1  0  0  0  0
  3  9  1  0  0  0  0
  4  3  1  0  0  0  0
  5  4  1  0  0  0  0
  6  5  1  6  0  0  0
  6  7  1  0  0  0  0
  7 30  1  1  0  0  0
  7  8  1  0  0  0  0
  9  8  1  0  0  0  0
 10 17  2  0  0  0  0
 10 11  1  0  0  0  0
 11 13  1  0  0  0  0
 11 12  1  0  0  0  0
 12 15  1  0  0  0  0
 14 12  2  0  0  0  0
 14 16  1  0  0  0  0
 15 20  2  0  0  0  0
 16 18  2  0  0  0  0
 17 14  1  0  0  0  0
 18 20  1  0  0  0  0
 18 19  1  0  0  0  0
 21  6  1  0  0  0  0
 21 22  1  0  0  0  0
 23 22  1  0  0  0  0
 24 23  1  0  0  0  0
 25 24  1  0  0  0  0
 26 24  1  0  0  0  0
 26 29  1  0  0  0  0
 27 25  1  0  0  0  0
 27 21  1  0  0  0  0
 28 26  2  0  0  0  0
 31 30  1  0  0  0  0
M  END
>  <Pose>
1

>  <Score>
-8.641

$$$$
