/Users/jonathanwahrer/Desktop/Msc/3_Semester/Drug_Design_Praktikum/waehrer_HTS_screening/HTS_experiment/out/docking_results/vina_output/3e7o/2124_docked.pdbqt
 OpenBabel03192216563D

 25 29  0  0  1  0  0  0  0  0999 V2000
  -36.1610  -66.6890   49.0000 N   0  0  0  0  0  0  0  0  0  0  0  0
  -35.8100  -65.3220   49.1520 C   0  0  0  0  0  0  0  0  0  0  0  0
  -36.0140  -64.6290   50.1840 O   0  0  0  0  0  0  0  0  0  0  0  0
  -35.1550  -64.8060   47.9040 C   0  0  1  0  0  3  0  0  0  0  0  0
  -33.8000  -64.2530   48.1950 C   0  0  2  0  0  0  0  0  0  0  0  0
  -32.9470  -64.8850   47.2570 O   0  0  0  0  0  0  0  0  0  0  0  0
  -33.3290  -66.2150   47.5690 C   0  0  2  0  0  0  0  0  0  0  0  0
  -34.8010  -66.1140   47.1810 C   0  0  1  0  0  3  0  0  0  0  0  0
  -35.6360  -67.1540   47.7630 C   0  0  0  0  0  0  0  0  0  0  0  0
  -35.8430  -68.2770   47.2350 O   0  0  0  0  0  0  0  0  0  0  0  0
  -33.1370  -66.2110   49.0390 C   0  0  0  0  0  2  0  0  0  0  0  0
  -33.3110  -64.9330   49.4360 C   0  0  0  0  0  2  0  0  0  0  0  0
  -32.5750  -67.2470   46.8400 C   0  0  0  0  0  1  0  0  0  0  0  0
  -36.9090  -67.5420   49.8720 C   0  0  0  0  0  0  0  0  0  0  0  0
  -38.2640  -67.4220   50.0640 C   0  0  0  0  0  3  0  0  0  0  0  0
  -38.9760  -68.2510   50.9120 C   0  0  0  0  0  3  0  0  0  0  0  0
  -38.3290  -69.2450   51.6060 C   0  0  0  0  0  0  0  0  0  0  0  0
  -39.1970  -70.3230   52.7030 Cl  0  0  0  0  0  0  0  0  0  0  0  0
  -36.9700  -69.3760   51.4250 C   0  0  0  0  0  3  0  0  0  0  0  0
  -36.2550  -68.5400   50.5700 C   0  0  0  0  0  3  0  0  0  0  0  0
  -33.6630  -62.7910   48.2110 C   0  0  0  0  0  3  0  0  0  0  0  0
  -32.7000  -62.4260   47.2680 O   0  0  0  0  0  0  0  0  0  0  0  0
  -33.3250  -62.2610   46.0580 C   0  0  0  0  0  2  0  0  0  0  0  0
  -34.7260  -61.8820   46.4580 C   0  0  0  0  0  2  0  0  0  0  0  0
  -34.8560  -62.2040   47.7900 O   0  0  0  0  0  0  0  0  0  0  0  0
  1  2  1  0  0  0  0
  1 14  1  0  0  0  0
  2  3  2  0  0  0  0
  4  5  1  0  0  0  0
  4  2  1  1  0  0  0
  5 21  1  1  0  0  0
  5 12  1  0  0  0  0
  6  7  1  0  0  0  0
  6  5  1  0  0  0  0
  7 13  1  6  0  0  0
  7 11  1  0  0  0  0
  8  7  1  0  0  0  0
  8  9  1  1  0  0  0
  8  4  1  0  0  0  0
  9  1  1  0  0  0  0
 10  9  2  0  0  0  0
 11 12  1  0  0  0  0
 14 15  2  0  0  0  0
 14 20  1  0  0  0  0
 15 16  1  0  0  0  0
 16 17  2  0  0  0  0
 17 18  1  0  0  0  0
 19 17  1  0  0  0  0
 20 19  2  0  0  0  0
 22 21  1  0  0  0  0
 23 24  1  0  0  0  0
 23 22  1  0  0  0  0
 24 25  1  0  0  0  0
 25 21  1  0  0  0  0
M  END
>  <Pose>
1

>  <Score>
-7.277

$$$$
