/Users/jonathanwahrer/Desktop/Msc/3_Semester/Drug_Design_Praktikum/waehrer_HTS_screening/HTS_experiment/out/docking_results/vina_output/3e7o/2163_docked.pdbqt
 OpenBabel03192216573D

 31 34  0  0  0  0  0  0  0  0999 V2000
  -39.1380  -66.1710   49.0670 C   0  0  0  0  0  0  0  0  0  0  0  0
  -38.1940  -67.0650   49.4340 N   0  0  0  0  0  4  0  0  0  0  0  0
  -36.9040  -66.7250   49.5290 C   0  0  0  0  0  0  0  0  0  0  0  0
  -36.5530  -65.4600   49.2490 N   0  0  0  0  0  0  0  0  0  0  0  0
  -37.4500  -64.5090   48.8740 C   0  0  0  0  0  0  0  0  0  0  0  0
  -38.7430  -64.9260   48.7990 N   0  0  0  0  0  2  0  0  0  0  0  0
  -40.5170  -66.4980   48.9570 N   0  0  0  0  0  0  0  0  0  0  0  0
  -40.9920  -66.5430   48.0150 H   0  0  0  0  0  0  0  0  0  0  0  0
  -41.3180  -66.7760   50.0660 N   0  0  0  0  0  0  0  0  0  0  0  0
  -40.9570  -66.5740   51.2770 C   0  0  0  0  0  3  0  0  0  0  0  0
  -41.8070  -66.8710   52.4250 C   0  0  0  0  0  0  0  0  0  0  0  0
  -43.0960  -66.4020   52.5060 C   0  0  0  0  0  3  0  0  0  0  0  0
  -43.8890  -66.6880   53.5940 C   0  0  0  0  0  0  0  0  0  0  0  0
  -45.6770  -66.0360   53.7070 Br  0  0  0  0  0  0  0  0  0  0  0  0
  -43.4220  -67.4590   54.6510 C   0  0  0  0  0  3  0  0  0  0  0  0
  -42.1240  -67.9360   54.5750 C   0  0  0  0  0  3  0  0  0  0  0  0
  -41.3290  -67.6370   53.4650 C   0  0  0  0  0  0  0  0  0  0  0  0
  -40.0230  -68.1000   53.3570 O   0  0  0  0  0  0  0  0  0  0  0  0
  -39.6260  -69.4120   53.6800 C   0  0  0  0  0  1  0  0  0  0  0  0
  -35.9110  -67.6660   49.9140 N   0  0  0  0  0  0  0  0  0  0  0  0
  -36.2390  -68.9160   50.5640 C   0  0  0  0  0  2  0  0  0  0  0  0
  -35.2690  -69.2180   51.6970 C   0  0  0  0  0  2  0  0  0  0  0  0
  -33.9510  -68.9830   51.2900 O   0  0  0  0  0  0  0  0  0  0  0  0
  -33.7530  -67.6680   50.9410 C   0  0  0  0  0  2  0  0  0  0  0  0
  -34.5130  -67.3960   49.6610 C   0  0  0  0  0  2  0  0  0  0  0  0
  -37.0760  -63.1840   48.5810 N   0  0  0  0  0  0  0  0  0  0  0  0
  -37.9730  -62.2860   47.9190 C   0  0  0  0  0  2  0  0  0  0  0  0
  -37.2270  -61.7200   46.7120 C   0  0  0  0  0  2  0  0  0  0  0  0
  -36.0640  -61.1420   47.1900 O   0  0  0  0  0  0  0  0  0  0  0  0
  -35.1760  -62.0620   47.6970 C   0  0  0  0  0  2  0  0  0  0  0  0
  -35.7730  -62.7100   48.9460 C   0  0  0  0  0  2  0  0  0  0  0  0
  1  2  2  0  0  0  0
  2  3  2  0  0  0  0
  3 20  1  0  0  0  0
  4  3  1  0  0  0  0
  5  4  2  0  0  0  0
  6  5  1  0  0  0  0
  6  1  1  0  0  0  0
  7  1  1  0  0  0  0
  7  9  1  0  0  0  0
  8  7  1  0  0  0  0
  9 10  2  0  0  0  0
 10 11  1  0  0  0  0
 11 12  2  0  0  0  0
 11 17  1  0  0  0  0
 12 13  1  0  0  0  0
 13 14  1  0  0  0  0
 13 15  2  0  0  0  0
 16 15  1  0  0  0  0
 17 16  2  0  0  0  0
 18 17  1  0  0  0  0
 18 19  1  0  0  0  0
 20 21  1  0  0  0  0
 21 22  1  0  0  0  0
 23 22  1  0  0  0  0
 24 23  1  0  0  0  0
 25 20  1  0  0  0  0
 25 24  1  0  0  0  0
 26  5  1  0  0  0  0
 26 31  1  0  0  0  0
 27 26  1  0  0  0  0
 28 29  1  0  0  0  0
 28 27  1  0  0  0  0
 29 30  1  0  0  0  0
 30 31  1  0  0  0  0
M  END
>  <Pose>
1

>  <Score>
-7.966

$$$$
