/Users/jonathanwahrer/Desktop/Msc/3_Semester/Drug_Design_Praktikum/waehrer_HTS_screening/HTS_experiment/out/docking_results/vina_output/3e7o/2177_docked.pdbqt
 OpenBabel03192216583D

 31 35  0  0  0  0  0  0  0  0999 V2000
  -37.1590  -69.3110   51.4620 N   0  0  0  0  0  0  0  0  0  0  0  0
  -37.8420  -68.7930   50.3010 C   0  0  0  0  0  2  0  0  0  0  0  0
  -37.1900  -67.4910   49.9130 C   0  0  0  0  0  2  0  0  0  0  0  0
  -35.7420  -67.5480   49.9300 N   0  0  0  0  0  0  0  0  0  0  0  0
  -35.0790  -68.1080   51.0910 C   0  0  0  0  0  2  0  0  0  0  0  0
  -35.7200  -69.4330   51.4120 C   0  0  0  0  0  2  0  0  0  0  0  0
  -37.9450  -69.6780   52.5870 C   0  0  0  0  0  3  0  0  0  0  0  0
  -39.0830  -69.1180   52.9280 C   0  0  0  0  0  0  0  0  0  0  0  0
  -39.6700  -68.0540   52.1860 N   0  0  0  0  0  0  0  0  0  0  0  0
  -39.7760  -69.5760   54.0780 N   0  0  0  0  0  0  0  0  0  0  0  0
  -40.8970  -67.4260   52.5240 C   0  0  0  0  0  0  0  0  0  0  0  0
  -39.1490  -67.7290   51.3430 H   0  0  0  0  0  0  0  0  0  0  0  0
  -41.5770  -67.8640   53.6420 C   0  0  0  0  0  0  0  0  0  0  0  0
  -41.4670  -66.3950   51.8090 C   0  0  0  0  0  3  0  0  0  0  0  0
  -42.7690  -67.2950   54.0190 C   0  0  0  0  0  3  0  0  0  0  0  0
  -40.9950  -68.9680   54.4330 C   0  0  0  0  0  0  0  0  0  0  0  0
  -43.3240  -66.2660   53.2920 C   0  0  0  0  0  0  0  0  0  0  0  0
  -44.8590  -65.5610   53.8100 Cl  0  0  0  0  0  0  0  0  0  0  0  0
  -42.6600  -65.8140   52.1730 C   0  0  0  0  0  3  0  0  0  0  0  0
  -41.6710  -69.3260   55.4520 O   0  0  0  0  0  0  0  0  0  0  0  0
  -39.4100  -70.3530   54.6740 H   0  0  0  0  0  0  0  0  0  0  0  0
  -34.9950  -67.0570   48.8150 C   0  0  0  0  0  0  0  0  0  0  0  0
  -35.0750  -67.7120   47.6400 N   0  0  0  0  0  0  0  0  0  0  0  0
  -34.3800  -67.2770   46.5510 C   0  0  0  0  0  3  0  0  0  0  0  0
  -33.5950  -66.1800   46.6270 N   0  0  0  0  0  0  0  0  0  0  0  0
  -33.4760  -65.4880   47.7640 C   0  0  0  0  0  0  0  0  0  0  0  0
  -32.7820  -64.3890   48.1100 N   0  0  0  0  0  0  0  0  0  0  0  0
  -34.1940  -65.9470   48.8700 C   0  0  0  0  0  0  0  0  0  0  0  0
  -33.0380  -64.1440   49.3830 N   0  0  0  0  0  0  0  0  0  0  0  0
  -31.8970  -63.5890   47.2580 C   0  0  0  0  0  1  0  0  0  0  0  0
  -33.8990  -65.0800   49.8750 C   0  0  0  0  0  3  0  0  0  0  0  0
  1  7  1  0  0  0  0
  2  1  1  0  0  0  0
  3  4  1  0  0  0  0
  3  2  1  0  0  0  0
  4  5  1  0  0  0  0
  5  6  1  0  0  0  0
  6  1  1  0  0  0  0
  7  8  2  0  0  0  0
  8 10  1  0  0  0  0
  9 11  1  0  0  0  0
  9  8  1  0  0  0  0
 10 16  1  0  0  0  0
 10 21  1  0  0  0  0
 11 13  1  0  0  0  0
 12  9  1  0  0  0  0
 13 15  2  0  0  0  0
 13 16  1  0  0  0  0
 14 19  1  0  0  0  0
 14 11  2  0  0  0  0
 16 20  2  0  0  0  0
 17 18  1  0  0  0  0
 17 15  1  0  0  0  0
 19 17  2  0  0  0  0
 22 28  1  0  0  0  0
 22  4  1  0  0  0  0
 23 22  2  0  0  0  0
 24 25  2  0  0  0  0
 24 23  1  0  0  0  0
 25 26  1  0  0  0  0
 26 27  1  0  0  0  0
 26 28  2  0  0  0  0
 27 29  1  0  0  0  0
 28 31  1  0  0  0  0
 29 31  2  0  0  0  0
 30 27  1  0  0  0  0
M  END
>  <Pose>
1

>  <Score>
-9.292

$$$$
