/Users/jonathanwahrer/Desktop/Msc/3_Semester/Drug_Design_Praktikum/waehrer_HTS_screening/HTS_experiment/out/docking_results/vina_output/3e7o/2184_docked.pdbqt
 OpenBabel03192216583D

 29 32  0  0  0  0  0  0  0  0999 V2000
  -38.2550  -64.5190   48.4380 N   0  0  0  0  0  4  0  0  0  0  0  0
  -38.6860  -64.3000   49.7320 C   0  0  0  0  0  2  0  0  0  0  0  0
  -40.2500  -64.3790   49.8120 C   0  0  0  0  0  2  0  0  0  0  0  0
  -40.3940  -65.8990   49.6120 N   0  0  0  0  0  0  0  0  0  0  0  0
  -40.0520  -66.2820   48.3310 C   0  0  0  0  0  2  0  0  0  0  0  0
  -39.4150  -65.0450   47.6600 C   0  0  0  0  0  2  0  0  0  0  0  0
  -38.1210  -63.5600   47.9800 H   0  0  0  0  0  0  0  0  0  0  0  0
  -37.1390  -65.2740   48.0680 C   0  0  0  0  0  2  0  0  0  0  0  0
  -35.8530  -65.1860   48.7780 C   0  0  0  0  0  0  0  0  0  0  0  0
  -35.5710  -66.3520   49.5580 C   0  0  0  0  0  0  0  0  0  0  0  0
  -36.5030  -67.3230   49.6690 C   0  0  0  0  0  3  0  0  0  0  0  0
  -34.3690  -66.4500   50.2020 C   0  0  0  0  0  0  0  0  0  0  0  0
  -36.2750  -68.4390   50.4290 C   0  0  0  0  0  0  0  0  0  0  0  0
  -37.4680  -69.7200   50.6730 Cl  0  0  0  0  0  0  0  0  0  0  0  0
  -35.0600  -68.5960   51.1030 C   0  0  0  0  0  0  0  0  0  0  0  0
  -34.1280  -67.6040   50.9860 C   0  0  0  0  0  3  0  0  0  0  0  0
  -34.7790  -69.7460   51.8750 O   0  0  0  0  0  1  0  0  0  0  0  0
  -33.4560  -65.5230   50.1400 O   0  0  0  0  0  0  0  0  0  0  0  0
  -33.6730  -64.4220   49.4290 C   0  0  0  0  0  0  0  0  0  0  0  0
  -32.7920  -63.5540   49.3840 O   0  0  0  0  0  0  0  0  0  0  0  0
  -34.8870  -64.2420   48.7360 C   0  0  0  0  0  3  0  0  0  0  0  0
  -40.7740  -66.5650   50.7980 C   0  0  0  0  0  0  0  0  0  0  0  0
  -40.0840  -67.5400   51.4300 C   0  0  0  0  0  3  0  0  0  0  0  0
  -40.4260  -67.9690   52.7450 C   0  0  0  0  0  3  0  0  0  0  0  0
  -41.4720  -67.4120   53.4310 C   0  0  0  0  0  0  0  0  0  0  0  0
  -42.1940  -66.4130   52.7850 C   0  0  0  0  0  3  0  0  0  0  0  0
  -41.8560  -66.0060   51.5030 C   0  0  0  0  0  3  0  0  0  0  0  0
  -41.7680  -67.8660   54.7110 O   0  0  0  0  0  0  0  0  0  0  0  0
  -40.8030  -68.6100   55.4710 C   0  0  0  0  0  1  0  0  0  0  0  0
  1  2  1  0  0  0  0
  2  3  1  0  0  0  0
  4  3  1  0  0  0  0
  4 22  1  0  0  0  0
  5  4  1  0  0  0  0
  6  5  1  0  0  0  0
  6  1  1  0  0  0  0
  7  1  1  0  0  0  0
  8  1  1  0  0  0  0
  8  9  1  0  0  0  0
  9 10  1  0  0  0  0
 10 11  2  0  0  0  0
 10 12  1  0  0  0  0
 11 13  1  0  0  0  0
 12 16  2  0  0  0  0
 13 14  1  0  0  0  0
 13 15  2  0  0  0  0
 15 17  1  0  0  0  0
 16 15  1  0  0  0  0
 18 12  1  0  0  0  0
 19 18  1  0  0  0  0
 20 19  2  0  0  0  0
 21  9  2  0  0  0  0
 21 19  1  0  0  0  0
 22 23  2  0  0  0  0
 22 27  1  0  0  0  0
 23 24  1  0  0  0  0
 24 25  2  0  0  0  0
 25 28  1  0  0  0  0
 26 25  1  0  0  0  0
 27 26  2  0  0  0  0
 28 29  1  0  0  0  0
M  END
>  <Pose>
1

>  <Score>
-8.534

$$$$
