/Users/jonathanwahrer/Desktop/Msc/3_Semester/Drug_Design_Praktikum/waehrer_HTS_screening/HTS_experiment/out/docking_results/vina_output/3e7o/2197_docked.pdbqt
 OpenBabel03192216593D

 28 31  0  0  1  0  0  0  0  0999 V2000
  -40.0210  -65.1730   50.8380 N   0  0  0  0  0  0  0  0  0  0  0  0
  -41.2170  -64.8170   51.6290 C   0  0  0  0  0  2  0  0  0  0  0  0
  -42.3710  -64.8030   50.6960 C   0  0  2  0  0  3  0  0  0  0  0  0
  -42.2520  -64.1550   49.5240 O   0  0  0  0  0  0  0  0  0  0  0  0
  -41.0410  -63.8250   49.0520 C   0  0  0  0  0  2  0  0  0  0  0  0
  -39.8650  -64.1030   49.9240 C   0  0  0  0  0  2  0  0  0  0  0  0
  -43.5330  -64.2420   51.4480 C   0  0  0  0  0  0  0  0  0  0  0  0
  -43.9370  -63.0980   51.1080 O   0  0  0  0  0  0  0  0  0  0  0  0
  -44.2020  -64.8950   52.4990 N   0  0  0  0  0  0  0  0  0  0  0  0
  -43.8510  -66.2110   52.9980 C   0  0  0  0  0  2  0  0  0  0  0  0
  -45.3420  -64.2740   53.1890 C   0  0  0  0  0  2  0  0  0  0  0  0
  -44.7330  -66.4860   54.1990 C   0  0  0  0  0  2  0  0  0  0  0  0
  -46.1450  -66.4910   53.8670 N   0  0  0  0  0  0  0  0  0  0  0  0
  -46.4610  -65.3210   53.1100 C   0  0  0  0  0  2  0  0  0  0  0  0
  -46.4510  -67.7310   53.2290 C   0  0  0  0  0  2  0  0  0  0  0  0
  -47.4760  -68.5550   53.9590 C   0  0  0  0  0  3  0  0  0  0  0  0
  -48.8340  -68.5820   53.2580 C   0  0  0  0  0  2  0  0  0  0  0  0
  -48.6480  -67.9640   54.6090 C   0  0  0  0  0  2  0  0  0  0  0  0
  -40.1090  -66.7510   50.2580 S   0  0  0  0  0  0  0  0  0  0  0  0
  -41.3190  -67.4170   50.9270 O   0  0  0  0  0  0  0  0  0  0  0  0
  -40.4160  -66.8340   48.7820 O   0  0  0  0  0  0  0  0  0  0  0  0
  -38.7440  -67.7330   50.6830 C   0  0  0  0  0  0  0  0  0  0  0  0
  -37.5190  -67.5800   50.0720 C   0  0  0  0  0  0  0  0  0  0  0  0
  -36.4420  -68.3960   50.3630 C   0  0  0  0  0  3  0  0  0  0  0  0
  -37.2390  -66.2530   48.9280 Cl  0  0  0  0  0  0  0  0  0  0  0  0
  -36.5830  -69.3960   51.2930 C   0  0  0  0  0  3  0  0  0  0  0  0
  -37.8090  -69.5640   51.9200 C   0  0  0  0  0  3  0  0  0  0  0  0
  -38.8700  -68.7540   51.6270 C   0  0  0  0  0  3  0  0  0  0  0  0
  1  2  1  0  0  0  0
  3  7  1  1  0  0  0
  3  2  1  0  0  0  0
  4  3  1  0  0  0  0
  5  4  1  0  0  0  0
  5  6  1  0  0  0  0
  6  1  1  0  0  0  0
  7  9  1  0  0  0  0
  8  7  2  0  0  0  0
  9 10  1  0  0  0  0
  9 11  1  0  0  0  0
 10 12  1  0  0  0  0
 13 12  1  0  0  0  0
 14 11  1  0  0  0  0
 14 13  1  0  0  0  0
 15 13  1  0  0  0  0
 15 16  1  0  0  0  0
 16 18  1  0  0  0  0
 17 16  1  0  0  0  0
 17 18  1  0  0  0  0
 19 22  1  0  0  0  0
 19  1  1  0  0  0  0
 19 20  2  0  0  0  0
 21 19  2  0  0  0  0
 22 28  1  0  0  0  0
 23 24  1  0  0  0  0
 23 22  2  0  0  0  0
 24 26  2  0  0  0  0
 25 23  1  0  0  0  0
 26 27  1  0  0  0  0
 28 27  2  0  0  0  0
M  END
>  <Pose>
1

>  <Score>
-7.450

$$$$
