/Users/jonathanwahrer/Desktop/Msc/3_Semester/Drug_Design_Praktikum/waehrer_HTS_screening/HTS_experiment/out/docking_results/vina_output/3e7o/2210_docked.pdbqt
 OpenBabel03192216593D

 33 36  0  0  0  0  0  0  0  0999 V2000
  -41.4930  -65.9630   50.4840 C   0  0  0  0  0  3  0  0  0  0  0  0
  -40.7470  -65.0590   49.8340 C   0  0  0  0  0  0  0  0  0  0  0  0
  -39.3640  -64.9680   49.9450 O   0  0  0  0  0  0  0  0  0  0  0  0
  -38.9140  -63.9370   49.1090 C   0  0  0  0  0  0  0  0  0  0  0  0
  -39.9320  -63.3250   48.4430 C   0  0  0  0  0  0  0  0  0  0  0  0
  -39.7090  -62.3010   47.5530 C   0  0  0  0  0  3  0  0  0  0  0  0
  -38.4100  -61.8650   47.3120 C   0  0  0  0  0  3  0  0  0  0  0  0
  -37.3710  -62.4950   47.9990 C   0  0  0  0  0  0  0  0  0  0  0  0
  -37.5970  -63.5030   48.8800 C   0  0  0  0  0  0  0  0  0  0  0  0
  -36.1020  -61.9990   47.7040 O   0  0  0  0  0  1  0  0  0  0  0  0
  -41.1630  -64.0350   48.9000 C   0  0  0  0  0  0  0  0  0  0  0  0
  -42.3260  -63.7920   48.5510 O   0  0  0  0  0  0  0  0  0  0  0  0
  -36.5750  -64.0820   49.7780 C   0  0  0  0  0  2  0  0  0  0  0  0
  -35.8110  -65.0790   49.1910 N   0  0  0  0  0  4  0  0  0  0  0  0
  -34.3800  -64.6700   49.0270 C   0  0  0  0  0  2  0  0  0  0  0  0
  -33.5800  -65.8690   49.5950 C   0  0  0  0  0  2  0  0  0  0  0  0
  -34.4430  -67.0020   49.7040 N   0  0  0  0  0  0  0  0  0  0  0  0
  -35.2300  -67.2820   48.5670 C   0  0  0  0  0  2  0  0  0  0  0  0
  -36.1050  -66.0040   48.2020 C   0  0  0  0  0  2  0  0  0  0  0  0
  -35.6570  -65.7210   50.1290 H   0  0  0  0  0  0  0  0  0  0  0  0
  -34.4660  -67.7210   50.8780 C   0  0  0  0  0  2  0  0  0  0  0  0
  -33.3460  -68.6500   51.2220 C   0  0  0  0  0  2  0  0  0  0  0  0
  -33.8180  -69.9570   51.4220 O   0  0  0  0  0  0  0  0  0  0  0  0
  -34.6330  -69.9190   52.0220 H   0  0  0  0  0  0  0  0  0  0  0  0
  -40.7380  -66.8930   51.3410 C   0  0  0  0  0  0  0  0  0  0  0  0
  -39.7370  -67.6220   50.8050 C   0  0  0  0  0  3  0  0  0  0  0  0
  -39.0880  -68.5730   51.6110 C   0  0  0  0  0  0  0  0  0  0  0  0
  -37.6700  -69.6160   50.8830 Br  0  0  0  0  0  0  0  0  0  0  0  0
  -39.4490  -68.7790   52.9190 C   0  0  0  0  0  3  0  0  0  0  0  0
  -40.4810  -68.0190   53.4320 C   0  0  0  0  0  3  0  0  0  0  0  0
  -41.1390  -67.0620   52.6470 C   0  0  0  0  0  0  0  0  0  0  0  0
  -42.1780  -66.2980   53.1600 O   0  0  0  0  0  0  0  0  0  0  0  0
  -43.1480  -66.7210   54.0540 C   0  0  0  0  0  1  0  0  0  0  0  0
  1 25  1  0  0  0  0
  2  3  1  0  0  0  0
  2  1  2  0  0  0  0
  4  3  1  0  0  0  0
  5 11  1  0  0  0  0
  5  4  2  0  0  0  0
  6  5  1  0  0  0  0
  7  6  2  0  0  0  0
  7  8  1  0  0  0  0
  8  9  2  0  0  0  0
  9  4  1  0  0  0  0
  9 13  1  0  0  0  0
 10  8  1  0  0  0  0
 11  2  1  0  0  0  0
 12 11  2  0  0  0  0
 14 13  1  0  0  0  0
 14 20  1  0  0  0  0
 15 14  1  0  0  0  0
 15 16  1  0  0  0  0
 16 17  1  0  0  0  0
 17 21  1  0  0  0  0
 18 17  1  0  0  0  0
 19 18  1  0  0  0  0
 19 14  1  0  0  0  0
 21 22  1  0  0  0  0
 22 23  1  0  0  0  0
 23 24  1  0  0  0  0
 25 31  1  0  0  0  0
 26 25  2  0  0  0  0
 26 27  1  0  0  0  0
 27 29  2  0  0  0  0
 28 27  1  0  0  0  0
 29 30  1  0  0  0  0
 31 32  1  0  0  0  0
 31 30  2  0  0  0  0
 32 33  1  0  0  0  0
M  END
>  <Pose>
1

>  <Score>
-7.682

$$$$
