/Users/jonathanwahrer/Desktop/Msc/3_Semester/Drug_Design_Praktikum/waehrer_HTS_screening/HTS_experiment/out/docking_results/vina_output/3e7o/2213_docked.pdbqt
 OpenBabel03192216593D

 31 34  0  0  1  0  0  0  0  0999 V2000
  -38.1000  -69.9930   51.0550 Cl  0  0  0  0  0  0  0  0  0  0  0  0
  -36.6460  -69.0280   50.9330 C   0  0  0  0  0  0  0  0  0  0  0  0
  -36.7450  -67.7530   50.3560 C   0  0  2  0  0  3  0  0  0  0  0  0
  -35.6240  -66.9730   50.2460 C   0  0  0  0  0  0  0  0  0  0  0  0
  -34.4240  -67.5070   50.7270 C   0  0  0  0  0  3  0  0  0  0  0  0
  -34.3380  -68.7610   51.2910 C   0  0  0  0  0  0  0  0  0  0  0  0
  -35.4670  -69.5510   51.4040 C   0  0  0  0  0  3  0  0  0  0  0  0
  -32.8170  -69.4110   51.8880 Cl  0  0  0  0  0  0  0  0  0  0  0  0
  -35.6350  -65.6260   49.6560 C   0  0  0  0  0  0  0  0  0  0  0  0
  -36.9900  -65.2520   49.2150 C   0  0  0  0  0  0  0  0  0  0  0  0
  -38.0900  -66.0410   49.3340 C   0  0  0  0  0  0  0  0  0  0  0  0
  -39.3250  -65.6460   48.9080 N   0  0  0  0  0  0  0  0  0  0  0  0
  -39.4290  -64.4380   48.3600 C   0  0  0  0  0  0  0  0  0  0  0  0
  -40.5590  -64.0260   47.9480 O   0  0  0  0  0  0  0  0  0  0  0  0
  -38.3640  -63.6220   48.2220 N   0  0  0  0  0  0  0  0  0  0  0  0
  -37.1490  -63.9990   48.6370 C   0  0  0  0  0  0  0  0  0  0  0  0
  -36.1560  -63.2380   48.5100 O   0  0  0  0  0  0  0  0  0  0  0  0
  -38.5440  -62.3100   47.6160 C   0  0  0  0  0  1  0  0  0  0  0  0
  -40.4750  -66.5120   49.0480 C   0  0  0  0  0  1  0  0  0  0  0  0
  -37.9620  -67.2800   49.9010 O   0  0  0  0  0  0  0  0  0  0  0  0
  -34.6410  -65.5100   48.5380 C   0  0  0  0  0  3  0  0  0  0  0  0
  -34.8140  -66.1630   47.3410 C   0  0  0  0  0  0  0  0  0  0  0  0
  -33.9380  -66.0870   46.3270 N   0  0  0  0  0  0  0  0  0  0  0  0
  -35.9440  -66.9350   47.1690 O   0  0  0  0  0  0  0  0  0  0  0  0
  -32.8350  -65.3340   46.4960 C   0  0  0  0  0  0  0  0  0  0  0  0
  -34.1510  -66.7860   45.0730 C   0  0  0  0  0  1  0  0  0  0  0  0
  -32.0150  -65.2700   45.5340 O   0  0  0  0  0  0  0  0  0  0  0  0
  -32.6250  -64.6780   47.6510 N   0  0  0  0  0  0  0  0  0  0  0  0
  -33.4880  -64.7390   48.6750 C   0  0  0  0  0  0  0  0  0  0  0  0
  -31.4260  -63.8830   47.7850 C   0  0  0  0  0  1  0  0  0  0  0  0
  -33.3200  -64.1390   49.7630 O   0  0  0  0  0  0  0  0  0  0  0  0
  2  1  1  0  0  0  0
  2  7  2  0  0  0  0
  3 20  1  1  0  0  0
  3  2  1  0  0  0  0
  4  3  1  0  0  0  0
  4  5  1  0  0  0  0
  5  6  2  0  0  0  0
  6  7  1  0  0  0  0
  6  8  1  0  0  0  0
  9  4  2  0  0  0  0
 10 11  2  0  0  0  0
 10  9  1  0  0  0  0
 11 20  1  0  0  0  0
 12 19  1  0  0  0  0
 12 11  1  0  0  0  0
 13 12  1  0  0  0  0
 14 13  2  0  0  0  0
 15 13  1  0  0  0  0
 15 16  1  0  0  0  0
 16 10  1  0  0  0  0
 17 16  2  0  0  0  0
 18 15  1  0  0  0  0
 21 29  1  0  0  0  0
 21  9  1  0  0  0  0
 22 21  1  0  0  0  0
 23 25  1  0  0  0  0
 23 22  1  0  0  0  0
 24 22  2  0  0  0  0
 25 28  1  0  0  0  0
 26 23  1  0  0  0  0
 27 25  2  0  0  0  0
 28 30  1  0  0  0  0
 28 29  1  0  0  0  0
 29 31  2  0  0  0  0
M  END
>  <Pose>
1

>  <Score>
-8.027

$$$$
