/Users/jonathanwahrer/Desktop/Msc/3_Semester/Drug_Design_Praktikum/waehrer_HTS_screening/HTS_experiment/out/docking_results/vina_output/3e7o/2231_docked.pdbqt
 OpenBabel03192217003D

 27 31  0  0  0  0  0  0  0  0999 V2000
  -40.2010  -66.7420   51.1670 N   0  0  0  0  0  0  0  0  0  0  0  0
  -39.7280  -65.8170   50.3500 N   0  0  0  0  0  0  0  0  0  0  0  0
  -38.5930  -66.1920   49.7920 N   0  0  0  0  0  0  0  0  0  0  0  0
  -38.2670  -67.4180   50.2360 C   0  0  0  0  0  0  0  0  0  0  0  0
  -39.2920  -67.7470   51.1000 C   0  0  0  0  0  0  0  0  0  0  0  0
  -39.2340  -68.9520   51.7130 N   0  0  0  0  0  0  0  0  0  0  0  0
  -38.1980  -69.7720   51.4610 C   0  0  0  0  0  3  0  0  0  0  0  0
  -37.1940  -69.4420   50.6110 N   0  0  0  0  0  0  0  0  0  0  0  0
  -37.2020  -68.2560   49.9750 C   0  0  0  0  0  0  0  0  0  0  0  0
  -36.1540  -67.8920   49.0760 N   0  0  0  0  0  0  0  0  0  0  0  0
  -36.3590  -68.2200   47.6780 C   0  0  0  0  0  2  0  0  0  0  0  0
  -35.5310  -67.3060   46.7780 C   0  0  0  0  0  2  0  0  0  0  0  0
  -34.2770  -66.9960   47.3640 N   0  0  0  0  0  0  0  0  0  0  0  0
  -34.4050  -66.2370   48.6460 C   0  0  0  0  0  2  0  0  0  0  0  0
  -33.0280  -67.3320   46.8720 C   0  0  0  0  0  0  0  0  0  0  0  0
  -35.0010  -67.2410   49.6150 C   0  0  0  0  0  2  0  0  0  0  0  0
  -32.0220  -66.9140   47.6220 O   0  0  0  0  0  0  0  0  0  0  0  0
  -32.5910  -68.0580   45.6890 C   0  0  0  0  0  3  0  0  0  0  0  0
  -31.4240  -67.5490   44.9310 C   0  0  0  0  0  2  0  0  0  0  0  0
  -31.4250  -68.9250   45.5560 C   0  0  0  0  0  2  0  0  0  0  0  0
  -41.3930  -66.6890   51.9360 C   0  0  0  0  0  0  0  0  0  0  0  0
  -41.5100  -67.1700   53.2190 C   0  0  0  0  0  3  0  0  0  0  0  0
  -42.6940  -67.0930   53.9180 C   0  0  0  0  0  3  0  0  0  0  0  0
  -43.7990  -66.5230   53.3370 C   0  0  0  0  0  0  0  0  0  0  0  0
  -45.2890  -66.4270   54.2240 Cl  0  0  0  0  0  0  0  0  0  0  0  0
  -43.7150  -66.0350   52.0650 C   0  0  0  0  0  3  0  0  0  0  0  0
  -42.5180  -66.1230   51.3800 C   0  0  0  0  0  3  0  0  0  0  0  0
  1 21  1  0  0  0  0
  2  1  1  0  0  0  0
  3  4  1  0  0  0  0
  3  2  2  0  0  0  0
  4  5  1  0  0  0  0
  5  1  1  0  0  0  0
  5  6  2  0  0  0  0
  7  6  1  0  0  0  0
  8  7  2  0  0  0  0
  9  4  2  0  0  0  0
  9  8  1  0  0  0  0
 10 16  1  0  0  0  0
 10  9  1  0  0  0  0
 11 10  1  0  0  0  0
 12 13  1  0  0  0  0
 12 11  1  0  0  0  0
 13 14  1  0  0  0  0
 14 16  1  0  0  0  0
 15 13  1  0  0  0  0
 15 17  2  0  0  0  0
 18 15  1  0  0  0  0
 19 20  1  0  0  0  0
 19 18  1  0  0  0  0
 20 18  1  0  0  0  0
 21 22  1  0  0  0  0
 22 23  2  0  0  0  0
 24 23  1  0  0  0  0
 24 25  1  0  0  0  0
 26 24  2  0  0  0  0
 27 21  2  0  0  0  0
 27 26  1  0  0  0  0
M  END
>  <Pose>
1

>  <Score>
-7.375

$$$$
