/Users/jonathanwahrer/Desktop/Msc/3_Semester/Drug_Design_Praktikum/waehrer_HTS_screening/HTS_experiment/out/docking_results/vina_output/3e7o/2242_docked.pdbqt
 OpenBabel03192217003D

 32 35  0  0  0  0  0  0  0  0999 V2000
  -40.5840  -66.9670   52.1670 N   0  0  0  0  0  0  0  0  0  0  0  0
  -40.2250  -67.4940   50.9250 C   0  0  0  0  0  0  0  0  0  0  0  0
  -41.0520  -67.9240   50.1080 O   0  0  0  0  0  0  0  0  0  0  0  0
  -39.7990  -66.6230   52.8060 H   0  0  0  0  0  0  0  0  0  0  0  0
  -38.7940  -67.5620   50.5170 C   0  0  0  0  0  0  0  0  0  0  0  0
  -38.2770  -66.5500   49.8930 N   0  0  0  0  0  0  0  0  0  0  0  0
  -36.9470  -66.5320   49.4770 N   0  0  0  0  0  0  0  0  0  0  0  0
  -36.1330  -67.6520   49.7440 C   0  0  0  0  0  0  0  0  0  0  0  0
  -34.9000  -67.5550   49.4240 O   0  0  0  0  0  0  0  0  0  0  0  0
  -36.6550  -68.8880   50.3630 C   0  0  0  0  0  2  0  0  0  0  0  0
  -37.9950  -68.6990   50.7970 N   0  0  0  0  0  0  0  0  0  0  0  0
  -38.4480  -69.4560   51.3720 H   0  0  0  0  0  0  0  0  0  0  0  0
  -36.4060  -65.3860   48.7770 C   0  0  0  0  0  0  0  0  0  0  0  0
  -36.3210  -65.3540   47.4060 C   0  0  0  0  0  3  0  0  0  0  0  0
  -35.7980  -64.2330   46.7540 C   0  0  0  0  0  3  0  0  0  0  0  0
  -35.3550  -63.1390   47.4690 C   0  0  0  0  0  0  0  0  0  0  0  0
  -35.4450  -63.1870   48.8420 C   0  0  0  0  0  3  0  0  0  0  0  0
  -34.7920  -61.9180   46.8210 C   0  0  0  0  0  1  0  0  0  0  0  0
  -35.9570  -64.2830   49.4710 C   0  0  0  0  0  3  0  0  0  0  0  0
  -41.8960  -66.8540   52.6450 C   0  0  0  0  0  0  0  0  0  0  0  0
  -42.1770  -67.3790   53.9090 C   0  0  0  0  0  0  0  0  0  0  0  0
  -40.9040  -68.1560   54.8260 Cl  0  0  0  0  0  0  0  0  0  0  0  0
  -43.4250  -67.3080   54.4600 C   0  0  0  0  0  3  0  0  0  0  0  0
  -44.4680  -66.7170   53.8040 C   0  0  0  0  0  0  0  0  0  0  0  0
  -44.2330  -66.1890   52.5620 C   0  0  0  0  0  0  0  0  0  0  0  0
  -45.7840  -66.6200   54.3620 N   0  0  0  0  0  0  0  0  0  0  0  0
  -42.9470  -66.2660   52.0000 C   0  0  0  0  0  3  0  0  0  0  0  0
  -45.2400  -65.5710   51.8250 O   0  0  0  0  0  0  0  0  0  0  0  0
  -46.4590  -65.1130   52.4290 C   0  0  0  0  0  2  0  0  0  0  0  0
  -46.7990  -65.9740   53.6000 C   0  0  0  0  0  0  0  0  0  0  0  0
  -48.0060  -66.1200   53.9020 O   0  0  0  0  0  0  0  0  0  0  0  0
  -45.9920  -67.0120   55.3010 H   0  0  0  0  0  0  0  0  0  0  0  0
  1 20  1  0  0  0  0
  1  4  1  0  0  0  0
  2  1  1  0  0  0  0
  3  2  2  0  0  0  0
  5 11  1  0  0  0  0
  5  2  1  0  0  0  0
  6  5  2  0  0  0  0
  7  8  1  0  0  0  0
  7  6  1  0  0  0  0
  8 10  1  0  0  0  0
  9  8  2  0  0  0  0
 10 11  1  0  0  0  0
 11 12  1  0  0  0  0
 13 19  1  0  0  0  0
 13  7  1  0  0  0  0
 14 13  2  0  0  0  0
 15 14  1  0  0  0  0
 15 16  2  0  0  0  0
 16 17  1  0  0  0  0
 17 19  2  0  0  0  0
 18 16  1  0  0  0  0
 20 21  1  0  0  0  0
 21 23  2  0  0  0  0
 21 22  1  0  0  0  0
 24 26  1  0  0  0  0
 24 23  1  0  0  0  0
 25 24  2  0  0  0  0
 26 32  1  0  0  0  0
 27 25  1  0  0  0  0
 27 20  2  0  0  0  0
 28 29  1  0  0  0  0
 28 25  1  0  0  0  0
 29 30  1  0  0  0  0
 30 31  2  0  0  0  0
 30 26  1  0  0  0  0
M  END
>  <Pose>
1

>  <Score>
-8.701

$$$$
