/Users/jonathanwahrer/Desktop/Msc/3_Semester/Drug_Design_Praktikum/waehrer_HTS_screening/HTS_experiment/out/docking_results/vina_output/3e7o/2281_docked.pdbqt
 OpenBabel03192217023D

 34 37  0  0  1  0  0  0  0  0999 V2000
  -40.6320  -63.5450   48.7810 N   0  0  0  0  0  0  0  0  0  0  0  0
  -41.2850  -63.5810   47.5410 C   0  0  0  0  0  2  0  0  0  0  0  0
  -40.2320  -63.1530   46.4540 C   0  0  0  0  0  2  0  0  0  0  0  0
  -38.9130  -63.0820   46.8450 N   0  0  0  0  0  0  0  0  0  0  0  0
  -38.5970  -62.8100   48.2210 C   0  0  0  0  0  2  0  0  0  0  0  0
  -39.8570  -62.2430   48.9530 C   0  0  0  0  0  2  0  0  0  0  0  0
  -40.3780  -64.4680   49.7830 C   0  0  2  0  0  3  0  0  0  0  0  0
  -40.1540  -65.7670   49.6370 C   0  0  1  0  0  3  0  0  0  0  0  0
  -39.6550  -66.3420   47.9960 Cl  0  0  0  0  0  0  0  0  0  0  0  0
  -40.2640  -66.6990   50.6700 C   0  0  0  0  0  0  0  0  0  0  0  0
  -40.5950  -66.2830   51.8610 N   0  0  0  0  0  0  0  0  0  0  0  0
  -40.0460  -67.9240   50.3770 O   0  0  0  0  0  0  0  0  0  0  0  0
  -40.8170  -64.9570   52.0570 N   0  0  0  0  0  0  0  0  0  0  0  0
  -40.7340  -64.0480   51.1600 C   0  0  0  0  0  3  0  0  0  0  0  0
  -41.0050  -67.1850   52.9360 C   0  0  0  0  0  0  0  0  0  0  0  0
  -40.1240  -67.9490   53.6320 C   0  0  0  0  0  3  0  0  0  0  0  0
  -40.5230  -68.6960   54.7190 C   0  0  0  0  0  3  0  0  0  0  0  0
  -41.8530  -68.6870   55.1380 C   0  0  0  0  0  3  0  0  0  0  0  0
  -42.7360  -67.9000   54.3990 C   0  0  0  0  0  3  0  0  0  0  0  0
  -42.3270  -67.1810   53.3450 C   0  0  0  0  0  3  0  0  0  0  0  0
  -38.0910  -62.0510   46.1270 C   0  0  0  0  0  2  0  0  0  0  0  0
  -36.7120  -62.1150   46.5880 C   0  0  0  0  0  0  0  0  0  0  0  0
  -36.0410  -61.4580   47.1930 O   0  0  0  0  0  0  0  0  0  0  0  0
  -35.9890  -63.5680   46.0550 N   0  0  0  0  0  0  0  0  0  0  0  0
  -34.8040  -63.4570   46.9760 C   0  0  0  0  0  0  0  0  0  0  0  0
  -36.5990  -63.6190   45.5820 H   0  0  0  0  0  0  0  0  0  0  0  0
  -34.2950  -62.4340   47.3410 O   0  0  0  0  0  0  0  0  0  0  0  0
  -34.3650  -64.7720   47.3830 N   0  0  0  0  0  0  0  0  0  0  0  0
  -34.9030  -65.5890   46.9400 H   0  0  0  0  0  0  0  0  0  0  0  0
  -33.3090  -65.0950   48.2660 C   0  0  0  0  0  3  0  0  0  0  0  0
  -33.3740  -64.6620   49.6740 C   0  0  0  0  0  2  0  0  0  0  0  0
  -34.0280  -65.7940   50.4720 C   0  0  0  0  0  2  0  0  0  0  0  0
  -33.5200  -67.0080   49.7290 C   0  0  0  0  0  2  0  0  0  0  0  0
  -33.3030  -66.6360   48.3290 C   0  0  0  0  0  2  0  0  0  0  0  0
  1  6  1  0  0  0  0
  2  1  1  0  0  0  0
  3  4  1  0  0  0  0
  3  2  1  0  0  0  0
  4  5  1  0  0  0  0
  5  6  1  0  0  0  0
  7  1  1  6  0  0  0
  7 14  1  0  0  0  0
  8  9  1  1  0  0  0
  8  7  1  0  0  0  0
  8 10  1  0  0  0  0
 10 11  1  0  0  0  0
 11 13  1  0  0  0  0
 11 15  1  0  0  0  0
 12 10  2  0  0  0  0
 14 13  2  0  0  0  0
 15 20  2  0  0  0  0
 15 16  1  0  0  0  0
 16 17  2  0  0  0  0
 17 18  1  0  0  0  0
 19 18  2  0  0  0  0
 20 19  1  0  0  0  0
 21 22  1  0  0  0  0
 21  4  1  0  0  0  0
 22 23  2  0  0  0  0
 24 22  1  0  0  0  0
 24 25  1  0  0  0  0
 25 27  2  0  0  0  0
 25 28  1  0  0  0  0
 26 24  1  0  0  0  0
 28 30  1  0  0  0  0
 29 28  1  0  0  0  0
 30 34  1  0  0  0  0
 30 31  1  0  0  0  0
 31 32  1  0  0  0  0
 33 32  1  0  0  0  0
 34 33  1  0  0  0  0
M  END
>  <Pose>
1

>  <Score>
-7.881

$$$$
