/Users/jonathanwahrer/Desktop/Msc/3_Semester/Drug_Design_Praktikum/waehrer_HTS_screening/HTS_experiment/out/docking_results/vina_output/3e7o/2282_docked.pdbqt
 OpenBabel03192217023D

 31 34  0  0  1  0  0  0  0  0999 V2000
  -38.9950  -65.5980   48.8520 N   0  0  0  0  0  0  0  0  0  0  0  0
  -38.9050  -66.2550   47.5710 C   0  0  0  0  0  2  0  0  0  0  0  0
  -37.5550  -66.8820   47.4120 C   0  0  0  0  0  2  0  0  0  0  0  0
  -36.9110  -66.8460   48.7010 N   0  0  0  0  0  0  0  0  0  0  0  0
  -36.5810  -65.5020   49.0110 C   0  0  0  0  0  2  0  0  0  0  0  0
  -37.8980  -64.7730   49.2940 C   0  0  0  0  0  2  0  0  0  0  0  0
  -40.1250  -65.7260   49.7010 C   0  0  0  0  0  0  0  0  0  0  0  0
  -40.9100  -64.6320   50.0530 C   0  0  0  0  0  0  0  0  0  0  0  0
  -40.4390  -63.0730   49.4100 Cl  0  0  0  0  0  0  0  0  0  0  0  0
  -42.0090  -64.7860   50.8750 C   0  0  0  0  0  0  0  0  0  0  0  0
  -42.3630  -65.9890   51.3650 N   0  0  0  0  0  0  0  0  0  0  0  0
  -42.7170  -63.7890   51.1910 O   0  0  0  0  0  0  0  0  0  0  0  0
  -41.6060  -67.0150   51.0190 N   0  0  0  0  0  0  0  0  0  0  0  0
  -40.5240  -66.9370   50.2250 C   0  0  0  0  0  3  0  0  0  0  0  0
  -43.5060  -66.1490   52.2160 C   0  0  0  0  0  0  0  0  0  0  0  0
  -43.3380  -66.4100   53.5560 C   0  0  0  0  0  3  0  0  0  0  0  0
  -44.4460  -66.5680   54.3960 C   0  0  0  0  0  3  0  0  0  0  0  0
  -45.7300  -66.4660   53.9120 C   0  0  0  0  0  3  0  0  0  0  0  0
  -45.9080  -66.2040   52.5710 C   0  0  0  0  0  3  0  0  0  0  0  0
  -44.7980  -66.0500   51.7460 C   0  0  0  0  0  3  0  0  0  0  0  0
  -35.9580  -67.8520   48.9530 C   0  0  0  0  0  2  0  0  0  0  0  0
  -36.1100  -68.5330   50.2430 C   0  0  0  0  0  0  0  0  0  0  0  0
  -35.0290  -68.7650   50.8850 O   0  0  0  0  0  0  0  0  0  0  0  0
  -37.3280  -68.9480   50.8340 N   0  0  0  0  0  0  0  0  0  0  0  0
  -38.2060  -68.7480   50.3130 H   0  0  0  0  0  0  0  0  0  0  0  0
  -37.4270  -69.6150   52.1070 C   0  0  0  0  0  2  0  0  0  0  0  0
  -38.8680  -69.7550   52.4890 C   0  0  1  0  0  3  0  0  0  0  0  0
  -38.9880  -70.6930   53.4800 O   0  0  0  0  0  0  0  0  0  0  0  0
  -39.5910  -70.1610   54.5870 C   0  0  0  0  0  2  0  0  0  0  0  0
  -40.4610  -69.0610   54.0160 C   0  0  0  0  0  2  0  0  0  0  0  0
  -39.4370  -68.4560   53.0400 C   0  0  0  0  0  2  0  0  0  0  0  0
  1  6  1  0  0  0  0
  1  7  1  0  0  0  0
  2  1  1  0  0  0  0
  3  2  1  0  0  0  0
  3  4  1  0  0  0  0
  4 21  1  0  0  0  0
  4  5  1  0  0  0  0
  5  6  1  0  0  0  0
  7  8  2  0  0  0  0
  7 14  1  0  0  0  0
  8 10  1  0  0  0  0
  9  8  1  0  0  0  0
 10 12  2  0  0  0  0
 10 11  1  0  0  0  0
 11 15  1  0  0  0  0
 13 11  1  0  0  0  0
 14 13  2  0  0  0  0
 15 16  1  0  0  0  0
 16 17  2  0  0  0  0
 18 17  1  0  0  0  0
 19 18  2  0  0  0  0
 20 15  2  0  0  0  0
 20 19  1  0  0  0  0
 21 22  1  0  0  0  0
 22 24  1  0  0  0  0
 22 23  2  0  0  0  0
 24 26  1  0  0  0  0
 25 24  1  0  0  0  0
 27 26  1  1  0  0  0
 27 31  1  0  0  0  0
 27 28  1  0  0  0  0
 28 29  1  0  0  0  0
 30 29  1  0  0  0  0
 31 30  1  0  0  0  0
M  END
>  <Pose>
1

>  <Score>
-7.822

$$$$
