/Users/jonathanwahrer/Desktop/Msc/3_Semester/Drug_Design_Praktikum/waehrer_HTS_screening/HTS_experiment/out/docking_results/vina_output/3e7o/2284_docked.pdbqt
 OpenBabel03192217023D

 33 37  0  0  0  0  0  0  0  0999 V2000
  -37.7240  -68.2390   50.5560 C   0  0  0  0  0  0  0  0  0  0  0  0
  -38.2330  -68.9680   51.6120 C   0  0  0  0  0  3  0  0  0  0  0  0
  -39.4510  -68.7400   52.2010 C   0  0  0  0  0  0  0  0  0  0  0  0
  -39.8150  -69.4820   53.1720 O   0  0  0  0  0  0  0  0  0  0  0  0
  -40.2460  -67.7310   51.7350 N   0  0  0  0  0  0  0  0  0  0  0  0
  -41.3930  -67.4170   52.1900 N   0  0  0  0  0  0  0  0  0  0  0  0
  -42.0980  -66.4420   51.6990 C   0  0  0  0  0  0  0  0  0  0  0  0
  -41.0240  -65.9060   50.4560 S   0  0  0  0  0  0  0  0  0  0  0  0
  -39.7510  -67.0290   50.7140 C   0  0  0  0  0  0  0  0  0  0  0  0
  -38.5500  -67.2560   50.1380 N   0  0  0  0  0  0  0  0  0  0  0  0
  -36.3990  -68.5270   49.9560 C   0  0  0  0  0  2  0  0  0  0  0  0
  -35.9630  -67.3760   49.2320 N   0  0  0  0  0  0  0  0  0  0  0  0
  -35.6690  -67.5600   47.8670 C   0  0  0  0  0  2  0  0  0  0  0  0
  -35.6560  -66.1920   47.1780 C   0  0  0  0  0  2  0  0  0  0  0  0
  -34.8440  -65.2940   47.8760 N   0  0  0  0  0  0  0  0  0  0  0  0
  -34.1240  -65.8640   48.9370 C   0  0  0  0  0  2  0  0  0  0  0  0
  -35.0700  -66.5210   49.9170 C   0  0  0  0  0  2  0  0  0  0  0  0
  -35.1110  -63.6570   47.8140 S   0  0  0  0  0  0  0  0  0  0  0  0
  -34.9030  -63.1840   46.3790 O   0  0  0  0  0  0  0  0  0  0  0  0
  -34.2040  -62.8860   48.7380 O   0  0  0  0  0  0  0  0  0  0  0  0
  -36.7750  -63.2720   48.1930 C   0  0  0  0  0  0  0  0  0  0  0  0
  -37.5350  -62.2930   47.6270 N   0  0  0  0  0  0  0  0  0  0  0  0
  -38.7560  -62.2870   48.1650 C   0  0  0  0  0  3  0  0  0  0  0  0
  -38.8410  -63.2520   49.0920 N   0  0  0  0  0  0  0  0  0  0  0  0
  -37.6210  -63.8550   49.1050 C   0  0  0  0  0  3  0  0  0  0  0  0
  -39.6640  -63.4840   49.6720 H   0  0  0  0  0  0  0  0  0  0  0  0
  -43.4180  -65.9090   52.0540 C   0  0  0  0  0  0  0  0  0  0  0  0
  -43.8120  -64.7030   51.5140 C   0  0  0  0  0  3  0  0  0  0  0  0
  -45.0490  -64.1460   51.8110 C   0  0  0  0  0  3  0  0  0  0  0  0
  -45.9100  -64.8060   52.6630 C   0  0  0  0  0  0  0  0  0  0  0  0
  -45.5370  -66.0180   53.2170 C   0  0  0  0  0  3  0  0  0  0  0  0
  -47.4580  -64.1220   53.0420 Cl  0  0  0  0  0  0  0  0  0  0  0  0
  -44.3010  -66.5300   52.8930 C   0  0  0  0  0  3  0  0  0  0  0  0
  1  2  2  0  0  0  0
  2  3  1  0  0  0  0
  3  4  2  0  0  0  0
  5  6  1  0  0  0  0
  5  3  1  0  0  0  0
  7 27  1  0  0  0  0
  7  6  2  0  0  0  0
  8  9  1  0  0  0  0
  8  7  1  0  0  0  0
  9  5  1  0  0  0  0
 10  1  1  0  0  0  0
 10  9  2  0  0  0  0
 11  1  1  0  0  0  0
 12 17  1  0  0  0  0
 12 11  1  0  0  0  0
 13 12  1  0  0  0  0
 14 13  1  0  0  0  0
 14 15  1  0  0  0  0
 15 16  1  0  0  0  0
 16 17  1  0  0  0  0
 18 15  1  0  0  0  0
 18 21  1  0  0  0  0
 18 20  2  0  0  0  0
 19 18  2  0  0  0  0
 21 25  2  0  0  0  0
 22 23  2  0  0  0  0
 22 21  1  0  0  0  0
 23 24  1  0  0  0  0
 24 25  1  0  0  0  0
 24 26  1  0  0  0  0
 27 33  1  0  0  0  0
 28 29  1  0  0  0  0
 28 27  2  0  0  0  0
 29 30  2  0  0  0  0
 30 32  1  0  0  0  0
 30 31  1  0  0  0  0
 33 31  2  0  0  0  0
M  END
>  <Pose>
1

>  <Score>
-7.756

$$$$
