/Users/jonathanwahrer/Desktop/Msc/3_Semester/Drug_Design_Praktikum/waehrer_HTS_screening/HTS_experiment/out/docking_results/vina_output/3e7o/2298_docked.pdbqt
 OpenBabel03192217033D

 34 37  0  0  0  0  0  0  0  0999 V2000
  -39.8960  -65.4170   48.6420 C   0  0  0  0  0  2  0  0  0  0  0  0
  -40.5310  -64.2160   49.1010 N   0  0  0  0  0  0  0  0  0  0  0  0
  -41.9490  -64.2810   49.1250 C   0  0  0  0  0  2  0  0  0  0  0  0
  -42.5900  -64.0810   50.4720 C   0  0  0  0  0  2  0  0  0  0  0  0
  -41.9150  -64.7890   51.4450 N   0  0  0  0  0  0  0  0  0  0  0  0
  -40.5250  -64.6390   51.4870 C   0  0  0  0  0  2  0  0  0  0  0  0
  -40.0050  -63.7660   50.3490 C   0  0  0  0  0  2  0  0  0  0  0  0
  -42.6660  -65.7910   52.5380 S   0  0  0  0  0  0  0  0  0  0  0  0
  -43.0270  -65.1120   53.8360 O   0  0  0  0  0  0  0  0  0  0  0  0
  -43.9520  -66.4060   52.0330 O   0  0  0  0  0  0  0  0  0  0  0  0
  -41.5880  -67.1140   52.9750 C   0  0  0  0  0  0  0  0  0  0  0  0
  -41.4130  -67.4860   54.2780 C   0  0  0  0  0  3  0  0  0  0  0  0
  -40.5760  -68.5150   54.6230 C   0  0  0  0  0  3  0  0  0  0  0  0
  -39.8960  -69.1830   53.6290 C   0  0  0  0  0  0  0  0  0  0  0  0
  -40.0700  -68.8090   52.3100 C   0  0  0  0  0  3  0  0  0  0  0  0
  -38.8320  -70.4950   54.1030 Cl  0  0  0  0  0  0  0  0  0  0  0  0
  -40.9120  -67.7780   51.9760 C   0  0  0  0  0  3  0  0  0  0  0  0
  -38.4280  -65.2000   48.4140 C   0  0  0  0  0  0  0  0  0  0  0  0
  -38.1020  -64.5860   47.3740 O   0  0  0  0  0  0  0  0  0  0  0  0
  -37.4600  -65.6690   49.3370 N   0  0  0  0  0  0  0  0  0  0  0  0
  -37.8020  -66.1770   50.1960 H   0  0  0  0  0  0  0  0  0  0  0  0
  -36.0800  -65.4170   49.0380 C   0  0  0  0  0  2  0  0  0  0  0  0
  -35.1520  -66.5630   49.1660 C   0  0  0  0  0  0  0  0  0  0  0  0
  -35.9400  -67.8500   49.1690 C   0  0  0  0  0  2  0  0  0  0  0  0
  -36.3190  -68.2930   50.5850 C   0  0  0  0  0  2  0  0  0  0  0  0
  -35.0780  -68.6980   51.3560 C   0  0  0  0  0  2  0  0  0  0  0  0
  -33.9340  -67.8370   50.8550 C   0  0  0  0  0  2  0  0  0  0  0  0
  -34.5290  -66.4730   50.5730 C   0  0  0  0  0  2  0  0  0  0  0  0
  -34.0710  -66.6480   48.2610 N   0  0  0  0  0  0  0  0  0  0  0  0
  -34.3150  -67.1730   46.9650 C   0  0  0  0  0  2  0  0  0  0  0  0
  -32.9360  -67.5500   46.3950 C   0  0  0  0  0  2  0  0  0  0  0  0
  -32.1560  -66.4260   46.2650 O   0  0  0  0  0  0  0  0  0  0  0  0
  -32.7500  -65.2690   46.7010 C   0  0  0  0  0  2  0  0  0  0  0  0
  -33.3290  -65.4150   48.1080 C   0  0  0  0  0  2  0  0  0  0  0  0
  1  2  1  0  0  0  0
  2  3  1  0  0  0  0
  2  7  1  0  0  0  0
  3  4  1  0  0  0  0
  4  5  1  0  0  0  0
  5  6  1  0  0  0  0
  5  8  1  0  0  0  0
  7  6  1  0  0  0  0
  8 11  1  0  0  0  0
  8  9  2  0  0  0  0
 10  8  2  0  0  0  0
 11 12  1  0  0  0  0
 12 13  2  0  0  0  0
 14 16  1  0  0  0  0
 14 13  1  0  0  0  0
 15 14  2  0  0  0  0
 17 15  1  0  0  0  0
 17 11  2  0  0  0  0
 18  1  1  0  0  0  0
 18 20  1  0  0  0  0
 19 18  2  0  0  0  0
 20 21  1  0  0  0  0
 22 23  1  0  0  0  0
 22 20  1  0  0  0  0
 23 24  1  0  0  0  0
 23 28  1  0  0  0  0
 24 25  1  0  0  0  0
 25 26  1  0  0  0  0
 27 26  1  0  0  0  0
 28 27  1  0  0  0  0
 29 23  1  0  0  0  0
 30 29  1  0  0  0  0
 31 30  1  0  0  0  0
 32 31  1  0  0  0  0
 32 33  1  0  0  0  0
 33 34  1  0  0  0  0
 34 29  1  0  0  0  0
M  END
>  <Pose>
1

>  <Score>
-8.132

$$$$
