/Users/jonathanwahrer/Desktop/Msc/3_Semester/Drug_Design_Praktikum/waehrer_HTS_screening/HTS_experiment/out/docking_results/vina_output/3e7o/2301_docked.pdbqt
 OpenBabel03192217043D

 24 27  0  0  1  0  0  0  0  0999 V2000
  -42.7770  -65.8160   52.9930 C   0  0  2  0  0  0  0  0  0  0  0  0
  -42.0560  -65.7400   51.6880 C   0  0  0  0  0  2  0  0  0  0  0  0
  -41.8800  -67.1450   51.0860 C   0  0  0  0  0  2  0  0  0  0  0  0
  -40.9930  -67.8030   52.0560 N   0  0  0  0  0  0  0  0  0  0  0  0
  -41.5760  -68.0160   53.3430 C   0  0  0  0  0  2  0  0  0  0  0  0
  -42.1750  -66.7790   53.9460 C   0  0  0  0  0  2  0  0  0  0  0  0
  -44.2190  -65.9870   52.7490 C   0  0  0  0  0  0  0  0  0  0  0  0
  -44.9510  -65.3340   51.8000 C   0  0  0  0  0  3  0  0  0  0  0  0
  -46.2890  -65.5900   51.6860 C   0  0  0  0  0  3  0  0  0  0  0  0
  -46.9740  -66.4930   52.4890 C   0  0  0  0  0  0  0  0  0  0  0  0
  -48.6880  -66.7960   52.2980 Cl  0  0  0  0  0  0  0  0  0  0  0  0
  -46.2310  -67.1440   53.4420 C   0  0  0  0  0  3  0  0  0  0  0  0
  -44.8780  -66.8980   53.5730 C   0  0  0  0  0  3  0  0  0  0  0  0
  -42.6620  -64.5250   53.5690 O   0  0  0  0  0  0  0  0  0  0  0  0
  -43.1380  -64.5640   54.4550 H   0  0  0  0  0  0  0  0  0  0  0  0
  -39.6830  -68.1560   51.6520 C   0  0  0  0  0  0  0  0  0  0  0  0
  -39.0970  -67.4870   50.6440 N   0  0  0  0  0  0  0  0  0  0  0  0
  -37.8820  -67.7140   50.1850 N   0  0  0  0  0  0  0  0  0  0  0  0
  -37.1200  -67.1840   49.2240 N   0  0  0  0  0  0  0  0  0  0  0  0
  -37.1440  -68.6740   50.7380 C   0  0  0  0  0  0  0  0  0  0  0  0
  -35.9530  -67.7870   49.1730 N   0  0  0  0  0  0  0  0  0  0  0  0
  -35.9480  -68.7060   50.0990 N   0  0  0  0  0  0  0  0  0  0  0  0
  -37.6800  -69.4060   51.7830 C   0  0  0  0  0  3  0  0  0  0  0  0
  -38.9530  -69.1560   52.2500 C   0  0  0  0  0  3  0  0  0  0  0  0
  1 14  1  1  0  0  0
  1  6  1  0  0  0  0
  2  1  1  0  0  0  0
  3  2  1  0  0  0  0
  3  4  1  0  0  0  0
  4  5  1  0  0  0  0
  5  6  1  0  0  0  0
  7  1  1  0  0  0  0
  7 13  1  0  0  0  0
  8  7  2  0  0  0  0
  9  8  1  0  0  0  0
  9 10  2  0  0  0  0
 10 12  1  0  0  0  0
 11 10  1  0  0  0  0
 12 13  2  0  0  0  0
 14 15  1  0  0  0  0
 16  4  1  0  0  0  0
 16 24  1  0  0  0  0
 17 16  2  0  0  0  0
 18 17  1  0  0  0  0
 18 20  1  0  0  0  0
 19 18  1  0  0  0  0
 20 23  1  0  0  0  0
 21 19  2  0  0  0  0
 21 22  1  0  0  0  0
 22 20  2  0  0  0  0
 23 24  2  0  0  0  0
M  END
>  <Pose>
1

>  <Score>
-7.834

$$$$
