/Users/jonathanwahrer/Desktop/Msc/3_Semester/Drug_Design_Praktikum/waehrer_HTS_screening/HTS_experiment/out/docking_results/vina_output/3e7o/2345_docked.pdbqt
 OpenBabel03192217053D

 27 30  0  0  1  0  0  0  0  0999 V2000
  -35.0840  -67.5250   50.2320 C   0  0  0  0  0  0  0  0  0  0  0  0
  -34.4270  -67.2960   51.3150 O   0  0  0  0  0  0  0  0  0  0  0  0
  -34.8200  -66.6700   49.1570 N   0  0  0  0  0  0  0  0  0  0  0  0
  -33.8590  -65.5880   49.3000 C   0  0  0  0  0  2  0  0  0  0  0  0
  -34.5120  -64.2470   48.9810 C   0  0  0  0  0  2  0  0  0  0  0  0
  -35.4780  -64.4340   47.9380 N   0  0  0  0  0  0  0  0  0  0  0  0
  -35.3020  -65.5230   47.0260 C   0  0  0  0  0  2  0  0  0  0  0  0
  -35.4630  -66.8030   47.8710 C   0  0  0  0  0  2  0  0  0  0  0  0
  -36.0280  -68.6490   50.2570 C   0  0  2  0  0  3  0  0  0  0  0  0
  -37.4260  -68.3160   49.8160 C   0  0  0  0  0  2  0  0  0  0  0  0
  -38.2720  -68.4490   50.9960 N   0  0  0  0  0  0  0  0  0  0  0  0
  -37.5900  -69.3930   51.8490 C   0  0  0  0  0  0  0  0  0  0  0  0
  -36.1380  -69.3750   51.5560 C   0  0  0  0  0  2  0  0  0  0  0  0
  -38.2380  -70.0890   52.6970 O   0  0  0  0  0  0  0  0  0  0  0  0
  -39.5100  -67.7990   51.2690 C   0  0  0  0  0  0  0  0  0  0  0  0
  -39.9370  -67.5410   52.5540 C   0  0  0  0  0  3  0  0  0  0  0  0
  -41.1400  -66.9140   52.8230 C   0  0  0  0  0  3  0  0  0  0  0  0
  -41.9570  -66.5230   51.7960 C   0  0  0  0  0  0  0  0  0  0  0  0
  -43.4950  -65.7220   52.1210 Cl  0  0  0  0  0  0  0  0  0  0  0  0
  -41.5640  -66.7630   50.5080 C   0  0  0  0  0  3  0  0  0  0  0  0
  -40.3430  -67.4000   50.2460 C   0  0  0  0  0  3  0  0  0  0  0  0
  -36.5870  -63.5710   47.8140 C   0  0  0  0  0  0  0  0  0  0  0  0
  -37.7550  -63.6400   48.5110 N   0  0  0  0  0  0  0  0  0  0  0  0
  -38.5580  -62.6430   48.1150 C   0  0  0  0  0  3  0  0  0  0  0  0
  -38.0800  -64.6470   49.5290 C   0  0  0  0  0  1  0  0  0  0  0  0
  -37.9010  -61.9210   47.1470 C   0  0  0  0  0  3  0  0  0  0  0  0
  -36.7270  -62.5090   46.9960 N   0  0  0  0  0  0  0  0  0  0  0  0
  1  2  2  0  0  0  0
  3  4  1  0  0  0  0
  3  1  1  0  0  0  0
  5  4  1  0  0  0  0
  6  5  1  0  0  0  0
  7  8  1  0  0  0  0
  7  6  1  0  0  0  0
  8  3  1  0  0  0  0
  9  1  1  1  0  0  0
  9 13  1  0  0  0  0
 10  9  1  0  0  0  0
 10 11  1  0  0  0  0
 11 15  1  0  0  0  0
 11 12  1  0  0  0  0
 12 14  2  0  0  0  0
 13 12  1  0  0  0  0
 15 16  1  0  0  0  0
 16 17  2  0  0  0  0
 18 19  1  0  0  0  0
 18 17  1  0  0  0  0
 20 18  2  0  0  0  0
 21 20  1  0  0  0  0
 21 15  2  0  0  0  0
 22  6  1  0  0  0  0
 22 23  1  0  0  0  0
 23 25  1  0  0  0  0
 24 23  1  0  0  0  0
 26 24  2  0  0  0  0
 27 26  1  0  0  0  0
 27 22  2  0  0  0  0
M  END
>  <Pose>
1

>  <Score>
-7.705

$$$$
