/Users/jonathanwahrer/Desktop/Msc/3_Semester/Drug_Design_Praktikum/waehrer_HTS_screening/HTS_experiment/out/docking_results/vina_output/3e7o/2359_docked.pdbqt
 OpenBabel03192217063D

 32 35  0  0  1  0  0  0  0  0999 V2000
  -42.9210  -66.4130   52.9800 N   0  0  0  0  0  0  0  0  0  0  0  0
  -43.0780  -66.5520   54.4010 C   0  0  0  0  0  0  0  0  0  0  0  0
  -44.0320  -65.9870   55.0200 O   0  0  0  0  0  0  0  0  0  0  0  0
  -42.1160  -67.3500   55.0740 N   0  0  0  0  0  0  0  0  0  0  0  0
  -41.0400  -67.9810   54.3440 C   0  0  0  0  0  0  0  0  0  0  0  0
  -40.5290  -68.9830   54.8610 O   0  0  0  0  0  0  0  0  0  0  0  0
  -40.6210  -67.4250   53.0720 C   0  0  2  0  0  3  0  0  0  0  0  0
  -41.8490  -67.0530   52.3070 C   0  0  0  0  0  0  0  0  0  0  0  0
  -42.0010  -67.2730   51.0780 O   0  0  0  0  0  0  0  0  0  0  0  0
  -42.2120  -67.4630   56.0990 H   0  0  0  0  0  0  0  0  0  0  0  0
  -39.6700  -68.1750   52.2850 C   0  0  2  0  0  3  0  0  0  0  0  0
  -38.8380  -67.7520   51.3610 C   0  0  0  0  0  2  0  0  0  0  0  0
  -38.0360  -68.8690   50.8050 C   0  0  2  0  0  3  0  0  0  0  0  0
  -38.3220  -69.9510   51.7170 N   0  0  0  0  0  0  0  0  0  0  0  0
  -39.4860  -69.6020   52.3980 N   0  0  0  0  0  0  0  0  0  0  0  0
  -37.5240  -70.1710   52.3500 H   0  0  0  0  0  0  0  0  0  0  0  0
  -40.0840  -70.3020   52.8870 H   0  0  0  0  0  0  0  0  0  0  0  0
  -36.5900  -68.6180   50.8450 C   0  0  0  0  0  0  0  0  0  0  0  0
  -35.7930  -69.5010   51.5580 C   0  0  0  0  0  3  0  0  0  0  0  0
  -34.4350  -69.2960   51.6150 C   0  0  0  0  0  0  0  0  0  0  0  0
  -33.8380  -68.2310   50.9810 C   0  0  0  0  0  3  0  0  0  0  0  0
  -34.6140  -67.3460   50.2720 C   0  0  0  0  0  3  0  0  0  0  0  0
  -35.9920  -67.5570   50.2160 C   0  0  0  0  0  3  0  0  0  0  0  0
  -33.6190  -70.1820   52.3300 O   0  0  0  0  0  0  0  0  0  0  0  0
  -33.9460  -70.5510   53.2060 H   0  0  0  0  0  0  0  0  0  0  0  0
  -43.8970  -65.6010   52.2880 C   0  0  0  0  0  0  0  0  0  0  0  0
  -45.1860  -66.0470   52.0690 C   0  0  0  0  0  3  0  0  0  0  0  0
  -46.1400  -65.2960   51.4090 C   0  0  0  0  0  3  0  0  0  0  0  0
  -45.8040  -64.0340   50.9400 C   0  0  0  0  0  0  0  0  0  0  0  0
  -47.0260  -63.1130   50.1120 Cl  0  0  0  0  0  0  0  0  0  0  0  0
  -44.5110  -63.5630   51.1480 C   0  0  0  0  0  3  0  0  0  0  0  0
  -43.5820  -64.3430   51.8130 C   0  0  0  0  0  3  0  0  0  0  0  0
  1  2  1  0  0  0  0
  2  3  2  0  0  0  0
  2  4  1  0  0  0  0
  4 10  1  0  0  0  0
  5  6  2  0  0  0  0
  5  4  1  0  0  0  0
  7  8  1  6  0  0  0
  7  5  1  0  0  0  0
  8  1  1  0  0  0  0
  9  8  2  0  0  0  0
 11 12  1  6  0  0  0
 11 15  1  0  0  0  0
 11  7  1  0  0  0  0
 13 18  1  1  0  0  0
 13 12  1  0  0  0  0
 13 14  1  0  0  0  0
 14 16  1  0  0  0  0
 14 15  1  0  0  0  0
 15 17  1  0  0  0  0
 18 19  1  0  0  0  0
 19 20  2  0  0  0  0
 20 24  1  0  0  0  0
 21 20  1  0  0  0  0
 22 21  2  0  0  0  0
 23 22  1  0  0  0  0
 23 18  2  0  0  0  0
 24 25  1  0  0  0  0
 26  1  1  0  0  0  0
 27 26  1  0  0  0  0
 28 27  2  0  0  0  0
 29 31  2  0  0  0  0
 29 28  1  0  0  0  0
 30 29  1  0  0  0  0
 31 32  1  0  0  0  0
 32 26  2  0  0  0  0
M  END
>  <Pose>
1

>  <Score>
-9.256

$$$$
