/Users/jonathanwahrer/Desktop/Msc/3_Semester/Drug_Design_Praktikum/waehrer_HTS_screening/HTS_experiment/out/docking_results/vina_output/3e7o/2361_docked.pdbqt
 OpenBabel03192217073D

 30 33  0  0  1  0  0  0  0  0999 V2000
  -40.4810  -65.6300   50.5640 N   0  0  0  0  0  0  0  0  0  0  0  0
  -40.2070  -64.2680   50.8340 C   0  0  0  0  0  0  0  0  0  0  0  0
  -40.2580  -63.8330   52.0110 O   0  0  0  0  0  0  0  0  0  0  0  0
  -39.8690  -63.3970   49.7390 N   0  0  0  0  0  0  0  0  0  0  0  0
  -39.8100  -63.8870   48.4070 C   0  0  0  0  0  0  0  0  0  0  0  0
  -39.8510  -63.0750   47.4480 O   0  0  0  0  0  0  0  0  0  0  0  0
  -39.7020  -65.3350   48.1730 C   0  0  2  0  0  3  0  0  0  0  0  0
  -40.4130  -66.0840   49.2230 C   0  0  0  0  0  0  0  0  0  0  0  0
  -40.9950  -67.1860   48.9320 O   0  0  0  0  0  0  0  0  0  0  0  0
  -39.6600  -62.3870   49.8920 H   0  0  0  0  0  0  0  0  0  0  0  0
  -38.2630  -65.7630   48.1200 C   0  0  1  0  0  3  0  0  0  0  0  0
  -37.7710  -66.9150   47.7470 C   0  0  0  0  0  2  0  0  0  0  0  0
  -36.3050  -66.8770   47.8630 C   0  0  1  0  0  3  0  0  0  0  0  0
  -36.0040  -65.4790   47.9960 N   0  0  0  0  0  0  0  0  0  0  0  0
  -37.1910  -64.9110   48.4860 N   0  0  0  0  0  0  0  0  0  0  0  0
  -35.7130  -65.0520   47.1120 H   0  0  0  0  0  0  0  0  0  0  0  0
  -37.2000  -64.0110   49.0180 H   0  0  0  0  0  0  0  0  0  0  0  0
  -35.9480  -67.5990   49.1110 C   0  0  0  0  0  0  0  0  0  0  0  0
  -34.7100  -67.4240   49.6820 C   0  0  0  0  0  3  0  0  0  0  0  0
  -34.3770  -68.0840   50.8260 N   0  0  0  0  0  0  0  0  0  0  0  0
  -35.2200  -68.9250   51.4460 C   0  0  0  0  0  3  0  0  0  0  0  0
  -36.4680  -69.1240   50.9000 C   0  0  0  0  0  3  0  0  0  0  0  0
  -36.8270  -68.4520   49.7230 C   0  0  0  0  0  3  0  0  0  0  0  0
  -40.8290  -66.5400   51.6350 C   0  0  0  0  0  0  0  0  0  0  0  0
  -42.0200  -66.4390   52.3210 C   0  0  0  0  0  3  0  0  0  0  0  0
  -42.3410  -67.3200   53.3480 C   0  0  0  0  0  3  0  0  0  0  0  0
  -41.4760  -68.3290   53.7160 C   0  0  0  0  0  0  0  0  0  0  0  0
  -41.8760  -69.4440   55.0100 Cl  0  0  0  0  0  0  0  0  0  0  0  0
  -40.2850  -68.4250   53.0270 C   0  0  0  0  0  3  0  0  0  0  0  0
  -39.9680  -67.5490   52.0060 C   0  0  0  0  0  3  0  0  0  0  0  0
  1  2  1  0  0  0  0
  1 24  1  0  0  0  0
  2  3  2  0  0  0  0
  4 10  1  0  0  0  0
  4  2  1  0  0  0  0
  5  4  1  0  0  0  0
  6  5  2  0  0  0  0
  7  5  1  1  0  0  0
  7  8  1  0  0  0  0
  8  1  1  0  0  0  0
  9  8  2  0  0  0  0
 11 12  1  6  0  0  0
 11  7  1  0  0  0  0
 11 15  1  0  0  0  0
 12 13  1  0  0  0  0
 13 14  1  0  0  0  0
 13 18  1  1  0  0  0
 14 15  1  0  0  0  0
 15 17  1  0  0  0  0
 16 14  1  0  0  0  0
 18 19  2  0  0  0  0
 18 23  1  0  0  0  0
 19 20  1  0  0  0  0
 20 21  2  0  0  0  0
 22 21  1  0  0  0  0
 23 22  2  0  0  0  0
 24 30  2  0  0  0  0
 24 25  1  0  0  0  0
 25 26  2  0  0  0  0
 26 27  1  0  0  0  0
 27 28  1  0  0  0  0
 29 27  2  0  0  0  0
 30 29  1  0  0  0  0
M  END
>  <Pose>
1

>  <Score>
-8.554

$$$$
