/Users/jonathanwahrer/Desktop/Msc/3_Semester/Drug_Design_Praktikum/waehrer_HTS_screening/HTS_experiment/out/docking_results/vina_output/3e7o/2363_docked.pdbqt
 OpenBabel03192217073D

 33 36  0  0  1  0  0  0  0  0999 V2000
  -39.5500  -65.8550   49.6190 N   0  0  0  0  0  0  0  0  0  0  0  0
  -40.4890  -66.4680   50.4900 C   0  0  2  0  0  0  0  0  0  0  0  0
  -39.9910  -67.6410   51.1920 C   0  0  0  0  0  0  0  0  0  0  0  0
  -38.7560  -68.1690   50.9620 C   0  0  0  0  0  0  0  0  0  0  0  0
  -38.3490  -69.3200   51.6630 C   0  0  0  0  0  3  0  0  0  0  0  0
  -39.1450  -69.9510   52.5850 C   0  0  0  0  0  3  0  0  0  0  0  0
  -40.3970  -69.4000   52.8060 C   0  0  0  0  0  3  0  0  0  0  0  0
  -40.7960  -68.2900   52.1340 C   0  0  0  0  0  3  0  0  0  0  0  0
  -37.8310  -67.5750   50.0370 N   0  0  0  0  0  0  0  0  0  0  0  0
  -38.2820  -66.4060   49.3830 C   0  0  0  0  0  0  0  0  0  0  0  0
  -37.5210  -65.8190   48.5450 O   0  0  0  0  0  0  0  0  0  0  0  0
  -36.9020  -68.0060   49.8860 H   0  0  0  0  0  0  0  0  0  0  0  0
  -41.5390  -66.9200   49.6150 O   0  0  0  0  0  0  0  0  0  0  0  0
  -41.2590  -66.7950   48.6710 H   0  0  0  0  0  0  0  0  0  0  0  0
  -41.1380  -65.4910   51.4020 C   0  0  0  0  0  0  0  0  0  0  0  0
  -40.4570  -64.8400   52.1960 O   0  0  0  0  0  0  0  0  0  0  0  0
  -42.5350  -65.3420   51.3220 N   0  0  0  0  0  0  0  0  0  0  0  0
  -43.1270  -65.8970   50.6430 H   0  0  0  0  0  0  0  0  0  0  0  0
  -43.2770  -64.4100   52.1720 C   0  0  0  0  0  2  0  0  0  0  0  0
  -43.7430  -65.0330   53.4310 C   0  0  0  0  0  2  0  0  0  0  0  0
  -45.0730  -65.5040   53.4720 N   0  0  0  0  0  0  0  0  0  0  0  0
  -46.1110  -64.6390   53.0900 C   0  0  0  0  0  2  0  0  0  0  0  0
  -47.4010  -65.4540   52.9560 C   0  0  0  0  0  2  0  0  0  0  0  0
  -47.4230  -66.4890   53.9080 O   0  0  0  0  0  0  0  0  0  0  0  0
  -46.5060  -67.4880   53.5890 C   0  0  0  0  0  2  0  0  0  0  0  0
  -45.2770  -66.8370   53.0150 C   0  0  0  0  0  2  0  0  0  0  0  0
  -39.9040  -64.6000   48.9430 C   0  0  0  0  0  0  0  0  0  0  0  0
  -39.3580  -63.4020   49.3220 C   0  0  0  0  0  3  0  0  0  0  0  0
  -39.7020  -62.2210   48.6710 C   0  0  0  0  0  3  0  0  0  0  0  0
  -40.6040  -62.2600   47.6320 C   0  0  0  0  0  0  0  0  0  0  0  0
  -41.0350  -60.7550   46.8110 Cl  0  0  0  0  0  0  0  0  0  0  0  0
  -41.1670  -63.4520   47.2300 C   0  0  0  0  0  3  0  0  0  0  0  0
  -40.8020  -64.6070   47.8980 C   0  0  0  0  0  3  0  0  0  0  0  0
  1  2  1  0  0  0  0
  2 13  1  6  0  0  0
  2  3  1  0  0  0  0
  2 15  1  0  0  0  0
  3  8  1  0  0  0  0
  4  3  2  0  0  0  0
  4  5  1  0  0  0  0
  5  6  2  0  0  0  0
  6  7  1  0  0  0  0
  8  7  2  0  0  0  0
  9  4  1  0  0  0  0
 10  1  1  0  0  0  0
 10  9  1  0  0  0  0
 11 10  2  0  0  0  0
 12  9  1  0  0  0  0
 14 13  1  0  0  0  0
 15 16  2  0  0  0  0
 17 15  1  0  0  0  0
 17 19  1  0  0  0  0
 18 17  1  0  0  0  0
 19 20  1  0  0  0  0
 20 21  1  0  0  0  0
 22 21  1  0  0  0  0
 23 22  1  0  0  0  0
 23 24  1  0  0  0  0
 25 24  1  0  0  0  0
 26 21  1  0  0  0  0
 26 25  1  0  0  0  0
 27 28  1  0  0  0  0
 27  1  1  0  0  0  0
 29 28  2  0  0  0  0
 30 29  1  0  0  0  0
 31 30  1  0  0  0  0
 32 30  2  0  0  0  0
 32 33  1  0  0  0  0
 33 27  2  0  0  0  0
M  END
>  <Pose>
1

>  <Score>
-7.713

$$$$
