/Users/jonathanwahrer/Desktop/Msc/3_Semester/Drug_Design_Praktikum/waehrer_HTS_screening/HTS_experiment/out/docking_results/vina_output/3e7o/2364_docked.pdbqt
 OpenBabel03192217073D

 33 37  0  0  1  0  0  0  0  0999 V2000
  -40.4680  -65.4880   49.0040 N   0  0  0  0  0  0  0  0  0  0  0  0
  -40.8180  -64.1580   49.3670 C   0  0  0  0  0  0  0  0  0  0  0  0
  -41.9080  -63.9470   49.9890 O   0  0  0  0  0  0  0  0  0  0  0  0
  -39.9830  -62.9920   49.0610 C   0  0  1  0  0  3  0  0  0  0  0  0
  -38.9010  -63.2440   48.1680 N   0  0  1  0  0  0  0  0  0  0  0  0
  -38.3070  -64.5400   48.2360 C   0  0  2  0  0  0  0  0  0  0  0  0
  -37.1920  -64.7040   49.2390 C   0  0  0  0  0  2  0  0  0  0  0  0
  -36.2570  -64.8400   48.1700 N   0  0  0  0  0  0  0  0  0  0  0  0
  -37.2330  -64.6620   47.1690 C   0  0  0  0  0  2  0  0  0  0  0  0
  -39.2900  -65.6550   48.2240 C   0  0  0  0  0  0  0  0  0  0  0  0
  -39.1230  -66.7140   47.5680 O   0  0  0  0  0  0  0  0  0  0  0  0
  -39.3560  -62.9950   46.8300 C   0  0  0  0  0  2  0  0  0  0  0  0
  -40.7720  -62.4990   46.9050 C   0  0  1  0  0  3  0  0  0  0  0  0
  -40.8770  -61.9930   48.3150 C   0  0  0  0  0  2  0  0  0  0  0  0
  -35.0700  -64.0640   48.1810 C   0  0  0  0  0  2  0  0  0  0  0  0
  -33.8140  -64.8070   48.3350 C   0  0  0  0  0  0  0  0  0  0  0  0
  -33.8020  -66.0090   48.9990 C   0  0  0  0  0  3  0  0  0  0  0  0
  -32.6200  -66.7370   49.1590 C   0  0  0  0  0  0  0  0  0  0  0  0
  -31.4490  -66.2330   48.6400 C   0  0  0  0  0  3  0  0  0  0  0  0
  -31.4320  -65.0330   47.9700 C   0  0  0  0  0  3  0  0  0  0  0  0
  -32.6290  -64.3330   47.8280 C   0  0  0  0  0  3  0  0  0  0  0  0
  -32.6040  -67.9450   49.8260 O   0  0  0  0  0  0  0  0  0  0  0  0
  -33.5000  -68.1330   50.9060 C   0  0  0  0  0  1  0  0  0  0  0  0
  -41.2680  -66.6340   49.4000 C   0  0  0  0  0  2  0  0  0  0  0  0
  -40.7550  -67.1890   50.7000 C   0  0  0  0  0  0  0  0  0  0  0  0
  -39.6790  -68.0490   50.7270 C   0  0  0  0  0  3  0  0  0  0  0  0
  -39.1900  -68.5730   51.9060 C   0  0  0  0  0  0  0  0  0  0  0  0
  -37.8210  -69.6620   51.9010 Cl  0  0  0  0  0  0  0  0  0  0  0  0
  -39.7810  -68.2400   53.1020 C   0  0  0  0  0  3  0  0  0  0  0  0
  -40.8540  -67.3800   53.0530 C   0  0  0  0  0  3  0  0  0  0  0  0
  -41.3460  -66.8560   51.8990 C   0  0  0  0  0  3  0  0  0  0  0  0
  -41.0530  -61.5190   45.9630 O   0  0  0  0  0  0  0  0  0  0  0  0
  -41.1290  -61.9670   45.0860 H   0  0  0  0  0  0  0  0  0  0  0  0
  1  2  1  0  0  0  0
  1 24  1  0  0  0  0
  2  3  2  0  0  0  0
  4 14  1  6  0  0  0
  4  2  1  0  0  0  0
  5 12  1  6  0  0  0
  5  6  1  0  0  0  0
  5  4  1  0  0  0  0
  6  9  1  6  0  0  0
  6  7  1  0  0  0  0
  8 15  1  0  0  0  0
  8  7  1  0  0  0  0
  9  8  1  0  0  0  0
 10  6  1  0  0  0  0
 10  1  1  0  0  0  0
 11 10  2  0  0  0  0
 12 13  1  0  0  0  0
 13 32  1  6  0  0  0
 13 14  1  0  0  0  0
 15 16  1  0  0  0  0
 16 17  1  0  0  0  0
 17 18  2  0  0  0  0
 18 22  1  0  0  0  0
 19 18  1  0  0  0  0
 20 19  2  0  0  0  0
 21 20  1  0  0  0  0
 21 16  2  0  0  0  0
 22 23  1  0  0  0  0
 24 25  1  0  0  0  0
 25 26  2  0  0  0  0
 25 31  1  0  0  0  0
 26 27  1  0  0  0  0
 27 29  2  0  0  0  0
 28 27  1  0  0  0  0
 30 29  1  0  0  0  0
 31 30  2  0  0  0  0
 33 32  1  0  0  0  0
M  END
>  <Pose>
1

>  <Score>
-7.597

$$$$
