/Users/jonathanwahrer/Desktop/Msc/3_Semester/Drug_Design_Praktikum/waehrer_HTS_screening/HTS_experiment/out/docking_results/vina_output/3e7o/2365_docked.pdbqt
 OpenBabel03192217083D

 32 36  0  0  1  0  0  0  0  0999 V2000
  -41.9480  -65.8810   50.7490 N   0  0  0  0  0  0  0  0  0  0  0  0
  -40.6730  -66.4660   50.7330 C   0  0  0  0  0  0  0  0  0  0  0  0
  -40.4420  -67.4250   51.5310 O   0  0  0  0  0  0  0  0  0  0  0  0
  -42.1550  -65.0880   50.0940 H   0  0  0  0  0  0  0  0  0  0  0  0
  -39.5690  -66.0400   49.8420 C   0  0  1  0  0  0  0  0  0  0  0  0
  -38.2700  -66.7100   50.2420 C   0  0  0  0  0  2  0  0  0  0  0  0
  -37.1440  -66.2710   49.3490 C   0  0  1  0  0  0  0  0  0  0  0  0
  -37.4860  -66.7390   47.9330 C   0  0  0  0  0  2  0  0  0  0  0  0
  -36.9710  -64.7850   49.3100 C   0  0  0  0  0  2  0  0  0  0  0  0
  -38.7730  -66.1150   47.4960 C   0  0  1  0  0  3  0  0  0  0  0  0
  -39.8930  -66.4960   48.4360 C   0  0  0  0  0  2  0  0  0  0  0  0
  -38.6140  -64.6120   47.4870 C   0  0  0  0  0  2  0  0  0  0  0  0
  -38.2840  -64.1720   48.8940 C   0  0  1  0  0  3  0  0  0  0  0  0
  -39.4030  -64.5360   49.8330 C   0  0  0  0  0  2  0  0  0  0  0  0
  -35.9480  -66.9560   49.7970 N   0  0  0  0  0  0  0  0  0  0  0  0
  -35.7550  -68.2320   50.0830 N   0  0  0  0  0  0  0  0  0  0  0  0
  -34.5340  -68.4690   50.4560 N   0  0  0  0  0  0  0  0  0  0  0  0
  -33.8710  -67.3260   50.4260 C   0  0  0  0  0  3  0  0  0  0  0  0
  -34.7560  -66.3760   50.0130 N   0  0  0  0  0  0  0  0  0  0  0  0
  -42.9320  -66.3260   51.6030 N   0  0  0  0  0  0  0  0  0  0  0  0
  -43.2010  -65.7790   52.8810 C   0  0  0  0  0  0  0  0  0  0  0  0
  -42.5310  -64.8140   53.3280 O   0  0  0  0  0  0  0  0  0  0  0  0
  -43.5390  -67.1370   51.2970 H   0  0  0  0  0  0  0  0  0  0  0  0
  -44.2830  -66.3070   53.7610 C   0  0  1  0  0  3  0  0  0  0  0  0
  -45.6450  -66.0010   53.2350 C   0  0  0  0  0  1  0  0  0  0  0  0
  -44.0800  -67.7920   53.9600 C   0  0  0  0  0  2  0  0  0  0  0  0
  -42.7310  -68.1180   54.3590 N   0  0  0  0  0  0  0  0  0  0  0  0
  -41.9360  -69.1110   53.8830 C   0  0  0  0  0  3  0  0  0  0  0  0
  -40.7180  -69.0790   54.5320 C   0  0  0  0  0  0  0  0  0  0  0  0
  -39.1990  -70.2070   54.3020 Br  0  0  0  0  0  0  0  0  0  0  0  0
  -40.8190  -68.0120   55.4290 C   0  0  0  0  0  3  0  0  0  0  0  0
  -42.0460  -67.4840   55.2710 N   0  0  0  0  0  0  0  0  0  0  0  0
  1 20  1  0  0  0  0
  2  1  1  0  0  0  0
  2  3  2  0  0  0  0
  4  1  1  0  0  0  0
  5  6  1  0  0  0  0
  5  2  1  1  0  0  0
  7  8  1  6  0  0  0
  7 15  1  0  0  0  0
  7  6  1  0  0  0  0
  9  7  1  0  0  0  0
 10 12  1  1  0  0  0
 10  8  1  0  0  0  0
 10 11  1  0  0  0  0
 11  5  1  0  0  0  0
 13 12  1  6  0  0  0
 13  9  1  0  0  0  0
 13 14  1  0  0  0  0
 14  5  1  0  0  0  0
 15 19  1  0  0  0  0
 15 16  1  0  0  0  0
 16 17  2  0  0  0  0
 18 17  1  0  0  0  0
 19 18  2  0  0  0  0
 20 21  1  0  0  0  0
 21 22  2  0  0  0  0
 21 24  1  0  0  0  0
 23 20  1  0  0  0  0
 24 25  1  6  0  0  0
 24 26  1  0  0  0  0
 26 27  1  0  0  0  0
 27 32  1  0  0  0  0
 28 27  1  0  0  0  0
 28 29  2  0  0  0  0
 29 31  1  0  0  0  0
 30 29  1  0  0  0  0
 32 31  2  0  0  0  0
M  END
>  <Pose>
1

>  <Score>
-7.928

$$$$
