/Users/jonathanwahrer/Desktop/Msc/3_Semester/Drug_Design_Praktikum/waehrer_HTS_screening/HTS_experiment/out/docking_results/vina_output/3e7o/2373_docked.pdbqt
 OpenBabel03192217083D

 28 31  0  0  1  0  0  0  0  0999 V2000
  -38.9250  -69.0370   51.2880 N   0  0  0  0  0  0  0  0  0  0  0  0
  -39.5600  -69.4810   52.3590 C   0  0  2  0  0  3  0  0  0  0  0  0
  -40.5930  -68.6590   52.6880 N   0  0  0  0  0  0  0  0  0  0  0  0
  -40.6140  -67.6750   51.8160 C   0  0  0  0  0  0  0  0  0  0  0  0
  -39.5510  -67.9200   50.9220 C   0  0  0  0  0  3  0  0  0  0  0  0
  -41.4950  -68.9090   53.7770 C   0  0  0  0  0  2  0  0  0  0  0  0
  -40.8150  -68.6070   55.1100 C   0  0  0  0  0  2  0  0  0  0  0  0
  -39.3590  -69.0400   54.9120 C   0  0  0  0  0  2  0  0  0  0  0  0
  -39.3520  -70.5110   54.6000 C   0  0  0  0  0  2  0  0  0  0  0  0
  -39.1410  -70.7150   53.0920 C   0  0  0  0  0  2  0  0  0  0  0  0
  -37.7650  -69.5640   50.5630 C   0  0  0  0  0  2  0  0  0  0  0  0
  -36.5430  -69.0090   51.1840 C   0  0  0  0  0  0  0  0  0  0  0  0
  -36.1680  -69.5240   52.2890 O   0  0  0  0  0  0  0  0  0  0  0  0
  -35.7650  -67.9310   50.6140 C   0  0  0  0  0  0  0  0  0  0  0  0
  -34.4260  -67.7920   50.9990 C   0  0  0  0  0  3  0  0  0  0  0  0
  -33.6390  -66.7860   50.4960 C   0  0  0  0  0  3  0  0  0  0  0  0
  -34.1260  -65.8710   49.5970 C   0  0  0  0  0  0  0  0  0  0  0  0
  -33.1810  -64.5700   48.9210 Cl  0  0  0  0  0  0  0  0  0  0  0  0
  -35.4530  -66.0170   49.2230 C   0  0  0  0  0  3  0  0  0  0  0  0
  -36.2510  -67.0220   49.7210 C   0  0  0  0  0  3  0  0  0  0  0  0
  -41.5230  -66.5320   51.6870 C   0  0  0  0  0  0  0  0  0  0  0  0
  -42.6830  -66.3500   52.3680 C   0  0  0  0  0  3  0  0  0  0  0  0
  -43.5400  -65.2720   52.1470 C   0  0  0  0  0  3  0  0  0  0  0  0
  -43.2330  -64.3250   51.2090 C   0  0  0  0  0  0  0  0  0  0  0  0
  -42.0640  -64.4790   50.5050 C   0  0  0  0  0  3  0  0  0  0  0  0
  -41.2290  -65.5510   50.7330 C   0  0  0  0  0  3  0  0  0  0  0  0
  -44.0780  -63.2280   50.9660 O   0  0  0  0  0  0  0  0  0  0  0  0
  -44.5550  -62.9070   49.6870 C   0  0  0  0  0  1  0  0  0  0  0  0
  1  2  1  0  0  0  0
  2  3  1  0  0  0  0
  2 10  1  1  0  0  0
  3  6  1  0  0  0  0
  4  3  1  0  0  0  0
  5  1  1  0  0  0  0
  5  4  2  0  0  0  0
  6  7  1  0  0  0  0
  8  7  1  0  0  0  0
  9  8  1  0  0  0  0
 10  9  1  0  0  0  0
 11 12  1  0  0  0  0
 11  1  1  0  0  0  0
 12 13  2  0  0  0  0
 14 15  1  0  0  0  0
 14 12  1  0  0  0  0
 16 15  2  0  0  0  0
 17 16  1  0  0  0  0
 18 17  1  0  0  0  0
 19 17  2  0  0  0  0
 19 20  1  0  0  0  0
 20 14  2  0  0  0  0
 21  4  1  0  0  0  0
 21 22  1  0  0  0  0
 23 22  2  0  0  0  0
 24 23  1  0  0  0  0
 25 26  1  0  0  0  0
 25 24  2  0  0  0  0
 26 21  2  0  0  0  0
 27 24  1  0  0  0  0
 28 27  1  0  0  0  0
M  END
>  <Pose>
1

>  <Score>
-8.363

$$$$
