/Users/jonathanwahrer/Desktop/Msc/3_Semester/Drug_Design_Praktikum/waehrer_HTS_screening/HTS_experiment/out/docking_results/vina_output/3e7o/2375_docked.pdbqt
 OpenBabel03192217083D

 37 40  0  0  1  0  0  0  0  0999 V2000
  -40.8930  -63.6600   48.1870 C   0  0  0  0  0  0  0  0  0  0  0  0
  -41.9540  -63.1550   47.3660 C   0  0  0  0  0  1  0  0  0  0  0  0
  -39.6860  -62.7650   48.4340 C   0  0  0  0  0  0  0  0  0  0  0  0
  -38.3780  -63.2590   48.2120 N   0  0  0  0  0  0  0  0  0  0  0  0
  -37.1620  -62.7030   48.7090 C   0  0  0  0  0  3  0  0  0  0  0  0
  -38.1890  -64.2580   47.1410 C   0  0  0  0  0  2  0  0  0  0  0  0
  -36.0650  -63.6930   49.0110 C   0  0  0  0  0  3  0  0  0  0  0  0
  -36.2850  -65.0920   48.6140 C   0  0  1  0  0  0  0  0  0  0  0  0
  -37.2900  -65.3310   47.5150 C   0  0  0  0  0  2  0  0  0  0  0  0
  -39.8740  -61.6150   48.8230 O   0  0  0  0  0  0  0  0  0  0  0  0
  -35.0600  -65.7960   48.1720 C   0  0  0  0  0  0  0  0  0  0  0  0
  -35.2090  -66.6790   47.1120 C   0  0  0  0  0  3  0  0  0  0  0  0
  -34.1210  -67.3860   46.5800 C   0  0  0  0  0  3  0  0  0  0  0  0
  -32.8640  -67.2080   47.1080 C   0  0  0  0  0  0  0  0  0  0  0  0
  -31.4680  -68.0820   46.4330 Cl  0  0  0  0  0  0  0  0  0  0  0  0
  -32.7140  -66.3260   48.1650 C   0  0  0  0  0  3  0  0  0  0  0  0
  -33.8090  -65.6420   48.6760 C   0  0  0  0  0  3  0  0  0  0  0  0
  -36.7530  -65.7830   49.7720 O   0  0  0  0  0  0  0  0  0  0  0  0
  -37.0520  -65.1650   50.4600 H   0  0  0  0  0  0  0  0  0  0  0  0
  -41.1330  -64.4770   49.3520 N   0  0  0  0  0  4  0  0  0  0  0  0
  -40.8780  -65.8450   49.4400 C   0  0  0  0  0  0  0  0  0  0  0  0
  -40.4230  -66.3040   48.2190 O   0  0  0  0  0  0  0  0  0  0  0  0
  -40.9130  -66.8710   50.3710 C   0  0  0  0  0  2  0  0  0  0  0  0
  -41.6000  -63.8970   50.1270 H   0  0  0  0  0  0  0  0  0  0  0  0
  -41.0570  -67.2680   51.6010 C   0  0  1  0  0  3  0  0  0  0  0  0
  -42.2380  -66.8330   52.3580 N   0  0  0  0  0  0  0  0  0  0  0  0
  -42.5250  -67.2760   53.6350 N   0  0  0  0  0  0  0  0  0  0  0  0
  -42.8720  -66.1510   51.8600 H   0  0  0  0  0  0  0  0  0  0  0  0
  -41.7080  -68.1730   54.3050 C   0  0  0  0  0  0  0  0  0  0  0  0
  -43.3940  -66.9200   54.1210 H   0  0  0  0  0  0  0  0  0  0  0  0
  -41.9260  -68.5970   55.4680 O   0  0  0  0  0  0  0  0  0  0  0  0
  -40.4900  -68.6690   53.6200 C   0  0  0  0  0  0  0  0  0  0  0  0
  -40.2450  -68.2060   52.3500 C   0  0  0  0  0  0  0  0  0  0  0  0
  -39.7240  -69.6160   54.2560 C   0  0  0  0  0  3  0  0  0  0  0  0
  -39.1410  -68.7790   51.7070 C   0  0  0  0  0  3  0  0  0  0  0  0
  -38.3580  -69.7370   52.3350 C   0  0  0  0  0  3  0  0  0  0  0  0
  -38.6360  -70.1610   53.6080 C   0  0  0  0  0  3  0  0  0  0  0  0
  1  3  1  0  0  0  0
  1 20  2  3  0  0  0
  2  1  1  0  0  0  0
  3 10  2  0  0  0  0
  4  3  1  0  0  0  0
  4  5  1  0  0  0  0
  5  7  2  0  0  0  0
  6  9  1  0  0  0  0
  6  4  1  0  0  0  0
  8  7  1  0  0  0  0
  8 18  1  1  0  0  0
  9  8  1  0  0  0  0
 11  8  1  0  0  0  0
 11 17  1  0  0  0  0
 12 11  2  0  0  0  0
 13 14  2  0  0  0  0
 13 12  1  0  0  0  0
 14 16  1  0  0  0  0
 15 14  1  0  0  0  0
 16 17  2  0  0  0  0
 18 19  1  0  0  0  0
 20 21  1  0  0  0  0
 20 24  1  0  0  0  0
 21 23  1  0  0  0  0
 22 21  2  0  0  0  0
 25 23  1  6  0  0  0
 25 33  1  0  0  0  0
 25 26  1  0  0  0  0
 26 27  1  0  0  0  0
 27 30  1  0  0  0  0
 27 29  1  0  0  0  0
 28 26  1  0  0  0  0
 29 31  2  0  0  0  0
 32 34  1  0  0  0  0
 32 29  1  0  0  0  0
 33 32  2  0  0  0  0
 35 36  2  0  0  0  0
 35 33  1  0  0  0  0
 36 37  1  0  0  0  0
 37 34  2  0  0  0  0
M  END
>  <Pose>
1

>  <Score>
-9.053

$$$$
