/Users/jonathanwahrer/Desktop/Msc/3_Semester/Drug_Design_Praktikum/waehrer_HTS_screening/HTS_experiment/out/docking_results/vina_output/3e7o/2377_docked.pdbqt
 OpenBabel03192217093D

 33 36  0  0  0  0  0  0  0  0999 V2000
  -37.4320  -66.9560   48.0490 N   0  0  0  0  0  0  0  0  0  0  0  0
  -37.3000  -65.5850   47.5670 C   0  0  0  0  0  2  0  0  0  0  0  0
  -35.8600  -65.1230   47.5560 C   0  0  0  0  0  2  0  0  0  0  0  0
  -35.0190  -66.2940   47.6140 N   0  0  0  0  0  0  0  0  0  0  0  0
  -35.4090  -67.3950   46.7520 C   0  0  0  0  0  2  0  0  0  0  0  0
  -36.6700  -68.0070   47.3610 C   0  0  0  0  0  2  0  0  0  0  0  0
  -33.8800  -66.4130   48.4360 C   0  0  0  0  0  0  0  0  0  0  0  0
  -33.2190  -67.4740   48.4100 O   0  0  0  0  0  0  0  0  0  0  0  0
  -38.2410  -67.2360   49.1670 C   0  0  0  0  0  0  0  0  0  0  0  0
  -37.8190  -67.9730   50.2530 C   0  0  0  0  0  0  0  0  0  0  0  0
  -36.2100  -68.6480   50.2100 Cl  0  0  0  0  0  0  0  0  0  0  0  0
  -38.6630  -68.1850   51.3470 C   0  0  0  0  0  0  0  0  0  0  0  0
  -39.9080  -67.6960   51.4060 N   0  0  0  0  0  0  0  0  0  0  0  0
  -38.2080  -68.8660   52.2990 O   0  0  0  0  0  0  0  0  0  0  0  0
  -40.3040  -66.9940   50.3650 N   0  0  0  0  0  0  0  0  0  0  0  0
  -39.5500  -66.7470   49.2780 C   0  0  0  0  0  3  0  0  0  0  0  0
  -40.7730  -67.9090   52.5170 C   0  0  0  0  0  0  0  0  0  0  0  0
  -40.8370  -69.1260   53.1790 C   0  0  0  0  0  3  0  0  0  0  0  0
  -41.6690  -69.3490   54.2570 C   0  0  0  0  0  3  0  0  0  0  0  0
  -42.4680  -68.3110   54.6880 C   0  0  0  0  0  3  0  0  0  0  0  0
  -42.4300  -67.0840   54.0510 C   0  0  0  0  0  3  0  0  0  0  0  0
  -41.5750  -66.8890   52.9600 C   0  0  0  0  0  3  0  0  0  0  0  0
  -33.4140  -65.3360   49.3440 C   0  0  0  0  0  2  0  0  0  0  0  0
  -32.2750  -64.5640   48.7200 C   0  0  0  0  0  2  0  0  0  0  0  0
  -32.4900  -63.0800   48.7730 C   0  0  0  0  0  2  0  0  0  0  0  0
  -33.3230  -62.5700   47.7070 N   0  0  0  0  0  0  0  0  0  0  0  0
  -34.6100  -61.9980   47.8550 C   0  0  0  0  0  0  0  0  0  0  0  0
  -35.2500  -61.8390   48.9480 O   0  0  0  0  0  0  0  0  0  0  0  0
  -35.1410  -61.6000   46.6100 N   0  0  0  0  0  0  0  0  0  0  0  0
  -34.1790  -61.9280   45.5810 C   0  0  0  0  0  2  0  0  0  0  0  0
  -36.4260  -60.9690   46.3830 C   0  0  0  0  0  1  0  0  0  0  0  0
  -33.0360  -62.5280   46.3050 C   0  0  0  0  0  0  0  0  0  0  0  0
  -31.9780  -62.9390   45.7840 O   0  0  0  0  0  0  0  0  0  0  0  0
  1  9  1  0  0  0  0
  2  1  1  0  0  0  0
  3  2  1  0  0  0  0
  3  4  1  0  0  0  0
  4  7  1  0  0  0  0
  5  6  1  0  0  0  0
  5  4  1  0  0  0  0
  6  1  1  0  0  0  0
  7 23  1  0  0  0  0
  8  7  2  0  0  0  0
  9 16  1  0  0  0  0
  9 10  2  0  0  0  0
 10 12  1  0  0  0  0
 11 10  1  0  0  0  0
 12 13  1  0  0  0  0
 12 14  2  0  0  0  0
 13 17  1  0  0  0  0
 15 13  1  0  0  0  0
 16 15  2  0  0  0  0
 17 22  2  0  0  0  0
 17 18  1  0  0  0  0
 18 19  2  0  0  0  0
 19 20  1  0  0  0  0
 21 20  2  0  0  0  0
 22 21  1  0  0  0  0
 24 25  1  0  0  0  0
 24 23  1  0  0  0  0
 26 27  1  0  0  0  0
 26 25  1  0  0  0  0
 27 28  2  0  0  0  0
 29 27  1  0  0  0  0
 30 32  1  0  0  0  0
 30 29  1  0  0  0  0
 31 29  1  0  0  0  0
 32 26  1  0  0  0  0
 33 32  2  0  0  0  0
M  END
>  <Pose>
1

>  <Score>
-8.295

$$$$
