/Users/jonathanwahrer/Desktop/Msc/3_Semester/Drug_Design_Praktikum/waehrer_HTS_screening/HTS_experiment/out/docking_results/vina_output/3e7o/2402_docked.pdbqt
 OpenBabel03192217103D

 33 36  0  0  1  0  0  0  0  0999 V2000
  -38.5610  -64.7180   48.1640 C   0  0  2  0  0  3  0  0  0  0  0  0
  -39.0120  -63.4000   47.8310 N   0  0  0  0  0  0  0  0  0  0  0  0
  -39.7680  -62.8460   48.8970 C   0  0  0  0  0  0  0  0  0  0  0  0
  -40.1820  -61.6760   49.0810 O   0  0  0  0  0  0  0  0  0  0  0  0
  -40.0440  -63.9220   49.8760 C   0  0  0  0  0  0  0  0  0  0  0  0
  -40.6860  -63.8180   50.9510 O   0  0  0  0  0  0  0  0  0  0  0  0
  -39.4130  -65.1050   49.3220 C   0  0  0  0  0  0  0  0  0  0  0  0
  -39.5920  -66.3300   49.8320 C   0  0  0  0  0  0  0  0  0  0  0  0
  -38.8730  -67.3390   49.1770 O   0  0  0  0  0  1  0  0  0  0  0  0
  -37.1300  -64.8460   48.3830 C   0  0  0  0  0  0  0  0  0  0  0  0
  -36.3540  -65.5000   47.4440 C   0  0  0  0  0  3  0  0  0  0  0  0
  -35.0060  -65.6680   47.5540 C   0  0  0  0  0  3  0  0  0  0  0  0
  -34.3520  -65.1730   48.6450 C   0  0  0  0  0  0  0  0  0  0  0  0
  -32.4610  -65.4350   48.7520 Br  0  0  0  0  0  0  0  0  0  0  0  0
  -35.0670  -64.5120   49.6160 C   0  0  0  0  0  3  0  0  0  0  0  0
  -36.4450  -64.3570   49.4750 C   0  0  0  0  0  3  0  0  0  0  0  0
  -40.4620  -66.6100   50.9690 C   0  0  0  0  0  0  0  0  0  0  0  0
  -41.7080  -66.3490   51.1620 O   0  0  0  0  0  0  0  0  0  0  0  0
  -42.1740  -66.7420   52.3100 C   0  0  0  0  0  0  0  0  0  0  0  0
  -41.1340  -67.3470   53.0000 C   0  0  0  0  0  0  0  0  0  0  0  0
  -43.4160  -66.6720   52.9160 C   0  0  0  0  0  0  0  0  0  0  0  0
  -40.0530  -67.2500   52.1220 C   0  0  0  0  0  3  0  0  0  0  0  0
  -41.3550  -67.8580   54.2570 C   0  0  0  0  0  3  0  0  0  0  0  0
  -42.5970  -67.7760   54.8420 C   0  0  0  0  0  3  0  0  0  0  0  0
  -43.6450  -67.1720   54.1590 C   0  0  0  0  0  3  0  0  0  0  0  0
  -44.4350  -66.0660   52.2110 O   0  0  0  0  0  0  0  0  0  0  0  0
  -44.6760  -64.6660   52.1840 C   0  0  0  0  0  1  0  0  0  0  0  0
  -38.7550  -62.7040   46.6010 C   0  0  0  0  0  2  0  0  0  0  0  0
  -37.7510  -61.5820   46.7940 C   0  0  0  0  0  2  0  0  0  0  0  0
  -36.5640  -61.7410   46.0270 N   0  0  0  0  0  4  0  0  0  0  0  0
  -35.3550  -61.9180   46.7730 C   0  0  0  0  0  1  0  0  0  0  0  0
  -36.7180  -62.8020   45.0410 C   0  0  0  0  0  1  0  0  0  0  0  0
  -36.4330  -60.8480   45.4630 H   0  0  0  0  0  0  0  0  0  0  0  0
  1 10  1  1  0  0  0
  1  7  1  0  0  0  0
  2  1  1  0  0  0  0
  2  3  1  0  0  0  0
  3  4  2  0  0  0  0
  3  5  1  0  0  0  0
  5  6  2  0  0  0  0
  7  8  2  0  0  0  0
  7  5  1  0  0  0  0
  8 17  1  0  0  0  0
  9  8  1  0  0  0  0
 10 16  1  0  0  0  0
 11 12  1  0  0  0  0
 11 10  2  0  0  0  0
 12 13  2  0  0  0  0
 13 14  1  0  0  0  0
 13 15  1  0  0  0  0
 16 15  2  0  0  0  0
 17 18  1  0  0  0  0
 17 22  2  0  0  0  0
 18 19  1  0  0  0  0
 19 21  2  0  0  0  0
 19 20  1  0  0  0  0
 20 23  2  0  0  0  0
 21 25  1  0  0  0  0
 22 20  1  0  0  0  0
 23 24  1  0  0  0  0
 25 24  2  0  0  0  0
 26 21  1  0  0  0  0
 27 26  1  0  0  0  0
 28 29  1  0  0  0  0
 28  2  1  0  0  0  0
 30 31  1  0  0  0  0
 30 29  1  0  0  0  0
 32 30  1  0  0  0  0
 33 30  1  0  0  0  0
M  END
>  <Pose>
1

>  <Score>
-7.601

$$$$
