/Users/jonathanwahrer/Desktop/Msc/3_Semester/Drug_Design_Praktikum/waehrer_HTS_screening/HTS_experiment/out/docking_results/vina_output/3e7o/2403_docked.pdbqt
 OpenBabel03192217103D

 26 29  0  0  0  0  0  0  0  0999 V2000
  -44.9510  -65.8900   53.4960 N   0  0  0  0  0  0  0  0  0  0  0  0
  -45.3930  -65.2460   52.4060 C   0  0  0  0  0  0  0  0  0  0  0  0
  -46.5720  -65.8150   51.9370 C   0  0  0  0  0  0  0  0  0  0  0  0
  -46.8320  -66.8350   52.7880 N   0  0  0  0  0  0  0  0  0  0  0  0
  -45.8720  -66.8830   53.7150 C   0  0  0  0  0  3  0  0  0  0  0  0
  -47.2340  -65.3680   50.8500 N   0  0  0  0  0  0  0  0  0  0  0  0
  -46.6910  -64.3140   50.2120 C   0  0  0  0  0  0  0  0  0  0  0  0
  -47.2970  -63.8830   49.1930 O   0  0  0  0  0  0  0  0  0  0  0  0
  -45.5550  -63.7300   50.6220 N   0  0  0  0  0  0  0  0  0  0  0  0
  -44.8910  -64.1740   51.7090 C   0  0  0  0  0  0  0  0  0  0  0  0
  -43.8340  -63.6450   52.1040 O   0  0  0  0  0  0  0  0  0  0  0  0
  -44.9730  -62.5930   49.9300 C   0  0  0  0  0  1  0  0  0  0  0  0
  -48.4620  -66.0060   50.4140 C   0  0  0  0  0  1  0  0  0  0  0  0
  -43.7900  -65.6400   54.3270 C   0  0  0  0  0  2  0  0  0  0  0  0
  -42.6210  -66.5000   53.9440 C   0  0  0  0  0  0  0  0  0  0  0  0
  -42.0520  -66.3220   52.7380 N   0  0  0  0  0  0  0  0  0  0  0  0
  -40.9810  -67.0730   52.3470 C   0  0  0  0  0  0  0  0  0  0  0  0
  -40.4650  -68.0110   53.1560 N   0  0  0  0  0  0  0  0  0  0  0  0
  -40.4340  -66.8490   51.0940 C   0  0  0  0  0  3  0  0  0  0  0  0
  -39.4070  -68.7530   52.7690 C   0  0  0  0  0  3  0  0  0  0  0  0
  -40.9970  -68.2380   54.3920 C   0  0  0  0  0  0  0  0  0  0  0  0
  -38.8600  -68.5390   51.5330 C   0  0  0  0  0  0  0  0  0  0  0  0
  -37.3660  -69.6020   51.0160 Br  0  0  0  0  0  0  0  0  0  0  0  0
  -39.3570  -67.5890   50.6710 C   0  0  0  0  0  3  0  0  0  0  0  0
  -42.0770  -67.4650   54.7560 C   0  0  0  0  0  3  0  0  0  0  0  0
  -40.4890  -69.1150   55.1080 O   0  0  0  0  0  0  0  0  0  0  0  0
  1  5  1  0  0  0  0
  1 14  1  0  0  0  0
  2  1  1  0  0  0  0
  3  2  2  0  0  0  0
  3  4  1  0  0  0  0
  4  5  2  0  0  0  0
  6  3  1  0  0  0  0
  7  9  1  0  0  0  0
  7  6  1  0  0  0  0
  8  7  2  0  0  0  0
  9 10  1  0  0  0  0
 10 11  2  0  0  0  0
 10  2  1  0  0  0  0
 12  9  1  0  0  0  0
 13  6  1  0  0  0  0
 15 14  1  0  0  0  0
 15 25  2  0  0  0  0
 16 15  1  0  0  0  0
 17 16  2  0  0  0  0
 17 18  1  0  0  0  0
 18 21  1  0  0  0  0
 19 17  1  0  0  0  0
 20 18  1  0  0  0  0
 21 25  1  0  0  0  0
 21 26  2  0  0  0  0
 22 20  2  0  0  0  0
 23 22  1  0  0  0  0
 24 19  2  0  0  0  0
 24 22  1  0  0  0  0
M  END
>  <Pose>
1

>  <Score>
-8.324

$$$$
