/Users/jonathanwahrer/Desktop/Msc/3_Semester/Drug_Design_Praktikum/waehrer_HTS_screening/HTS_experiment/out/docking_results/vina_output/3e7o/2416_docked.pdbqt
 OpenBabel03192217103D

 34 37  0  0  1  0  0  0  0  0999 V2000
  -37.4110  -63.8200   47.8610 N   0  0  0  0  0  0  0  0  0  0  0  0
  -38.4770  -63.0590   47.3920 C   0  0  0  0  0  2  0  0  0  0  0  0
  -39.7780  -63.8500   47.5840 C   0  0  0  0  0  2  0  0  0  0  0  0
  -39.7480  -64.5300   48.8800 N   0  0  0  0  0  0  0  0  0  0  0  0
  -38.6390  -65.4390   49.0970 C   0  0  0  0  0  2  0  0  0  0  0  0
  -37.6540  -65.2000   47.9440 C   0  0  0  0  0  2  0  0  0  0  0  0
  -40.7550  -64.2730   49.8510 C   0  0  0  0  0  0  0  0  0  0  0  0
  -41.6500  -63.4490   49.5500 O   0  0  0  0  0  0  0  0  0  0  0  0
  -40.7340  -64.9480   51.1480 C   0  0  0  0  0  2  0  0  0  0  0  0
  -41.7440  -66.0790   51.2760 C   0  0  2  0  0  3  0  0  0  0  0  0
  -42.2290  -66.2680   52.6180 N   0  0  0  0  0  0  0  0  0  0  0  0
  -42.0350  -67.3060   53.5690 C   0  0  0  0  0  0  0  0  0  0  0  0
  -42.8610  -65.5060   53.0180 H   0  0  0  0  0  0  0  0  0  0  0  0
  -42.8570  -67.4590   54.5110 O   0  0  0  0  0  0  0  0  0  0  0  0
  -40.9330  -68.2910   53.6000 C   0  0  0  0  0  0  0  0  0  0  0  0
  -40.1640  -68.7230   52.5140 C   0  0  0  0  0  0  0  0  0  0  0  0
  -40.6680  -68.7970   54.8470 C   0  0  0  0  0  3  0  0  0  0  0  0
  -39.1700  -69.6380   52.7150 C   0  0  0  0  0  3  0  0  0  0  0  0
  -40.3100  -68.2950   51.1680 N   0  0  0  0  0  0  0  0  0  0  0  0
  -38.8790  -70.1700   53.9720 C   0  0  0  0  0  3  0  0  0  0  0  0
  -39.6620  -69.7190   55.0350 C   0  0  0  0  0  3  0  0  0  0  0  0
  -41.1950  -67.2990   50.6460 C   0  0  0  0  0  0  0  0  0  0  0  0
  -39.6990  -68.7620   50.4990 H   0  0  0  0  0  0  0  0  0  0  0  0
  -41.5420  -67.5420   49.4370 O   0  0  0  0  0  0  0  0  0  0  0  0
  -35.8790  -63.2050   48.0060 S   0  0  0  0  0  0  0  0  0  0  0  0
  -35.4880  -62.5490   46.6950 O   0  0  0  0  0  0  0  0  0  0  0  0
  -35.7420  -62.1230   49.0560 O   0  0  0  0  0  0  0  0  0  0  0  0
  -34.6440  -64.4260   48.3350 C   0  0  0  0  0  0  0  0  0  0  0  0
  -34.4670  -64.9510   49.5950 C   0  0  0  0  0  3  0  0  0  0  0  0
  -33.4880  -65.8970   49.8030 C   0  0  0  0  0  3  0  0  0  0  0  0
  -32.6570  -66.3610   48.8010 C   0  0  0  0  0  0  0  0  0  0  0  0
  -32.8380  -65.8300   47.5300 C   0  0  0  0  0  3  0  0  0  0  0  0
  -31.4240  -67.5530   49.0540 Cl  0  0  0  0  0  0  0  0  0  0  0  0
  -33.8170  -64.8840   47.3270 C   0  0  0  0  0  3  0  0  0  0  0  0
  1  6  1  0  0  0  0
  1 25  1  0  0  0  0
  2  3  1  0  0  0  0
  2  1  1  0  0  0  0
  3  4  1  0  0  0  0
  4  5  1  0  0  0  0
  4  7  1  0  0  0  0
  6  5  1  0  0  0  0
  7  9  1  0  0  0  0
  8  7  2  0  0  0  0
 10  9  1  1  0  0  0
 10 11  1  0  0  0  0
 11 13  1  0  0  0  0
 11 12  1  0  0  0  0
 12 15  1  0  0  0  0
 12 14  2  0  0  0  0
 15 17  1  0  0  0  0
 16 18  1  0  0  0  0
 16 15  2  0  0  0  0
 17 21  2  0  0  0  0
 18 20  2  0  0  0  0
 19 16  1  0  0  0  0
 20 21  1  0  0  0  0
 22 19  1  0  0  0  0
 22 10  1  0  0  0  0
 23 19  1  0  0  0  0
 24 22  2  0  0  0  0
 25 28  1  0  0  0  0
 25 27  2  0  0  0  0
 26 25  2  0  0  0  0
 28 29  1  0  0  0  0
 29 30  2  0  0  0  0
 31 33  1  0  0  0  0
 31 30  1  0  0  0  0
 32 31  2  0  0  0  0
 34 32  1  0  0  0  0
 34 28  2  0  0  0  0
M  END
>  <Pose>
1

>  <Score>
-9.249

$$$$
