/Users/jonathanwahrer/Desktop/Msc/3_Semester/Drug_Design_Praktikum/waehrer_HTS_screening/HTS_experiment/out/docking_results/vina_output/3e7o/2417_docked.pdbqt
 OpenBabel03192217103D

 27 30  0  0  1  0  0  0  0  0999 V2000
  -40.8800  -65.6310   49.6940 N   0  0  0  0  0  0  0  0  0  0  0  0
  -40.0560  -65.9220   48.4970 C   0  0  0  0  0  2  0  0  0  0  0  0
  -38.6940  -65.7930   49.0070 C   0  0  2  0  0  3  0  0  0  0  0  0
  -38.7700  -64.4300   49.6750 C   0  0  2  0  0  3  0  0  0  0  0  0
  -40.1400  -64.7000   50.4320 C   0  0  0  0  0  2  0  0  0  0  0  0
  -41.1860  -66.9350   50.3020 C   0  0  0  0  0  2  0  0  0  0  0  0
  -41.5380  -66.9380   51.6990 C   0  0  0  0  0  0  0  0  0  0  0  0
  -41.0910  -67.7190   52.7410 C   0  0  0  0  0  0  0  0  0  0  0  0
  -40.0310  -68.5910   52.8240 C   0  0  0  0  0  0  0  0  0  0  0  0
  -41.8060  -67.4810   53.8920 C   0  0  0  0  0  0  0  0  0  0  0  0
  -39.1920  -68.9980   51.3310 Cl  0  0  0  0  0  0  0  0  0  0  0  0
  -39.6770  -69.1960   53.9990 C   0  0  0  0  0  3  0  0  0  0  0  0
  -40.4130  -68.9390   55.1520 C   0  0  0  0  0  3  0  0  0  0  0  0
  -41.4970  -68.0590   55.0850 C   0  0  0  0  0  3  0  0  0  0  0  0
  -42.7210  -66.5490   53.5460 N   0  0  0  0  0  0  0  0  0  0  0  0
  -42.5660  -66.2270   52.2890 N   0  0  0  0  0  0  0  0  0  0  0  0
  -43.7960  -66.0770   54.4360 C   0  0  0  0  0  1  0  0  0  0  0  0
  -37.5990  -65.8080   47.9700 C   0  0  0  0  0  2  0  0  0  0  0  0
  -36.4710  -66.4980   48.5130 N   0  0  0  0  0  0  0  0  0  0  0  0
  -35.3440  -65.6260   48.7680 C   0  0  0  0  0  2  0  0  0  0  0  0
  -34.8930  -65.6270   50.2110 C   0  0  0  0  0  2  0  0  0  0  0  0
  -34.6310  -66.8810   50.7150 O   0  0  0  0  0  0  0  0  0  0  0  0
  -35.4930  -67.8540   50.2170 C   0  0  0  0  0  2  0  0  0  0  0  0
  -36.7550  -67.2030   49.7410 C   0  0  0  0  0  2  0  0  0  0  0  0
  -39.1200  -63.3530   48.6900 C   0  0  0  0  0  2  0  0  0  0  0  0
  -39.7790  -62.2950   49.3700 O   0  0  0  0  0  0  0  0  0  0  0  0
  -39.0380  -61.8180   49.9100 H   0  0  0  0  0  0  0  0  0  0  0  0
  1  6  1  0  0  0  0
  1  5  1  0  0  0  0
  2  3  1  0  0  0  0
  2  1  1  0  0  0  0
  3 18  1  6  0  0  0
  3  4  1  0  0  0  0
  4 25  1  6  0  0  0
  4  5  1  0  0  0  0
  6  7  1  0  0  0  0
  7 16  2  0  0  0  0
  7  8  1  0  0  0  0
  8  9  2  0  0  0  0
  8 10  1  0  0  0  0
  9 12  1  0  0  0  0
 10 14  2  0  0  0  0
 11  9  1  0  0  0  0
 12 13  2  0  0  0  0
 14 13  1  0  0  0  0
 15 10  1  0  0  0  0
 15 17  1  0  0  0  0
 16 15  1  0  0  0  0
 18 19  1  0  0  0  0
 19 20  1  0  0  0  0
 19 24  1  0  0  0  0
 20 21  1  0  0  0  0
 21 22  1  0  0  0  0
 23 22  1  0  0  0  0
 24 23  1  0  0  0  0
 25 26  1  0  0  0  0
 26 27  1  0  0  0  0
M  END
>  <Pose>
1

>  <Score>
-7.769

$$$$
