/Users/jonathanwahrer/Desktop/Msc/3_Semester/Drug_Design_Praktikum/waehrer_HTS_screening/HTS_experiment/out/docking_results/vina_output/3e7o/2432_docked.pdbqt
 OpenBabel03192217113D

 26 29  0  0  0  0  0  0  0  0999 V2000
  -40.8880  -66.5770   49.9620 C   0  0  0  0  0  0  0  0  0  0  0  0
  -41.3090  -67.6350   49.2930 O   0  0  0  0  0  0  0  0  0  0  0  0
  -40.1040  -65.6680   49.2710 N   0  0  0  0  0  0  0  0  0  0  0  0
  -39.7670  -65.9780   47.8600 C   0  0  0  0  0  2  0  0  0  0  0  0
  -38.2660  -66.0790   47.8050 C   0  0  0  0  0  2  0  0  0  0  0  0
  -37.5980  -65.7200   49.0160 N   0  0  0  0  0  0  0  0  0  0  0  0
  -38.0820  -64.7170   49.9520 C   0  0  0  0  0  2  0  0  0  0  0  0
  -39.5560  -64.4360   49.7040 C   0  0  0  0  0  2  0  0  0  0  0  0
  -41.3440  -66.5790   51.3280 C   0  0  0  0  0  0  0  0  0  0  0  0
  -42.3080  -65.8820   51.9320 N   0  0  0  0  0  0  0  0  0  0  0  0
  -42.4210  -66.2100   53.2490 C   0  0  0  0  0  0  0  0  0  0  0  0
  -42.9410  -65.1540   51.5460 H   0  0  0  0  0  0  0  0  0  0  0  0
  -43.5360  -65.5670   54.4370 Cl  0  0  0  0  0  0  0  0  0  0  0  0
  -41.4870  -67.1690   53.5330 C   0  0  0  0  0  0  0  0  0  0  0  0
  -40.8280  -67.3910   52.3470 C   0  0  0  0  0  3  0  0  0  0  0  0
  -41.2100  -67.9340   55.0830 Cl  0  0  0  0  0  0  0  0  0  0  0  0
  -36.3790  -66.3620   49.3670 C   0  0  0  0  0  0  0  0  0  0  0  0
  -35.1930  -65.8830   48.9460 N   0  0  0  0  0  0  0  0  0  0  0  0
  -34.0230  -66.4830   49.2690 C   0  0  0  0  0  3  0  0  0  0  0  0
  -34.0150  -67.5890   50.0320 N   0  0  0  0  0  0  0  0  0  0  0  0
  -35.1540  -68.1300   50.4920 C   0  0  0  0  0  0  0  0  0  0  0  0
  -35.4140  -69.2060   51.2570 N   0  0  0  0  0  0  0  0  0  0  0  0
  -36.3550  -67.4970   50.1490 C   0  0  0  0  0  0  0  0  0  0  0  0
  -36.7220  -69.2720   51.4030 N   0  0  0  0  0  0  0  0  0  0  0  0
  -34.4540  -70.1490   51.8330 C   0  0  0  0  0  1  0  0  0  0  0  0
  -37.3280  -68.2540   50.7470 C   0  0  0  0  0  3  0  0  0  0  0  0
  1  9  1  0  0  0  0
  2  1  2  0  0  0  0
  3  8  1  0  0  0  0
  3  1  1  0  0  0  0
  4  3  1  0  0  0  0
  5  4  1  0  0  0  0
  5  6  1  0  0  0  0
  6 17  1  0  0  0  0
  6  7  1  0  0  0  0
  8  7  1  0  0  0  0
  9 10  1  0  0  0  0
  9 15  2  0  0  0  0
 10 11  1  0  0  0  0
 11 14  2  0  0  0  0
 11 13  1  0  0  0  0
 12 10  1  0  0  0  0
 14 16  1  0  0  0  0
 15 14  1  0  0  0  0
 17 23  1  0  0  0  0
 18 19  1  0  0  0  0
 18 17  2  0  0  0  0
 19 20  2  0  0  0  0
 20 21  1  0  0  0  0
 21 22  1  0  0  0  0
 22 24  1  0  0  0  0
 22 25  1  0  0  0  0
 23 21  2  0  0  0  0
 23 26  1  0  0  0  0
 26 24  2  0  0  0  0
M  END
>  <Pose>
1

>  <Score>
-7.432

$$$$
