/Users/jonathanwahrer/Desktop/Msc/3_Semester/Drug_Design_Praktikum/waehrer_HTS_screening/HTS_experiment/out/docking_results/vina_output/3e7o/2447_docked.pdbqt
 OpenBabel03192217123D

 33 36  0  0  1  0  0  0  0  0999 V2000
  -36.2290  -68.1810   50.5630 C   0  0  1  0  0  3  0  0  0  0  0  0
  -34.9650  -68.7630   51.1000 C   0  0  0  0  0  0  0  0  0  0  0  0
  -34.9340  -69.8500   51.7260 O   0  0  0  0  0  0  0  0  0  0  0  0
  -33.8370  -67.9890   50.8420 O   0  0  0  0  0  0  0  0  0  0  0  0
  -33.6920  -67.1480   49.7590 C   0  0  0  0  0  3  0  0  0  0  0  0
  -34.7170  -67.0670   48.8830 C   0  0  0  0  0  0  0  0  0  0  0  0
  -35.9000  -67.8640   49.1270 C   0  0  0  0  0  0  0  0  0  0  0  0
  -36.6250  -68.2820   48.2090 O   0  0  0  0  0  0  0  0  0  0  0  0
  -34.6320  -66.2070   47.6950 C   0  0  0  0  0  2  0  0  0  0  0  0
  -35.0270  -64.8720   47.8850 N   0  0  0  0  0  0  0  0  0  0  0  0
  -35.4090  -64.4040   49.1480 C   0  0  0  0  0  2  0  0  0  0  0  0
  -36.2800  -63.1350   49.0110 C   0  0  0  0  0  2  0  0  0  0  0  0
  -37.2650  -63.4680   48.0140 N   0  0  0  0  0  0  0  0  0  0  0  0
  -36.7320  -63.6000   46.6650 C   0  0  0  0  0  2  0  0  0  0  0  0
  -35.2870  -64.0730   46.7440 C   0  0  0  0  0  2  0  0  0  0  0  0
  -38.6260  -63.6640   48.3210 C   0  0  0  0  0  0  0  0  0  0  0  0
  -39.0970  -63.9130   49.5900 C   0  0  0  0  0  3  0  0  0  0  0  0
  -40.4380  -64.0930   49.8330 C   0  0  0  0  0  0  0  0  0  0  0  0
  -41.3800  -64.0340   48.8330 C   0  0  0  0  0  3  0  0  0  0  0  0
  -40.9730  -64.4060   51.4620 Cl  0  0  0  0  0  0  0  0  0  0  0  0
  -40.9420  -63.7880   47.5580 C   0  0  0  0  0  3  0  0  0  0  0  0
  -39.5890  -63.6070   47.3080 C   0  0  0  0  0  3  0  0  0  0  0  0
  -37.3920  -69.1020   50.6680 C   0  0  0  0  0  2  0  0  0  0  0  0
  -38.3620  -68.5290   51.5340 N   0  0  0  0  0  0  0  0  0  0  0  0
  -38.6160  -69.2660   52.7470 C   0  0  0  0  0  2  0  0  0  0  0  0
  -40.0140  -69.8420   52.6380 C   0  0  0  0  0  2  0  0  0  0  0  0
  -40.9550  -68.7760   52.7220 N   0  0  0  0  0  0  0  0  0  0  0  0
  -40.4940  -67.6010   52.0570 C   0  0  0  0  0  2  0  0  0  0  0  0
  -39.4960  -67.9230   50.9430 C   0  0  0  0  0  2  0  0  0  0  0  0
  -41.6040  -68.5200   54.2710 S   0  0  0  0  0  0  0  0  0  0  0  0
  -42.0320  -69.7970   54.9610 O   0  0  0  0  0  0  0  0  0  0  0  0
  -40.5100  -67.9220   55.1460 O   0  0  0  0  0  0  0  0  0  0  0  0
  -42.9550  -67.4030   54.2980 C   0  0  0  0  0  1  0  0  0  0  0  0
  1 23  1  6  0  0  0
  1  2  1  0  0  0  0
  2  3  2  0  0  0  0
  4  2  1  0  0  0  0
  5  4  1  0  0  0  0
  6  7  1  0  0  0  0
  6  5  2  0  0  0  0
  7  1  1  0  0  0  0
  8  7  2  0  0  0  0
  9 10  1  0  0  0  0
  9  6  1  0  0  0  0
 10 11  1  0  0  0  0
 12 11  1  0  0  0  0
 13 16  1  0  0  0  0
 13 12  1  0  0  0  0
 14 15  1  0  0  0  0
 14 13  1  0  0  0  0
 15 10  1  0  0  0  0
 16 17  1  0  0  0  0
 17 18  2  0  0  0  0
 18 20  1  0  0  0  0
 19 18  1  0  0  0  0
 21 19  2  0  0  0  0
 22 21  1  0  0  0  0
 22 16  2  0  0  0  0
 23 24  1  0  0  0  0
 24 25  1  0  0  0  0
 26 27  1  0  0  0  0
 26 25  1  0  0  0  0
 27 30  1  0  0  0  0
 28 27  1  0  0  0  0
 29 24  1  0  0  0  0
 29 28  1  0  0  0  0
 30 33  1  0  0  0  0
 30 31  2  0  0  0  0
 30 32  2  0  0  0  0
M  END
>  <Pose>
1

>  <Score>
-8.001

$$$$
