
 OpenBabel03202209423D

 50 53  0  0  0  0  0  0  0  0999 V2000
  -35.5440  -63.1930   48.8870 B   0  0  0  0  0  0  0  0  0  0  0  0
  -37.3480  -62.8660   48.3150 C   0  0  0  0  0  0  0  0  0  0  0  0
  -37.5890  -61.7910   47.4800 C   0  0  0  0  0  0  0  0  0  0  0  0
  -38.8900  -61.5740   47.0810 C   0  0  0  0  0  0  0  0  0  0  0  0
  -39.9070  -62.4100   47.5100 C   0  0  0  0  0  0  0  0  0  0  0  0
  -39.6710  -63.4840   48.3440 C   0  0  0  0  0  0  0  0  0  0  0  0
  -38.3670  -63.6950   48.7390 C   0  0  0  0  0  0  0  0  0  0  0  0
  -38.1300  -64.7910   49.5890 O   0  0  0  0  0  0  0  0  0  0  0  0
  -40.7440  -64.3760   48.8040 C   0  0  0  0  0  0  0  0  0  0  0  0
  -41.2590  -64.2850   49.9720 N   0  0  0  0  0  0  0  0  0  0  0  0
  -42.3080  -65.1800   50.3780 N   0  0  0  0  0  0  0  0  0  0  0  0
  -42.5100  -65.3200   51.7550 C   0  0  0  0  0  0  0  0  0  0  0  0
  -41.4340  -65.5390   52.4610 O   0  0  0  0  0  0  0  0  0  0  0  0
  -43.7240  -65.2570   52.5330 C   0  0  0  0  0  0  0  0  0  0  0  0
  -43.7890  -65.6840   53.8430 N   0  0  0  0  0  0  0  0  0  0  0  0
  -45.0030  -65.5070   54.2560 N   0  0  0  0  0  0  0  0  0  0  0  0
  -45.7480  -64.9700   53.2510 N   0  0  0  0  0  0  0  0  0  0  0  0
  -44.9860  -64.8040   52.1720 C   0  0  0  0  0  0  0  0  0  0  0  0
  -45.3490  -64.2690   50.8610 C   0  0  0  0  0  0  0  0  0  0  0  0
  -45.8250  -62.9410   50.7500 N   0  0  0  0  0  4  0  0  0  0  0  0
  -47.2240  -62.8590   50.3580 C   0  0  0  0  0  0  0  0  0  0  0  0
  -47.4900  -63.6610   49.1480 C   0  0  0  0  0  0  0  0  0  0  0  0
  -46.5560  -63.8020   48.2050 O   0  0  0  0  0  0  0  0  0  0  0  0
  -45.3300  -63.2490   48.3850 C   0  0  0  0  0  0  0  0  0  0  0  0
  -45.1560  -62.3540   49.5440 C   0  0  0  0  0  0  0  0  0  0  0  0
  -47.1290  -64.6760   53.4790 C   0  0  0  0  0  0  0  0  0  0  0  0
  -47.8290  -63.5560   53.3520 N   0  0  0  0  0  0  0  0  0  0  0  0
  -49.0570  -63.8270   53.6500 O   0  0  0  0  0  0  0  0  0  0  0  0
  -49.2110  -65.0730   53.9720 N   0  0  0  0  0  0  0  0  0  0  0  0
  -48.0310  -65.6720   53.8850 C   0  0  0  0  0  0  0  0  0  0  0  0
  -47.6860  -67.0250   54.1350 N   0  0  0  0  0  0  0  0  0  0  0  0
  -39.2180  -60.0860   45.9260 B   0  0  0  0  0  0  0  0  0  0  0  0
  -36.5380  -60.9690   47.0670 O   0  0  0  0  0  0  0  0  0  0  0  0
  -40.9310  -62.2230   47.1850 H   0  0  0  0  0  0  0  0  0  0  0  0
  -37.4370  -64.7100   50.3170 H   0  0  0  0  0  0  0  0  0  0  0  0
  -41.1100  -65.1250   48.1470 H   0  0  0  0  0  0  0  0  0  0  0  0
  -42.8350  -65.6460   49.6580 H   0  0  0  0  0  0  0  0  0  0  0  0
  -46.0710  -64.9720   50.3210 H   0  0  0  0  0  0  0  0  0  0  0  0
  -44.4110  -64.3100   50.2200 H   0  0  0  0  0  0  0  0  0  0  0  0
  -45.6000  -62.3660   51.5490 H   0  0  0  0  0  0  0  0  0  0  0  0
  -47.3860  -61.7730   50.0900 H   0  0  0  0  0  0  0  0  0  0  0  0
  -47.9360  -63.1000   51.1420 H   0  0  0  0  0  0  0  0  0  0  0  0
  -48.4190  -63.2320   48.6650 H   0  0  0  0  0  0  0  0  0  0  0  0
  -47.8380  -64.6830   49.4820 H   0  0  0  0  0  0  0  0  0  0  0  0
  -44.5710  -64.0560   48.4150 H   0  0  0  0  0  0  0  0  0  0  0  0
  -45.0840  -62.6570   47.4570 H   0  0  0  0  0  0  0  0  0  0  0  0
  -45.5940  -61.3560   49.4180 H   0  0  0  0  0  0  0  0  0  0  0  0
  -44.1010  -62.2530   49.8340 H   0  0  0  0  0  0  0  0  0  0  0  0
  -48.1040  -67.7770   53.5490 H   0  0  0  0  0  0  0  0  0  0  0  0
  -47.0120  -67.3090   54.9030 H   0  0  0  0  0  0  0  0  0  0  0  0
  2  7  1  0  0  0  0
  2  1  1  0  0  0  0
  3  2  2  0  0  0  0
  4  3  1  0  0  0  0
  4  5  2  0  0  0  0
  5  6  1  0  0  0  0
  6  7  2  0  0  0  0
  6  9  1  0  0  0  0
  7  8  1  0  0  0  0
  8 35  1  0  0  0  0
  9 10  2  0  0  0  0
 10 11  1  0  0  0  0
 11 12  1  0  0  0  0
 12 13  2  0  0  0  0
 12 14  1  0  0  0  0
 14 15  1  0  0  0  0
 15 16  2  0  0  0  0
 17 26  1  0  0  0  0
 17 16  1  0  0  0  0
 18 14  2  0  0  0  0
 18 17  1  0  0  0  0
 19 18  1  0  0  0  0
 20 19  1  0  0  0  0
 20 40  1  0  0  0  0
 21 20  1  0  0  0  0
 21 42  1  0  0  0  0
 22 44  1  0  0  0  0
 22 21  1  0  0  0  0
 23 24  1  0  0  0  0
 23 22  1  0  0  0  0
 24 45  1  0  0  0  0
 24 25  1  0  0  0  0
 25 48  1  0  0  0  0
 25 20  1  0  0  0  0
 26 30  1  0  0  0  0
 27 26  2  0  0  0  0
 27 28  1  0  0  0  0
 28 29  1  0  0  0  0
 30 29  2  0  0  0  0
 30 31  1  0  0  0  0
 31 50  1  0  0  0  0
 32  4  1  0  0  0  0
 33  3  1  0  0  0  0
 34  5  1  0  0  0  0
 36  9  1  0  0  0  0
 37 11  1  0  0  0  0
 38 19  1  0  0  0  0
 39 19  1  0  0  0  0
 41 21  1  0  0  0  0
 43 22  1  0  0  0  0
 46 24  1  0  0  0  0
 47 25  1  0  0  0  0
 49 31  1  0  0  0  0
M  END
>  <Pose>
1

>  <Score>
-7.70

$$$$
