
 OpenBabel03202209423D

 43 46  0  0  0  0  0  0  0  0999 V2000
  -34.4470  -67.2980   45.8980 B   0  0  0  0  0  0  0  0  0  0  0  0
  -35.3140  -66.2040   47.1840 C   0  0  0  0  0  0  0  0  0  0  0  0
  -36.2340  -66.7790   48.0350 C   0  0  0  0  0  0  0  0  0  0  0  0
  -36.8640  -66.0080   48.9630 C   0  0  0  0  0  0  0  0  0  0  0  0
  -36.6000  -64.6380   49.0740 C   0  0  0  0  0  0  0  0  0  0  0  0
  -35.6790  -64.0910   48.2150 C   0  0  0  0  0  0  0  0  0  0  0  0
  -35.0330  -64.8520   47.2720 C   0  0  0  0  0  0  0  0  0  0  0  0
  -35.2800  -62.2240   48.3240 B   0  0  0  0  0  0  0  0  0  0  0  0
  -37.8330  -66.6020   49.8630 C   0  0  0  0  0  0  0  0  0  0  0  0
  -38.8610  -67.1850   49.3760 N   0  0  0  0  0  0  0  0  0  0  0  0
  -39.8460  -67.7830   50.1430 N   0  0  0  0  0  0  0  0  0  0  0  0
  -41.0480  -67.1520   50.5460 C   0  0  0  0  0  0  0  0  0  0  0  0
  -42.0270  -67.2560   49.7690 O   0  0  0  0  0  0  0  0  0  0  0  0
  -41.1830  -66.4160   51.7790 C   0  0  0  0  0  0  0  0  0  0  0  0
  -41.4920  -67.1830   52.9450 N   0  0  0  0  0  0  0  0  0  0  0  0
  -40.7940  -68.2320   53.4560 C   0  0  0  0  0  0  0  0  0  0  0  0
  -41.4120  -68.7030   54.5810 C   0  0  0  0  0  0  0  0  0  0  0  0
  -42.4940  -67.9250   54.7430 N   0  0  0  0  0  0  0  0  0  0  0  0
  -42.5460  -66.9910   53.7410 C   0  0  0  0  0  0  0  0  0  0  0  0
  -43.5980  -65.9900   53.6200 C   0  0  0  0  0  0  0  0  0  0  0  0
  -43.4380  -64.7440   53.1540 N   0  0  0  0  0  0  0  0  0  0  0  0
  -44.6040  -64.1230   53.1880 O   0  0  0  0  0  0  0  0  0  0  0  0
  -45.5180  -64.9130   53.6570 N   0  0  0  0  0  0  0  0  0  0  0  0
  -44.9320  -66.0960   53.9420 C   0  0  0  0  0  0  0  0  0  0  0  0
  -45.5690  -67.2430   54.4750 N   0  0  0  0  0  4  0  0  0  0  0  0
  -40.8510  -69.7720   55.2470 C   0  0  0  0  0  0  0  0  0  0  0  0
  -39.6850  -70.3790   54.8100 C   0  0  0  0  0  0  0  0  0  0  0  0
  -39.0830  -69.8800   53.6690 C   0  0  0  0  0  0  0  0  0  0  0  0
  -39.6420  -68.8100   53.0000 C   0  0  0  0  0  0  0  0  0  0  0  0
  -36.5070  -68.1320   47.9380 O   0  0  0  0  0  0  0  0  0  0  0  0
  -37.0900  -64.0140   49.8040 H   0  0  0  0  0  0  0  0  0  0  0  0
  -34.3060  -64.4550   46.5830 H   0  0  0  0  0  0  0  0  0  0  0  0
  -37.7320  -66.5770   50.9410 H   0  0  0  0  0  0  0  0  0  0  0  0
  -39.6960  -68.7680   50.4500 H   0  0  0  0  0  0  0  0  0  0  0  0
  -40.2360  -65.8480   52.0400 H   0  0  0  0  0  0  0  0  0  0  0  0
  -41.9300  -65.6080   51.6440 H   0  0  0  0  0  0  0  0  0  0  0  0
  -46.2530  -67.6570   53.8280 H   0  0  0  0  0  0  0  0  0  0  0  0
  -46.1170  -66.9080   55.3150 H   0  0  0  0  0  0  0  0  0  0  0  0
  -44.8840  -67.9620   54.8280 H   0  0  0  0  0  0  0  0  0  0  0  0
  -41.3500  -70.1400   56.1430 H   0  0  0  0  0  0  0  0  0  0  0  0
  -39.2660  -71.2270   55.3630 H   0  0  0  0  0  0  0  0  0  0  0  0
  -38.1700  -70.3530   53.3250 H   0  0  0  0  0  0  0  0  0  0  0  0
  -39.1870  -68.4020   52.1010 H   0  0  0  0  0  0  0  0  0  0  0  0
  1  2  1  0  0  0  0
  2  7  2  0  0  0  0
  2  3  1  0  0  0  0
  3  4  2  0  0  0  0
  4  5  1  0  0  0  0
  4  9  1  0  0  0  0
  5 31  1  0  0  0  0
  6  8  1  0  0  0  0
  6  5  2  0  0  0  0
  7  6  1  0  0  0  0
  9 33  1  0  0  0  0
 10  9  2  0  0  0  0
 10 11  1  0  0  0  0
 11 34  1  0  0  0  0
 11 12  1  0  0  0  0
 12 14  1  0  0  0  0
 13 12  2  0  0  0  0
 14 35  1  0  0  0  0
 14 15  1  0  0  0  0
 15 16  1  0  0  0  0
 15 19  1  0  0  0  0
 16 17  1  0  0  0  0
 17 18  1  0  0  0  0
 17 26  2  0  0  0  0
 19 18  2  0  0  0  0
 20 19  1  0  0  0  0
 20 24  1  0  0  0  0
 21 22  1  0  0  0  0
 21 20  2  0  0  0  0
 22 23  1  0  0  0  0
 23 24  2  0  0  0  0
 24 25  1  0  0  0  0
 25 39  1  0  0  0  0
 25 38  1  0  0  0  0
 26 40  1  0  0  0  0
 27 26  1  0  0  0  0
 27 41  1  0  0  0  0
 28 27  2  0  0  0  0
 29 16  2  0  0  0  0
 29 28  1  0  0  0  0
 30  3  1  0  0  0  0
 32  7  1  0  0  0  0
 36 14  1  0  0  0  0
 37 25  1  0  0  0  0
 42 28  1  0  0  0  0
 43 29  1  0  0  0  0
M  END
>  <Pose>
1

>  <Score>
-8.02

$$$$
