
 OpenBabel03202209423D

 58 61  0  0  0  0  0  0  0  0999 V2000
  -35.6330  -61.7120   47.2110 B   0  0  0  0  0  0  0  0  0  0  0  0
  -36.6060  -63.1840   47.9640 C   0  0  0  0  0  0  0  0  0  0  0  0
  -36.0440  -64.4300   47.9670 C   0  0  0  0  0  0  0  0  0  0  0  0
  -36.7600  -65.5010   48.5000 C   0  0  0  0  0  0  0  0  0  0  0  0
  -38.0320  -65.3000   49.0180 C   0  0  0  0  0  0  0  0  0  0  0  0
  -38.6060  -64.0620   49.0120 C   0  0  0  0  0  0  0  0  0  0  0  0
  -37.8720  -63.0240   48.4830 C   0  0  0  0  0  0  0  0  0  0  0  0
  -40.0230  -63.7870   49.3280 C   0  0  0  0  0  0  0  0  0  0  0  0
  -40.9140  -64.5180   49.4670 N   0  0  0  0  0  0  0  0  0  0  0  0
  -41.9330  -65.3240   49.6290 N   0  0  0  0  0  0  0  0  0  0  0  0
  -41.9710  -65.8190   51.0240 C   0  0  0  0  0  0  0  0  0  0  0  0
  -41.1200  -66.6940   51.5260 N   0  0  0  0  0  4  0  0  0  0  0  0
  -41.3330  -67.2570   52.7500 C   0  0  0  0  0  0  0  0  0  0  0  0
  -42.4560  -66.8610   53.3940 N   0  0  0  0  0  0  0  0  0  0  0  0
  -43.3570  -65.9730   52.9340 C   0  0  0  0  0  0  0  0  0  0  0  0
  -43.0830  -65.4510   51.7170 N   0  0  0  0  0  0  0  0  0  0  0  0
  -44.5560  -65.7300   53.5800 N   0  0  0  0  0  0  0  0  0  0  0  0
  -45.1340  -66.3760   54.6950 C   0  0  0  0  0  0  0  0  0  0  0  0
  -46.4520  -66.9870   54.2120 C   0  0  0  0  0  0  0  0  0  0  0  0
  -47.2020  -65.9740   53.6560 O   0  0  0  0  0  0  0  0  0  0  0  0
  -46.6450  -65.3520   52.5610 C   0  0  0  0  0  0  0  0  0  0  0  0
  -45.3580  -64.6040   53.0140 C   0  0  0  0  0  0  0  0  0  0  0  0
  -40.4920  -68.2610   53.2860 N   0  0  0  0  0  0  0  0  0  0  0  0
  -39.3480  -68.7460   52.4970 C   0  0  0  0  0  0  0  0  0  0  0  0
  -39.4210  -70.2920   52.6000 C   0  0  0  0  0  0  0  0  0  0  0  0
  -39.1400  -70.5590   53.9100 O   0  0  0  0  0  0  0  0  0  0  0  0
  -40.1240  -70.1780   54.7790 C   0  0  0  0  0  0  0  0  0  0  0  0
  -40.7450  -68.8390   54.5490 C   0  0  0  0  0  0  0  0  0  0  0  0
  -36.1240  -66.7020   48.4700 O   0  0  0  0  0  0  0  0  0  0  0  0
  -35.6720  -67.4900   49.5130 C   0  0  0  0  0  0  0  0  0  0  0  0
  -34.5680  -66.8240   50.3220 C   0  0  0  0  0  0  0  0  0  0  0  0
  -34.7810  -64.5810   47.4370 O   0  0  0  0  0  0  0  0  0  0  0  0
  -38.5870  -66.1060   49.4530 H   0  0  0  0  0  0  0  0  0  0  0  0
  -38.2580  -62.0250   48.4810 H   0  0  0  0  0  0  0  0  0  0  0  0
  -40.2880  -62.7100   49.4530 H   0  0  0  0  0  0  0  0  0  0  0  0
  -42.6700  -65.6530   49.0360 H   0  0  0  0  0  0  0  0  0  0  0  0
  -44.5430  -67.1230   55.2240 H   0  0  0  0  0  0  0  0  0  0  0  0
  -45.4360  -65.5380   55.4150 H   0  0  0  0  0  0  0  0  0  0  0  0
  -47.0100  -67.3120   55.1260 H   0  0  0  0  0  0  0  0  0  0  0  0
  -46.2230  -67.8150   53.5370 H   0  0  0  0  0  0  0  0  0  0  0  0
  -47.3070  -64.5870   52.1870 H   0  0  0  0  0  0  0  0  0  0  0  0
  -46.4020  -66.0360   51.7150 H   0  0  0  0  0  0  0  0  0  0  0  0
  -44.8680  -64.1860   52.1660 H   0  0  0  0  0  0  0  0  0  0  0  0
  -45.5890  -63.9410   53.8360 H   0  0  0  0  0  0  0  0  0  0  0  0
  -39.4600  -68.5100   51.4380 H   0  0  0  0  0  0  0  0  0  0  0  0
  -38.4160  -68.3580   52.8590 H   0  0  0  0  0  0  0  0  0  0  0  0
  -38.6880  -70.7130   51.9290 H   0  0  0  0  0  0  0  0  0  0  0  0
  -40.4710  -70.5540   52.3070 H   0  0  0  0  0  0  0  0  0  0  0  0
  -39.6790  -70.1730   55.8220 H   0  0  0  0  0  0  0  0  0  0  0  0
  -40.9050  -70.9640   54.8220 H   0  0  0  0  0  0  0  0  0  0  0  0
  -40.4590  -68.1230   55.3610 H   0  0  0  0  0  0  0  0  0  0  0  0
  -41.8710  -68.9790   54.6130 H   0  0  0  0  0  0  0  0  0  0  0  0
  -36.5620  -67.6180   50.2170 H   0  0  0  0  0  0  0  0  0  0  0  0
  -35.3260  -68.4670   49.1960 H   0  0  0  0  0  0  0  0  0  0  0  0
  -34.1790  -65.9190   49.8460 H   0  0  0  0  0  0  0  0  0  0  0  0
  -33.7470  -67.5680   50.4850 H   0  0  0  0  0  0  0  0  0  0  0  0
  -34.9590  -66.5580   51.3350 H   0  0  0  0  0  0  0  0  0  0  0  0
  -33.9450  -64.3260   47.9060 H   0  0  0  0  0  0  0  0  0  0  0  0
  1  2  1  0  0  0  0
  2  3  2  0  0  0  0
  2  7  1  0  0  0  0
  3  4  1  0  0  0  0
  4  5  2  0  0  0  0
  5 33  1  0  0  0  0
  6  5  1  0  0  0  0
  6  8  1  0  0  0  0
  7  6  2  0  0  0  0
  8 35  1  0  0  0  0
  8  9  1  0  0  0  0
  9 10  1  0  0  0  0
 10 11  1  0  0  0  0
 11 12  2  0  0  0  0
 11 16  1  0  0  0  0
 12 13  2  0  0  0  0
 13 23  1  0  0  0  0
 13 14  1  0  0  0  0
 15 14  2  0  0  0  0
 15 17  1  0  0  0  0
 16 15  1  0  0  0  0
 17 18  1  0  0  0  0
 18 37  1  0  0  0  0
 18 38  1  0  0  0  0
 19 18  1  0  0  0  0
 19 39  1  0  0  0  0
 20 19  1  0  0  0  0
 21 22  1  0  0  0  0
 21 20  1  0  0  0  0
 22 17  1  0  0  0  0
 22 44  1  0  0  0  0
 23 28  1  0  0  0  0
 24 25  1  0  0  0  0
 24 46  1  0  0  0  0
 24 23  1  0  0  0  0
 25 26  1  0  0  0  0
 26 27  1  0  0  0  0
 27 50  1  0  0  0  0
 27 49  1  0  0  0  0
 28 52  1  0  0  0  0
 28 27  1  0  0  0  0
 28 51  1  0  0  0  0
 29  4  1  0  0  0  0
 29 30  1  0  0  0  0
 30 53  1  0  0  0  0
 30 31  1  0  0  0  0
 31 56  1  0  0  0  0
 31 57  1  0  0  0  0
 32 58  1  0  0  0  0
 32  3  1  0  0  0  0
 34  7  1  0  0  0  0
 36 10  1  0  0  0  0
 40 19  1  0  0  0  0
 41 21  1  0  0  0  0
 42 21  1  0  0  0  0
 43 22  1  0  0  0  0
 45 24  1  0  0  0  0
 47 25  1  0  0  0  0
 48 25  1  0  0  0  0
 54 30  1  0  0  0  0
 55 31  1  0  0  0  0
M  END
>  <Pose>
1

>  <Score>
-6.97

$$$$
