
 OpenBabel03202209423D

 39 42  0  0  1  0  0  0  0  0999 V2000
  -40.6760  -69.1570   55.2950 B   0  0  0  0  0  0  0  0  0  0  0  0
  -41.5020  -67.9590   54.0720 C   0  0  0  0  0  0  0  0  0  0  0  0
  -40.9720  -67.7850   52.8160 C   0  0  0  0  0  0  0  0  0  0  0  0
  -41.5920  -66.9110   51.9500 C   0  0  0  0  0  0  0  0  0  0  0  0
  -42.7230  -66.1900   52.2680 C   0  0  0  0  0  0  0  0  0  0  0  0
  -43.2510  -66.3700   53.5290 C   0  0  0  0  0  0  0  0  0  0  0  0
  -42.6510  -67.2380   54.4140 C   0  0  0  0  0  0  0  0  0  0  0  0
  -44.4730  -65.6540   53.9900 C   0  0  2  0  0  0  0  0  0  0  0  0
  -45.4210  -66.5900   54.4340 N   0  0  0  0  0  4  0  0  0  0  0  0
  -46.7760  -66.4430   54.0600 C   0  0  1  0  0  0  0  0  0  0  0  0
  -47.1800  -65.0610   53.6210 C   0  0  0  0  0  0  0  0  0  0  0  0
  -46.1910  -64.4610   52.6940 C   0  0  0  0  0  0  0  0  0  0  0  0
  -46.3210  -63.6210   51.6220 C   0  0  0  0  0  0  0  0  0  0  0  0
  -45.0290  -63.4200   51.1660 C   0  0  0  0  0  0  0  0  0  0  0  0
  -44.1680  -64.1220   51.9500 N   0  0  0  0  0  0  0  0  0  0  0  0
  -44.8770  -64.7620   52.8890 C   0  0  0  0  0  0  0  0  0  0  0  0
  -44.8780  -62.5950   50.0720 C   0  0  0  0  0  0  0  0  0  0  0  0
  -45.9590  -61.9990   49.4580 C   0  0  0  0  0  0  0  0  0  0  0  0
  -47.2460  -62.2010   49.9140 C   0  0  0  0  0  0  0  0  0  0  0  0
  -47.4160  -63.0260   51.0130 C   0  0  0  0  0  0  0  0  0  0  0  0
  -47.1820  -67.3830   52.9800 C   0  0  0  0  0  0  0  0  0  0  0  0
  -47.2860  -68.6300   53.2430 O   0  0  0  0  0  0  0  0  0  0  0  0
  -47.4390  -66.8990   51.7080 O   0  0  0  0  0  0  0  0  0  0  0  0
  -40.8380  -66.6850   50.2140 B   0  0  0  0  0  0  0  0  0  0  0  0
  -39.8160  -68.4850   52.4140 O   0  0  0  0  0  0  0  0  0  0  0  0
  -43.2230  -65.5080   51.6170 H   0  0  0  0  0  0  0  0  0  0  0  0
  -43.0080  -67.4340   55.4210 H   0  0  0  0  0  0  0  0  0  0  0  0
  -44.1300  -64.9840   54.8260 H   0  0  0  0  0  0  0  0  0  0  0  0
  -45.1270  -67.5840   54.2120 H   0  0  0  0  0  0  0  0  0  0  0  0
  -45.3870  -66.6000   55.5040 H   0  0  0  0  0  0  0  0  0  0  0  0
  -47.4680  -66.6920   54.9220 H   0  0  0  0  0  0  0  0  0  0  0  0
  -47.3240  -64.3560   54.4650 H   0  0  0  0  0  0  0  0  0  0  0  0
  -48.1470  -65.1230   53.0810 H   0  0  0  0  0  0  0  0  0  0  0  0
  -43.1400  -64.1020   51.7710 H   0  0  0  0  0  0  0  0  0  0  0  0
  -43.8840  -62.4210   49.6960 H   0  0  0  0  0  0  0  0  0  0  0  0
  -45.8320  -61.3400   48.5850 H   0  0  0  0  0  0  0  0  0  0  0  0
  -48.0690  -61.7160   49.4070 H   0  0  0  0  0  0  0  0  0  0  0  0
  -48.4150  -63.2020   51.3900 H   0  0  0  0  0  0  0  0  0  0  0  0
  -38.9530  -68.2850   52.9000 H   0  0  0  0  0  0  0  0  0  0  0  0
  2  7  1  0  0  0  0
  2  1  1  0  0  0  0
  3  2  2  0  0  0  0
  4  5  2  0  0  0  0
  4  3  1  0  0  0  0
  5  6  1  0  0  0  0
  6  8  1  0  0  0  0
  6  7  2  0  0  0  0
  7 27  1  0  0  0  0
  8  9  1  0  0  0  0
  8 28  1  1  0  0  0
  9 30  1  0  0  0  0
 10  9  1  0  0  0  0
 10 31  1  1  0  0  0
 11 10  1  0  0  0  0
 11 32  1  0  0  0  0
 12 16  2  0  0  0  0
 12 11  1  0  0  0  0
 13 12  1  0  0  0  0
 14 13  1  0  0  0  0
 14 15  1  0  0  0  0
 15 16  1  0  0  0  0
 16  8  1  0  0  0  0
 17 14  2  0  0  0  0
 18 19  2  0  0  0  0
 18 17  1  0  0  0  0
 19 20  1  0  0  0  0
 20 38  1  0  0  0  0
 20 13  2  0  0  0  0
 21 22  1  0  0  0  0
 21 10  1  0  0  0  0
 23 21  2  0  0  0  0
 24  4  1  0  0  0  0
 25  3  1  0  0  0  0
 25 39  1  0  0  0  0
 26  5  1  0  0  0  0
 29  9  1  0  0  0  0
 33 11  1  0  0  0  0
 34 15  1  0  0  0  0
 35 17  1  0  0  0  0
 36 18  1  0  0  0  0
 37 19  1  0  0  0  0
M  END
>  <Pose>
1

>  <Score>
-5.79

$$$$
