
 OpenBabel03202209423D

 47 50  0  0  1  0  0  0  0  0999 V2000
  -43.0590  -67.5090   54.4960 B   0  0  0  0  0  0  0  0  0  0  0  0
  -42.9120  -66.1850   53.1120 C   0  0  0  0  0  0  0  0  0  0  0  0
  -41.7470  -65.9730   52.4660 C   0  0  0  0  0  0  0  0  0  0  0  0
  -41.6340  -64.9450   51.4850 C   0  0  0  0  0  0  0  0  0  0  0  0
  -42.7280  -64.1910   51.2370 C   0  0  0  0  0  0  0  0  0  0  0  0
  -43.9080  -64.4160   51.9180 C   0  0  0  0  0  0  0  0  0  0  0  0
  -44.0160  -65.4030   52.8490 C   0  0  0  0  0  0  0  0  0  0  0  0
  -40.2350  -64.5850   51.1820 C   0  0  0  0  0  0  0  0  0  0  0  0
  -39.8460  -64.1510   49.9030 N   0  0  2  0  0  4  0  0  0  0  0  0
  -40.0140  -62.8510   49.4860 C   0  0  0  0  0  0  0  0  0  0  0  0
  -39.4120  -62.6100   48.1760 N   0  0  2  0  0  0  0  0  0  0  0  0
  -40.0340  -63.5270   47.2350 C   0  0  0  0  0  0  0  0  0  0  0  0
  -39.9120  -64.9070   47.6550 N   0  0  2  0  0  0  0  0  0  0  0  0
  -40.4240  -65.1550   48.9440 C   0  0  0  0  0  0  0  0  0  0  0  0
  -38.5120  -65.2710   47.5960 C   0  0  0  0  0  0  0  0  0  0  0  0
  -37.7910  -64.3300   48.5280 C   0  0  2  0  0  0  0  0  0  0  0  0
  -38.3810  -64.4940   49.8790 C   0  0  0  0  0  0  0  0  0  0  0  0
  -37.9940  -62.8680   48.1410 C   0  0  0  0  0  0  0  0  0  0  0  0
  -40.6550  -66.7230   52.7240 O   0  0  0  0  0  0  0  0  0  0  0  0
  -40.3900  -67.9960   52.0990 C   0  0  0  0  0  0  0  0  0  0  0  0
  -40.3910  -69.1770   52.9590 C   0  0  0  0  0  0  0  0  0  0  0  0
  -41.3800  -69.8320   53.2570 O   0  0  0  0  0  0  0  0  0  0  0  0
  -39.1560  -69.6110   53.4520 O   0  0  0  0  0  0  0  0  0  0  0  0
  -38.0650  -69.9160   52.6250 C   0  0  0  0  0  0  0  0  0  0  0  0
  -42.6710  -63.3660   50.5280 H   0  0  0  0  0  0  0  0  0  0  0  0
  -44.7770  -63.7580   51.6910 H   0  0  0  0  0  0  0  0  0  0  0  0
  -44.9500  -65.6080   53.3480 H   0  0  0  0  0  0  0  0  0  0  0  0
  -39.4740  -65.0600   51.8090 H   0  0  0  0  0  0  0  0  0  0  0  0
  -40.1540  -63.4620   51.7520 H   0  0  0  0  0  0  0  0  0  0  0  0
  -39.6820  -62.1250   50.2330 H   0  0  0  0  0  0  0  0  0  0  0  0
  -41.1100  -62.6700   49.3310 H   0  0  0  0  0  0  0  0  0  0  0  0
  -39.4630  -63.4530   46.2820 H   0  0  0  0  0  0  0  0  0  0  0  0
  -41.0730  -63.2410   47.0160 H   0  0  0  0  0  0  0  0  0  0  0  0
  -41.5190  -65.1120   48.9520 H   0  0  0  0  0  0  0  0  0  0  0  0
  -40.0370  -66.1420   49.3140 H   0  0  0  0  0  0  0  0  0  0  0  0
  -38.4170  -66.2920   48.0570 H   0  0  0  0  0  0  0  0  0  0  0  0
  -38.0920  -65.2140   46.5940 H   0  0  0  0  0  0  0  0  0  0  0  0
  -36.7070  -64.5660   48.6210 H   0  0  0  0  0  0  0  0  0  0  0  0
  -38.3140  -65.5240   50.2950 H   0  0  0  0  0  0  0  0  0  0  0  0
  -37.9480  -63.7710   50.6290 H   0  0  0  0  0  0  0  0  0  0  0  0
  -37.6370  -62.7610   47.1150 H   0  0  0  0  0  0  0  0  0  0  0  0
  -37.4510  -62.2770   48.8910 H   0  0  0  0  0  0  0  0  0  0  0  0
  -39.4560  -67.8810   51.4650 H   0  0  0  0  0  0  0  0  0  0  0  0
  -41.2130  -68.1670   51.3300 H   0  0  0  0  0  0  0  0  0  0  0  0
  -37.1210  -69.9310   53.2090 H   0  0  0  0  0  0  0  0  0  0  0  0
  -38.0240  -69.1770   51.7940 H   0  0  0  0  0  0  0  0  0  0  0  0
  -38.2780  -70.9430   52.2150 H   0  0  0  0  0  0  0  0  0  0  0  0
  2  1  1  0  0  0  0
  3 19  1  0  0  0  0
  3  2  2  0  0  0  0
  4  3  1  0  0  0  0
  5  4  2  0  0  0  0
  5  6  1  0  0  0  0
  6  7  2  0  0  0  0
  7  2  1  0  0  0  0
  7 27  1  0  0  0  0
  8  4  1  0  0  0  0
  8 29  1  0  0  0  0
  8 28  1  0  0  0  0
  9  8  1  1  0  0  0
 10  9  1  0  0  0  0
 10 30  1  0  0  0  0
 11 12  1  6  0  0  0
 11 10  1  0  0  0  0
 13 12  1  1  0  0  0
 13 14  1  0  0  0  0
 14 34  1  0  0  0  0
 14 35  1  0  0  0  0
 14  9  1  0  0  0  0
 15 13  1  0  0  0  0
 15 36  1  0  0  0  0
 15 16  1  0  0  0  0
 16 38  1  1  0  0  0
 16 17  1  0  0  0  0
 17  9  1  0  0  0  0
 17 39  1  0  0  0  0
 17 40  1  0  0  0  0
 18 11  1  0  0  0  0
 18 16  1  0  0  0  0
 18 42  1  0  0  0  0
 20 19  1  0  0  0  0
 20 21  1  0  0  0  0
 21 22  2  0  0  0  0
 21 23  1  0  0  0  0
 24 45  1  0  0  0  0
 24 23  1  0  0  0  0
 25  5  1  0  0  0  0
 26  6  1  0  0  0  0
 31 10  1  0  0  0  0
 32 12  1  0  0  0  0
 33 12  1  0  0  0  0
 37 15  1  0  0  0  0
 41 18  1  0  0  0  0
 43 20  1  0  0  0  0
 44 20  1  0  0  0  0
 46 24  1  0  0  0  0
 47 24  1  0  0  0  0
M  END
>  <Pose>
1

>  <Score>
-5.26

$$$$
