
 OpenBabel03202209423D

 52 55  0  0  0  0  0  0  0  0999 V2000
  -41.1560  -66.2900   50.6970 B   0  0  0  0  0  0  0  0  0  0  0  0
  -41.1720  -67.2680   52.3330 C   0  0  0  0  0  0  0  0  0  0  0  0
  -40.2020  -68.2200   52.5920 C   0  0  0  0  0  0  0  0  0  0  0  0
  -40.2370  -68.9170   53.7900 C   0  0  0  0  0  0  0  0  0  0  0  0
  -41.2350  -68.6560   54.7020 C   0  0  0  0  0  0  0  0  0  0  0  0
  -42.1900  -67.6950   54.4060 C   0  0  0  0  0  0  0  0  0  0  0  0
  -42.1790  -66.9890   53.2270 C   0  0  0  0  0  0  0  0  0  0  0  0
  -43.1970  -66.0030   52.9590 C   0  0  0  0  0  0  0  0  0  0  0  0
  -43.3470  -64.9040   53.6210 N   0  0  0  0  0  0  0  0  0  0  0  0
  -44.3840  -63.9910   53.2810 N   0  0  0  0  0  0  0  0  0  0  0  0
  -45.5870  -64.4190   52.6830 C   0  0  0  0  0  0  0  0  0  0  0  0
  -45.9690  -63.8820   51.5210 N   0  0  0  0  0  4  0  0  0  0  0  0
  -47.1220  -64.2460   50.8980 C   0  0  0  0  0  0  0  0  0  0  0  0
  -47.8990  -65.1790   51.4710 N   0  0  0  0  0  0  0  0  0  0  0  0
  -47.5430  -65.7370   52.6380 C   0  0  0  0  0  0  0  0  0  0  0  0
  -46.3780  -65.3450   53.2340 N   0  0  0  0  0  0  0  0  0  0  0  0
  -48.3630  -66.7300   53.2530 N   0  0  0  0  0  0  0  0  0  0  0  0
  -49.7690  -66.5480   53.5220 C   0  0  0  0  0  0  0  0  0  0  0  0
  -50.1140  -67.0110   54.9220 C   0  0  0  0  0  0  0  0  0  0  0  0
  -49.0060  -67.4750   55.6160 O   0  0  0  0  0  0  0  0  0  0  0  0
  -48.4210  -68.5300   54.8890 C   0  0  0  0  0  0  0  0  0  0  0  0
  -47.7590  -67.9900   53.6370 C   0  0  0  0  0  0  0  0  0  0  0  0
  -47.4290  -63.6200   49.6730 N   0  0  0  0  0  0  0  0  0  0  0  0
  -47.4080  -62.1840   49.5910 C   0  0  0  0  0  0  0  0  0  0  0  0
  -46.4250  -61.8600   48.4560 C   0  0  0  0  0  0  0  0  0  0  0  0
  -46.9860  -62.4200   47.3080 O   0  0  0  0  0  0  0  0  0  0  0  0
  -46.9620  -63.8110   47.3400 C   0  0  0  0  0  0  0  0  0  0  0  0
  -47.7710  -64.3720   48.4910 C   0  0  0  0  0  0  0  0  0  0  0  0
  -41.2330  -69.3770   55.8850 O   0  0  0  0  0  0  0  0  0  0  0  0
  -39.2020  -68.4790   51.6730 O   0  0  0  0  0  0  0  0  0  0  0  0
  -39.4690  -69.6570   53.9760 H   0  0  0  0  0  0  0  0  0  0  0  0
  -42.9440  -67.5390   55.1650 H   0  0  0  0  0  0  0  0  0  0  0  0
  -43.9100  -66.1580   52.1490 H   0  0  0  0  0  0  0  0  0  0  0  0
  -44.2680  -62.9740   53.4730 H   0  0  0  0  0  0  0  0  0  0  0  0
  -50.3250  -67.2260   52.8110 H   0  0  0  0  0  0  0  0  0  0  0  0
  -50.1100  -65.5050   53.3750 H   0  0  0  0  0  0  0  0  0  0  0  0
  -50.8600  -67.8480   54.9120 H   0  0  0  0  0  0  0  0  0  0  0  0
  -50.5320  -66.1590   55.5240 H   0  0  0  0  0  0  0  0  0  0  0  0
  -47.6650  -68.9910   55.5630 H   0  0  0  0  0  0  0  0  0  0  0  0
  -49.1960  -69.3030   54.6180 H   0  0  0  0  0  0  0  0  0  0  0  0
  -47.9080  -68.6920   52.8010 H   0  0  0  0  0  0  0  0  0  0  0  0
  -46.6580  -67.8500   53.8450 H   0  0  0  0  0  0  0  0  0  0  0  0
  -47.0520  -61.7420   50.5460 H   0  0  0  0  0  0  0  0  0  0  0  0
  -48.4300  -61.8280   49.3240 H   0  0  0  0  0  0  0  0  0  0  0  0
  -46.2780  -60.7930   48.3100 H   0  0  0  0  0  0  0  0  0  0  0  0
  -45.4780  -62.3990   48.7360 H   0  0  0  0  0  0  0  0  0  0  0  0
  -45.9420  -64.2300   47.3120 H   0  0  0  0  0  0  0  0  0  0  0  0
  -47.4900  -64.1470   46.4140 H   0  0  0  0  0  0  0  0  0  0  0  0
  -48.8540  -64.1840   48.2650 H   0  0  0  0  0  0  0  0  0  0  0  0
  -47.5540  -65.4490   48.5890 H   0  0  0  0  0  0  0  0  0  0  0  0
  -40.8410  -70.3030   55.9860 H   0  0  0  0  0  0  0  0  0  0  0  0
  -39.4240  -68.4020   50.6890 H   0  0  0  0  0  0  0  0  0  0  0  0
  1  2  1  0  0  0  0
  2  3  2  0  0  0  0
  2  7  1  0  0  0  0
  3  4  1  0  0  0  0
  4 31  1  0  0  0  0
  4  5  2  0  0  0  0
  5 29  1  0  0  0  0
  6  5  1  0  0  0  0
  6 32  1  0  0  0  0
  7  6  2  0  0  0  0
  8  7  1  0  0  0  0
  8  9  2  0  0  0  0
 10 34  1  0  0  0  0
 10  9  1  0  0  0  0
 11 16  1  0  0  0  0
 11 10  1  0  0  0  0
 12 11  2  0  0  0  0
 13 14  1  0  0  0  0
 13 12  2  0  0  0  0
 14 15  2  0  0  0  0
 15 16  1  0  0  0  0
 15 17  1  0  0  0  0
 17 18  1  0  0  0  0
 17 22  1  0  0  0  0
 18 19  1  0  0  0  0
 19 38  1  0  0  0  0
 19 20  1  0  0  0  0
 21 39  1  0  0  0  0
 21 20  1  0  0  0  0
 22 42  1  0  0  0  0
 22 21  1  0  0  0  0
 23 13  1  0  0  0  0
 24 23  1  0  0  0  0
 24 43  1  0  0  0  0
 25 46  1  0  0  0  0
 25 24  1  0  0  0  0
 26 27  1  0  0  0  0
 26 25  1  0  0  0  0
 27 28  1  0  0  0  0
 28 50  1  0  0  0  0
 28 23  1  0  0  0  0
 29 51  1  0  0  0  0
 30  3  1  0  0  0  0
 33  8  1  0  0  0  0
 35 18  1  0  0  0  0
 36 18  1  0  0  0  0
 37 19  1  0  0  0  0
 40 21  1  0  0  0  0
 41 22  1  0  0  0  0
 44 24  1  0  0  0  0
 45 25  1  0  0  0  0
 47 27  1  0  0  0  0
 48 27  1  0  0  0  0
 49 28  1  0  0  0  0
 52 30  1  0  0  0  0
M  END
>  <Pose>
1

>  <Score>
-6.75

$$$$
