
 OpenBabel03202209423D

 46 49  0  0  1  0  0  0  0  0999 V2000
  -43.9930  -60.1520   47.0310 B   0  0  0  0  0  0  0  0  0  0  0  0
  -44.5760  -61.3690   48.3770 C   0  0  0  0  0  0  0  0  0  0  0  0
  -43.8190  -62.5110   48.6120 C   0  0  0  0  0  0  0  0  0  0  0  0
  -44.2570  -63.3680   49.5850 C   0  0  0  0  0  0  0  0  0  0  0  0
  -45.3900  -63.1840   50.3460 C   0  0  0  0  0  0  0  0  0  0  0  0
  -46.1220  -62.0250   50.0790 C   0  0  0  0  0  0  0  0  0  0  0  0
  -45.7220  -61.1280   49.1070 C   0  0  0  0  0  0  0  0  0  0  0  0
  -45.8310  -64.0870   51.3520 N   0  0  0  0  0  0  0  0  0  0  0  0
  -45.1620  -65.3250   51.6750 C   0  0  0  0  0  0  0  0  0  0  0  0
  -45.4510  -65.4570   53.1540 C   0  0  1  0  0  0  0  0  0  0  0  0
  -46.9310  -65.1190   53.1950 C   0  0  0  0  0  0  0  0  0  0  0  0
  -46.9530  -64.0030   52.2120 C   0  0  0  0  0  0  0  0  0  0  0  0
  -47.8400  -63.1250   52.1630 O   0  0  0  0  0  0  0  0  0  0  0  0
  -45.1830  -66.8210   53.6550 C   0  0  0  0  0  0  0  0  0  0  0  0
  -45.7090  -67.8260   53.1200 O   0  0  0  0  0  0  0  0  0  0  0  0
  -44.3160  -66.9880   54.7550 N   0  0  0  0  0  0  0  0  0  0  0  0
  -42.9290  -66.6020   54.6690 C   0  0  0  0  0  0  0  0  0  0  0  0
  -42.0400  -67.7960   54.5980 C   0  0  0  0  0  0  0  0  0  0  0  0
  -41.1040  -68.0810   53.6590 N   0  0  0  0  0  0  0  0  0  0  0  0
  -40.5160  -69.2520   53.9560 C   0  0  0  0  0  0  0  0  0  0  0  0
  -41.1150  -69.6740   55.0990 N   0  0  0  0  0  0  0  0  0  0  0  0
  -42.0280  -68.8050   55.4840 N   0  0  0  0  0  0  0  0  0  0  0  0
  -39.4740  -69.6000   52.9350 C   0  0  0  0  0  0  0  0  0  0  0  0
  -39.8070  -68.6530   51.8040 C   0  0  0  0  0  0  0  0  0  0  0  0
  -40.5600  -67.5050   52.4430 C   0  0  0  0  0  0  0  0  0  0  0  0
  -42.5890  -62.7430   47.8070 C   0  0  0  0  0  0  0  0  0  0  0  0
  -43.6480  -64.2640   49.7590 H   0  0  0  0  0  0  0  0  0  0  0  0
  -47.0250  -61.7780   50.6140 H   0  0  0  0  0  0  0  0  0  0  0  0
  -46.2750  -60.2280   48.8890 H   0  0  0  0  0  0  0  0  0  0  0  0
  -45.6520  -66.1290   51.0780 H   0  0  0  0  0  0  0  0  0  0  0  0
  -44.0710  -65.2870   51.4710 H   0  0  0  0  0  0  0  0  0  0  0  0
  -44.8730  -64.6700   53.6680 H   0  0  0  0  0  0  0  0  0  0  0  0
  -47.1380  -64.7630   54.2250 H   0  0  0  0  0  0  0  0  0  0  0  0
  -47.5500  -65.9650   52.8950 H   0  0  0  0  0  0  0  0  0  0  0  0
  -44.6690  -67.3910   55.6410 H   0  0  0  0  0  0  0  0  0  0  0  0
  -42.7230  -65.9510   53.8000 H   0  0  0  0  0  0  0  0  0  0  0  0
  -42.6360  -66.0000   55.5730 H   0  0  0  0  0  0  0  0  0  0  0  0
  -38.4760  -69.4240   53.3620 H   0  0  0  0  0  0  0  0  0  0  0  0
  -39.6200  -70.6260   52.5380 H   0  0  0  0  0  0  0  0  0  0  0  0
  -40.3990  -69.1460   51.0040 H   0  0  0  0  0  0  0  0  0  0  0  0
  -38.8560  -68.3370   51.3430 H   0  0  0  0  0  0  0  0  0  0  0  0
  -41.3600  -67.1100   51.7970 H   0  0  0  0  0  0  0  0  0  0  0  0
  -39.8350  -66.6880   52.6380 H   0  0  0  0  0  0  0  0  0  0  0  0
  -42.1660  -63.7350   48.0480 H   0  0  0  0  0  0  0  0  0  0  0  0
  -42.7820  -62.6110   46.7250 H   0  0  0  0  0  0  0  0  0  0  0  0
  -41.8390  -61.9980   48.1830 H   0  0  0  0  0  0  0  0  0  0  0  0
  1  2  1  0  0  0  0
  2  3  2  0  0  0  0
  2  7  1  0  0  0  0
  3  4  1  0  0  0  0
  4 27  1  0  0  0  0
  4  5  2  0  0  0  0
  5  8  1  0  0  0  0
  6  5  1  0  0  0  0
  6 28  1  0  0  0  0
  7  6  2  0  0  0  0
  8  9  1  0  0  0  0
  8 12  1  0  0  0  0
  9 10  1  0  0  0  0
 10 11  1  0  0  0  0
 10 14  1  0  0  0  0
 10 32  1  1  0  0  0
 11 33  1  0  0  0  0
 12 11  1  0  0  0  0
 13 12  2  0  0  0  0
 14 16  1  0  0  0  0
 15 14  2  0  0  0  0
 16 35  1  0  0  0  0
 17 16  1  0  0  0  0
 17 37  1  0  0  0  0
 18 17  1  0  0  0  0
 18 22  2  0  0  0  0
 19 20  1  0  0  0  0
 19 18  1  0  0  0  0
 20 21  2  0  0  0  0
 21 22  1  0  0  0  0
 23 38  1  0  0  0  0
 23 20  1  0  0  0  0
 24 25  1  0  0  0  0
 24 23  1  0  0  0  0
 25 43  1  0  0  0  0
 25 19  1  0  0  0  0
 26 44  1  0  0  0  0
 26 46  1  0  0  0  0
 26  3  1  0  0  0  0
 29  7  1  0  0  0  0
 30  9  1  0  0  0  0
 31  9  1  0  0  0  0
 34 11  1  0  0  0  0
 36 17  1  0  0  0  0
 39 23  1  0  0  0  0
 40 24  1  0  0  0  0
 41 24  1  0  0  0  0
 42 25  1  0  0  0  0
 45 26  1  0  0  0  0
M  END
>  <Pose>
1

>  <Score>
-6.44

$$$$
