
 OpenBabel03202209423D

 41 43  0  0  1  0  0  0  0  0999 V2000
  -46.7250  -67.3650   53.7530 B   0  0  0  0  0  0  0  0  0  0  0  0
  -45.4820  -66.0530   53.0980 C   0  0  0  0  0  0  0  0  0  0  0  0
  -44.1820  -66.1250   53.6180 C   0  0  0  0  0  0  0  0  0  0  0  0
  -43.3110  -65.1730   53.1310 C   0  0  0  0  0  0  0  0  0  0  0  0
  -43.7130  -64.2190   52.1930 C   0  0  0  0  0  0  0  0  0  0  0  0
  -44.9930  -64.1690   51.6980 C   0  0  0  0  0  0  0  0  0  0  0  0
  -45.8710  -65.1130   52.1750 C   0  0  0  0  0  0  0  0  0  0  0  0
  -45.4050  -63.1410   50.6940 C   0  0  0  0  0  0  0  0  0  0  0  0
  -43.8420  -67.1170   54.5670 N   0  0  0  0  0  0  0  0  0  0  0  0
  -42.7410  -67.9730   54.5730 C   0  0  0  0  0  0  0  0  0  0  0  0
  -42.8280  -69.1370   54.9910 O   0  0  0  0  0  0  0  0  0  0  0  0
  -41.4450  -67.4750   54.0700 C   0  0  0  0  0  0  0  0  0  0  0  0
  -40.3550  -68.3920   54.1390 N   0  0  1  0  0  4  0  0  0  0  0  0
  -40.3880  -69.2120   52.9170 C   0  0  0  0  0  0  0  0  0  0  0  0
  -38.9890  -69.7290   52.6910 C   0  0  0  0  0  0  0  0  0  0  0  0
  -38.4640  -70.0620   54.0140 N   0  0  1  0  0  0  0  0  0  0  0  0
  -38.0190  -68.7950   54.5880 C   0  0  0  0  0  0  0  0  0  0  0  0
  -39.0540  -67.7350   54.2400 C   0  0  0  0  0  0  0  0  0  0  0  0
  -39.5520  -70.5410   54.8510 C   0  0  0  0  0  0  0  0  0  0  0  0
  -40.4330  -69.3400   55.2320 C   0  0  0  0  0  0  0  0  0  0  0  0
  -42.2850  -65.1570   53.4830 H   0  0  0  0  0  0  0  0  0  0  0  0
  -43.0120  -63.4720   51.8190 H   0  0  0  0  0  0  0  0  0  0  0  0
  -46.8920  -65.1020   51.8050 H   0  0  0  0  0  0  0  0  0  0  0  0
  -46.5040  -62.9860   50.7080 H   0  0  0  0  0  0  0  0  0  0  0  0
  -45.1100  -63.4170   49.6790 H   0  0  0  0  0  0  0  0  0  0  0  0
  -44.9600  -62.1830   51.0390 H   0  0  0  0  0  0  0  0  0  0  0  0
  -44.5170  -67.2220   55.3820 H   0  0  0  0  0  0  0  0  0  0  0  0
  -41.1190  -66.5640   54.6580 H   0  0  0  0  0  0  0  0  0  0  0  0
  -41.5120  -67.1440   53.0030 H   0  0  0  0  0  0  0  0  0  0  0  0
  -41.1270  -70.0120   53.1020 H   0  0  0  0  0  0  0  0  0  0  0  0
  -40.7530  -68.5970   52.0690 H   0  0  0  0  0  0  0  0  0  0  0  0
  -38.4030  -68.9240   52.2150 H   0  0  0  0  0  0  0  0  0  0  0  0
  -38.9990  -70.6580   52.0520 H   0  0  0  0  0  0  0  0  0  0  0  0
  -37.0730  -68.4910   54.0950 H   0  0  0  0  0  0  0  0  0  0  0  0
  -37.8930  -68.8670   55.6950 H   0  0  0  0  0  0  0  0  0  0  0  0
  -39.0880  -67.0460   55.0850 H   0  0  0  0  0  0  0  0  0  0  0  0
  -38.8590  -67.2470   53.2720 H   0  0  0  0  0  0  0  0  0  0  0  0
  -40.1030  -71.3010   54.2810 H   0  0  0  0  0  0  0  0  0  0  0  0
  -39.1230  -71.0050   55.7650 H   0  0  0  0  0  0  0  0  0  0  0  0
  -39.9730  -68.9120   56.1510 H   0  0  0  0  0  0  0  0  0  0  0  0
  -41.4390  -69.7420   55.3890 H   0  0  0  0  0  0  0  0  0  0  0  0
  2  3  1  0  0  0  0
  2  1  1  0  0  0  0
  3  9  1  0  0  0  0
  4 21  1  0  0  0  0
  4  3  2  0  0  0  0
  5  4  1  0  0  0  0
  6  7  1  0  0  0  0
  6  5  2  0  0  0  0
  7  2  2  0  0  0  0
  8 24  1  0  0  0  0
  8 26  1  0  0  0  0
  8  6  1  0  0  0  0
  9 10  1  0  0  0  0
  9 27  1  0  0  0  0
 10 11  2  0  0  0  0
 12 10  1  0  0  0  0
 12 28  1  0  0  0  0
 13 12  1  1  0  0  0
 13 18  1  0  0  0  0
 13 20  1  0  0  0  0
 14 30  1  0  0  0  0
 14 13  1  0  0  0  0
 15 14  1  0  0  0  0
 16 15  1  6  0  0  0
 16 17  1  0  0  0  0
 16 19  1  0  0  0  0
 17 35  1  0  0  0  0
 18 17  1  0  0  0  0
 18 36  1  0  0  0  0
 19 20  1  0  0  0  0
 19 39  1  0  0  0  0
 20 41  1  0  0  0  0
 20 40  1  0  0  0  0
 22  5  1  0  0  0  0
 23  7  1  0  0  0  0
 25  8  1  0  0  0  0
 29 12  1  0  0  0  0
 31 14  1  0  0  0  0
 32 15  1  0  0  0  0
 33 15  1  0  0  0  0
 34 17  1  0  0  0  0
 37 18  1  0  0  0  0
 38 19  1  0  0  0  0
M  END
>  <Pose>
1

>  <Score>
-4.94

$$$$
