
 OpenBabel03202209423D

 33 36  0  0  1  0  0  0  0  0999 V2000
  -43.7060  -66.0090   54.6880 B   0  0  0  0  0  0  0  0  0  0  0  0
  -43.8920  -65.1030   53.0180 C   0  0  0  0  0  0  0  0  0  0  0  0
  -45.0920  -64.5760   52.6110 C   0  0  0  0  0  0  0  0  0  0  0  0
  -45.1900  -63.9360   51.3990 C   0  0  0  0  0  0  0  0  0  0  0  0
  -44.0930  -63.8020   50.5580 C   0  0  0  0  0  0  0  0  0  0  0  0
  -42.8820  -64.3230   50.9460 C   0  0  0  0  0  0  0  0  0  0  0  0
  -42.7920  -64.9730   52.1820 C   0  0  0  0  0  0  0  0  0  0  0  0
  -46.3180  -64.6640   53.4470 C   0  0  1  0  0  0  0  0  0  0  0  0
  -47.5410  -64.4700   52.8030 C   0  0  1  0  0  0  0  0  0  0  0  0
  -48.3890  -65.1910   51.8150 C   0  0  0  0  0  0  0  0  0  0  0  0
  -49.2370  -65.8400   52.8470 N   0  0  0  0  0  0  0  0  0  0  0  0
  -48.4670  -66.1960   53.8260 C   0  0  1  0  0  0  0  0  0  0  0  0
  -47.1340  -65.8160   53.4780 C   0  0  2  0  0  0  0  0  0  0  0  0
  -46.5800  -66.8840   52.5930 C   0  0  0  0  0  0  0  0  0  0  0  0
  -46.1410  -67.7480   51.9130 N   0  0  0  0  0  0  0  0  0  0  0  0
  -48.8950  -66.8550   55.0390 N   0  0  0  0  0  0  0  0  0  0  0  0
  -49.1530  -64.2450   51.1250 O   0  0  0  0  0  0  0  0  0  0  0  0
  -48.9970  -64.5030   49.7770 C   0  0  0  0  0  0  0  0  0  0  0  0
  -48.6350  -65.9790   49.7700 C   0  0  0  0  0  0  0  0  0  0  0  0
  -47.8220  -66.0170   50.9300 O   0  0  0  0  0  0  0  0  0  0  0  0
  -48.4840  -63.6180   53.6130 C   0  0  0  0  0  0  0  0  0  0  0  0
  -49.2060  -62.9400   54.2570 N   0  0  0  0  0  0  0  0  0  0  0  0
  -46.1250  -63.4940   51.0220 H   0  0  0  0  0  0  0  0  0  0  0  0
  -44.1520  -63.3040   49.6080 H   0  0  0  0  0  0  0  0  0  0  0  0
  -42.0320  -64.2270   50.3160 H   0  0  0  0  0  0  0  0  0  0  0  0
  -41.8540  -65.3980   52.5300 H   0  0  0  0  0  0  0  0  0  0  0  0
  -46.1030  -64.1910   54.4470 H   0  0  0  0  0  0  0  0  0  0  0  0
  -48.8200  -66.3850   55.9610 H   0  0  0  0  0  0  0  0  0  0  0  0
  -49.2880  -67.8150   55.0100 H   0  0  0  0  0  0  0  0  0  0  0  0
  -48.1350  -63.9120   49.4010 H   0  0  0  0  0  0  0  0  0  0  0  0
  -49.9200  -64.2950   49.1950 H   0  0  0  0  0  0  0  0  0  0  0  0
  -49.5470  -66.5960   49.9210 H   0  0  0  0  0  0  0  0  0  0  0  0
  -48.0790  -66.2830   48.8740 H   0  0  0  0  0  0  0  0  0  0  0  0
  2  1  1  0  0  0  0
  3  2  1  0  0  0  0
  3  8  1  0  0  0  0
  4  3  2  0  0  0  0
  5  6  2  0  0  0  0
  5  4  1  0  0  0  0
  6  7  1  0  0  0  0
  7 26  1  0  0  0  0
  7  2  2  0  0  0  0
  8 13  1  0  0  0  0
  8 27  1  1  0  0  0
  9  8  1  0  0  0  0
  9 13  1  0  0  0  0
  9 21  1  1  0  0  0
 10  9  1  0  0  0  0
 10 11  1  0  0  0  0
 11 12  1  0  0  0  0
 12 16  1  1  0  0  0
 13 14  1  6  0  0  0
 13 12  1  0  0  0  0
 15 14  3  0  0  0  0
 16 28  1  0  0  0  0
 17 10  1  0  0  0  0
 18 17  1  0  0  0  0
 19 18  1  0  0  0  0
 19 32  1  0  0  0  0
 19 20  1  0  0  0  0
 20 10  1  0  0  0  0
 21 22  3  0  0  0  0
 23  4  1  0  0  0  0
 24  5  1  0  0  0  0
 25  6  1  0  0  0  0
 29 16  1  0  0  0  0
 30 18  1  0  0  0  0
 31 18  1  0  0  0  0
 33 19  1  0  0  0  0
M  END
>  <Pose>
1

>  <Score>
-3.62

$$$$
