
 OpenBabel03202209423D

 33 36  0  0  1  0  0  0  0  0999 V2000
  -40.8930  -67.7700   50.8680 B   0  0  0  0  0  0  0  0  0  0  0  0
  -40.4120  -68.6270   52.5250 C   0  0  0  0  0  0  0  0  0  0  0  0
  -41.0160  -68.1580   53.6690 C   0  0  0  0  0  0  0  0  0  0  0  0
  -40.6520  -68.7960   54.8500 C   0  0  0  0  0  0  0  0  0  0  0  0
  -39.7420  -69.8350   54.8790 C   0  0  0  0  0  0  0  0  0  0  0  0
  -39.1500  -70.2830   53.7030 C   0  0  0  0  0  0  0  0  0  0  0  0
  -39.5020  -69.6610   52.5350 C   0  0  0  0  0  0  0  0  0  0  0  0
  -41.9580  -67.0950   53.6860 N   0  0  0  0  0  0  0  0  0  0  0  0
  -43.2440  -67.0460   54.2820 C   0  0  0  0  0  0  0  0  0  0  0  0
  -43.7150  -67.9400   55.0070 O   0  0  0  0  0  0  0  0  0  0  0  0
  -43.9480  -65.7920   53.9280 C   0  0  2  0  0  0  0  0  0  0  0  0
  -45.1700  -66.0150   53.1060 C   0  0  1  0  0  0  0  0  0  0  0  0
  -45.0190  -65.1720   51.9740 O   0  0  0  0  0  0  0  0  0  0  0  0
  -43.7260  -65.6310   51.6100 C   0  0  1  0  0  0  0  0  0  0  0  0
  -43.0030  -65.1740   52.8830 C   0  0  2  0  0  0  0  0  0  0  0  0
  -41.7030  -65.8430   53.0390 C   0  0  0  0  0  0  0  0  0  0  0  0
  -40.5750  -65.4330   52.6910 O   0  0  0  0  0  0  0  0  0  0  0  0
  -43.9510  -67.0920   51.5990 C   0  0  0  0  0  0  0  0  0  0  0  0
  -44.9880  -67.3230   52.4040 C   0  0  0  0  0  0  0  0  0  0  0  0
  -46.4740  -65.8600   53.7670 C   0  0  0  0  0  0  0  0  0  0  0  0
  -46.6890  -66.9890   54.5800 O   0  0  0  0  0  0  0  0  0  0  0  0
  -41.1160  -68.4430   55.7660 H   0  0  0  0  0  0  0  0  0  0  0  0
  -39.4660  -70.3250   55.8210 H   0  0  0  0  0  0  0  0  0  0  0  0
  -38.4410  -71.1020   53.7610 H   0  0  0  0  0  0  0  0  0  0  0  0
  -39.0600  -69.9890   51.6110 H   0  0  0  0  0  0  0  0  0  0  0  0
  -44.0900  -65.1190   54.7810 H   0  0  0  0  0  0  0  0  0  0  0  0
  -43.3480  -65.2040   50.7050 H   0  0  0  0  0  0  0  0  0  0  0  0
  -42.9900  -64.0870   52.9210 H   0  0  0  0  0  0  0  0  0  0  0  0
  -43.4280  -67.8990   51.0720 H   0  0  0  0  0  0  0  0  0  0  0  0
  -45.5690  -68.2240   52.5330 H   0  0  0  0  0  0  0  0  0  0  0  0
  -47.3220  -65.8790   53.0320 H   0  0  0  0  0  0  0  0  0  0  0  0
  -46.5610  -64.9290   54.3390 H   0  0  0  0  0  0  0  0  0  0  0  0
  -46.3750  -66.7910   55.5100 H   0  0  0  0  0  0  0  0  0  0  0  0
  1  2  1  0  0  0  0
  2  7  2  0  0  0  0
  2  3  1  0  0  0  0
  3  8  1  0  0  0  0
  3  4  2  0  0  0  0
  4  5  1  0  0  0  0
  4 22  1  0  0  0  0
  5 23  1  0  0  0  0
  6 24  1  0  0  0  0
  6  5  2  0  0  0  0
  7  6  1  0  0  0  0
  8  9  1  0  0  0  0
  9 10  2  0  0  0  0
 11  9  1  0  0  0  0
 11 26  1  1  0  0  0
 12 20  1  1  0  0  0
 12 11  1  0  0  0  0
 13 12  1  0  0  0  0
 14 27  1  6  0  0  0
 14 13  1  0  0  0  0
 14 15  1  0  0  0  0
 15 28  1  1  0  0  0
 15 16  1  0  0  0  0
 15 11  1  0  0  0  0
 16  8  1  0  0  0  0
 17 16  2  0  0  0  0
 18 14  1  0  0  0  0
 18 19  2  0  0  0  0
 19 30  1  0  0  0  0
 19 12  1  0  0  0  0
 20 32  1  0  0  0  0
 20 21  1  0  0  0  0
 21 33  1  0  0  0  0
 25  7  1  0  0  0  0
 29 18  1  0  0  0  0
 31 20  1  0  0  0  0
M  END
>  <Pose>
1

>  <Score>
-4.84

$$$$
