
 OpenBabel03202209423D

 35 38  0  0  0  0  0  0  0  0999 V2000
  -33.9610  -66.7930   49.8600 B   0  0  0  0  0  0  0  0  0  0  0  0
  -35.6240  -67.6760   50.1050 C   0  0  0  0  0  0  0  0  0  0  0  0
  -35.8610  -68.7750   50.8890 C   0  0  0  0  0  0  0  0  0  0  0  0
  -37.1660  -69.0570   50.7650 N   0  0  0  0  0  0  0  0  0  0  0  0
  -37.7260  -68.1850   49.9500 N   0  0  0  0  0  0  0  0  0  0  0  0
  -36.8010  -67.3020   49.5110 C   0  0  0  0  0  0  0  0  0  0  0  0
  -37.0380  -66.1520   48.5650 C   0  0  0  0  0  0  0  0  0  0  0  0
  -37.8360  -70.1500   51.4310 C   0  0  0  0  0  0  0  0  0  0  0  0
  -38.9210  -69.6520   52.3460 C   0  0  0  0  0  0  0  0  0  0  0  0
  -39.3200  -70.1990   53.5090 N   0  0  0  0  0  0  0  0  0  0  0  0
  -40.3080  -69.4670   54.0270 N   0  0  0  0  0  0  0  0  0  0  0  0
  -40.5630  -68.4320   53.2010 C   0  0  0  0  0  0  0  0  0  0  0  0
  -39.6990  -68.5680   52.1790 N   0  0  0  0  0  0  0  0  0  0  0  0
  -41.5560  -67.5310   53.5360 C   0  0  0  0  0  0  0  0  0  0  0  0
  -42.3030  -67.6520   54.6910 C   0  0  0  0  0  0  0  0  0  0  0  0
  -43.1970  -66.6460   54.7710 N   0  0  0  0  0  0  0  0  0  0  0  0
  -43.0360  -65.8950   53.6990 N   0  0  0  0  0  0  0  0  0  0  0  0
  -42.0400  -66.3990   52.9130 C   0  0  0  0  0  0  0  0  0  0  0  0
  -44.1740  -66.3960   55.8190 C   0  0  0  0  0  0  0  0  0  0  0  0
  -42.0170  -68.6980   55.4870 N   0  0  0  0  0  0  0  0  0  0  0  0
  -41.0380  -69.5800   55.1510 C   0  0  0  0  0  0  0  0  0  0  0  0
  -34.8300  -69.4910   51.7070 C   0  0  0  0  0  0  0  0  0  0  0  0
  -36.3010  -66.2420   47.7550 H   0  0  0  0  0  0  0  0  0  0  0  0
  -36.9020  -65.1860   49.0600 H   0  0  0  0  0  0  0  0  0  0  0  0
  -38.0430  -66.2750   48.1100 H   0  0  0  0  0  0  0  0  0  0  0  0
  -37.0930  -70.7540   52.0200 H   0  0  0  0  0  0  0  0  0  0  0  0
  -38.2970  -70.8410   50.7060 H   0  0  0  0  0  0  0  0  0  0  0  0
  -41.6860  -66.0050   51.9840 H   0  0  0  0  0  0  0  0  0  0  0  0
  -43.7970  -65.6680   56.5750 H   0  0  0  0  0  0  0  0  0  0  0  0
  -45.1620  -66.1060   55.4140 H   0  0  0  0  0  0  0  0  0  0  0  0
  -44.3580  -67.3490   56.3910 H   0  0  0  0  0  0  0  0  0  0  0  0
  -40.8060  -70.4310   55.7990 H   0  0  0  0  0  0  0  0  0  0  0  0
  -34.9220  -69.1220   52.7340 H   0  0  0  0  0  0  0  0  0  0  0  0
  -33.8170  -69.2650   51.3180 H   0  0  0  0  0  0  0  0  0  0  0  0
  -34.9440  -70.6010   51.6220 H   0  0  0  0  0  0  0  0  0  0  0  0
  1  2  1  0  0  0  0
  2  3  2  0  0  0  0
  3 22  1  0  0  0  0
  4  3  1  0  0  0  0
  4  8  1  0  0  0  0
  5  4  1  0  0  0  0
  6  5  2  0  0  0  0
  6  2  1  0  0  0  0
  7 24  1  0  0  0  0
  7  6  1  0  0  0  0
  8 26  1  0  0  0  0
  8  9  1  0  0  0  0
  9 10  2  0  0  0  0
 10 11  1  0  0  0  0
 11 21  1  0  0  0  0
 12 14  1  0  0  0  0
 12 11  1  0  0  0  0
 13  9  1  0  0  0  0
 13 12  2  0  0  0  0
 14 15  2  0  0  0  0
 15 16  1  0  0  0  0
 15 20  1  0  0  0  0
 16 19  1  0  0  0  0
 17 16  1  0  0  0  0
 18 14  1  0  0  0  0
 18 17  2  0  0  0  0
 19 31  1  0  0  0  0
 19 29  1  0  0  0  0
 21 20  2  0  0  0  0
 21 32  1  0  0  0  0
 22 33  1  0  0  0  0
 23  7  1  0  0  0  0
 25  7  1  0  0  0  0
 27  8  1  0  0  0  0
 28 18  1  0  0  0  0
 30 19  1  0  0  0  0
 34 22  1  0  0  0  0
 35 22  1  0  0  0  0
M  END
>  <Pose>
1

>  <Score>
-6.16

$$$$
