
 OpenBabel03202209423D

 40 43  0  0  0  0  0  0  0  0999 V2000
  -42.4280  -67.7960   54.4130 B   0  0  0  0  0  0  0  0  0  0  0  0
  -43.8970  -66.7250   53.8270 C   0  0  0  0  0  0  0  0  0  0  0  0
  -43.9370  -65.7900   52.8460 C   0  0  0  0  0  0  0  0  0  0  0  0
  -45.2100  -65.2660   52.8000 N   0  0  0  0  0  0  0  0  0  0  0  0
  -45.9010  -65.8760   53.7270 N   0  0  0  0  0  0  0  0  0  0  0  0
  -45.1860  -66.7740   54.3960 C   0  0  0  0  0  0  0  0  0  0  0  0
  -45.6840  -64.2460   51.9020 C   0  0  0  0  0  0  0  0  0  0  0  0
  -42.8660  -65.3600   51.9230 C   0  0  0  0  0  0  0  0  0  0  0  0
  -42.4280  -64.1600   52.0790 O   0  0  0  0  0  0  0  0  0  0  0  0
  -42.3290  -66.1700   50.9270 N   0  0  0  0  0  0  0  0  0  0  0  0
  -41.0510  -66.7830   50.9650 C   0  0  0  0  0  0  0  0  0  0  0  0
  -40.2200  -66.6000   49.8410 C   0  0  0  0  0  0  0  0  0  0  0  0
  -40.4320  -65.9150   48.6840 N   0  0  0  0  0  0  0  0  0  0  0  0
  -39.3610  -66.0470   47.9620 O   0  0  0  0  0  0  0  0  0  0  0  0
  -38.4790  -66.7690   48.5800 N   0  0  0  0  0  0  0  0  0  0  0  0
  -38.9660  -67.1460   49.7690 C   0  0  0  0  0  0  0  0  0  0  0  0
  -38.4330  -67.9090   50.7880 C   0  0  0  0  0  0  0  0  0  0  0  0
  -39.2510  -68.0870   51.8880 C   0  0  0  0  0  0  0  0  0  0  0  0
  -40.5280  -67.5360   51.9710 C   0  0  0  0  0  0  0  0  0  0  0  0
  -37.1480  -68.4770   50.7290 N   0  0  0  0  0  0  0  0  0  0  0  0
  -36.7520  -69.4110   51.7800 C   0  0  0  0  0  0  0  0  0  0  0  0
  -35.3010  -69.7890   51.6690 C   0  0  0  0  0  0  0  0  0  0  0  0
  -34.4500  -68.7930   51.3200 O   0  0  0  0  0  0  0  0  0  0  0  0
  -34.9110  -67.7910   50.5170 C   0  0  0  0  0  0  0  0  0  0  0  0
  -36.1260  -68.2680   49.7480 C   0  0  0  0  0  0  0  0  0  0  0  0
  -45.4490  -67.4280   55.1990 H   0  0  0  0  0  0  0  0  0  0  0  0
  -45.4200  -64.5050   50.8510 H   0  0  0  0  0  0  0  0  0  0  0  0
  -45.2010  -63.2840   52.1440 H   0  0  0  0  0  0  0  0  0  0  0  0
  -46.7700  -64.1310   52.0270 H   0  0  0  0  0  0  0  0  0  0  0  0
  -42.9500  -66.3130   50.0740 H   0  0  0  0  0  0  0  0  0  0  0  0
  -38.8530  -68.6820   52.6980 H   0  0  0  0  0  0  0  0  0  0  0  0
  -41.1060  -67.7150   52.8550 H   0  0  0  0  0  0  0  0  0  0  0  0
  -36.9040  -68.9710   52.7880 H   0  0  0  0  0  0  0  0  0  0  0  0
  -37.3520  -70.3490   51.7240 H   0  0  0  0  0  0  0  0  0  0  0  0
  -34.9930  -70.1650   52.6850 H   0  0  0  0  0  0  0  0  0  0  0  0
  -35.2370  -70.6940   51.0060 H   0  0  0  0  0  0  0  0  0  0  0  0
  -35.2490  -66.9490   51.1760 H   0  0  0  0  0  0  0  0  0  0  0  0
  -34.1580  -67.4020   49.7940 H   0  0  0  0  0  0  0  0  0  0  0  0
  -35.8660  -69.2980   49.3550 H   0  0  0  0  0  0  0  0  0  0  0  0
  -36.3590  -67.6760   48.8830 H   0  0  0  0  0  0  0  0  0  0  0  0
  2  6  1  0  0  0  0
  2  1  1  0  0  0  0
  3  2  2  0  0  0  0
  4  3  1  0  0  0  0
  4  5  1  0  0  0  0
  5  6  2  0  0  0  0
  6 26  1  0  0  0  0
  7 29  1  0  0  0  0
  7 28  1  0  0  0  0
  7  4  1  0  0  0  0
  8  9  2  0  0  0  0
  8  3  1  0  0  0  0
 10 11  1  0  0  0  0
 10  8  1  0  0  0  0
 11 19  2  0  0  0  0
 12 11  1  0  0  0  0
 13 12  2  0  0  0  0
 14 15  1  0  0  0  0
 14 13  1  0  0  0  0
 15 16  2  0  0  0  0
 16 12  1  0  0  0  0
 16 17  1  0  0  0  0
 17 18  2  0  0  0  0
 18 19  1  0  0  0  0
 18 31  1  0  0  0  0
 19 32  1  0  0  0  0
 20 17  1  0  0  0  0
 20 21  1  0  0  0  0
 21 33  1  0  0  0  0
 22 21  1  0  0  0  0
 22 35  1  0  0  0  0
 23 22  1  0  0  0  0
 24 37  1  0  0  0  0
 24 23  1  0  0  0  0
 25 24  1  0  0  0  0
 25 20  1  0  0  0  0
 27  7  1  0  0  0  0
 30 10  1  0  0  0  0
 34 21  1  0  0  0  0
 36 22  1  0  0  0  0
 38 24  1  0  0  0  0
 39 25  1  0  0  0  0
 40 25  1  0  0  0  0
M  END
>  <Pose>
1

>  <Score>
-6.83

$$$$
