
 OpenBabel03202209423D

 54 57  0  0  0  0  0  0  0  0999 V2000
  -43.6050  -58.6480   48.3900 B   0  0  0  0  0  0  0  0  0  0  0  0
  -42.3910  -60.0380   47.9120 C   0  0  0  0  0  0  0  0  0  0  0  0
  -42.6210  -61.3420   48.2880 C   0  0  0  0  0  0  0  0  0  0  0  0
  -41.7470  -62.3440   47.9430 C   0  0  0  0  0  0  0  0  0  0  0  0
  -40.6310  -62.0070   47.2080 C   0  0  0  0  0  0  0  0  0  0  0  0
  -40.3860  -60.6880   46.8200 C   0  0  0  0  0  0  0  0  0  0  0  0
  -41.2710  -59.6820   47.1700 C   0  0  0  0  0  0  0  0  0  0  0  0
  -39.7630  -63.0400   46.8730 O   0  0  0  0  0  0  0  0  0  0  0  0
  -38.5340  -63.2720   47.5200 C   0  0  0  0  0  0  0  0  0  0  0  0
  -41.9790  -63.7300   48.3350 C   0  0  0  0  0  0  0  0  0  0  0  0
  -41.8150  -64.1570   49.5300 N   0  0  0  0  0  0  0  0  0  0  0  0
  -42.0320  -65.4790   49.9230 N   0  0  0  0  0  0  0  0  0  0  0  0
  -40.9810  -66.3400   50.3420 C   0  0  0  0  0  0  0  0  0  0  0  0
  -41.1220  -67.2510   51.3290 N   0  0  0  0  0  4  0  0  0  0  0  0
  -40.1120  -68.0460   51.7000 C   0  0  0  0  0  0  0  0  0  0  0  0
  -38.9350  -67.9230   51.0660 N   0  0  0  0  0  0  0  0  0  0  0  0
  -38.7220  -67.0280   50.0650 C   0  0  0  0  0  0  0  0  0  0  0  0
  -39.7940  -66.2530   49.7400 N   0  0  0  0  0  0  0  0  0  0  0  0
  -37.4870  -66.9050   49.4040 N   0  0  0  0  0  0  0  0  0  0  0  0
  -36.5250  -67.9660   49.4160 C   0  0  0  0  0  0  0  0  0  0  0  0
  -35.2070  -67.3670   49.9030 C   0  0  0  0  0  0  0  0  0  0  0  0
  -34.9060  -66.3120   49.0600 O   0  0  0  0  0  0  0  0  0  0  0  0
  -35.7840  -65.2600   49.1800 C   0  0  0  0  0  0  0  0  0  0  0  0
  -37.1680  -65.6970   48.7000 C   0  0  0  0  0  0  0  0  0  0  0  0
  -40.2610  -69.0050   52.7380 N   0  0  0  0  0  0  0  0  0  0  0  0
  -41.2290  -68.8530   53.8010 C   0  0  0  0  0  0  0  0  0  0  0  0
  -40.6370  -69.2430   55.1460 C   0  0  0  0  0  0  0  0  0  0  0  0
  -39.9220  -70.4410   55.0380 O   0  0  0  0  0  0  0  0  0  0  0  0
  -38.8690  -70.3290   54.1610 C   0  0  0  0  0  0  0  0  0  0  0  0
  -39.4300  -70.1880   52.7620 C   0  0  0  0  0  0  0  0  0  0  0  0
  -43.5030  -61.6280   48.8730 H   0  0  0  0  0  0  0  0  0  0  0  0
  -39.4950  -60.4420   46.2360 H   0  0  0  0  0  0  0  0  0  0  0  0
  -41.0630  -58.6720   46.8590 H   0  0  0  0  0  0  0  0  0  0  0  0
  -37.7580  -62.6930   46.9590 H   0  0  0  0  0  0  0  0  0  0  0  0
  -38.5530  -63.0380   48.5960 H   0  0  0  0  0  0  0  0  0  0  0  0
  -38.2670  -64.3460   47.3980 H   0  0  0  0  0  0  0  0  0  0  0  0
  -42.3080  -64.4460   47.5950 H   0  0  0  0  0  0  0  0  0  0  0  0
  -43.0320  -65.8170   49.8940 H   0  0  0  0  0  0  0  0  0  0  0  0
  -36.8470  -68.8100   50.0800 H   0  0  0  0  0  0  0  0  0  0  0  0
  -36.3550  -68.3220   48.3750 H   0  0  0  0  0  0  0  0  0  0  0  0
  -34.4450  -68.1590   49.7550 H   0  0  0  0  0  0  0  0  0  0  0  0
  -35.2630  -67.0880   50.9570 H   0  0  0  0  0  0  0  0  0  0  0  0
  -35.9140  -64.9410   50.2410 H   0  0  0  0  0  0  0  0  0  0  0  0
  -35.4390  -64.4310   48.5540 H   0  0  0  0  0  0  0  0  0  0  0  0
  -37.9120  -64.8950   48.8530 H   0  0  0  0  0  0  0  0  0  0  0  0
  -37.0400  -65.9350   47.6170 H   0  0  0  0  0  0  0  0  0  0  0  0
  -42.0260  -69.6240   53.5980 H   0  0  0  0  0  0  0  0  0  0  0  0
  -41.6430  -67.8420   53.8670 H   0  0  0  0  0  0  0  0  0  0  0  0
  -40.0150  -68.4080   55.4930 H   0  0  0  0  0  0  0  0  0  0  0  0
  -41.4930  -69.4700   55.8300 H   0  0  0  0  0  0  0  0  0  0  0  0
  -38.2610  -69.4490   54.4530 H   0  0  0  0  0  0  0  0  0  0  0  0
  -38.2330  -71.2130   54.2650 H   0  0  0  0  0  0  0  0  0  0  0  0
  -40.0650  -71.0590   52.5740 H   0  0  0  0  0  0  0  0  0  0  0  0
  -38.6360  -70.1370   51.9990 H   0  0  0  0  0  0  0  0  0  0  0  0
  2  3  1  0  0  0  0
  2  1  1  0  0  0  0
  3 31  1  0  0  0  0
  4  3  2  0  0  0  0
  4 10  1  0  0  0  0
  5  4  1  0  0  0  0
  6  7  1  0  0  0  0
  6  5  2  0  0  0  0
  7  2  2  0  0  0  0
  8  5  1  0  0  0  0
  8  9  1  0  0  0  0
  9 35  1  0  0  0  0
 10 11  2  0  0  0  0
 11 12  1  0  0  0  0
 12 13  1  0  0  0  0
 13 14  2  0  0  0  0
 14 15  2  0  0  0  0
 15 25  1  0  0  0  0
 16 15  1  0  0  0  0
 17 16  2  0  0  0  0
 18 17  1  0  0  0  0
 18 13  1  0  0  0  0
 19 20  1  0  0  0  0
 19 17  1  0  0  0  0
 20 21  1  0  0  0  0
 20 39  1  0  0  0  0
 21 42  1  0  0  0  0
 22 23  1  0  0  0  0
 22 21  1  0  0  0  0
 23 43  1  0  0  0  0
 24 45  1  0  0  0  0
 24 23  1  0  0  0  0
 24 19  1  0  0  0  0
 25 30  1  0  0  0  0
 25 26  1  0  0  0  0
 26 48  1  0  0  0  0
 26 27  1  0  0  0  0
 27 49  1  0  0  0  0
 27 50  1  0  0  0  0
 28 27  1  0  0  0  0
 29 52  1  0  0  0  0
 29 51  1  0  0  0  0
 29 28  1  0  0  0  0
 30 29  1  0  0  0  0
 32  6  1  0  0  0  0
 33  7  1  0  0  0  0
 34  9  1  0  0  0  0
 36  9  1  0  0  0  0
 37 10  1  0  0  0  0
 38 12  1  0  0  0  0
 40 20  1  0  0  0  0
 41 21  1  0  0  0  0
 44 23  1  0  0  0  0
 46 24  1  0  0  0  0
 47 26  1  0  0  0  0
 53 30  1  0  0  0  0
 54 30  1  0  0  0  0
M  END
>  <Pose>
1

>  <Score>
-6.39

$$$$
