
 OpenBabel03202209423D

 45 48  0  0  0  0  0  0  0  0999 V2000
  -36.3960  -63.3520   48.9660 B   0  0  0  0  0  0  0  0  0  0  0  0
  -37.8230  -64.6170   48.9450 C   0  0  0  0  0  0  0  0  0  0  0  0
  -38.6860  -64.6810   50.0000 C   0  0  0  0  0  0  0  0  0  0  0  0
  -39.7470  -65.5260   50.1270 C   0  0  0  0  0  0  0  0  0  0  0  0
  -39.8990  -66.3880   49.0160 C   0  0  0  0  0  0  0  0  0  0  0  0
  -39.0550  -66.3580   47.9320 C   0  0  0  0  0  0  0  0  0  0  0  0
  -37.9990  -65.4620   47.8890 C   0  0  0  0  0  0  0  0  0  0  0  0
  -40.9420  -67.2980   49.0200 O   0  0  0  0  0  0  0  0  0  0  0  0
  -42.1440  -67.1220   48.3370 C   0  0  0  0  0  0  0  0  0  0  0  0
  -40.6960  -65.6300   51.1990 C   0  0  0  0  0  0  0  0  0  0  0  0
  -41.0230  -66.4640   52.1620 N   0  0  0  0  0  0  0  0  0  0  0  0
  -42.0760  -65.9710   52.8870 C   0  0  0  0  0  0  0  0  0  0  0  0
  -42.3920  -64.7770   52.3350 N   0  0  0  0  0  0  0  0  0  0  0  0
  -41.5920  -64.5630   51.3470 N   0  0  0  0  0  0  0  0  0  0  0  0
  -42.3950  -66.8280   53.8590 N   0  0  0  0  0  0  0  0  0  0  0  0
  -41.5480  -67.8650   53.7620 C   0  0  0  0  0  0  0  0  0  0  0  0
  -40.6700  -67.6580   52.7030 C   0  0  0  0  0  0  0  0  0  0  0  0
  -39.7130  -68.5120   52.3920 N   0  0  0  0  0  0  0  0  0  0  0  0
  -39.6180  -69.6390   53.1650 C   0  0  0  0  0  0  0  0  0  0  0  0
  -38.7450  -70.5190   52.9570 O   0  0  0  0  0  0  0  0  0  0  0  0
  -40.4540  -69.8750   54.1980 N   0  0  0  0  0  0  0  0  0  0  0  0
  -41.4150  -69.0160   54.5150 C   0  0  0  0  0  0  0  0  0  0  0  0
  -42.2240  -69.1780   55.4640 O   0  0  0  0  0  0  0  0  0  0  0  0
  -38.6960  -68.4000   51.3920 C   0  0  0  0  0  0  0  0  0  0  0  0
  -43.4380  -66.6940   54.8340 C   0  0  0  0  0  0  0  0  0  0  0  0
  -44.7590  -67.1050   54.2180 C   0  0  0  0  0  0  0  0  0  0  0  0
  -45.6370  -66.0460   54.3320 O   0  0  0  0  0  0  0  0  0  0  0  0
  -45.6100  -65.2250   53.1910 C   0  0  0  0  0  0  0  0  0  0  0  0
  -38.5360  -64.0200   50.8410 H   0  0  0  0  0  0  0  0  0  0  0  0
  -39.1540  -67.0040   47.0780 H   0  0  0  0  0  0  0  0  0  0  0  0
  -37.3300  -65.4260   47.0480 H   0  0  0  0  0  0  0  0  0  0  0  0
  -42.0250  -66.6420   47.3450 H   0  0  0  0  0  0  0  0  0  0  0  0
  -42.6710  -68.0910   48.1390 H   0  0  0  0  0  0  0  0  0  0  0  0
  -42.8330  -66.5210   48.9730 H   0  0  0  0  0  0  0  0  0  0  0  0
  -40.3690  -70.7380   54.7750 H   0  0  0  0  0  0  0  0  0  0  0  0
  -38.2380  -67.4010   51.3430 H   0  0  0  0  0  0  0  0  0  0  0  0
  -37.8670  -69.1420   51.6630 H   0  0  0  0  0  0  0  0  0  0  0  0
  -39.0480  -68.7270   50.4200 H   0  0  0  0  0  0  0  0  0  0  0  0
  -43.4740  -65.6970   55.3070 H   0  0  0  0  0  0  0  0  0  0  0  0
  -43.2340  -67.4630   55.6370 H   0  0  0  0  0  0  0  0  0  0  0  0
  -45.2140  -67.9620   54.7740 H   0  0  0  0  0  0  0  0  0  0  0  0
  -44.5610  -67.3780   53.1630 H   0  0  0  0  0  0  0  0  0  0  0  0
  -44.5750  -64.8340   53.0820 H   0  0  0  0  0  0  0  0  0  0  0  0
  -46.2600  -64.3520   53.3400 H   0  0  0  0  0  0  0  0  0  0  0  0
  -45.9000  -65.7610   52.2860 H   0  0  0  0  0  0  0  0  0  0  0  0
  2  1  1  0  0  0  0
  2  3  1  0  0  0  0
  3  4  2  0  0  0  0
  3 29  1  0  0  0  0
  4 10  1  0  0  0  0
  5  8  1  0  0  0  0
  5  4  1  0  0  0  0
  6  5  2  0  0  0  0
  7  6  1  0  0  0  0
  7  2  2  0  0  0  0
  9 34  1  0  0  0  0
  9  8  1  0  0  0  0
 10 14  2  0  0  0  0
 10 11  1  0  0  0  0
 11 17  1  0  0  0  0
 11 12  1  0  0  0  0
 12 15  1  0  0  0  0
 13 12  2  0  0  0  0
 14 13  1  0  0  0  0
 15 25  1  0  0  0  0
 16 15  1  0  0  0  0
 16 22  1  0  0  0  0
 17 16  2  0  0  0  0
 18 17  1  0  0  0  0
 18 19  1  0  0  0  0
 19 21  1  0  0  0  0
 20 19  2  0  0  0  0
 21 22  1  0  0  0  0
 21 35  1  0  0  0  0
 22 23  2  0  0  0  0
 24 37  1  0  0  0  0
 24 18  1  0  0  0  0
 25 39  1  0  0  0  0
 25 40  1  0  0  0  0
 26 27  1  0  0  0  0
 26 41  1  0  0  0  0
 26 25  1  0  0  0  0
 28 44  1  0  0  0  0
 28 27  1  0  0  0  0
 30  6  1  0  0  0  0
 31  7  1  0  0  0  0
 32  9  1  0  0  0  0
 33  9  1  0  0  0  0
 36 24  1  0  0  0  0
 38 24  1  0  0  0  0
 42 26  1  0  0  0  0
 43 28  1  0  0  0  0
 45 28  1  0  0  0  0
M  END
>  <Pose>
1

>  <Score>
-7.05

$$$$
