
 OpenBabel03202209423D

 50 53  0  0  0  0  0  0  0  0999 V2000
  -41.1000  -68.8250   54.7200 B   0  0  0  0  0  0  0  0  0  0  0  0
  -40.4770  -68.0880   53.0810 C   0  0  0  0  0  0  0  0  0  0  0  0
  -40.8850  -66.8380   52.6320 C   0  0  0  0  0  0  0  0  0  0  0  0
  -40.4390  -66.3060   51.4510 C   0  0  0  0  0  0  0  0  0  0  0  0
  -39.5570  -67.0310   50.6830 C   0  0  0  0  0  0  0  0  0  0  0  0
  -39.1500  -68.2660   51.1210 C   0  0  0  0  0  0  0  0  0  0  0  0
  -39.5940  -68.8180   52.3160 C   0  0  0  0  0  0  0  0  0  0  0  0
  -40.8890  -64.9890   51.0110 C   0  0  0  0  0  0  0  0  0  0  0  0
  -40.1930  -63.9560   51.1880 O   0  0  0  0  0  0  0  0  0  0  0  0
  -42.1860  -64.8670   50.3450 C   0  0  0  0  0  0  0  0  0  0  0  0
  -43.2390  -64.4730   51.1960 N   0  0  0  0  0  0  0  0  0  0  0  0
  -43.5320  -65.3280   52.2850 C   0  0  0  0  0  0  0  0  0  0  0  0
  -44.7090  -64.9610   53.1040 C   0  0  0  0  0  0  0  0  0  0  0  0
  -45.8640  -64.7620   52.2890 N   0  0  0  0  0  0  0  0  0  0  0  0
  -45.6770  -64.4660   50.8970 C   0  0  0  0  0  0  0  0  0  0  0  0
  -44.3450  -63.8270   50.5800 C   0  0  0  0  0  0  0  0  0  0  0  0
  -47.1830  -64.8200   52.8120 C   0  0  0  0  0  0  0  0  0  0  0  0
  -47.4620  -65.7760   53.6970 C   0  0  0  0  0  0  0  0  0  0  0  0
  -46.7340  -66.8320   54.2980 N   0  0  0  0  0  0  0  0  0  0  0  0
  -47.6550  -67.4730   55.1580 N   0  0  0  0  0  0  0  0  0  0  0  0
  -48.9030  -66.8140   55.0690 C   0  0  0  0  0  0  0  0  0  0  0  0
  -48.8460  -65.8000   54.2180 C   0  0  0  0  0  0  0  0  0  0  0  0
  -49.7920  -64.8360   53.7700 N   0  0  0  0  0  0  0  0  0  0  0  0
  -49.4700  -63.9310   52.9130 C   0  0  0  0  0  0  0  0  0  0  0  0
  -48.1680  -63.8590   52.3820 N   0  0  0  0  0  0  0  0  0  0  0  0
  -50.1470  -67.1620   55.8050 C   0  0  0  0  0  0  0  0  0  0  0  0
  -45.3500  -67.1750   54.0770 C   0  0  0  0  0  0  0  0  0  0  0  0
  -41.5770  -66.3210   53.2800 H   0  0  0  0  0  0  0  0  0  0  0  0
  -39.2180  -66.5840   49.7480 H   0  0  0  0  0  0  0  0  0  0  0  0
  -38.4590  -68.8520   50.5330 H   0  0  0  0  0  0  0  0  0  0  0  0
  -39.2450  -69.8120   52.6350 H   0  0  0  0  0  0  0  0  0  0  0  0
  -42.4470  -65.8350   49.8390 H   0  0  0  0  0  0  0  0  0  0  0  0
  -42.1320  -64.1300   49.4890 H   0  0  0  0  0  0  0  0  0  0  0  0
  -43.5490  -66.3820   51.9510 H   0  0  0  0  0  0  0  0  0  0  0  0
  -42.6300  -65.2770   52.9740 H   0  0  0  0  0  0  0  0  0  0  0  0
  -44.4820  -63.9880   53.6200 H   0  0  0  0  0  0  0  0  0  0  0  0
  -44.8660  -65.6830   53.9300 H   0  0  0  0  0  0  0  0  0  0  0  0
  -45.9400  -65.2690   50.2000 H   0  0  0  0  0  0  0  0  0  0  0  0
  -46.4390  -63.6530   50.6760 H   0  0  0  0  0  0  0  0  0  0  0  0
  -44.2170  -63.8780   49.4780 H   0  0  0  0  0  0  0  0  0  0  0  0
  -44.3140  -62.7490   50.8480 H   0  0  0  0  0  0  0  0  0  0  0  0
  -47.3840  -68.2970   55.7350 H   0  0  0  0  0  0  0  0  0  0  0  0
  -50.2510  -63.2090   52.6040 H   0  0  0  0  0  0  0  0  0  0  0  0
  -47.8620  -63.1510   51.6920 H   0  0  0  0  0  0  0  0  0  0  0  0
  -50.0600  -68.1910   56.2040 H   0  0  0  0  0  0  0  0  0  0  0  0
  -51.0490  -66.9840   55.2160 H   0  0  0  0  0  0  0  0  0  0  0  0
  -50.1950  -66.4840   56.7020 H   0  0  0  0  0  0  0  0  0  0  0  0
  -45.0400  -67.2090   53.0360 H   0  0  0  0  0  0  0  0  0  0  0  0
  -44.7070  -66.5720   54.7520 H   0  0  0  0  0  0  0  0  0  0  0  0
  -45.2570  -68.2530   54.4340 H   0  0  0  0  0  0  0  0  0  0  0  0
  2  1  1  0  0  0  0
  3  2  1  0  0  0  0
  3 28  1  0  0  0  0
  4  3  2  0  0  0  0
  5  6  2  0  0  0  0
  5  4  1  0  0  0  0
  6  7  1  0  0  0  0
  7 31  1  0  0  0  0
  7  2  2  0  0  0  0
  8  9  2  0  0  0  0
  8  4  1  0  0  0  0
 10  8  1  0  0  0  0
 10 11  1  0  0  0  0
 11 12  1  0  0  0  0
 12 35  1  0  0  0  0
 12 13  1  0  0  0  0
 13 36  1  0  0  0  0
 13 37  1  0  0  0  0
 14 17  1  0  0  0  0
 14 13  1  0  0  0  0
 15 14  1  0  0  0  0
 16 41  1  0  0  0  0
 16 15  1  0  0  0  0
 16 11  1  0  0  0  0
 17 18  2  0  0  0  0
 18 22  1  0  0  0  0
 18 19  1  0  0  0  0
 19 20  1  0  0  0  0
 20 42  1  0  0  0  0
 21 20  1  0  0  0  0
 21 26  1  0  0  0  0
 22 21  2  0  0  0  0
 23 22  1  0  0  0  0
 24 23  2  0  0  0  0
 25 17  1  0  0  0  0
 25 24  1  0  0  0  0
 26 45  1  0  0  0  0
 26 47  1  0  0  0  0
 27 19  1  0  0  0  0
 27 50  1  0  0  0  0
 27 49  1  0  0  0  0
 29  5  1  0  0  0  0
 30  6  1  0  0  0  0
 32 10  1  0  0  0  0
 33 10  1  0  0  0  0
 34 12  1  0  0  0  0
 38 15  1  0  0  0  0
 39 15  1  0  0  0  0
 40 16  1  0  0  0  0
 43 24  1  0  0  0  0
 44 25  1  0  0  0  0
 46 26  1  0  0  0  0
 48 27  1  0  0  0  0
M  END
>  <Pose>
1

>  <Score>
-5.59

$$$$
