
 OpenBabel03202209423D

 52 55  0  0  1  0  0  0  0  0999 V2000
  -48.8070  -68.3850   54.7320 B   0  0  0  0  0  0  0  0  0  0  0  0
  -47.5740  -67.1320   53.9450 C   0  0  0  0  0  0  0  0  0  0  0  0
  -46.2450  -67.1780   54.2930 C   0  0  0  0  0  0  0  0  0  0  0  0
  -45.3690  -66.2730   53.7340 C   0  0  0  0  0  0  0  0  0  0  0  0
  -45.8060  -65.3430   52.8460 C   0  0  0  0  0  0  0  0  0  0  0  0
  -47.1310  -65.3150   52.5100 C   0  0  0  0  0  0  0  0  0  0  0  0
  -48.0630  -66.2060   53.0470 C   0  0  0  0  0  0  0  0  0  0  0  0
  -43.9120  -66.3960   54.1180 C   0  0  0  0  0  0  0  0  0  0  0  0
  -43.6020  -67.4060   54.7240 O   0  0  0  0  0  0  0  0  0  0  0  0
  -43.1380  -65.3180   53.6980 N   0  0  0  0  0  0  0  0  0  0  0  0
  -42.0730  -65.3930   52.7650 C   0  0  1  0  0  0  0  0  0  0  0  0
  -41.6860  -66.8030   52.3470 C   0  0  0  0  0  0  0  0  0  0  0  0
  -42.2490  -64.5610   51.5840 C   0  0  0  0  0  0  0  0  0  0  0  0
  -43.4300  -64.1590   51.3410 O   0  0  0  0  0  0  0  0  0  0  0  0
  -41.1730  -64.2130   50.7180 N   0  0  0  0  0  0  0  0  0  0  0  0
  -39.7920  -64.3890   51.0860 C   0  0  0  0  0  0  0  0  0  0  0  0
  -39.3070  -65.4730   50.0940 C   0  0  0  0  0  0  0  0  0  0  0  0
  -39.1900  -64.7570   48.7750 C   0  0  2  0  0  0  0  0  0  0  0  0
  -39.1000  -65.7940   47.7490 N   0  0  0  0  0  0  0  0  0  0  0  0
  -38.0260  -66.6930   47.9530 C   0  0  0  0  0  0  0  0  0  0  0  0
  -36.6650  -66.0270   47.8670 C   0  0  0  0  0  0  0  0  0  0  0  0
  -36.7000  -64.6430   48.3760 C   0  0  0  0  0  0  0  0  0  0  0  0
  -35.6920  -63.7660   48.5230 N   0  0  0  0  0  0  0  0  0  0  0  0
  -36.2210  -62.6260   49.0190 C   0  0  0  0  0  0  0  0  0  0  0  0
  -37.5560  -62.8130   49.1760 N   0  0  0  0  0  0  0  0  0  0  0  0
  -37.8840  -64.0610   48.7870 C   0  0  0  0  0  0  0  0  0  0  0  0
  -40.3280  -63.8630   48.4310 C   0  0  0  0  0  0  0  0  0  0  0  0
  -41.4240  -63.6830   49.4260 C   0  0  0  0  0  0  0  0  0  0  0  0
  -45.8400  -67.9190   54.9990 H   0  0  0  0  0  0  0  0  0  0  0  0
  -45.0840  -64.6290   52.3940 H   0  0  0  0  0  0  0  0  0  0  0  0
  -47.5210  -64.5820   51.7990 H   0  0  0  0  0  0  0  0  0  0  0  0
  -49.1120  -66.2020   52.7780 H   0  0  0  0  0  0  0  0  0  0  0  0
  -43.3020  -64.3600   54.1300 H   0  0  0  0  0  0  0  0  0  0  0  0
  -41.1570  -65.0790   53.3520 H   0  0  0  0  0  0  0  0  0  0  0  0
  -41.2620  -66.7680   51.2950 H   0  0  0  0  0  0  0  0  0  0  0  0
  -40.7910  -67.1780   52.9660 H   0  0  0  0  0  0  0  0  0  0  0  0
  -42.4810  -67.5170   52.3630 H   0  0  0  0  0  0  0  0  0  0  0  0
  -39.5880  -64.8060   52.0840 H   0  0  0  0  0  0  0  0  0  0  0  0
  -39.1380  -63.5410   50.9140 H   0  0  0  0  0  0  0  0  0  0  0  0
  -38.3020  -65.7310   50.4790 H   0  0  0  0  0  0  0  0  0  0  0  0
  -39.9260  -66.3580   50.1100 H   0  0  0  0  0  0  0  0  0  0  0  0
  -39.1170  -65.3910   46.7770 H   0  0  0  0  0  0  0  0  0  0  0  0
  -38.1630  -67.2560   48.8820 H   0  0  0  0  0  0  0  0  0  0  0  0
  -38.0400  -67.4440   47.1340 H   0  0  0  0  0  0  0  0  0  0  0  0
  -36.3120  -65.9840   46.8010 H   0  0  0  0  0  0  0  0  0  0  0  0
  -35.9580  -66.6560   48.4520 H   0  0  0  0  0  0  0  0  0  0  0  0
  -35.6530  -61.7160   49.2470 H   0  0  0  0  0  0  0  0  0  0  0  0
  -38.1340  -62.0330   49.5480 H   0  0  0  0  0  0  0  0  0  0  0  0
  -39.9200  -62.8550   48.2100 H   0  0  0  0  0  0  0  0  0  0  0  0
  -40.8120  -64.1890   47.4620 H   0  0  0  0  0  0  0  0  0  0  0  0
  -42.3690  -64.1160   49.0680 H   0  0  0  0  0  0  0  0  0  0  0  0
  -41.6470  -62.5790   49.5780 H   0  0  0  0  0  0  0  0  0  0  0  0
  2  3  1  0  0  0  0
  2  1  1  0  0  0  0
  3 29  1  0  0  0  0
  4  8  1  0  0  0  0
  4  3  2  0  0  0  0
  5  4  1  0  0  0  0
  6  5  2  0  0  0  0
  6  7  1  0  0  0  0
  7  2  2  0  0  0  0
  8  9  2  0  0  0  0
 10  8  1  0  0  0  0
 10 33  1  0  0  0  0
 11 34  1  1  0  0  0
 11 10  1  0  0  0  0
 12 37  1  0  0  0  0
 12 11  1  0  0  0  0
 12 36  1  0  0  0  0
 13 11  1  0  0  0  0
 14 13  2  0  0  0  0
 15 16  1  0  0  0  0
 15 13  1  0  0  0  0
 16 38  1  0  0  0  0
 17 41  1  0  0  0  0
 17 40  1  0  0  0  0
 17 16  1  0  0  0  0
 18 26  1  6  0  0  0
 18 17  1  0  0  0  0
 19 20  1  0  0  0  0
 19 18  1  0  0  0  0
 20 43  1  0  0  0  0
 21 20  1  0  0  0  0
 21 22  1  0  0  0  0
 21 46  1  0  0  0  0
 22 23  1  0  0  0  0
 22 26  2  0  0  0  0
 23 24  2  0  0  0  0
 24 25  1  0  0  0  0
 24 47  1  0  0  0  0
 25 48  1  0  0  0  0
 26 25  1  0  0  0  0
 27 18  1  0  0  0  0
 27 28  1  0  0  0  0
 28 52  1  0  0  0  0
 28 15  1  0  0  0  0
 30  5  1  0  0  0  0
 31  6  1  0  0  0  0
 32  7  1  0  0  0  0
 35 12  1  0  0  0  0
 39 16  1  0  0  0  0
 42 19  1  0  0  0  0
 44 20  1  0  0  0  0
 45 21  1  0  0  0  0
 49 27  1  0  0  0  0
 50 27  1  0  0  0  0
 51 28  1  0  0  0  0
M  END
>  <Pose>
1

>  <Score>
-5.44

$$$$
