
 OpenBabel03202209423D

 49 52  0  0  0  0  0  0  0  0999 V2000
  -40.6970  -69.3850   55.0820 B   0  0  0  0  0  0  0  0  0  0  0  0
  -40.3910  -68.6410   53.3750 C   0  0  0  0  0  0  0  0  0  0  0  0
  -41.2100  -67.6200   52.9180 C   0  0  0  0  0  0  0  0  0  0  0  0
  -41.0170  -67.0630   51.6820 C   0  0  0  0  0  0  0  0  0  0  0  0
  -40.0240  -67.4740   50.8440 C   0  0  0  0  0  0  0  0  0  0  0  0
  -39.1930  -68.5030   51.2980 C   0  0  0  0  0  0  0  0  0  0  0  0
  -39.3840  -69.0680   52.5450 C   0  0  0  0  0  0  0  0  0  0  0  0
  -41.8760  -65.9290   51.1880 C   0  0  0  0  0  0  0  0  0  0  0  0
  -41.8950  -65.8290   49.9110 O   0  0  0  0  0  0  0  0  0  0  0  0
  -42.5000  -65.1820   52.0840 N   0  0  0  0  0  0  0  0  0  0  0  0
  -43.1540  -64.3990   53.0220 C   0  0  0  0  0  0  0  0  0  0  0  0
  -44.0920  -65.2200   53.8710 C   0  0  0  0  0  0  0  0  0  0  0  0
  -43.5120  -65.9480   54.7510 O   0  0  0  0  0  0  0  0  0  0  0  0
  -45.4860  -65.2100   53.7340 N   0  0  0  0  0  0  0  0  0  0  0  0
  -46.2890  -64.0690   54.0370 C   0  0  0  0  0  0  0  0  0  0  0  0
  -47.4630  -63.9220   53.1100 C   0  0  0  0  0  0  0  0  0  0  0  0
  -47.3160  -64.6290   51.7810 C   0  0  0  0  0  0  0  0  0  0  0  0
  -48.6570  -64.5870   51.2160 N   0  0  0  0  0  0  0  0  0  0  0  0
  -48.7790  -64.9960   49.8700 C   0  0  0  0  0  0  0  0  0  0  0  0
  -47.5480  -65.0380   49.0410 C   0  0  0  0  0  0  0  0  0  0  0  0
  -46.5230  -64.0610   49.5220 C   0  0  0  0  0  0  0  0  0  0  0  0
  -45.6430  -63.3010   48.8710 N   0  0  0  0  0  0  0  0  0  0  0  0
  -44.9740  -62.6160   49.8210 C   0  0  0  0  0  0  0  0  0  0  0  0
  -45.4320  -62.9480   51.0480 N   0  0  0  0  0  0  0  0  0  0  0  0
  -46.4220  -63.8710   50.8770 C   0  0  0  0  0  0  0  0  0  0  0  0
  -46.8390  -66.0550   51.8980 C   0  0  0  0  0  0  0  0  0  0  0  0
  -46.2150  -66.3750   53.2440 C   0  0  0  0  0  0  0  0  0  0  0  0
  -42.0010  -67.2620   53.5350 H   0  0  0  0  0  0  0  0  0  0  0  0
  -39.8950  -67.0180   49.8840 H   0  0  0  0  0  0  0  0  0  0  0  0
  -38.3980  -68.8570   50.6670 H   0  0  0  0  0  0  0  0  0  0  0  0
  -38.7400  -69.8610   52.8960 H   0  0  0  0  0  0  0  0  0  0  0  0
  -41.2910  -64.8510   52.6700 H   0  0  0  0  0  0  0  0  0  0  0  0
  -43.7820  -63.5880   52.5140 H   0  0  0  0  0  0  0  0  0  0  0  0
  -42.4530  -63.8000   53.6540 H   0  0  0  0  0  0  0  0  0  0  0  0
  -46.7240  -64.2690   55.0640 H   0  0  0  0  0  0  0  0  0  0  0  0
  -45.7120  -63.1360   54.1740 H   0  0  0  0  0  0  0  0  0  0  0  0
  -48.3760  -64.2810   53.5990 H   0  0  0  0  0  0  0  0  0  0  0  0
  -47.5420  -62.8380   52.8750 H   0  0  0  0  0  0  0  0  0  0  0  0
  -49.2250  -65.2030   51.8670 H   0  0  0  0  0  0  0  0  0  0  0  0
  -49.4890  -64.2720   49.3650 H   0  0  0  0  0  0  0  0  0  0  0  0
  -49.3220  -65.9870   49.8350 H   0  0  0  0  0  0  0  0  0  0  0  0
  -47.1350  -66.0730   49.0320 H   0  0  0  0  0  0  0  0  0  0  0  0
  -47.8170  -64.8390   47.9650 H   0  0  0  0  0  0  0  0  0  0  0  0
  -44.1940  -61.9160   49.5910 H   0  0  0  0  0  0  0  0  0  0  0  0
  -45.0870  -62.5660   51.9450 H   0  0  0  0  0  0  0  0  0  0  0  0
  -46.0190  -66.2250   51.1360 H   0  0  0  0  0  0  0  0  0  0  0  0
  -47.6290  -66.8030   51.7220 H   0  0  0  0  0  0  0  0  0  0  0  0
  -46.9790  -66.7140   53.9810 H   0  0  0  0  0  0  0  0  0  0  0  0
  -45.4820  -67.1860   53.0770 H   0  0  0  0  0  0  0  0  0  0  0  0
  2  1  1  0  0  0  0
  3  2  1  0  0  0  0
  3 28  1  0  0  0  0
  4  3  2  0  0  0  0
  5  6  2  0  0  0  0
  5  4  1  0  0  0  0
  6  7  1  0  0  0  0
  7 31  1  0  0  0  0
  7  2  2  0  0  0  0
  8  4  1  0  0  0  0
  8 10  1  0  0  0  0
  9  8  2  0  0  0  0
 10 32  1  0  0  0  0
 10 11  1  0  0  0  0
 11 34  1  0  0  0  0
 11 12  1  0  0  0  0
 12 13  2  0  0  0  0
 14 12  1  0  0  0  0
 14 15  1  0  0  0  0
 15 36  1  0  0  0  0
 15 35  1  0  0  0  0
 16 37  1  0  0  0  0
 16 15  1  0  0  0  0
 17 26  1  0  0  0  0
 17 16  1  0  0  0  0
 18 17  1  0  0  0  0
 18 39  1  0  0  0  0
 19 18  1  0  0  0  0
 20 21  1  0  0  0  0
 20 19  1  0  0  0  0
 21 25  2  0  0  0  0
 22 21  1  0  0  0  0
 22 23  2  0  0  0  0
 23 24  1  0  0  0  0
 24 45  1  0  0  0  0
 25 24  1  0  0  0  0
 25 17  1  0  0  0  0
 26 27  1  0  0  0  0
 27 14  1  0  0  0  0
 27 48  1  0  0  0  0
 29  5  1  0  0  0  0
 30  6  1  0  0  0  0
 33 11  1  0  0  0  0
 38 16  1  0  0  0  0
 40 19  1  0  0  0  0
 41 19  1  0  0  0  0
 42 20  1  0  0  0  0
 43 20  1  0  0  0  0
 44 23  1  0  0  0  0
 46 26  1  0  0  0  0
 47 26  1  0  0  0  0
 49 27  1  0  0  0  0
M  END
>  <Pose>
1

>  <Score>
-5.47

$$$$
