
 OpenBabel03202209423D

 48 51  0  0  1  0  0  0  0  0999 V2000
  -46.0470  -63.1970   48.1910 B   0  0  0  0  0  0  0  0  0  0  0  0
  -47.3180  -64.0190   49.3630 C   0  0  0  0  0  0  0  0  0  0  0  0
  -47.2980  -63.7430   50.7020 C   0  0  0  0  0  0  0  0  0  0  0  0
  -48.2160  -64.3350   51.5600 C   0  0  0  0  0  0  0  0  0  0  0  0
  -49.1290  -65.1920   51.0290 C   0  0  0  0  0  0  0  0  0  0  0  0
  -49.1410  -65.4650   49.6700 C   0  0  0  0  0  0  0  0  0  0  0  0
  -48.2320  -64.8780   48.8240 C   0  0  0  0  0  0  0  0  0  0  0  0
  -48.1870  -64.0440   52.9830 C   0  0  0  0  0  0  0  0  0  0  0  0
  -48.9750  -63.1340   53.4360 O   0  0  0  0  0  0  0  0  0  0  0  0
  -47.3290  -64.7220   53.8720 N   0  0  0  0  0  0  0  0  0  0  0  0
  -46.2220  -65.4650   53.2980 C   0  0  2  0  0  0  0  0  0  0  0  0
  -45.4190  -66.1800   54.3670 C   0  0  0  0  0  0  0  0  0  0  0  0
  -44.1170  -66.3310   53.7470 N   0  0  0  0  0  0  0  0  0  0  0  0
  -44.0440  -65.5890   52.5050 C   0  0  1  0  0  0  0  0  0  0  0  0
  -45.1810  -64.5730   52.6810 C   0  0  0  0  0  0  0  0  0  0  0  0
  -42.7390  -64.9330   52.4300 C   0  0  0  0  0  0  0  0  0  0  0  0
  -42.6360  -63.7160   52.2210 O   0  0  0  0  0  0  0  0  0  0  0  0
  -41.5830  -65.7370   52.6040 N   0  0  0  0  0  0  0  0  0  0  0  0
  -41.6690  -66.9480   53.3880 C   0  0  1  0  0  0  0  0  0  0  0  0
  -42.9420  -67.0590   54.1350 C   0  0  0  0  0  0  0  0  0  0  0  0
  -43.0110  -67.8100   55.1430 O   0  0  0  0  0  0  0  0  0  0  0  0
  -41.3780  -68.1900   52.5730 C   0  0  0  0  0  0  0  0  0  0  0  0
  -40.2890  -69.0090   53.1310 C   0  0  0  0  0  0  0  0  0  0  0  0
  -40.4470  -69.6150   54.3640 C   0  0  0  0  0  0  0  0  0  0  0  0
  -39.4340  -70.3820   54.8920 C   0  0  0  0  0  0  0  0  0  0  0  0
  -38.2330  -70.5840   54.2390 C   0  0  0  0  0  0  0  0  0  0  0  0
  -38.0720  -69.9810   53.0090 C   0  0  0  0  0  0  0  0  0  0  0  0
  -39.0780  -69.2070   52.4630 C   0  0  0  0  0  0  0  0  0  0  0  0
  -46.5760  -63.0600   51.1570 H   0  0  0  0  0  0  0  0  0  0  0  0
  -49.8620  -65.6760   51.6780 H   0  0  0  0  0  0  0  0  0  0  0  0
  -49.8630  -66.1440   49.2470 H   0  0  0  0  0  0  0  0  0  0  0  0
  -48.2170  -65.0730   47.7510 H   0  0  0  0  0  0  0  0  0  0  0  0
  -47.5000  -64.6740   54.8860 H   0  0  0  0  0  0  0  0  0  0  0  0
  -46.5400  -66.2120   52.5740 H   0  0  0  0  0  0  0  0  0  0  0  0
  -45.3120  -65.5730   55.2920 H   0  0  0  0  0  0  0  0  0  0  0  0
  -45.8630  -67.1660   54.6240 H   0  0  0  0  0  0  0  0  0  0  0  0
  -44.2350  -66.2200   51.6120 H   0  0  0  0  0  0  0  0  0  0  0  0
  -45.4330  -64.2300   51.6660 H   0  0  0  0  0  0  0  0  0  0  0  0
  -44.8130  -63.7900   53.3530 H   0  0  0  0  0  0  0  0  0  0  0  0
  -40.6580  -65.4890   52.1860 H   0  0  0  0  0  0  0  0  0  0  0  0
  -40.8150  -66.8800   54.1270 H   0  0  0  0  0  0  0  0  0  0  0  0
  -42.3130  -68.7730   52.4850 H   0  0  0  0  0  0  0  0  0  0  0  0
  -41.0680  -67.8530   51.5710 H   0  0  0  0  0  0  0  0  0  0  0  0
  -41.3500  -69.5190   54.9560 H   0  0  0  0  0  0  0  0  0  0  0  0
  -39.5510  -70.8590   55.8560 H   0  0  0  0  0  0  0  0  0  0  0  0
  -37.4530  -71.2010   54.6920 H   0  0  0  0  0  0  0  0  0  0  0  0
  -37.1240  -70.1410   52.4930 H   0  0  0  0  0  0  0  0  0  0  0  0
  -38.9190  -68.7470   51.4960 H   0  0  0  0  0  0  0  0  0  0  0  0
  1  2  1  0  0  0  0
  2  3  1  0  0  0  0
  3 29  1  0  0  0  0
  3  4  2  0  0  0  0
  4  8  1  0  0  0  0
  5  4  1  0  0  0  0
  5 30  1  0  0  0  0
  6  5  2  0  0  0  0
  7  2  2  0  0  0  0
  7  6  1  0  0  0  0
  8  9  2  0  0  0  0
  8 10  1  0  0  0  0
 10 33  1  0  0  0  0
 11 34  1  6  0  0  0
 11 10  1  0  0  0  0
 11 12  1  0  0  0  0
 12 36  1  0  0  0  0
 12 35  1  0  0  0  0
 13 20  1  0  0  0  0
 13 12  1  0  0  0  0
 14 37  1  6  0  0  0
 14 15  1  0  0  0  0
 14 13  1  0  0  0  0
 15 11  1  0  0  0  0
 15 39  1  0  0  0  0
 16 14  1  0  0  0  0
 16 18  1  0  0  0  0
 17 16  2  0  0  0  0
 18 19  1  0  0  0  0
 19 41  1  1  0  0  0
 19 20  1  0  0  0  0
 20 21  2  0  0  0  0
 22 23  1  0  0  0  0
 22 19  1  0  0  0  0
 23 24  1  0  0  0  0
 24 25  2  0  0  0  0
 24 44  1  0  0  0  0
 25 45  1  0  0  0  0
 26 46  1  0  0  0  0
 26 25  1  0  0  0  0
 27 26  2  0  0  0  0
 28 27  1  0  0  0  0
 28 23  2  0  0  0  0
 31  6  1  0  0  0  0
 32  7  1  0  0  0  0
 38 15  1  0  0  0  0
 40 18  1  0  0  0  0
 42 22  1  0  0  0  0
 43 22  1  0  0  0  0
 47 27  1  0  0  0  0
 48 28  1  0  0  0  0
M  END
>  <Pose>
1

>  <Score>
-6.51

$$$$
