
 OpenBabel03202209423D

 42 45  0  0  1  0  0  0  0  0999 V2000
  -49.2520  -66.0070   49.0890 B   0  0  0  0  0  0  0  0  0  0  0  0
  -48.1990  -65.3990   50.5490 C   0  0  0  0  0  0  0  0  0  0  0  0
  -46.9210  -64.9240   50.3900 C   0  0  0  0  0  0  0  0  0  0  0  0
  -46.1530  -64.5040   51.4490 C   0  0  0  0  0  0  0  0  0  0  0  0
  -46.6760  -64.5590   52.7160 C   0  0  0  0  0  0  0  0  0  0  0  0
  -47.9660  -65.0330   52.9220 C   0  0  0  0  0  0  0  0  0  0  0  0
  -48.7040  -65.4420   51.8460 C   0  0  0  0  0  0  0  0  0  0  0  0
  -44.7460  -63.9890   51.2390 C   0  0  0  0  0  0  0  0  0  0  0  0
  -44.7550  -62.8950   50.5940 O   0  0  0  0  0  0  0  0  0  0  0  0
  -43.6890  -64.7120   51.7340 N   0  0  0  0  0  0  0  0  0  0  0  0
  -42.6640  -65.4120   52.2060 C   0  0  2  0  0  0  0  0  0  0  0  0
  -42.1760  -66.5390   51.2230 C   0  0  0  0  0  0  0  0  0  0  0  0
  -41.3410  -67.3540   52.0380 N   0  0  0  0  0  0  0  0  0  0  0  0
  -41.6750  -67.1310   53.4370 C   0  0  1  0  0  0  0  0  0  0  0  0
  -42.9370  -66.3720   53.4050 C   0  0  0  0  0  0  0  0  0  0  0  0
  -41.6680  -68.4050   54.1720 C   0  0  0  0  0  0  0  0  0  0  0  0
  -42.5430  -68.6210   55.0290 O   0  0  0  0  0  0  0  0  0  0  0  0
  -40.6770  -69.3770   53.9080 N   0  0  0  0  0  0  0  0  0  0  0  0
  -40.1330  -69.4990   52.5730 C   0  0  2  0  0  0  0  0  0  0  0  0
  -38.6910  -69.9260   52.7590 C   0  0  0  0  0  0  0  0  0  0  0  0
  -38.5380  -70.1350   54.2250 C   0  0  0  0  0  0  0  0  0  0  0  0
  -39.9780  -70.3880   54.6950 C   0  0  0  0  0  0  0  0  0  0  0  0
  -40.3070  -68.2940   51.7690 C   0  0  0  0  0  0  0  0  0  0  0  0
  -39.5140  -68.0590   50.7910 O   0  0  0  0  0  0  0  0  0  0  0  0
  -46.4830  -64.8660   49.4020 H   0  0  0  0  0  0  0  0  0  0  0  0
  -46.1320  -64.2560   53.5830 H   0  0  0  0  0  0  0  0  0  0  0  0
  -48.3570  -65.0630   53.9460 H   0  0  0  0  0  0  0  0  0  0  0  0
  -49.7190  -65.8170   51.9850 H   0  0  0  0  0  0  0  0  0  0  0  0
  -43.4780  -65.2280   50.4740 H   0  0  0  0  0  0  0  0  0  0  0  0
  -41.6750  -64.9540   52.4910 H   0  0  0  0  0  0  0  0  0  0  0  0
  -43.0890  -67.0010   50.8550 H   0  0  0  0  0  0  0  0  0  0  0  0
  -41.6600  -66.0270   50.3960 H   0  0  0  0  0  0  0  0  0  0  0  0
  -40.8930  -66.4910   53.9190 H   0  0  0  0  0  0  0  0  0  0  0  0
  -43.1510  -65.7590   54.3010 H   0  0  0  0  0  0  0  0  0  0  0  0
  -43.8140  -66.9650   53.1020 H   0  0  0  0  0  0  0  0  0  0  0  0
  -40.6120  -70.3680   52.0260 H   0  0  0  0  0  0  0  0  0  0  0  0
  -38.0060  -69.1060   52.3820 H   0  0  0  0  0  0  0  0  0  0  0  0
  -38.4460  -70.8710   52.2410 H   0  0  0  0  0  0  0  0  0  0  0  0
  -38.1460  -69.1910   54.6750 H   0  0  0  0  0  0  0  0  0  0  0  0
  -37.8740  -70.9810   54.4990 H   0  0  0  0  0  0  0  0  0  0  0  0
  -40.2610  -71.4060   54.4440 H   0  0  0  0  0  0  0  0  0  0  0  0
  -40.0020  -70.2290   55.7680 H   0  0  0  0  0  0  0  0  0  0  0  0
  1  2  1  0  0  0  0
  2  7  1  0  0  0  0
  3  2  2  0  0  0  0
  3  4  1  0  0  0  0
  4  5  2  0  0  0  0
  5  6  1  0  0  0  0
  5 26  1  0  0  0  0
  6 27  1  0  0  0  0
  7 28  1  0  0  0  0
  7  6  2  0  0  0  0
  8  4  1  0  0  0  0
  8 10  1  0  0  0  0
  9  8  2  0  0  0  0
 10 11  1  0  0  0  0
 11 30  1  1  0  0  0
 11 15  1  0  0  0  0
 12 13  1  0  0  0  0
 12 11  1  0  0  0  0
 13 14  1  0  0  0  0
 14 33  1  1  0  0  0
 14 16  1  0  0  0  0
 15 14  1  0  0  0  0
 15 34  1  0  0  0  0
 16 17  2  0  0  0  0
 18 16  1  0  0  0  0
 18 22  1  0  0  0  0
 19 36  1  6  0  0  0
 19 20  1  0  0  0  0
 19 18  1  0  0  0  0
 20 21  1  0  0  0  0
 21 40  1  0  0  0  0
 21 39  1  0  0  0  0
 21 22  1  0  0  0  0
 22 42  1  0  0  0  0
 23 13  1  0  0  0  0
 23 19  1  0  0  0  0
 24 23  2  0  0  0  0
 25  3  1  0  0  0  0
 29 10  1  0  0  0  0
 31 12  1  0  0  0  0
 32 12  1  0  0  0  0
 35 15  1  0  0  0  0
 37 20  1  0  0  0  0
 38 20  1  0  0  0  0
 41 22  1  0  0  0  0
M  END
>  <Pose>
1

>  <Score>
-6.01

$$$$
