
 OpenBabel03202209423D

 35 38  0  0  1  0  0  0  0  0999 V2000
  -40.2280  -69.9320   54.6910 B   0  0  0  0  0  0  0  0  0  0  0  0
  -41.0490  -68.4030   53.9080 C   0  0  0  0  0  0  0  0  0  0  0  0
  -42.0160  -67.7370   54.6190 C   0  0  0  0  0  0  0  0  0  0  0  0
  -42.6430  -66.6110   54.0920 C   0  0  0  0  0  0  0  0  0  0  0  0
  -42.2710  -66.1890   52.8540 C   0  0  0  0  0  0  0  0  0  0  0  0
  -41.3010  -66.8610   52.1440 C   0  0  0  0  0  0  0  0  0  0  0  0
  -40.6680  -67.9740   52.6420 C   0  0  0  0  0  0  0  0  0  0  0  0
  -43.6620  -65.9440   54.8790 C   0  0  0  0  0  0  0  0  0  0  0  0
  -43.3000  -65.0080   55.6120 O   0  0  0  0  0  0  0  0  0  0  0  0
  -45.0100  -66.3380   54.8140 N   0  0  0  0  0  0  0  0  0  0  0  0
  -46.0120  -65.7080   54.0500 N   0  0  0  0  0  0  0  0  0  0  0  0
  -47.3990  -66.0660   54.2060 C   0  0  0  0  0  0  0  0  0  0  0  0
  -47.8990  -66.9330   54.9900 O   0  0  0  0  0  0  0  0  0  0  0  0
  -48.1850  -65.2570   53.2940 C   0  0  1  0  0  0  0  0  0  0  0  0
  -47.2980  -64.0560   52.9100 C   0  0  2  0  0  0  0  0  0  0  0  0
  -47.5410  -63.8190   51.4550 C   0  0  2  0  0  0  0  0  0  0  0  0
  -48.8730  -64.5630   51.2300 C   0  0  0  0  0  0  0  0  0  0  0  0
  -48.3620  -65.8530   51.9050 C   0  0  1  0  0  0  0  0  0  0  0  0
  -47.0470  -65.9740   51.2130 C   0  0  0  0  0  0  0  0  0  0  0  0
  -46.6660  -64.7940   50.7060 C   0  0  0  0  0  0  0  0  0  0  0  0
  -45.9400  -64.7110   53.0690 C   0  0  0  0  0  0  0  0  0  0  0  0
  -44.9280  -64.3890   52.4080 O   0  0  0  0  0  0  0  0  0  0  0  0
  -42.2940  -68.0940   55.6090 H   0  0  0  0  0  0  0  0  0  0  0  0
  -42.7210  -65.3330   52.4030 H   0  0  0  0  0  0  0  0  0  0  0  0
  -40.9910  -66.5320   51.1440 H   0  0  0  0  0  0  0  0  0  0  0  0
  -39.9110  -68.5310   52.1380 H   0  0  0  0  0  0  0  0  0  0  0  0
  -45.2620  -67.1920   55.4060 H   0  0  0  0  0  0  0  0  0  0  0  0
  -49.1650  -64.9480   53.6600 H   0  0  0  0  0  0  0  0  0  0  0  0
  -47.4220  -63.2040   53.5690 H   0  0  0  0  0  0  0  0  0  0  0  0
  -47.5200  -62.8180   51.1080 H   0  0  0  0  0  0  0  0  0  0  0  0
  -49.0560  -64.7360   50.1620 H   0  0  0  0  0  0  0  0  0  0  0  0
  -49.7040  -64.1170   51.7730 H   0  0  0  0  0  0  0  0  0  0  0  0
  -49.0320  -66.6750   51.8230 H   0  0  0  0  0  0  0  0  0  0  0  0
  -46.4450  -66.8820   51.1120 H   0  0  0  0  0  0  0  0  0  0  0  0
  -45.9560  -64.5070   49.9790 H   0  0  0  0  0  0  0  0  0  0  0  0
  2  3  1  0  0  0  0
  2  1  1  0  0  0  0
  3 23  1  0  0  0  0
  4  3  2  0  0  0  0
  4  8  1  0  0  0  0
  5  4  1  0  0  0  0
  6  7  1  0  0  0  0
  6  5  2  0  0  0  0
  7  2  2  0  0  0  0
  8  9  2  0  0  0  0
 10  8  1  0  0  0  0
 10 27  1  0  0  0  0
 11 12  1  0  0  0  0
 11 10  1  0  0  0  0
 12 13  2  0  0  0  0
 14 28  1  1  0  0  0
 14 12  1  0  0  0  0
 15 21  1  0  0  0  0
 15 14  1  0  0  0  0
 15 29  1  1  0  0  0
 16 30  1  6  0  0  0
 16 15  1  0  0  0  0
 17 16  1  0  0  0  0
 17 32  1  0  0  0  0
 17 18  1  0  0  0  0
 18 33  1  6  0  0  0
 18 14  1  0  0  0  0
 19 18  1  0  0  0  0
 20 19  1  0  0  0  0
 20 16  1  0  0  0  0
 21 11  1  0  0  0  0
 22 21  2  0  0  0  0
 24  5  1  0  0  0  0
 25  6  1  0  0  0  0
 26  7  1  0  0  0  0
 31 17  1  0  0  0  0
 34 19  1  0  0  0  0
 35 20  1  0  0  0  0
M  END
>  <Pose>
1

>  <Score>
-5.71

$$$$
