
 OpenBabel03202209423D

 44 47  0  0  0  0  0  0  0  0999 V2000
  -47.6280  -65.7480   52.1000 B   0  0  0  0  0  0  0  0  0  0  0  0
  -45.8620  -65.3440   52.6990 C   0  0  0  0  0  0  0  0  0  0  0  0
  -45.2790  -66.2020   53.6410 C   0  0  0  0  0  0  0  0  0  0  0  0
  -43.9790  -65.9920   54.1230 C   0  0  0  0  0  0  0  0  0  0  0  0
  -43.3060  -64.9060   53.6410 C   0  0  0  0  0  0  0  0  0  0  0  0
  -43.8690  -64.0260   52.6920 C   0  0  0  0  0  0  0  0  0  0  0  0
  -45.1870  -64.2780   52.2270 C   0  0  0  0  0  0  0  0  0  0  0  0
  -43.2680  -67.1130   54.7970 C   0  0  0  0  0  0  0  0  0  0  0  0
  -42.2330  -67.7070   54.1940 C   0  0  0  0  0  0  0  0  0  0  0  0
  -41.7400  -67.4060   52.9920 O   0  0  0  0  0  0  0  0  0  0  0  0
  -40.6230  -68.2320   52.7080 C   0  0  0  0  0  0  0  0  0  0  0  0
  -40.3760  -69.0820   53.7330 C   0  0  0  0  0  0  0  0  0  0  0  0
  -39.2610  -69.9110   53.6420 C   0  0  0  0  0  0  0  0  0  0  0  0
  -38.4640  -69.8780   52.5410 C   0  0  0  0  0  0  0  0  0  0  0  0
  -38.7600  -69.0230   51.4990 C   0  0  0  0  0  0  0  0  0  0  0  0
  -39.8390  -68.1720   51.5230 C   0  0  0  0  0  0  0  0  0  0  0  0
  -40.5420  -67.5860   50.3990 C   0  0  0  0  0  0  0  0  0  0  0  0
  -41.0080  -66.4090   49.9370 N   0  0  0  0  0  4  0  0  0  0  0  0
  -41.5300  -65.3510   50.6850 C   0  0  0  0  0  0  0  0  0  0  0  0
  -40.5000  -64.2490   51.0170 C   0  0  0  0  0  0  0  0  0  0  0  0
  -40.0470  -63.5740   49.9090 O   0  0  0  0  0  0  0  0  0  0  0  0
  -39.8750  -64.4740   48.8510 C   0  0  0  0  0  0  0  0  0  0  0  0
  -39.7190  -65.8360   49.2810 C   0  0  0  0  0  0  0  0  0  0  0  0
  -37.9180  -69.0330   50.3850 O   0  0  0  0  0  0  0  0  0  0  0  0
  -41.4160  -68.7940   54.7500 C   0  0  0  0  0  0  0  0  0  0  0  0
  -41.5650  -69.3640   55.8460 O   0  0  0  0  0  0  0  0  0  0  0  0
  -45.8420  -67.0260   53.9380 H   0  0  0  0  0  0  0  0  0  0  0  0
  -42.3200  -64.6710   53.9410 H   0  0  0  0  0  0  0  0  0  0  0  0
  -43.3950  -63.1710   52.2670 H   0  0  0  0  0  0  0  0  0  0  0  0
  -45.6230  -63.6360   51.4960 H   0  0  0  0  0  0  0  0  0  0  0  0
  -43.5890  -67.4780   55.7460 H   0  0  0  0  0  0  0  0  0  0  0  0
  -39.0500  -70.5750   54.4380 H   0  0  0  0  0  0  0  0  0  0  0  0
  -37.5650  -70.5310   52.4730 H   0  0  0  0  0  0  0  0  0  0  0  0
  -39.5480  -67.7360   49.5540 H   0  0  0  0  0  0  0  0  0  0  0  0
  -41.0840  -68.5200   49.8450 H   0  0  0  0  0  0  0  0  0  0  0  0
  -41.6510  -66.5860   49.0770 H   0  0  0  0  0  0  0  0  0  0  0  0
  -42.0230  -65.6330   51.6310 H   0  0  0  0  0  0  0  0  0  0  0  0
  -42.3350  -64.7700   50.0670 H   0  0  0  0  0  0  0  0  0  0  0  0
  -39.7060  -64.6880   51.6550 H   0  0  0  0  0  0  0  0  0  0  0  0
  -41.0910  -63.4970   51.6230 H   0  0  0  0  0  0  0  0  0  0  0  0
  -40.6070  -64.3900   48.0420 H   0  0  0  0  0  0  0  0  0  0  0  0
  -38.8720  -64.1950   48.3720 H   0  0  0  0  0  0  0  0  0  0  0  0
  -38.9610  -65.9910   50.1300 H   0  0  0  0  0  0  0  0  0  0  0  0
  -39.5130  -66.5300   48.5130 H   0  0  0  0  0  0  0  0  0  0  0  0
  1  2  1  0  0  0  0
  2  3  1  0  0  0  0
  3 27  1  0  0  0  0
  3  4  2  0  0  0  0
  4  8  1  0  0  0  0
  5 28  1  0  0  0  0
  5  4  1  0  0  0  0
  6  5  2  0  0  0  0
  7  6  1  0  0  0  0
  7  2  2  0  0  0  0
  8 31  1  0  0  0  0
  9 25  1  0  0  0  0
  9  8  2  0  0  0  0
 10  9  1  0  0  0  0
 11 10  1  0  0  0  0
 11 12  1  0  0  0  0
 12 25  1  0  0  0  0
 13 12  2  0  0  0  0
 13 32  1  0  0  0  0
 14 13  1  0  0  0  0
 15 16  1  0  0  0  0
 15 14  2  0  0  0  0
 16 11  2  0  0  0  0
 17 16  1  0  0  0  0
 18 17  1  0  0  0  0
 18 19  1  0  0  0  0
 19 20  1  0  0  0  0
 19 37  1  0  0  0  0
 20 40  1  0  0  0  0
 20 39  1  0  0  0  0
 21 20  1  0  0  0  0
 22 23  1  0  0  0  0
 22 21  1  0  0  0  0
 23 18  1  0  0  0  0
 23 43  1  0  0  0  0
 24 15  1  0  0  0  0
 25 26  2  0  0  0  0
 29  6  1  0  0  0  0
 30  7  1  0  0  0  0
 33 14  1  0  0  0  0
 34 17  1  0  0  0  0
 35 17  1  0  0  0  0
 36 18  1  0  0  0  0
 38 19  1  0  0  0  0
 41 22  1  0  0  0  0
 42 22  1  0  0  0  0
 44 23  1  0  0  0  0
M  END
>  <Pose>
1

>  <Score>
-7.05

$$$$
