
 OpenBabel03202209423D

 50 53  0  0  0  0  0  0  0  0999 V2000
  -37.9780  -69.6830   51.3660 B   0  0  0  0  0  0  0  0  0  0  0  0
  -39.1970  -69.4690   52.8280 C   0  0  0  0  0  0  0  0  0  0  0  0
  -40.0520  -68.3960   52.8930 C   0  0  0  0  0  0  0  0  0  0  0  0
  -40.9490  -68.1990   53.9290 C   0  0  0  0  0  0  0  0  0  0  0  0
  -40.9550  -69.1500   54.9260 C   0  0  0  0  0  0  0  0  0  0  0  0
  -40.1040  -70.2520   54.8950 C   0  0  0  0  0  0  0  0  0  0  0  0
  -39.2270  -70.4040   53.8420 C   0  0  0  0  0  0  0  0  0  0  0  0
  -41.8440  -67.0490   53.9680 C   0  0  0  0  0  0  0  0  0  0  0  0
  -42.6390  -66.8060   54.9340 N   0  0  0  0  0  0  0  0  0  0  0  0
  -43.5090  -65.7140   54.9970 N   0  0  0  0  0  0  0  0  0  0  0  0
  -44.6160  -65.5940   54.1110 C   0  0  0  0  0  0  0  0  0  0  0  0
  -44.5460  -64.7760   53.0570 N   0  0  0  0  0  4  0  0  0  0  0  0
  -45.5690  -64.6150   52.1720 C   0  0  0  0  0  0  0  0  0  0  0  0
  -46.6780  -65.3420   52.4260 N   0  0  0  0  0  0  0  0  0  0  0  0
  -46.8090  -66.1800   53.4680 C   0  0  0  0  0  0  0  0  0  0  0  0
  -45.7420  -66.2790   54.2980 N   0  0  0  0  0  0  0  0  0  0  0  0
  -47.9750  -66.9260   53.7090 N   0  0  0  0  0  0  0  0  0  0  0  0
  -47.9370  -68.3370   53.9820 C   0  0  0  0  0  0  0  0  0  0  0  0
  -49.0190  -68.5890   55.0410 C   0  0  0  0  0  0  0  0  0  0  0  0
  -49.2320  -67.4380   55.7960 O   0  0  0  0  0  0  0  0  0  0  0  0
  -49.8310  -66.4150   55.1060 C   0  0  0  0  0  0  0  0  0  0  0  0
  -49.2580  -66.2810   53.6880 C   0  0  0  0  0  0  0  0  0  0  0  0
  -45.4710  -63.7450   51.0640 N   0  0  0  0  0  0  0  0  0  0  0  0
  -44.2570  -63.0230   50.8020 C   0  0  0  0  0  0  0  0  0  0  0  0
  -43.8600  -63.3330   49.3630 C   0  0  0  0  0  0  0  0  0  0  0  0
  -44.9140  -62.8950   48.5650 O   0  0  0  0  0  0  0  0  0  0  0  0
  -46.0570  -63.6530   48.7400 C   0  0  0  0  0  0  0  0  0  0  0  0
  -46.5800  -63.5550   50.1700 C   0  0  0  0  0  0  0  0  0  0  0  0
  -40.0510  -67.6400   52.1060 H   0  0  0  0  0  0  0  0  0  0  0  0
  -41.6350  -69.0620   55.7730 H   0  0  0  0  0  0  0  0  0  0  0  0
  -40.1040  -71.0020   55.6760 H   0  0  0  0  0  0  0  0  0  0  0  0
  -38.5790  -71.2620   53.8380 H   0  0  0  0  0  0  0  0  0  0  0  0
  -41.8300  -66.3700   53.1280 H   0  0  0  0  0  0  0  0  0  0  0  0
  -43.3250  -64.9810   55.7130 H   0  0  0  0  0  0  0  0  0  0  0  0
  -46.9490  -68.6820   54.3430 H   0  0  0  0  0  0  0  0  0  0  0  0
  -48.2700  -68.8660   53.0720 H   0  0  0  0  0  0  0  0  0  0  0  0
  -48.6080  -69.3480   55.7240 H   0  0  0  0  0  0  0  0  0  0  0  0
  -49.9530  -68.9410   54.5890 H   0  0  0  0  0  0  0  0  0  0  0  0
  -50.9210  -66.4370   55.0950 H   0  0  0  0  0  0  0  0  0  0  0  0
  -49.5370  -65.4530   55.6200 H   0  0  0  0  0  0  0  0  0  0  0  0
  -49.1310  -65.2310   53.4110 H   0  0  0  0  0  0  0  0  0  0  0  0
  -49.9670  -66.8110   52.9830 H   0  0  0  0  0  0  0  0  0  0  0  0
  -43.4450  -63.2540   51.5090 H   0  0  0  0  0  0  0  0  0  0  0  0
  -44.5180  -61.9300   50.8080 H   0  0  0  0  0  0  0  0  0  0  0  0
  -43.8200  -64.4320   49.2780 H   0  0  0  0  0  0  0  0  0  0  0  0
  -42.9420  -62.8260   49.0640 H   0  0  0  0  0  0  0  0  0  0  0  0
  -45.7860  -64.7070   48.4840 H   0  0  0  0  0  0  0  0  0  0  0  0
  -46.8210  -63.2700   48.0360 H   0  0  0  0  0  0  0  0  0  0  0  0
  -46.9650  -62.5210   50.2880 H   0  0  0  0  0  0  0  0  0  0  0  0
  -47.3860  -64.2960   50.3000 H   0  0  0  0  0  0  0  0  0  0  0  0
  1  2  1  0  0  0  0
  2  3  2  0  0  0  0
  2  7  1  0  0  0  0
  3  4  1  0  0  0  0
  4  8  1  0  0  0  0
  4  5  2  0  0  0  0
  5 30  1  0  0  0  0
  6  5  1  0  0  0  0
  6 31  1  0  0  0  0
  7  6  2  0  0  0  0
  8  9  2  0  0  0  0
  9 10  1  0  0  0  0
 10 34  1  0  0  0  0
 11 16  1  0  0  0  0
 11 10  1  0  0  0  0
 12 11  2  0  0  0  0
 13 14  1  0  0  0  0
 13 12  2  0  0  0  0
 14 15  2  0  0  0  0
 15 17  1  0  0  0  0
 15 16  1  0  0  0  0
 17 18  1  0  0  0  0
 18 35  1  0  0  0  0
 18 19  1  0  0  0  0
 19 37  1  0  0  0  0
 19 20  1  0  0  0  0
 21 40  1  0  0  0  0
 21 20  1  0  0  0  0
 22 17  1  0  0  0  0
 22 21  1  0  0  0  0
 23 13  1  0  0  0  0
 24 44  1  0  0  0  0
 24 23  1  0  0  0  0
 24 43  1  0  0  0  0
 25 24  1  0  0  0  0
 26 27  1  0  0  0  0
 26 25  1  0  0  0  0
 27 28  1  0  0  0  0
 28 49  1  0  0  0  0
 28 50  1  0  0  0  0
 28 23  1  0  0  0  0
 29  3  1  0  0  0  0
 32  7  1  0  0  0  0
 33  8  1  0  0  0  0
 36 18  1  0  0  0  0
 38 19  1  0  0  0  0
 39 21  1  0  0  0  0
 41 22  1  0  0  0  0
 42 22  1  0  0  0  0
 45 25  1  0  0  0  0
 46 25  1  0  0  0  0
 47 27  1  0  0  0  0
 48 27  1  0  0  0  0
M  END
>  <Pose>
1

>  <Score>
-6.35

$$$$
