
 OpenBabel03202209423D

 63 66  0  0  1  0  0  0  0  0999 V2000
  -44.0050  -60.7910   47.3770 B   0  0  0  0  0  0  0  0  0  0  0  0
  -43.7420  -62.2350   48.5960 C   0  0  0  0  0  0  0  0  0  0  0  0
  -42.6410  -63.0530   48.4620 C   0  0  0  0  0  0  0  0  0  0  0  0
  -42.4050  -64.1160   49.3230 C   0  0  0  0  0  0  0  0  0  0  0  0
  -43.3490  -64.2990   50.3230 C   0  0  0  0  0  0  0  0  0  0  0  0
  -44.4530  -63.4860   50.4660 C   0  0  0  0  0  0  0  0  0  0  0  0
  -44.6660  -62.4370   49.5980 C   0  0  0  0  0  0  0  0  0  0  0  0
  -41.2140  -64.9860   49.1790 C   0  0  2  0  0  0  0  0  0  0  0  0
  -40.9260  -65.5850   50.4670 N   0  0  0  0  0  0  0  0  0  0  0  0
  -40.3040  -64.5730   51.2460 C   0  0  0  0  0  0  0  0  0  0  0  0
  -40.2800  -64.4800   52.4930 O   0  0  0  0  0  0  0  0  0  0  0  0
  -39.6780  -63.6270   50.2960 C   0  0  0  0  0  0  0  0  0  0  0  0
  -39.0250  -62.5970   50.5700 O   0  0  0  0  0  0  0  0  0  0  0  0
  -39.9790  -64.1500   48.9700 C   0  0  0  0  0  0  0  0  0  0  0  0
  -39.2790  -63.9490   47.8960 C   0  0  0  0  0  0  0  0  0  0  0  0
  -39.6880  -64.5910   46.7080 O   0  0  0  0  0  0  0  0  0  0  0  0
  -38.0960  -63.1070   47.7980 C   0  0  0  0  0  0  0  0  0  0  0  0
  -36.9070  -63.0880   48.4470 C   0  0  0  0  0  0  0  0  0  0  0  0
  -36.1480  -62.1110   47.9080 N   0  0  0  0  0  0  0  0  0  0  0  0
  -36.7980  -61.4800   46.9220 C   0  0  0  0  0  0  0  0  0  0  0  0
  -38.0230  -62.0840   46.8310 C   0  0  0  0  0  0  0  0  0  0  0  0
  -39.1000  -61.7140   45.8630 C   0  0  0  0  0  0  0  0  0  0  0  0
  -36.2970  -60.3600   46.1000 C   0  0  0  0  0  0  0  0  0  0  0  0
  -36.1220  -60.5320   44.8850 O   0  0  0  0  0  0  0  0  0  0  0  0
  -36.0250  -59.1320   46.6720 O   0  0  0  0  0  0  0  0  0  0  0  0
  -36.1220  -57.9070   45.9820 C   0  0  0  0  0  0  0  0  0  0  0  0
  -36.4750  -63.9420   49.6040 C   0  0  0  0  0  0  0  0  0  0  0  0
  -41.2110  -66.9580   50.8930 C   0  0  0  0  0  0  0  0  0  0  0  0
  -39.9810  -67.6110   51.4850 C   0  0  0  0  0  0  0  0  0  0  0  0
  -40.2580  -68.4830   52.5800 N   0  0  0  0  0  4  0  0  0  0  0  0
  -40.4730  -67.7910   53.8450 C   0  0  0  0  0  0  0  0  0  0  0  0
  -41.1850  -68.7440   54.7670 C   0  0  0  0  0  0  0  0  0  0  0  0
  -40.9410  -70.0340   54.3660 O   0  0  0  0  0  0  0  0  0  0  0  0
  -39.6270  -70.2830   54.0110 C   0  0  0  0  0  0  0  0  0  0  0  0
  -39.1720  -69.4210   52.8350 C   0  0  0  0  0  0  0  0  0  0  0  0
  -41.9200  -62.8940   47.6670 H   0  0  0  0  0  0  0  0  0  0  0  0
  -43.1850  -65.1270   51.0100 H   0  0  0  0  0  0  0  0  0  0  0  0
  -45.1850  -63.6430   51.2560 H   0  0  0  0  0  0  0  0  0  0  0  0
  -45.5430  -61.7830   49.7030 H   0  0  0  0  0  0  0  0  0  0  0  0
  -41.3290  -65.7310   48.3720 H   0  0  0  0  0  0  0  0  0  0  0  0
  -35.1650  -61.8790   48.2320 H   0  0  0  0  0  0  0  0  0  0  0  0
  -39.2870  -60.6200   45.8850 H   0  0  0  0  0  0  0  0  0  0  0  0
  -40.0400  -62.1990   46.1720 H   0  0  0  0  0  0  0  0  0  0  0  0
  -38.8430  -61.9820   44.8280 H   0  0  0  0  0  0  0  0  0  0  0  0
  -37.0170  -57.8570   45.3220 H   0  0  0  0  0  0  0  0  0  0  0  0
  -35.1830  -57.6820   45.4080 H   0  0  0  0  0  0  0  0  0  0  0  0
  -36.2060  -57.1110   46.7670 H   0  0  0  0  0  0  0  0  0  0  0  0
  -35.7370  -64.7010   49.2920 H   0  0  0  0  0  0  0  0  0  0  0  0
  -37.3490  -64.4100   50.0780 H   0  0  0  0  0  0  0  0  0  0  0  0
  -35.9940  -63.2110   50.3280 H   0  0  0  0  0  0  0  0  0  0  0  0
  -42.0210  -66.9760   51.6510 H   0  0  0  0  0  0  0  0  0  0  0  0
  -41.4970  -67.5780   50.0160 H   0  0  0  0  0  0  0  0  0  0  0  0
  -39.2640  -66.7890   51.7860 H   0  0  0  0  0  0  0  0  0  0  0  0
  -39.4350  -68.1910   50.7210 H   0  0  0  0  0  0  0  0  0  0  0  0
  -41.0820  -69.0690   52.3520 H   0  0  0  0  0  0  0  0  0  0  0  0
  -39.4470  -67.6240   54.2850 H   0  0  0  0  0  0  0  0  0  0  0  0
  -40.9390  -66.8130   53.7430 H   0  0  0  0  0  0  0  0  0  0  0  0
  -40.9080  -68.6220   55.8290 H   0  0  0  0  0  0  0  0  0  0  0  0
  -42.2940  -68.5800   54.7100 H   0  0  0  0  0  0  0  0  0  0  0  0
  -39.6080  -71.3480   53.6420 H   0  0  0  0  0  0  0  0  0  0  0  0
  -38.9190  -70.2240   54.8620 H   0  0  0  0  0  0  0  0  0  0  0  0
  -38.9100  -70.0190   51.9610 H   0  0  0  0  0  0  0  0  0  0  0  0
  -38.2850  -68.8390   53.1980 H   0  0  0  0  0  0  0  0  0  0  0  0
  1  2  1  0  0  0  0
  2  7  1  0  0  0  0
  3  2  2  0  0  0  0
  3  4  1  0  0  0  0
  4  5  2  0  0  0  0
  5  6  1  0  0  0  0
  5 37  1  0  0  0  0
  6 38  1  0  0  0  0
  7 39  1  0  0  0  0
  7  6  2  0  0  0  0
  8 40  1  6  0  0  0
  8  4  1  0  0  0  0
  8  9  1  0  0  0  0
  9 28  1  0  0  0  0
  9 10  1  0  0  0  0
 10 11  2  0  0  0  0
 12 13  2  0  0  0  0
 12 10  1  0  0  0  0
 14  8  1  0  0  0  0
 14 12  1  0  0  0  0
 15 14  2  0  0  0  0
 16 15  1  0  0  0  0
 17 15  1  0  0  0  0
 17 18  2  0  0  0  0
 18 27  1  0  0  0  0
 19 41  1  0  0  0  0
 19 18  1  0  0  0  0
 20 19  1  0  0  0  0
 21 20  2  0  0  0  0
 21 17  1  0  0  0  0
 22 42  1  0  0  0  0
 22 43  1  0  0  0  0
 22 21  1  0  0  0  0
 23 25  1  0  0  0  0
 23 20  1  0  0  0  0
 24 23  2  0  0  0  0
 26 25  1  0  0  0  0
 26 47  1  0  0  0  0
 27 49  1  0  0  0  0
 27 50  1  0  0  0  0
 28 29  1  0  0  0  0
 28 51  1  0  0  0  0
 29 53  1  0  0  0  0
 29 30  1  0  0  0  0
 30 35  1  0  0  0  0
 30 31  1  0  0  0  0
 31 56  1  0  0  0  0
 31 32  1  0  0  0  0
 32 58  1  0  0  0  0
 33 32  1  0  0  0  0
 34 33  1  0  0  0  0
 34 61  1  0  0  0  0
 35 63  1  0  0  0  0
 35 34  1  0  0  0  0
 36  3  1  0  0  0  0
 44 22  1  0  0  0  0
 45 26  1  0  0  0  0
 46 26  1  0  0  0  0
 48 27  1  0  0  0  0
 52 28  1  0  0  0  0
 54 29  1  0  0  0  0
 55 30  1  0  0  0  0
 57 31  1  0  0  0  0
 59 32  1  0  0  0  0
 60 34  1  0  0  0  0
 62 35  1  0  0  0  0
M  END
>  <Pose>
1

>  <Score>
-6.18

$$$$
