
 OpenBabel03202209423D

 63 66  0  0  1  0  0  0  0  0999 V2000
  -48.9090  -66.3370   48.9220 B   0  0  0  0  0  0  0  0  0  0  0  0
  -47.5390  -65.1470   49.5030 C   0  0  0  0  0  0  0  0  0  0  0  0
  -47.1370  -65.1330   50.8340 C   0  0  0  0  0  0  0  0  0  0  0  0
  -46.1480  -64.2800   51.2690 C   0  0  0  0  0  0  0  0  0  0  0  0
  -45.5570  -63.4310   50.3600 C   0  0  0  0  0  0  0  0  0  0  0  0
  -45.9520  -63.4410   49.0380 C   0  0  0  0  0  0  0  0  0  0  0  0
  -46.9410  -64.2920   48.5920 C   0  0  0  0  0  0  0  0  0  0  0  0
  -45.7050  -64.2480   52.6750 C   0  0  1  0  0  0  0  0  0  0  0  0
  -46.7490  -64.6170   53.6100 N   0  0  0  0  0  0  0  0  0  0  0  0
  -46.7110  -66.0020   53.8810 C   0  0  0  0  0  0  0  0  0  0  0  0
  -47.5780  -66.7730   54.3670 O   0  0  0  0  0  0  0  0  0  0  0  0
  -45.3610  -66.4550   53.4630 C   0  0  0  0  0  0  0  0  0  0  0  0
  -44.9680  -67.6350   53.5630 O   0  0  0  0  0  0  0  0  0  0  0  0
  -44.6590  -65.2910   52.9540 C   0  0  0  0  0  0  0  0  0  0  0  0
  -43.3620  -65.1740   52.8230 C   0  0  0  0  0  0  0  0  0  0  0  0
  -42.8250  -63.9530   52.3790 O   0  0  0  0  0  0  0  0  0  0  0  0
  -42.4580  -66.2550   53.1090 C   0  0  0  0  0  0  0  0  0  0  0  0
  -41.5230  -66.5770   52.1140 C   0  0  0  0  0  0  0  0  0  0  0  0
  -40.6520  -67.6170   52.2840 C   0  0  0  0  0  0  0  0  0  0  0  0
  -40.6510  -68.3940   53.4350 C   0  0  0  0  0  0  0  0  0  0  0  0
  -41.5660  -68.0640   54.3860 C   0  0  0  0  0  0  0  0  0  0  0  0
  -42.4530  -67.0190   54.2310 C   0  0  0  0  0  0  0  0  0  0  0  0
  -39.7380  -69.4250   53.5300 O   0  0  0  0  0  0  0  0  0  0  0  0
  -39.7020  -70.2620   54.6760 C   0  0  0  0  0  0  0  0  0  0  0  0
  -39.6600  -67.9470   51.2100 C   0  0  0  0  0  0  0  0  0  0  0  0
  -47.7250  -63.7000   54.2200 C   0  0  0  0  0  0  0  0  0  0  0  0
  -49.1020  -63.9970   53.6950 C   0  0  0  0  0  0  0  0  0  0  0  0
  -50.2200  -63.3910   54.4730 C   0  0  0  0  0  0  0  0  0  0  0  0
  -50.2330  -63.7750   55.8670 N   0  0  0  0  0  4  0  0  0  0  0  0
  -50.9230  -62.7990   56.6880 C   0  0  0  0  0  0  0  0  0  0  0  0
  -52.1620  -63.3950   57.3010 C   0  0  0  0  0  0  0  0  0  0  0  0
  -51.7600  -64.4670   58.1220 O   0  0  0  0  0  0  0  0  0  0  0  0
  -51.1820  -65.4780   57.3580 C   0  0  0  0  0  0  0  0  0  0  0  0
  -50.8950  -65.0810   55.9450 C   0  0  0  0  0  0  0  0  0  0  0  0
  -47.6020  -65.7950   51.5330 H   0  0  0  0  0  0  0  0  0  0  0  0
  -44.7720  -62.7360   50.6410 H   0  0  0  0  0  0  0  0  0  0  0  0
  -45.4800  -62.7710   48.3350 H   0  0  0  0  0  0  0  0  0  0  0  0
  -47.2510  -64.2980   47.5580 H   0  0  0  0  0  0  0  0  0  0  0  0
  -45.3590  -63.2380   52.9860 H   0  0  0  0  0  0  0  0  0  0  0  0
  -41.4980  -65.9820   51.1880 H   0  0  0  0  0  0  0  0  0  0  0  0
  -41.5970  -68.6490   55.3020 H   0  0  0  0  0  0  0  0  0  0  0  0
  -43.2000  -66.8050   55.0120 H   0  0  0  0  0  0  0  0  0  0  0  0
  -39.0970  -71.1620   54.5120 H   0  0  0  0  0  0  0  0  0  0  0  0
  -40.7270  -70.5480   55.0180 H   0  0  0  0  0  0  0  0  0  0  0  0
  -39.2440  -69.7200   55.5490 H   0  0  0  0  0  0  0  0  0  0  0  0
  -40.2740  -68.1420   50.2950 H   0  0  0  0  0  0  0  0  0  0  0  0
  -39.1220  -68.8590   51.4550 H   0  0  0  0  0  0  0  0  0  0  0  0
  -38.9500  -67.1100   51.0320 H   0  0  0  0  0  0  0  0  0  0  0  0
  -47.4470  -62.6510   54.0190 H   0  0  0  0  0  0  0  0  0  0  0  0
  -47.7380  -63.9160   55.3230 H   0  0  0  0  0  0  0  0  0  0  0  0
  -49.2190  -63.6310   52.6380 H   0  0  0  0  0  0  0  0  0  0  0  0
  -49.2870  -65.1060   53.6770 H   0  0  0  0  0  0  0  0  0  0  0  0
  -51.1710  -63.6990   53.9650 H   0  0  0  0  0  0  0  0  0  0  0  0
  -50.2250  -62.2830   54.4450 H   0  0  0  0  0  0  0  0  0  0  0  0
  -49.2820  -63.9300   56.2630 H   0  0  0  0  0  0  0  0  0  0  0  0
  -51.2350  -61.9180   56.0900 H   0  0  0  0  0  0  0  0  0  0  0  0
  -50.2720  -62.4830   57.5560 H   0  0  0  0  0  0  0  0  0  0  0  0
  -52.6660  -62.6800   57.9540 H   0  0  0  0  0  0  0  0  0  0  0  0
  -52.8770  -63.7530   56.5310 H   0  0  0  0  0  0  0  0  0  0  0  0
  -50.2300  -65.8160   57.8180 H   0  0  0  0  0  0  0  0  0  0  0  0
  -51.9010  -66.3340   57.3220 H   0  0  0  0  0  0  0  0  0  0  0  0
  -50.1130  -65.8040   55.5690 H   0  0  0  0  0  0  0  0  0  0  0  0
  -51.7620  -65.1440   55.2650 H   0  0  0  0  0  0  0  0  0  0  0  0
  1  2  1  0  0  0  0
  2  3  1  0  0  0  0
  3  4  2  0  0  0  0
  3 35  1  0  0  0  0
  4  8  1  0  0  0  0
  5 36  1  0  0  0  0
  5  4  1  0  0  0  0
  6  5  2  0  0  0  0
  7  6  1  0  0  0  0
  7  2  2  0  0  0  0
  8 14  1  0  0  0  0
  8 39  1  1  0  0  0
  8  9  1  0  0  0  0
  9 10  1  0  0  0  0
  9 26  1  0  0  0  0
 10 11  2  0  0  0  0
 12 13  2  0  0  0  0
 12 10  1  0  0  0  0
 14 12  1  0  0  0  0
 15 14  2  0  0  0  0
 15 17  1  0  0  0  0
 16 15  1  0  0  0  0
 17 22  1  0  0  0  0
 18 19  1  0  0  0  0
 18 17  2  0  0  0  0
 19 20  2  0  0  0  0
 20 23  1  0  0  0  0
 20 21  1  0  0  0  0
 21 41  1  0  0  0  0
 22 21  2  0  0  0  0
 22 42  1  0  0  0  0
 23 24  1  0  0  0  0
 24 44  1  0  0  0  0
 24 45  1  0  0  0  0
 25 47  1  0  0  0  0
 25 19  1  0  0  0  0
 26 50  1  0  0  0  0
 27 26  1  0  0  0  0
 27 28  1  0  0  0  0
 28 29  1  0  0  0  0
 29 34  1  0  0  0  0
 29 55  1  0  0  0  0
 29 30  1  0  0  0  0
 30 31  1  0  0  0  0
 30 57  1  0  0  0  0
 31 58  1  0  0  0  0
 31 32  1  0  0  0  0
 33 60  1  0  0  0  0
 33 32  1  0  0  0  0
 34 33  1  0  0  0  0
 37  6  1  0  0  0  0
 38  7  1  0  0  0  0
 40 18  1  0  0  0  0
 43 24  1  0  0  0  0
 46 25  1  0  0  0  0
 48 25  1  0  0  0  0
 49 26  1  0  0  0  0
 51 27  1  0  0  0  0
 52 27  1  0  0  0  0
 53 28  1  0  0  0  0
 54 28  1  0  0  0  0
 56 30  1  0  0  0  0
 59 31  1  0  0  0  0
 61 33  1  0  0  0  0
 62 34  1  0  0  0  0
 63 34  1  0  0  0  0
M  END
>  <Pose>
1

>  <Score>
-6.23

$$$$
