
 OpenBabel03202209423D

 56 59  0  0  1  0  0  0  0  0999 V2000
  -38.6850  -70.3810   52.8940 B   0  0  0  0  0  0  0  0  0  0  0  0
  -40.0840  -69.1950   53.3920 C   0  0  0  0  0  0  0  0  0  0  0  0
  -40.7430  -68.3870   52.4760 C   0  0  0  0  0  0  0  0  0  0  0  0
  -41.7520  -67.5280   52.8460 C   0  0  0  0  0  0  0  0  0  0  0  0
  -42.1020  -67.4810   54.1620 C   0  0  0  0  0  0  0  0  0  0  0  0
  -41.4450  -68.2940   55.0970 C   0  0  0  0  0  0  0  0  0  0  0  0
  -40.4350  -69.1520   54.7240 C   0  0  0  0  0  0  0  0  0  0  0  0
  -42.4270  -66.6860   51.8260 C   0  0  1  0  0  0  0  0  0  0  0  0
  -43.3110  -65.7210   52.4600 N   0  0  0  0  0  0  0  0  0  0  0  0
  -42.5460  -64.5140   52.6520 C   0  0  0  0  0  0  0  0  0  0  0  0
  -42.8520  -63.5920   53.4470 O   0  0  0  0  0  0  0  0  0  0  0  0
  -41.4000  -64.5940   51.7700 C   0  0  0  0  0  0  0  0  0  0  0  0
  -40.4640  -63.7470   51.6200 O   0  0  0  0  0  0  0  0  0  0  0  0
  -41.4890  -65.8550   51.0480 C   0  0  0  0  0  0  0  0  0  0  0  0
  -40.8160  -66.1590   49.9480 C   0  0  0  0  0  0  0  0  0  0  0  0
  -41.0420  -67.4700   49.4780 O   0  0  0  0  0  0  0  0  0  0  0  0
  -39.9170  -65.2560   49.2480 C   0  0  0  0  0  0  0  0  0  0  0  0
  -40.2540  -64.0140   48.7650 C   0  0  0  0  0  0  0  0  0  0  0  0
  -39.3470  -63.1840   48.1370 C   0  0  0  0  0  0  0  0  0  0  0  0
  -38.0390  -63.5790   47.9660 C   0  0  0  0  0  0  0  0  0  0  0  0
  -37.6830  -64.8240   48.4440 C   0  0  0  0  0  0  0  0  0  0  0  0
  -38.5980  -65.6470   49.0720 C   0  0  0  0  0  0  0  0  0  0  0  0
  -36.8590  -62.5360   47.1660 Cl  0  0  0  0  0  0  0  0  0  0  0  0
  -44.6460  -65.9770   52.8980 C   0  0  0  0  0  0  0  0  0  0  0  0
  -45.6310  -64.8810   52.8880 C   0  0  0  0  0  0  0  0  0  0  0  0
  -47.0830  -65.1830   52.9190 C   0  0  0  0  0  0  0  0  0  0  0  0
  -47.6220  -65.7920   54.0870 N   0  0  0  0  0  4  0  0  0  0  0  0
  -49.0570  -65.8870   54.0030 C   0  0  0  0  0  0  0  0  0  0  0  0
  -49.5380  -67.2050   53.4340 C   0  0  0  0  0  0  0  0  0  0  0  0
  -49.2100  -68.2500   54.3010 O   0  0  0  0  0  0  0  0  0  0  0  0
  -48.1050  -67.9160   55.0860 C   0  0  0  0  0  0  0  0  0  0  0  0
  -47.1290  -67.2000   54.1940 C   0  0  0  0  0  0  0  0  0  0  0  0
  -40.4480  -68.4410   51.4420 H   0  0  0  0  0  0  0  0  0  0  0  0
  -42.8800  -66.8300   54.4950 H   0  0  0  0  0  0  0  0  0  0  0  0
  -41.7170  -68.2630   56.1330 H   0  0  0  0  0  0  0  0  0  0  0  0
  -39.9200  -69.7870   55.4500 H   0  0  0  0  0  0  0  0  0  0  0  0
  -43.0600  -67.3390   51.1900 H   0  0  0  0  0  0  0  0  0  0  0  0
  -41.2710  -63.6700   48.8570 H   0  0  0  0  0  0  0  0  0  0  0  0
  -39.6160  -62.2070   47.7580 H   0  0  0  0  0  0  0  0  0  0  0  0
  -36.6500  -65.1180   48.3000 H   0  0  0  0  0  0  0  0  0  0  0  0
  -38.3050  -66.6270   49.4440 H   0  0  0  0  0  0  0  0  0  0  0  0
  -44.5480  -66.3550   53.9700 H   0  0  0  0  0  0  0  0  0  0  0  0
  -45.0450  -66.8600   52.2830 H   0  0  0  0  0  0  0  0  0  0  0  0
  -45.4200  -64.1560   52.0130 H   0  0  0  0  0  0  0  0  0  0  0  0
  -45.4430  -64.1960   53.7970 H   0  0  0  0  0  0  0  0  0  0  0  0
  -47.3800  -65.8390   52.0520 H   0  0  0  0  0  0  0  0  0  0  0  0
  -47.6840  -64.2280   52.7380 H   0  0  0  0  0  0  0  0  0  0  0  0
  -47.2910  -65.3650   54.9490 H   0  0  0  0  0  0  0  0  0  0  0  0
  -49.4540  -65.0680   53.3670 H   0  0  0  0  0  0  0  0  0  0  0  0
  -49.5000  -65.7710   55.0070 H   0  0  0  0  0  0  0  0  0  0  0  0
  -49.1080  -67.3430   52.4220 H   0  0  0  0  0  0  0  0  0  0  0  0
  -50.6230  -67.1580   53.3360 H   0  0  0  0  0  0  0  0  0  0  0  0
  -48.4570  -67.2670   55.9050 H   0  0  0  0  0  0  0  0  0  0  0  0
  -47.6850  -68.8550   55.5070 H   0  0  0  0  0  0  0  0  0  0  0  0
  -47.1330  -67.6260   53.1700 H   0  0  0  0  0  0  0  0  0  0  0  0
  -46.1230  -67.1780   54.6560 H   0  0  0  0  0  0  0  0  0  0  0  0
  1  2  1  0  0  0  0
  2  7  1  0  0  0  0
  3  4  1  0  0  0  0
  3  2  2  0  0  0  0
  4  5  2  0  0  0  0
  5 34  1  0  0  0  0
  5  6  1  0  0  0  0
  6 35  1  0  0  0  0
  7  6  2  0  0  0  0
  7 36  1  0  0  0  0
  8 37  1  6  0  0  0
  8  9  1  0  0  0  0
  8  4  1  0  0  0  0
  9 10  1  0  0  0  0
  9 24  1  0  0  0  0
 10 11  2  0  0  0  0
 12 10  1  0  0  0  0
 13 12  2  0  0  0  0
 14 12  1  0  0  0  0
 14  8  1  0  0  0  0
 15 14  2  0  0  0  0
 16 15  1  0  0  0  0
 17 15  1  0  0  0  0
 18 38  1  0  0  0  0
 18 17  2  0  0  0  0
 19 18  1  0  0  0  0
 20 19  2  0  0  0  0
 20 21  1  0  0  0  0
 21 22  2  0  0  0  0
 22 17  1  0  0  0  0
 22 41  1  0  0  0  0
 23 20  1  0  0  0  0
 24 42  1  0  0  0  0
 25 24  1  0  0  0  0
 25 26  1  0  0  0  0
 25 45  1  0  0  0  0
 26 27  1  0  0  0  0
 27 32  1  0  0  0  0
 27 48  1  0  0  0  0
 28 27  1  0  0  0  0
 28 50  1  0  0  0  0
 29 28  1  0  0  0  0
 29 30  1  0  0  0  0
 30 31  1  0  0  0  0
 31 54  1  0  0  0  0
 31 53  1  0  0  0  0
 32 56  1  0  0  0  0
 32 31  1  0  0  0  0
 33  3  1  0  0  0  0
 39 19  1  0  0  0  0
 40 21  1  0  0  0  0
 43 24  1  0  0  0  0
 44 25  1  0  0  0  0
 46 26  1  0  0  0  0
 47 26  1  0  0  0  0
 49 28  1  0  0  0  0
 51 29  1  0  0  0  0
 52 29  1  0  0  0  0
 55 32  1  0  0  0  0
M  END
>  <Pose>
1

>  <Score>
-6.82

$$$$
