
 OpenBabel03202209423D

 57 60  0  0  1  0  0  0  0  0999 V2000
  -38.9020  -63.2310   49.2680 B   0  0  0  0  0  0  0  0  0  0  0  0
  -39.8960  -64.7690   49.7710 C   0  0  0  0  0  0  0  0  0  0  0  0
  -40.3130  -64.9120   51.0950 C   0  0  0  0  0  0  0  0  0  0  0  0
  -41.0230  -65.9980   51.4820 C   0  0  0  0  0  0  0  0  0  0  0  0
  -41.3240  -66.9660   50.5170 C   0  0  0  0  0  0  0  0  0  0  0  0
  -40.9160  -66.8230   49.2250 C   0  0  0  0  0  0  0  0  0  0  0  0
  -40.1920  -65.7260   48.8100 C   0  0  0  0  0  0  0  0  0  0  0  0
  -41.5070  -66.2260   52.8490 C   0  0  2  0  0  0  0  0  0  0  0  0
  -41.6040  -67.6200   53.2350 N   0  0  0  0  0  0  0  0  0  0  0  0
  -42.5110  -67.6370   54.3450 C   0  0  0  0  0  0  0  0  0  0  0  0
  -42.5810  -68.4820   55.2560 O   0  0  0  0  0  0  0  0  0  0  0  0
  -43.3620  -66.4610   54.2160 C   0  0  0  0  0  0  0  0  0  0  0  0
  -44.3070  -66.0430   54.9500 O   0  0  0  0  0  0  0  0  0  0  0  0
  -42.9240  -65.7730   53.0110 C   0  0  0  0  0  0  0  0  0  0  0  0
  -43.6400  -64.9250   52.2990 C   0  0  0  0  0  0  0  0  0  0  0  0
  -42.9870  -64.3320   51.2090 O   0  0  0  0  0  0  0  0  0  0  0  0
  -45.0290  -64.5770   52.5570 C   0  0  0  0  0  0  0  0  0  0  0  0
  -46.0610  -65.4120   52.7440 N   0  0  0  0  0  0  0  0  0  0  0  0
  -47.2020  -64.7220   53.0030 C   0  0  0  0  0  0  0  0  0  0  0  0
  -46.8340  -63.4110   52.9680 N   0  0  0  0  0  0  0  0  0  0  0  0
  -45.5450  -63.2800   52.7050 C   0  0  0  0  0  0  0  0  0  0  0  0
  -44.6930  -62.0790   52.5660 C   0  0  0  0  0  0  0  0  0  0  0  0
  -48.4230  -65.3400   53.2220 C   0  0  0  0  0  0  0  0  0  0  0  0
  -48.5120  -66.7160   53.1800 C   0  0  0  0  0  0  0  0  0  0  0  0
  -47.3400  -67.4150   52.9130 C   0  0  0  0  0  0  0  0  0  0  0  0
  -46.1580  -66.7740   52.7020 C   0  0  0  0  0  0  0  0  0  0  0  0
  -40.9230  -68.7770   52.6490 C   0  0  0  0  0  0  0  0  0  0  0  0
  -39.4630  -68.5810   52.4720 C   0  0  0  0  0  0  0  0  0  0  0  0
  -38.5560  -69.6880   52.8200 C   0  0  0  0  0  0  0  0  0  0  0  0
  -39.1230  -70.7790   53.5310 N   0  0  0  0  0  4  0  0  0  0  0  0
  -39.4430  -70.3790   54.8810 C   0  0  0  0  0  0  0  0  0  0  0  0
  -38.1180  -71.8510   53.6600 C   0  0  0  0  0  0  0  0  0  0  0  0
  -40.0460  -64.1420   51.7800 H   0  0  0  0  0  0  0  0  0  0  0  0
  -41.8900  -67.8370   50.8140 H   0  0  0  0  0  0  0  0  0  0  0  0
  -41.1480  -67.5780   48.4640 H   0  0  0  0  0  0  0  0  0  0  0  0
  -39.8610  -65.6050   47.7690 H   0  0  0  0  0  0  0  0  0  0  0  0
  -40.8990  -65.7210   53.5970 H   0  0  0  0  0  0  0  0  0  0  0  0
  -45.3810  -61.2160   52.4130 H   0  0  0  0  0  0  0  0  0  0  0  0
  -44.0820  -62.1340   51.6330 H   0  0  0  0  0  0  0  0  0  0  0  0
  -44.0660  -61.8770   53.4480 H   0  0  0  0  0  0  0  0  0  0  0  0
  -49.3000  -64.7420   53.4250 H   0  0  0  0  0  0  0  0  0  0  0  0
  -49.4330  -67.2590   53.3430 H   0  0  0  0  0  0  0  0  0  0  0  0
  -47.3840  -68.5090   52.8740 H   0  0  0  0  0  0  0  0  0  0  0  0
  -45.2230  -67.3070   52.4810 H   0  0  0  0  0  0  0  0  0  0  0  0
  -41.1930  -69.6990   53.2090 H   0  0  0  0  0  0  0  0  0  0  0  0
  -41.3510  -68.9220   51.6380 H   0  0  0  0  0  0  0  0  0  0  0  0
  -39.2100  -68.1930   51.4520 H   0  0  0  0  0  0  0  0  0  0  0  0
  -39.1830  -67.7110   53.1430 H   0  0  0  0  0  0  0  0  0  0  0  0
  -38.1480  -70.0950   51.8530 H   0  0  0  0  0  0  0  0  0  0  0  0
  -37.6380  -69.2880   53.3420 H   0  0  0  0  0  0  0  0  0  0  0  0
  -39.9220  -71.2440   53.0470 H   0  0  0  0  0  0  0  0  0  0  0  0
  -38.8910  -70.9540   55.6540 H   0  0  0  0  0  0  0  0  0  0  0  0
  -39.1500  -69.3180   54.9990 H   0  0  0  0  0  0  0  0  0  0  0  0
  -40.5250  -70.4240   55.1010 H   0  0  0  0  0  0  0  0  0  0  0  0
  -37.8510  -72.2520   52.6550 H   0  0  0  0  0  0  0  0  0  0  0  0
  -37.2270  -71.4590   54.2080 H   0  0  0  0  0  0  0  0  0  0  0  0
  -38.5180  -72.7060   54.2350 H   0  0  0  0  0  0  0  0  0  0  0  0
  1  2  1  0  0  0  0
  2  3  1  0  0  0  0
  3  4  2  0  0  0  0
  3 33  1  0  0  0  0
  4  8  1  0  0  0  0
  5 34  1  0  0  0  0
  5  4  1  0  0  0  0
  6  5  2  0  0  0  0
  7  6  1  0  0  0  0
  7  2  2  0  0  0  0
  8 14  1  0  0  0  0
  8  9  1  0  0  0  0
  8 37  1  1  0  0  0
  9 10  1  0  0  0  0
 10 11  2  0  0  0  0
 12 10  1  0  0  0  0
 12 13  2  0  0  0  0
 14 12  1  0  0  0  0
 15 17  1  0  0  0  0
 15 14  2  0  0  0  0
 16 15  1  0  0  0  0
 17 21  2  0  0  0  0
 17 18  1  0  0  0  0
 18 19  1  0  0  0  0
 19 23  1  0  0  0  0
 20 19  2  0  0  0  0
 21 20  1  0  0  0  0
 22 21  1  0  0  0  0
 22 40  1  0  0  0  0
 23 41  1  0  0  0  0
 24 23  2  0  0  0  0
 24 42  1  0  0  0  0
 25 24  1  0  0  0  0
 26 18  1  0  0  0  0
 26 25  2  0  0  0  0
 27 45  1  0  0  0  0
 27  9  1  0  0  0  0
 28 27  1  0  0  0  0
 28 29  1  0  0  0  0
 28 48  1  0  0  0  0
 29 50  1  0  0  0  0
 29 30  1  0  0  0  0
 30 32  1  0  0  0  0
 30 31  1  0  0  0  0
 31 53  1  0  0  0  0
 31 54  1  0  0  0  0
 31 52  1  0  0  0  0
 32 56  1  0  0  0  0
 32 57  1  0  0  0  0
 35  6  1  0  0  0  0
 36  7  1  0  0  0  0
 38 22  1  0  0  0  0
 39 22  1  0  0  0  0
 43 25  1  0  0  0  0
 44 26  1  0  0  0  0
 46 27  1  0  0  0  0
 47 28  1  0  0  0  0
 49 29  1  0  0  0  0
 51 30  1  0  0  0  0
 55 32  1  0  0  0  0
M  END
>  <Pose>
1

>  <Score>
-5.34

$$$$
