
 OpenBabel03202209423D

 58 61  0  0  1  0  0  0  0  0999 V2000
  -42.2320  -62.6680   46.7200 B   0  0  0  0  0  0  0  0  0  0  0  0
  -40.5010  -63.3980   47.1410 C   0  0  0  0  0  0  0  0  0  0  0  0
  -40.3210  -64.1400   48.2720 C   0  0  0  0  0  0  0  0  0  0  0  0
  -39.0940  -64.6970   48.6380 C   0  0  0  0  0  0  0  0  0  0  0  0
  -38.0540  -64.4450   47.7700 C   0  0  0  0  0  0  0  0  0  0  0  0
  -38.2260  -63.6890   46.6130 C   0  0  0  0  0  0  0  0  0  0  0  0
  -39.4500  -63.1680   46.3040 C   0  0  0  0  0  0  0  0  0  0  0  0
  -38.9480  -65.5010   49.8770 C   0  0  2  0  0  0  0  0  0  0  0  0
  -38.5440  -66.8710   49.6310 N   0  0  0  0  0  0  0  0  0  0  0  0
  -39.7620  -67.5910   49.3420 C   0  0  0  0  0  0  0  0  0  0  0  0
  -39.8380  -68.6670   48.7020 O   0  0  0  0  0  0  0  0  0  0  0  0
  -40.8570  -66.8200   49.9400 C   0  0  0  0  0  0  0  0  0  0  0  0
  -42.0880  -67.0770   49.9350 O   0  0  0  0  0  0  0  0  0  0  0  0
  -40.2770  -65.6450   50.5800 C   0  0  0  0  0  0  0  0  0  0  0  0
  -40.8100  -64.8940   51.5290 C   0  0  0  0  0  0  0  0  0  0  0  0
  -40.1140  -63.8070   51.9950 O   0  0  0  0  0  0  0  0  0  0  0  0
  -42.1340  -65.2030   52.0990 C   0  0  0  0  0  0  0  0  0  0  0  0
  -43.2240  -64.5100   51.9050 O   0  0  0  0  0  0  0  0  0  0  0  0
  -44.2570  -64.9870   52.5150 C   0  0  0  0  0  0  0  0  0  0  0  0
  -43.8360  -66.1070   53.1900 C   0  0  0  0  0  0  0  0  0  0  0  0
  -42.4890  -66.2420   52.9250 C   0  0  0  0  0  0  0  0  0  0  0  0
  -44.7620  -66.8070   53.9310 C   0  0  0  0  0  0  0  0  0  0  0  0
  -46.0820  -66.4100   54.0070 C   0  0  0  0  0  0  0  0  0  0  0  0
  -46.4660  -65.2640   53.3040 C   0  0  0  0  0  0  0  0  0  0  0  0
  -45.5720  -64.5420   52.5560 C   0  0  0  0  0  0  0  0  0  0  0  0
  -45.9900  -63.4240   51.8790 O   0  0  0  0  0  0  0  0  0  0  0  0
  -46.0310  -63.2500   50.4990 C   0  0  0  0  0  0  0  0  0  0  0  0
  -37.2150  -67.4330   49.6370 C   0  0  0  0  0  0  0  0  0  0  0  0
  -36.3380  -66.7940   48.5880 C   0  0  0  0  0  0  0  0  0  0  0  0
  -36.3490  -67.4640   47.2610 C   0  0  0  0  0  0  0  0  0  0  0  0
  -35.8280  -66.6820   46.1840 N   0  0  0  0  0  4  0  0  0  0  0  0
  -34.6830  -67.3540   45.5640 C   0  0  0  0  0  0  0  0  0  0  0  0
  -35.4470  -65.3630   46.5860 C   0  0  0  0  0  0  0  0  0  0  0  0
  -41.1400  -64.3360   48.9520 H   0  0  0  0  0  0  0  0  0  0  0  0
  -37.0790  -64.8150   47.9410 H   0  0  0  0  0  0  0  0  0  0  0  0
  -37.4090  -63.4890   45.9300 H   0  0  0  0  0  0  0  0  0  0  0  0
  -39.6410  -62.5680   45.4150 H   0  0  0  0  0  0  0  0  0  0  0  0
  -38.2060  -64.9650   50.5030 H   0  0  0  0  0  0  0  0  0  0  0  0
  -41.8380  -67.0140   53.2930 H   0  0  0  0  0  0  0  0  0  0  0  0
  -44.4230  -67.6860   54.4590 H   0  0  0  0  0  0  0  0  0  0  0  0
  -46.7930  -66.9720   54.5950 H   0  0  0  0  0  0  0  0  0  0  0  0
  -47.5270  -64.9960   53.4010 H   0  0  0  0  0  0  0  0  0  0  0  0
  -45.2150  -63.7490   49.9430 H   0  0  0  0  0  0  0  0  0  0  0  0
  -46.0740  -62.1760   50.1970 H   0  0  0  0  0  0  0  0  0  0  0  0
  -46.9720  -63.7160   50.1250 H   0  0  0  0  0  0  0  0  0  0  0  0
  -36.7540  -67.2790   50.6330 H   0  0  0  0  0  0  0  0  0  0  0  0
  -37.3090  -68.5090   49.3810 H   0  0  0  0  0  0  0  0  0  0  0  0
  -36.6520  -65.7140   48.4490 H   0  0  0  0  0  0  0  0  0  0  0  0
  -35.2910  -66.6930   48.9980 H   0  0  0  0  0  0  0  0  0  0  0  0
  -37.4080  -67.7640   47.0610 H   0  0  0  0  0  0  0  0  0  0  0  0
  -35.7550  -68.4100   47.3360 H   0  0  0  0  0  0  0  0  0  0  0  0
  -36.5220  -66.5760   45.3890 H   0  0  0  0  0  0  0  0  0  0  0  0
  -34.5330  -66.9190   44.5600 H   0  0  0  0  0  0  0  0  0  0  0  0
  -33.7830  -67.3120   46.1980 H   0  0  0  0  0  0  0  0  0  0  0  0
  -34.9150  -68.4500   45.4500 H   0  0  0  0  0  0  0  0  0  0  0  0
  -36.3370  -64.8260   46.9700 H   0  0  0  0  0  0  0  0  0  0  0  0
  -34.6770  -65.3870   47.3830 H   0  0  0  0  0  0  0  0  0  0  0  0
  -35.0070  -64.8350   45.6990 H   0  0  0  0  0  0  0  0  0  0  0  0
  1  2  1  0  0  0  0
  2  3  1  0  0  0  0
  3  4  2  0  0  0  0
  3 34  1  0  0  0  0
  4  8  1  0  0  0  0
  5 35  1  0  0  0  0
  5  4  1  0  0  0  0
  6  5  2  0  0  0  0
  7  6  1  0  0  0  0
  7  2  2  0  0  0  0
  8 38  1  1  0  0  0
  8 14  1  0  0  0  0
  9 28  1  0  0  0  0
  9  8  1  0  0  0  0
 10  9  1  0  0  0  0
 10 12  1  0  0  0  0
 11 10  2  0  0  0  0
 12 14  1  0  0  0  0
 13 12  2  0  0  0  0
 14 15  2  0  0  0  0
 15 16  1  0  0  0  0
 15 17  1  0  0  0  0
 17 21  2  0  0  0  0
 18 17  1  0  0  0  0
 18 19  1  0  0  0  0
 19 25  2  0  0  0  0
 19 20  1  0  0  0  0
 20 22  2  0  0  0  0
 21 20  1  0  0  0  0
 21 39  1  0  0  0  0
 22 23  1  0  0  0  0
 22 40  1  0  0  0  0
 23 41  1  0  0  0  0
 24 42  1  0  0  0  0
 24 23  2  0  0  0  0
 25 24  1  0  0  0  0
 26 25  1  0  0  0  0
 27 26  1  0  0  0  0
 28 46  1  0  0  0  0
 29 49  1  0  0  0  0
 29 28  1  0  0  0  0
 30 51  1  0  0  0  0
 30 29  1  0  0  0  0
 31 33  1  0  0  0  0
 31 30  1  0  0  0  0
 32 31  1  0  0  0  0
 32 54  1  0  0  0  0
 33 56  1  0  0  0  0
 33 57  1  0  0  0  0
 36  6  1  0  0  0  0
 37  7  1  0  0  0  0
 43 27  1  0  0  0  0
 44 27  1  0  0  0  0
 45 27  1  0  0  0  0
 47 28  1  0  0  0  0
 48 29  1  0  0  0  0
 50 30  1  0  0  0  0
 52 31  1  0  0  0  0
 53 32  1  0  0  0  0
 55 32  1  0  0  0  0
 58 33  1  0  0  0  0
M  END
>  <Pose>
1

>  <Score>
-5.57

$$$$
