
 OpenBabel03202209423D

 38 41  0  0  0  0  0  0  0  0999 V2000
  -38.1970  -68.9660   51.3010 B   0  0  0  0  0  0  0  0  0  0  0  0
  -39.2920  -69.2140   52.8420 C   0  0  0  0  0  0  0  0  0  0  0  0
  -40.4600  -68.4650   53.0210 C   0  0  0  0  0  0  0  0  0  0  0  0
  -41.2470  -68.6450   54.1310 C   0  0  0  0  0  0  0  0  0  0  0  0
  -40.8520  -69.5840   55.0590 C   0  0  0  0  0  0  0  0  0  0  0  0
  -39.6860  -70.3410   54.8910 C   0  0  0  0  0  0  0  0  0  0  0  0
  -38.9050  -70.1510   53.7740 C   0  0  0  0  0  0  0  0  0  0  0  0
  -42.4520  -67.9020   54.3620 N   0  0  0  0  0  0  0  0  0  0  0  0
  -42.6340  -66.8120   55.0580 N   0  0  0  0  0  0  0  0  0  0  0  0
  -43.9030  -66.4410   55.0230 N   0  0  0  0  0  0  0  0  0  0  0  0
  -44.5850  -67.3340   54.2650 C   0  0  0  0  0  0  0  0  0  0  0  0
  -43.6460  -68.2530   53.8550 C   0  0  0  0  0  0  0  0  0  0  0  0
  -46.0070  -67.3340   53.9440 C   0  0  0  0  0  0  0  0  0  0  0  0
  -46.3830  -67.9470   52.9140 O   0  0  0  0  0  0  0  0  0  0  0  0
  -46.9710  -66.6800   54.7370 N   0  0  0  0  0  0  0  0  0  0  0  0
  -48.3100  -66.3560   54.2970 C   0  0  0  0  0  0  0  0  0  0  0  0
  -49.1900  -67.5760   54.2980 C   0  0  0  0  0  0  0  0  0  0  0  0
  -49.6170  -68.3000   55.3600 N   0  0  0  0  0  0  0  0  0  0  0  0
  -50.3870  -69.3070   54.9330 C   0  0  0  0  0  0  0  0  0  0  0  0
  -50.4290  -69.1960   53.5840 N   0  0  0  0  0  0  0  0  0  0  0  0
  -49.7120  -68.1570   53.2040 N   0  0  0  0  0  0  0  0  0  0  0  0
  -50.8820  -70.1390   56.0890 C   0  0  0  0  0  0  0  0  0  0  0  0
  -49.9150  -69.7200   57.1770 C   0  0  0  0  0  0  0  0  0  0  0  0
  -49.4870  -68.3130   56.8070 C   0  0  0  0  0  0  0  0  0  0  0  0
  -40.7680  -67.7300   52.2940 H   0  0  0  0  0  0  0  0  0  0  0  0
  -41.4650  -69.7320   55.9340 H   0  0  0  0  0  0  0  0  0  0  0  0
  -39.3810  -71.0830   55.6330 H   0  0  0  0  0  0  0  0  0  0  0  0
  -38.0020  -70.7330   53.6390 H   0  0  0  0  0  0  0  0  0  0  0  0
  -43.8520  -69.1130   53.2270 H   0  0  0  0  0  0  0  0  0  0  0  0
  -46.7000  -66.4090   55.7090 H   0  0  0  0  0  0  0  0  0  0  0  0
  -48.7480  -65.5560   54.9220 H   0  0  0  0  0  0  0  0  0  0  0  0
  -48.2670  -66.0250   53.2180 H   0  0  0  0  0  0  0  0  0  0  0  0
  -50.8310  -71.2030   55.8460 H   0  0  0  0  0  0  0  0  0  0  0  0
  -51.9040  -69.7960   56.3870 H   0  0  0  0  0  0  0  0  0  0  0  0
  -50.3990  -69.6480   58.1700 H   0  0  0  0  0  0  0  0  0  0  0  0
  -49.0700  -70.4390   57.1520 H   0  0  0  0  0  0  0  0  0  0  0  0
  -50.0940  -67.5480   57.3170 H   0  0  0  0  0  0  0  0  0  0  0  0
  -48.4380  -68.1890   57.1450 H   0  0  0  0  0  0  0  0  0  0  0  0
  1  2  1  0  0  0  0
  2  3  2  0  0  0  0
  2  7  1  0  0  0  0
  3  4  1  0  0  0  0
  4  8  1  0  0  0  0
  4  5  2  0  0  0  0
  5 26  1  0  0  0  0
  6  5  1  0  0  0  0
  6 27  1  0  0  0  0
  7  6  2  0  0  0  0
  8  9  1  0  0  0  0
 10  9  2  0  0  0  0
 11 10  1  0  0  0  0
 12 11  2  0  0  0  0
 12  8  1  0  0  0  0
 13 11  1  0  0  0  0
 13 15  1  0  0  0  0
 14 13  2  0  0  0  0
 15 30  1  0  0  0  0
 16 17  1  0  0  0  0
 16 15  1  0  0  0  0
 16 31  1  0  0  0  0
 17 18  1  0  0  0  0
 18 24  1  0  0  0  0
 19 18  1  0  0  0  0
 19 22  1  0  0  0  0
 20 19  2  0  0  0  0
 21 20  1  0  0  0  0
 21 17  2  0  0  0  0
 22 34  1  0  0  0  0
 22 23  1  0  0  0  0
 23 35  1  0  0  0  0
 24 38  1  0  0  0  0
 24 23  1  0  0  0  0
 24 37  1  0  0  0  0
 25  3  1  0  0  0  0
 28  7  1  0  0  0  0
 29 12  1  0  0  0  0
 32 16  1  0  0  0  0
 33 22  1  0  0  0  0
 36 23  1  0  0  0  0
M  END
>  <Pose>
1

>  <Score>
-5.86

$$$$
