
 OpenBabel03202209423D

 52 55  0  0  1  0  0  0  0  0999 V2000
  -49.9280  -64.5000   53.8230 B   0  0  0  0  0  0  0  0  0  0  0  0
  -48.6110  -65.8540   53.8450 C   0  0  0  0  0  0  0  0  0  0  0  0
  -47.2840  -65.5160   53.6030 C   0  0  0  0  0  0  0  0  0  0  0  0
  -46.2660  -66.4510   53.6030 C   0  0  0  0  0  0  0  0  0  0  0  0
  -46.6440  -67.7500   53.8600 C   0  0  0  0  0  0  0  0  0  0  0  0
  -47.9390  -68.1550   54.1090 C   0  0  0  0  0  0  0  0  0  0  0  0
  -48.9220  -67.1890   54.0990 C   0  0  0  0  0  0  0  0  0  0  0  0
  -44.9350  -66.0420   53.3560 N   0  0  0  0  0  0  0  0  0  0  0  0
  -44.3140  -65.9910   52.0410 C   0  0  0  0  0  0  0  0  0  0  0  0
  -43.7010  -64.5820   52.1830 C   0  0  1  0  0  0  0  0  0  0  0  0
  -42.8630  -64.8660   53.4340 C   0  0  0  0  0  0  0  0  0  0  0  0
  -43.8990  -65.5910   54.2210 C   0  0  0  0  0  0  0  0  0  0  0  0
  -43.8650  -65.7770   55.4590 O   0  0  0  0  0  0  0  0  0  0  0  0
  -42.9200  -64.2010   51.0230 C   0  0  0  0  0  0  0  0  0  0  0  0
  -43.3530  -63.2760   50.2910 O   0  0  0  0  0  0  0  0  0  0  0  0
  -41.7060  -64.8640   50.7430 N   0  0  0  0  0  0  0  0  0  0  0  0
  -41.5700  -65.8820   49.7110 C   0  0  0  0  0  0  0  0  0  0  0  0
  -40.4470  -66.8340   50.1050 C   0  0  0  0  0  0  0  0  0  0  0  0
  -40.2550  -66.9130   51.5390 N   0  0  0  0  0  0  0  0  0  0  0  0
  -39.7450  -65.6740   52.0120 C   0  0  0  0  0  0  0  0  0  0  0  0
  -40.5320  -64.4970   51.5460 C   0  0  0  0  0  0  0  0  0  0  0  0
  -41.3850  -67.4500   52.2100 C   0  0  0  0  0  0  0  0  0  0  0  0
  -41.1590  -67.7220   53.6760 C   0  0  0  0  0  0  0  0  0  0  0  0
  -40.4160  -68.9200   53.9410 N   0  0  0  0  0  0  0  0  0  0  0  0
  -40.4970  -69.7320   54.9970 C   0  0  0  0  0  0  0  0  0  0  0  0
  -39.6150  -70.7440   54.8560 N   0  0  0  0  0  0  0  0  0  0  0  0
  -38.9660  -70.5750   53.6990 C   0  0  0  0  0  0  0  0  0  0  0  0
  -39.4750  -69.4290   53.1340 C   0  0  0  0  0  0  0  0  0  0  0  0
  -47.0230  -64.4900   53.4050 H   0  0  0  0  0  0  0  0  0  0  0  0
  -45.8780  -68.5080   53.8680 H   0  0  0  0  0  0  0  0  0  0  0  0
  -48.2210  -69.1800   54.3100 H   0  0  0  0  0  0  0  0  0  0  0  0
  -49.9600  -67.4530   54.2900 H   0  0  0  0  0  0  0  0  0  0  0  0
  -45.0530  -66.0070   51.2200 H   0  0  0  0  0  0  0  0  0  0  0  0
  -43.5310  -66.7540   51.9710 H   0  0  0  0  0  0  0  0  0  0  0  0
  -44.5400  -63.9370   52.4510 H   0  0  0  0  0  0  0  0  0  0  0  0
  -41.9980  -65.5000   53.1710 H   0  0  0  0  0  0  0  0  0  0  0  0
  -42.5540  -63.9270   53.9230 H   0  0  0  0  0  0  0  0  0  0  0  0
  -41.3320  -65.3520   48.7680 H   0  0  0  0  0  0  0  0  0  0  0  0
  -42.4610  -66.4850   49.5460 H   0  0  0  0  0  0  0  0  0  0  0  0
  -39.5270  -66.4680   49.6500 H   0  0  0  0  0  0  0  0  0  0  0  0
  -40.6210  -67.8600   49.7150 H   0  0  0  0  0  0  0  0  0  0  0  0
  -39.6790  -65.6840   53.1270 H   0  0  0  0  0  0  0  0  0  0  0  0
  -38.6880  -65.5980   51.6300 H   0  0  0  0  0  0  0  0  0  0  0  0
  -40.8400  -63.8880   52.4240 H   0  0  0  0  0  0  0  0  0  0  0  0
  -39.8670  -63.8530   50.8980 H   0  0  0  0  0  0  0  0  0  0  0  0
  -42.2750  -66.7750   52.1630 H   0  0  0  0  0  0  0  0  0  0  0  0
  -41.7130  -68.4170   51.7240 H   0  0  0  0  0  0  0  0  0  0  0  0
  -40.6940  -66.8220   54.1570 H   0  0  0  0  0  0  0  0  0  0  0  0
  -42.1860  -67.7780   54.1430 H   0  0  0  0  0  0  0  0  0  0  0  0
  -41.1480  -69.6380   55.8450 H   0  0  0  0  0  0  0  0  0  0  0  0
  -38.1850  -71.2370   53.3070 H   0  0  0  0  0  0  0  0  0  0  0  0
  -39.1220  -69.0480   52.1730 H   0  0  0  0  0  0  0  0  0  0  0  0
  1  2  1  0  0  0  0
  2  7  1  0  0  0  0
  3  4  1  0  0  0  0
  3  2  2  0  0  0  0
  4  5  2  0  0  0  0
  5 30  1  0  0  0  0
  5  6  1  0  0  0  0
  6 31  1  0  0  0  0
  7  6  2  0  0  0  0
  7 32  1  0  0  0  0
  8  4  1  0  0  0  0
  8 12  1  0  0  0  0
  9 10  1  0  0  0  0
  9  8  1  0  0  0  0
 10 35  1  1  0  0  0
 10 11  1  0  0  0  0
 11 37  1  0  0  0  0
 11 12  1  0  0  0  0
 12 13  2  0  0  0  0
 14 10  1  0  0  0  0
 15 14  2  0  0  0  0
 16 14  1  0  0  0  0
 16 21  1  0  0  0  0
 17 18  1  0  0  0  0
 17 16  1  0  0  0  0
 18 19  1  0  0  0  0
 19 20  1  0  0  0  0
 19 22  1  0  0  0  0
 20 42  1  0  0  0  0
 21 20  1  0  0  0  0
 21 44  1  0  0  0  0
 22 23  1  0  0  0  0
 23 24  1  0  0  0  0
 23 49  1  0  0  0  0
 23 48  1  0  0  0  0
 24 25  1  0  0  0  0
 25 50  1  0  0  0  0
 26 25  2  0  0  0  0
 27 26  1  0  0  0  0
 28 27  2  0  0  0  0
 28 24  1  0  0  0  0
 29  3  1  0  0  0  0
 33  9  1  0  0  0  0
 34  9  1  0  0  0  0
 36 11  1  0  0  0  0
 38 17  1  0  0  0  0
 39 17  1  0  0  0  0
 40 18  1  0  0  0  0
 41 18  1  0  0  0  0
 43 20  1  0  0  0  0
 45 21  1  0  0  0  0
 46 22  1  0  0  0  0
 47 22  1  0  0  0  0
 51 27  1  0  0  0  0
 52 28  1  0  0  0  0
M  END
>  <Pose>
1

>  <Score>
-5.63

$$$$
