
 OpenBabel03202209423D

 45 48  0  0  1  0  0  0  0  0999 V2000
  -43.2710  -66.4560   54.4550 B   0  0  0  0  0  0  0  0  0  0  0  0
  -44.9320  -66.1340   53.5710 C   0  0  0  0  0  0  0  0  0  0  0  0
  -45.0320  -65.2890   52.5000 C   0  0  0  0  0  0  0  0  0  0  0  0
  -46.2420  -65.0330   51.8300 C   0  0  0  0  0  0  0  0  0  0  0  0
  -47.3590  -65.7200   52.3490 C   0  0  0  0  0  0  0  0  0  0  0  0
  -47.2620  -66.5690   53.4240 C   0  0  0  0  0  0  0  0  0  0  0  0
  -46.0450  -66.7790   54.0400 C   0  0  0  0  0  0  0  0  0  0  0  0
  -46.2680  -64.2310   50.8310 O   0  0  0  0  0  0  0  0  0  0  0  0
  -46.2230  -63.3720   49.8650 C   0  0  0  0  0  0  0  0  0  0  0  0
  -44.7920  -62.8770   49.6040 C   0  0  0  0  0  0  0  0  0  0  0  0
  -44.2340  -63.5380   48.4630 N   0  0  0  0  0  0  0  0  0  0  0  0
  -43.0720  -63.0670   47.7930 C   0  0  0  0  0  0  0  0  0  0  0  0
  -43.2040  -62.9100   46.5290 O   0  0  0  0  0  0  0  0  0  0  0  0
  -41.7810  -62.7640   48.4440 C   0  0  0  0  0  0  0  0  0  0  0  0
  -41.1830  -63.8720   49.1360 N   0  0  0  0  0  0  0  0  0  0  0  0
  -40.2430  -64.7520   48.4980 C   0  0  0  0  0  0  0  0  0  0  0  0
  -40.0370  -64.8960   47.2670 O   0  0  0  0  0  0  0  0  0  0  0  0
  -39.5360  -65.4840   49.5490 C   0  0  1  0  0  0  0  0  0  0  0  0
  -40.1010  -64.9900   50.8960 C   0  0  2  0  0  0  0  0  0  0  0  0
  -40.4490  -66.2100   51.6730 C   0  0  2  0  0  0  0  0  0  0  0  0
  -39.4360  -67.2200   51.0930 C   0  0  0  0  0  0  0  0  0  0  0  0
  -39.8710  -66.9470   49.6390 C   0  0  1  0  0  0  0  0  0  0  0  0
  -41.3560  -67.0780   49.8210 C   0  0  0  0  0  0  0  0  0  0  0  0
  -41.6820  -66.7810   51.0750 C   0  0  0  0  0  0  0  0  0  0  0  0
  -41.3540  -64.3000   50.4940 C   0  0  0  0  0  0  0  0  0  0  0  0
  -42.3760  -64.1140   51.1780 O   0  0  0  0  0  0  0  0  0  0  0  0
  -44.1450  -64.7730   52.1230 H   0  0  0  0  0  0  0  0  0  0  0  0
  -48.2870  -65.5330   51.8460 H   0  0  0  0  0  0  0  0  0  0  0  0
  -48.1210  -67.0890   53.8140 H   0  0  0  0  0  0  0  0  0  0  0  0
  -45.9850  -67.4470   54.8820 H   0  0  0  0  0  0  0  0  0  0  0  0
  -46.5250  -63.8600   48.8720 H   0  0  0  0  0  0  0  0  0  0  0  0
  -46.8950  -62.4550   49.9360 H   0  0  0  0  0  0  0  0  0  0  0  0
  -44.7690  -61.7750   49.5300 H   0  0  0  0  0  0  0  0  0  0  0  0
  -44.2410  -63.1290   50.5580 H   0  0  0  0  0  0  0  0  0  0  0  0
  -44.6950  -64.4010   48.1050 H   0  0  0  0  0  0  0  0  0  0  0  0
  -42.0050  -61.9650   49.2140 H   0  0  0  0  0  0  0  0  0  0  0  0
  -41.0590  -62.3000   47.7060 H   0  0  0  0  0  0  0  0  0  0  0  0
  -38.4280  -65.3540   49.5240 H   0  0  0  0  0  0  0  0  0  0  0  0
  -39.3900  -64.3100   51.3940 H   0  0  0  0  0  0  0  0  0  0  0  0
  -40.4270  -66.1460   52.7360 H   0  0  0  0  0  0  0  0  0  0  0  0
  -38.4060  -66.9210   51.2780 H   0  0  0  0  0  0  0  0  0  0  0  0
  -39.6900  -68.2480   51.3800 H   0  0  0  0  0  0  0  0  0  0  0  0
  -39.4290  -67.5970   48.9220 H   0  0  0  0  0  0  0  0  0  0  0  0
  -42.0940  -67.3660   49.0820 H   0  0  0  0  0  0  0  0  0  0  0  0
  -42.6010  -66.8930   51.6290 H   0  0  0  0  0  0  0  0  0  0  0  0
  2  7  1  0  0  0  0
  2  1  1  0  0  0  0
  3  2  2  0  0  0  0
  4  5  2  0  0  0  0
  4  3  1  0  0  0  0
  5  6  1  0  0  0  0
  6 29  1  0  0  0  0
  6  7  2  0  0  0  0
  7 30  1  0  0  0  0
  8  4  1  0  0  0  0
  9 32  1  0  0  0  0
  9  8  1  0  0  0  0
 10  9  1  0  0  0  0
 10 34  1  0  0  0  0
 11 10  1  0  0  0  0
 12 14  1  0  0  0  0
 12 11  1  0  0  0  0
 13 12  2  0  0  0  0
 14 15  1  0  0  0  0
 14 36  1  0  0  0  0
 15 25  1  0  0  0  0
 16 15  1  0  0  0  0
 16 18  1  0  0  0  0
 17 16  2  0  0  0  0
 18 38  1  6  0  0  0
 18 22  1  0  0  0  0
 18 19  1  0  0  0  0
 19 39  1  1  0  0  0
 19 20  1  0  0  0  0
 20 40  1  1  0  0  0
 21 41  1  0  0  0  0
 21 42  1  0  0  0  0
 21 20  1  0  0  0  0
 22 43  1  6  0  0  0
 22 23  1  0  0  0  0
 22 21  1  0  0  0  0
 23 24  2  0  0  0  0
 24 45  1  0  0  0  0
 24 20  1  0  0  0  0
 25 19  1  0  0  0  0
 25 26  2  0  0  0  0
 27  3  1  0  0  0  0
 28  5  1  0  0  0  0
 31  9  1  0  0  0  0
 33 10  1  0  0  0  0
 35 11  1  0  0  0  0
 37 14  1  0  0  0  0
 44 23  1  0  0  0  0
M  END
>  <Pose>
1

>  <Score>
-6.11

$$$$
