
 OpenBabel03202209423D

 35 38  0  0  1  0  0  0  0  0999 V2000
  -39.8900  -70.1740   54.6090 B   0  0  0  0  0  0  0  0  0  0  0  0
  -40.6730  -68.6690   53.7260 C   0  0  0  0  0  0  0  0  0  0  0  0
  -41.7160  -68.0110   54.3090 C   0  0  0  0  0  0  0  0  0  0  0  0
  -42.2920  -66.9210   53.6880 C   0  0  0  0  0  0  0  0  0  0  0  0
  -41.8260  -66.4680   52.4570 C   0  0  0  0  0  0  0  0  0  0  0  0
  -40.7730  -67.1450   51.8850 C   0  0  0  0  0  0  0  0  0  0  0  0
  -40.1940  -68.2280   52.4930 C   0  0  0  0  0  0  0  0  0  0  0  0
  -42.4520  -65.3170   51.8530 C   0  0  0  0  0  0  0  0  0  0  0  0
  -41.8870  -64.1860   52.0110 O   0  0  0  0  0  0  0  0  0  0  0  0
  -43.6480  -65.4530   51.1180 N   0  0  0  0  0  0  0  0  0  0  0  0
  -44.8320  -64.7690   51.4980 N   0  0  0  0  0  0  0  0  0  0  0  0
  -45.4910  -63.6870   50.8490 C   0  0  0  0  0  0  0  0  0  0  0  0
  -44.9560  -63.0770   49.8610 O   0  0  0  0  0  0  0  0  0  0  0  0
  -46.8090  -63.4220   51.4820 C   0  0  2  0  0  0  0  0  0  0  0  0
  -46.9220  -64.5710   52.4640 C   0  0  1  0  0  0  0  0  0  0  0  0
  -47.8070  -65.5210   51.6860 C   0  0  1  0  0  0  0  0  0  0  0  0
  -48.9090  -64.5040   51.3190 C   0  0  0  0  0  0  0  0  0  0  0  0
  -47.9340  -63.6300   50.5080 C   0  0  2  0  0  0  0  0  0  0  0  0
  -47.4610  -64.6930   49.5520 C   0  0  0  0  0  0  0  0  0  0  0  0
  -47.2680  -65.7600   50.3180 C   0  0  0  0  0  0  0  0  0  0  0  0
  -45.5620  -65.1050   52.6610 C   0  0  0  0  0  0  0  0  0  0  0  0
  -45.1610  -65.7270   53.6680 O   0  0  0  0  0  0  0  0  0  0  0  0
  -42.0980  -68.3300   55.2520 H   0  0  0  0  0  0  0  0  0  0  0  0
  -43.1220  -66.4320   54.1850 H   0  0  0  0  0  0  0  0  0  0  0  0
  -40.3910  -66.8030   50.9150 H   0  0  0  0  0  0  0  0  0  0  0  0
  -39.3660  -68.7760   52.0590 H   0  0  0  0  0  0  0  0  0  0  0  0
  -43.6780  -66.0670   50.2840 H   0  0  0  0  0  0  0  0  0  0  0  0
  -46.8360  -62.4310   51.9720 H   0  0  0  0  0  0  0  0  0  0  0  0
  -47.4220  -64.2440   53.3710 H   0  0  0  0  0  0  0  0  0  0  0  0
  -48.1690  -66.3680   52.2170 H   0  0  0  0  0  0  0  0  0  0  0  0
  -49.6690  -64.9720   50.6860 H   0  0  0  0  0  0  0  0  0  0  0  0
  -49.2790  -64.0010   52.2090 H   0  0  0  0  0  0  0  0  0  0  0  0
  -48.3790  -62.7760   50.0660 H   0  0  0  0  0  0  0  0  0  0  0  0
  -47.3410  -64.5210   48.5010 H   0  0  0  0  0  0  0  0  0  0  0  0
  -46.7860  -66.6630   49.9820 H   0  0  0  0  0  0  0  0  0  0  0  0
  2  3  1  0  0  0  0
  2  1  1  0  0  0  0
  3 23  1  0  0  0  0
  4 24  1  0  0  0  0
  4  3  2  0  0  0  0
  5  4  1  0  0  0  0
  6  5  2  0  0  0  0
  6  7  1  0  0  0  0
  7  2  2  0  0  0  0
  8  9  2  0  0  0  0
  8  5  1  0  0  0  0
 10 11  1  0  0  0  0
 10  8  1  0  0  0  0
 11 21  1  0  0  0  0
 12 14  1  0  0  0  0
 12 11  1  0  0  0  0
 13 12  2  0  0  0  0
 14 28  1  1  0  0  0
 14 15  1  0  0  0  0
 15 21  1  0  0  0  0
 15 29  1  1  0  0  0
 16 30  1  1  0  0  0
 16 15  1  0  0  0  0
 17 16  1  0  0  0  0
 17 32  1  0  0  0  0
 18 33  1  6  0  0  0
 18 17  1  0  0  0  0
 18 14  1  0  0  0  0
 19 20  2  0  0  0  0
 19 18  1  0  0  0  0
 20 16  1  0  0  0  0
 21 22  2  0  0  0  0
 25  6  1  0  0  0  0
 26  7  1  0  0  0  0
 27 10  1  0  0  0  0
 31 17  1  0  0  0  0
 34 19  1  0  0  0  0
 35 20  1  0  0  0  0
M  END
>  <Pose>
1

>  <Score>
-5.43

$$$$
