
 OpenBabel03202209423D

 49 52  0  0  1  0  0  0  0  0999 V2000
  -39.3710  -69.7690   52.7560 B   0  0  0  0  0  0  0  0  0  0  0  0
  -40.4600  -68.2750   52.2960 C   0  0  0  0  0  0  0  0  0  0  0  0
  -40.8260  -67.9800   51.0000 C   0  0  0  0  0  0  0  0  0  0  0  0
  -41.6150  -66.8940   50.6850 C   0  0  0  0  0  0  0  0  0  0  0  0
  -42.0840  -66.0340   51.6860 C   0  0  0  0  0  0  0  0  0  0  0  0
  -41.7090  -66.3430   52.9760 C   0  0  0  0  0  0  0  0  0  0  0  0
  -40.9110  -67.4400   53.2960 C   0  0  0  0  0  0  0  0  0  0  0  0
  -42.9390  -64.9160   51.3260 C   0  0  0  0  0  0  0  0  0  0  0  0
  -44.1930  -64.9030   51.6980 C   0  0  0  0  0  0  0  0  0  0  0  0
  -45.2350  -63.8600   51.4300 C   0  0  2  0  0  0  0  0  0  0  0  0
  -46.4050  -64.6980   51.1940 N   0  0  0  0  0  0  0  0  0  0  0  0
  -46.2920  -65.7510   52.1710 C   0  0  0  0  0  0  0  0  0  0  0  0
  -47.2520  -66.3980   52.6210 O   0  0  0  0  0  0  0  0  0  0  0  0
  -44.8690  -65.9000   52.5140 C   0  0  0  0  0  0  0  0  0  0  0  0
  -44.3490  -66.7050   53.3300 O   0  0  0  0  0  0  0  0  0  0  0  0
  -47.4320  -64.4960   50.2140 C   0  0  0  0  0  0  0  0  0  0  0  0
  -48.6900  -63.8940   50.8200 C   0  0  0  0  0  0  0  0  0  0  0  0
  -49.8310  -64.1110   49.8270 C   0  0  0  0  0  0  0  0  0  0  0  0
  -49.9270  -65.4990   49.4180 N   0  0  0  0  0  0  0  0  0  0  0  0
  -49.3550  -66.0800   48.3380 C   0  0  0  0  0  0  0  0  0  0  0  0
  -49.6870  -67.3820   48.3160 N   0  0  0  0  0  0  0  0  0  0  0  0
  -50.4710  -67.6630   49.3680 C   0  0  0  0  0  0  0  0  0  0  0  0
  -50.6090  -66.4690   50.0460 C   0  0  0  0  0  0  0  0  0  0  0  0
  -44.8640  -63.0360   50.2540 C   0  0  0  0  0  0  0  0  0  0  0  0
  -44.7690  -61.7070   50.4220 N   0  0  0  0  0  0  0  0  0  0  0  0
  -44.4330  -60.8670   49.4400 C   0  0  0  0  0  0  0  0  0  0  0  0
  -44.1730  -61.3950   48.1970 C   0  0  0  0  0  0  0  0  0  0  0  0
  -44.2580  -62.7500   47.9790 C   0  0  0  0  0  0  0  0  0  0  0  0
  -44.6070  -63.5700   49.0220 C   0  0  0  0  0  0  0  0  0  0  0  0
  -42.4470  -63.8310   50.5740 O   0  0  0  0  0  0  0  0  0  0  0  0
  -40.4620  -68.6480   50.2260 H   0  0  0  0  0  0  0  0  0  0  0  0
  -41.9010  -66.6640   49.6630 H   0  0  0  0  0  0  0  0  0  0  0  0
  -42.0620  -65.7200   53.7870 H   0  0  0  0  0  0  0  0  0  0  0  0
  -40.6450  -67.6360   54.3430 H   0  0  0  0  0  0  0  0  0  0  0  0
  -45.3780  -63.2070   52.3060 H   0  0  0  0  0  0  0  0  0  0  0  0
  -47.7520  -65.5080   49.8450 H   0  0  0  0  0  0  0  0  0  0  0  0
  -47.1580  -63.9000   49.3460 H   0  0  0  0  0  0  0  0  0  0  0  0
  -48.9890  -64.3790   51.7550 H   0  0  0  0  0  0  0  0  0  0  0  0
  -48.5850  -62.8010   50.9340 H   0  0  0  0  0  0  0  0  0  0  0  0
  -50.7650  -63.7800   50.3360 H   0  0  0  0  0  0  0  0  0  0  0  0
  -49.7050  -63.4310   48.9410 H   0  0  0  0  0  0  0  0  0  0  0  0
  -48.7280  -65.6010   47.5990 H   0  0  0  0  0  0  0  0  0  0  0  0
  -49.3890  -68.0940   47.5920 H   0  0  0  0  0  0  0  0  0  0  0  0
  -50.9160  -68.6040   49.6570 H   0  0  0  0  0  0  0  0  0  0  0  0
  -51.1870  -66.3230   50.9620 H   0  0  0  0  0  0  0  0  0  0  0  0
  -44.3570  -59.7840   49.5880 H   0  0  0  0  0  0  0  0  0  0  0  0
  -43.8970  -60.7160   47.3830 H   0  0  0  0  0  0  0  0  0  0  0  0
  -44.0560  -63.1760   47.0060 H   0  0  0  0  0  0  0  0  0  0  0  0
  -44.6850  -64.6520   48.9150 H   0  0  0  0  0  0  0  0  0  0  0  0
  2  1  1  0  0  0  0
  2  7  1  0  0  0  0
  3  2  2  0  0  0  0
  4  3  1  0  0  0  0
  4  5  2  0  0  0  0
  5  6  1  0  0  0  0
  6  7  2  0  0  0  0
  6 33  1  0  0  0  0
  7 34  1  0  0  0  0
  8  5  1  0  0  0  0
  8  9  2  0  0  0  0
  9 14  1  0  0  0  0
 10  9  1  0  0  0  0
 10 35  1  1  0  0  0
 11 10  1  0  0  0  0
 11 12  1  0  0  0  0
 12 14  1  0  0  0  0
 12 13  2  0  0  0  0
 14 15  2  0  0  0  0
 16 17  1  0  0  0  0
 16 11  1  0  0  0  0
 17 39  1  0  0  0  0
 17 38  1  0  0  0  0
 18 40  1  0  0  0  0
 18 17  1  0  0  0  0
 19 18  1  0  0  0  0
 19 23  1  0  0  0  0
 20 19  1  0  0  0  0
 21 20  1  0  0  0  0
 21 22  1  0  0  0  0
 22 44  1  0  0  0  0
 22 23  2  0  0  0  0
 23 45  1  0  0  0  0
 24 25  1  0  0  0  0
 24 10  1  0  0  0  0
 26 46  1  0  0  0  0
 26 25  2  0  0  0  0
 27 26  1  0  0  0  0
 28 27  2  0  0  0  0
 28 29  1  0  0  0  0
 29 24  2  0  0  0  0
 30  8  1  0  0  0  0
 31  3  1  0  0  0  0
 32  4  1  0  0  0  0
 36 16  1  0  0  0  0
 37 16  1  0  0  0  0
 41 18  1  0  0  0  0
 42 20  1  0  0  0  0
 43 21  1  0  0  0  0
 47 27  1  0  0  0  0
 48 28  1  0  0  0  0
 49 29  1  0  0  0  0
M  END
>  <Pose>
1

>  <Score>
-5.89

$$$$
