
 OpenBabel03202209423D

 55 58  0  0  1  0  0  0  0  0999 V2000
  -37.5270  -66.6080   49.1090 B   0  0  0  0  0  0  0  0  0  0  0  0
  -39.1770  -66.0040   49.8920 C   0  0  0  0  0  0  0  0  0  0  0  0
  -40.2560  -66.8580   49.8480 C   0  0  0  0  0  0  0  0  0  0  0  0
  -41.4390  -66.4520   50.3980 C   0  0  0  0  0  0  0  0  0  0  0  0
  -41.5560  -65.1970   50.9950 C   0  0  0  0  0  0  0  0  0  0  0  0
  -40.4860  -64.3650   51.0320 C   0  0  0  0  0  0  0  0  0  0  0  0
  -39.2860  -64.7620   50.4810 C   0  0  0  0  0  0  0  0  0  0  0  0
  -42.8770  -64.8610   51.4990 C   0  0  0  0  0  0  0  0  0  0  0  0
  -43.3550  -65.4280   52.5740 C   0  0  0  0  0  0  0  0  0  0  0  0
  -44.6950  -65.1770   53.2170 C   0  0  2  0  0  0  0  0  0  0  0  0
  -45.0320  -66.4400   53.7770 N   0  0  0  0  0  0  0  0  0  0  0  0
  -43.7880  -67.1020   54.1130 C   0  0  0  0  0  0  0  0  0  0  0  0
  -43.6230  -68.0540   54.9120 O   0  0  0  0  0  0  0  0  0  0  0  0
  -42.7180  -66.4660   53.3520 C   0  0  0  0  0  0  0  0  0  0  0  0
  -41.4850  -66.7960   53.3960 O   0  0  0  0  0  0  0  0  0  0  0  0
  -46.2900  -67.0940   54.0860 C   0  0  0  0  0  0  0  0  0  0  0  0
  -47.5020  -66.2220   54.0230 C   0  0  0  0  0  0  0  0  0  0  0  0
  -48.4470  -66.4890   55.0950 N   0  0  0  0  0  4  0  0  0  0  0  0
  -48.4370  -67.9100   55.4540 C   0  0  0  0  0  0  0  0  0  0  0  0
  -49.3470  -68.0120   56.6850 C   0  0  0  0  0  0  0  0  0  0  0  0
  -50.6300  -67.5980   56.4220 O   0  0  0  0  0  0  0  0  0  0  0  0
  -50.7140  -66.3390   55.8470 C   0  0  0  0  0  0  0  0  0  0  0  0
  -49.7900  -66.1930   54.6630 C   0  0  0  0  0  0  0  0  0  0  0  0
  -45.6320  -64.5720   52.2780 C   0  0  0  0  0  0  0  0  0  0  0  0
  -46.1330  -65.1640   51.1500 C   0  0  0  0  0  0  0  0  0  0  0  0
  -47.0210  -64.5290   50.3200 C   0  0  0  0  0  0  0  0  0  0  0  0
  -47.4280  -63.2560   50.6180 C   0  0  0  0  0  0  0  0  0  0  0  0
  -46.9530  -62.6030   51.7500 C   0  0  0  0  0  0  0  0  0  0  0  0
  -46.0670  -63.2670   52.5580 C   0  0  0  0  0  0  0  0  0  0  0  0
  -47.4970  -65.1980   49.1760 N   0  0  0  0  0  0  0  0  0  0  0  0
  -47.0570  -64.9540   48.0230 O   0  0  0  0  0  0  0  0  0  0  0  0
  -48.4770  -66.1510   49.3330 O   0  0  0  0  0  0  0  0  0  0  0  0
  -43.6800  -63.9070   50.8350 O   0  0  0  0  0  0  0  0  0  0  0  0
  -40.2030  -67.8500   49.3880 H   0  0  0  0  0  0  0  0  0  0  0  0
  -42.3110  -67.1300   50.3670 H   0  0  0  0  0  0  0  0  0  0  0  0
  -40.5850  -63.3640   51.4760 H   0  0  0  0  0  0  0  0  0  0  0  0
  -38.4250  -64.0910   50.5120 H   0  0  0  0  0  0  0  0  0  0  0  0
  -44.5000  -64.4850   54.0770 H   0  0  0  0  0  0  0  0  0  0  0  0
  -46.2060  -67.4680   55.1320 H   0  0  0  0  0  0  0  0  0  0  0  0
  -46.4650  -67.9700   53.4250 H   0  0  0  0  0  0  0  0  0  0  0  0
  -48.0290  -66.1620   53.0820 H   0  0  0  0  0  0  0  0  0  0  0  0
  -47.0930  -65.1610   54.1870 H   0  0  0  0  0  0  0  0  0  0  0  0
  -48.2560  -65.9820   55.9630 H   0  0  0  0  0  0  0  0  0  0  0  0
  -47.4350  -68.2420   55.7860 H   0  0  0  0  0  0  0  0  0  0  0  0
  -48.8850  -68.5430   54.6840 H   0  0  0  0  0  0  0  0  0  0  0  0
  -49.3770  -69.0290   57.0800 H   0  0  0  0  0  0  0  0  0  0  0  0
  -48.8610  -67.3580   57.4600 H   0  0  0  0  0  0  0  0  0  0  0  0
  -51.7620  -66.2610   55.4350 H   0  0  0  0  0  0  0  0  0  0  0  0
  -50.5810  -65.5120   56.5580 H   0  0  0  0  0  0  0  0  0  0  0  0
  -49.8160  -65.1440   54.3190 H   0  0  0  0  0  0  0  0  0  0  0  0
  -50.1010  -66.8870   53.8490 H   0  0  0  0  0  0  0  0  0  0  0  0
  -45.8120  -66.1590   50.9060 H   0  0  0  0  0  0  0  0  0  0  0  0
  -48.1260  -62.7000   50.0060 H   0  0  0  0  0  0  0  0  0  0  0  0
  -47.2790  -61.5870   51.9860 H   0  0  0  0  0  0  0  0  0  0  0  0
  -45.6920  -62.7480   53.4530 H   0  0  0  0  0  0  0  0  0  0  0  0
  1  2  1  0  0  0  0
  2  7  1  0  0  0  0
  3  2  2  0  0  0  0
  3  4  1  0  0  0  0
  4  5  2  0  0  0  0
  5  6  1  0  0  0  0
  5  8  1  0  0  0  0
  6 36  1  0  0  0  0
  7 37  1  0  0  0  0
  7  6  2  0  0  0  0
  8  9  2  0  0  0  0
  9 10  1  0  0  0  0
  9 14  1  0  0  0  0
 10 11  1  0  0  0  0
 10 38  1  1  0  0  0
 11 16  1  0  0  0  0
 11 12  1  0  0  0  0
 12 13  2  0  0  0  0
 14 15  2  0  0  0  0
 14 12  1  0  0  0  0
 16 39  1  0  0  0  0
 17 16  1  0  0  0  0
 17 42  1  0  0  0  0
 17 18  1  0  0  0  0
 18 19  1  0  0  0  0
 18 43  1  0  0  0  0
 19 44  1  0  0  0  0
 19 20  1  0  0  0  0
 20 46  1  0  0  0  0
 20 47  1  0  0  0  0
 21 20  1  0  0  0  0
 22 21  1  0  0  0  0
 22 49  1  0  0  0  0
 23 18  1  0  0  0  0
 23 22  1  0  0  0  0
 24 29  1  0  0  0  0
 24 10  1  0  0  0  0
 25 24  2  0  0  0  0
 26 27  2  0  0  0  0
 26 25  1  0  0  0  0
 27 28  1  0  0  0  0
 28 54  1  0  0  0  0
 28 29  2  0  0  0  0
 29 55  1  0  0  0  0
 30 32  2  0  0  0  0
 30 26  1  0  0  0  0
 31 30  2  0  0  0  0
 33  8  1  0  0  0  0
 34  3  1  0  0  0  0
 35  4  1  0  0  0  0
 40 16  1  0  0  0  0
 41 17  1  0  0  0  0
 45 19  1  0  0  0  0
 48 22  1  0  0  0  0
 50 23  1  0  0  0  0
 51 23  1  0  0  0  0
 52 25  1  0  0  0  0
 53 27  1  0  0  0  0
M  END
>  <Pose>
1

>  <Score>
-5.89

$$$$
