
 OpenBabel03202209423D

 53 56  0  0  1  0  0  0  0  0999 V2000
  -37.8810  -62.5010   46.1030 B   0  0  0  0  0  0  0  0  0  0  0  0
  -38.6360  -63.0900   47.7640 C   0  0  0  0  0  0  0  0  0  0  0  0
  -37.8820  -63.7830   48.6840 C   0  0  0  0  0  0  0  0  0  0  0  0
  -38.4350  -64.2070   49.8830 C   0  0  0  0  0  0  0  0  0  0  0  0
  -39.7510  -63.9550   50.2030 C   0  0  0  0  0  0  0  0  0  0  0  0
  -40.5020  -63.2620   49.2820 C   0  0  0  0  0  0  0  0  0  0  0  0
  -39.9510  -62.8320   48.0710 C   0  0  0  0  0  0  0  0  0  0  0  0
  -40.3170  -64.3750   51.4730 C   0  0  0  0  0  0  0  0  0  0  0  0
  -41.4080  -65.1040   51.6080 C   0  0  0  0  0  0  0  0  0  0  0  0
  -42.0870  -65.5910   52.8430 C   0  0  1  0  0  0  0  0  0  0  0  0
  -43.5100  -65.5680   52.4660 N   0  0  0  0  0  0  0  0  0  0  0  0
  -43.5280  -65.9270   51.0980 C   0  0  0  0  0  0  0  0  0  0  0  0
  -44.5060  -66.3980   50.5030 O   0  0  0  0  0  0  0  0  0  0  0  0
  -42.2170  -65.6500   50.5210 C   0  0  0  0  0  0  0  0  0  0  0  0
  -41.7870  -65.8170   49.3530 O   0  0  0  0  0  0  0  0  0  0  0  0
  -44.5400  -65.2430   53.3840 C   0  0  0  0  0  0  0  0  0  0  0  0
  -45.5850  -66.2430   53.6620 C   0  0  0  0  0  0  0  0  0  0  0  0
  -46.8760  -65.7360   54.0120 N   0  0  0  0  0  4  0  0  0  0  0  0
  -47.7730  -66.6680   54.5990 C   0  0  0  0  0  0  0  0  0  0  0  0
  -48.8320  -67.0360   53.5820 C   0  0  0  0  0  0  0  0  0  0  0  0
  -48.3060  -67.1840   52.3020 O   0  0  0  0  0  0  0  0  0  0  0  0
  -47.8520  -65.9900   51.7740 C   0  0  0  0  0  0  0  0  0  0  0  0
  -47.5350  -65.0550   52.9190 C   0  0  0  0  0  0  0  0  0  0  0  0
  -41.6370  -66.9090   53.2960 C   0  0  0  0  0  0  0  0  0  0  0  0
  -40.5330  -67.5340   52.7040 C   0  0  0  0  0  0  0  0  0  0  0  0
  -40.0650  -68.7550   53.0790 C   0  0  0  0  0  0  0  0  0  0  0  0
  -40.6900  -69.4480   54.0990 C   0  0  0  0  0  0  0  0  0  0  0  0
  -41.7710  -68.8650   54.6960 C   0  0  0  0  0  0  0  0  0  0  0  0
  -42.2510  -67.6100   54.3100 C   0  0  0  0  0  0  0  0  0  0  0  0
  -39.6540  -63.9770   52.6500 O   0  0  0  0  0  0  0  0  0  0  0  0
  -36.8510  -63.9880   48.4490 H   0  0  0  0  0  0  0  0  0  0  0  0
  -37.8570  -64.7540   50.6200 H   0  0  0  0  0  0  0  0  0  0  0  0
  -41.5370  -62.9890   49.4240 H   0  0  0  0  0  0  0  0  0  0  0  0
  -40.5500  -62.2860   47.3490 H   0  0  0  0  0  0  0  0  0  0  0  0
  -41.8940  -64.8660   53.6610 H   0  0  0  0  0  0  0  0  0  0  0  0
  -44.0450  -64.9230   54.3420 H   0  0  0  0  0  0  0  0  0  0  0  0
  -45.0050  -64.2770   53.0210 H   0  0  0  0  0  0  0  0  0  0  0  0
  -45.2350  -66.8260   54.5700 H   0  0  0  0  0  0  0  0  0  0  0  0
  -45.7220  -67.0100   52.8830 H   0  0  0  0  0  0  0  0  0  0  0  0
  -46.6840  -64.9820   54.7420 H   0  0  0  0  0  0  0  0  0  0  0  0
  -47.2790  -67.5650   55.0260 H   0  0  0  0  0  0  0  0  0  0  0  0
  -48.3210  -66.1810   55.4580 H   0  0  0  0  0  0  0  0  0  0  0  0
  -49.6150  -66.2480   53.6330 H   0  0  0  0  0  0  0  0  0  0  0  0
  -49.3040  -67.9800   53.9320 H   0  0  0  0  0  0  0  0  0  0  0  0
  -48.6330  -65.5220   51.1420 H   0  0  0  0  0  0  0  0  0  0  0  0
  -46.9760  -66.1560   51.1150 H   0  0  0  0  0  0  0  0  0  0  0  0
  -46.9250  -64.1740   52.5640 H   0  0  0  0  0  0  0  0  0  0  0  0
  -48.4950  -64.6080   53.2410 H   0  0  0  0  0  0  0  0  0  0  0  0
  -40.0240  -67.0090   51.9010 H   0  0  0  0  0  0  0  0  0  0  0  0
  -39.2090  -69.1980   52.5940 H   0  0  0  0  0  0  0  0  0  0  0  0
  -40.3110  -70.4220   54.3920 H   0  0  0  0  0  0  0  0  0  0  0  0
  -42.2930  -69.3590   55.4930 H   0  0  0  0  0  0  0  0  0  0  0  0
  -43.0960  -67.2100   54.8130 H   0  0  0  0  0  0  0  0  0  0  0  0
  1  2  1  0  0  0  0
  2  7  2  0  0  0  0
  2  3  1  0  0  0  0
  3  4  2  0  0  0  0
  4  5  1  0  0  0  0
  4 32  1  0  0  0  0
  5  8  1  0  0  0  0
  6 33  1  0  0  0  0
  6  5  2  0  0  0  0
  7  6  1  0  0  0  0
  8  9  2  0  0  0  0
  8 30  1  0  0  0  0
  9 10  1  0  0  0  0
 10 24  1  0  0  0  0
 10 35  1  1  0  0  0
 11 10  1  0  0  0  0
 11 16  1  0  0  0  0
 12 11  1  0  0  0  0
 13 12  2  0  0  0  0
 14 12  1  0  0  0  0
 14  9  1  0  0  0  0
 15 14  2  0  0  0  0
 16 17  1  0  0  0  0
 16 36  1  0  0  0  0
 17 18  1  0  0  0  0
 17 38  1  0  0  0  0
 18 19  1  0  0  0  0
 18 40  1  0  0  0  0
 19 41  1  0  0  0  0
 19 42  1  0  0  0  0
 20 43  1  0  0  0  0
 20 44  1  0  0  0  0
 20 19  1  0  0  0  0
 21 20  1  0  0  0  0
 22 21  1  0  0  0  0
 22 23  1  0  0  0  0
 23 48  1  0  0  0  0
 23 18  1  0  0  0  0
 24 29  1  0  0  0  0
 25 26  1  0  0  0  0
 25 24  2  0  0  0  0
 26 27  2  0  0  0  0
 27 51  1  0  0  0  0
 27 28  1  0  0  0  0
 28 52  1  0  0  0  0
 29 28  2  0  0  0  0
 29 53  1  0  0  0  0
 31  3  1  0  0  0  0
 34  7  1  0  0  0  0
 37 16  1  0  0  0  0
 39 17  1  0  0  0  0
 45 22  1  0  0  0  0
 46 22  1  0  0  0  0
 47 23  1  0  0  0  0
 49 25  1  0  0  0  0
 50 26  1  0  0  0  0
M  END
>  <Pose>
1

>  <Score>
-5.38

$$$$
