
 OpenBabel03202209423D

 55 58  0  0  0  0  0  0  0  0999 V2000
  -32.4050  -62.7040   48.0980 B   0  0  0  0  0  0  0  0  0  0  0  0
  -34.0270  -63.6120   48.5870 C   0  0  0  0  0  0  0  0  0  0  0  0
  -33.9860  -64.8600   49.1730 C   0  0  0  0  0  0  0  0  0  0  0  0
  -35.1540  -65.5180   49.5240 C   0  0  0  0  0  0  0  0  0  0  0  0
  -36.3720  -64.9320   49.2910 C   0  0  0  0  0  0  0  0  0  0  0  0
  -36.4320  -63.6840   48.7080 C   0  0  0  0  0  0  0  0  0  0  0  0
  -35.2600  -63.0410   48.3640 C   0  0  0  0  0  0  0  0  0  0  0  0
  -37.5880  -65.6780   49.6700 C   0  0  0  0  0  0  0  0  0  0  0  0
  -38.8050  -64.9580   49.4940 N   0  0  0  0  0  0  0  0  0  0  0  0
  -39.7680  -65.5610   48.6720 C   0  0  0  0  0  0  0  0  0  0  0  0
  -41.0170  -65.9770   49.4420 C   0  0  0  0  0  0  0  0  0  0  0  0
  -40.7630  -65.7290   50.8190 N   0  0  0  0  0  0  0  0  0  0  0  0
  -40.4900  -64.3600   51.1850 C   0  0  0  0  0  0  0  0  0  0  0  0
  -39.1690  -64.0280   50.4820 C   0  0  0  0  0  0  0  0  0  0  0  0
  -40.7480  -66.7340   51.8020 C   0  0  0  0  0  0  0  0  0  0  0  0
  -41.5730  -66.8820   52.8510 N   0  0  0  0  0  0  0  0  0  0  0  0
  -41.1810  -67.9550   53.5780 C   0  0  0  0  0  0  0  0  0  0  0  0
  -40.0740  -68.5120   52.9780 C   0  0  0  0  0  0  0  0  0  0  0  0
  -39.8330  -67.7570   51.9060 N   0  0  0  0  0  0  0  0  0  0  0  0
  -39.4990  -69.5990   53.5250 N   0  0  0  0  0  0  0  0  0  0  0  0
  -39.9720  -70.1620   54.6450 C   0  0  0  0  0  0  0  0  0  0  0  0
  -39.4000  -71.1880   55.1340 O   0  0  0  0  0  0  0  0  0  0  0  0
  -41.0510  -69.6330   55.2470 N   0  0  0  0  0  0  0  0  0  0  0  0
  -41.6480  -68.5510   54.7280 C   0  0  0  0  0  0  0  0  0  0  0  0
  -42.6560  -68.0590   55.2930 O   0  0  0  0  0  0  0  0  0  0  0  0
  -38.3180  -70.1620   52.8600 C   0  0  0  0  0  0  0  0  0  0  0  0
  -42.7340  -66.1060   53.1930 C   0  0  0  0  0  0  0  0  0  0  0  0
  -43.7020  -65.9870   52.0370 C   0  0  0  0  0  0  0  0  0  0  0  0
  -45.0030  -66.3150   52.3590 O   0  0  0  0  0  0  0  0  0  0  0  0
  -45.5880  -65.1260   52.8540 C   0  0  0  0  0  0  0  0  0  0  0  0
  -33.0260  -65.3070   49.3470 H   0  0  0  0  0  0  0  0  0  0  0  0
  -35.0350  -66.4950   49.9810 H   0  0  0  0  0  0  0  0  0  0  0  0
  -37.3940  -63.1860   48.5110 H   0  0  0  0  0  0  0  0  0  0  0  0
  -35.3320  -62.0560   47.9010 H   0  0  0  0  0  0  0  0  0  0  0  0
  -37.4970  -66.1070   50.6840 H   0  0  0  0  0  0  0  0  0  0  0  0
  -37.6390  -66.5590   48.9630 H   0  0  0  0  0  0  0  0  0  0  0  0
  -39.3380  -66.5460   48.3030 H   0  0  0  0  0  0  0  0  0  0  0  0
  -40.0320  -65.0090   47.7360 H   0  0  0  0  0  0  0  0  0  0  0  0
  -41.8380  -65.3000   49.0420 H   0  0  0  0  0  0  0  0  0  0  0  0
  -41.3520  -66.9870   49.1700 H   0  0  0  0  0  0  0  0  0  0  0  0
  -40.4110  -64.2570   52.2700 H   0  0  0  0  0  0  0  0  0  0  0  0
  -41.2760  -63.6550   50.7880 H   0  0  0  0  0  0  0  0  0  0  0  0
  -38.3960  -64.0450   51.2830 H   0  0  0  0  0  0  0  0  0  0  0  0
  -39.1920  -62.9770   50.1290 H   0  0  0  0  0  0  0  0  0  0  0  0
  -41.4320  -70.0740   56.1340 H   0  0  0  0  0  0  0  0  0  0  0  0
  -37.4480  -69.5380   53.1710 H   0  0  0  0  0  0  0  0  0  0  0  0
  -38.1730  -71.2170   53.0750 H   0  0  0  0  0  0  0  0  0  0  0  0
  -38.4540  -69.9780   51.7670 H   0  0  0  0  0  0  0  0  0  0  0  0
  -43.3020  -66.5010   54.0590 H   0  0  0  0  0  0  0  0  0  0  0  0
  -42.4340  -65.0580   53.5000 H   0  0  0  0  0  0  0  0  0  0  0  0
  -43.3180  -66.5830   51.1710 H   0  0  0  0  0  0  0  0  0  0  0  0
  -43.7130  -64.9450   51.6760 H   0  0  0  0  0  0  0  0  0  0  0  0
  -45.5410  -64.3610   52.0310 H   0  0  0  0  0  0  0  0  0  0  0  0
  -45.0170  -64.6930   53.6840 H   0  0  0  0  0  0  0  0  0  0  0  0
  -46.6390  -65.3390   53.1250 H   0  0  0  0  0  0  0  0  0  0  0  0
  1  2  1  0  0  0  0
  2  3  1  0  0  0  0
  3 31  1  0  0  0  0
  3  4  2  0  0  0  0
  4 32  1  0  0  0  0
  5  4  1  0  0  0  0
  5  8  1  0  0  0  0
  6  5  2  0  0  0  0
  7  2  2  0  0  0  0
  7  6  1  0  0  0  0
  8 35  1  0  0  0  0
  9  8  1  0  0  0  0
  9 14  1  0  0  0  0
 10 11  1  0  0  0  0
 10  9  1  0  0  0  0
 11 12  1  0  0  0  0
 12 13  1  0  0  0  0
 12 15  1  0  0  0  0
 13 41  1  0  0  0  0
 14 13  1  0  0  0  0
 14 43  1  0  0  0  0
 15 19  2  0  0  0  0
 15 16  1  0  0  0  0
 16 27  1  0  0  0  0
 16 17  1  0  0  0  0
 17 24  1  0  0  0  0
 18 20  1  0  0  0  0
 18 17  2  0  0  0  0
 19 18  1  0  0  0  0
 20 21  1  0  0  0  0
 21 22  2  0  0  0  0
 21 23  1  0  0  0  0
 23 45  1  0  0  0  0
 24 23  1  0  0  0  0
 24 25  2  0  0  0  0
 26 47  1  0  0  0  0
 26 46  1  0  0  0  0
 26 20  1  0  0  0  0
 27 50  1  0  0  0  0
 27 49  1  0  0  0  0
 28 29  1  0  0  0  0
 28 27  1  0  0  0  0
 29 30  1  0  0  0  0
 30 55  1  0  0  0  0
 30 54  1  0  0  0  0
 33  6  1  0  0  0  0
 34  7  1  0  0  0  0
 36  8  1  0  0  0  0
 37 10  1  0  0  0  0
 38 10  1  0  0  0  0
 39 11  1  0  0  0  0
 40 11  1  0  0  0  0
 42 13  1  0  0  0  0
 44 14  1  0  0  0  0
 48 26  1  0  0  0  0
 51 28  1  0  0  0  0
 52 28  1  0  0  0  0
 53 30  1  0  0  0  0
M  END
>  <Pose>
1

>  <Score>
-7.89

$$$$
