
 OpenBabel03202209423D

 44 47  0  0  0  0  0  0  0  0999 V2000
  -35.5760  -66.2330   48.1530 B   0  0  0  0  0  0  0  0  0  0  0  0
  -37.3600  -65.6210   48.5220 C   0  0  0  0  0  0  0  0  0  0  0  0
  -38.4570  -66.2960   48.0370 C   0  0  0  0  0  0  0  0  0  0  0  0
  -39.7400  -65.8550   48.2990 C   0  0  0  0  0  0  0  0  0  0  0  0
  -39.9830  -64.7220   49.0580 C   0  0  0  0  0  0  0  0  0  0  0  0
  -38.8830  -64.0510   49.5420 C   0  0  0  0  0  0  0  0  0  0  0  0
  -37.5830  -64.4910   49.2790 C   0  0  0  0  0  0  0  0  0  0  0  0
  -41.3520  -64.2880   49.3180 C   0  0  0  0  0  0  0  0  0  0  0  0
  -42.0110  -64.7800   50.3740 C   0  0  0  0  0  0  0  0  0  0  0  0
  -41.4640  -65.6970   51.2560 O   0  0  0  0  0  0  0  0  0  0  0  0
  -42.3630  -66.0410   52.2620 C   0  0  0  0  0  0  0  0  0  0  0  0
  -43.5170  -65.3490   52.0490 C   0  0  0  0  0  0  0  0  0  0  0  0
  -44.5840  -65.5060   52.9090 C   0  0  0  0  0  0  0  0  0  0  0  0
  -44.4280  -66.3700   53.9610 C   0  0  0  0  0  0  0  0  0  0  0  0
  -43.2420  -67.0820   54.1820 C   0  0  0  0  0  0  0  0  0  0  0  0
  -42.1700  -66.9410   53.3370 C   0  0  0  0  0  0  0  0  0  0  0  0
  -40.8700  -67.6170   53.4370 C   0  0  0  0  0  0  0  0  0  0  0  0
  -40.8500  -68.9920   53.7540 N   0  0  0  0  0  4  0  0  0  0  0  0
  -40.2090  -69.7870   52.7280 C   0  0  0  0  0  0  0  0  0  0  0  0
  -38.7120  -69.8220   52.9770 C   0  0  0  0  0  0  0  0  0  0  0  0
  -38.4690  -70.7340   53.9920 O   0  0  0  0  0  0  0  0  0  0  0  0
  -39.5340  -70.6630   54.8970 C   0  0  0  0  0  0  0  0  0  0  0  0
  -40.0580  -69.2380   54.9720 C   0  0  0  0  0  0  0  0  0  0  0  0
  -43.1650  -67.9430   55.2780 O   0  0  0  0  0  0  0  0  0  0  0  0
  -43.3450  -64.5230   50.8460 C   0  0  0  0  0  0  0  0  0  0  0  0
  -44.1680  -63.7390   50.3090 O   0  0  0  0  0  0  0  0  0  0  0  0
  -38.2570  -67.1820   47.4430 H   0  0  0  0  0  0  0  0  0  0  0  0
  -40.6030  -66.3950   47.9110 H   0  0  0  0  0  0  0  0  0  0  0  0
  -39.0160  -63.1680   50.1360 H   0  0  0  0  0  0  0  0  0  0  0  0
  -36.7100  -63.9700   49.6530 H   0  0  0  0  0  0  0  0  0  0  0  0
  -41.8870  -63.5720   48.6970 H   0  0  0  0  0  0  0  0  0  0  0  0
  -45.5090  -64.9620   52.7550 H   0  0  0  0  0  0  0  0  0  0  0  0
  -45.2400  -66.5120   54.6500 H   0  0  0  0  0  0  0  0  0  0  0  0
  -40.2010  -67.0140   54.0960 H   0  0  0  0  0  0  0  0  0  0  0  0
  -40.4010  -67.5200   52.4080 H   0  0  0  0  0  0  0  0  0  0  0  0
  -41.7970  -69.3570   53.9860 H   0  0  0  0  0  0  0  0  0  0  0  0
  -40.6310  -70.8030   52.6150 H   0  0  0  0  0  0  0  0  0  0  0  0
  -40.3350  -69.2750   51.7510 H   0  0  0  0  0  0  0  0  0  0  0  0
  -38.3790  -68.8020   53.2410 H   0  0  0  0  0  0  0  0  0  0  0  0
  -38.2480  -70.1330   52.0040 H   0  0  0  0  0  0  0  0  0  0  0  0
  -39.1420  -71.0090   55.8710 H   0  0  0  0  0  0  0  0  0  0  0  0
  -40.3550  -71.3640   54.6130 H   0  0  0  0  0  0  0  0  0  0  0  0
  -40.7230  -69.1690   55.8590 H   0  0  0  0  0  0  0  0  0  0  0  0
  -39.2170  -68.5540   55.0810 H   0  0  0  0  0  0  0  0  0  0  0  0
  1  2  1  0  0  0  0
  2  7  1  0  0  0  0
  3  4  1  0  0  0  0
  3  2  2  0  0  0  0
  4  5  2  0  0  0  0
  5  8  1  0  0  0  0
  5  6  1  0  0  0  0
  6 29  1  0  0  0  0
  7  6  2  0  0  0  0
  7 30  1  0  0  0  0
  8  9  2  0  0  0  0
  9 25  1  0  0  0  0
  9 10  1  0  0  0  0
 10 11  1  0  0  0  0
 11 16  1  0  0  0  0
 12 11  2  0  0  0  0
 12 13  1  0  0  0  0
 13 14  2  0  0  0  0
 14 15  1  0  0  0  0
 14 33  1  0  0  0  0
 15 24  1  0  0  0  0
 16 17  1  0  0  0  0
 16 15  2  0  0  0  0
 17 18  1  0  0  0  0
 17 34  1  0  0  0  0
 18 36  1  0  0  0  0
 18 23  1  0  0  0  0
 19 20  1  0  0  0  0
 19 18  1  0  0  0  0
 20 39  1  0  0  0  0
 20 21  1  0  0  0  0
 21 22  1  0  0  0  0
 22 23  1  0  0  0  0
 22 41  1  0  0  0  0
 23 44  1  0  0  0  0
 23 43  1  0  0  0  0
 25 12  1  0  0  0  0
 26 25  2  0  0  0  0
 27  3  1  0  0  0  0
 28  4  1  0  0  0  0
 31  8  1  0  0  0  0
 32 13  1  0  0  0  0
 35 17  1  0  0  0  0
 37 19  1  0  0  0  0
 38 19  1  0  0  0  0
 40 20  1  0  0  0  0
 42 22  1  0  0  0  0
M  END
>  <Pose>
1

>  <Score>
-6.21

$$$$
