
 OpenBabel03202209423D

 42 45  0  0  0  0  0  0  0  0999 V2000
  -33.8380  -66.9810   49.5780 B   0  0  0  0  0  0  0  0  0  0  0  0
  -35.7420  -66.9410   49.7090 C   0  0  0  0  0  0  0  0  0  0  0  0
  -36.4650  -65.8430   49.2670 C   0  0  0  0  0  0  0  0  0  0  0  0
  -37.8450  -65.7920   49.3530 C   0  0  0  0  0  0  0  0  0  0  0  0
  -38.5530  -66.8480   49.8880 C   0  0  0  0  0  0  0  0  0  0  0  0
  -37.8260  -67.9350   50.3240 C   0  0  0  0  0  0  0  0  0  0  0  0
  -36.4500  -67.9970   50.2430 C   0  0  0  0  0  0  0  0  0  0  0  0
  -40.0080  -66.8170   49.9890 C   0  0  0  0  0  0  0  0  0  0  0  0
  -40.6720  -65.7570   50.2320 N   0  0  0  0  0  0  0  0  0  0  0  0
  -42.0430  -65.6730   50.3370 N   0  0  0  0  0  0  0  0  0  0  0  0
  -42.6190  -64.7100   51.2010 C   0  0  0  0  0  0  0  0  0  0  0  0
  -43.2230  -63.7310   50.7090 O   0  0  0  0  0  0  0  0  0  0  0  0
  -42.5130  -64.8470   52.6770 C   0  0  0  0  0  0  0  0  0  0  0  0
  -43.6130  -65.6240   53.2150 N   0  0  0  0  0  0  0  0  0  0  0  0
  -44.8890  -65.1380   53.1320 N   0  0  0  0  0  0  0  0  0  0  0  0
  -45.7230  -66.0150   53.7080 C   0  0  0  0  0  0  0  0  0  0  0  0
  -44.9540  -67.0170   54.1310 N   0  0  0  0  0  0  0  0  0  0  0  0
  -43.6240  -66.7800   53.8240 C   0  0  0  0  0  0  0  0  0  0  0  0
  -42.5710  -67.7130   54.1700 C   0  0  0  0  0  0  0  0  0  0  0  0
  -42.7950  -68.7880   55.0260 N   0  0  0  0  0  0  0  0  0  0  0  0
  -41.7210  -69.4640   55.1560 O   0  0  0  0  0  0  0  0  0  0  0  0
  -40.7880  -68.9410   54.4620 N   0  0  0  0  0  0  0  0  0  0  0  0
  -41.2860  -67.8360   53.8290 C   0  0  0  0  0  0  0  0  0  0  0  0
  -40.4710  -67.0730   52.9840 N   0  0  0  0  0  0  0  0  0  0  0  0
  -47.1700  -65.9040   53.8470 C   0  0  0  0  0  0  0  0  0  0  0  0
  -47.9380  -64.8680   53.4950 N   0  0  0  0  0  0  0  0  0  0  0  0
  -49.1980  -65.1470   53.7790 O   0  0  0  0  0  0  0  0  0  0  0  0
  -49.2920  -66.3330   54.3090 N   0  0  0  0  0  0  0  0  0  0  0  0
  -48.0240  -66.8430   54.3670 C   0  0  0  0  0  0  0  0  0  0  0  0
  -47.7140  -68.1260   54.8870 N   0  0  0  0  0  0  0  0  0  0  0  0
  -35.9310  -65.0170   48.8500 H   0  0  0  0  0  0  0  0  0  0  0  0
  -38.4060  -64.9190   49.0010 H   0  0  0  0  0  0  0  0  0  0  0  0
  -38.4080  -68.7640   50.7470 H   0  0  0  0  0  0  0  0  0  0  0  0
  -35.9100  -68.8850   50.6050 H   0  0  0  0  0  0  0  0  0  0  0  0
  -40.5480  -67.7420   49.8510 H   0  0  0  0  0  0  0  0  0  0  0  0
  -42.6550  -66.3320   49.7670 H   0  0  0  0  0  0  0  0  0  0  0  0
  -41.5390  -65.0270   53.0920 H   0  0  0  0  0  0  0  0  0  0  0  0
  -42.7220  -63.7650   53.0660 H   0  0  0  0  0  0  0  0  0  0  0  0
  -39.8240  -66.3640   53.4020 H   0  0  0  0  0  0  0  0  0  0  0  0
  -40.4510  -67.1620   51.9470 H   0  0  0  0  0  0  0  0  0  0  0  0
  -47.1790  -68.2080   55.7960 H   0  0  0  0  0  0  0  0  0  0  0  0
  -47.9810  -69.0170   54.4260 H   0  0  0  0  0  0  0  0  0  0  0  0
  1  2  1  0  0  0  0
  2  7  1  0  0  0  0
  3  4  1  0  0  0  0
  3  2  2  0  0  0  0
  4  5  2  0  0  0  0
  5  8  1  0  0  0  0
  5  6  1  0  0  0  0
  6 33  1  0  0  0  0
  7  6  2  0  0  0  0
  7 34  1  0  0  0  0
  8  9  2  0  0  0  0
  9 10  1  0  0  0  0
 10 11  1  0  0  0  0
 11 13  1  0  0  0  0
 12 11  2  0  0  0  0
 13 38  1  0  0  0  0
 13 37  1  0  0  0  0
 13 14  1  0  0  0  0
 14 18  1  0  0  0  0
 15 14  1  0  0  0  0
 15 16  2  0  0  0  0
 16 25  1  0  0  0  0
 16 17  1  0  0  0  0
 18 17  2  0  0  0  0
 18 19  1  0  0  0  0
 19 20  2  0  0  0  0
 20 21  1  0  0  0  0
 22 21  1  0  0  0  0
 23 19  1  0  0  0  0
 23 22  2  0  0  0  0
 24 39  1  0  0  0  0
 24 23  1  0  0  0  0
 25 29  1  0  0  0  0
 26 27  1  0  0  0  0
 26 25  2  0  0  0  0
 27 28  1  0  0  0  0
 28 29  2  0  0  0  0
 29 30  1  0  0  0  0
 30 41  1  0  0  0  0
 31  3  1  0  0  0  0
 32  4  1  0  0  0  0
 35  8  1  0  0  0  0
 36 10  1  0  0  0  0
 40 24  1  0  0  0  0
 42 30  1  0  0  0  0
M  END
>  <Pose>
1

>  <Score>
-8.45

$$$$
