
 OpenBabel03202209423D

 41 44  0  0  0  0  0  0  0  0999 V2000
  -35.7240  -67.5410   46.8450 B   0  0  0  0  0  0  0  0  0  0  0  0
  -37.1400  -67.2010   48.0560 C   0  0  0  0  0  0  0  0  0  0  0  0
  -37.0260  -67.6030   49.3710 C   0  0  0  0  0  0  0  0  0  0  0  0
  -38.0410  -67.3600   50.2430 C   0  0  0  0  0  0  0  0  0  0  0  0
  -39.2160  -66.7090   49.8600 C   0  0  0  0  0  0  0  0  0  0  0  0
  -39.2660  -66.3390   48.5410 C   0  0  0  0  0  0  0  0  0  0  0  0
  -38.2750  -66.5560   47.6170 C   0  0  0  0  0  0  0  0  0  0  0  0
  -40.2960  -66.6490   50.8260 C   0  0  0  0  0  0  0  0  0  0  0  0
  -40.6340  -67.2870   51.9390 N   0  0  0  0  0  0  0  0  0  0  0  0
  -41.7870  -66.7860   52.4470 C   0  0  0  0  0  0  0  0  0  0  0  0
  -42.1730  -65.8070   51.6080 N   0  0  0  0  0  0  0  0  0  0  0  0
  -41.3150  -65.7090   50.6460 N   0  0  0  0  0  0  0  0  0  0  0  0
  -42.1560  -67.4160   53.5690 N   0  0  0  0  0  0  0  0  0  0  0  0
  -41.2180  -68.3470   53.7750 C   0  0  0  0  0  0  0  0  0  0  0  0
  -40.2470  -68.2990   52.7650 C   0  0  0  0  0  0  0  0  0  0  0  0
  -39.2390  -69.1560   52.7430 N   0  0  0  0  0  0  0  0  0  0  0  0
  -39.1760  -70.0820   53.7490 C   0  0  0  0  0  0  0  0  0  0  0  0
  -38.2350  -70.9100   53.7680 O   0  0  0  0  0  0  0  0  0  0  0  0
  -40.0820  -70.1480   54.7320 N   0  0  0  0  0  0  0  0  0  0  0  0
  -41.1170  -69.2910   54.7680 C   0  0  0  0  0  0  0  0  0  0  0  0
  -41.9890  -69.3240   55.6750 O   0  0  0  0  0  0  0  0  0  0  0  0
  -38.2480  -69.3040   51.7090 C   0  0  0  0  0  0  0  0  0  0  0  0
  -43.3160  -67.1470   54.3890 C   0  0  0  0  0  0  0  0  0  0  0  0
  -43.5450  -65.6670   54.6070 C   0  0  0  0  0  0  0  0  0  0  0  0
  -44.8190  -65.2760   54.2120 O   0  0  0  0  0  0  0  0  0  0  0  0
  -44.7240  -64.8130   52.9000 C   0  0  0  0  0  0  0  0  0  0  0  0
  -36.1350  -68.1120   49.7230 H   0  0  0  0  0  0  0  0  0  0  0  0
  -37.9310  -67.6860   51.2800 H   0  0  0  0  0  0  0  0  0  0  0  0
  -40.1970  -65.8570   48.1850 H   0  0  0  0  0  0  0  0  0  0  0  0
  -38.3860  -66.2370   46.6060 H   0  0  0  0  0  0  0  0  0  0  0  0
  -40.0330  -70.8500   55.4990 H   0  0  0  0  0  0  0  0  0  0  0  0
  -38.6750  -69.2550   50.6950 H   0  0  0  0  0  0  0  0  0  0  0  0
  -37.3050  -68.7700   51.8840 H   0  0  0  0  0  0  0  0  0  0  0  0
  -37.8840  -70.4090   51.7210 H   0  0  0  0  0  0  0  0  0  0  0  0
  -43.2460  -67.6300   55.3550 H   0  0  0  0  0  0  0  0  0  0  0  0
  -44.1810  -67.5640   53.8240 H   0  0  0  0  0  0  0  0  0  0  0  0
  -42.8070  -65.0970   53.9870 H   0  0  0  0  0  0  0  0  0  0  0  0
  -43.3460  -65.4340   55.6540 H   0  0  0  0  0  0  0  0  0  0  0  0
  -44.3460  -65.6310   52.2360 H   0  0  0  0  0  0  0  0  0  0  0  0
  -44.0830  -63.9120   52.8080 H   0  0  0  0  0  0  0  0  0  0  0  0
  -45.7380  -64.5170   52.5130 H   0  0  0  0  0  0  0  0  0  0  0  0
  1  2  1  0  0  0  0
  2  3  1  0  0  0  0
  3 27  1  0  0  0  0
  3  4  2  0  0  0  0
  4 28  1  0  0  0  0
  5  4  1  0  0  0  0
  5  8  1  0  0  0  0
  6  5  2  0  0  0  0
  7  2  2  0  0  0  0
  7  6  1  0  0  0  0
  8  9  1  0  0  0  0
  9 10  1  0  0  0  0
  9 15  1  0  0  0  0
 10 13  1  0  0  0  0
 11 10  2  0  0  0  0
 12  8  2  0  0  0  0
 12 11  1  0  0  0  0
 13 14  1  0  0  0  0
 13 23  1  0  0  0  0
 14 20  1  0  0  0  0
 15 14  2  0  0  0  0
 16 15  1  0  0  0  0
 16 17  1  0  0  0  0
 17 18  2  0  0  0  0
 17 19  1  0  0  0  0
 19 20  1  0  0  0  0
 19 31  1  0  0  0  0
 20 21  2  0  0  0  0
 22 34  1  0  0  0  0
 22 33  1  0  0  0  0
 22 16  1  0  0  0  0
 23 24  1  0  0  0  0
 23 35  1  0  0  0  0
 24 38  1  0  0  0  0
 25 24  1  0  0  0  0
 26 25  1  0  0  0  0
 29  6  1  0  0  0  0
 30  7  1  0  0  0  0
 32 22  1  0  0  0  0
 36 23  1  0  0  0  0
 37 24  1  0  0  0  0
 39 26  1  0  0  0  0
 40 26  1  0  0  0  0
 41 26  1  0  0  0  0
M  END
>  <Pose>
1

>  <Score>
-7.46

$$$$
