
 OpenBabel03202209423D

 57 60  0  0  0  0  0  0  0  0999 V2000
  -32.6930  -65.7230   45.3920 B   0  0  0  0  0  0  0  0  0  0  0  0
  -34.0330  -66.2850   46.6350 C   0  0  0  0  0  0  0  0  0  0  0  0
  -33.9440  -65.8590   47.9280 C   0  0  0  0  0  0  0  0  0  0  0  0
  -34.9010  -66.2590   48.8350 C   0  0  0  0  0  0  0  0  0  0  0  0
  -35.9700  -67.0870   48.5030 C   0  0  0  0  0  0  0  0  0  0  0  0
  -36.0370  -67.5000   47.1980 C   0  0  0  0  0  0  0  0  0  0  0  0
  -35.0730  -67.1060   46.2550 C   0  0  0  0  0  0  0  0  0  0  0  0
  -36.9610  -67.5150   49.4540 C   0  0  0  0  0  0  0  0  0  0  0  0
  -38.2130  -66.9500   49.4670 C   0  0  0  0  0  0  0  0  0  0  0  0
  -39.1440  -67.2910   50.3370 O   0  0  0  0  0  0  0  0  0  0  0  0
  -38.9260  -68.2000   51.2530 C   0  0  0  0  0  0  0  0  0  0  0  0
  -37.7150  -68.7930   51.2920 C   0  0  0  0  0  0  0  0  0  0  0  0
  -37.4550  -69.7520   52.2470 C   0  0  0  0  0  0  0  0  0  0  0  0
  -38.4470  -70.0740   53.1370 C   0  0  0  0  0  0  0  0  0  0  0  0
  -39.7080  -69.4480   53.0870 C   0  0  0  0  0  0  0  0  0  0  0  0
  -39.9880  -68.4990   52.1510 C   0  0  0  0  0  0  0  0  0  0  0  0
  -41.2300  -67.7890   51.9620 C   0  0  0  0  0  0  0  0  0  0  0  0
  -41.8100  -66.9660   52.9430 N   0  0  0  0  0  4  0  0  0  0  0  0
  -42.4870  -67.7090   53.9450 C   0  0  0  0  0  0  0  0  0  0  0  0
  -43.6180  -67.0850   54.6640 C   0  0  0  0  0  0  0  0  0  0  0  0
  -44.1720  -65.9860   54.0000 N   0  0  0  0  0  0  0  0  0  0  0  0
  -43.3120  -65.0390   53.4360 C   0  0  0  0  0  0  0  0  0  0  0  0
  -42.2950  -65.6910   52.5530 C   0  0  0  0  0  0  0  0  0  0  0  0
  -45.5630  -65.8420   53.8950 C   0  0  0  0  0  0  0  0  0  0  0  0
  -40.5800  -69.9000   54.0630 O   0  0  0  0  0  0  0  0  0  0  0  0
  -36.6910  -68.4910   50.4150 C   0  0  0  0  0  0  0  0  0  0  0  0
  -35.5830  -69.0350   50.4530 O   0  0  0  0  0  0  0  0  0  0  0  0
  -38.5190  -65.9210   48.4610 C   0  0  0  0  0  0  0  0  0  0  0  0
  -38.8340  -66.3030   47.3060 O   0  0  0  0  0  0  0  0  0  0  0  0
  -38.4800  -64.5840   48.7110 O   0  0  0  0  0  0  0  0  0  0  0  0
  -39.6350  -63.9000   49.1340 C   0  0  0  0  0  0  0  0  0  0  0  0
  -39.9480  -64.2930   50.5510 C   0  0  0  0  0  0  0  0  0  0  0  0
  -33.1080  -65.2070   48.2120 H   0  0  0  0  0  0  0  0  0  0  0  0
  -34.8290  -65.9260   49.8400 H   0  0  0  0  0  0  0  0  0  0  0  0
  -36.8210  -68.1420   46.8290 H   0  0  0  0  0  0  0  0  0  0  0  0
  -35.1280  -67.4340   45.2330 H   0  0  0  0  0  0  0  0  0  0  0  0
  -36.4740  -70.2230   52.2640 H   0  0  0  0  0  0  0  0  0  0  0  0
  -38.2580  -70.8230   53.8850 H   0  0  0  0  0  0  0  0  0  0  0  0
  -42.0560  -68.5330   51.6290 H   0  0  0  0  0  0  0  0  0  0  0  0
  -41.1560  -67.1600   51.0100 H   0  0  0  0  0  0  0  0  0  0  0  0
  -40.8800  -66.6530   53.5200 H   0  0  0  0  0  0  0  0  0  0  0  0
  -42.8360  -68.6840   53.5010 H   0  0  0  0  0  0  0  0  0  0  0  0
  -41.7520  -68.0970   54.7420 H   0  0  0  0  0  0  0  0  0  0  0  0
  -43.3390  -66.7970   55.7310 H   0  0  0  0  0  0  0  0  0  0  0  0
  -44.4600  -67.8280   54.8480 H   0  0  0  0  0  0  0  0  0  0  0  0
  -42.7780  -64.3930   54.1880 H   0  0  0  0  0  0  0  0  0  0  0  0
  -43.9130  -64.3090   52.8350 H   0  0  0  0  0  0  0  0  0  0  0  0
  -42.6510  -65.7090   51.5050 H   0  0  0  0  0  0  0  0  0  0  0  0
  -41.4440  -64.9240   52.4910 H   0  0  0  0  0  0  0  0  0  0  0  0
  -45.8250  -65.5010   52.8720 H   0  0  0  0  0  0  0  0  0  0  0  0
  -46.0440  -66.8610   53.9750 H   0  0  0  0  0  0  0  0  0  0  0  0
  -46.0610  -65.2380   54.6790 H   0  0  0  0  0  0  0  0  0  0  0  0
  -39.5220  -62.7910   49.0270 H   0  0  0  0  0  0  0  0  0  0  0  0
  -40.5060  -64.1420   48.4540 H   0  0  0  0  0  0  0  0  0  0  0  0
  -41.0440  -64.4950   50.6890 H   0  0  0  0  0  0  0  0  0  0  0  0
  -39.3070  -65.1450   50.8380 H   0  0  0  0  0  0  0  0  0  0  0  0
  -39.6430  -63.4200   51.1870 H   0  0  0  0  0  0  0  0  0  0  0  0
  1  2  1  0  0  0  0
  2  3  1  0  0  0  0
  3 33  1  0  0  0  0
  3  4  2  0  0  0  0
  4 34  1  0  0  0  0
  5  4  1  0  0  0  0
  5  8  1  0  0  0  0
  6  5  2  0  0  0  0
  7  2  2  0  0  0  0
  7  6  1  0  0  0  0
  8  9  2  0  0  0  0
  8 26  1  0  0  0  0
  9 10  1  0  0  0  0
 10 11  1  0  0  0  0
 11 12  2  0  0  0  0
 11 16  1  0  0  0  0
 12 13  1  0  0  0  0
 13 37  1  0  0  0  0
 13 14  2  0  0  0  0
 14 38  1  0  0  0  0
 15 14  1  0  0  0  0
 15 25  1  0  0  0  0
 16 15  2  0  0  0  0
 17 16  1  0  0  0  0
 17 18  1  0  0  0  0
 18 41  1  0  0  0  0
 18 19  1  0  0  0  0
 19 20  1  0  0  0  0
 19 43  1  0  0  0  0
 20 45  1  0  0  0  0
 20 44  1  0  0  0  0
 21 20  1  0  0  0  0
 22 21  1  0  0  0  0
 22 46  1  0  0  0  0
 23 18  1  0  0  0  0
 23 22  1  0  0  0  0
 24 51  1  0  0  0  0
 24 21  1  0  0  0  0
 24 52  1  0  0  0  0
 26 27  2  0  0  0  0
 26 12  1  0  0  0  0
 28 30  1  0  0  0  0
 28  9  1  0  0  0  0
 29 28  2  0  0  0  0
 30 31  1  0  0  0  0
 31 32  1  0  0  0  0
 32 55  1  0  0  0  0
 32 56  1  0  0  0  0
 32 57  1  0  0  0  0
 35  6  1  0  0  0  0
 36  7  1  0  0  0  0
 39 17  1  0  0  0  0
 40 17  1  0  0  0  0
 42 19  1  0  0  0  0
 47 22  1  0  0  0  0
 48 23  1  0  0  0  0
 49 23  1  0  0  0  0
 50 24  1  0  0  0  0
 53 31  1  0  0  0  0
 54 31  1  0  0  0  0
M  END
>  <Pose>
1

>  <Score>
-6.57

$$$$
