
 OpenBabel03202209423D

 58 62  0  0  1  0  0  0  0  0999 V2000
  -38.8560  -70.3000   54.2950 B   0  0  0  0  0  0  0  0  0  0  0  0
  -40.3360  -69.1080   53.9820 C   0  0  0  0  0  0  0  0  0  0  0  0
  -41.4470  -69.1280   54.7680 C   0  0  0  0  0  0  0  0  0  0  0  0
  -42.4930  -68.2810   54.5430 C   0  0  0  0  0  0  0  0  0  0  0  0
  -42.4840  -67.3630   53.5110 C   0  0  0  0  0  0  0  0  0  0  0  0
  -41.3810  -67.3420   52.7280 C   0  0  0  0  0  0  0  0  0  0  0  0
  -40.2870  -68.2140   52.9490 C   0  0  0  0  0  0  0  0  0  0  0  0
  -43.6380  -66.5090   53.3330 C   0  0  0  0  0  0  0  0  0  0  0  0
  -44.9460  -66.9250   53.6330 C   0  0  0  0  0  0  0  0  0  0  0  0
  -45.7430  -65.8970   53.3690 N   0  0  0  0  0  0  0  0  0  0  0  0
  -47.0720  -65.5760   53.4220 C   0  0  0  0  0  0  0  0  0  0  0  0
  -47.1480  -64.2780   52.9840 C   0  0  0  0  0  0  0  0  0  0  0  0
  -45.9170  -63.8850   52.6970 N   0  0  0  0  0  0  0  0  0  0  0  0
  -45.0250  -64.8890   52.9330 C   0  0  1  0  0  0  0  0  0  0  0  0
  -43.7070  -65.2460   52.9000 N   0  0  0  0  0  0  0  0  0  0  0  0
  -42.6980  -64.3240   52.4760 C   0  0  0  0  0  0  0  0  0  0  0  0
  -41.3590  -64.8700   52.1840 C   0  0  0  0  0  0  0  0  0  0  0  0
  -40.8620  -64.8410   50.7830 C   0  0  0  0  0  0  0  0  0  0  0  0
  -39.9310  -63.7580   50.5600 N   0  0  0  0  0  4  0  0  0  0  0  0
  -39.8220  -63.3790   49.1820 C   0  0  0  0  0  0  0  0  0  0  0  0
  -39.6290  -64.5200   48.2230 C   0  0  0  0  0  0  0  0  0  0  0  0
  -39.0570  -63.9030   46.9380 C   0  0  0  0  0  0  0  0  0  0  0  0
  -40.0580  -62.9500   46.3830 C   0  0  0  0  0  0  0  0  0  0  0  0
  -40.5350  -61.9180   47.3790 C   0  0  0  0  0  0  0  0  0  0  0  0
  -41.0210  -62.5950   48.6650 C   0  0  0  0  0  0  0  0  0  0  0  0
  -48.3720  -63.6070   52.9050 C   0  0  0  0  0  0  0  0  0  0  0  0
  -49.5310  -64.2570   53.2710 C   0  0  0  0  0  0  0  0  0  0  0  0
  -49.4270  -65.5590   53.7060 C   0  0  0  0  0  0  0  0  0  0  0  0
  -48.2140  -66.2330   53.7890 C   0  0  0  0  0  0  0  0  0  0  0  0
  -41.5010  -69.8430   55.6050 H   0  0  0  0  0  0  0  0  0  0  0  0
  -43.3670  -68.3470   55.2230 H   0  0  0  0  0  0  0  0  0  0  0  0
  -41.2270  -66.7060   51.9030 H   0  0  0  0  0  0  0  0  0  0  0  0
  -39.4130  -68.1910   52.3220 H   0  0  0  0  0  0  0  0  0  0  0  0
  -45.2520  -67.8980   54.0070 H   0  0  0  0  0  0  0  0  0  0  0  0
  -45.6960  -62.9310   52.3540 H   0  0  0  0  0  0  0  0  0  0  0  0
  -42.6590  -63.4330   53.0950 H   0  0  0  0  0  0  0  0  0  0  0  0
  -43.0580  -63.9200   51.4430 H   0  0  0  0  0  0  0  0  0  0  0  0
  -40.6350  -64.2000   52.7610 H   0  0  0  0  0  0  0  0  0  0  0  0
  -41.1480  -65.8720   52.6710 H   0  0  0  0  0  0  0  0  0  0  0  0
  -41.6670  -64.7390   50.0260 H   0  0  0  0  0  0  0  0  0  0  0  0
  -40.2710  -65.7890   50.6350 H   0  0  0  0  0  0  0  0  0  0  0  0
  -40.0140  -62.9530   51.1760 H   0  0  0  0  0  0  0  0  0  0  0  0
  -38.9580  -64.1680   50.8100 H   0  0  0  0  0  0  0  0  0  0  0  0
  -38.9490  -62.6780   49.0210 H   0  0  0  0  0  0  0  0  0  0  0  0
  -38.9900  -65.3210   48.5930 H   0  0  0  0  0  0  0  0  0  0  0  0
  -40.6430  -64.9090   47.9210 H   0  0  0  0  0  0  0  0  0  0  0  0
  -38.0940  -63.3890   47.1860 H   0  0  0  0  0  0  0  0  0  0  0  0
  -38.8960  -64.7040   46.1950 H   0  0  0  0  0  0  0  0  0  0  0  0
  -39.5830  -62.3950   45.5490 H   0  0  0  0  0  0  0  0  0  0  0  0
  -40.9180  -63.5170   45.9830 H   0  0  0  0  0  0  0  0  0  0  0  0
  -41.3850  -61.3890   46.9200 H   0  0  0  0  0  0  0  0  0  0  0  0
  -39.7000  -61.2570   47.6200 H   0  0  0  0  0  0  0  0  0  0  0  0
  -41.8540  -63.2950   48.4000 H   0  0  0  0  0  0  0  0  0  0  0  0
  -41.2810  -61.8260   49.3900 H   0  0  0  0  0  0  0  0  0  0  0  0
  -48.4430  -62.5900   52.5630 H   0  0  0  0  0  0  0  0  0  0  0  0
  -50.5120  -63.7640   53.2230 H   0  0  0  0  0  0  0  0  0  0  0  0
  -50.3300  -66.0660   53.9920 H   0  0  0  0  0  0  0  0  0  0  0  0
  -48.1360  -67.2460   54.1280 H   0  0  0  0  0  0  0  0  0  0  0  0
  2  1  1  0  0  0  0
  2  3  1  0  0  0  0
  3 30  1  0  0  0  0
  4  3  2  0  0  0  0
  4 31  1  0  0  0  0
  5  4  1  0  0  0  0
  6  7  1  0  0  0  0
  6  5  2  0  0  0  0
  7  2  2  0  0  0  0
  8  5  1  0  0  0  0
  8  9  2  0  0  0  0
  9 34  1  0  0  0  0
 10 11  1  0  0  0  0
 10  9  1  0  0  0  0
 11 29  1  0  0  0  0
 12 11  2  0  0  0  0
 13 12  1  0  0  0  0
 14 13  1  1  0  0  0
 14 10  1  0  0  0  0
 15 14  1  0  0  0  0
 15  8  1  0  0  0  0
 16 15  1  0  0  0  0
 16 36  1  0  0  0  0
 17 16  1  0  0  0  0
 17 39  1  0  0  0  0
 17 38  1  0  0  0  0
 18 17  1  0  0  0  0
 19 18  1  0  0  0  0
 19 43  1  0  0  0  0
 19 42  1  0  0  0  0
 20 19  1  0  0  0  0
 21 45  1  0  0  0  0
 21 20  1  0  0  0  0
 22 47  1  0  0  0  0
 22 21  1  0  0  0  0
 23 22  1  0  0  0  0
 23 24  1  0  0  0  0
 24 52  1  0  0  0  0
 24 25  1  0  0  0  0
 25 20  1  0  0  0  0
 25 54  1  0  0  0  0
 26 12  1  0  0  0  0
 26 27  2  0  0  0  0
 27 28  1  0  0  0  0
 28 29  2  0  0  0  0
 28 57  1  0  0  0  0
 29 58  1  0  0  0  0
 32  6  1  0  0  0  0
 33  7  1  0  0  0  0
 35 13  1  0  0  0  0
 37 16  1  0  0  0  0
 40 18  1  0  0  0  0
 41 18  1  0  0  0  0
 44 20  1  0  0  0  0
 46 21  1  0  0  0  0
 48 22  1  0  0  0  0
 49 23  1  0  0  0  0
 50 23  1  0  0  0  0
 51 24  1  0  0  0  0
 53 25  1  0  0  0  0
 55 26  1  0  0  0  0
 56 27  1  0  0  0  0
M  END
>  <Pose>
1

>  <Score>
-6.90

$$$$
