
 OpenBabel03202209423D

 61 65  0  0  1  0  0  0  0  0999 V2000
  -44.8700  -61.0520   47.9550 B   0  0  0  0  0  0  0  0  0  0  0  0
  -44.2580  -62.4220   49.1500 C   0  0  0  0  0  0  0  0  0  0  0  0
  -43.1150  -63.1310   48.8830 C   0  0  0  0  0  0  0  0  0  0  0  0
  -42.6690  -64.1340   49.7590 C   0  0  0  0  0  0  0  0  0  0  0  0
  -43.3250  -64.4610   50.9020 C   0  0  0  0  0  0  0  0  0  0  0  0
  -44.4840  -63.7260   51.1550 C   0  0  0  0  0  0  0  0  0  0  0  0
  -44.9320  -62.7350   50.2970 C   0  0  0  0  0  0  0  0  0  0  0  0
  -42.9510  -65.5200   51.8400 C   0  0  0  0  0  0  0  0  0  0  0  0
  -41.8090  -66.3280   51.6840 C   0  0  0  0  0  0  0  0  0  0  0  0
  -41.6910  -67.1870   52.7020 N   0  0  0  0  0  0  0  0  0  0  0  0
  -40.9300  -68.1840   53.2140 C   0  0  0  0  0  0  0  0  0  0  0  0
  -41.5380  -68.5680   54.3840 C   0  0  0  0  0  0  0  0  0  0  0  0
  -42.6490  -67.7980   54.5520 N   0  0  0  0  0  0  0  0  0  0  0  0
  -42.7250  -66.9550   53.5060 C   0  0  1  0  0  0  0  0  0  0  0  0
  -43.4980  -65.9360   52.9840 N   0  0  0  0  0  0  0  0  0  0  0  0
  -44.6850  -65.4390   53.6450 C   0  0  0  0  0  0  0  0  0  0  0  0
  -45.6430  -66.5210   54.0830 C   0  0  0  0  0  0  0  0  0  0  0  0
  -46.4690  -67.0220   52.9250 C   0  0  0  0  0  0  0  0  0  0  0  0
  -47.5120  -67.9440   53.2800 N   0  0  0  0  0  0  0  0  0  0  0  0
  -48.7040  -67.4840   52.5850 C   0  0  0  0  0  0  0  0  0  0  0  0
  -49.9330  -67.4540   53.4130 C   0  0  0  0  0  0  0  0  0  0  0  0
  -49.7950  -66.8950   54.7300 N   0  0  0  0  0  4  0  0  0  0  0  0
  -48.4330  -66.9060   55.2230 C   0  0  0  0  0  0  0  0  0  0  0  0
  -47.7380  -68.1350   54.6750 C   0  0  0  0  0  0  0  0  0  0  0  0
  -50.4690  -65.6430   54.8570 C   0  0  0  0  0  0  0  0  0  0  0  0
  -51.0280  -65.3330   56.2040 C   0  0  0  0  0  0  0  0  0  0  0  0
  -50.0660  -65.2670   57.2100 O   0  0  0  0  0  0  0  0  0  0  0  0
  -40.9570  -69.5840   55.1150 C   0  0  0  0  0  0  0  0  0  0  0  0
  -39.7900  -70.2100   54.6960 C   0  0  0  0  0  0  0  0  0  0  0  0
  -39.1830  -69.8250   53.5270 C   0  0  0  0  0  0  0  0  0  0  0  0
  -39.7740  -68.7950   52.7870 C   0  0  0  0  0  0  0  0  0  0  0  0
  -42.5540  -62.9130   47.9870 H   0  0  0  0  0  0  0  0  0  0  0  0
  -41.7650  -64.6110   49.4700 H   0  0  0  0  0  0  0  0  0  0  0  0
  -45.0340  -63.9590   52.0510 H   0  0  0  0  0  0  0  0  0  0  0  0
  -45.8320  -62.1970   50.5330 H   0  0  0  0  0  0  0  0  0  0  0  0
  -41.1200  -66.2540   50.8350 H   0  0  0  0  0  0  0  0  0  0  0  0
  -43.3040  -67.8740   55.3610 H   0  0  0  0  0  0  0  0  0  0  0  0
  -44.3520  -64.9540   54.6410 H   0  0  0  0  0  0  0  0  0  0  0  0
  -45.1960  -64.6400   53.1430 H   0  0  0  0  0  0  0  0  0  0  0  0
  -44.9810  -67.3920   54.3670 H   0  0  0  0  0  0  0  0  0  0  0  0
  -46.2300  -66.2960   54.9670 H   0  0  0  0  0  0  0  0  0  0  0  0
  -45.8280  -67.5350   52.1790 H   0  0  0  0  0  0  0  0  0  0  0  0
  -46.8810  -66.1280   52.3710 H   0  0  0  0  0  0  0  0  0  0  0  0
  -48.5640  -66.5320   52.0470 H   0  0  0  0  0  0  0  0  0  0  0  0
  -48.8740  -68.2500   51.7720 H   0  0  0  0  0  0  0  0  0  0  0  0
  -50.3960  -68.4850   53.4240 H   0  0  0  0  0  0  0  0  0  0  0  0
  -50.6900  -66.8400   52.8410 H   0  0  0  0  0  0  0  0  0  0  0  0
  -50.3150  -67.5630   55.3820 H   0  0  0  0  0  0  0  0  0  0  0  0
  -48.4460  -67.0090   56.3340 H   0  0  0  0  0  0  0  0  0  0  0  0
  -47.8400  -66.0350   54.9630 H   0  0  0  0  0  0  0  0  0  0  0  0
  -48.3730  -69.0500   54.8180 H   0  0  0  0  0  0  0  0  0  0  0  0
  -46.8300  -68.3020   55.2470 H   0  0  0  0  0  0  0  0  0  0  0  0
  -51.3160  -65.5140   54.1230 H   0  0  0  0  0  0  0  0  0  0  0  0
  -49.7560  -64.8130   54.5920 H   0  0  0  0  0  0  0  0  0  0  0  0
  -51.4470  -64.2860   56.1340 H   0  0  0  0  0  0  0  0  0  0  0  0
  -51.8910  -65.9640   56.4890 H   0  0  0  0  0  0  0  0  0  0  0  0
  -49.2150  -64.9810   56.8350 H   0  0  0  0  0  0  0  0  0  0  0  0
  -41.4030  -69.9150   56.0390 H   0  0  0  0  0  0  0  0  0  0  0  0
  -39.3320  -71.0010   55.2590 H   0  0  0  0  0  0  0  0  0  0  0  0
  -38.2750  -70.3100   53.1970 H   0  0  0  0  0  0  0  0  0  0  0  0
  -39.3130  -68.4790   51.8650 H   0  0  0  0  0  0  0  0  0  0  0  0
  1  2  1  0  0  0  0
  2  7  1  0  0  0  0
  3  2  2  0  0  0  0
  3  4  1  0  0  0  0
  4  5  2  0  0  0  0
  5  6  1  0  0  0  0
  5  8  1  0  0  0  0
  6 34  1  0  0  0  0
  7 35  1  0  0  0  0
  7  6  2  0  0  0  0
  8 15  1  0  0  0  0
  9  8  2  0  0  0  0
  9 10  1  0  0  0  0
 10 11  1  0  0  0  0
 11 12  1  0  0  0  0
 12 13  1  0  0  0  0
 12 28  2  0  0  0  0
 13 37  1  0  0  0  0
 14 10  1  1  0  0  0
 14 13  1  0  0  0  0
 15 14  1  0  0  0  0
 15 16  1  0  0  0  0
 16 17  1  0  0  0  0
 16 38  1  0  0  0  0
 17 40  1  0  0  0  0
 17 41  1  0  0  0  0
 18 19  1  0  0  0  0
 18 17  1  0  0  0  0
 19 24  1  0  0  0  0
 20 19  1  0  0  0  0
 20 21  1  0  0  0  0
 21 46  1  0  0  0  0
 21 22  1  0  0  0  0
 22 25  1  0  0  0  0
 22 23  1  0  0  0  0
 22 48  1  0  0  0  0
 23 49  1  0  0  0  0
 24 51  1  0  0  0  0
 24 23  1  0  0  0  0
 24 52  1  0  0  0  0
 25 26  1  0  0  0  0
 26 56  1  0  0  0  0
 26 27  1  0  0  0  0
 28 58  1  0  0  0  0
 29 28  1  0  0  0  0
 29 59  1  0  0  0  0
 30 29  2  0  0  0  0
 31 11  2  0  0  0  0
 31 30  1  0  0  0  0
 32  3  1  0  0  0  0
 33  4  1  0  0  0  0
 36  9  1  0  0  0  0
 39 16  1  0  0  0  0
 42 18  1  0  0  0  0
 43 18  1  0  0  0  0
 44 20  1  0  0  0  0
 45 20  1  0  0  0  0
 47 21  1  0  0  0  0
 50 23  1  0  0  0  0
 53 25  1  0  0  0  0
 54 25  1  0  0  0  0
 55 26  1  0  0  0  0
 57 27  1  0  0  0  0
 60 30  1  0  0  0  0
 61 31  1  0  0  0  0
M  END
>  <Pose>
1

>  <Score>
-6.31

$$$$
