
 OpenBabel03202209423D

 63 66  0  0  1  0  0  0  0  0999 V2000
  -39.0530  -66.1180   49.4760 B   0  0  0  0  0  0  0  0  0  0  0  0
  -40.5820  -65.7590   50.5830 C   0  0  0  0  0  0  0  0  0  0  0  0
  -41.6570  -66.6190   50.5570 C   0  0  0  0  0  0  0  0  0  0  0  0
  -42.7810  -66.3810   51.3550 C   0  0  0  0  0  0  0  0  0  0  0  0
  -42.8430  -65.2820   52.1850 C   0  0  0  0  0  0  0  0  0  0  0  0
  -41.7480  -64.4480   52.1810 C   0  0  0  0  0  0  0  0  0  0  0  0
  -40.6360  -64.6670   51.4030 C   0  0  0  0  0  0  0  0  0  0  0  0
  -44.0210  -65.0370   53.0200 C   0  0  2  0  0  0  0  0  0  0  0  0
  -44.3080  -66.1120   53.9300 N   0  0  0  0  0  0  0  0  0  0  0  0
  -45.6310  -66.5830   53.7630 C   0  0  0  0  0  0  0  0  0  0  0  0
  -46.2260  -67.5020   54.4080 O   0  0  0  0  0  0  0  0  0  0  0  0
  -46.2770  -65.8240   52.6690 C   0  0  0  0  0  0  0  0  0  0  0  0
  -47.4510  -65.9920   52.2700 O   0  0  0  0  0  0  0  0  0  0  0  0
  -45.2730  -64.8900   52.2060 C   0  0  0  0  0  0  0  0  0  0  0  0
  -45.4940  -64.0240   51.2410 C   0  0  0  0  0  0  0  0  0  0  0  0
  -44.4590  -63.1200   50.9230 O   0  0  0  0  0  0  0  0  0  0  0  0
  -46.7000  -63.9100   50.4610 C   0  0  0  0  0  0  0  0  0  0  0  0
  -47.8060  -63.2040   50.7790 C   0  0  0  0  0  0  0  0  0  0  0  0
  -48.8840  -63.1510   49.9200 C   0  0  0  0  0  0  0  0  0  0  0  0
  -48.9110  -63.7970   48.7030 C   0  0  0  0  0  0  0  0  0  0  0  0
  -47.7690  -64.5120   48.4020 C   0  0  0  0  0  0  0  0  0  0  0  0
  -46.6840  -64.5860   49.2310 C   0  0  0  0  0  0  0  0  0  0  0  0
  -50.0010  -63.7400   47.8430 O   0  0  0  0  0  0  0  0  0  0  0  0
  -50.2310  -64.7920   46.9160 C   0  0  0  0  0  0  0  0  0  0  0  0
  -50.0900  -62.3530   50.3190 C   0  0  0  0  0  0  0  0  0  0  0  0
  -43.3490  -66.6230   54.8930 C   0  0  0  0  0  0  0  0  0  0  0  0
  -42.2460  -67.4300   54.2660 C   0  0  0  0  0  0  0  0  0  0  0  0
  -42.3810  -68.8900   54.5730 C   0  0  0  0  0  0  0  0  0  0  0  0
  -41.1210  -69.5530   54.7430 N   0  0  0  0  0  4  0  0  0  0  0  0
  -40.2480  -68.8940   55.6930 C   0  0  0  0  0  0  0  0  0  0  0  0
  -39.0720  -69.8430   55.9430 C   0  0  0  0  0  0  0  0  0  0  0  0
  -39.0770  -70.8830   55.0260 O   0  0  0  0  0  0  0  0  0  0  0  0
  -39.1310  -70.3730   53.7100 C   0  0  0  0  0  0  0  0  0  0  0  0
  -40.4940  -69.7360   53.4650 C   0  0  0  0  0  0  0  0  0  0  0  0
  -41.6210  -67.4860   49.9120 H   0  0  0  0  0  0  0  0  0  0  0  0
  -43.6250  -67.0530   51.3380 H   0  0  0  0  0  0  0  0  0  0  0  0
  -41.8110  -63.5720   52.8480 H   0  0  0  0  0  0  0  0  0  0  0  0
  -39.8110  -63.9850   51.4390 H   0  0  0  0  0  0  0  0  0  0  0  0
  -43.8340  -64.1350   53.6360 H   0  0  0  0  0  0  0  0  0  0  0  0
  -47.8300  -62.6950   51.7480 H   0  0  0  0  0  0  0  0  0  0  0  0
  -47.7960  -65.0290   47.4280 H   0  0  0  0  0  0  0  0  0  0  0  0
  -45.8200  -65.1680   48.9250 H   0  0  0  0  0  0  0  0  0  0  0  0
  -50.3380  -65.7400   47.5050 H   0  0  0  0  0  0  0  0  0  0  0  0
  -51.1510  -64.6580   46.3460 H   0  0  0  0  0  0  0  0  0  0  0  0
  -49.3190  -64.9470   46.2740 H   0  0  0  0  0  0  0  0  0  0  0  0
  -50.2350  -62.3560   51.4180 H   0  0  0  0  0  0  0  0  0  0  0  0
  -50.9550  -62.7710   49.7750 H   0  0  0  0  0  0  0  0  0  0  0  0
  -49.9170  -61.3290   49.9110 H   0  0  0  0  0  0  0  0  0  0  0  0
  -43.8840  -67.2830   55.6190 H   0  0  0  0  0  0  0  0  0  0  0  0
  -42.8770  -65.8050   55.4750 H   0  0  0  0  0  0  0  0  0  0  0  0
  -41.2710  -67.0270   54.6300 H   0  0  0  0  0  0  0  0  0  0  0  0
  -42.3350  -67.2990   53.1710 H   0  0  0  0  0  0  0  0  0  0  0  0
  -42.9550  -69.0660   55.5060 H   0  0  0  0  0  0  0  0  0  0  0  0
  -42.9500  -69.3750   53.7540 H   0  0  0  0  0  0  0  0  0  0  0  0
  -41.3040  -70.5230   55.1410 H   0  0  0  0  0  0  0  0  0  0  0  0
  -40.7730  -68.7790   56.6420 H   0  0  0  0  0  0  0  0  0  0  0  0
  -39.8290  -67.9710   55.2750 H   0  0  0  0  0  0  0  0  0  0  0  0
  -38.1130  -69.3090   55.9350 H   0  0  0  0  0  0  0  0  0  0  0  0
  -39.1660  -70.3280   56.9540 H   0  0  0  0  0  0  0  0  0  0  0  0
  -39.0350  -71.2760   53.0560 H   0  0  0  0  0  0  0  0  0  0  0  0
  -38.2980  -69.7040   53.4840 H   0  0  0  0  0  0  0  0  0  0  0  0
  -40.3880  -68.7350   52.9920 H   0  0  0  0  0  0  0  0  0  0  0  0
  -41.1380  -70.4290   52.8770 H   0  0  0  0  0  0  0  0  0  0  0  0
  1  2  1  0  0  0  0
  2  7  1  0  0  0  0
  3  2  2  0  0  0  0
  3  4  1  0  0  0  0
  4  5  2  0  0  0  0
  5  8  1  0  0  0  0
  6  5  1  0  0  0  0
  6 37  1  0  0  0  0
  7 38  1  0  0  0  0
  7  6  2  0  0  0  0
  8 39  1  1  0  0  0
  8  9  1  0  0  0  0
  9 26  1  0  0  0  0
 10  9  1  0  0  0  0
 10 11  2  0  0  0  0
 12 10  1  0  0  0  0
 13 12  2  0  0  0  0
 14 12  1  0  0  0  0
 14  8  1  0  0  0  0
 15 14  2  0  0  0  0
 16 15  1  0  0  0  0
 17 18  1  0  0  0  0
 17 15  1  0  0  0  0
 18 40  1  0  0  0  0
 19 25  1  0  0  0  0
 19 18  2  0  0  0  0
 20 19  1  0  0  0  0
 21 20  2  0  0  0  0
 21 22  1  0  0  0  0
 22 17  2  0  0  0  0
 23 20  1  0  0  0  0
 24 43  1  0  0  0  0
 24 23  1  0  0  0  0
 25 46  1  0  0  0  0
 26 50  1  0  0  0  0
 26 49  1  0  0  0  0
 27 28  1  0  0  0  0
 27 51  1  0  0  0  0
 27 26  1  0  0  0  0
 28 29  1  0  0  0  0
 28 53  1  0  0  0  0
 29 55  1  0  0  0  0
 29 30  1  0  0  0  0
 30 31  1  0  0  0  0
 30 56  1  0  0  0  0
 31 59  1  0  0  0  0
 32 31  1  0  0  0  0
 33 32  1  0  0  0  0
 34 33  1  0  0  0  0
 34 29  1  0  0  0  0
 35  3  1  0  0  0  0
 36  4  1  0  0  0  0
 41 21  1  0  0  0  0
 42 22  1  0  0  0  0
 44 24  1  0  0  0  0
 45 24  1  0  0  0  0
 47 25  1  0  0  0  0
 48 25  1  0  0  0  0
 52 27  1  0  0  0  0
 54 28  1  0  0  0  0
 57 30  1  0  0  0  0
 58 31  1  0  0  0  0
 60 33  1  0  0  0  0
 61 33  1  0  0  0  0
 62 34  1  0  0  0  0
 63 34  1  0  0  0  0
M  END
>  <Pose>
1

>  <Score>
-6.23

$$$$
