
 OpenBabel03202209423D

 53 56  0  0  1  0  0  0  0  0999 V2000
  -39.6480  -70.1350   54.6970 B   0  0  0  0  0  0  0  0  0  0  0  0
  -40.7250  -68.6910   54.0880 C   0  0  0  0  0  0  0  0  0  0  0  0
  -41.6760  -68.0780   54.8710 C   0  0  0  0  0  0  0  0  0  0  0  0
  -42.4510  -67.0140   54.3860 C   0  0  0  0  0  0  0  0  0  0  0  0
  -42.2860  -66.5500   53.1120 C   0  0  0  0  0  0  0  0  0  0  0  0
  -41.3250  -67.1830   52.3510 C   0  0  0  0  0  0  0  0  0  0  0  0
  -40.5560  -68.2270   52.8100 C   0  0  0  0  0  0  0  0  0  0  0  0
  -43.0490  -65.4930   52.5680 C   0  0  1  0  0  0  0  0  0  0  0  0
  -42.9130  -65.0510   51.2280 N   0  0  0  0  0  0  0  0  0  0  0  0
  -43.9190  -63.9990   51.1170 C   0  0  0  0  0  0  0  0  0  0  0  0
  -43.8680  -63.0000   50.3480 O   0  0  0  0  0  0  0  0  0  0  0  0
  -44.9710  -64.3520   52.0690 C   0  0  0  0  0  0  0  0  0  0  0  0
  -46.0420  -63.7380   52.3120 O   0  0  0  0  0  0  0  0  0  0  0  0
  -44.5330  -65.5970   52.7040 C   0  0  0  0  0  0  0  0  0  0  0  0
  -45.2880  -66.5560   53.2080 C   0  0  0  0  0  0  0  0  0  0  0  0
  -44.7090  -67.7070   53.7180 O   0  0  0  0  0  0  0  0  0  0  0  0
  -46.7410  -66.4860   53.2760 C   0  0  0  0  0  0  0  0  0  0  0  0
  -47.2810  -66.7910   54.5320 C   0  0  0  0  0  0  0  0  0  0  0  0
  -48.6330  -66.7330   54.7780 C   0  0  0  0  0  0  0  0  0  0  0  0
  -49.4750  -66.3590   53.7360 C   0  0  0  0  0  0  0  0  0  0  0  0
  -48.9370  -66.0610   52.5040 C   0  0  0  0  0  0  0  0  0  0  0  0
  -47.5790  -66.1210   52.2690 C   0  0  0  0  0  0  0  0  0  0  0  0
  -51.1930  -66.2910   54.0600 Cl  0  0  0  0  0  0  0  0  0  0  0  0
  -42.0110  -65.4040   50.1290 C   0  0  0  0  0  0  0  0  0  0  0  0
  -40.8510  -64.4720   49.9570 C   0  0  0  0  0  0  0  0  0  0  0  0
  -40.0760  -64.7550   48.7700 N   0  0  0  0  0  4  0  0  0  0  0  0
  -38.6900  -65.0060   49.0520 C   0  0  0  0  0  0  0  0  0  0  0  0
  -37.9280  -63.7910   49.4920 C   0  0  0  0  0  0  0  0  0  0  0  0
  -38.0870  -62.7220   48.6090 O   0  0  0  0  0  0  0  0  0  0  0  0
  -39.4590  -62.4300   48.5910 C   0  0  0  0  0  0  0  0  0  0  0  0
  -40.1450  -63.5920   47.9040 C   0  0  0  0  0  0  0  0  0  0  0  0
  -41.8010  -68.4470   55.8670 H   0  0  0  0  0  0  0  0  0  0  0  0
  -43.1450  -66.6210   55.1060 H   0  0  0  0  0  0  0  0  0  0  0  0
  -41.1190  -66.8790   51.3120 H   0  0  0  0  0  0  0  0  0  0  0  0
  -39.8090  -68.6990   52.1810 H   0  0  0  0  0  0  0  0  0  0  0  0
  -42.8160  -64.5540   53.1970 H   0  0  0  0  0  0  0  0  0  0  0  0
  -46.6480  -67.0840   55.3580 H   0  0  0  0  0  0  0  0  0  0  0  0
  -49.0130  -66.9760   55.7630 H   0  0  0  0  0  0  0  0  0  0  0  0
  -49.6170  -65.7750   51.7190 H   0  0  0  0  0  0  0  0  0  0  0  0
  -47.1740  -65.8530   51.2990 H   0  0  0  0  0  0  0  0  0  0  0  0
  -42.6140  -65.3230   49.1760 H   0  0  0  0  0  0  0  0  0  0  0  0
  -41.6040  -66.4210   50.2560 H   0  0  0  0  0  0  0  0  0  0  0  0
  -40.1580  -64.6850   50.8140 H   0  0  0  0  0  0  0  0  0  0  0  0
  -41.0660  -63.4030   50.0300 H   0  0  0  0  0  0  0  0  0  0  0  0
  -40.4500  -65.5590   48.2300 H   0  0  0  0  0  0  0  0  0  0  0  0
  -38.5140  -65.8150   49.7680 H   0  0  0  0  0  0  0  0  0  0  0  0
  -38.2260  -65.3380   48.0810 H   0  0  0  0  0  0  0  0  0  0  0  0
  -38.1680  -63.4930   50.5360 H   0  0  0  0  0  0  0  0  0  0  0  0
  -36.8430  -64.0550   49.4590 H   0  0  0  0  0  0  0  0  0  0  0  0
  -39.6670  -61.4880   48.0440 H   0  0  0  0  0  0  0  0  0  0  0  0
  -39.7690  -62.2870   49.6270 H   0  0  0  0  0  0  0  0  0  0  0  0
  -41.2040  -63.3410   47.6470 H   0  0  0  0  0  0  0  0  0  0  0  0
  -39.5650  -63.7880   46.9660 H   0  0  0  0  0  0  0  0  0  0  0  0
  2  1  1  0  0  0  0
  2  3  1  0  0  0  0
  3 32  1  0  0  0  0
  4  3  2  0  0  0  0
  4 33  1  0  0  0  0
  5  4  1  0  0  0  0
  6  7  1  0  0  0  0
  6  5  2  0  0  0  0
  7  2  2  0  0  0  0
  8 14  1  0  0  0  0
  8  5  1  0  0  0  0
  8 36  1  1  0  0  0
  9  8  1  0  0  0  0
 10  9  1  0  0  0  0
 10 12  1  0  0  0  0
 11 10  2  0  0  0  0
 12 13  2  0  0  0  0
 12 14  1  0  0  0  0
 14 15  2  0  0  0  0
 15 17  1  0  0  0  0
 15 16  1  0  0  0  0
 17 18  1  0  0  0  0
 18 19  2  0  0  0  0
 18 37  1  0  0  0  0
 19 38  1  0  0  0  0
 20 23  1  0  0  0  0
 20 19  1  0  0  0  0
 21 20  2  0  0  0  0
 22 21  1  0  0  0  0
 22 17  2  0  0  0  0
 24 42  1  0  0  0  0
 24  9  1  0  0  0  0
 25 44  1  0  0  0  0
 25 24  1  0  0  0  0
 25 43  1  0  0  0  0
 26 27  1  0  0  0  0
 26 25  1  0  0  0  0
 27 28  1  0  0  0  0
 27 46  1  0  0  0  0
 28 48  1  0  0  0  0
 29 28  1  0  0  0  0
 30 29  1  0  0  0  0
 30 51  1  0  0  0  0
 31 30  1  0  0  0  0
 31 26  1  0  0  0  0
 34  6  1  0  0  0  0
 35  7  1  0  0  0  0
 39 21  1  0  0  0  0
 40 22  1  0  0  0  0
 41 24  1  0  0  0  0
 45 26  1  0  0  0  0
 47 27  1  0  0  0  0
 49 28  1  0  0  0  0
 50 30  1  0  0  0  0
 52 31  1  0  0  0  0
 53 31  1  0  0  0  0
M  END
>  <Pose>
1

>  <Score>
-5.65

$$$$
