
 OpenBabel03202209423D

 57 60  0  0  1  0  0  0  0  0999 V2000
  -39.0560  -70.2450   54.1220 B   0  0  0  0  0  0  0  0  0  0  0  0
  -39.4670  -69.0260   52.6950 C   0  0  0  0  0  0  0  0  0  0  0  0
  -40.6320  -68.2810   52.7160 C   0  0  0  0  0  0  0  0  0  0  0  0
  -40.9170  -67.4010   51.6740 C   0  0  0  0  0  0  0  0  0  0  0  0
  -40.0730  -67.2370   50.6020 C   0  0  0  0  0  0  0  0  0  0  0  0
  -38.9180  -67.9880   50.6000 C   0  0  0  0  0  0  0  0  0  0  0  0
  -38.6270  -68.8600   51.6230 C   0  0  0  0  0  0  0  0  0  0  0  0
  -40.4000  -66.3070   49.4980 C   0  0  1  0  0  0  0  0  0  0  0  0
  -41.0340  -65.0810   50.0180 N   0  0  0  0  0  0  0  0  0  0  0  0
  -39.9640  -64.3520   50.6100 C   0  0  0  0  0  0  0  0  0  0  0  0
  -40.1090  -63.5000   51.5340 O   0  0  0  0  0  0  0  0  0  0  0  0
  -38.7130  -64.7540   49.9760 C   0  0  0  0  0  0  0  0  0  0  0  0
  -37.5690  -64.3240   50.2320 O   0  0  0  0  0  0  0  0  0  0  0  0
  -39.0920  -65.7510   48.9920 C   0  0  0  0  0  0  0  0  0  0  0  0
  -38.4690  -66.0770   47.8880 C   0  0  0  0  0  0  0  0  0  0  0  0
  -38.9970  -67.0240   47.0220 O   0  0  0  0  0  0  0  0  0  0  0  0
  -37.2040  -65.4720   47.5170 C   0  0  0  0  0  0  0  0  0  0  0  0
  -35.9710  -65.9980   47.3640 N   0  0  0  0  0  0  0  0  0  0  0  0
  -35.0830  -65.0450   47.0450 C   0  0  0  0  0  0  0  0  0  0  0  0
  -35.7770  -63.8880   46.9960 N   0  0  0  0  0  0  0  0  0  0  0  0
  -37.0510  -64.0900   47.2710 C   0  0  0  0  0  0  0  0  0  0  0  0
  -38.1820  -63.1100   47.3310 C   0  0  0  0  0  0  0  0  0  0  0  0
  -33.7330  -65.3110   46.8100 C   0  0  0  0  0  0  0  0  0  0  0  0
  -33.2610  -66.6000   46.9000 C   0  0  0  0  0  0  0  0  0  0  0  0
  -34.1870  -67.5640   47.2260 C   0  0  0  0  0  0  0  0  0  0  0  0
  -35.5100  -67.2720   47.4530 C   0  0  0  0  0  0  0  0  0  0  0  0
  -42.4300  -64.7420   49.9400 C   0  0  0  0  0  0  0  0  0  0  0  0
  -43.1770  -64.4480   51.1810 C   0  0  0  0  0  0  0  0  0  0  0  0
  -43.0090  -65.2940   52.3800 C   0  0  0  0  0  0  0  0  0  0  0  0
  -43.7410  -64.9430   53.5600 N   0  0  0  0  0  4  0  0  0  0  0  0
  -45.1700  -65.2670   53.2860 C   0  0  0  0  0  0  0  0  0  0  0  0
  -43.3800  -65.8310   54.6460 C   0  0  0  0  0  0  0  0  0  0  0  0
  -41.3180  -68.3980   53.5640 H   0  0  0  0  0  0  0  0  0  0  0  0
  -41.8300  -66.8320   51.7160 H   0  0  0  0  0  0  0  0  0  0  0  0
  -38.2550  -67.8730   49.7560 H   0  0  0  0  0  0  0  0  0  0  0  0
  -37.7190  -69.4260   51.5840 H   0  0  0  0  0  0  0  0  0  0  0  0
  -40.9830  -66.7640   48.6960 H   0  0  0  0  0  0  0  0  0  0  0  0
  -38.8820  -63.3500   48.1390 H   0  0  0  0  0  0  0  0  0  0  0  0
  -38.7200  -63.0850   46.3370 H   0  0  0  0  0  0  0  0  0  0  0  0
  -37.7850  -62.0880   47.4980 H   0  0  0  0  0  0  0  0  0  0  0  0
  -33.0450  -64.5160   46.5550 H   0  0  0  0  0  0  0  0  0  0  0  0
  -32.2130  -66.8310   46.7210 H   0  0  0  0  0  0  0  0  0  0  0  0
  -33.8100  -68.5870   47.2960 H   0  0  0  0  0  0  0  0  0  0  0  0
  -36.2240  -68.0300   47.7090 H   0  0  0  0  0  0  0  0  0  0  0  0
  -42.9940  -65.5120   49.3340 H   0  0  0  0  0  0  0  0  0  0  0  0
  -42.4710  -63.7910   49.3050 H   0  0  0  0  0  0  0  0  0  0  0  0
  -44.2690  -64.2350   50.9700 H   0  0  0  0  0  0  0  0  0  0  0  0
  -42.8070  -63.4030   51.5010 H   0  0  0  0  0  0  0  0  0  0  0  0
  -41.9130  -65.4400   52.6360 H   0  0  0  0  0  0  0  0  0  0  0  0
  -43.3120  -66.3550   52.1000 H   0  0  0  0  0  0  0  0  0  0  0  0
  -43.6850  -63.9720   53.8670 H   0  0  0  0  0  0  0  0  0  0  0  0
  -45.7910  -65.0330   54.1600 H   0  0  0  0  0  0  0  0  0  0  0  0
  -45.5010  -64.7160   52.3830 H   0  0  0  0  0  0  0  0  0  0  0  0
  -45.1790  -66.3680   53.1510 H   0  0  0  0  0  0  0  0  0  0  0  0
  -42.3490  -66.2340   54.5210 H   0  0  0  0  0  0  0  0  0  0  0  0
  -43.3690  -65.2340   55.5800 H   0  0  0  0  0  0  0  0  0  0  0  0
  -44.1150  -66.6400   54.8100 H   0  0  0  0  0  0  0  0  0  0  0  0
  2  3  1  0  0  0  0
  2  1  1  0  0  0  0
  3 33  1  0  0  0  0
  4 34  1  0  0  0  0
  4  3  2  0  0  0  0
  5  4  1  0  0  0  0
  6  5  2  0  0  0  0
  6  7  1  0  0  0  0
  7  2  2  0  0  0  0
  8 37  1  6  0  0  0
  8  9  1  0  0  0  0
  8  5  1  0  0  0  0
  9 10  1  0  0  0  0
 10 11  2  0  0  0  0
 12 13  2  0  0  0  0
 12 10  1  0  0  0  0
 14  8  1  0  0  0  0
 14 12  1  0  0  0  0
 15 14  2  0  0  0  0
 16 15  1  0  0  0  0
 17 15  1  0  0  0  0
 18 26  1  0  0  0  0
 18 17  1  0  0  0  0
 19 18  1  0  0  0  0
 20 19  2  0  0  0  0
 20 21  1  0  0  0  0
 21 22  1  0  0  0  0
 21 17  2  0  0  0  0
 22 40  1  0  0  0  0
 22 38  1  0  0  0  0
 23 24  2  0  0  0  0
 23 19  1  0  0  0  0
 24 25  1  0  0  0  0
 25 43  1  0  0  0  0
 25 26  2  0  0  0  0
 26 44  1  0  0  0  0
 27  9  1  0  0  0  0
 27 28  1  0  0  0  0
 28 48  1  0  0  0  0
 28 29  1  0  0  0  0
 29 49  1  0  0  0  0
 29 30  1  0  0  0  0
 30 51  1  0  0  0  0
 30 32  1  0  0  0  0
 31 30  1  0  0  0  0
 31 52  1  0  0  0  0
 32 57  1  0  0  0  0
 32 56  1  0  0  0  0
 35  6  1  0  0  0  0
 36  7  1  0  0  0  0
 39 22  1  0  0  0  0
 41 23  1  0  0  0  0
 42 24  1  0  0  0  0
 45 27  1  0  0  0  0
 46 27  1  0  0  0  0
 47 28  1  0  0  0  0
 50 29  1  0  0  0  0
 53 31  1  0  0  0  0
 54 31  1  0  0  0  0
 55 32  1  0  0  0  0
M  END
>  <Pose>
1

>  <Score>
-6.50

$$$$
