
 OpenBabel03202209423D

 54 57  0  0  1  0  0  0  0  0999 V2000
  -44.6100  -62.4400   48.3210 B   0  0  0  0  0  0  0  0  0  0  0  0
  -44.9060  -63.3750   49.9610 C   0  0  0  0  0  0  0  0  0  0  0  0
  -46.1750  -63.4390   50.4630 C   0  0  0  0  0  0  0  0  0  0  0  0
  -46.4020  -64.1080   51.6420 C   0  0  0  0  0  0  0  0  0  0  0  0
  -45.4220  -64.7370   52.3760 C   0  0  0  0  0  0  0  0  0  0  0  0
  -44.1380  -64.6530   51.8360 C   0  0  0  0  0  0  0  0  0  0  0  0
  -43.8920  -63.9880   50.6580 C   0  0  0  0  0  0  0  0  0  0  0  0
  -45.7060  -65.4520   53.6500 C   0  0  1  0  0  0  0  0  0  0  0  0
  -46.9990  -66.0790   53.6420 N   0  0  0  0  0  0  0  0  0  0  0  0
  -46.7950  -67.4720   53.4830 C   0  0  0  0  0  0  0  0  0  0  0  0
  -47.6950  -68.3240   53.2320 O   0  0  0  0  0  0  0  0  0  0  0  0
  -45.3710  -67.7720   53.6540 C   0  0  0  0  0  0  0  0  0  0  0  0
  -44.8110  -68.8940   53.5890 O   0  0  0  0  0  0  0  0  0  0  0  0
  -44.7090  -66.5090   53.9230 C   0  0  0  0  0  0  0  0  0  0  0  0
  -43.4740  -66.3660   54.3770 C   0  0  0  0  0  0  0  0  0  0  0  0
  -43.0370  -65.0540   54.6480 O   0  0  0  0  0  0  0  0  0  0  0  0
  -42.5230  -67.4230   54.6150 C   0  0  0  0  0  0  0  0  0  0  0  0
  -41.5060  -67.9180   53.8990 N   0  0  0  0  0  0  0  0  0  0  0  0
  -40.9280  -68.9500   54.5370 C   0  0  0  0  0  0  0  0  0  0  0  0
  -41.5920  -69.1190   55.6930 N   0  0  0  0  0  0  0  0  0  0  0  0
  -42.5650  -68.2110   55.7740 C   0  0  0  0  0  0  0  0  0  0  0  0
  -43.5200  -68.0740   56.9100 C   0  0  0  0  0  0  0  0  0  0  0  0
  -39.8340  -69.6490   54.0350 C   0  0  0  0  0  0  0  0  0  0  0  0
  -39.3190  -69.2640   52.8280 C   0  0  0  0  0  0  0  0  0  0  0  0
  -39.9110  -68.2010   52.1700 C   0  0  0  0  0  0  0  0  0  0  0  0
  -40.9930  -67.5430   52.7080 C   0  0  0  0  0  0  0  0  0  0  0  0
  -48.3090  -65.4050   53.7770 C   0  0  0  0  0  0  0  0  0  0  0  0
  -48.7340  -64.8310   52.4430 C   0  0  0  0  0  0  0  0  0  0  0  0
  -49.1760  -65.8150   51.5180 N   0  0  0  0  0  4  0  0  0  0  0  0
  -50.6250  -65.6690   51.3730 C   0  0  0  0  0  0  0  0  0  0  0  0
  -48.5770  -65.7470   50.2220 C   0  0  0  0  0  0  0  0  0  0  0  0
  -47.0240  -62.9670   49.9460 H   0  0  0  0  0  0  0  0  0  0  0  0
  -47.4180  -64.1360   52.0060 H   0  0  0  0  0  0  0  0  0  0  0  0
  -43.3110  -65.1200   52.3520 H   0  0  0  0  0  0  0  0  0  0  0  0
  -42.8930  -63.9300   50.2520 H   0  0  0  0  0  0  0  0  0  0  0  0
  -45.7150  -64.6670   54.4400 H   0  0  0  0  0  0  0  0  0  0  0  0
  -43.3120  -67.1550   57.5020 H   0  0  0  0  0  0  0  0  0  0  0  0
  -44.5370  -67.9930   56.4430 H   0  0  0  0  0  0  0  0  0  0  0  0
  -43.5100  -68.9820   57.5110 H   0  0  0  0  0  0  0  0  0  0  0  0
  -39.4360  -70.4730   54.6260 H   0  0  0  0  0  0  0  0  0  0  0  0
  -38.4680  -69.8040   52.4340 H   0  0  0  0  0  0  0  0  0  0  0  0
  -39.5210  -67.8710   51.2060 H   0  0  0  0  0  0  0  0  0  0  0  0
  -41.4770  -66.7070   52.2140 H   0  0  0  0  0  0  0  0  0  0  0  0
  -48.2510  -64.6120   54.5470 H   0  0  0  0  0  0  0  0  0  0  0  0
  -49.0110  -66.1840   54.1010 H   0  0  0  0  0  0  0  0  0  0  0  0
  -47.8460  -64.2740   52.0470 H   0  0  0  0  0  0  0  0  0  0  0  0
  -49.5010  -64.0350   52.6460 H   0  0  0  0  0  0  0  0  0  0  0  0
  -49.0220  -66.7970   51.8820 H   0  0  0  0  0  0  0  0  0  0  0  0
  -50.8800  -64.7160   50.8900 H   0  0  0  0  0  0  0  0  0  0  0  0
  -51.0480  -66.5480   50.8100 H   0  0  0  0  0  0  0  0  0  0  0  0
  -51.1410  -65.6810   52.3580 H   0  0  0  0  0  0  0  0  0  0  0  0
  -49.3410  -66.0770   49.4750 H   0  0  0  0  0  0  0  0  0  0  0  0
  -48.2830  -64.7200   49.9230 H   0  0  0  0  0  0  0  0  0  0  0  0
  -47.7380  -66.4800   50.1170 H   0  0  0  0  0  0  0  0  0  0  0  0
  1  2  1  0  0  0  0
  2  3  2  0  0  0  0
  2  7  1  0  0  0  0
  3  4  1  0  0  0  0
  4 33  1  0  0  0  0
  4  5  2  0  0  0  0
  5  8  1  0  0  0  0
  6 34  1  0  0  0  0
  6  5  1  0  0  0  0
  7  6  2  0  0  0  0
  8 14  1  0  0  0  0
  8 36  1  1  0  0  0
  9  8  1  0  0  0  0
  9 27  1  0  0  0  0
 10  9  1  0  0  0  0
 10 12  1  0  0  0  0
 11 10  2  0  0  0  0
 12 14  1  0  0  0  0
 13 12  2  0  0  0  0
 14 15  2  0  0  0  0
 15 17  1  0  0  0  0
 15 16  1  0  0  0  0
 17 21  2  0  0  0  0
 18 19  1  0  0  0  0
 18 17  1  0  0  0  0
 19 20  2  0  0  0  0
 20 21  1  0  0  0  0
 21 22  1  0  0  0  0
 22 37  1  0  0  0  0
 22 39  1  0  0  0  0
 23 19  1  0  0  0  0
 23 40  1  0  0  0  0
 24 23  2  0  0  0  0
 25 26  2  0  0  0  0
 25 24  1  0  0  0  0
 26 18  1  0  0  0  0
 27 45  1  0  0  0  0
 27 44  1  0  0  0  0
 28 47  1  0  0  0  0
 28 27  1  0  0  0  0
 29 48  1  0  0  0  0
 29 28  1  0  0  0  0
 30 29  1  0  0  0  0
 30 51  1  0  0  0  0
 31 29  1  0  0  0  0
 32  3  1  0  0  0  0
 35  7  1  0  0  0  0
 38 22  1  0  0  0  0
 41 24  1  0  0  0  0
 42 25  1  0  0  0  0
 43 26  1  0  0  0  0
 46 28  1  0  0  0  0
 49 30  1  0  0  0  0
 50 30  1  0  0  0  0
 52 31  1  0  0  0  0
 53 31  1  0  0  0  0
 54 31  1  0  0  0  0
M  END
>  <Pose>
1

>  <Score>
-4.85

$$$$
