
 OpenBabel03202209423D

 44 47  0  0  0  0  0  0  0  0999 V2000
  -47.1680  -62.9410   49.3000 B   0  0  0  0  0  0  0  0  0  0  0  0
  -45.9130  -63.5940   50.5840 C   0  0  0  0  0  0  0  0  0  0  0  0
  -46.3140  -64.1400   51.7750 C   0  0  0  0  0  0  0  0  0  0  0  0
  -45.3830  -64.6130   52.7100 C   0  0  0  0  0  0  0  0  0  0  0  0
  -44.0270  -64.5650   52.5040 C   0  0  0  0  0  0  0  0  0  0  0  0
  -43.6510  -64.0000   51.2690 C   0  0  0  0  0  0  0  0  0  0  0  0
  -44.5530  -63.5360   50.3530 C   0  0  0  0  0  0  0  0  0  0  0  0
  -43.0220  -64.9830   53.3800 N   0  0  0  0  0  0  0  0  0  0  0  0
  -43.1800  -65.8910   54.4340 C   0  0  0  0  0  0  0  0  0  0  0  0
  -43.2620  -65.4370   55.6440 O   0  0  0  0  0  0  0  0  0  0  0  0
  -43.2720  -67.3480   54.3600 C   0  0  0  0  0  0  0  0  0  0  0  0
  -41.9960  -67.9280   53.9070 N   0  0  0  0  0  0  0  0  0  0  0  0
  -41.3650  -67.4960   52.8200 N   0  0  0  0  0  0  0  0  0  0  0  0
  -40.2000  -68.0640   52.3950 C   0  0  0  0  0  0  0  0  0  0  0  0
  -39.6740  -69.0830   53.0910 N   0  0  0  0  0  0  0  0  0  0  0  0
  -38.4340  -69.5210   52.4890 C   0  0  0  0  0  0  0  0  0  0  0  0
  -38.2050  -68.6590   51.2830 C   0  0  0  0  0  0  0  0  0  0  0  0
  -39.3790  -67.8050   51.2620 N   0  0  0  0  0  0  0  0  0  0  0  0
  -39.6220  -66.8660   50.2330 C   0  0  0  0  0  0  0  0  0  0  0  0
  -40.7260  -66.0560   50.1860 C   0  0  0  0  0  0  0  0  0  0  0  0
  -40.9430  -65.1570   49.1560 C   0  0  0  0  0  0  0  0  0  0  0  0
  -40.0230  -65.0600   48.1300 C   0  0  0  0  0  0  0  0  0  0  0  0
  -38.9210  -65.8540   48.1580 C   0  0  0  0  0  0  0  0  0  0  0  0
  -38.7120  -66.7480   49.1870 C   0  0  0  0  0  0  0  0  0  0  0  0
  -40.2640  -69.5620   54.1940 C   0  0  0  0  0  0  0  0  0  0  0  0
  -39.7710  -70.5150   54.8430 O   0  0  0  0  0  0  0  0  0  0  0  0
  -41.4420  -68.9520   54.5790 C   0  0  0  0  0  0  0  0  0  0  0  0
  -42.0320  -69.3660   55.6090 O   0  0  0  0  0  0  0  0  0  0  0  0
  -47.3710  -64.2030   51.9900 H   0  0  0  0  0  0  0  0  0  0  0  0
  -45.7450  -65.0500   53.6370 H   0  0  0  0  0  0  0  0  0  0  0  0
  -42.5910  -63.9400   51.0600 H   0  0  0  0  0  0  0  0  0  0  0  0
  -44.2480  -63.0950   49.4000 H   0  0  0  0  0  0  0  0  0  0  0  0
  -42.0500  -64.5820   53.2470 H   0  0  0  0  0  0  0  0  0  0  0  0
  -44.0290  -67.6980   53.6170 H   0  0  0  0  0  0  0  0  0  0  0  0
  -43.4990  -67.7780   55.3510 H   0  0  0  0  0  0  0  0  0  0  0  0
  -37.6250  -69.2680   53.2150 H   0  0  0  0  0  0  0  0  0  0  0  0
  -38.4310  -70.6110   52.2530 H   0  0  0  0  0  0  0  0  0  0  0  0
  -38.2420  -69.3500   50.4000 H   0  0  0  0  0  0  0  0  0  0  0  0
  -37.2630  -68.0740   51.3050 H   0  0  0  0  0  0  0  0  0  0  0  0
  -41.4350  -66.1300   50.9750 H   0  0  0  0  0  0  0  0  0  0  0  0
  -41.8280  -64.5320   49.1430 H   0  0  0  0  0  0  0  0  0  0  0  0
  -40.2030  -64.3460   47.3150 H   0  0  0  0  0  0  0  0  0  0  0  0
  -38.1910  -65.7990   47.3710 H   0  0  0  0  0  0  0  0  0  0  0  0
  -37.8490  -67.3650   49.1970 H   0  0  0  0  0  0  0  0  0  0  0  0
  1  2  1  0  0  0  0
  2  3  1  0  0  0  0
  3 29  1  0  0  0  0
  3  4  2  0  0  0  0
  4 30  1  0  0  0  0
  5  4  1  0  0  0  0
  5  8  1  0  0  0  0
  6  5  2  0  0  0  0
  7  2  2  0  0  0  0
  7  6  1  0  0  0  0
  8  9  1  0  0  0  0
  9 10  2  0  0  0  0
 11  9  1  0  0  0  0
 11 35  1  0  0  0  0
 12 11  1  0  0  0  0
 12 27  1  0  0  0  0
 13 12  1  0  0  0  0
 14 13  2  0  0  0  0
 14 15  1  0  0  0  0
 15 25  1  0  0  0  0
 16 15  1  0  0  0  0
 16 36  1  0  0  0  0
 17 39  1  0  0  0  0
 17 16  1  0  0  0  0
 18 17  1  0  0  0  0
 18 14  1  0  0  0  0
 19 18  1  0  0  0  0
 20 19  1  0  0  0  0
 20 40  1  0  0  0  0
 21 20  2  0  0  0  0
 22 23  2  0  0  0  0
 22 21  1  0  0  0  0
 23 24  1  0  0  0  0
 24 44  1  0  0  0  0
 24 19  2  0  0  0  0
 25 27  1  0  0  0  0
 25 26  2  0  0  0  0
 27 28  2  0  0  0  0
 31  6  1  0  0  0  0
 32  7  1  0  0  0  0
 33  8  1  0  0  0  0
 34 11  1  0  0  0  0
 37 16  1  0  0  0  0
 38 17  1  0  0  0  0
 41 21  1  0  0  0  0
 42 22  1  0  0  0  0
 43 23  1  0  0  0  0
M  END
>  <Pose>
1

>  <Score>
-6.92

$$$$
