
 OpenBabel03202209423D

 44 47  0  0  0  0  0  0  0  0999 V2000
  -37.9820  -62.4240   47.4120 B   0  0  0  0  0  0  0  0  0  0  0  0
  -39.7560  -62.8110   47.9740 C   0  0  0  0  0  0  0  0  0  0  0  0
  -40.8550  -62.1940   47.4310 C   0  0  0  0  0  0  0  0  0  0  0  0
  -42.1310  -62.5120   47.8780 C   0  0  0  0  0  0  0  0  0  0  0  0
  -42.3750  -63.4390   48.8670 C   0  0  0  0  0  0  0  0  0  0  0  0
  -41.2240  -64.0510   49.4000 C   0  0  0  0  0  0  0  0  0  0  0  0
  -39.9750  -63.7420   48.9650 C   0  0  0  0  0  0  0  0  0  0  0  0
  -43.6490  -63.7800   49.3750 N   0  0  0  0  0  0  0  0  0  0  0  0
  -44.4340  -62.9920   50.2270 C   0  0  0  0  0  0  0  0  0  0  0  0
  -45.5230  -62.5170   49.8440 O   0  0  0  0  0  0  0  0  0  0  0  0
  -43.9610  -62.7010   51.6420 C   0  0  0  0  0  0  0  0  0  0  0  0
  -44.4180  -63.7690   52.5090 N   0  0  0  0  0  0  0  0  0  0  0  0
  -45.6250  -63.8180   53.0730 N   0  0  0  0  0  0  0  0  0  0  0  0
  -45.7260  -64.9100   53.7950 N   0  0  0  0  0  0  0  0  0  0  0  0
  -44.5590  -65.5920   53.7060 C   0  0  0  0  0  0  0  0  0  0  0  0
  -43.7610  -64.8720   52.9070 C   0  0  0  0  0  0  0  0  0  0  0  0
  -42.5900  -65.5970   52.8420 C   0  0  0  0  0  0  0  0  0  0  0  0
  -41.5890  -65.2150   52.1650 O   0  0  0  0  0  0  0  0  0  0  0  0
  -42.6520  -66.7230   53.5700 N   0  0  0  0  0  0  0  0  0  0  0  0
  -43.8990  -66.7250   54.1200 C   0  0  0  0  0  0  0  0  0  0  0  0
  -44.3110  -67.6480   54.8740 O   0  0  0  0  0  0  0  0  0  0  0  0
  -41.6480  -67.7310   53.7580 C   0  0  0  0  0  0  0  0  0  0  0  0
  -41.3550  -68.2140   55.0150 C   0  0  0  0  0  0  0  0  0  0  0  0
  -40.3980  -69.1910   55.2030 C   0  0  0  0  0  0  0  0  0  0  0  0
  -39.6870  -69.7340   54.1470 C   0  0  0  0  0  0  0  0  0  0  0  0
  -39.9790  -69.2530   52.8890 C   0  0  0  0  0  0  0  0  0  0  0  0
  -40.9400  -68.2720   52.7060 C   0  0  0  0  0  0  0  0  0  0  0  0
  -38.6660  -70.7900   54.3840 C   0  0  0  0  0  0  0  0  0  0  0  0
  -40.7090  -61.4650   46.6560 H   0  0  0  0  0  0  0  0  0  0  0  0
  -42.9980  -62.0100   47.4180 H   0  0  0  0  0  0  0  0  0  0  0  0
  -41.4090  -64.7970   50.1920 H   0  0  0  0  0  0  0  0  0  0  0  0
  -39.1100  -64.2410   49.4070 H   0  0  0  0  0  0  0  0  0  0  0  0
  -44.0300  -64.7300   49.0670 H   0  0  0  0  0  0  0  0  0  0  0  0
  -44.3880  -61.7550   51.9870 H   0  0  0  0  0  0  0  0  0  0  0  0
  -42.8430  -62.7050   51.6190 H   0  0  0  0  0  0  0  0  0  0  0  0
  -46.3470  -63.0810   52.9340 H   0  0  0  0  0  0  0  0  0  0  0  0
  -46.5430  -65.2460   54.3640 H   0  0  0  0  0  0  0  0  0  0  0  0
  -41.9040  -67.7970   55.8530 H   0  0  0  0  0  0  0  0  0  0  0  0
  -40.1580  -69.5830   56.1980 H   0  0  0  0  0  0  0  0  0  0  0  0
  -39.4300  -69.6670   52.0360 H   0  0  0  0  0  0  0  0  0  0  0  0
  -41.1710  -67.8910   51.7150 H   0  0  0  0  0  0  0  0  0  0  0  0
  -37.8660  -70.4540   55.0810 H   0  0  0  0  0  0  0  0  0  0  0  0
  -38.1540  -70.9710   53.4080 H   0  0  0  0  0  0  0  0  0  0  0  0
  -39.1120  -71.7440   54.7070 H   0  0  0  0  0  0  0  0  0  0  0  0
  1  2  1  0  0  0  0
  2  7  1  0  0  0  0
  3  4  1  0  0  0  0
  3  2  2  0  0  0  0
  4  5  2  0  0  0  0
  5  8  1  0  0  0  0
  5  6  1  0  0  0  0
  6 31  1  0  0  0  0
  7  6  2  0  0  0  0
  7 32  1  0  0  0  0
  8  9  1  0  0  0  0
  9 11  1  0  0  0  0
 10  9  2  0  0  0  0
 11 34  1  0  0  0  0
 11 12  1  0  0  0  0
 12 16  1  0  0  0  0
 12 13  1  0  0  0  0
 13 14  1  0  0  0  0
 14 37  1  0  0  0  0
 15 14  1  0  0  0  0
 15 20  1  0  0  0  0
 16 15  2  0  0  0  0
 17 16  1  0  0  0  0
 17 19  1  0  0  0  0
 18 17  2  0  0  0  0
 19 22  1  0  0  0  0
 19 20  1  0  0  0  0
 20 21  2  0  0  0  0
 22 23  1  0  0  0  0
 23 24  2  0  0  0  0
 23 38  1  0  0  0  0
 24 39  1  0  0  0  0
 25 28  1  0  0  0  0
 25 24  1  0  0  0  0
 26 25  2  0  0  0  0
 27 26  1  0  0  0  0
 27 22  2  0  0  0  0
 28 44  1  0  0  0  0
 28 42  1  0  0  0  0
 29  3  1  0  0  0  0
 30  4  1  0  0  0  0
 33  8  1  0  0  0  0
 35 11  1  0  0  0  0
 36 13  1  0  0  0  0
 40 26  1  0  0  0  0
 41 27  1  0  0  0  0
 43 28  1  0  0  0  0
M  END
>  <Pose>
1

>  <Score>
-6.87

$$$$
