
 OpenBabel03202209423D

 47 50  0  0  1  0  0  0  0  0999 V2000
  -36.9660  -64.2140   48.1200 B   0  0  0  0  0  0  0  0  0  0  0  0
  -38.6410  -64.7380   48.8980 C   0  0  0  0  0  0  0  0  0  0  0  0
  -39.4130  -63.8370   49.5880 C   0  0  0  0  0  0  0  0  0  0  0  0
  -40.5880  -64.1940   50.1430 C   0  0  0  0  0  0  0  0  0  0  0  0
  -41.0900  -65.5310   50.0420 C   0  0  0  0  0  0  0  0  0  0  0  0
  -40.2850  -66.4020   49.3410 C   0  0  0  0  0  0  0  0  0  0  0  0
  -39.0890  -66.0350   48.7760 C   0  0  0  0  0  0  0  0  0  0  0  0
  -42.2590  -65.7950   50.7110 N   0  0  0  0  0  0  0  0  0  0  0  0
  -43.3850  -66.0500   51.3540 C   0  0  0  0  0  0  0  0  0  0  0  0
  -44.3860  -66.8090   51.0380 O   0  0  0  0  0  0  0  0  0  0  0  0
  -43.6570  -65.3820   52.7190 C   0  0  2  0  0  0  0  0  0  0  0  0
  -42.7690  -66.1000   53.6910 C   0  0  0  0  0  0  0  0  0  0  0  0
  -43.4110  -67.2190   54.3930 C   0  0  0  0  0  0  0  0  0  0  0  0
  -42.6870  -68.1930   54.7380 O   0  0  0  0  0  0  0  0  0  0  0  0
  -44.8010  -67.1890   54.6630 N   0  0  0  0  0  0  0  0  0  0  0  0
  -45.6320  -66.2690   53.9890 C   0  0  0  0  0  0  0  0  0  0  0  0
  -46.9700  -66.2480   54.2760 N   0  0  0  0  0  0  0  0  0  0  0  0
  -47.8110  -65.3950   53.6860 C   0  0  0  0  0  0  0  0  0  0  0  0
  -47.3020  -64.5430   52.7860 N   0  0  0  0  0  0  0  0  0  0  0  0
  -45.9760  -64.5230   52.4620 C   0  0  0  0  0  0  0  0  0  0  0  0
  -45.0860  -65.3940   53.0590 C   0  0  0  0  0  0  0  0  0  0  0  0
  -45.4860  -63.6060   51.4900 N   0  0  0  0  0  0  0  0  0  0  0  0
  -49.2220  -65.3950   54.0030 N   0  0  0  0  0  0  0  0  0  0  0  0
  -49.9760  -64.2620   53.5960 C   0  0  0  0  0  0  0  0  0  0  0  0
  -51.4590  -64.4940   53.5390 C   0  0  0  0  0  0  0  0  0  0  0  0
  -51.8010  -65.8140   53.8120 O   0  0  0  0  0  0  0  0  0  0  0  0
  -51.2180  -66.2670   54.9880 C   0  0  0  0  0  0  0  0  0  0  0  0
  -49.7640  -66.5400   54.7040 C   0  0  0  0  0  0  0  0  0  0  0  0
  -39.0480  -62.8060   49.6850 H   0  0  0  0  0  0  0  0  0  0  0  0
  -41.2040  -63.4830   50.6980 H   0  0  0  0  0  0  0  0  0  0  0  0
  -40.6040  -67.4550   49.2310 H   0  0  0  0  0  0  0  0  0  0  0  0
  -38.4750  -66.7550   48.2220 H   0  0  0  0  0  0  0  0  0  0  0  0
  -42.8480  -66.1430   49.5330 H   0  0  0  0  0  0  0  0  0  0  0  0
  -43.2570  -64.3220   52.6260 H   0  0  0  0  0  0  0  0  0  0  0  0
  -42.4000  -65.3440   54.4380 H   0  0  0  0  0  0  0  0  0  0  0  0
  -41.8790  -66.4870   53.1290 H   0  0  0  0  0  0  0  0  0  0  0  0
  -45.2460  -67.8460   55.3680 H   0  0  0  0  0  0  0  0  0  0  0  0
  -45.1750  -63.8900   50.5570 H   0  0  0  0  0  0  0  0  0  0  0  0
  -45.4360  -62.5860   51.7450 H   0  0  0  0  0  0  0  0  0  0  0  0
  -49.7760  -63.4580   54.3620 H   0  0  0  0  0  0  0  0  0  0  0  0
  -49.5470  -63.8720   52.6360 H   0  0  0  0  0  0  0  0  0  0  0  0
  -52.0120  -63.8240   54.2430 H   0  0  0  0  0  0  0  0  0  0  0  0
  -51.8180  -64.2590   52.5230 H   0  0  0  0  0  0  0  0  0  0  0  0
  -51.7640  -67.2210   55.2450 H   0  0  0  0  0  0  0  0  0  0  0  0
  -51.3610  -65.5380   55.8080 H   0  0  0  0  0  0  0  0  0  0  0  0
  -49.1890  -66.7550   55.6320 H   0  0  0  0  0  0  0  0  0  0  0  0
  -49.7060  -67.4730   54.0820 H   0  0  0  0  0  0  0  0  0  0  0  0
  1  2  1  0  0  0  0
  2  3  1  0  0  0  0
  3 29  1  0  0  0  0
  3  4  2  0  0  0  0
  4 30  1  0  0  0  0
  5  4  1  0  0  0  0
  5  8  1  0  0  0  0
  6  5  2  0  0  0  0
  7  2  2  0  0  0  0
  7  6  1  0  0  0  0
  8  9  1  0  0  0  0
  9 11  1  0  0  0  0
 10  9  2  0  0  0  0
 11 34  1  6  0  0  0
 11 21  1  0  0  0  0
 11 12  1  0  0  0  0
 12 13  1  0  0  0  0
 12 35  1  0  0  0  0
 13 15  1  0  0  0  0
 13 14  2  0  0  0  0
 15 37  1  0  0  0  0
 16 17  1  0  0  0  0
 16 15  1  0  0  0  0
 18 23  1  0  0  0  0
 18 17  2  0  0  0  0
 19 18  1  0  0  0  0
 20 19  2  0  0  0  0
 20 21  1  0  0  0  0
 21 16  2  0  0  0  0
 22 39  1  0  0  0  0
 22 20  1  0  0  0  0
 23 28  1  0  0  0  0
 24 23  1  0  0  0  0
 24 40  1  0  0  0  0
 25 24  1  0  0  0  0
 25 26  1  0  0  0  0
 25 42  1  0  0  0  0
 26 27  1  0  0  0  0
 27 44  1  0  0  0  0
 27 45  1  0  0  0  0
 28 27  1  0  0  0  0
 28 46  1  0  0  0  0
 31  6  1  0  0  0  0
 32  7  1  0  0  0  0
 33  8  1  0  0  0  0
 36 12  1  0  0  0  0
 38 22  1  0  0  0  0
 41 24  1  0  0  0  0
 43 25  1  0  0  0  0
 47 28  1  0  0  0  0
M  END
>  <Pose>
1

>  <Score>
-6.75

$$$$
