
 OpenBabel03202209423D

 52 55  0  0  1  0  0  0  0  0999 V2000
  -38.1040  -69.9070   51.5230 B   0  0  0  0  0  0  0  0  0  0  0  0
  -39.4810  -69.0070   52.4590 C   0  0  0  0  0  0  0  0  0  0  0  0
  -40.0860  -67.8980   51.8930 C   0  0  0  0  0  0  0  0  0  0  0  0
  -41.0770  -67.1990   52.4980 C   0  0  0  0  0  0  0  0  0  0  0  0
  -41.5110  -67.6450   53.7880 C   0  0  0  0  0  0  0  0  0  0  0  0
  -40.8900  -68.7490   54.3210 C   0  0  0  0  0  0  0  0  0  0  0  0
  -39.8840  -69.4440   53.6880 C   0  0  0  0  0  0  0  0  0  0  0  0
  -42.5640  -66.9310   54.3030 N   0  0  0  0  0  0  0  0  0  0  0  0
  -43.5980  -66.2310   54.8080 C   0  0  0  0  0  0  0  0  0  0  0  0
  -43.6220  -65.4970   55.8880 O   0  0  0  0  0  0  0  0  0  0  0  0
  -44.9330  -66.1970   54.1520 C   0  0  2  0  0  0  0  0  0  0  0  0
  -45.5320  -67.5670   53.8930 C   0  0  0  0  0  0  0  0  0  0  0  0
  -46.9830  -67.3810   53.5890 C   0  0  0  0  0  0  0  0  0  0  0  0
  -47.8290  -68.0540   54.1500 O   0  0  0  0  0  0  0  0  0  0  0  0
  -47.3010  -66.4060   52.6340 N   0  0  0  0  0  0  0  0  0  0  0  0
  -46.3970  -65.3600   52.3370 C   0  0  0  0  0  0  0  0  0  0  0  0
  -46.6480  -64.4730   51.3530 N   0  0  0  0  0  0  0  0  0  0  0  0
  -45.8140  -63.5160   50.9460 C   0  0  0  0  0  0  0  0  0  0  0  0
  -44.6270  -63.4690   51.6050 N   0  0  0  0  0  0  0  0  0  0  0  0
  -44.3080  -64.3270   52.6080 C   0  0  0  0  0  0  0  0  0  0  0  0
  -45.1620  -65.3010   53.0250 C   0  0  0  0  0  0  0  0  0  0  0  0
  -43.0670  -64.2110   53.2290 O   0  0  0  0  0  0  0  0  0  0  0  0
  -46.1220  -62.5650   49.9450 N   0  0  0  0  0  0  0  0  0  0  0  0
  -45.7940  -61.1630   49.9610 C   0  0  0  0  0  0  0  0  0  0  0  0
  -45.4030  -60.7460   48.5470 C   0  0  0  0  0  0  0  0  0  0  0  0
  -44.7960  -61.8770   47.7690 C   0  0  2  0  0  0  0  0  0  0  0  0
  -45.7380  -63.0220   47.6430 C   0  0  0  0  0  0  0  0  0  0  0  0
  -46.8290  -63.0110   48.7390 C   0  0  0  0  0  0  0  0  0  0  0  0
  -43.4720  -62.2720   48.3060 C   0  0  0  0  0  0  0  0  0  0  0  0
  -42.6470  -61.3650   48.5380 O   0  0  0  0  0  0  0  0  0  0  0  0
  -43.0950  -63.6080   48.5630 N   0  0  0  0  0  0  0  0  0  0  0  0
  -39.7460  -67.5560   50.8950 H   0  0  0  0  0  0  0  0  0  0  0  0
  -41.5460  -66.3240   52.0450 H   0  0  0  0  0  0  0  0  0  0  0  0
  -41.2090  -69.1230   55.2960 H   0  0  0  0  0  0  0  0  0  0  0  0
  -39.4110  -70.3130   54.1300 H   0  0  0  0  0  0  0  0  0  0  0  0
  -43.4200  -67.7730   53.6920 H   0  0  0  0  0  0  0  0  0  0  0  0
  -45.6050  -65.8390   55.0450 H   0  0  0  0  0  0  0  0  0  0  0  0
  -45.4720  -68.2250   54.7810 H   0  0  0  0  0  0  0  0  0  0  0  0
  -45.0530  -68.0710   53.0500 H   0  0  0  0  0  0  0  0  0  0  0  0
  -48.2100  -66.4050   52.0960 H   0  0  0  0  0  0  0  0  0  0  0  0
  -42.9530  -63.7720   54.1400 H   0  0  0  0  0  0  0  0  0  0  0  0
  -44.9390  -60.9510   50.6260 H   0  0  0  0  0  0  0  0  0  0  0  0
  -46.6100  -60.4900   50.2760 H   0  0  0  0  0  0  0  0  0  0  0  0
  -46.2550  -60.2630   48.0430 H   0  0  0  0  0  0  0  0  0  0  0  0
  -44.6350  -59.9420   48.6410 H   0  0  0  0  0  0  0  0  0  0  0  0
  -44.6050  -61.4990   46.7280 H   0  0  0  0  0  0  0  0  0  0  0  0
  -45.1820  -63.9960   47.7550 H   0  0  0  0  0  0  0  0  0  0  0  0
  -46.2450  -63.0850   46.6640 H   0  0  0  0  0  0  0  0  0  0  0  0
  -47.6120  -62.3130   48.4450 H   0  0  0  0  0  0  0  0  0  0  0  0
  -47.1590  -64.0620   48.8380 H   0  0  0  0  0  0  0  0  0  0  0  0
  -43.7620  -64.3990   48.5100 H   0  0  0  0  0  0  0  0  0  0  0  0
  -42.1040  -63.8070   48.8150 H   0  0  0  0  0  0  0  0  0  0  0  0
  1  2  1  0  0  0  0
  2  7  1  0  0  0  0
  3  2  2  0  0  0  0
  3  4  1  0  0  0  0
  4  5  2  0  0  0  0
  5  8  1  0  0  0  0
  5  6  1  0  0  0  0
  6 34  1  0  0  0  0
  7 35  1  0  0  0  0
  7  6  2  0  0  0  0
  8  9  1  0  0  0  0
  9 10  2  0  0  0  0
 11  9  1  0  0  0  0
 11 37  1  1  0  0  0
 12 11  1  0  0  0  0
 12 38  1  0  0  0  0
 13 12  1  0  0  0  0
 13 14  2  0  0  0  0
 15 13  1  0  0  0  0
 16 15  1  0  0  0  0
 16 21  2  0  0  0  0
 17 16  1  0  0  0  0
 18 17  2  0  0  0  0
 18 19  1  0  0  0  0
 19 20  2  0  0  0  0
 20 21  1  0  0  0  0
 20 22  1  0  0  0  0
 21 11  1  0  0  0  0
 22 41  1  0  0  0  0
 23 24  1  0  0  0  0
 23 18  1  0  0  0  0
 24 43  1  0  0  0  0
 24 42  1  0  0  0  0
 25 45  1  0  0  0  0
 25 24  1  0  0  0  0
 26 46  1  6  0  0  0
 26 29  1  0  0  0  0
 26 25  1  0  0  0  0
 27 47  1  0  0  0  0
 27 26  1  0  0  0  0
 27 28  1  0  0  0  0
 28 50  1  0  0  0  0
 28 23  1  0  0  0  0
 29 30  2  0  0  0  0
 29 31  1  0  0  0  0
 31 52  1  0  0  0  0
 32  3  1  0  0  0  0
 33  4  1  0  0  0  0
 36  8  1  0  0  0  0
 39 12  1  0  0  0  0
 40 15  1  0  0  0  0
 44 25  1  0  0  0  0
 48 27  1  0  0  0  0
 49 28  1  0  0  0  0
 51 31  1  0  0  0  0
M  END
>  <Pose>
1

>  <Score>
-6.98

$$$$
