
 OpenBabel03202209423D

 42 45  0  0  0  0  0  0  0  0999 V2000
  -40.8450  -70.3980   56.6190 B   0  0  0  0  0  0  0  0  0  0  0  0
  -40.7210  -69.4910   54.9400 C   0  0  0  0  0  0  0  0  0  0  0  0
  -40.0040  -70.0430   53.8980 C   0  0  0  0  0  0  0  0  0  0  0  0
  -39.9260  -69.3750   52.6930 C   0  0  0  0  0  0  0  0  0  0  0  0
  -40.5380  -68.1570   52.4640 C   0  0  0  0  0  0  0  0  0  0  0  0
  -41.2540  -67.6180   53.5170 C   0  0  0  0  0  0  0  0  0  0  0  0
  -41.3420  -68.2740   54.7280 C   0  0  0  0  0  0  0  0  0  0  0  0
  -40.4420  -67.4850   51.2050 N   0  0  0  0  0  0  0  0  0  0  0  0
  -41.3990  -66.8000   50.6300 N   0  0  0  0  0  0  0  0  0  0  0  0
  -41.0200  -66.2780   49.4470 C   0  0  0  0  0  0  0  0  0  0  0  0
  -39.7210  -66.6670   49.2660 C   0  0  0  0  0  0  0  0  0  0  0  0
  -39.3820  -67.4170   50.3730 C   0  0  0  0  0  0  0  0  0  0  0  0
  -38.1020  -68.0400   50.6210 N   0  0  0  0  0  0  0  0  0  0  0  0
  -37.8330  -69.0950   51.3750 C   0  0  0  0  0  0  0  0  0  0  0  0
  -36.4860  -69.3750   51.3520 C   0  0  0  0  0  0  0  0  0  0  0  0
  -35.9310  -68.4220   50.5310 C   0  0  0  0  0  0  0  0  0  0  0  0
  -36.9480  -67.6050   50.0880 C   0  0  0  0  0  0  0  0  0  0  0  0
  -38.8940  -66.3300   48.1130 C   0  0  0  0  0  0  0  0  0  0  0  0
  -38.8330  -67.1870   47.1990 O   0  0  0  0  0  0  0  0  0  0  0  0
  -38.1850  -65.1160   47.9910 N   0  0  0  0  0  0  0  0  0  0  0  0
  -38.8000  -64.0120   47.2940 C   0  0  0  0  0  0  0  0  0  0  0  0
  -39.0680  -62.9260   48.2930 C   0  0  0  0  0  0  0  0  0  0  0  0
  -38.2330  -63.0520   49.4820 N   0  0  0  0  0  0  0  0  0  0  0  0
  -36.9940  -63.7520   49.4770 C   0  0  0  0  0  0  0  0  0  0  0  0
  -36.0800  -63.4090   50.2670 O   0  0  0  0  0  0  0  0  0  0  0  0
  -36.8610  -64.8700   48.5140 C   0  0  0  0  0  0  0  0  0  0  0  0
  -39.5050  -71.0100   54.0500 H   0  0  0  0  0  0  0  0  0  0  0  0
  -39.3570  -69.8270   51.8920 H   0  0  0  0  0  0  0  0  0  0  0  0
  -41.7380  -66.6590   53.3390 H   0  0  0  0  0  0  0  0  0  0  0  0
  -41.8990  -67.8470   55.5390 H   0  0  0  0  0  0  0  0  0  0  0  0
  -41.6630  -65.6730   48.8010 H   0  0  0  0  0  0  0  0  0  0  0  0
  -38.5650  -69.6670   51.9380 H   0  0  0  0  0  0  0  0  0  0  0  0
  -35.9620  -70.1870   51.8780 H   0  0  0  0  0  0  0  0  0  0  0  0
  -34.8820  -68.3310   50.2790 H   0  0  0  0  0  0  0  0  0  0  0  0
  -36.8230  -66.7420   49.4120 H   0  0  0  0  0  0  0  0  0  0  0  0
  -39.6720  -64.3020   46.6950 H   0  0  0  0  0  0  0  0  0  0  0  0
  -38.0430  -63.5950   46.5670 H   0  0  0  0  0  0  0  0  0  0  0  0
  -40.1380  -62.9250   48.5770 H   0  0  0  0  0  0  0  0  0  0  0  0
  -38.8510  -61.9080   47.8770 H   0  0  0  0  0  0  0  0  0  0  0  0
  -38.5840  -62.5960   50.3770 H   0  0  0  0  0  0  0  0  0  0  0  0
  -36.2130  -64.5550   47.6710 H   0  0  0  0  0  0  0  0  0  0  0  0
  -36.3950  -65.7660   48.9520 H   0  0  0  0  0  0  0  0  0  0  0  0
  2  1  1  0  0  0  0
  3 27  1  0  0  0  0
  3  2  2  0  0  0  0
  4  3  1  0  0  0  0
  5  4  2  0  0  0  0
  5  6  1  0  0  0  0
  6  7  2  0  0  0  0
  7  2  1  0  0  0  0
  7 30  1  0  0  0  0
  8  5  1  0  0  0  0
  9  8  1  0  0  0  0
 10  9  2  0  0  0  0
 11 10  1  0  0  0  0
 11 12  2  0  0  0  0
 12 13  1  0  0  0  0
 12  8  1  0  0  0  0
 13 14  1  0  0  0  0
 14 32  1  0  0  0  0
 15 14  2  0  0  0  0
 15 33  1  0  0  0  0
 16 15  1  0  0  0  0
 17 16  2  0  0  0  0
 17 13  1  0  0  0  0
 18 11  1  0  0  0  0
 19 18  2  0  0  0  0
 20 18  1  0  0  0  0
 20 26  1  0  0  0  0
 21 20  1  0  0  0  0
 21 22  1  0  0  0  0
 22 38  1  0  0  0  0
 22 23  1  0  0  0  0
 23 40  1  0  0  0  0
 24 23  1  0  0  0  0
 24 25  2  0  0  0  0
 26 42  1  0  0  0  0
 26 24  1  0  0  0  0
 28  4  1  0  0  0  0
 29  6  1  0  0  0  0
 31 10  1  0  0  0  0
 34 16  1  0  0  0  0
 35 17  1  0  0  0  0
 36 21  1  0  0  0  0
 37 21  1  0  0  0  0
 39 22  1  0  0  0  0
 41 26  1  0  0  0  0
M  END
>  <Pose>
1

>  <Score>
-5.35

$$$$
