
 OpenBabel03202209423D

 47 50  0  0  1  0  0  0  0  0999 V2000
  -49.4310  -68.3570   55.7610 B   0  0  0  0  0  0  0  0  0  0  0  0
  -48.2060  -67.3760   54.6640 C   0  0  0  0  0  0  0  0  0  0  0  0
  -48.4510  -66.0820   54.2930 C   0  0  0  0  0  0  0  0  0  0  0  0
  -47.5520  -65.3720   53.4910 C   0  0  0  0  0  0  0  0  0  0  0  0
  -46.3930  -65.9400   53.0450 C   0  0  0  0  0  0  0  0  0  0  0  0
  -46.1450  -67.2310   53.4110 C   0  0  0  0  0  0  0  0  0  0  0  0
  -47.0410  -67.9530   54.2150 C   0  0  0  0  0  0  0  0  0  0  0  0
  -45.4710  -65.2170   52.2260 N   0  0  0  0  0  0  0  0  0  0  0  0
  -44.1060  -64.9030   52.4760 C   0  0  0  0  0  0  0  0  0  0  0  0
  -43.5030  -65.1280   53.5470 O   0  0  0  0  0  0  0  0  0  0  0  0
  -43.4810  -64.2700   51.3050 C   0  0  2  0  0  0  0  0  0  0  0  0
  -44.6880  -63.6910   50.5740 C   0  0  0  0  0  0  0  0  0  0  0  0
  -45.7750  -64.6560   50.9340 C   0  0  0  0  0  0  0  0  0  0  0  0
  -46.7340  -64.8600   50.1660 O   0  0  0  0  0  0  0  0  0  0  0  0
  -42.7510  -65.1650   50.4360 N   0  0  0  0  0  4  0  0  0  0  0  0
  -41.3530  -64.8210   50.3400 C   0  0  0  0  0  0  0  0  0  0  0  0
  -40.4480  -65.6260   51.2450 C   0  0  0  0  0  0  0  0  0  0  0  0
  -40.8350  -67.0130   51.2760 N   0  0  0  0  0  0  0  0  0  0  0  0
  -41.8150  -67.3820   50.2820 C   0  0  0  0  0  0  0  0  0  0  0  0
  -43.0510  -66.5360   50.6430 C   0  0  0  0  0  0  0  0  0  0  0  0
  -40.3360  -67.9430   52.1940 C   0  0  0  0  0  0  0  0  0  0  0  0
  -39.1800  -68.6810   52.0370 C   0  0  0  0  0  0  0  0  0  0  0  0
  -38.7430  -69.6090   52.9690 C   0  0  0  0  0  0  0  0  0  0  0  0
  -39.4680  -69.8310   54.1090 C   0  0  0  0  0  0  0  0  0  0  0  0
  -40.6330  -69.1200   54.3170 C   0  0  0  0  0  0  0  0  0  0  0  0
  -41.0480  -68.1990   53.3720 C   0  0  0  0  0  0  0  0  0  0  0  0
  -39.0840  -70.7500   55.0860 O   0  0  0  0  0  0  0  0  0  0  0  0
  -49.3510  -65.6180   54.6310 H   0  0  0  0  0  0  0  0  0  0  0  0
  -47.8270  -64.3750   53.2570 H   0  0  0  0  0  0  0  0  0  0  0  0
  -45.2810  -67.7750   53.1230 H   0  0  0  0  0  0  0  0  0  0  0  0
  -46.8370  -68.9730   54.5010 H   0  0  0  0  0  0  0  0  0  0  0  0
  -42.8620  -63.3820   51.5760 H   0  0  0  0  0  0  0  0  0  0  0  0
  -44.9150  -62.6690   50.9190 H   0  0  0  0  0  0  0  0  0  0  0  0
  -44.4820  -63.7110   49.4890 H   0  0  0  0  0  0  0  0  0  0  0  0
  -43.1340  -64.9300   49.4580 H   0  0  0  0  0  0  0  0  0  0  0  0
  -41.2420  -63.7520   50.6210 H   0  0  0  0  0  0  0  0  0  0  0  0
  -40.9690  -64.9140   49.2980 H   0  0  0  0  0  0  0  0  0  0  0  0
  -39.4220  -65.5860   50.7750 H   0  0  0  0  0  0  0  0  0  0  0  0
  -40.3900  -65.1130   52.1940 H   0  0  0  0  0  0  0  0  0  0  0  0
  -41.4600  -67.0340   49.2900 H   0  0  0  0  0  0  0  0  0  0  0  0
  -42.0770  -68.4250   50.2220 H   0  0  0  0  0  0  0  0  0  0  0  0
  -43.2970  -66.6910   51.7220 H   0  0  0  0  0  0  0  0  0  0  0  0
  -43.9150  -66.8370   50.0370 H   0  0  0  0  0  0  0  0  0  0  0  0
  -38.5840  -68.5080   51.1250 H   0  0  0  0  0  0  0  0  0  0  0  0
  -37.8440  -70.1390   52.7810 H   0  0  0  0  0  0  0  0  0  0  0  0
  -41.2310  -69.2740   55.2080 H   0  0  0  0  0  0  0  0  0  0  0  0
  -41.9640  -67.6260   53.5110 H   0  0  0  0  0  0  0  0  0  0  0  0
  2  1  1  0  0  0  0
  3 28  1  0  0  0  0
  3  2  1  0  0  0  0
  4  3  2  0  0  0  0
  5  6  2  0  0  0  0
  5  4  1  0  0  0  0
  6  7  1  0  0  0  0
  7 31  1  0  0  0  0
  7  2  2  0  0  0  0
  8  9  1  0  0  0  0
  8  5  1  0  0  0  0
  9 10  2  0  0  0  0
 11 32  1  1  0  0  0
 11  9  1  0  0  0  0
 12 33  1  0  0  0  0
 12 13  1  0  0  0  0
 12 11  1  0  0  0  0
 13  8  1  0  0  0  0
 14 13  2  0  0  0  0
 15 20  1  0  0  0  0
 15 11  1  0  0  0  0
 16 15  1  0  0  0  0
 16 36  1  0  0  0  0
 16 17  1  0  0  0  0
 17 18  1  0  0  0  0
 17 39  1  0  0  0  0
 18 21  1  0  0  0  0
 19 20  1  0  0  0  0
 19 18  1  0  0  0  0
 20 42  1  0  0  0  0
 21 26  1  0  0  0  0
 22 21  2  0  0  0  0
 22 23  1  0  0  0  0
 23 24  2  0  0  0  0
 24 25  1  0  0  0  0
 24 27  1  0  0  0  0
 25 46  1  0  0  0  0
 26 47  1  0  0  0  0
 26 25  2  0  0  0  0
 29  4  1  0  0  0  0
 30  6  1  0  0  0  0
 34 12  1  0  0  0  0
 35 15  1  0  0  0  0
 37 16  1  0  0  0  0
 38 17  1  0  0  0  0
 40 19  1  0  0  0  0
 41 19  1  0  0  0  0
 43 20  1  0  0  0  0
 44 22  1  0  0  0  0
 45 23  1  0  0  0  0
M  END
>  <Pose>
1

>  <Score>
-5.54

$$$$
