
 OpenBabel03202209423D

 44 47  0  0  0  0  0  0  0  0999 V2000
  -52.0810  -64.6360   54.9680 B   0  0  0  0  0  0  0  0  0  0  0  0
  -50.2770  -64.9090   54.3680 C   0  0  0  0  0  0  0  0  0  0  0  0
  -49.5970  -63.9230   53.6870 C   0  0  0  0  0  0  0  0  0  0  0  0
  -48.2990  -64.1170   53.2540 C   0  0  0  0  0  0  0  0  0  0  0  0
  -47.6300  -65.3070   53.4840 C   0  0  0  0  0  0  0  0  0  0  0  0
  -48.3290  -66.2820   54.1670 C   0  0  0  0  0  0  0  0  0  0  0  0
  -49.6220  -66.0970   54.6020 C   0  0  0  0  0  0  0  0  0  0  0  0
  -46.2910  -65.4850   53.0280 N   0  0  0  0  0  0  0  0  0  0  0  0
  -45.2460  -65.9560   53.7280 C   0  0  0  0  0  0  0  0  0  0  0  0
  -45.3170  -66.3210   54.9420 O   0  0  0  0  0  0  0  0  0  0  0  0
  -44.0920  -65.9860   52.9450 C   0  0  0  0  0  0  0  0  0  0  0  0
  -44.4610  -65.5240   51.7540 C   0  0  0  0  0  0  0  0  0  0  0  0
  -43.3360  -65.5610   51.0170 N   0  0  0  0  0  0  0  0  0  0  0  0
  -42.3300  -66.0290   51.7370 N   0  0  0  0  0  0  0  0  0  0  0  0
  -42.7890  -66.2960   52.9360 N   0  0  0  0  0  0  0  0  0  0  0  0
  -42.0530  -66.8250   54.0560 C   0  0  0  0  0  0  0  0  0  0  0  0
  -42.2930  -68.2950   54.2380 C   0  0  0  0  0  0  0  0  0  0  0  0
  -43.1630  -68.5760   55.0960 O   0  0  0  0  0  0  0  0  0  0  0  0
  -41.6000  -69.2670   53.5110 N   0  0  0  0  0  0  0  0  0  0  0  0
  -40.4110  -69.1000   52.7920 C   0  0  0  0  0  0  0  0  0  0  0  0
  -39.2950  -69.8380   53.2190 C   0  0  0  0  0  0  0  0  0  0  0  0
  -38.1080  -69.7060   52.5430 C   0  0  0  0  0  0  0  0  0  0  0  0
  -37.9550  -68.8760   51.4530 C   0  0  0  0  0  0  0  0  0  0  0  0
  -39.0340  -68.1560   51.0330 C   0  0  0  0  0  0  0  0  0  0  0  0
  -40.2320  -68.2800   51.7050 C   0  0  0  0  0  0  0  0  0  0  0  0
  -39.3720  -70.7500   54.3760 C   0  0  0  0  0  0  0  0  0  0  0  0
  -45.8060  -65.2140   51.7950 C   0  0  0  0  0  0  0  0  0  0  0  0
  -46.5040  -64.7540   50.8650 O   0  0  0  0  0  0  0  0  0  0  0  0
  -50.0840  -62.9730   53.4850 H   0  0  0  0  0  0  0  0  0  0  0  0
  -47.7520  -63.3400   52.7140 H   0  0  0  0  0  0  0  0  0  0  0  0
  -47.8350  -67.2160   54.3600 H   0  0  0  0  0  0  0  0  0  0  0  0
  -50.1840  -66.8600   55.1430 H   0  0  0  0  0  0  0  0  0  0  0  0
  -43.3300  -65.2470   50.0130 H   0  0  0  0  0  0  0  0  0  0  0  0
  -41.3610  -66.1420   51.3590 H   0  0  0  0  0  0  0  0  0  0  0  0
  -40.9460  -66.7350   53.8790 H   0  0  0  0  0  0  0  0  0  0  0  0
  -42.3610  -66.2540   54.9590 H   0  0  0  0  0  0  0  0  0  0  0  0
  -42.0580  -70.2400   53.5240 H   0  0  0  0  0  0  0  0  0  0  0  0
  -37.2120  -70.2670   52.8450 H   0  0  0  0  0  0  0  0  0  0  0  0
  -37.0030  -68.7800   50.9230 H   0  0  0  0  0  0  0  0  0  0  0  0
  -38.9310  -67.4910   50.1690 H   0  0  0  0  0  0  0  0  0  0  0  0
  -41.0440  -67.6930   51.3320 H   0  0  0  0  0  0  0  0  0  0  0  0
  -38.3520  -71.0570   54.6790 H   0  0  0  0  0  0  0  0  0  0  0  0
  -39.8040  -70.2200   55.2610 H   0  0  0  0  0  0  0  0  0  0  0  0
  -39.9470  -71.6700   54.1810 H   0  0  0  0  0  0  0  0  0  0  0  0
  2  7  1  0  0  0  0
  2  1  1  0  0  0  0
  3  2  2  0  0  0  0
  4  5  2  0  0  0  0
  4  3  1  0  0  0  0
  5  6  1  0  0  0  0
  6 31  1  0  0  0  0
  6  7  2  0  0  0  0
  7 32  1  0  0  0  0
  8  5  1  0  0  0  0
  8  9  1  0  0  0  0
  9 10  2  0  0  0  0
 11  9  1  0  0  0  0
 12 27  1  0  0  0  0
 12 11  2  0  0  0  0
 13 14  1  0  0  0  0
 13 12  1  0  0  0  0
 14 15  1  0  0  0  0
 15 11  1  0  0  0  0
 15 16  1  0  0  0  0
 16 17  1  0  0  0  0
 16 36  1  0  0  0  0
 17 18  2  0  0  0  0
 19 37  1  0  0  0  0
 19 17  1  0  0  0  0
 20 21  1  0  0  0  0
 20 19  1  0  0  0  0
 21 26  1  0  0  0  0
 22 38  1  0  0  0  0
 22 21  2  0  0  0  0
 23 22  1  0  0  0  0
 24 23  2  0  0  0  0
 24 25  1  0  0  0  0
 25 20  2  0  0  0  0
 26 42  1  0  0  0  0
 26 43  1  0  0  0  0
 27  8  1  0  0  0  0
 28 27  2  0  0  0  0
 29  3  1  0  0  0  0
 30  4  1  0  0  0  0
 33 13  1  0  0  0  0
 34 14  1  0  0  0  0
 35 16  1  0  0  0  0
 39 23  1  0  0  0  0
 40 24  1  0  0  0  0
 41 25  1  0  0  0  0
 44 26  1  0  0  0  0
M  END
>  <Pose>
1

>  <Score>
-6.51

$$$$
