
 OpenBabel03202209423D

 49 52  0  0  0  0  0  0  0  0999 V2000
  -37.2830  -66.4160   49.0170 B   0  0  0  0  0  0  0  0  0  0  0  0
  -38.9410  -66.2570   49.9630 C   0  0  0  0  0  0  0  0  0  0  0  0
  -39.6600  -67.3730   50.3430 C   0  0  0  0  0  0  0  0  0  0  0  0
  -40.8640  -67.2510   51.0310 C   0  0  0  0  0  0  0  0  0  0  0  0
  -41.3840  -66.0160   51.3570 C   0  0  0  0  0  0  0  0  0  0  0  0
  -40.6630  -64.9060   50.9750 C   0  0  0  0  0  0  0  0  0  0  0  0
  -39.4680  -65.0250   50.2940 C   0  0  0  0  0  0  0  0  0  0  0  0
  -42.6110  -65.8530   52.0590 N   0  0  0  0  0  0  0  0  0  0  0  0
  -43.6760  -65.0870   51.7720 C   0  0  0  0  0  0  0  0  0  0  0  0
  -43.7250  -64.3520   50.7520 O   0  0  0  0  0  0  0  0  0  0  0  0
  -44.6670  -65.2290   52.7290 C   0  0  0  0  0  0  0  0  0  0  0  0
  -44.1940  -66.0970   53.6140 C   0  0  0  0  0  0  0  0  0  0  0  0
  -45.1540  -66.2330   54.5410 N   0  0  0  0  0  0  0  0  0  0  0  0
  -46.1850  -65.4690   54.2310 N   0  0  0  0  0  0  0  0  0  0  0  0
  -45.9060  -64.8430   53.1190 N   0  0  0  0  0  0  0  0  0  0  0  0
  -46.7350  -63.9020   52.4040 C   0  0  0  0  0  0  0  0  0  0  0  0
  -47.3770  -64.6030   51.2290 C   0  0  0  0  0  0  0  0  0  0  0  0
  -48.5830  -64.9280   51.2970 O   0  0  0  0  0  0  0  0  0  0  0  0
  -46.6240  -64.8820   50.0790 N   0  0  0  0  0  0  0  0  0  0  0  0
  -46.4500  -64.0220   48.9770 C   0  0  0  0  0  0  0  0  0  0  0  0
  -46.7060  -64.3320   47.6650 C   0  0  0  0  0  0  0  0  0  0  0  0
  -46.4970  -63.4480   46.6270 C   0  0  0  0  0  0  0  0  0  0  0  0
  -46.0080  -62.1950   46.9310 C   0  0  0  0  0  0  0  0  0  0  0  0
  -45.7380  -61.8420   48.2430 C   0  0  0  0  0  0  0  0  0  0  0  0
  -45.9510  -62.7360   49.2570 C   0  0  0  0  0  0  0  0  0  0  0  0
  -45.7910  -61.2880   45.8980 O   0  0  0  0  0  0  0  0  0  0  0  0
  -44.7380  -61.5220   44.9840 C   0  0  0  0  0  0  0  0  0  0  0  0
  -46.7660  -63.7920   45.3040 O   0  0  0  0  0  0  0  0  0  0  0  0
  -46.1760  -64.9960   44.7980 C   0  0  0  0  0  0  0  0  0  0  0  0
  -42.9330  -66.4840   53.2100 C   0  0  0  0  0  0  0  0  0  0  0  0
  -42.1830  -67.3120   53.8260 O   0  0  0  0  0  0  0  0  0  0  0  0
  -39.2430  -68.3440   50.0820 H   0  0  0  0  0  0  0  0  0  0  0  0
  -41.4180  -68.1260   51.3230 H   0  0  0  0  0  0  0  0  0  0  0  0
  -41.0790  -63.9360   51.2360 H   0  0  0  0  0  0  0  0  0  0  0  0
  -38.9180  -64.1260   50.0040 H   0  0  0  0  0  0  0  0  0  0  0  0
  -45.1270  -66.8370   55.3870 H   0  0  0  0  0  0  0  0  0  0  0  0
  -47.0950  -65.3630   54.7720 H   0  0  0  0  0  0  0  0  0  0  0  0
  -46.1580  -63.0410   51.9960 H   0  0  0  0  0  0  0  0  0  0  0  0
  -47.5630  -63.5360   53.0320 H   0  0  0  0  0  0  0  0  0  0  0  0
  -46.1350  -65.8360   50.0460 H   0  0  0  0  0  0  0  0  0  0  0  0
  -47.0970  -65.3050   47.4010 H   0  0  0  0  0  0  0  0  0  0  0  0
  -45.3510  -60.8420   48.4470 H   0  0  0  0  0  0  0  0  0  0  0  0
  -45.7300  -62.4410   50.2980 H   0  0  0  0  0  0  0  0  0  0  0  0
  -44.8950  -62.5520   44.5840 H   0  0  0  0  0  0  0  0  0  0  0  0
  -43.7780  -61.4880   45.5140 H   0  0  0  0  0  0  0  0  0  0  0  0
  -44.8070  -60.7800   44.1550 H   0  0  0  0  0  0  0  0  0  0  0  0
  -46.5960  -65.8850   45.3450 H   0  0  0  0  0  0  0  0  0  0  0  0
  -46.3730  -65.1020   43.7130 H   0  0  0  0  0  0  0  0  0  0  0  0
  -45.0780  -64.9840   44.9570 H   0  0  0  0  0  0  0  0  0  0  0  0
  1  2  1  0  0  0  0
  2  7  2  0  0  0  0
  2  3  1  0  0  0  0
  3  4  2  0  0  0  0
  4 33  1  0  0  0  0
  4  5  1  0  0  0  0
  5  8  1  0  0  0  0
  6 34  1  0  0  0  0
  6  5  2  0  0  0  0
  7  6  1  0  0  0  0
  8 30  1  0  0  0  0
  9  8  1  0  0  0  0
  9 11  1  0  0  0  0
 10  9  2  0  0  0  0
 11 15  1  0  0  0  0
 11 12  2  0  0  0  0
 12 13  1  0  0  0  0
 13 36  1  0  0  0  0
 14 13  1  0  0  0  0
 14 37  1  0  0  0  0
 15 14  1  0  0  0  0
 16 39  1  0  0  0  0
 16 15  1  0  0  0  0
 17 18  2  0  0  0  0
 17 16  1  0  0  0  0
 19 17  1  0  0  0  0
 20 25  1  0  0  0  0
 20 19  1  0  0  0  0
 21 20  2  0  0  0  0
 22 23  2  0  0  0  0
 22 21  1  0  0  0  0
 23 24  1  0  0  0  0
 24 42  1  0  0  0  0
 24 25  2  0  0  0  0
 25 43  1  0  0  0  0
 26 23  1  0  0  0  0
 27 45  1  0  0  0  0
 27 26  1  0  0  0  0
 28 22  1  0  0  0  0
 29 49  1  0  0  0  0
 29 28  1  0  0  0  0
 29 47  1  0  0  0  0
 30 12  1  0  0  0  0
 30 31  2  0  0  0  0
 32  3  1  0  0  0  0
 35  7  1  0  0  0  0
 38 16  1  0  0  0  0
 40 19  1  0  0  0  0
 41 21  1  0  0  0  0
 44 27  1  0  0  0  0
 46 27  1  0  0  0  0
 48 29  1  0  0  0  0
M  END
>  <Pose>
1

>  <Score>
-6.49

$$$$
