
 OpenBabel03202209423D

 50 53  0  0  0  0  0  0  0  0999 V2000
  -39.3920  -62.4050   47.2570 B   0  0  0  0  0  0  0  0  0  0  0  0
  -40.2420  -63.2740   48.7190 C   0  0  0  0  0  0  0  0  0  0  0  0
  -39.5860  -63.6050   49.8850 C   0  0  0  0  0  0  0  0  0  0  0  0
  -40.2220  -64.2280   50.9130 C   0  0  0  0  0  0  0  0  0  0  0  0
  -41.5660  -64.5570   50.8300 C   0  0  0  0  0  0  0  0  0  0  0  0
  -42.2320  -64.2340   49.6750 C   0  0  0  0  0  0  0  0  0  0  0  0
  -41.5770  -63.6070   48.6490 C   0  0  0  0  0  0  0  0  0  0  0  0
  -42.2000  -65.2100   51.9280 N   0  0  0  0  0  0  0  0  0  0  0  0
  -42.0230  -66.5210   52.2270 C   0  0  0  0  0  0  0  0  0  0  0  0
  -41.2880  -67.3420   51.5940 O   0  0  0  0  0  0  0  0  0  0  0  0
  -42.7730  -66.8470   53.3440 C   0  0  0  0  0  0  0  0  0  0  0  0
  -43.3900  -65.7230   53.7010 C   0  0  0  0  0  0  0  0  0  0  0  0
  -44.1330  -66.0160   54.7950 N   0  0  0  0  0  0  0  0  0  0  0  0
  -43.9450  -67.3030   55.0710 N   0  0  0  0  0  0  0  0  0  0  0  0
  -43.1160  -67.8460   54.2010 N   0  0  0  0  0  0  0  0  0  0  0  0
  -42.6310  -69.2190   54.1200 C   0  0  0  0  0  0  0  0  0  0  0  0
  -41.3080  -69.3160   54.8400 C   0  0  0  0  0  0  0  0  0  0  0  0
  -41.2780  -68.6270   55.8900 O   0  0  0  0  0  0  0  0  0  0  0  0
  -40.2890  -70.1110   54.3180 N   0  0  0  0  0  0  0  0  0  0  0  0
  -39.3570  -69.7580   53.3100 C   0  0  0  0  0  0  0  0  0  0  0  0
  -38.0360  -70.1380   53.2850 C   0  0  0  0  0  0  0  0  0  0  0  0
  -37.1750  -69.7460   52.2500 C   0  0  0  0  0  0  0  0  0  0  0  0
  -37.6170  -68.9630   51.2100 C   0  0  0  0  0  0  0  0  0  0  0  0
  -38.9350  -68.5780   51.2260 C   0  0  0  0  0  0  0  0  0  0  0  0
  -39.7820  -68.9650   52.2470 C   0  0  0  0  0  0  0  0  0  0  0  0
  -36.6850  -68.5800   50.1550 C   0  0  0  0  0  0  0  0  0  0  0  0
  -35.4830  -68.3910   50.4660 O   0  0  0  0  0  0  0  0  0  0  0  0
  -37.0310  -68.4100   48.8430 O   0  0  0  0  0  0  0  0  0  0  0  0
  -36.8560  -67.2490   48.0840 C   0  0  0  0  0  0  0  0  0  0  0  0
  -36.3490  -67.7010   46.7070 C   0  0  0  0  0  0  0  0  0  0  0  0
  -43.0470  -64.7090   52.8380 C   0  0  0  0  0  0  0  0  0  0  0  0
  -43.4400  -63.5220   52.8740 O   0  0  0  0  0  0  0  0  0  0  0  0
  -38.5350  -63.3480   49.9500 H   0  0  0  0  0  0  0  0  0  0  0  0
  -39.6610  -64.4760   51.8280 H   0  0  0  0  0  0  0  0  0  0  0  0
  -43.2810  -64.4760   49.5770 H   0  0  0  0  0  0  0  0  0  0  0  0
  -42.0970  -63.3420   47.7200 H   0  0  0  0  0  0  0  0  0  0  0  0
  -44.7340  -65.3450   55.3150 H   0  0  0  0  0  0  0  0  0  0  0  0
  -44.3910  -67.8020   55.8600 H   0  0  0  0  0  0  0  0  0  0  0  0
  -43.3640  -69.9370   54.5300 H   0  0  0  0  0  0  0  0  0  0  0  0
  -42.5140  -69.4480   53.0400 H   0  0  0  0  0  0  0  0  0  0  0  0
  -40.2120  -71.0930   54.7330 H   0  0  0  0  0  0  0  0  0  0  0  0
  -37.6640  -70.7480   54.0810 H   0  0  0  0  0  0  0  0  0  0  0  0
  -36.1320  -70.0680   52.2640 H   0  0  0  0  0  0  0  0  0  0  0  0
  -39.2750  -67.9570   50.3960 H   0  0  0  0  0  0  0  0  0  0  0  0
  -40.8310  -68.6380   52.2260 H   0  0  0  0  0  0  0  0  0  0  0  0
  -37.7920  -66.6850   47.9020 H   0  0  0  0  0  0  0  0  0  0  0  0
  -36.1180  -66.5390   48.5020 H   0  0  0  0  0  0  0  0  0  0  0  0
  -37.2060  -68.2030   46.1710 H   0  0  0  0  0  0  0  0  0  0  0  0
  -35.5570  -68.4620   46.8040 H   0  0  0  0  0  0  0  0  0  0  0  0
  -35.9620  -66.8690   46.1150 H   0  0  0  0  0  0  0  0  0  0  0  0
  1  2  1  0  0  0  0
  2  3  1  0  0  0  0
  3 33  1  0  0  0  0
  3  4  2  0  0  0  0
  4 34  1  0  0  0  0
  5  4  1  0  0  0  0
  5  8  1  0  0  0  0
  6  5  2  0  0  0  0
  7  2  2  0  0  0  0
  7  6  1  0  0  0  0
  8  9  1  0  0  0  0
  8 31  1  0  0  0  0
  9 11  1  0  0  0  0
 10  9  2  0  0  0  0
 11 12  2  0  0  0  0
 11 15  1  0  0  0  0
 12 13  1  0  0  0  0
 13 14  1  0  0  0  0
 13 37  1  0  0  0  0
 14 38  1  0  0  0  0
 15 14  1  0  0  0  0
 16 15  1  0  0  0  0
 16 39  1  0  0  0  0
 16 17  1  0  0  0  0
 17 18  2  0  0  0  0
 19 41  1  0  0  0  0
 19 17  1  0  0  0  0
 20 19  1  0  0  0  0
 21 20  1  0  0  0  0
 21 42  1  0  0  0  0
 22 43  1  0  0  0  0
 22 21  2  0  0  0  0
 23 24  2  0  0  0  0
 23 22  1  0  0  0  0
 24 25  1  0  0  0  0
 25 20  2  0  0  0  0
 26 27  2  0  0  0  0
 26 23  1  0  0  0  0
 28 26  1  0  0  0  0
 29 47  1  0  0  0  0
 29 28  1  0  0  0  0
 30 49  1  0  0  0  0
 30 29  1  0  0  0  0
 31 32  2  0  0  0  0
 31 12  1  0  0  0  0
 35  6  1  0  0  0  0
 36  7  1  0  0  0  0
 40 16  1  0  0  0  0
 44 24  1  0  0  0  0
 45 25  1  0  0  0  0
 46 29  1  0  0  0  0
 48 30  1  0  0  0  0
 50 30  1  0  0  0  0
M  END
>  <Pose>
1

>  <Score>
-7.43

$$$$
