
 OpenBabel03202209423D

 48 51  0  0  0  0  0  0  0  0999 V2000
  -34.6930  -66.4880   46.3320 B   0  0  0  0  0  0  0  0  0  0  0  0
  -35.6760  -67.1930   47.8080 C   0  0  0  0  0  0  0  0  0  0  0  0
  -36.9100  -67.7870   47.6520 C   0  0  0  0  0  0  0  0  0  0  0  0
  -37.6100  -68.2970   48.7350 C   0  0  0  0  0  0  0  0  0  0  0  0
  -37.1110  -68.2370   50.0200 C   0  0  0  0  0  0  0  0  0  0  0  0
  -35.8730  -67.6410   50.1800 C   0  0  0  0  0  0  0  0  0  0  0  0
  -35.1760  -67.1330   49.1030 C   0  0  0  0  0  0  0  0  0  0  0  0
  -37.7950  -68.7530   51.1580 N   0  0  0  0  0  0  0  0  0  0  0  0
  -39.0910  -68.5420   51.5200 C   0  0  0  0  0  0  0  0  0  0  0  0
  -39.8910  -67.8330   50.8630 O   0  0  0  0  0  0  0  0  0  0  0  0
  -39.3900  -69.2050   52.6900 C   0  0  0  0  0  0  0  0  0  0  0  0
  -38.2760  -69.8260   53.0490 C   0  0  0  0  0  0  0  0  0  0  0  0
  -38.5380  -70.4840   54.1930 N   0  0  0  0  0  0  0  0  0  0  0  0
  -39.8030  -70.2570   54.5160 N   0  0  0  0  0  0  0  0  0  0  0  0
  -40.3570  -69.4720   53.6120 N   0  0  0  0  0  0  0  0  0  0  0  0
  -41.7000  -68.9690   53.5780 C   0  0  0  0  0  0  0  0  0  0  0  0
  -42.1550  -68.3860   54.8950 C   0  0  0  0  0  0  0  0  0  0  0  0
  -41.4610  -68.6890   55.8890 O   0  0  0  0  0  0  0  0  0  0  0  0
  -43.2740  -67.5610   54.9880 N   0  0  0  0  0  0  0  0  0  0  0  0
  -43.7380  -66.5630   54.1140 C   0  0  0  0  0  0  0  0  0  0  0  0
  -42.8400  -65.6630   53.5410 C   0  0  0  0  0  0  0  0  0  0  0  0
  -43.2510  -64.6650   52.6990 C   0  0  0  0  0  0  0  0  0  0  0  0
  -44.6030  -64.5190   52.3870 C   0  0  0  0  0  0  0  0  0  0  0  0
  -45.4620  -65.4210   52.9650 C   0  0  0  0  0  0  0  0  0  0  0  0
  -45.0550  -66.4270   53.8100 C   0  0  0  0  0  0  0  0  0  0  0  0
  -44.9720  -63.5000   51.5400 O   0  0  0  0  0  0  0  0  0  0  0  0
  -44.6690  -63.3880   50.1870 C   0  0  0  0  0  0  0  0  0  0  0  0
  -45.0870  -62.1000   49.5650 C   0  0  0  0  0  0  0  0  0  0  0  0
  -37.3020  -69.5520   52.1150 C   0  0  0  0  0  0  0  0  0  0  0  0
  -36.1030  -69.9740   52.1220 O   0  0  0  0  0  0  0  0  0  0  0  0
  -37.3050  -67.8350   46.6390 H   0  0  0  0  0  0  0  0  0  0  0  0
  -38.5750  -68.7610   48.6100 H   0  0  0  0  0  0  0  0  0  0  0  0
  -35.4840  -67.5950   51.1920 H   0  0  0  0  0  0  0  0  0  0  0  0
  -34.2130  -66.6730   49.2550 H   0  0  0  0  0  0  0  0  0  0  0  0
  -37.8940  -71.0750   54.7480 H   0  0  0  0  0  0  0  0  0  0  0  0
  -40.2860  -70.6530   55.3750 H   0  0  0  0  0  0  0  0  0  0  0  0
  -41.7870  -68.1540   52.8110 H   0  0  0  0  0  0  0  0  0  0  0  0
  -42.4540  -69.7660   53.3370 H   0  0  0  0  0  0  0  0  0  0  0  0
  -43.8810  -67.7080   55.8690 H   0  0  0  0  0  0  0  0  0  0  0  0
  -41.7930  -65.7550   53.7670 H   0  0  0  0  0  0  0  0  0  0  0  0
  -42.5170  -63.9720   52.2650 H   0  0  0  0  0  0  0  0  0  0  0  0
  -46.5150  -65.3470   52.7540 H   0  0  0  0  0  0  0  0  0  0  0  0
  -45.7950  -67.1190   54.2350 H   0  0  0  0  0  0  0  0  0  0  0  0
  -43.5450  -63.4550   50.0800 H   0  0  0  0  0  0  0  0  0  0  0  0
  -45.0940  -64.2270   49.5950 H   0  0  0  0  0  0  0  0  0  0  0  0
  -44.2550  -61.4480   49.2290 H   0  0  0  0  0  0  0  0  0  0  0  0
  -45.6970  -62.2870   48.6510 H   0  0  0  0  0  0  0  0  0  0  0  0
  -45.7440  -61.4700   50.2230 H   0  0  0  0  0  0  0  0  0  0  0  0
  1  2  1  0  0  0  0
  2  7  1  0  0  0  0
  3  2  2  0  0  0  0
  3  4  1  0  0  0  0
  4  5  2  0  0  0  0
  5  6  1  0  0  0  0
  5  8  1  0  0  0  0
  6 33  1  0  0  0  0
  7 34  1  0  0  0  0
  7  6  2  0  0  0  0
  8  9  1  0  0  0  0
  8 29  1  0  0  0  0
  9 11  1  0  0  0  0
 10  9  2  0  0  0  0
 11 12  2  0  0  0  0
 11 15  1  0  0  0  0
 12 13  1  0  0  0  0
 13 14  1  0  0  0  0
 13 35  1  0  0  0  0
 14 36  1  0  0  0  0
 15 14  1  0  0  0  0
 16 15  1  0  0  0  0
 16 17  1  0  0  0  0
 17 19  1  0  0  0  0
 17 18  2  0  0  0  0
 19 39  1  0  0  0  0
 20 19  1  0  0  0  0
 21 40  1  0  0  0  0
 21 20  2  0  0  0  0
 22 21  1  0  0  0  0
 23 22  2  0  0  0  0
 23 24  1  0  0  0  0
 24 25  2  0  0  0  0
 25 20  1  0  0  0  0
 25 43  1  0  0  0  0
 26 23  1  0  0  0  0
 27 26  1  0  0  0  0
 28 27  1  0  0  0  0
 28 48  1  0  0  0  0
 29 30  2  0  0  0  0
 29 12  1  0  0  0  0
 31  3  1  0  0  0  0
 32  4  1  0  0  0  0
 37 16  1  0  0  0  0
 38 16  1  0  0  0  0
 41 22  1  0  0  0  0
 42 24  1  0  0  0  0
 44 27  1  0  0  0  0
 45 27  1  0  0  0  0
 46 28  1  0  0  0  0
 47 28  1  0  0  0  0
M  END
>  <Pose>
1

>  <Score>
-7.77

$$$$
