
 OpenBabel03202209423D

 36 39  0  0  0  0  0  0  0  0999 V2000
  -52.4270  -68.5420   54.6800 B   0  0  0  0  0  0  0  0  0  0  0  0
  -50.7460  -67.7040   54.3090 C   0  0  0  0  0  0  0  0  0  0  0  0
  -50.6080  -66.7700   53.3040 C   0  0  0  0  0  0  0  0  0  0  0  0
  -49.3790  -66.1690   53.0450 C   0  0  0  0  0  0  0  0  0  0  0  0
  -48.2610  -66.4870   53.7860 C   0  0  0  0  0  0  0  0  0  0  0  0
  -48.4130  -67.4230   54.7880 C   0  0  0  0  0  0  0  0  0  0  0  0
  -49.6290  -68.0250   55.0520 C   0  0  0  0  0  0  0  0  0  0  0  0
  -46.9810  -65.8870   53.5460 N   0  0  0  0  0  0  0  0  0  0  0  0
  -45.7870  -66.5170   53.5890 C   0  0  0  0  0  0  0  0  0  0  0  0
  -45.5660  -67.7430   53.8470 O   0  0  0  0  0  0  0  0  0  0  0  0
  -44.7570  -65.6380   53.3070 C   0  0  0  0  0  0  0  0  0  0  0  0
  -45.3530  -64.4630   53.0920 C   0  0  0  0  0  0  0  0  0  0  0  0
  -44.3460  -63.6000   52.8150 N   0  0  0  0  0  0  0  0  0  0  0  0
  -43.2010  -64.2590   52.8690 N   0  0  0  0  0  0  0  0  0  0  0  0
  -43.4240  -65.5260   53.1720 N   0  0  0  0  0  0  0  0  0  0  0  0
  -42.4410  -66.5590   53.3230 C   0  0  0  0  0  0  0  0  0  0  0  0
  -42.5130  -67.4630   54.3630 C   0  0  0  0  0  0  0  0  0  0  0  0
  -41.5770  -68.4750   54.5340 C   0  0  0  0  0  0  0  0  0  0  0  0
  -40.5280  -68.6020   53.6480 C   0  0  0  0  0  0  0  0  0  0  0  0
  -40.4540  -67.7000   52.6090 C   0  0  0  0  0  0  0  0  0  0  0  0
  -41.3910  -66.6920   52.4400 C   0  0  0  0  0  0  0  0  0  0  0  0
  -39.5520  -69.6290   53.7980 N   0  0  0  0  0  0  0  0  0  0  0  0
  -39.3460  -70.1940   54.8890 O   0  0  0  0  0  0  0  0  0  0  0  0
  -38.8170  -70.0100   52.7200 O   0  0  0  0  0  0  0  0  0  0  0  0
  -46.7170  -64.6060   53.2370 C   0  0  0  0  0  0  0  0  0  0  0  0
  -47.6060  -63.7280   53.1120 O   0  0  0  0  0  0  0  0  0  0  0  0
  -51.4980  -66.5260   52.7260 H   0  0  0  0  0  0  0  0  0  0  0  0
  -49.2710  -65.4470   52.2700 H   0  0  0  0  0  0  0  0  0  0  0  0
  -47.5370  -67.6850   55.3830 H   0  0  0  0  0  0  0  0  0  0  0  0
  -49.7340  -68.7660   55.8510 H   0  0  0  0  0  0  0  0  0  0  0  0
  -44.4830  -62.5780   52.5970 H   0  0  0  0  0  0  0  0  0  0  0  0
  -42.2340  -63.8750   52.7030 H   0  0  0  0  0  0  0  0  0  0  0  0
  -43.3240  -67.3810   55.0660 H   0  0  0  0  0  0  0  0  0  0  0  0
  -41.6490  -69.1850   55.3670 H   0  0  0  0  0  0  0  0  0  0  0  0
  -39.6270  -67.8150   51.9240 H   0  0  0  0  0  0  0  0  0  0  0  0
  -41.3230  -65.9910   51.6220 H   0  0  0  0  0  0  0  0  0  0  0  0
  2  1  1  0  0  0  0
  2  7  1  0  0  0  0
  3  2  2  0  0  0  0
  4  3  1  0  0  0  0
  4  5  2  0  0  0  0
  5  6  1  0  0  0  0
  6  7  2  0  0  0  0
  6 29  1  0  0  0  0
  7 30  1  0  0  0  0
  8  9  1  0  0  0  0
  8  5  1  0  0  0  0
  9 10  2  0  0  0  0
 11  9  1  0  0  0  0
 12 25  1  0  0  0  0
 12 11  2  0  0  0  0
 13 14  1  0  0  0  0
 13 12  1  0  0  0  0
 14 15  1  0  0  0  0
 15 11  1  0  0  0  0
 15 16  1  0  0  0  0
 16 17  1  0  0  0  0
 17 18  2  0  0  0  0
 17 33  1  0  0  0  0
 18 34  1  0  0  0  0
 19 22  1  0  0  0  0
 19 18  1  0  0  0  0
 20 19  2  0  0  0  0
 21 20  1  0  0  0  0
 21 16  2  0  0  0  0
 22 23  2  0  0  0  0
 24 22  2  0  0  0  0
 25  8  1  0  0  0  0
 26 25  2  0  0  0  0
 27  3  1  0  0  0  0
 28  4  1  0  0  0  0
 31 13  1  0  0  0  0
 32 14  1  0  0  0  0
 35 20  1  0  0  0  0
 36 21  1  0  0  0  0
M  END
>  <Pose>
1

>  <Score>
-6.41

$$$$
