
 OpenBabel03202209423D

 38 42  0  0  1  0  0  0  0  0999 V2000
  -37.9700  -69.7840   51.1610 B   0  0  0  0  0  0  0  0  0  0  0  0
  -39.4160  -68.7570   51.8310 C   0  0  0  0  0  0  0  0  0  0  0  0
  -39.7380  -68.8300   53.1650 C   0  0  0  0  0  0  0  0  0  0  0  0
  -40.7920  -68.0720   53.6250 C   0  0  0  0  0  0  0  0  0  0  0  0
  -41.5250  -67.2540   52.7940 C   0  0  0  0  0  0  0  0  0  0  0  0
  -41.2010  -67.1780   51.4460 C   0  0  0  0  0  0  0  0  0  0  0  0
  -40.1310  -67.9470   50.9840 C   0  0  0  0  0  0  0  0  0  0  0  0
  -42.6190  -66.4690   53.2860 N   0  0  0  0  0  0  0  0  0  0  0  0
  -43.4730  -66.9080   54.3310 C   0  0  0  0  0  0  0  0  0  0  0  0
  -43.1810  -67.8180   55.1440 O   0  0  0  0  0  0  0  0  0  0  0  0
  -44.7340  -66.1210   54.2910 C   0  0  2  0  0  0  0  0  0  0  0  0
  -45.8090  -66.8140   53.5120 C   0  0  1  0  0  0  0  0  0  0  0  0
  -46.5060  -65.7010   52.9920 O   0  0  0  0  0  0  0  0  0  0  0  0
  -45.4200  -65.1410   52.2730 C   0  0  1  0  0  0  0  0  0  0  0  0
  -44.4260  -64.9430   53.3660 C   0  0  2  0  0  0  0  0  0  0  0  0
  -43.0470  -65.1760   52.8590 C   0  0  0  0  0  0  0  0  0  0  0  0
  -42.4000  -64.3710   52.1830 O   0  0  0  0  0  0  0  0  0  0  0  0
  -45.0160  -66.3310   51.4790 C   0  0  0  0  0  0  0  0  0  0  0  0
  -45.2050  -67.3680   52.2900 C   0  0  0  0  0  0  0  0  0  0  0  0
  -46.6700  -67.7190   54.2840 C   0  0  0  0  0  0  0  0  0  0  0  0
  -47.4970  -68.4920   53.5160 O   0  0  0  0  0  0  0  0  0  0  0  0
  -48.7910  -68.0720   53.6990 C   0  0  0  0  0  0  0  0  0  0  0  0
  -48.7350  -66.9460   54.6770 C   0  0  0  0  0  0  0  0  0  0  0  0
  -47.4490  -67.0340   55.1990 O   0  0  0  0  0  0  0  0  0  0  0  0
  -39.1890  -69.4640   53.8670 H   0  0  0  0  0  0  0  0  0  0  0  0
  -41.0760  -68.1080   54.6880 H   0  0  0  0  0  0  0  0  0  0  0  0
  -41.7820  -66.5340   50.8090 H   0  0  0  0  0  0  0  0  0  0  0  0
  -39.8790  -67.8880   49.9350 H   0  0  0  0  0  0  0  0  0  0  0  0
  -45.0310  -65.8150   55.2930 H   0  0  0  0  0  0  0  0  0  0  0  0
  -45.6890  -64.2720   51.6990 H   0  0  0  0  0  0  0  0  0  0  0  0
  -44.5050  -63.9930   53.8950 H   0  0  0  0  0  0  0  0  0  0  0  0
  -44.6540  -66.2770   50.4610 H   0  0  0  0  0  0  0  0  0  0  0  0
  -44.9280  -68.3770   52.0020 H   0  0  0  0  0  0  0  0  0  0  0  0
  -46.0040  -68.3990   54.8790 H   0  0  0  0  0  0  0  0  0  0  0  0
  -49.4640  -68.8670   54.0760 H   0  0  0  0  0  0  0  0  0  0  0  0
  -49.1590  -67.6670   52.7210 H   0  0  0  0  0  0  0  0  0  0  0  0
  -49.5070  -67.0840   55.4900 H   0  0  0  0  0  0  0  0  0  0  0  0
  -48.8650  -65.9400   54.2030 H   0  0  0  0  0  0  0  0  0  0  0  0
  1  2  1  0  0  0  0
  2  3  1  0  0  0  0
  3  4  2  0  0  0  0
  3 25  1  0  0  0  0
  4 26  1  0  0  0  0
  5  8  1  0  0  0  0
  5  4  1  0  0  0  0
  6  5  2  0  0  0  0
  7  6  1  0  0  0  0
  7  2  2  0  0  0  0
  8  9  1  0  0  0  0
  9 10  2  0  0  0  0
 11  9  1  0  0  0  0
 11 29  1  1  0  0  0
 12 20  1  1  0  0  0
 12 11  1  0  0  0  0
 13 12  1  0  0  0  0
 14 30  1  6  0  0  0
 14 13  1  0  0  0  0
 14 15  1  0  0  0  0
 15 31  1  1  0  0  0
 15 11  1  0  0  0  0
 16  8  1  0  0  0  0
 16 15  1  0  0  0  0
 17 16  2  0  0  0  0
 18 14  1  0  0  0  0
 18 19  2  0  0  0  0
 19 12  1  0  0  0  0
 20 34  1  0  0  0  0
 20 24  1  0  0  0  0
 21 22  1  0  0  0  0
 21 20  1  0  0  0  0
 22 35  1  0  0  0  0
 22 23  1  0  0  0  0
 23 24  1  0  0  0  0
 23 37  1  0  0  0  0
 27  6  1  0  0  0  0
 28  7  1  0  0  0  0
 32 18  1  0  0  0  0
 33 19  1  0  0  0  0
 36 22  1  0  0  0  0
 38 23  1  0  0  0  0
M  END
>  <Pose>
1

>  <Score>
-4.38

$$$$
