
 OpenBabel03202209423D

 41 44  0  0  1  0  0  0  0  0999 V2000
  -42.4030  -61.0720   46.6070 B   0  0  0  0  0  0  0  0  0  0  0  0
  -42.8920  -62.2080   48.0860 C   0  0  0  0  0  0  0  0  0  0  0  0
  -42.0410  -63.2080   48.4810 C   0  0  0  0  0  0  0  0  0  0  0  0
  -42.4020  -63.9990   49.5240 C   0  0  0  0  0  0  0  0  0  0  0  0
  -43.6010  -63.8600   50.2330 C   0  0  0  0  0  0  0  0  0  0  0  0
  -44.4330  -62.8540   49.8210 C   0  0  0  0  0  0  0  0  0  0  0  0
  -44.0850  -62.0370   48.7610 C   0  0  0  0  0  0  0  0  0  0  0  0
  -43.8970  -64.7280   51.3080 N   0  0  0  0  0  0  0  0  0  0  0  0
  -45.1870  -65.1500   51.7910 C   0  0  0  0  0  0  0  0  0  0  0  0
  -46.2580  -65.1920   51.1220 O   0  0  0  0  0  0  0  0  0  0  0  0
  -45.0110  -65.5230   53.2140 C   0  0  1  0  0  0  0  0  0  0  0  0
  -45.8520  -66.6180   53.6550 N   0  0  0  0  0  0  0  0  0  0  0  0
  -44.9330  -67.2480   54.5500 N   0  0  0  0  0  0  0  0  0  0  0  0
  -43.6360  -67.2340   53.9530 C   0  0  0  0  0  0  0  0  0  0  0  0
  -43.6570  -66.1910   53.1320 C   0  0  0  0  0  0  0  0  0  0  0  0
  -42.9420  -65.3830   52.1510 C   0  0  0  0  0  0  0  0  0  0  0  0
  -41.6810  -65.3340   52.1300 O   0  0  0  0  0  0  0  0  0  0  0  0
  -42.5240  -68.1490   54.1860 C   0  0  0  0  0  0  0  0  0  0  0  0
  -42.5070  -68.9320   55.1650 O   0  0  0  0  0  0  0  0  0  0  0  0
  -41.4240  -68.2050   53.3420 O   0  0  0  0  0  0  0  0  0  0  0  0
  -40.4570  -69.2400   53.4440 C   0  0  0  0  0  0  0  0  0  0  0  0
  -39.3740  -69.0070   52.4310 C   0  0  0  0  0  0  0  0  0  0  0  0
  -39.5090  -68.0020   51.4740 C   0  0  0  0  0  0  0  0  0  0  0  0
  -38.5430  -67.7520   50.5370 C   0  0  0  0  0  0  0  0  0  0  0  0
  -37.3880  -68.5290   50.5360 C   0  0  0  0  0  0  0  0  0  0  0  0
  -37.2590  -69.5220   51.4820 C   0  0  0  0  0  0  0  0  0  0  0  0
  -38.2500  -69.7670   52.4350 C   0  0  0  0  0  0  0  0  0  0  0  0
  -41.0970  -63.3460   47.9520 H   0  0  0  0  0  0  0  0  0  0  0  0
  -41.7340  -64.7890   49.8390 H   0  0  0  0  0  0  0  0  0  0  0  0
  -45.3790  -62.6830   50.3190 H   0  0  0  0  0  0  0  0  0  0  0  0
  -44.7360  -61.2410   48.4290 H   0  0  0  0  0  0  0  0  0  0  0  0
  -45.0120  -64.6760   53.9020 H   0  0  0  0  0  0  0  0  0  0  0  0
  -45.9060  -67.2740   52.8260 H   0  0  0  0  0  0  0  0  0  0  0  0
  -45.1590  -67.6520   55.4800 H   0  0  0  0  0  0  0  0  0  0  0  0
  -40.0480  -69.3470   54.4480 H   0  0  0  0  0  0  0  0  0  0  0  0
  -40.9490  -70.1910   53.1620 H   0  0  0  0  0  0  0  0  0  0  0  0
  -40.3900  -67.3990   51.4670 H   0  0  0  0  0  0  0  0  0  0  0  0
  -38.6420  -66.9770   49.7930 H   0  0  0  0  0  0  0  0  0  0  0  0
  -36.6010  -68.3590   49.8030 H   0  0  0  0  0  0  0  0  0  0  0  0
  -36.3940  -70.1510   51.5320 H   0  0  0  0  0  0  0  0  0  0  0  0
  -38.1170  -70.5510   53.1620 H   0  0  0  0  0  0  0  0  0  0  0  0
  1  2  1  0  0  0  0
  2  3  2  0  0  0  0
  2  7  1  0  0  0  0
  3  4  1  0  0  0  0
  4 29  1  0  0  0  0
  4  5  2  0  0  0  0
  5  8  1  0  0  0  0
  6  5  1  0  0  0  0
  6 30  1  0  0  0  0
  7  6  2  0  0  0  0
  8  9  1  0  0  0  0
  8 16  1  0  0  0  0
  9 11  1  0  0  0  0
 10  9  2  0  0  0  0
 11 12  1  0  0  0  0
 11 32  1  1  0  0  0
 12 13  1  0  0  0  0
 13 34  1  0  0  0  0
 14 18  1  0  0  0  0
 14 13  1  0  0  0  0
 15 11  1  0  0  0  0
 15 14  2  0  0  0  0
 16 15  1  0  0  0  0
 17 16  2  0  0  0  0
 18 19  2  0  0  0  0
 20 21  1  0  0  0  0
 20 18  1  0  0  0  0
 21 35  1  0  0  0  0
 22 27  1  0  0  0  0
 22 21  1  0  0  0  0
 23 22  2  0  0  0  0
 24 23  1  0  0  0  0
 25 24  2  0  0  0  0
 25 26  1  0  0  0  0
 26 40  1  0  0  0  0
 26 27  2  0  0  0  0
 27 41  1  0  0  0  0
 28  3  1  0  0  0  0
 31  7  1  0  0  0  0
 33 12  1  0  0  0  0
 36 21  1  0  0  0  0
 37 23  1  0  0  0  0
 38 24  1  0  0  0  0
 39 25  1  0  0  0  0
M  END
>  <Pose>
1

>  <Score>
-6.06

$$$$
