
 OpenBabel03202209423D

 50 53  0  0  0  0  0  0  0  0999 V2000
  -48.7680  -59.2720   50.0260 B   0  0  0  0  0  0  0  0  0  0  0  0
  -47.2120  -60.1470   49.3350 C   0  0  0  0  0  0  0  0  0  0  0  0
  -46.0020  -59.4800   49.2510 C   0  0  0  0  0  0  0  0  0  0  0  0
  -44.8840  -60.1200   48.7510 C   0  0  0  0  0  0  0  0  0  0  0  0
  -44.9240  -61.4310   48.3200 C   0  0  0  0  0  0  0  0  0  0  0  0
  -46.1220  -62.1090   48.3980 C   0  0  0  0  0  0  0  0  0  0  0  0
  -47.2280  -61.4550   48.9000 C   0  0  0  0  0  0  0  0  0  0  0  0
  -43.7660  -62.0370   47.8200 N   0  0  0  0  0  0  0  0  0  0  0  0
  -43.3670  -61.7930   46.4700 C   0  0  0  0  0  0  0  0  0  0  0  0
  -44.0990  -61.0200   45.7720 O   0  0  0  0  0  0  0  0  0  0  0  0
  -42.1970  -62.4080   45.9610 N   0  0  0  0  0  0  0  0  0  0  0  0
  -41.3640  -63.2760   46.7230 C   0  0  0  0  0  0  0  0  0  0  0  0
  -40.3250  -63.8090   46.2420 O   0  0  0  0  0  0  0  0  0  0  0  0
  -41.7450  -63.5490   48.1200 C   0  0  0  0  0  0  0  0  0  0  0  0
  -41.0120  -64.3490   48.8790 C   0  0  0  0  0  0  0  0  0  0  0  0
  -41.4060  -64.5930   50.2220 N   0  0  0  0  0  0  0  0  0  0  0  0
  -42.0920  -65.7110   50.6650 N   0  0  0  0  0  0  0  0  0  0  0  0
  -41.5670  -66.6780   51.5660 C   0  0  0  0  0  0  0  0  0  0  0  0
  -42.0160  -66.9000   52.8050 N   0  0  0  0  0  0  0  0  0  0  0  0
  -41.2970  -67.8810   53.3750 C   0  0  0  0  0  0  0  0  0  0  0  0
  -40.3520  -68.2910   52.4440 C   0  0  0  0  0  0  0  0  0  0  0  0
  -40.5600  -67.5310   51.3700 N   0  0  0  0  0  0  0  0  0  0  0  0
  -39.4700  -69.2700   52.7170 N   0  0  0  0  0  0  0  0  0  0  0  0
  -39.5090  -69.8570   53.9130 C   0  0  0  0  0  0  0  0  0  0  0  0
  -38.6960  -70.7850   54.2100 O   0  0  0  0  0  0  0  0  0  0  0  0
  -40.4090  -69.5050   54.8700 N   0  0  0  0  0  0  0  0  0  0  0  0
  -41.2910  -68.5190   54.5860 C   0  0  0  0  0  0  0  0  0  0  0  0
  -42.1170  -68.1920   55.4630 O   0  0  0  0  0  0  0  0  0  0  0  0
  -40.4120  -70.1720   56.1470 C   0  0  0  0  0  0  0  0  0  0  0  0
  -38.5230  -69.6380   51.7060 C   0  0  0  0  0  0  0  0  0  0  0  0
  -43.1100  -66.2400   53.5260 C   0  0  0  0  0  0  0  0  0  0  0  0
  -42.9550  -62.9010   48.6130 C   0  0  0  0  0  0  0  0  0  0  0  0
  -43.3200  -63.1040   49.8000 O   0  0  0  0  0  0  0  0  0  0  0  0
  -45.9950  -58.4550   49.5950 H   0  0  0  0  0  0  0  0  0  0  0  0
  -43.9720  -59.5160   48.7200 H   0  0  0  0  0  0  0  0  0  0  0  0
  -46.2180  -63.1560   48.0710 H   0  0  0  0  0  0  0  0  0  0  0  0
  -48.1480  -62.0200   48.9440 H   0  0  0  0  0  0  0  0  0  0  0  0
  -41.9400  -62.2030   44.9680 H   0  0  0  0  0  0  0  0  0  0  0  0
  -40.1270  -64.8240   48.5160 H   0  0  0  0  0  0  0  0  0  0  0  0
  -41.1380  -63.8420   50.9150 H   0  0  0  0  0  0  0  0  0  0  0  0
  -43.0770  -65.8120   50.2800 H   0  0  0  0  0  0  0  0  0  0  0  0
  -39.7440  -71.0560   56.0910 H   0  0  0  0  0  0  0  0  0  0  0  0
  -41.4200  -70.5720   56.3970 H   0  0  0  0  0  0  0  0  0  0  0  0
  -40.0820  -69.4730   56.9360 H   0  0  0  0  0  0  0  0  0  0  0  0
  -37.5350  -69.1560   51.8440 H   0  0  0  0  0  0  0  0  0  0  0  0
  -38.4330  -70.7440   51.7020 H   0  0  0  0  0  0  0  0  0  0  0  0
  -38.8970  -69.3450   50.7020 H   0  0  0  0  0  0  0  0  0  0  0  0
  -44.0290  -66.8820   53.4050 H   0  0  0  0  0  0  0  0  0  0  0  0
  -42.9100  -66.1710   54.5960 H   0  0  0  0  0  0  0  0  0  0  0  0
  -43.3370  -65.2700   53.0420 H   0  0  0  0  0  0  0  0  0  0  0  0
  2  1  1  0  0  0  0
  3  2  1  0  0  0  0
  3 34  1  0  0  0  0
  4  3  2  0  0  0  0
  5  6  2  0  0  0  0
  5  4  1  0  0  0  0
  6  7  1  0  0  0  0
  7 37  1  0  0  0  0
  7  2  2  0  0  0  0
  8  5  1  0  0  0  0
  8 32  1  0  0  0  0
  9  8  1  0  0  0  0
 10  9  2  0  0  0  0
 11  9  1  0  0  0  0
 11 12  1  0  0  0  0
 12 14  1  0  0  0  0
 13 12  2  0  0  0  0
 14 32  1  0  0  0  0
 14 15  2  0  0  0  0
 15 16  1  0  0  0  0
 16 17  1  0  0  0  0
 16 40  1  0  0  0  0
 17 18  1  0  0  0  0
 18 19  1  0  0  0  0
 19 20  1  0  0  0  0
 19 31  1  0  0  0  0
 20 27  1  0  0  0  0
 21 23  1  0  0  0  0
 21 20  2  0  0  0  0
 22 18  2  0  0  0  0
 22 21  1  0  0  0  0
 23 24  1  0  0  0  0
 24 25  2  0  0  0  0
 24 26  1  0  0  0  0
 26 29  1  0  0  0  0
 27 26  1  0  0  0  0
 27 28  2  0  0  0  0
 29 43  1  0  0  0  0
 29 44  1  0  0  0  0
 30 45  1  0  0  0  0
 30 23  1  0  0  0  0
 31 49  1  0  0  0  0
 32 33  2  0  0  0  0
 35  4  1  0  0  0  0
 36  6  1  0  0  0  0
 38 11  1  0  0  0  0
 39 15  1  0  0  0  0
 41 17  1  0  0  0  0
 42 29  1  0  0  0  0
 46 30  1  0  0  0  0
 47 30  1  0  0  0  0
 48 31  1  0  0  0  0
 50 31  1  0  0  0  0
M  END
>  <Pose>
1

>  <Score>
-7.19

$$$$
