
 OpenBabel03202209423D

 47 51  0  0  1  0  0  0  0  0999 V2000
  -51.0740  -65.5270   53.4070 B   0  0  0  0  0  0  0  0  0  0  0  0
  -49.1850  -65.8660   53.5310 C   0  0  0  0  0  0  0  0  0  0  0  0
  -48.6920  -67.1200   53.7330 C   0  0  0  0  0  0  0  0  0  0  0  0
  -47.3170  -67.3250   53.8160 C   0  0  0  0  0  0  0  0  0  0  0  0
  -46.4210  -66.2830   53.7000 C   0  0  0  0  0  0  0  0  0  0  0  0
  -46.9560  -65.0290   53.4960 C   0  0  0  0  0  0  0  0  0  0  0  0
  -48.3100  -64.7990   53.4100 C   0  0  0  0  0  0  0  0  0  0  0  0
  -45.0230  -66.5290   53.7900 N   0  0  0  0  0  0  0  0  0  0  0  0
  -44.3930  -67.3560   54.6170 N   0  0  0  0  0  0  0  0  0  0  0  0
  -43.0650  -67.3170   54.4010 C   0  0  0  0  0  0  0  0  0  0  0  0
  -42.1420  -68.0160   55.0490 C   0  0  0  0  0  0  0  0  0  0  0  0
  -42.8120  -66.4190   53.3840 C   0  0  0  0  0  0  0  0  0  0  0  0
  -41.6380  -66.0720   52.8500 C   0  0  0  0  0  0  0  0  0  0  0  0
  -41.6420  -65.1130   51.7990 N   0  0  0  0  0  4  0  0  0  0  0  0
  -40.7220  -65.1790   50.7010 C   0  0  2  0  0  0  0  0  0  0  0  0
  -41.4310  -64.9810   49.3990 C   0  0  0  0  0  0  0  0  0  0  0  0
  -40.4520  -64.9580   48.3220 N   0  0  1  0  0  0  0  0  0  0  0  0
  -39.5390  -63.8500   48.5770 C   0  0  0  0  0  0  0  0  0  0  0  0
  -38.7880  -64.0450   49.7930 N   0  0  2  0  0  0  0  0  0  0  0  0
  -38.1100  -65.3370   49.7450 C   0  0  0  0  0  0  0  0  0  0  0  0
  -39.0410  -66.4230   49.5420 N   0  0  2  0  0  0  0  0  0  0  0  0
  -39.7450  -66.2130   48.2990 C   0  0  0  0  0  0  0  0  0  0  0  0
  -39.9780  -66.4930   50.6370 C   0  0  0  0  0  0  0  0  0  0  0  0
  -39.6900  -64.0670   50.9150 C   0  0  0  0  0  0  0  0  0  0  0  0
  -44.0690  -65.9490   53.0310 C   0  0  0  0  0  0  0  0  0  0  0  0
  -44.2700  -65.1050   52.1290 O   0  0  0  0  0  0  0  0  0  0  0  0
  -49.3730  -67.9470   53.8270 H   0  0  0  0  0  0  0  0  0  0  0  0
  -46.9310  -68.3210   53.9770 H   0  0  0  0  0  0  0  0  0  0  0  0
  -46.2690  -64.2020   53.4030 H   0  0  0  0  0  0  0  0  0  0  0  0
  -48.7390  -63.8130   53.2490 H   0  0  0  0  0  0  0  0  0  0  0  0
  -44.8600  -67.9510   55.3290 H   0  0  0  0  0  0  0  0  0  0  0  0
  -42.4360  -68.6980   55.8350 H   0  0  0  0  0  0  0  0  0  0  0  0
  -41.0940  -67.9460   54.8370 H   0  0  0  0  0  0  0  0  0  0  0  0
  -40.7420  -66.5260   53.2340 H   0  0  0  0  0  0  0  0  0  0  0  0
  -42.3350  -64.3520   51.8430 H   0  0  0  0  0  0  0  0  0  0  0  0
  -42.0290  -64.0650   49.4330 H   0  0  0  0  0  0  0  0  0  0  0  0
  -42.1150  -65.8480   49.2540 H   0  0  0  0  0  0  0  0  0  0  0  0
  -40.1350  -62.9320   48.6630 H   0  0  0  0  0  0  0  0  0  0  0  0
  -38.8060  -63.7950   47.7380 H   0  0  0  0  0  0  0  0  0  0  0  0
  -37.4950  -65.4540   50.6440 H   0  0  0  0  0  0  0  0  0  0  0  0
  -37.4270  -65.2880   48.8710 H   0  0  0  0  0  0  0  0  0  0  0  0
  -40.5170  -67.0120   48.1500 H   0  0  0  0  0  0  0  0  0  0  0  0
  -39.0440  -66.1940   47.4480 H   0  0  0  0  0  0  0  0  0  0  0  0
  -40.6990  -67.3120   50.4420 H   0  0  0  0  0  0  0  0  0  0  0  0
  -39.4360  -66.7130   51.5820 H   0  0  0  0  0  0  0  0  0  0  0  0
  -40.2740  -63.1230   50.9410 H   0  0  0  0  0  0  0  0  0  0  0  0
  -39.1630  -64.2810   51.8650 H   0  0  0  0  0  0  0  0  0  0  0  0
  1  2  1  0  0  0  0
  2  3  1  0  0  0  0
  3  4  2  0  0  0  0
  3 27  1  0  0  0  0
  4 28  1  0  0  0  0
  5  8  1  0  0  0  0
  5  4  1  0  0  0  0
  6  5  2  0  0  0  0
  7  6  1  0  0  0  0
  7  2  2  0  0  0  0
  8  9  1  0  0  0  0
  9 31  1  0  0  0  0
 10  9  1  0  0  0  0
 10 11  1  0  0  0  0
 11 32  1  0  0  0  0
 12 10  2  0  0  0  0
 13 34  1  0  0  0  0
 13 12  1  0  0  0  0
 14 35  1  0  0  0  0
 14 13  2  0  0  0  0
 15 24  1  0  0  0  0
 15 14  1  1  0  0  0
 16 36  1  0  0  0  0
 16 15  1  0  0  0  0
 17 22  1  1  0  0  0
 17 18  1  0  0  0  0
 17 16  1  0  0  0  0
 18 38  1  0  0  0  0
 19 18  1  6  0  0  0
 19 24  1  0  0  0  0
 20 19  1  0  0  0  0
 20 40  1  0  0  0  0
 21 22  1  6  0  0  0
 21 20  1  0  0  0  0
 21 23  1  0  0  0  0
 23 15  1  0  0  0  0
 23 45  1  0  0  0  0
 24 46  1  0  0  0  0
 24 47  1  0  0  0  0
 25 12  1  0  0  0  0
 25  8  1  0  0  0  0
 26 25  2  0  0  0  0
 29  6  1  0  0  0  0
 30  7  1  0  0  0  0
 33 11  1  0  0  0  0
 37 16  1  0  0  0  0
 39 18  1  0  0  0  0
 41 20  1  0  0  0  0
 42 22  1  0  0  0  0
 43 22  1  0  0  0  0
 44 23  1  0  0  0  0
M  END
>  <Pose>
1

>  <Score>
-5.40

$$$$
