
 OpenBabel03202209423D

 49 52  0  0  1  0  0  0  0  0999 V2000
  -34.2070  -65.4140   49.9320 B   0  0  0  0  0  0  0  0  0  0  0  0
  -36.0190  -65.2560   49.3170 C   0  0  0  0  0  0  0  0  0  0  0  0
  -36.5480  -66.2290   48.4980 C   0  0  0  0  0  0  0  0  0  0  0  0
  -37.8670  -66.1130   48.0500 C   0  0  0  0  0  0  0  0  0  0  0  0
  -38.6470  -65.0420   48.4160 C   0  0  0  0  0  0  0  0  0  0  0  0
  -38.1020  -64.0840   49.2330 C   0  0  0  0  0  0  0  0  0  0  0  0
  -36.8050  -64.1830   49.6820 C   0  0  0  0  0  0  0  0  0  0  0  0
  -39.9470  -64.9380   47.9700 O   0  0  0  0  0  0  0  0  0  0  0  0
  -40.9570  -64.5710   48.8640 C   0  0  0  0  0  0  0  0  0  0  0  0
  -41.2320  -65.5990   49.8850 C   0  0  0  0  0  0  0  0  0  0  0  0
  -41.8130  -66.6510   49.5660 O   0  0  0  0  0  0  0  0  0  0  0  0
  -40.8310  -65.3830   51.2190 N   0  0  0  0  0  0  0  0  0  0  0  0
  -41.2650  -66.2090   52.2970 C   0  0  0  0  0  0  0  0  0  0  0  0
  -40.6110  -67.3400   52.6180 N   0  0  0  0  0  0  0  0  0  0  0  0
  -41.0400  -68.0800   53.6270 C   0  0  0  0  0  0  0  0  0  0  0  0
  -40.5650  -69.2270   54.1310 N   0  0  0  0  0  0  0  0  0  0  0  0
  -41.3870  -69.5430   55.1580 C   0  0  0  0  0  0  0  0  0  0  0  0
  -42.3420  -68.6160   55.2850 N   0  0  0  0  0  0  0  0  0  0  0  0
  -42.1700  -67.6790   54.3500 C   0  0  0  0  0  0  0  0  0  0  0  0
  -42.8470  -66.5180   54.0270 C   0  0  0  0  0  0  0  0  0  0  0  0
  -42.3680  -65.8130   52.9980 N   0  0  0  0  0  0  0  0  0  0  0  0
  -43.9600  -66.1690   54.7770 O   0  0  0  0  0  0  0  0  0  0  0  0
  -39.4610  -70.0240   53.7550 C   0  0  2  0  0  0  0  0  0  0  0  0
  -38.3480  -69.7940   54.5750 O   0  0  0  0  0  0  0  0  0  0  0  0
  -37.5870  -68.9100   53.8140 C   0  0  2  0  0  0  0  0  0  0  0  0
  -37.5420  -69.6600   52.4910 C   0  0  1  0  0  0  0  0  0  0  0  0
  -39.0290  -69.9790   52.3510 C   0  0  1  0  0  0  0  0  0  0  0  0
  -39.1940  -71.2240   51.7030 O   0  0  0  0  0  0  0  0  0  0  0  0
  -37.0440  -68.9190   51.4570 O   0  0  0  0  0  0  0  0  0  0  0  0
  -36.2170  -68.6900   54.3870 C   0  0  0  0  0  0  0  0  0  0  0  0
  -35.2610  -69.5270   53.8780 O   0  0  0  0  0  0  0  0  0  0  0  0
  -35.9310  -67.0630   48.2170 H   0  0  0  0  0  0  0  0  0  0  0  0
  -38.2110  -66.9100   47.4140 H   0  0  0  0  0  0  0  0  0  0  0  0
  -38.6590  -63.2030   49.5670 H   0  0  0  0  0  0  0  0  0  0  0  0
  -36.3520  -63.4390   50.3280 H   0  0  0  0  0  0  0  0  0  0  0  0
  -41.9040  -64.4550   48.2680 H   0  0  0  0  0  0  0  0  0  0  0  0
  -40.7860  -63.5760   49.3230 H   0  0  0  0  0  0  0  0  0  0  0  0
  -40.1820  -64.5800   51.4600 H   0  0  0  0  0  0  0  0  0  0  0  0
  -41.3110  -70.4230   55.8120 H   0  0  0  0  0  0  0  0  0  0  0  0
  -44.2360  -66.8410   55.5020 H   0  0  0  0  0  0  0  0  0  0  0  0
  -39.7250  -71.1030   53.9840 H   0  0  0  0  0  0  0  0  0  0  0  0
  -38.1160  -67.9600   53.6060 H   0  0  0  0  0  0  0  0  0  0  0  0
  -37.0100  -70.6270   52.6190 H   0  0  0  0  0  0  0  0  0  0  0  0
  -39.4680  -69.2400   51.7040 H   0  0  0  0  0  0  0  0  0  0  0  0
  -38.6440  -71.1670   50.8820 H   0  0  0  0  0  0  0  0  0  0  0  0
  -36.2110  -68.4030   51.7020 H   0  0  0  0  0  0  0  0  0  0  0  0
  -36.3150  -68.7220   55.4900 H   0  0  0  0  0  0  0  0  0  0  0  0
  -35.9310  -67.6370   54.1410 H   0  0  0  0  0  0  0  0  0  0  0  0
  -34.3820  -69.0680   53.9270 H   0  0  0  0  0  0  0  0  0  0  0  0
  2  7  1  0  0  0  0
  2  1  1  0  0  0  0
  3  2  2  0  0  0  0
  4  5  2  0  0  0  0
  4  3  1  0  0  0  0
  5  6  1  0  0  0  0
  6 34  1  0  0  0  0
  6  7  2  0  0  0  0
  7 35  1  0  0  0  0
  8  5  1  0  0  0  0
  8  9  1  0  0  0  0
  9 37  1  0  0  0  0
  9 10  1  0  0  0  0
 10 12  1  0  0  0  0
 11 10  2  0  0  0  0
 12 38  1  0  0  0  0
 12 13  1  0  0  0  0
 13 14  2  0  0  0  0
 13 21  1  0  0  0  0
 14 15  1  0  0  0  0
 15 16  1  0  0  0  0
 15 19  2  0  0  0  0
 16 17  1  0  0  0  0
 17 18  2  0  0  0  0
 17 39  1  0  0  0  0
 19 18  1  0  0  0  0
 20 19  1  0  0  0  0
 20 22  1  0  0  0  0
 21 20  2  0  0  0  0
 22 40  1  0  0  0  0
 23 41  1  1  0  0  0
 23 16  1  0  0  0  0
 23 24  1  0  0  0  0
 25 42  1  6  0  0  0
 25 30  1  0  0  0  0
 25 24  1  0  0  0  0
 26 43  1  1  0  0  0
 26 25  1  0  0  0  0
 27 44  1  6  0  0  0
 27 26  1  0  0  0  0
 27 23  1  0  0  0  0
 28 27  1  0  0  0  0
 29 46  1  0  0  0  0
 29 26  1  0  0  0  0
 30 47  1  0  0  0  0
 31 49  1  0  0  0  0
 31 30  1  0  0  0  0
 32  3  1  0  0  0  0
 33  4  1  0  0  0  0
 36  9  1  0  0  0  0
 45 28  1  0  0  0  0
 48 30  1  0  0  0  0
M  END
>  <Pose>
1

>  <Score>
-7.26

$$$$
