
 OpenBabel03202209423D

 49 52  0  0  0  0  0  0  0  0999 V2000
  -43.0390  -67.0390   54.6470 B   0  0  0  0  0  0  0  0  0  0  0  0
  -43.0290  -66.0050   53.0410 C   0  0  0  0  0  0  0  0  0  0  0  0
  -41.8920  -65.9270   52.2700 C   0  0  0  0  0  0  0  0  0  0  0  0
  -41.8690  -65.1880   51.1130 C   0  0  0  0  0  0  0  0  0  0  0  0
  -43.0100  -64.5320   50.7490 C   0  0  0  0  0  0  0  0  0  0  0  0
  -44.1600  -64.6130   51.5330 C   0  0  0  0  0  0  0  0  0  0  0  0
  -44.2090  -65.3480   52.7000 C   0  0  0  0  0  0  0  0  0  0  0  0
  -45.4270  -65.4710   53.5400 C   0  0  0  0  0  0  0  0  0  0  0  0
  -46.6190  -65.3900   52.7190 N   0  0  0  0  0  0  0  0  0  0  0  0
  -47.6230  -66.3690   53.2120 C   0  0  0  0  0  0  0  0  0  0  0  0
  -48.7020  -66.3310   52.1350 C   0  0  0  0  0  0  0  0  0  0  0  0
  -48.5630  -65.2600   51.2190 N   0  0  0  0  0  0  0  0  0  0  0  0
  -48.3530  -63.9900   51.8630 C   0  0  0  0  0  0  0  0  0  0  0  0
  -47.3040  -64.1130   52.9290 C   0  0  0  0  0  0  0  0  0  0  0  0
  -47.8170  -65.4850   50.0390 C   0  0  0  0  0  0  0  0  0  0  0  0
  -48.5810  -65.7010   48.8240 C   0  0  0  0  0  0  0  0  0  0  0  0
  -48.8230  -64.7600   48.0380 O   0  0  0  0  0  0  0  0  0  0  0  0
  -49.0710  -66.9850   48.4910 N   0  0  0  0  0  0  0  0  0  0  0  0
  -50.2770  -67.5420   49.0910 C   0  0  0  0  0  0  0  0  0  0  0  0
  -50.4380  -68.9970   49.2350 C   0  0  0  0  0  0  0  0  0  0  0  0
  -51.1740  -68.3110   48.1250 C   0  0  0  0  0  0  0  0  0  0  0  0
  -43.0080  -63.7810   49.5850 O   0  0  0  0  0  0  0  0  0  0  0  0
  -41.8400  -63.4330   48.8870 C   0  0  0  0  0  0  0  0  0  0  0  0
  -40.7790  -64.4750   49.0420 C   0  0  0  0  0  0  0  0  0  0  0  0
  -40.7430  -65.0850   50.3070 O   0  0  0  0  0  0  0  0  0  0  0  0
  -40.9690  -66.4440   52.5420 H   0  0  0  0  0  0  0  0  0  0  0  0
  -45.0030  -64.0820   51.1690 H   0  0  0  0  0  0  0  0  0  0  0  0
  -45.4580  -64.7410   54.3570 H   0  0  0  0  0  0  0  0  0  0  0  0
  -45.4110  -66.4940   53.9910 H   0  0  0  0  0  0  0  0  0  0  0  0
  -47.1930  -67.3560   53.3630 H   0  0  0  0  0  0  0  0  0  0  0  0
  -47.9920  -65.9620   54.1760 H   0  0  0  0  0  0  0  0  0  0  0  0
  -49.6740  -66.1770   52.6920 H   0  0  0  0  0  0  0  0  0  0  0  0
  -48.8200  -67.3210   51.6520 H   0  0  0  0  0  0  0  0  0  0  0  0
  -49.3230  -63.6090   52.2660 H   0  0  0  0  0  0  0  0  0  0  0  0
  -48.0630  -63.2140   51.0960 H   0  0  0  0  0  0  0  0  0  0  0  0
  -46.6500  -63.2600   53.0690 H   0  0  0  0  0  0  0  0  0  0  0  0
  -47.8790  -64.1900   53.9070 H   0  0  0  0  0  0  0  0  0  0  0  0
  -47.0840  -64.6600   49.8730 H   0  0  0  0  0  0  0  0  0  0  0  0
  -47.1670  -66.3930   50.1970 H   0  0  0  0  0  0  0  0  0  0  0  0
  -48.5890  -67.6130   47.7850 H   0  0  0  0  0  0  0  0  0  0  0  0
  -50.7480  -66.8700   49.8140 H   0  0  0  0  0  0  0  0  0  0  0  0
  -49.6570  -69.7250   48.9090 H   0  0  0  0  0  0  0  0  0  0  0  0
  -51.0650  -69.3780   50.0660 H   0  0  0  0  0  0  0  0  0  0  0  0
  -50.7920  -68.4630   47.0980 H   0  0  0  0  0  0  0  0  0  0  0  0
  -52.2490  -68.0750   48.2560 H   0  0  0  0  0  0  0  0  0  0  0  0
  -41.5250  -62.4280   49.2090 H   0  0  0  0  0  0  0  0  0  0  0  0
  -42.1200  -63.4120   47.7950 H   0  0  0  0  0  0  0  0  0  0  0  0
  -40.9310  -65.2720   48.2620 H   0  0  0  0  0  0  0  0  0  0  0  0
  -39.7920  -63.9760   48.9010 H   0  0  0  0  0  0  0  0  0  0  0  0
  2  1  1  0  0  0  0
  3 26  1  0  0  0  0
  3  2  2  0  0  0  0
  4  3  1  0  0  0  0
  5  4  2  0  0  0  0
  5  6  1  0  0  0  0
  6  7  2  0  0  0  0
  7  2  1  0  0  0  0
  7  8  1  0  0  0  0
  8 29  1  0  0  0  0
  8 28  1  0  0  0  0
  9 14  1  0  0  0  0
  9 10  1  0  0  0  0
  9  8  1  0  0  0  0
 10 30  1  0  0  0  0
 10 31  1  0  0  0  0
 11 32  1  0  0  0  0
 11 10  1  0  0  0  0
 12 13  1  0  0  0  0
 12 11  1  0  0  0  0
 13 34  1  0  0  0  0
 13 14  1  0  0  0  0
 14 36  1  0  0  0  0
 14 37  1  0  0  0  0
 15 39  1  0  0  0  0
 15 12  1  0  0  0  0
 16 15  1  0  0  0  0
 17 16  2  0  0  0  0
 18 16  1  0  0  0  0
 18 19  1  0  0  0  0
 19 20  1  0  0  0  0
 19 41  1  0  0  0  0
 20 43  1  0  0  0  0
 21 45  1  0  0  0  0
 21 19  1  0  0  0  0
 21 20  1  0  0  0  0
 22  5  1  0  0  0  0
 23 24  1  0  0  0  0
 23 46  1  0  0  0  0
 23 22  1  0  0  0  0
 24 25  1  0  0  0  0
 25  4  1  0  0  0  0
 27  6  1  0  0  0  0
 33 11  1  0  0  0  0
 35 13  1  0  0  0  0
 38 15  1  0  0  0  0
 40 18  1  0  0  0  0
 42 20  1  0  0  0  0
 44 21  1  0  0  0  0
 47 23  1  0  0  0  0
 48 24  1  0  0  0  0
 49 24  1  0  0  0  0
M  END
>  <Pose>
1

>  <Score>
-5.29

$$$$
