
 OpenBabel03202209423D

 41 44  0  0  0  0  0  0  0  0999 V2000
  -43.4470  -65.8240   54.5990 B   0  0  0  0  0  0  0  0  0  0  0  0
  -45.1240  -66.1210   53.7230 C   0  0  0  0  0  0  0  0  0  0  0  0
  -46.0240  -67.0480   54.1860 C   0  0  0  0  0  0  0  0  0  0  0  0
  -47.2280  -67.2480   53.5420 C   0  0  0  0  0  0  0  0  0  0  0  0
  -47.5200  -66.5030   52.4200 C   0  0  0  0  0  0  0  0  0  0  0  0
  -46.6010  -65.5630   51.9560 C   0  0  0  0  0  0  0  0  0  0  0  0
  -45.3950  -65.3500   52.5850 C   0  0  0  0  0  0  0  0  0  0  0  0
  -44.4320  -64.3330   52.1280 C   0  0  0  0  0  0  0  0  0  0  0  0
  -43.5330  -64.7890   51.1620 O   0  0  0  0  0  0  0  0  0  0  0  0
  -42.5310  -65.7100   51.4120 C   0  0  0  0  0  0  0  0  0  0  0  0
  -42.0010  -66.4850   50.3710 C   0  0  0  0  0  0  0  0  0  0  0  0
  -41.0020  -67.4110   50.5630 C   0  0  0  0  0  0  0  0  0  0  0  0
  -40.4690  -67.6150   51.8170 C   0  0  0  0  0  0  0  0  0  0  0  0
  -40.9770  -66.8600   52.8530 C   0  0  0  0  0  0  0  0  0  0  0  0
  -41.9910  -65.9210   52.6610 C   0  0  0  0  0  0  0  0  0  0  0  0
  -39.4050  -68.5970   52.0380 C   0  0  0  0  0  0  0  0  0  0  0  0
  -38.3620  -68.8990   51.2470 N   0  0  0  0  0  0  0  0  0  0  0  0
  -37.6380  -69.8560   51.8380 N   0  0  0  0  0  0  0  0  0  0  0  0
  -38.2140  -70.1620   52.9920 N   0  0  0  0  0  0  0  0  0  0  0  0
  -39.2860  -69.3970   53.1100 N   0  0  0  0  0  0  0  0  0  0  0  0
  -36.4290  -70.4910   51.3570 C   0  0  0  0  0  0  0  0  0  0  0  0
  -35.2760  -69.5770   51.5090 C   0  0  0  0  0  0  0  0  0  0  0  0
  -34.8720  -68.9310   50.5300 O   0  0  0  0  0  0  0  0  0  0  0  0
  -34.6530  -69.4560   52.7700 N   0  0  0  0  0  0  0  0  0  0  0  0
  -48.7680  -66.9030   51.9850 O   0  0  0  0  0  0  0  0  0  0  0  0
  -49.4130  -67.6780   52.9800 C   0  0  0  0  0  0  0  0  0  0  0  0
  -48.3170  -68.0930   53.7660 O   0  0  0  0  0  0  0  0  0  0  0  0
  -45.8020  -67.6490   55.0820 H   0  0  0  0  0  0  0  0  0  0  0  0
  -46.9050  -65.0020   51.0780 H   0  0  0  0  0  0  0  0  0  0  0  0
  -44.9270  -63.3940   51.8010 H   0  0  0  0  0  0  0  0  0  0  0  0
  -43.8290  -64.0490   53.0240 H   0  0  0  0  0  0  0  0  0  0  0  0
  -42.4450  -66.2980   49.3940 H   0  0  0  0  0  0  0  0  0  0  0  0
  -40.6150  -67.9940   49.7390 H   0  0  0  0  0  0  0  0  0  0  0  0
  -40.5570  -67.0240   53.8300 H   0  0  0  0  0  0  0  0  0  0  0  0
  -42.3510  -65.3460   53.5110 H   0  0  0  0  0  0  0  0  0  0  0  0
  -36.2500  -71.4140   51.9430 H   0  0  0  0  0  0  0  0  0  0  0  0
  -36.5950  -70.7710   50.2960 H   0  0  0  0  0  0  0  0  0  0  0  0
  -33.8280  -68.8150   52.9400 H   0  0  0  0  0  0  0  0  0  0  0  0
  -35.0030  -70.0100   53.5790 H   0  0  0  0  0  0  0  0  0  0  0  0
  -50.1050  -67.0150   53.5330 H   0  0  0  0  0  0  0  0  0  0  0  0
  -49.9630  -68.5120   52.5130 H   0  0  0  0  0  0  0  0  0  0  0  0
  2  3  1  0  0  0  0
  2  1  1  0  0  0  0
  3 28  1  0  0  0  0
  4 27  1  0  0  0  0
  4  3  2  0  0  0  0
  5  4  1  0  0  0  0
  6  5  2  0  0  0  0
  6  7  1  0  0  0  0
  7  2  2  0  0  0  0
  8  7  1  0  0  0  0
  8 31  1  0  0  0  0
  9 10  1  0  0  0  0
  9  8  1  0  0  0  0
 10 15  1  0  0  0  0
 11 12  1  0  0  0  0
 11 10  2  0  0  0  0
 12 13  2  0  0  0  0
 13 16  1  0  0  0  0
 13 14  1  0  0  0  0
 14 34  1  0  0  0  0
 15 14  2  0  0  0  0
 15 35  1  0  0  0  0
 16 20  1  0  0  0  0
 17 18  1  0  0  0  0
 17 16  2  0  0  0  0
 18 19  1  0  0  0  0
 19 20  2  0  0  0  0
 21 22  1  0  0  0  0
 21 18  1  0  0  0  0
 21 36  1  0  0  0  0
 22 24  1  0  0  0  0
 23 22  2  0  0  0  0
 24 38  1  0  0  0  0
 24 39  1  0  0  0  0
 25  5  1  0  0  0  0
 25 26  1  0  0  0  0
 26 40  1  0  0  0  0
 26 27  1  0  0  0  0
 29  6  1  0  0  0  0
 30  8  1  0  0  0  0
 32 11  1  0  0  0  0
 33 12  1  0  0  0  0
 37 21  1  0  0  0  0
 41 26  1  0  0  0  0
M  END
>  <Pose>
1

>  <Score>
-6.49

$$$$
