
 OpenBabel03202209423D

 53 57  0  0  1  0  0  0  0  0999 V2000
  -46.6610  -64.2840   47.2440 B   0  0  0  0  0  0  0  0  0  0  0  0
  -47.6210  -64.9650   48.7330 C   0  0  0  0  0  0  0  0  0  0  0  0
  -48.9210  -65.3980   48.6200 C   0  0  0  0  0  0  0  0  0  0  0  0
  -49.6170  -65.8880   49.6800 C   0  0  0  0  0  0  0  0  0  0  0  0
  -49.0100  -65.9570   50.9150 C   0  0  0  0  0  0  0  0  0  0  0  0
  -47.6880  -65.5220   51.0540 C   0  0  0  0  0  0  0  0  0  0  0  0
  -46.9760  -65.0230   49.9770 C   0  0  0  0  0  0  0  0  0  0  0  0
  -45.6380  -64.5650   50.0520 N   0  0  0  0  0  0  0  0  0  0  0  0
  -45.1280  -63.6890   51.0320 C   0  0  0  0  0  0  0  0  0  0  0  0
  -44.4870  -62.6480   50.8130 O   0  0  0  0  0  0  0  0  0  0  0  0
  -45.3790  -64.0420   52.4810 C   0  0  0  0  0  0  0  0  0  0  0  0
  -44.5680  -65.1600   52.9020 N   0  0  0  0  0  0  0  0  0  0  0  0
  -45.2450  -66.3380   53.1740 C   0  0  0  0  0  0  0  0  0  0  0  0
  -44.7280  -67.2920   54.1800 C   0  0  0  0  0  0  0  0  0  0  0  0
  -43.3400  -67.0150   54.4150 N   0  0  0  0  0  0  0  0  0  0  0  0
  -43.0680  -65.6510   54.7940 C   0  0  0  0  0  0  0  0  0  0  0  0
  -43.3920  -64.8000   53.5940 C   0  0  0  0  0  0  0  0  0  0  0  0
  -42.2750  -67.9250   54.3060 C   0  0  1  0  0  0  0  0  0  0  0  0
  -42.0420  -68.9240   55.1940 N   0  0  0  0  0  0  0  0  0  0  0  0
  -41.0140  -69.7820   55.0630 C   0  0  0  0  0  0  0  0  0  0  0  0
  -40.1580  -69.6860   54.0290 N   0  0  0  0  0  0  0  0  0  0  0  0
  -40.3130  -68.7240   53.0980 C   0  0  0  0  0  0  0  0  0  0  0  0
  -39.6210  -68.3960   51.9770 N   0  0  0  0  0  0  0  0  0  0  0  0
  -40.2390  -67.3530   51.4540 N   0  0  0  0  0  0  0  0  0  0  0  0
  -41.2970  -66.9870   52.1810 C   0  0  0  0  0  0  0  0  0  0  0  0
  -41.3660  -67.8570   53.2460 C   0  0  0  0  0  0  0  0  0  0  0  0
  -38.4290  -69.0830   51.4750 C   0  0  0  0  0  0  0  0  0  0  0  0
  -49.7320  -66.4560   51.9690 O   0  0  0  0  0  0  0  0  0  0  0  0
  -51.1370  -66.4520   52.0380 C   0  0  0  0  0  0  0  0  0  0  0  0
  -51.7930  -66.1220   50.7360 C   0  0  0  0  0  0  0  0  0  0  0  0
  -50.9300  -66.3350   49.6110 O   0  0  0  0  0  0  0  0  0  0  0  0
  -49.4060  -65.3490   47.6520 H   0  0  0  0  0  0  0  0  0  0  0  0
  -47.2490  -65.5910   52.0250 H   0  0  0  0  0  0  0  0  0  0  0  0
  -44.9580  -64.9120   49.3040 H   0  0  0  0  0  0  0  0  0  0  0  0
  -45.0870  -63.1430   53.0540 H   0  0  0  0  0  0  0  0  0  0  0  0
  -46.4630  -64.2130   52.6260 H   0  0  0  0  0  0  0  0  0  0  0  0
  -46.3090  -66.0880   53.4690 H   0  0  0  0  0  0  0  0  0  0  0  0
  -45.3990  -66.9040   52.2050 H   0  0  0  0  0  0  0  0  0  0  0  0
  -45.2720  -67.2180   55.1540 H   0  0  0  0  0  0  0  0  0  0  0  0
  -44.9130  -68.3300   53.8390 H   0  0  0  0  0  0  0  0  0  0  0  0
  -42.0390  -65.4970   55.1240 H   0  0  0  0  0  0  0  0  0  0  0  0
  -43.7640  -65.3210   55.6100 H   0  0  0  0  0  0  0  0  0  0  0  0
  -42.5340  -64.7870   52.8900 H   0  0  0  0  0  0  0  0  0  0  0  0
  -43.5040  -63.7560   53.9640 H   0  0  0  0  0  0  0  0  0  0  0  0
  -40.9250  -70.5420   55.8340 H   0  0  0  0  0  0  0  0  0  0  0  0
  -42.0100  -66.1860   52.0360 H   0  0  0  0  0  0  0  0  0  0  0  0
  -38.4800  -69.2670   50.3860 H   0  0  0  0  0  0  0  0  0  0  0  0
  -37.5070  -68.4850   51.6560 H   0  0  0  0  0  0  0  0  0  0  0  0
  -38.3100  -70.0250   52.0540 H   0  0  0  0  0  0  0  0  0  0  0  0
  -51.4800  -67.4430   52.4420 H   0  0  0  0  0  0  0  0  0  0  0  0
  -51.4380  -65.6730   52.7970 H   0  0  0  0  0  0  0  0  0  0  0  0
  -52.0320  -65.0210   50.7230 H   0  0  0  0  0  0  0  0  0  0  0  0
  -52.7490  -66.6410   50.5960 H   0  0  0  0  0  0  0  0  0  0  0  0
  1  2  1  0  0  0  0
  2  7  1  0  0  0  0
  3  2  2  0  0  0  0
  3  4  1  0  0  0  0
  4  5  2  0  0  0  0
  5  6  1  0  0  0  0
  5 28  1  0  0  0  0
  6 33  1  0  0  0  0
  7  8  1  0  0  0  0
  7  6  2  0  0  0  0
  8  9  1  0  0  0  0
  9 11  1  0  0  0  0
 10  9  2  0  0  0  0
 11 36  1  0  0  0  0
 11 12  1  0  0  0  0
 11 35  1  0  0  0  0
 12 13  1  0  0  0  0
 12 17  1  0  0  0  0
 13 37  1  0  0  0  0
 13 14  1  0  0  0  0
 14 15  1  0  0  0  0
 14 39  1  0  0  0  0
 15 16  1  0  0  0  0
 16 41  1  0  0  0  0
 16 42  1  0  0  0  0
 17 44  1  0  0  0  0
 17 16  1  0  0  0  0
 18 15  1  6  0  0  0
 18 19  1  0  0  0  0
 20 19  2  0  0  0  0
 20 45  1  0  0  0  0
 21 20  1  0  0  0  0
 22 26  2  0  0  0  0
 22 21  1  0  0  0  0
 23 22  1  0  0  0  0
 24 23  1  0  0  0  0
 24 25  2  0  0  0  0
 25 26  1  0  0  0  0
 26 18  1  0  0  0  0
 27 48  1  0  0  0  0
 27 23  1  0  0  0  0
 27 49  1  0  0  0  0
 28 29  1  0  0  0  0
 29 50  1  0  0  0  0
 29 51  1  0  0  0  0
 30 29  1  0  0  0  0
 31  4  1  0  0  0  0
 31 30  1  0  0  0  0
 32  3  1  0  0  0  0
 34  8  1  0  0  0  0
 38 13  1  0  0  0  0
 40 14  1  0  0  0  0
 43 17  1  0  0  0  0
 46 25  1  0  0  0  0
 47 27  1  0  0  0  0
 52 30  1  0  0  0  0
 53 30  1  0  0  0  0
M  END
>  <Pose>
1

>  <Score>
-7.62

$$$$
