
 OpenBabel03202209423D

 44 47  0  0  0  0  0  0  0  0999 V2000
  -37.6900  -69.7870   51.4450 B   0  0  0  0  0  0  0  0  0  0  0  0
  -39.1950  -69.0860   52.3860 C   0  0  0  0  0  0  0  0  0  0  0  0
  -39.8740  -67.9830   51.8960 C   0  0  0  0  0  0  0  0  0  0  0  0
  -40.9710  -67.4510   52.5580 C   0  0  0  0  0  0  0  0  0  0  0  0
  -41.3430  -68.0850   53.7270 C   0  0  0  0  0  0  0  0  0  0  0  0
  -40.6870  -69.1800   54.2360 C   0  0  0  0  0  0  0  0  0  0  0  0
  -39.6040  -69.6870   53.5610 C   0  0  0  0  0  0  0  0  0  0  0  0
  -42.4360  -67.5590   54.3920 C   0  0  0  0  0  0  0  0  0  0  0  0
  -42.8320  -68.0970   55.4780 O   0  0  0  0  0  0  0  0  0  0  0  0
  -43.0740  -66.4590   53.8580 C   0  0  0  0  0  0  0  0  0  0  0  0
  -42.6560  -65.8710   52.6870 C   0  0  0  0  0  0  0  0  0  0  0  0
  -41.6170  -66.4070   52.0980 O   0  0  0  0  0  0  0  0  0  0  0  0
  -43.3690  -64.7010   52.1590 C   0  0  0  0  0  0  0  0  0  0  0  0
  -42.6910  -63.8150   51.5620 O   0  0  0  0  0  0  0  0  0  0  0  0
  -44.7620  -64.5320   52.2920 N   0  0  0  0  0  0  0  0  0  0  0  0
  -45.5840  -64.5690   51.1090 C   0  0  0  0  0  0  0  0  0  0  0  0
  -46.7000  -65.5870   51.2000 C   0  0  0  0  0  0  0  0  0  0  0  0
  -47.0870  -65.7100   52.5560 N   0  0  0  0  0  0  0  0  0  0  0  0
  -46.9540  -64.5050   53.2770 C   0  0  0  0  0  0  0  0  0  0  0  0
  -45.4490  -64.3210   53.5430 C   0  0  0  0  0  0  0  0  0  0  0  0
  -46.7570  -66.9100   53.2140 C   0  0  0  0  0  0  0  0  0  0  0  0
  -47.8760  -67.6320   53.8130 C   0  0  0  0  0  0  0  0  0  0  0  0
  -47.8600  -68.2390   55.0110 N   0  0  0  0  0  0  0  0  0  0  0  0
  -49.0200  -68.7620   55.1890 O   0  0  0  0  0  0  0  0  0  0  0  0
  -49.8100  -68.5320   54.1700 N   0  0  0  0  0  0  0  0  0  0  0  0
  -49.1160  -67.8090   53.2640 C   0  0  0  0  0  0  0  0  0  0  0  0
  -49.6080  -67.3150   51.9430 C   0  0  0  0  0  0  0  0  0  0  0  0
  -39.5410  -67.5310   50.9820 H   0  0  0  0  0  0  0  0  0  0  0  0
  -41.0350  -69.6240   55.1580 H   0  0  0  0  0  0  0  0  0  0  0  0
  -39.0740  -70.5560   53.9530 H   0  0  0  0  0  0  0  0  0  0  0  0
  -43.9330  -66.0570   54.3920 H   0  0  0  0  0  0  0  0  0  0  0  0
  -44.9630  -64.7390   50.1880 H   0  0  0  0  0  0  0  0  0  0  0  0
  -46.0650  -63.5540   50.9730 H   0  0  0  0  0  0  0  0  0  0  0  0
  -46.3580  -66.5600   50.7590 H   0  0  0  0  0  0  0  0  0  0  0  0
  -47.5660  -65.2430   50.5610 H   0  0  0  0  0  0  0  0  0  0  0  0
  -47.2580  -63.6600   52.6280 H   0  0  0  0  0  0  0  0  0  0  0  0
  -47.4690  -64.4530   54.2380 H   0  0  0  0  0  0  0  0  0  0  0  0
  -45.2470  -63.2970   53.9190 H   0  0  0  0  0  0  0  0  0  0  0  0
  -45.1150  -65.0130   54.3390 H   0  0  0  0  0  0  0  0  0  0  0  0
  -45.9880  -66.7080   53.9880 H   0  0  0  0  0  0  0  0  0  0  0  0
  -46.2510  -67.5930   52.4740 H   0  0  0  0  0  0  0  0  0  0  0  0
  -49.0650  -66.3780   51.6470 H   0  0  0  0  0  0  0  0  0  0  0  0
  -49.4070  -68.0840   51.1930 H   0  0  0  0  0  0  0  0  0  0  0  0
  -50.6780  -67.0260   52.0160 H   0  0  0  0  0  0  0  0  0  0  0  0
  1  2  1  0  0  0  0
  2  7  1  0  0  0  0
  3  2  2  0  0  0  0
  3  4  1  0  0  0  0
  4  5  2  0  0  0  0
  5  6  1  0  0  0  0
  5  8  1  0  0  0  0
  6 29  1  0  0  0  0
  7 30  1  0  0  0  0
  7  6  2  0  0  0  0
  8  9  2  0  0  0  0
 10  8  1  0  0  0  0
 10 31  1  0  0  0  0
 11 10  2  0  0  0  0
 12  4  1  0  0  0  0
 12 11  1  0  0  0  0
 13 15  1  0  0  0  0
 13 11  1  0  0  0  0
 14 13  2  0  0  0  0
 15 20  1  0  0  0  0
 16 17  1  0  0  0  0
 16 15  1  0  0  0  0
 17 18  1  0  0  0  0
 18 21  1  0  0  0  0
 18 19  1  0  0  0  0
 19 20  1  0  0  0  0
 19 37  1  0  0  0  0
 20 38  1  0  0  0  0
 20 39  1  0  0  0  0
 21 22  1  0  0  0  0
 21 40  1  0  0  0  0
 22 23  2  0  0  0  0
 23 24  1  0  0  0  0
 25 24  1  0  0  0  0
 26 22  1  0  0  0  0
 26 25  2  0  0  0  0
 27 44  1  0  0  0  0
 27 26  1  0  0  0  0
 28  3  1  0  0  0  0
 32 16  1  0  0  0  0
 33 16  1  0  0  0  0
 34 17  1  0  0  0  0
 35 17  1  0  0  0  0
 36 19  1  0  0  0  0
 41 21  1  0  0  0  0
 42 27  1  0  0  0  0
 43 27  1  0  0  0  0
M  END
>  <Pose>
1

>  <Score>
-5.71

$$$$
