
 OpenBabel03202209423D

 59 62  0  0  0  0  0  0  0  0999 V2000
  -39.4670  -70.3870   54.6900 B   0  0  0  0  0  0  0  0  0  0  0  0
  -40.6390  -68.9510   54.1790 C   0  0  0  0  0  0  0  0  0  0  0  0
  -40.5570  -68.3640   52.9380 C   0  0  0  0  0  0  0  0  0  0  0  0
  -41.3810  -67.3230   52.5230 C   0  0  0  0  0  0  0  0  0  0  0  0
  -42.3450  -66.8500   53.4180 C   0  0  0  0  0  0  0  0  0  0  0  0
  -42.4280  -67.4390   54.6630 C   0  0  0  0  0  0  0  0  0  0  0  0
  -41.5920  -68.4800   55.0570 C   0  0  0  0  0  0  0  0  0  0  0  0
  -43.0940  -65.7860   52.8140 N   0  0  0  0  0  0  0  0  0  0  0  0
  -42.5640  -65.6060   51.5070 C   0  0  0  0  0  0  0  0  0  0  0  0
  -42.9640  -64.7630   50.6740 O   0  0  0  0  0  0  0  0  0  0  0  0
  -41.4900  -66.5570   51.2960 C   0  0  0  0  0  0  0  0  0  0  0  0
  -40.7720  -66.7000   50.2400 N   0  0  0  0  0  0  0  0  0  0  0  0
  -40.9350  -65.9240   49.0980 N   0  0  0  0  0  0  0  0  0  0  0  0
  -39.8030  -65.4270   48.4200 C   0  0  0  0  0  0  0  0  0  0  0  0
  -39.8860  -64.9550   47.2340 O   0  0  0  0  0  0  0  0  0  0  0  0
  -38.4420  -65.4040   49.0120 C   0  0  0  0  0  0  0  0  0  0  0  0
  -37.4650  -65.2180   47.9890 O   0  0  0  0  0  0  0  0  0  0  0  0
  -36.8830  -63.9750   47.8070 C   0  0  0  0  0  0  0  0  0  0  0  0
  -35.8900  -63.5430   48.6610 C   0  0  0  0  0  0  0  0  0  0  0  0
  -35.3110  -62.2920   48.4730 C   0  0  0  0  0  0  0  0  0  0  0  0
  -35.7230  -61.4770   47.4360 C   0  0  0  0  0  0  0  0  0  0  0  0
  -36.7070  -61.9170   46.6000 C   0  0  0  0  0  0  0  0  0  0  0  0
  -37.2830  -63.1630   46.7890 C   0  0  0  0  0  0  0  0  0  0  0  0
  -35.4580  -64.3280   49.7000 O   0  0  0  0  0  0  0  0  0  0  0  0
  -34.2430  -65.0280   49.6100 C   0  0  0  0  0  0  0  0  0  0  0  0
  -44.1780  -65.0630   53.4580 C   0  0  0  0  0  0  0  0  0  0  0  0
  -45.4530  -65.6750   53.3460 N   0  0  0  0  0  0  0  0  0  0  0  0
  -46.2080  -65.3340   52.1900 C   0  0  0  0  0  0  0  0  0  0  0  0
  -47.5960  -65.9810   52.2000 C   0  0  0  0  0  0  0  0  0  0  0  0
  -47.8120  -66.4790   53.5280 N   0  0  0  0  0  0  0  0  0  0  0  0
  -46.9350  -67.5550   53.8730 C   0  0  0  0  0  0  0  0  0  0  0  0
  -45.5090  -67.0610   53.7130 C   0  0  0  0  0  0  0  0  0  0  0  0
  -49.1920  -66.7090   53.8470 C   0  0  0  0  0  0  0  0  0  0  0  0
  -39.8040  -68.7370   52.2440 H   0  0  0  0  0  0  0  0  0  0  0  0
  -43.1670  -67.1030   55.3990 H   0  0  0  0  0  0  0  0  0  0  0  0
  -41.6510  -68.9450   56.0280 H   0  0  0  0  0  0  0  0  0  0  0  0
  -41.8840  -65.7180   48.7550 H   0  0  0  0  0  0  0  0  0  0  0  0
  -38.3050  -64.5970   49.7500 H   0  0  0  0  0  0  0  0  0  0  0  0
  -38.2260  -66.3530   49.5330 H   0  0  0  0  0  0  0  0  0  0  0  0
  -34.5270  -61.9630   49.1550 H   0  0  0  0  0  0  0  0  0  0  0  0
  -35.2860  -60.4920   47.2660 H   0  0  0  0  0  0  0  0  0  0  0  0
  -37.0360  -61.3020   45.7960 H   0  0  0  0  0  0  0  0  0  0  0  0
  -38.0540  -63.4580   46.0980 H   0  0  0  0  0  0  0  0  0  0  0  0
  -34.1920  -65.6800   48.7110 H   0  0  0  0  0  0  0  0  0  0  0  0
  -33.4250  -64.2730   49.4700 H   0  0  0  0  0  0  0  0  0  0  0  0
  -34.1080  -65.5880   50.5590 H   0  0  0  0  0  0  0  0  0  0  0  0
  -43.9270  -64.8240   54.5190 H   0  0  0  0  0  0  0  0  0  0  0  0
  -44.2340  -64.0660   52.9470 H   0  0  0  0  0  0  0  0  0  0  0  0
  -46.3980  -64.2410   52.2010 H   0  0  0  0  0  0  0  0  0  0  0  0
  -45.6910  -65.5600   51.2340 H   0  0  0  0  0  0  0  0  0  0  0  0
  -48.3900  -65.2630   51.9490 H   0  0  0  0  0  0  0  0  0  0  0  0
  -47.5930  -66.7700   51.4230 H   0  0  0  0  0  0  0  0  0  0  0  0
  -47.0740  -68.4710   53.2720 H   0  0  0  0  0  0  0  0  0  0  0  0
  -47.1580  -67.8280   54.9360 H   0  0  0  0  0  0  0  0  0  0  0  0
  -44.9920  -67.6570   52.9140 H   0  0  0  0  0  0  0  0  0  0  0  0
  -45.0120  -67.1860   54.6940 H   0  0  0  0  0  0  0  0  0  0  0  0
  -49.4180  -66.3910   54.9010 H   0  0  0  0  0  0  0  0  0  0  0  0
  -49.5120  -67.7580   53.7100 H   0  0  0  0  0  0  0  0  0  0  0  0
  -49.7990  -66.0240   53.2010 H   0  0  0  0  0  0  0  0  0  0  0  0
  2  1  1  0  0  0  0
  2  7  1  0  0  0  0
  3  2  2  0  0  0  0
  4  3  1  0  0  0  0
  4  5  2  0  0  0  0
  5  6  1  0  0  0  0
  6  7  2  0  0  0  0
  6 35  1  0  0  0  0
  7 36  1  0  0  0  0
  8  5  1  0  0  0  0
  8 26  1  0  0  0  0
  9  8  1  0  0  0  0
 10  9  2  0  0  0  0
 11  9  1  0  0  0  0
 11  4  1  0  0  0  0
 12 11  2  0  0  0  0
 13 12  1  0  0  0  0
 14 16  1  0  0  0  0
 14 13  1  0  0  0  0
 15 14  2  0  0  0  0
 16 39  1  0  0  0  0
 16 38  1  0  0  0  0
 17 16  1  0  0  0  0
 18 17  1  0  0  0  0
 18 19  1  0  0  0  0
 19 24  1  0  0  0  0
 20 19  2  0  0  0  0
 20 40  1  0  0  0  0
 21 20  1  0  0  0  0
 22 23  1  0  0  0  0
 22 21  2  0  0  0  0
 23 18  2  0  0  0  0
 25 24  1  0  0  0  0
 25 46  1  0  0  0  0
 26 47  1  0  0  0  0
 27 26  1  0  0  0  0
 27 32  1  0  0  0  0
 28 29  1  0  0  0  0
 28 49  1  0  0  0  0
 28 27  1  0  0  0  0
 29 30  1  0  0  0  0
 30 33  1  0  0  0  0
 30 31  1  0  0  0  0
 31 54  1  0  0  0  0
 32 31  1  0  0  0  0
 32 56  1  0  0  0  0
 33 57  1  0  0  0  0
 34  3  1  0  0  0  0
 37 13  1  0  0  0  0
 41 21  1  0  0  0  0
 42 22  1  0  0  0  0
 43 23  1  0  0  0  0
 44 25  1  0  0  0  0
 45 25  1  0  0  0  0
 48 26  1  0  0  0  0
 50 28  1  0  0  0  0
 51 29  1  0  0  0  0
 52 29  1  0  0  0  0
 53 31  1  0  0  0  0
 55 32  1  0  0  0  0
 58 33  1  0  0  0  0
 59 33  1  0  0  0  0
M  END
>  <Pose>
1

>  <Score>
-6.92

$$$$
