
 OpenBabel03202209423D

 45 48  0  0  1  0  0  0  0  0999 V2000
  -50.4600  -67.4500   48.3140 B   0  0  0  0  0  0  0  0  0  0  0  0
  -50.1010  -66.1940   49.7280 C   0  0  0  0  0  0  0  0  0  0  0  0
  -48.8810  -66.0610   50.3250 C   0  0  0  0  0  0  0  0  0  0  0  0
  -48.6750  -65.1750   51.3510 C   0  0  0  0  0  0  0  0  0  0  0  0
  -49.7420  -64.4230   51.7540 C   0  0  0  0  0  0  0  0  0  0  0  0
  -51.0030  -64.5370   51.1550 C   0  0  0  0  0  0  0  0  0  0  0  0
  -51.2000  -65.4330   50.1250 C   0  0  0  0  0  0  0  0  0  0  0  0
  -49.3990  -63.5860   52.8410 N   0  0  0  0  0  0  0  0  0  0  0  0
  -48.0590  -63.8190   53.1400 C   0  0  0  0  0  0  0  0  0  0  0  0
  -47.4410  -63.2460   54.0750 O   0  0  0  0  0  0  0  0  0  0  0  0
  -47.5020  -64.8410   52.1790 C   0  0  2  0  0  0  0  0  0  0  0  0
  -46.4000  -64.1650   51.5130 C   0  0  0  0  0  0  0  0  0  0  0  0
  -45.1200  -64.5860   51.7090 C   0  0  0  0  0  0  0  0  0  0  0  0
  -44.3230  -63.7620   50.9720 N   0  0  0  0  0  0  0  0  0  0  0  0
  -45.0650  -62.8800   50.3550 N   0  0  0  0  0  0  0  0  0  0  0  0
  -46.3740  -63.0640   50.6420 C   0  0  0  0  0  0  0  0  0  0  0  0
  -47.4900  -62.2520   50.0940 C   0  0  0  0  0  0  0  0  0  0  0  0
  -46.9910  -61.1560   49.2350 C   0  0  0  0  0  0  0  0  0  0  0  0
  -46.9190  -61.1900   47.9800 O   0  0  0  0  0  0  0  0  0  0  0  0
  -46.5720  -60.0030   49.8610 O   0  0  0  0  0  0  0  0  0  0  0  0
  -45.8170  -58.9710   49.2840 C   0  0  0  0  0  0  0  0  0  0  0  0
  -44.3560  -59.1610   49.6180 C   0  0  0  0  0  0  0  0  0  0  0  0
  -44.7920  -65.6760   52.5410 O   0  0  0  0  0  0  0  0  0  0  0  0
  -45.8430  -66.3150   53.1690 C   0  0  0  0  0  0  0  0  0  0  0  0
  -47.0870  -65.9540   53.0210 C   0  0  0  0  0  0  0  0  0  0  0  0
  -48.1310  -66.6930   53.7370 C   0  0  0  0  0  0  0  0  0  0  0  0
  -48.9330  -67.2750   54.3120 N   0  0  0  0  0  0  0  0  0  0  0  0
  -45.5100  -67.4340   54.0250 N   0  0  0  0  0  0  0  0  0  0  0  0
  -50.2970  -62.6360   53.5280 C   0  0  0  0  0  0  0  0  0  0  0  0
  -48.0730  -66.6630   49.9870 H   0  0  0  0  0  0  0  0  0  0  0  0
  -51.8530  -63.9470   51.4620 H   0  0  0  0  0  0  0  0  0  0  0  0
  -52.1670  -65.5330   49.6530 H   0  0  0  0  0  0  0  0  0  0  0  0
  -44.7340  -62.1060   49.7080 H   0  0  0  0  0  0  0  0  0  0  0  0
  -48.1830  -62.8500   49.4790 H   0  0  0  0  0  0  0  0  0  0  0  0
  -48.1190  -61.8360   50.9210 H   0  0  0  0  0  0  0  0  0  0  0  0
  -46.1020  -57.9780   49.7600 H   0  0  0  0  0  0  0  0  0  0  0  0
  -46.0100  -58.8970   48.2060 H   0  0  0  0  0  0  0  0  0  0  0  0
  -44.2750  -60.0040   50.3660 H   0  0  0  0  0  0  0  0  0  0  0  0
  -43.9190  -58.2870   50.0970 H   0  0  0  0  0  0  0  0  0  0  0  0
  -43.7750  -59.5190   48.7350 H   0  0  0  0  0  0  0  0  0  0  0  0
  -44.9160  -68.2260   53.7240 H   0  0  0  0  0  0  0  0  0  0  0  0
  -45.8880  -67.4310   54.9850 H   0  0  0  0  0  0  0  0  0  0  0  0
  -50.4080  -61.7250   52.8830 H   0  0  0  0  0  0  0  0  0  0  0  0
  -51.2760  -63.1130   53.7350 H   0  0  0  0  0  0  0  0  0  0  0  0
  -49.8090  -62.3100   54.4570 H   0  0  0  0  0  0  0  0  0  0  0  0
  1  2  1  0  0  0  0
  2  7  2  0  0  0  0
  2  3  1  0  0  0  0
  3  4  2  0  0  0  0
  4  5  1  0  0  0  0
  5  8  1  0  0  0  0
  6 31  1  0  0  0  0
  6  5  2  0  0  0  0
  7  6  1  0  0  0  0
  8  9  1  0  0  0  0
  8 29  1  0  0  0  0
  9 10  2  0  0  0  0
 11  4  1  6  0  0  0
 11 25  1  0  0  0  0
 11  9  1  0  0  0  0
 12 13  1  0  0  0  0
 12 11  1  0  0  0  0
 13 23  1  0  0  0  0
 14 13  2  0  0  0  0
 15 16  1  0  0  0  0
 15 14  1  0  0  0  0
 16 12  2  0  0  0  0
 17 16  1  0  0  0  0
 17 35  1  0  0  0  0
 18 20  1  0  0  0  0
 18 17  1  0  0  0  0
 19 18  2  0  0  0  0
 21 22  1  0  0  0  0
 21 36  1  0  0  0  0
 21 20  1  0  0  0  0
 22 39  1  0  0  0  0
 22 38  1  0  0  0  0
 23 24  1  0  0  0  0
 24 28  1  0  0  0  0
 25 24  2  0  0  0  0
 25 26  1  0  0  0  0
 26 27  3  0  0  0  0
 28 42  1  0  0  0  0
 29 44  1  0  0  0  0
 29 45  1  0  0  0  0
 30  3  1  0  0  0  0
 32  7  1  0  0  0  0
 33 15  1  0  0  0  0
 34 17  1  0  0  0  0
 37 21  1  0  0  0  0
 40 22  1  0  0  0  0
 41 28  1  0  0  0  0
 43 29  1  0  0  0  0
M  END
>  <Pose>
1

>  <Score>
-4.15

$$$$
