
 OpenBabel03202209423D

 46 49  0  0  0  0  0  0  0  0999 V2000
  -47.8340  -68.1180   54.0010 B   0  0  0  0  0  0  0  0  0  0  0  0
  -48.4620  -66.3920   53.4620 C   0  0  0  0  0  0  0  0  0  0  0  0
  -47.8800  -65.7330   52.3800 C   0  0  0  0  0  0  0  0  0  0  0  0
  -48.2860  -64.4890   51.9480 C   0  0  0  0  0  0  0  0  0  0  0  0
  -49.3180  -63.8980   52.6380 C   0  0  0  0  0  0  0  0  0  0  0  0
  -49.9270  -64.5320   53.7310 C   0  0  0  0  0  0  0  0  0  0  0  0
  -49.4890  -65.7700   54.1240 C   0  0  0  0  0  0  0  0  0  0  0  0
  -49.5700  -62.6370   52.0350 N   0  0  0  0  0  0  0  0  0  0  0  0
  -48.6870  -62.4250   50.9480 C   0  0  0  0  0  0  0  0  0  0  0  0
  -48.6120  -61.4350   50.1810 O   0  0  0  0  0  0  0  0  0  0  0  0
  -47.8290  -63.6170   50.8600 C   0  0  0  0  0  0  0  0  0  0  0  0
  -46.8720  -63.8180   49.9810 C   0  0  0  0  0  0  0  0  0  0  0  0
  -46.0640  -64.9610   49.9100 N   0  0  0  0  0  0  0  0  0  0  0  0
  -44.9570  -65.1830   50.7080 N   0  0  0  0  0  0  0  0  0  0  0  0
  -44.3990  -64.2040   51.5730 C   0  0  0  0  0  0  0  0  0  0  0  0
  -44.6660  -63.0160   51.3320 O   0  0  0  0  0  0  0  0  0  0  0  0
  -43.5350  -64.5390   52.7270 C   0  0  0  0  0  0  0  0  0  0  0  0
  -42.4640  -65.3470   52.3710 N   0  0  0  0  0  0  0  0  0  0  0  0
  -41.9850  -66.4760   52.8910 C   0  0  0  0  0  0  0  0  0  0  0  0
  -40.8460  -66.8470   52.1880 C   0  0  0  0  0  0  0  0  0  0  0  0
  -40.6590  -65.9130   51.2360 N   0  0  0  0  0  0  0  0  0  0  0  0
  -41.6190  -65.0220   51.3420 C   0  0  0  0  0  0  0  0  0  0  0  0
  -40.1660  -67.9980   52.5320 C   0  0  0  0  0  0  0  0  0  0  0  0
  -39.1370  -68.3060   51.8780 O   0  0  0  0  0  0  0  0  0  0  0  0
  -40.6430  -68.7120   53.5400 N   0  0  0  0  0  0  0  0  0  0  0  0
  -41.7490  -68.3450   54.2130 C   0  0  0  0  0  0  0  0  0  0  0  0
  -42.1670  -69.0510   55.1610 O   0  0  0  0  0  0  0  0  0  0  0  0
  -42.4560  -67.2190   53.9140 N   0  0  0  0  0  0  0  0  0  0  0  0
  -43.6520  -66.8740   54.6270 C   0  0  0  0  0  0  0  0  0  0  0  0
  -39.9550  -69.9470   53.9500 C   0  0  0  0  0  0  0  0  0  0  0  0
  -47.0770  -66.2200   51.8510 H   0  0  0  0  0  0  0  0  0  0  0  0
  -50.7330  -64.0390   54.2460 H   0  0  0  0  0  0  0  0  0  0  0  0
  -49.9780  -66.2520   54.9810 H   0  0  0  0  0  0  0  0  0  0  0  0
  -50.3010  -61.9520   52.3370 H   0  0  0  0  0  0  0  0  0  0  0  0
  -46.6910  -63.0430   49.2490 H   0  0  0  0  0  0  0  0  0  0  0  0
  -46.3440  -65.6830   49.1910 H   0  0  0  0  0  0  0  0  0  0  0  0
  -44.4900  -66.1160   50.6840 H   0  0  0  0  0  0  0  0  0  0  0  0
  -43.3750  -63.6200   53.2760 H   0  0  0  0  0  0  0  0  0  0  0  0
  -44.2190  -65.1400   53.4210 H   0  0  0  0  0  0  0  0  0  0  0  0
  -41.7090  -64.1620   50.6960 H   0  0  0  0  0  0  0  0  0  0  0  0
  -43.7360  -67.6570   55.4600 H   0  0  0  0  0  0  0  0  0  0  0  0
  -43.6540  -65.9580   55.1960 H   0  0  0  0  0  0  0  0  0  0  0  0
  -44.5810  -67.1190   54.0600 H   0  0  0  0  0  0  0  0  0  0  0  0
  -38.8730  -69.7230   54.0420 H   0  0  0  0  0  0  0  0  0  0  0  0
  -40.0490  -70.7300   53.1660 H   0  0  0  0  0  0  0  0  0  0  0  0
  -40.3550  -70.3310   54.9100 H   0  0  0  0  0  0  0  0  0  0  0  0
  2  1  1  0  0  0  0
  2  7  1  0  0  0  0
  3  2  2  0  0  0  0
  4  3  1  0  0  0  0
  4  5  2  0  0  0  0
  5  6  1  0  0  0  0
  6  7  2  0  0  0  0
  6 32  1  0  0  0  0
  7 33  1  0  0  0  0
  8 34  1  0  0  0  0
  8  5  1  0  0  0  0
  9  8  1  0  0  0  0
 10  9  2  0  0  0  0
 11  9  1  0  0  0  0
 11  4  1  0  0  0  0
 12 11  2  0  0  0  0
 13 12  1  0  0  0  0
 13 14  1  0  0  0  0
 14 15  1  0  0  0  0
 15 17  1  0  0  0  0
 16 15  2  0  0  0  0
 17 38  1  0  0  0  0
 17 39  1  0  0  0  0
 18 17  1  0  0  0  0
 18 19  1  0  0  0  0
 19 28  1  0  0  0  0
 20 23  1  0  0  0  0
 20 19  2  0  0  0  0
 21 22  2  0  0  0  0
 21 20  1  0  0  0  0
 22 18  1  0  0  0  0
 23 25  1  0  0  0  0
 24 23  2  0  0  0  0
 25 30  1  0  0  0  0
 25 26  1  0  0  0  0
 26 27  2  0  0  0  0
 28 26  1  0  0  0  0
 28 29  1  0  0  0  0
 29 42  1  0  0  0  0
 29 41  1  0  0  0  0
 30 44  1  0  0  0  0
 30 46  1  0  0  0  0
 31  3  1  0  0  0  0
 35 12  1  0  0  0  0
 36 13  1  0  0  0  0
 37 14  1  0  0  0  0
 40 22  1  0  0  0  0
 43 29  1  0  0  0  0
 45 30  1  0  0  0  0
M  END
>  <Pose>
1

>  <Score>
-6.94

$$$$
