
 OpenBabel03202209423D

 41 44  0  0  0  0  0  0  0  0999 V2000
  -42.0140  -68.7050   54.6690 B   0  0  0  0  0  0  0  0  0  0  0  0
  -40.4710  -68.9780   53.5980 C   0  0  0  0  0  0  0  0  0  0  0  0
  -40.2040  -68.2060   52.5030 C   0  0  0  0  0  0  0  0  0  0  0  0
  -39.0820  -68.4160   51.7310 C   0  0  0  0  0  0  0  0  0  0  0  0
  -38.1810  -69.3940   52.0090 C   0  0  0  0  0  0  0  0  0  0  0  0
  -38.4470  -70.1890   53.1290 C   0  0  0  0  0  0  0  0  0  0  0  0
  -39.5620  -69.9840   53.9010 C   0  0  0  0  0  0  0  0  0  0  0  0
  -37.1210  -69.4130   51.0780 N   0  0  0  0  0  0  0  0  0  0  0  0
  -37.3320  -68.3810   50.1110 C   0  0  0  0  0  0  0  0  0  0  0  0
  -36.6650  -68.0430   49.1310 O   0  0  0  0  0  0  0  0  0  0  0  0
  -38.6080  -67.7250   50.5260 C   0  0  0  0  0  0  0  0  0  0  0  0
  -39.0450  -66.8020   49.9120 N   0  0  0  0  0  0  0  0  0  0  0  0
  -38.8030  -66.0300   48.8320 N   0  0  0  0  0  0  0  0  0  0  0  0
  -39.7880  -65.1460   48.3530 C   0  0  0  0  0  0  0  0  0  0  0  0
  -39.8430  -64.9310   47.0900 O   0  0  0  0  0  0  0  0  0  0  0  0
  -40.7960  -64.4250   49.1350 C   0  0  0  0  0  0  0  0  0  0  0  0
  -41.9160  -65.1970   49.5950 N   0  0  0  0  0  0  0  0  0  0  0  0
  -42.3200  -65.1880   50.9600 C   0  0  0  0  0  0  0  0  0  0  0  0
  -41.3640  -65.1080   51.8250 O   0  0  0  0  0  0  0  0  0  0  0  0
  -43.6620  -65.2600   51.4490 C   0  0  0  0  0  0  0  0  0  0  0  0
  -44.1320  -66.1800   52.3750 C   0  0  0  0  0  0  0  0  0  0  0  0
  -45.4150  -66.1890   52.8040 C   0  0  0  0  0  0  0  0  0  0  0  0
  -46.3310  -65.2700   52.3330 C   0  0  0  0  0  0  0  0  0  0  0  0
  -45.9160  -64.3520   51.4200 C   0  0  0  0  0  0  0  0  0  0  0  0
  -44.5890  -64.3240   50.9670 C   0  0  0  0  0  0  0  0  0  0  0  0
  -47.5670  -65.5130   52.9550 O   0  0  0  0  0  0  0  0  0  0  0  0
  -47.1580  -66.0270   54.2450 C   0  0  0  0  0  0  0  0  0  0  0  0
  -46.1690  -66.9920   53.7380 O   0  0  0  0  0  0  0  0  0  0  0  0
  -40.8730  -67.4220   52.2350 H   0  0  0  0  0  0  0  0  0  0  0  0
  -37.7610  -70.9590   53.3640 H   0  0  0  0  0  0  0  0  0  0  0  0
  -39.8050  -70.5680   54.7750 H   0  0  0  0  0  0  0  0  0  0  0  0
  -36.2990  -70.0630   51.0570 H   0  0  0  0  0  0  0  0  0  0  0  0
  -37.8740  -66.0810   48.3330 H   0  0  0  0  0  0  0  0  0  0  0  0
  -40.2810  -64.0380   50.0550 H   0  0  0  0  0  0  0  0  0  0  0  0
  -41.1570  -63.5420   48.5640 H   0  0  0  0  0  0  0  0  0  0  0  0
  -42.4620  -65.8030   48.9630 H   0  0  0  0  0  0  0  0  0  0  0  0
  -43.4310  -66.9370   52.7700 H   0  0  0  0  0  0  0  0  0  0  0  0
  -46.6430  -63.6140   51.0340 H   0  0  0  0  0  0  0  0  0  0  0  0
  -44.2580  -63.6250   50.2670 H   0  0  0  0  0  0  0  0  0  0  0  0
  -47.9210  -66.4840   54.8240 H   0  0  0  0  0  0  0  0  0  0  0  0
  -46.6250  -65.2430   54.7860 H   0  0  0  0  0  0  0  0  0  0  0  0
  2  7  1  0  0  0  0
  2  1  1  0  0  0  0
  3  2  2  0  0  0  0
  4  5  2  0  0  0  0
  4  3  1  0  0  0  0
  5  6  1  0  0  0  0
  6 30  1  0  0  0  0
  6  7  2  0  0  0  0
  7 31  1  0  0  0  0
  8  5  1  0  0  0  0
  9 11  1  0  0  0  0
  9  8  1  0  0  0  0
 10  9  2  0  0  0  0
 11  4  1  0  0  0  0
 12 11  2  0  0  0  0
 13 12  1  0  0  0  0
 14 13  1  0  0  0  0
 14 16  1  0  0  0  0
 15 14  2  0  0  0  0
 16 17  1  0  0  0  0
 16 34  1  0  0  0  0
 17 18  1  0  0  0  0
 18 20  1  0  0  0  0
 18 19  2  0  0  0  0
 20 21  1  0  0  0  0
 21 37  1  0  0  0  0
 21 22  2  0  0  0  0
 22 28  1  0  0  0  0
 23 22  1  0  0  0  0
 23 26  1  0  0  0  0
 24 23  2  0  0  0  0
 25 24  1  0  0  0  0
 25 20  2  0  0  0  0
 26 27  1  0  0  0  0
 27 41  1  0  0  0  0
 27 40  1  0  0  0  0
 28 27  1  0  0  0  0
 29  3  1  0  0  0  0
 32  8  1  0  0  0  0
 33 13  1  0  0  0  0
 35 16  1  0  0  0  0
 36 17  1  0  0  0  0
 38 24  1  0  0  0  0
 39 25  1  0  0  0  0
M  END
>  <Pose>
1

>  <Score>
-7.29

$$$$
