
 OpenBabel03202209423D

 38 41  0  0  1  0  0  0  0  0999 V2000
  -50.7110  -68.8490   49.2970 B   0  0  0  0  0  0  0  0  0  0  0  0
  -50.2460  -67.1680   50.0490 C   0  0  0  0  0  0  0  0  0  0  0  0
  -49.6590  -67.0570   51.3140 C   0  0  0  0  0  0  0  0  0  0  0  0
  -49.3260  -65.8410   51.8490 C   0  0  0  0  0  0  0  0  0  0  0  0
  -49.5750  -64.7060   51.1340 C   0  0  0  0  0  0  0  0  0  0  0  0
  -50.1620  -64.7650   49.8630 C   0  0  0  0  0  0  0  0  0  0  0  0
  -50.4840  -65.9990   49.3510 C   0  0  0  0  0  0  0  0  0  0  0  0
  -49.1630  -63.5560   51.8540 N   0  0  0  0  0  0  0  0  0  0  0  0
  -48.6320  -63.9950   53.0790 C   0  0  0  0  0  0  0  0  0  0  0  0
  -48.1550  -63.2950   54.0110 O   0  0  0  0  0  0  0  0  0  0  0  0
  -48.7100  -65.4710   53.1360 C   0  0  1  0  0  0  0  0  0  0  0  0
  -49.5840  -65.8810   54.2820 C   0  0  0  0  0  0  0  0  0  0  0  0
  -49.2340  -66.6800   55.2550 C   0  0  0  0  0  0  0  0  0  0  0  0
  -47.9230  -67.2140   55.2430 N   0  0  0  0  0  0  0  0  0  0  0  0
  -47.0230  -66.8820   54.1970 C   0  0  0  0  0  0  0  0  0  0  0  0
  -47.3720  -66.0810   53.2200 C   0  0  0  0  0  0  0  0  0  0  0  0
  -46.3830  -65.7890   52.1790 C   0  0  0  0  0  0  0  0  0  0  0  0
  -45.5890  -65.5670   51.3680 N   0  0  0  0  0  0  0  0  0  0  0  0
  -45.6820  -67.4420   54.2060 N   0  0  0  0  0  0  0  0  0  0  0  0
  -50.3830  -66.8280   56.1810 C   0  0  0  0  0  0  0  0  0  0  0  0
  -51.4310  -66.0480   55.6650 O   0  0  0  0  0  0  0  0  0  0  0  0
  -50.9770  -65.4540   54.5040 C   0  0  0  0  0  0  0  0  0  0  0  0
  -51.6640  -64.6710   53.7610 O   0  0  0  0  0  0  0  0  0  0  0  0
  -50.0510  -66.2440   57.5560 C   0  0  0  0  0  0  0  0  0  0  0  0
  -50.7890  -68.2880   56.3210 C   0  0  0  0  0  0  0  0  0  0  0  0
  -49.4840  -67.9880   51.8390 H   0  0  0  0  0  0  0  0  0  0  0  0
  -50.3720  -63.8940   49.2710 H   0  0  0  0  0  0  0  0  0  0  0  0
  -50.9410  -66.0470   48.3630 H   0  0  0  0  0  0  0  0  0  0  0  0
  -49.2500  -62.5490   51.5090 H   0  0  0  0  0  0  0  0  0  0  0  0
  -47.5850  -67.8630   56.0000 H   0  0  0  0  0  0  0  0  0  0  0  0
  -45.0740  -67.4750   53.3720 H   0  0  0  0  0  0  0  0  0  0  0  0
  -45.3280  -67.8240   55.0980 H   0  0  0  0  0  0  0  0  0  0  0  0
  -51.0310  -66.0160   58.0270 H   0  0  0  0  0  0  0  0  0  0  0  0
  -49.5460  -66.9750   58.1950 H   0  0  0  0  0  0  0  0  0  0  0  0
  -49.5170  -65.2970   57.4310 H   0  0  0  0  0  0  0  0  0  0  0  0
  -50.5890  -68.6600   57.3530 H   0  0  0  0  0  0  0  0  0  0  0  0
  -51.8900  -68.3350   56.1080 H   0  0  0  0  0  0  0  0  0  0  0  0
  -50.2750  -68.8940   55.5600 H   0  0  0  0  0  0  0  0  0  0  0  0
  1  2  1  0  0  0  0
  2  3  1  0  0  0  0
  3 26  1  0  0  0  0
  3  4  2  0  0  0  0
  5  4  1  0  0  0  0
  5  8  1  0  0  0  0
  6  5  2  0  0  0  0
  7  6  1  0  0  0  0
  7  2  2  0  0  0  0
  8  9  1  0  0  0  0
  9 11  1  0  0  0  0
  9 10  2  0  0  0  0
 11  4  1  6  0  0  0
 11 16  1  0  0  0  0
 11 12  1  0  0  0  0
 12 22  1  0  0  0  0
 12 13  2  0  0  0  0
 13 20  1  0  0  0  0
 14 13  1  0  0  0  0
 14 30  1  0  0  0  0
 15 19  1  0  0  0  0
 15 14  1  0  0  0  0
 16 15  2  0  0  0  0
 17 16  1  0  0  0  0
 18 17  3  0  0  0  0
 19 32  1  0  0  0  0
 20 25  1  0  0  0  0
 20 24  1  0  0  0  0
 21 20  1  0  0  0  0
 22 21  1  0  0  0  0
 23 22  2  0  0  0  0
 24 33  1  0  0  0  0
 24 34  1  0  0  0  0
 25 36  1  0  0  0  0
 27  6  1  0  0  0  0
 28  7  1  0  0  0  0
 29  8  1  0  0  0  0
 31 19  1  0  0  0  0
 35 24  1  0  0  0  0
 37 25  1  0  0  0  0
 38 25  1  0  0  0  0
M  END
>  <Pose>
1

>  <Score>
-4.23

$$$$
