
 OpenBabel03202209423D

 49 52  0  0  1  0  0  0  0  0999 V2000
  -42.4660  -67.7650   54.4730 B   0  0  0  0  0  0  0  0  0  0  0  0
  -43.5690  -66.3640   53.7940 C   0  0  0  0  0  0  0  0  0  0  0  0
  -44.9310  -66.5160   53.7230 C   0  0  0  0  0  0  0  0  0  0  0  0
  -45.7540  -65.4900   53.2230 C   0  0  0  0  0  0  0  0  0  0  0  0
  -45.2260  -64.3060   52.7910 C   0  0  0  0  0  0  0  0  0  0  0  0
  -43.8340  -64.1520   52.8640 C   0  0  0  0  0  0  0  0  0  0  0  0
  -43.0470  -65.1680   53.3550 C   0  0  0  0  0  0  0  0  0  0  0  0
  -46.2470  -63.4310   52.3340 N   0  0  0  0  0  0  0  0  0  0  0  0
  -47.4800  -64.1050   52.4900 C   0  0  0  0  0  0  0  0  0  0  0  0
  -48.5910  -63.5690   52.1630 O   0  0  0  0  0  0  0  0  0  0  0  0
  -47.2220  -65.4200   53.0510 C   0  0  2  0  0  0  0  0  0  0  0  0
  -47.9280  -65.6690   54.2930 N   0  0  0  0  0  0  0  0  0  0  0  0
  -49.2050  -66.2420   53.9110 C   0  0  1  0  0  0  0  0  0  0  0  0
  -48.8090  -67.1790   52.8070 C   0  0  2  0  0  0  0  0  0  0  0  0
  -47.7060  -66.4820   52.0860 C   0  0  1  0  0  0  0  0  0  0  0  0
  -48.3140  -65.9200   50.8700 C   0  0  0  0  0  0  0  0  0  0  0  0
  -47.8550  -65.0210   50.0910 O   0  0  0  0  0  0  0  0  0  0  0  0
  -49.5730  -66.5380   50.6400 N   0  0  0  0  0  0  0  0  0  0  0  0
  -49.8620  -67.3240   51.7790 C   0  0  0  0  0  0  0  0  0  0  0  0
  -50.8770  -68.0680   51.9390 O   0  0  0  0  0  0  0  0  0  0  0  0
  -50.4080  -66.3960   49.4630 C   0  0  0  0  0  0  0  0  0  0  0  0
  -49.8720  -67.1470   48.2880 C   0  0  0  0  0  0  0  0  0  0  0  0
  -50.9270  -68.1940   47.9120 C   0  0  0  0  0  0  0  0  0  0  0  0
  -50.8280  -69.3890   48.8190 C   0  0  0  0  0  0  0  0  0  0  0  0
  -49.8070  -66.9360   55.0920 C   0  0  2  0  0  0  0  0  0  0  0  0
  -49.8140  -66.0320   56.1620 O   0  0  0  0  0  0  0  0  0  0  0  0
  -48.9450  -68.1040   55.5030 C   0  0  0  0  0  0  0  0  0  0  0  0
  -45.4180  -67.4420   54.0540 H   0  0  0  0  0  0  0  0  0  0  0  0
  -43.4080  -63.2070   52.5190 H   0  0  0  0  0  0  0  0  0  0  0  0
  -41.9680  -65.0590   53.4160 H   0  0  0  0  0  0  0  0  0  0  0  0
  -46.0600  -62.4660   51.9580 H   0  0  0  0  0  0  0  0  0  0  0  0
  -48.0240  -64.8190   54.8780 H   0  0  0  0  0  0  0  0  0  0  0  0
  -49.8930  -65.4940   53.4870 H   0  0  0  0  0  0  0  0  0  0  0  0
  -48.4690  -68.1650   53.1830 H   0  0  0  0  0  0  0  0  0  0  0  0
  -46.8930  -67.2090   51.8370 H   0  0  0  0  0  0  0  0  0  0  0  0
  -51.4470  -66.7330   49.6400 H   0  0  0  0  0  0  0  0  0  0  0  0
  -50.4640  -65.3140   49.2030 H   0  0  0  0  0  0  0  0  0  0  0  0
  -48.9720  -67.7420   48.5890 H   0  0  0  0  0  0  0  0  0  0  0  0
  -49.5850  -66.5390   47.4320 H   0  0  0  0  0  0  0  0  0  0  0  0
  -51.9110  -67.6900   48.0950 H   0  0  0  0  0  0  0  0  0  0  0  0
  -50.8730  -68.4480   46.8430 H   0  0  0  0  0  0  0  0  0  0  0  0
  -49.8020  -69.6040   49.1520 H   0  0  0  0  0  0  0  0  0  0  0  0
  -51.4380  -69.2310   49.7500 H   0  0  0  0  0  0  0  0  0  0  0  0
  -51.2880  -70.2580   48.3090 H   0  0  0  0  0  0  0  0  0  0  0  0
  -50.8310  -67.2920   54.8530 H   0  0  0  0  0  0  0  0  0  0  0  0
  -49.0200  -65.4400   56.1300 H   0  0  0  0  0  0  0  0  0  0  0  0
  -49.1950  -68.9850   54.8790 H   0  0  0  0  0  0  0  0  0  0  0  0
  -47.8950  -67.8010   55.4060 H   0  0  0  0  0  0  0  0  0  0  0  0
  -49.2310  -68.3650   56.5560 H   0  0  0  0  0  0  0  0  0  0  0  0
  2  1  1  0  0  0  0
  3  2  1  0  0  0  0
  3 28  1  0  0  0  0
  4  3  2  0  0  0  0
  5  6  2  0  0  0  0
  5  4  1  0  0  0  0
  6  7  1  0  0  0  0
  7 30  1  0  0  0  0
  7  2  2  0  0  0  0
  8  9  1  0  0  0  0
  8  5  1  0  0  0  0
 10  9  2  0  0  0  0
 11  9  1  6  0  0  0
 11  4  1  0  0  0  0
 11 12  1  0  0  0  0
 12 32  1  0  0  0  0
 13 33  1  6  0  0  0
 13 12  1  0  0  0  0
 13 25  1  0  0  0  0
 14 34  1  1  0  0  0
 14 13  1  0  0  0  0
 15 35  1  6  0  0  0
 15 14  1  0  0  0  0
 15 11  1  0  0  0  0
 16 15  1  0  0  0  0
 17 16  2  0  0  0  0
 18 16  1  0  0  0  0
 18 19  1  0  0  0  0
 19 20  2  0  0  0  0
 19 14  1  0  0  0  0
 21 36  1  0  0  0  0
 21 18  1  0  0  0  0
 22 38  1  0  0  0  0
 22 21  1  0  0  0  0
 23 40  1  0  0  0  0
 23 22  1  0  0  0  0
 23 24  1  0  0  0  0
 24 42  1  0  0  0  0
 24 43  1  0  0  0  0
 25 45  1  6  0  0  0
 25 27  1  0  0  0  0
 25 26  1  0  0  0  0
 27 49  1  0  0  0  0
 29  6  1  0  0  0  0
 31  8  1  0  0  0  0
 37 21  1  0  0  0  0
 39 22  1  0  0  0  0
 41 23  1  0  0  0  0
 44 24  1  0  0  0  0
 46 26  1  0  0  0  0
 47 27  1  0  0  0  0
 48 27  1  0  0  0  0
M  END
>  <Pose>
1

>  <Score>
-6.25

$$$$
