
 OpenBabel03202209423D

 53 57  0  0  1  0  0  0  0  0999 V2000
  -45.9180  -70.2720   50.2100 B   0  0  0  0  0  0  0  0  0  0  0  0
  -45.8140  -68.9290   51.5630 C   0  0  0  0  0  0  0  0  0  0  0  0
  -44.6240  -68.5520   52.1430 C   0  0  0  0  0  0  0  0  0  0  0  0
  -44.5530  -67.5690   53.1420 C   0  0  0  0  0  0  0  0  0  0  0  0
  -45.7320  -66.9810   53.5310 C   0  0  0  0  0  0  0  0  0  0  0  0
  -46.9360  -67.3560   52.9510 C   0  0  0  0  0  0  0  0  0  0  0  0
  -46.9920  -68.3230   51.9710 C   0  0  0  0  0  0  0  0  0  0  0  0
  -45.5100  -66.0260   54.5500 N   0  0  0  0  0  0  0  0  0  0  0  0
  -44.1260  -66.0080   54.8190 C   0  0  0  0  0  0  0  0  0  0  0  0
  -43.6120  -65.2510   55.6900 O   0  0  0  0  0  0  0  0  0  0  0  0
  -43.4670  -66.9900   53.9320 C   0  0  1  0  0  0  0  0  0  0  0  0
  -42.7880  -68.0200   54.7240 N   0  0  0  0  0  0  0  0  0  0  0  0
  -41.6280  -68.4020   53.9500 C   0  0  1  0  0  0  0  0  0  0  0  0
  -41.2560  -67.2640   53.0840 C   0  0  2  0  0  0  0  0  0  0  0  0
  -42.4040  -66.2760   53.1830 C   0  0  1  0  0  0  0  0  0  0  0  0
  -42.6900  -65.8700   51.8120 C   0  0  0  0  0  0  0  0  0  0  0  0
  -43.6510  -65.1570   51.4300 O   0  0  0  0  0  0  0  0  0  0  0  0
  -41.6950  -66.4090   50.9160 N   0  0  0  0  0  0  0  0  0  0  0  0
  -41.1690  -67.5430   51.6370 C   0  0  0  0  0  0  0  0  0  0  0  0
  -40.7210  -68.5710   51.1080 O   0  0  0  0  0  0  0  0  0  0  0  0
  -41.2820  -65.9390   49.6330 C   0  0  0  0  0  0  0  0  0  0  0  0
  -39.8590  -66.2270   49.2500 C   0  0  0  0  0  0  0  0  0  0  0  0
  -39.0470  -65.0400   48.9320 C   0  0  0  0  0  0  0  0  0  0  0  0
  -37.7780  -64.9150   49.4830 C   0  0  0  0  0  0  0  0  0  0  0  0
  -37.0110  -63.8410   49.1770 C   0  0  0  0  0  0  0  0  0  0  0  0
  -37.4310  -62.8530   48.3350 C   0  0  0  0  0  0  0  0  0  0  0  0
  -38.6990  -62.9880   47.7900 C   0  0  0  0  0  0  0  0  0  0  0  0
  -39.4910  -64.0600   48.0830 C   0  0  0  0  0  0  0  0  0  0  0  0
  -40.5170  -68.8620   54.8650 C   0  0  1  0  0  0  0  0  0  0  0  0
  -41.0400  -69.2480   56.0840 O   0  0  0  0  0  0  0  0  0  0  0  0
  -39.6630  -69.9360   54.2360 C   0  0  0  0  0  0  0  0  0  0  0  0
  -43.7220  -69.0390   51.8060 H   0  0  0  0  0  0  0  0  0  0  0  0
  -47.8770  -66.8960   53.2510 H   0  0  0  0  0  0  0  0  0  0  0  0
  -47.9290  -68.6300   51.5030 H   0  0  0  0  0  0  0  0  0  0  0  0
  -46.2490  -65.4340   55.0210 H   0  0  0  0  0  0  0  0  0  0  0  0
  -43.4130  -68.8380   54.9040 H   0  0  0  0  0  0  0  0  0  0  0  0
  -41.9080  -69.2720   53.3290 H   0  0  0  0  0  0  0  0  0  0  0  0
  -40.2950  -66.7750   53.3620 H   0  0  0  0  0  0  0  0  0  0  0  0
  -42.0170  -65.3750   53.7180 H   0  0  0  0  0  0  0  0  0  0  0  0
  -41.9850  -66.4060   48.8770 H   0  0  0  0  0  0  0  0  0  0  0  0
  -41.4180  -64.8260   49.5640 H   0  0  0  0  0  0  0  0  0  0  0  0
  -39.8220  -66.9260   48.3740 H   0  0  0  0  0  0  0  0  0  0  0  0
  -39.3820  -66.8280   50.0790 H   0  0  0  0  0  0  0  0  0  0  0  0
  -37.4050  -65.6840   50.1620 H   0  0  0  0  0  0  0  0  0  0  0  0
  -36.0130  -63.7890   49.6410 H   0  0  0  0  0  0  0  0  0  0  0  0
  -36.8280  -61.9960   48.0850 H   0  0  0  0  0  0  0  0  0  0  0  0
  -39.0350  -62.2000   47.1130 H   0  0  0  0  0  0  0  0  0  0  0  0
  -40.4730  -64.1670   47.6630 H   0  0  0  0  0  0  0  0  0  0  0  0
  -39.8580  -67.9810   55.0360 H   0  0  0  0  0  0  0  0  0  0  0  0
  -41.0630  -70.2180   56.1920 H   0  0  0  0  0  0  0  0  0  0  0  0
  -38.9040  -69.5340   53.5520 H   0  0  0  0  0  0  0  0  0  0  0  0
  -40.2470  -70.7150   53.7350 H   0  0  0  0  0  0  0  0  0  0  0  0
  -39.1060  -70.4360   55.0680 H   0  0  0  0  0  0  0  0  0  0  0  0
  1  2  1  0  0  0  0
  2  7  2  0  0  0  0
  2  3  1  0  0  0  0
  3  4  2  0  0  0  0
  4  5  1  0  0  0  0
  5  8  1  0  0  0  0
  6 33  1  0  0  0  0
  6  5  2  0  0  0  0
  7  6  1  0  0  0  0
  8  9  1  0  0  0  0
  8 35  1  0  0  0  0
  9 10  2  0  0  0  0
 11  4  1  6  0  0  0
 11 12  1  0  0  0  0
 11  9  1  0  0  0  0
 12 36  1  0  0  0  0
 13 37  1  6  0  0  0
 13 12  1  0  0  0  0
 13 29  1  0  0  0  0
 14 15  1  0  0  0  0
 14 38  1  1  0  0  0
 14 13  1  0  0  0  0
 15 39  1  1  0  0  0
 15 11  1  0  0  0  0
 16 15  1  0  0  0  0
 17 16  2  0  0  0  0
 18 19  1  0  0  0  0
 18 16  1  0  0  0  0
 19 14  1  0  0  0  0
 20 19  2  0  0  0  0
 21 18  1  0  0  0  0
 22 21  1  0  0  0  0
 22 43  1  0  0  0  0
 23 22  1  0  0  0  0
 23 24  1  0  0  0  0
 24 44  1  0  0  0  0
 25 24  2  0  0  0  0
 25 45  1  0  0  0  0
 26 25  1  0  0  0  0
 27 28  1  0  0  0  0
 27 26  2  0  0  0  0
 28 23  2  0  0  0  0
 29 49  1  1  0  0  0
 29 30  1  0  0  0  0
 30 50  1  0  0  0  0
 31 29  1  0  0  0  0
 31 53  1  0  0  0  0
 32  3  1  0  0  0  0
 34  7  1  0  0  0  0
 40 21  1  0  0  0  0
 41 21  1  0  0  0  0
 42 22  1  0  0  0  0
 46 26  1  0  0  0  0
 47 27  1  0  0  0  0
 48 28  1  0  0  0  0
 51 31  1  0  0  0  0
 52 31  1  0  0  0  0
M  END
>  <Pose>
1

>  <Score>
-4.88

$$$$
