
 OpenBabel03202209423D

 47 50  0  0  1  0  0  0  0  0999 V2000
  -42.1300  -68.7400   54.4330 B   0  0  0  0  0  0  0  0  0  0  0  0
  -43.1110  -67.1870   53.9220 C   0  0  0  0  0  0  0  0  0  0  0  0
  -44.4870  -67.1510   53.8810 C   0  0  0  0  0  0  0  0  0  0  0  0
  -45.1990  -66.0120   53.5070 C   0  0  0  0  0  0  0  0  0  0  0  0
  -44.5110  -64.8760   53.1630 C   0  0  0  0  0  0  0  0  0  0  0  0
  -43.1250  -64.8810   53.1930 C   0  0  0  0  0  0  0  0  0  0  0  0
  -42.4360  -66.0380   53.5730 C   0  0  0  0  0  0  0  0  0  0  0  0
  -45.4260  -63.8310   52.8200 N   0  0  0  0  0  0  0  0  0  0  0  0
  -46.7440  -64.3350   52.9560 C   0  0  0  0  0  0  0  0  0  0  0  0
  -47.7640  -63.6520   52.7370 O   0  0  0  0  0  0  0  0  0  0  0  0
  -46.6570  -65.7240   53.3780 C   0  0  2  0  0  0  0  0  0  0  0  0
  -47.3170  -65.8230   54.6790 N   0  0  0  0  0  0  0  0  0  0  0  0
  -48.0090  -67.0770   54.6680 C   0  0  2  0  0  0  0  0  0  0  0  0
  -48.4930  -67.2050   53.2700 C   0  0  2  0  0  0  0  0  0  0  0  0
  -47.3100  -66.7180   52.4660 C   0  0  1  0  0  0  0  0  0  0  0  0
  -47.8910  -66.1760   51.2450 C   0  0  0  0  0  0  0  0  0  0  0  0
  -47.2790  -65.9490   50.1800 O   0  0  0  0  0  0  0  0  0  0  0  0
  -49.2750  -65.9500   51.4860 N   0  0  0  0  0  0  0  0  0  0  0  0
  -49.5500  -66.2400   52.8770 C   0  0  0  0  0  0  0  0  0  0  0  0
  -50.4980  -65.7270   53.4930 O   0  0  0  0  0  0  0  0  0  0  0  0
  -50.2080  -65.5120   50.4890 C   0  0  0  0  0  0  0  0  0  0  0  0
  -50.9630  -66.5980   49.7970 C   0  0  0  0  0  0  0  0  0  0  0  0
  -50.1590  -67.4140   49.0170 O   0  0  0  0  0  0  0  0  0  0  0  0
  -50.6220  -68.7270   49.0010 C   0  0  0  0  0  0  0  0  0  0  0  0
  -49.0560  -67.1970   55.7220 C   0  0  0  0  0  0  0  0  0  0  0  0
  -49.0550  -68.5570   56.2720 C   0  0  0  0  0  0  0  0  0  0  0  0
  -49.7850  -69.4440   55.7460 O   0  0  0  0  0  0  0  0  0  0  0  0
  -48.2410  -68.8930   57.3940 N   0  0  0  0  0  0  0  0  0  0  0  0
  -44.9990  -68.0660   54.1590 H   0  0  0  0  0  0  0  0  0  0  0  0
  -42.5970  -63.9790   52.9200 H   0  0  0  0  0  0  0  0  0  0  0  0
  -41.3530  -66.0220   53.5910 H   0  0  0  0  0  0  0  0  0  0  0  0
  -45.1370  -62.8590   52.5200 H   0  0  0  0  0  0  0  0  0  0  0  0
  -48.0310  -65.0630   54.7840 H   0  0  0  0  0  0  0  0  0  0  0  0
  -47.2960  -67.9300   54.8340 H   0  0  0  0  0  0  0  0  0  0  0  0
  -48.7750  -68.2470   52.9980 H   0  0  0  0  0  0  0  0  0  0  0  0
  -46.6690  -67.6140   52.2940 H   0  0  0  0  0  0  0  0  0  0  0  0
  -49.6500  -64.9620   49.6970 H   0  0  0  0  0  0  0  0  0  0  0  0
  -50.9790  -64.8370   50.9480 H   0  0  0  0  0  0  0  0  0  0  0  0
  -51.8200  -66.2170   49.1960 H   0  0  0  0  0  0  0  0  0  0  0  0
  -51.4110  -67.2420   50.5810 H   0  0  0  0  0  0  0  0  0  0  0  0
  -49.9040  -69.2980   48.3460 H   0  0  0  0  0  0  0  0  0  0  0  0
  -50.5870  -69.2150   49.9790 H   0  0  0  0  0  0  0  0  0  0  0  0
  -51.6060  -68.8160   48.4880 H   0  0  0  0  0  0  0  0  0  0  0  0
  -49.0100  -66.4410   56.5190 H   0  0  0  0  0  0  0  0  0  0  0  0
  -50.0480  -67.0490   55.2210 H   0  0  0  0  0  0  0  0  0  0  0  0
  -47.3750  -69.4550   57.2640 H   0  0  0  0  0  0  0  0  0  0  0  0
  -48.5200  -68.5710   58.3430 H   0  0  0  0  0  0  0  0  0  0  0  0
  2  1  1  0  0  0  0
  3  2  1  0  0  0  0
  3 29  1  0  0  0  0
  4  3  2  0  0  0  0
  5  6  2  0  0  0  0
  5  4  1  0  0  0  0
  6  7  1  0  0  0  0
  7 31  1  0  0  0  0
  7  2  2  0  0  0  0
  8  9  1  0  0  0  0
  8  5  1  0  0  0  0
 10  9  2  0  0  0  0
 11  9  1  6  0  0  0
 11  4  1  0  0  0  0
 11 12  1  0  0  0  0
 12 33  1  0  0  0  0
 13 12  1  0  0  0  0
 13 34  1  1  0  0  0
 13 25  1  0  0  0  0
 14 35  1  6  0  0  0
 14 13  1  0  0  0  0
 15 36  1  6  0  0  0
 15 14  1  0  0  0  0
 15 11  1  0  0  0  0
 16 18  1  0  0  0  0
 16 15  1  0  0  0  0
 17 16  2  0  0  0  0
 18 19  1  0  0  0  0
 19 14  1  0  0  0  0
 19 20  2  0  0  0  0
 21 38  1  0  0  0  0
 21 18  1  0  0  0  0
 22 21  1  0  0  0  0
 22 40  1  0  0  0  0
 23 22  1  0  0  0  0
 24 23  1  0  0  0  0
 24 42  1  0  0  0  0
 25 26  1  0  0  0  0
 25 44  1  0  0  0  0
 26 28  1  0  0  0  0
 27 26  2  0  0  0  0
 28 47  1  0  0  0  0
 30  6  1  0  0  0  0
 32  8  1  0  0  0  0
 37 21  1  0  0  0  0
 39 22  1  0  0  0  0
 41 24  1  0  0  0  0
 43 24  1  0  0  0  0
 45 25  1  0  0  0  0
 46 28  1  0  0  0  0
M  END
>  <Pose>
1

>  <Score>
-6.62

$$$$
