
 OpenBabel03202209423D

 39 42  0  0  1  0  0  0  0  0999 V2000
  -41.0300  -69.0000   54.9990 B   0  0  0  0  0  0  0  0  0  0  0  0
  -41.4620  -67.7930   53.5900 C   0  0  0  0  0  0  0  0  0  0  0  0
  -42.2620  -66.7240   53.8740 C   0  0  0  0  0  0  0  0  0  0  0  0
  -42.5920  -65.8310   52.8680 C   0  0  0  0  0  0  0  0  0  0  0  0
  -42.1130  -66.0200   51.5770 C   0  0  0  0  0  0  0  0  0  0  0  0
  -41.3030  -67.0960   51.2750 C   0  0  0  0  0  0  0  0  0  0  0  0
  -41.0020  -67.9570   52.3050 C   0  0  0  0  0  0  0  0  0  0  0  0
  -42.3810  -65.1770   50.4750 N   0  0  0  0  0  0  0  0  0  0  0  0
  -41.5670  -65.1480   49.4140 N   0  0  0  0  0  0  0  0  0  0  0  0
  -42.0870  -64.2830   48.5860 N   0  0  0  0  0  0  0  0  0  0  0  0
  -43.1980  -63.7710   49.0900 N   0  0  0  0  0  0  0  0  0  0  0  0
  -43.3950  -64.3450   50.3120 C   0  0  0  0  0  0  0  0  0  0  0  0
  -44.5780  -63.9890   51.1710 C   0  0  2  0  0  0  0  0  0  0  0  0
  -44.1780  -63.8470   52.5680 N   0  0  0  0  0  0  0  0  0  0  0  0
  -43.4550  -64.7620   53.3840 C   0  0  0  0  0  0  0  0  0  0  0  0
  -43.5580  -64.6500   54.6370 O   0  0  0  0  0  0  0  0  0  0  0  0
  -45.5030  -65.1750   51.1170 C   0  0  0  0  0  0  0  0  0  0  0  0
  -46.8840  -64.7560   51.5020 C   0  0  0  0  0  0  0  0  0  0  0  0
  -47.3100  -63.8510   50.5670 O   0  0  0  0  0  0  0  0  0  0  0  0
  -46.6330  -62.6610   50.5430 C   0  0  0  0  0  0  0  0  0  0  0  0
  -45.1740  -62.7180   50.6860 C   0  0  0  0  0  0  0  0  0  0  0  0
  -47.8240  -65.9640   51.4100 C   0  0  0  0  0  0  0  0  0  0  0  0
  -46.9850  -64.2510   52.9170 C   0  0  0  0  0  0  0  0  0  0  0  0
  -42.6660  -66.5230   54.8590 H   0  0  0  0  0  0  0  0  0  0  0  0
  -40.9500  -67.2090   50.2600 H   0  0  0  0  0  0  0  0  0  0  0  0
  -40.3710  -68.8010   52.0830 H   0  0  0  0  0  0  0  0  0  0  0  0
  -44.4570  -62.9460   53.0610 H   0  0  0  0  0  0  0  0  0  0  0  0
  -45.1360  -65.9290   51.8490 H   0  0  0  0  0  0  0  0  0  0  0  0
  -45.5550  -65.6040   50.0940 H   0  0  0  0  0  0  0  0  0  0  0  0
  -47.1040  -62.0090   51.3390 H   0  0  0  0  0  0  0  0  0  0  0  0
  -46.9320  -62.1440   49.5810 H   0  0  0  0  0  0  0  0  0  0  0  0
  -44.6990  -62.4160   49.7040 H   0  0  0  0  0  0  0  0  0  0  0  0
  -44.8530  -61.8870   51.3820 H   0  0  0  0  0  0  0  0  0  0  0  0
  -47.5400  -66.6360   50.5840 H   0  0  0  0  0  0  0  0  0  0  0  0
  -48.8720  -65.6640   51.4280 H   0  0  0  0  0  0  0  0  0  0  0  0
  -47.6380  -66.5430   52.3610 H   0  0  0  0  0  0  0  0  0  0  0  0
  -48.0420  -64.4350   53.2720 H   0  0  0  0  0  0  0  0  0  0  0  0
  -46.8470  -63.1560   53.0050 H   0  0  0  0  0  0  0  0  0  0  0  0
  -46.3450  -64.8210   53.6030 H   0  0  0  0  0  0  0  0  0  0  0  0
  2  3  1  0  0  0  0
  2  1  1  0  0  0  0
  3 24  1  0  0  0  0
  4 15  1  0  0  0  0
  4  3  2  0  0  0  0
  5  4  1  0  0  0  0
  6  5  2  0  0  0  0
  6  7  1  0  0  0  0
  7  2  2  0  0  0  0
  8  5  1  0  0  0  0
  9  8  1  0  0  0  0
 10 11  1  0  0  0  0
 10  9  2  0  0  0  0
 11 12  2  0  0  0  0
 12  8  1  0  0  0  0
 13 12  1  6  0  0  0
 13 14  1  0  0  0  0
 14 27  1  0  0  0  0
 14 15  1  0  0  0  0
 15 16  2  0  0  0  0
 17 13  1  0  0  0  0
 17 18  1  0  0  0  0
 17 28  1  0  0  0  0
 18 23  1  0  0  0  0
 19 18  1  0  0  0  0
 20 19  1  0  0  0  0
 20 21  1  0  0  0  0
 20 30  1  0  0  0  0
 21 13  1  0  0  0  0
 21 33  1  0  0  0  0
 22 35  1  0  0  0  0
 22 18  1  0  0  0  0
 22 36  1  0  0  0  0
 23 38  1  0  0  0  0
 23 37  1  0  0  0  0
 23 39  1  0  0  0  0
 25  6  1  0  0  0  0
 26  7  1  0  0  0  0
 29 17  1  0  0  0  0
 31 20  1  0  0  0  0
 32 21  1  0  0  0  0
 34 22  1  0  0  0  0
M  END
>  <Pose>
1

>  <Score>
-5.38

$$$$
