
 OpenBabel03202209423D

 33 36  0  0  1  0  0  0  0  0999 V2000
  -37.8930  -69.5660   51.2580 B   0  0  0  0  0  0  0  0  0  0  0  0
  -39.3140  -68.9330   52.3480 C   0  0  0  0  0  0  0  0  0  0  0  0
  -40.0840  -67.8980   51.8970 C   0  0  0  0  0  0  0  0  0  0  0  0
  -41.1290  -67.4320   52.7010 C   0  0  0  0  0  0  0  0  0  0  0  0
  -41.3460  -68.0240   53.9020 C   0  0  0  0  0  0  0  0  0  0  0  0
  -40.5490  -69.0920   54.3640 C   0  0  0  0  0  0  0  0  0  0  0  0
  -39.5230  -69.5460   53.5710 C   0  0  0  0  0  0  0  0  0  0  0  0
  -42.3670  -67.6010   54.7330 O   0  0  0  0  0  0  0  0  0  0  0  0
  -43.1680  -66.5590   54.3170 C   0  0  0  0  0  0  0  0  0  0  0  0
  -43.0190  -65.9390   53.1710 C   0  0  0  0  0  0  0  0  0  0  0  0
  -41.9720  -66.3140   52.2300 C   0  0  1  0  0  0  0  0  0  0  0  0
  -41.1480  -65.1600   51.7970 C   0  0  0  0  0  0  0  0  0  0  0  0
  -41.3190  -64.9840   50.4520 C   0  0  0  0  0  0  0  0  0  0  0  0
  -40.5590  -63.9200   50.0560 N   0  0  0  0  0  0  0  0  0  0  0  0
  -39.9490  -63.4730   51.1400 N   0  0  0  0  0  0  0  0  0  0  0  0
  -40.2770  -64.1950   52.2190 C   0  0  0  0  0  0  0  0  0  0  0  0
  -39.7520  -63.9380   53.5940 C   0  0  0  0  0  0  0  0  0  0  0  0
  -42.2100  -65.9410   49.9210 N   0  0  0  0  0  0  0  0  0  0  0  0
  -42.6230  -66.7650   50.9810 C   0  0  0  0  0  0  0  0  0  0  0  0
  -43.4190  -67.7410   50.9200 O   0  0  0  0  0  0  0  0  0  0  0  0
  -43.8990  -64.8550   52.8050 C   0  0  0  0  0  0  0  0  0  0  0  0
  -44.6050  -63.9790   52.5300 N   0  0  0  0  0  0  0  0  0  0  0  0
  -44.2240  -66.1310   55.1920 N   0  0  0  0  0  0  0  0  0  0  0  0
  -39.9490  -67.3980   50.9520 H   0  0  0  0  0  0  0  0  0  0  0  0
  -40.7470  -69.5460   55.3300 H   0  0  0  0  0  0  0  0  0  0  0  0
  -38.8730  -70.3600   53.8600 H   0  0  0  0  0  0  0  0  0  0  0  0
  -39.2960  -62.6460   51.1020 H   0  0  0  0  0  0  0  0  0  0  0  0
  -40.1230  -64.6940   54.2920 H   0  0  0  0  0  0  0  0  0  0  0  0
  -40.0410  -62.9010   53.8960 H   0  0  0  0  0  0  0  0  0  0  0  0
  -38.6330  -63.9520   53.6140 H   0  0  0  0  0  0  0  0  0  0  0  0
  -42.5020  -66.0070   48.8900 H   0  0  0  0  0  0  0  0  0  0  0  0
  -44.3620  -65.1130   55.3720 H   0  0  0  0  0  0  0  0  0  0  0  0
  -44.8680  -66.8050   55.6630 H   0  0  0  0  0  0  0  0  0  0  0  0
  1  2  1  0  0  0  0
  2  7  1  0  0  0  0
  3  2  2  0  0  0  0
  3  4  1  0  0  0  0
  4  5  2  0  0  0  0
  5  6  1  0  0  0  0
  5  8  1  0  0  0  0
  6 25  1  0  0  0  0
  7 26  1  0  0  0  0
  7  6  2  0  0  0  0
  9  8  1  0  0  0  0
  9 23  1  0  0  0  0
 10  9  2  0  0  0  0
 11 19  1  6  0  0  0
 11  4  1  0  0  0  0
 11 10  1  0  0  0  0
 12 16  2  0  0  0  0
 12 11  1  0  0  0  0
 13 12  1  0  0  0  0
 14 13  2  0  0  0  0
 14 15  1  0  0  0  0
 15 16  1  0  0  0  0
 16 17  1  0  0  0  0
 17 30  1  0  0  0  0
 17 29  1  0  0  0  0
 17 28  1  0  0  0  0
 18 13  1  0  0  0  0
 18 19  1  0  0  0  0
 20 19  2  0  0  0  0
 21 10  1  0  0  0  0
 22 21  3  0  0  0  0
 23 32  1  0  0  0  0
 23 33  1  0  0  0  0
 24  3  1  0  0  0  0
 27 15  1  0  0  0  0
 31 18  1  0  0  0  0
M  END
>  <Pose>
1

>  <Score>
-6.45

$$$$
