
 OpenBabel03202209423D

 44 47  0  0  0  0  0  0  0  0999 V2000
  -50.4320  -68.3000   53.5410 B   0  0  0  0  0  0  0  0  0  0  0  0
  -49.1260  -66.9360   53.3860 C   0  0  0  0  0  0  0  0  0  0  0  0
  -47.8020  -67.2300   53.1160 C   0  0  0  0  0  0  0  0  0  0  0  0
  -46.8180  -66.2670   52.9830 C   0  0  0  0  0  0  0  0  0  0  0  0
  -47.1910  -64.9470   53.1300 C   0  0  0  0  0  0  0  0  0  0  0  0
  -48.5040  -64.5900   53.4020 C   0  0  0  0  0  0  0  0  0  0  0  0
  -49.4510  -65.5790   53.5280 C   0  0  0  0  0  0  0  0  0  0  0  0
  -46.2610  -63.9970   53.0070 O   0  0  0  0  0  0  0  0  0  0  0  0
  -45.0250  -64.2500   52.7580 C   0  0  0  0  0  0  0  0  0  0  0  0
  -44.1340  -63.3520   52.6370 O   0  0  0  0  0  0  0  0  0  0  0  0
  -44.5880  -65.5480   52.6020 C   0  0  0  0  0  0  0  0  0  0  0  0
  -45.5050  -66.5680   52.7190 C   0  0  0  0  0  0  0  0  0  0  0  0
  -43.1770  -65.8390   52.3530 C   0  0  0  0  0  0  0  0  0  0  0  0
  -42.4740  -65.1730   51.3620 C   0  0  0  0  0  0  0  0  0  0  0  0
  -41.1300  -65.4170   51.1770 C   0  0  0  0  0  0  0  0  0  0  0  0
  -40.5530  -64.7660   50.2490 O   0  0  0  0  0  0  0  0  0  0  0  0
  -40.5010  -66.2740   51.9220 O   0  0  0  0  0  0  0  0  0  0  0  0
  -41.0910  -66.9220   52.8520 C   0  0  0  0  0  0  0  0  0  0  0  0
  -42.4620  -66.7340   53.1100 C   0  0  0  0  0  0  0  0  0  0  0  0
  -43.0670  -67.4490   54.1020 C   0  0  0  0  0  0  0  0  0  0  0  0
  -42.2820  -68.3480   54.8320 C   0  0  0  0  0  0  0  0  0  0  0  0
  -40.9380  -68.5070   54.5560 C   0  0  0  0  0  0  0  0  0  0  0  0
  -40.2970  -67.8040   53.5620 C   0  0  0  0  0  0  0  0  0  0  0  0
  -38.8750  -67.9500   53.4020 C   0  0  0  0  0  0  0  0  0  0  0  0
  -38.2640  -68.9990   52.6930 N   0  0  0  0  0  4  0  0  0  0  0  0
  -38.8350  -70.3110   52.8230 C   0  0  0  0  0  0  0  0  0  0  0  0
  -37.9830  -68.6360   51.2800 C   0  0  0  0  0  0  0  0  0  0  0  0
  -40.2370  -69.4360   55.3560 O   0  0  0  0  0  0  0  0  0  0  0  0
  -47.4820  -68.2740   52.9820 H   0  0  0  0  0  0  0  0  0  0  0  0
  -48.7220  -63.5400   53.5130 H   0  0  0  0  0  0  0  0  0  0  0  0
  -50.4940  -65.3750   53.7400 H   0  0  0  0  0  0  0  0  0  0  0  0
  -45.2190  -67.6370   52.6280 H   0  0  0  0  0  0  0  0  0  0  0  0
  -43.0200  -64.4680   50.7370 H   0  0  0  0  0  0  0  0  0  0  0  0
  -44.1260  -67.3490   54.3030 H   0  0  0  0  0  0  0  0  0  0  0  0
  -42.7890  -68.8920   55.6160 H   0  0  0  0  0  0  0  0  0  0  0  0
  -38.4480  -68.0230   54.4740 H   0  0  0  0  0  0  0  0  0  0  0  0
  -38.4130  -66.9760   53.0720 H   0  0  0  0  0  0  0  0  0  0  0  0
  -37.2910  -69.1180   53.0980 H   0  0  0  0  0  0  0  0  0  0  0  0
  -39.5040  -70.6020   51.9710 H   0  0  0  0  0  0  0  0  0  0  0  0
  -39.3280  -70.5070   53.8020 H   0  0  0  0  0  0  0  0  0  0  0  0
  -38.0440  -71.1360   52.7750 H   0  0  0  0  0  0  0  0  0  0  0  0
  -38.3790  -67.6130   51.0490 H   0  0  0  0  0  0  0  0  0  0  0  0
  -36.8860  -68.5050   51.0880 H   0  0  0  0  0  0  0  0  0  0  0  0
  -38.3150  -69.4280   50.6030 H   0  0  0  0  0  0  0  0  0  0  0  0
  2  7  1  0  0  0  0
  2  1  1  0  0  0  0
  3  2  2  0  0  0  0
  4  3  1  0  0  0  0
  4  5  2  0  0  0  0
  5  6  1  0  0  0  0
  6 30  1  0  0  0  0
  6  7  2  0  0  0  0
  7 31  1  0  0  0  0
  8  5  1  0  0  0  0
  9  8  1  0  0  0  0
 10  9  2  0  0  0  0
 11 12  2  0  0  0  0
 11  9  1  0  0  0  0
 12  4  1  0  0  0  0
 13 11  1  0  0  0  0
 13 19  1  0  0  0  0
 14 13  2  0  0  0  0
 15 14  1  0  0  0  0
 15 17  1  0  0  0  0
 16 15  2  0  0  0  0
 17 18  1  0  0  0  0
 18 19  2  0  0  0  0
 18 23  1  0  0  0  0
 19 20  1  0  0  0  0
 20 34  1  0  0  0  0
 20 21  2  0  0  0  0
 21 35  1  0  0  0  0
 22 21  1  0  0  0  0
 22 28  1  0  0  0  0
 23 22  2  0  0  0  0
 24 23  1  0  0  0  0
 24 36  1  0  0  0  0
 25 26  1  0  0  0  0
 25 38  1  0  0  0  0
 25 24  1  0  0  0  0
 26 40  1  0  0  0  0
 27 25  1  0  0  0  0
 29  3  1  0  0  0  0
 32 12  1  0  0  0  0
 33 14  1  0  0  0  0
 37 24  1  0  0  0  0
 39 26  1  0  0  0  0
 41 26  1  0  0  0  0
 42 27  1  0  0  0  0
 43 27  1  0  0  0  0
 44 27  1  0  0  0  0
M  END
>  <Pose>
1

>  <Score>
-4.90

$$$$
