
 OpenBabel03202209423D

 50 53  0  0  0  0  0  0  0  0999 V2000
  -50.9130  -66.8980   50.7950 B   0  0  0  0  0  0  0  0  0  0  0  0
  -49.4400  -67.1450   51.9980 C   0  0  0  0  0  0  0  0  0  0  0  0
  -48.3100  -66.3710   51.9280 C   0  0  0  0  0  0  0  0  0  0  0  0
  -47.2410  -66.5580   52.8080 C   0  0  0  0  0  0  0  0  0  0  0  0
  -47.3110  -67.5320   53.7660 C   0  0  0  0  0  0  0  0  0  0  0  0
  -46.1490  -67.5100   54.4890 N   0  0  0  0  0  0  0  0  0  0  0  0
  -45.3210  -66.5610   54.0440 C   0  0  0  0  0  0  0  0  0  0  0  0
  -46.0240  -65.9570   52.9710 C   0  0  0  0  0  0  0  0  0  0  0  0
  -43.9940  -66.1550   54.4620 C   0  0  0  0  0  0  0  0  0  0  0  0
  -43.8240  -65.7800   55.6840 O   0  0  0  0  0  0  0  0  0  0  0  0
  -42.8540  -66.1280   53.6570 N   0  0  0  0  0  0  0  0  0  0  0  0
  -41.9900  -67.2380   53.3610 C   0  0  0  0  0  0  0  0  0  0  0  0
  -40.8650  -66.8540   52.3920 C   0  0  0  0  0  0  0  0  0  0  0  0
  -41.4470  -66.1280   51.2730 N   0  0  0  0  0  0  0  0  0  0  0  0
  -42.4610  -65.1020   51.5190 C   0  0  0  0  0  0  0  0  0  0  0  0
  -42.4410  -64.8450   53.0290 C   0  0  0  0  0  0  0  0  0  0  0  0
  -41.0540  -66.3970   49.9430 C   0  0  0  0  0  0  0  0  0  0  0  0
  -41.7430  -67.2240   49.2990 O   0  0  0  0  0  0  0  0  0  0  0  0
  -39.8950  -65.7160   49.3890 C   0  0  0  0  0  0  0  0  0  0  0  0
  -39.7700  -65.7910   47.9500 N   0  0  0  0  0  0  0  0  0  0  0  0
  -38.7520  -66.7880   47.6130 C   0  0  0  0  0  0  0  0  0  0  0  0
  -37.4330  -66.1430   47.3590 C   0  0  0  0  0  0  0  0  0  0  0  0
  -37.2510  -65.0460   48.1980 O   0  0  0  0  0  0  0  0  0  0  0  0
  -38.1050  -63.9960   47.8510 C   0  0  0  0  0  0  0  0  0  0  0  0
  -39.4310  -64.5160   47.3440 C   0  0  0  0  0  0  0  0  0  0  0  0
  -48.4460  -68.3170   53.8430 C   0  0  0  0  0  0  0  0  0  0  0  0
  -49.5030  -68.1240   52.9650 C   0  0  0  0  0  0  0  0  0  0  0  0
  -48.2280  -65.5930   51.1820 H   0  0  0  0  0  0  0  0  0  0  0  0
  -45.9990  -68.1670   55.2690 H   0  0  0  0  0  0  0  0  0  0  0  0
  -45.6510  -65.1480   52.3800 H   0  0  0  0  0  0  0  0  0  0  0  0
  -42.6280  -68.0210   52.8680 H   0  0  0  0  0  0  0  0  0  0  0  0
  -41.4770  -67.5870   54.2700 H   0  0  0  0  0  0  0  0  0  0  0  0
  -40.1190  -66.2080   52.8880 H   0  0  0  0  0  0  0  0  0  0  0  0
  -40.3910  -67.7730   52.0540 H   0  0  0  0  0  0  0  0  0  0  0  0
  -42.2050  -64.1520   51.0010 H   0  0  0  0  0  0  0  0  0  0  0  0
  -43.4740  -65.4230   51.2520 H   0  0  0  0  0  0  0  0  0  0  0  0
  -41.4380  -64.5620   53.3750 H   0  0  0  0  0  0  0  0  0  0  0  0
  -43.1500  -64.0590   53.2870 H   0  0  0  0  0  0  0  0  0  0  0  0
  -38.9790  -66.2250   49.8000 H   0  0  0  0  0  0  0  0  0  0  0  0
  -39.8080  -64.6520   49.6960 H   0  0  0  0  0  0  0  0  0  0  0  0
  -38.6420  -67.4910   48.4730 H   0  0  0  0  0  0  0  0  0  0  0  0
  -39.1170  -67.3650   46.7400 H   0  0  0  0  0  0  0  0  0  0  0  0
  -36.6400  -66.8810   47.6170 H   0  0  0  0  0  0  0  0  0  0  0  0
  -37.3020  -65.8100   46.3000 H   0  0  0  0  0  0  0  0  0  0  0  0
  -38.1780  -63.3110   48.6980 H   0  0  0  0  0  0  0  0  0  0  0  0
  -37.6220  -63.4490   47.0170 H   0  0  0  0  0  0  0  0  0  0  0  0
  -40.2000  -63.7730   47.4920 H   0  0  0  0  0  0  0  0  0  0  0  0
  -39.3170  -64.7120   46.2580 H   0  0  0  0  0  0  0  0  0  0  0  0
  -48.5000  -69.0950   54.6080 H   0  0  0  0  0  0  0  0  0  0  0  0
  -50.4060  -68.7440   53.0230 H   0  0  0  0  0  0  0  0  0  0  0  0
  1  2  1  0  0  0  0
  2 27  1  0  0  0  0
  3  2  2  0  0  0  0
  3  4  1  0  0  0  0
  4  8  1  0  0  0  0
  4  5  2  0  0  0  0
  5 26  1  0  0  0  0
  5  6  1  0  0  0  0
  6 29  1  0  0  0  0
  7  9  1  0  0  0  0
  7  6  1  0  0  0  0
  8  7  2  0  0  0  0
  9 10  2  0  0  0  0
 11  9  1  0  0  0  0
 12 11  1  0  0  0  0
 12 32  1  0  0  0  0
 13 33  1  0  0  0  0
 13 12  1  0  0  0  0
 14 15  1  0  0  0  0
 14 13  1  0  0  0  0
 15 16  1  0  0  0  0
 16 38  1  0  0  0  0
 16 37  1  0  0  0  0
 16 11  1  0  0  0  0
 17 14  1  0  0  0  0
 18 17  2  0  0  0  0
 19 40  1  0  0  0  0
 19 39  1  0  0  0  0
 19 17  1  0  0  0  0
 20 19  1  0  0  0  0
 21 20  1  0  0  0  0
 21 41  1  0  0  0  0
 22 21  1  0  0  0  0
 22 43  1  0  0  0  0
 22 23  1  0  0  0  0
 24 23  1  0  0  0  0
 24 45  1  0  0  0  0
 25 47  1  0  0  0  0
 25 24  1  0  0  0  0
 25 20  1  0  0  0  0
 26 49  1  0  0  0  0
 27 50  1  0  0  0  0
 27 26  2  0  0  0  0
 28  3  1  0  0  0  0
 30  8  1  0  0  0  0
 31 12  1  0  0  0  0
 34 13  1  0  0  0  0
 35 15  1  0  0  0  0
 36 15  1  0  0  0  0
 42 21  1  0  0  0  0
 44 22  1  0  0  0  0
 46 24  1  0  0  0  0
 48 25  1  0  0  0  0
M  END
>  <Pose>
1

>  <Score>
-5.98

$$$$
