
 OpenBabel03202209423D

 41 44  0  0  0  0  0  0  0  0999 V2000
  -38.5040  -72.1140   55.6370 B   0  0  0  0  0  0  0  0  0  0  0  0
  -39.1180  -70.6810   54.5470 C   0  0  0  0  0  0  0  0  0  0  0  0
  -40.2720  -69.9900   54.8510 C   0  0  0  0  0  0  0  0  0  0  0  0
  -40.7310  -68.9480   54.0710 C   0  0  0  0  0  0  0  0  0  0  0  0
  -39.9970  -68.6010   52.9520 C   0  0  0  0  0  0  0  0  0  0  0  0
  -40.6620  -67.5760   52.3890 N   0  0  0  0  0  0  0  0  0  0  0  0
  -41.7740  -67.2660   53.1020 C   0  0  0  0  0  0  0  0  0  0  0  0
  -41.8340  -68.1290   54.1760 C   0  0  0  0  0  0  0  0  0  0  0  0
  -42.8650  -68.0110   55.0360 N   0  0  0  0  0  0  0  0  0  0  0  0
  -43.8270  -67.0820   54.8750 C   0  0  0  0  0  0  0  0  0  0  0  0
  -43.7940  -66.2310   53.8410 N   0  0  0  0  0  0  0  0  0  0  0  0
  -42.7760  -66.3320   52.9740 C   0  0  0  0  0  0  0  0  0  0  0  0
  -42.7280  -65.5410   51.9980 O   0  0  0  0  0  0  0  0  0  0  0  0
  -44.8440  -65.2140   53.6590 C   0  0  0  0  0  0  0  0  0  0  0  0
  -45.7600  -65.6070   52.5650 C   0  0  0  0  0  0  0  0  0  0  0  0
  -46.3490  -64.5580   51.8150 N   0  0  0  0  0  0  0  0  0  0  0  0
  -47.5980  -64.8650   51.2100 C   0  0  0  0  0  0  0  0  0  0  0  0
  -47.4820  -65.2870   49.7740 C   0  0  0  0  0  0  0  0  0  0  0  0
  -46.4560  -64.5580   49.0610 N   0  0  0  0  0  0  0  0  0  0  0  0
  -46.0800  -63.3480   49.7730 C   0  0  0  0  0  0  0  0  0  0  0  0
  -45.4240  -63.7940   51.0570 C   0  0  0  0  0  0  0  0  0  0  0  0
  -38.8420  -69.3020   52.6580 C   0  0  0  0  0  0  0  0  0  0  0  0
  -38.3760  -70.3460   53.4330 C   0  0  0  0  0  0  0  0  0  0  0  0
  -40.8550  -70.2540   55.7260 H   0  0  0  0  0  0  0  0  0  0  0  0
  -40.3840  -67.0730   51.5270 H   0  0  0  0  0  0  0  0  0  0  0  0
  -44.6530  -67.0020   55.5800 H   0  0  0  0  0  0  0  0  0  0  0  0
  -44.2890  -64.2810   53.4090 H   0  0  0  0  0  0  0  0  0  0  0  0
  -45.2940  -65.0710   54.6360 H   0  0  0  0  0  0  0  0  0  0  0  0
  -45.2450  -66.3020   51.8720 H   0  0  0  0  0  0  0  0  0  0  0  0
  -46.6020  -66.2070   53.0180 H   0  0  0  0  0  0  0  0  0  0  0  0
  -48.1480  -65.6370   51.7840 H   0  0  0  0  0  0  0  0  0  0  0  0
  -48.2240  -63.9470   51.2220 H   0  0  0  0  0  0  0  0  0  0  0  0
  -48.4330  -65.1700   49.2170 H   0  0  0  0  0  0  0  0  0  0  0  0
  -47.2110  -66.3610   49.7290 H   0  0  0  0  0  0  0  0  0  0  0  0
  -45.6160  -65.1480   48.8600 H   0  0  0  0  0  0  0  0  0  0  0  0
  -46.9990  -62.7930   50.0070 H   0  0  0  0  0  0  0  0  0  0  0  0
  -45.3830  -62.8040   49.1030 H   0  0  0  0  0  0  0  0  0  0  0  0
  -45.1810  -62.8790   51.6660 H   0  0  0  0  0  0  0  0  0  0  0  0
  -44.4760  -64.3220   50.8280 H   0  0  0  0  0  0  0  0  0  0  0  0
  -38.2650  -69.0280   51.7760 H   0  0  0  0  0  0  0  0  0  0  0  0
  -37.4620  -70.8970   53.1980 H   0  0  0  0  0  0  0  0  0  0  0  0
  2  3  1  0  0  0  0
  2  1  1  0  0  0  0
  3 24  1  0  0  0  0
  4  8  1  0  0  0  0
  4  3  2  0  0  0  0
  5  4  1  0  0  0  0
  6  5  1  0  0  0  0
  6  7  1  0  0  0  0
  7  8  2  0  0  0  0
  8  9  1  0  0  0  0
 10  9  2  0  0  0  0
 10 26  1  0  0  0  0
 11 10  1  0  0  0  0
 12  7  1  0  0  0  0
 12 11  1  0  0  0  0
 13 12  2  0  0  0  0
 14 11  1  0  0  0  0
 14 28  1  0  0  0  0
 15 30  1  0  0  0  0
 15 14  1  0  0  0  0
 16 15  1  0  0  0  0
 17 32  1  0  0  0  0
 17 31  1  0  0  0  0
 17 16  1  0  0  0  0
 18 17  1  0  0  0  0
 19 20  1  0  0  0  0
 19 18  1  0  0  0  0
 20 36  1  0  0  0  0
 20 21  1  0  0  0  0
 21 38  1  0  0  0  0
 21 16  1  0  0  0  0
 22  5  2  0  0  0  0
 22 23  1  0  0  0  0
 23  2  2  0  0  0  0
 25  6  1  0  0  0  0
 27 14  1  0  0  0  0
 29 15  1  0  0  0  0
 33 18  1  0  0  0  0
 34 18  1  0  0  0  0
 35 19  1  0  0  0  0
 37 20  1  0  0  0  0
 39 21  1  0  0  0  0
 40 22  1  0  0  0  0
 41 23  1  0  0  0  0
M  END
>  <Pose>
1

>  <Score>
-5.95

$$$$
