
 OpenBabel03202209423D

 55 58  0  0  0  0  0  0  0  0999 V2000
  -40.4830  -63.7120   48.1310 B   0  0  0  0  0  0  0  0  0  0  0  0
  -41.0760  -64.5970   49.6860 C   0  0  0  0  0  0  0  0  0  0  0  0
  -42.2960  -64.2910   50.2660 C   0  0  0  0  0  0  0  0  0  0  0  0
  -42.7410  -64.9050   51.4010 C   0  0  0  0  0  0  0  0  0  0  0  0
  -43.9250  -64.7770   52.0720 N   0  0  0  0  0  0  0  0  0  0  0  0
  -43.9050  -65.6620   53.0850 C   0  0  0  0  0  0  0  0  0  0  0  0
  -42.6630  -66.3510   53.0760 C   0  0  0  0  0  0  0  0  0  0  0  0
  -41.9800  -65.8470   51.9990 C   0  0  0  0  0  0  0  0  0  0  0  0
  -40.7460  -66.1740   51.4310 C   0  0  0  0  0  0  0  0  0  0  0  0
  -40.2810  -65.5600   50.2770 C   0  0  0  0  0  0  0  0  0  0  0  0
  -39.0490  -65.8740   49.6770 O   0  0  0  0  0  0  0  0  0  0  0  0
  -42.1250  -67.2610   54.0960 C   0  0  0  0  0  0  0  0  0  0  0  0
  -42.1060  -66.8470   55.2860 O   0  0  0  0  0  0  0  0  0  0  0  0
  -41.6600  -68.5130   53.8710 O   0  0  0  0  0  0  0  0  0  0  0  0
  -41.1810  -69.4880   54.7260 C   0  0  0  0  0  0  0  0  0  0  0  0
  -39.8250  -70.0640   54.3350 C   0  0  0  0  0  0  0  0  0  0  0  0
  -44.9540  -66.0010   54.0470 C   0  0  0  0  0  0  0  0  0  0  0  0
  -46.2820  -66.2310   53.5710 N   0  0  0  0  0  4  0  0  0  0  0  0
  -47.3410  -65.3910   53.4630 C   0  0  0  0  0  0  0  0  0  0  0  0
  -48.6250  -66.2170   53.7170 C   0  0  0  0  0  0  0  0  0  0  0  0
  -48.1360  -67.6030   53.3010 C   0  0  0  0  0  0  0  0  0  0  0  0
  -46.7640  -67.5670   53.9610 C   0  0  0  0  0  0  0  0  0  0  0  0
  -44.8130  -63.6220   51.8390 C   0  0  0  0  0  0  0  0  0  0  0  0
  -45.6030  -63.9720   50.5570 C   0  0  0  0  0  0  0  0  0  0  0  0
  -45.2250  -63.2940   49.4340 C   0  0  0  0  0  0  0  0  0  0  0  0
  -45.8900  -63.5680   48.2270 C   0  0  0  0  0  0  0  0  0  0  0  0
  -46.8910  -64.4870   48.1290 C   0  0  0  0  0  0  0  0  0  0  0  0
  -47.2380  -65.1570   49.3030 C   0  0  0  0  0  0  0  0  0  0  0  0
  -46.5870  -64.8900   50.5140 C   0  0  0  0  0  0  0  0  0  0  0  0
  -42.9400  -63.5450   49.8060 H   0  0  0  0  0  0  0  0  0  0  0  0
  -40.1260  -66.9500   51.8920 H   0  0  0  0  0  0  0  0  0  0  0  0
  -38.2630  -66.1680   50.2740 H   0  0  0  0  0  0  0  0  0  0  0  0
  -41.0220  -69.0010   55.7340 H   0  0  0  0  0  0  0  0  0  0  0  0
  -41.8790  -70.3200   54.8610 H   0  0  0  0  0  0  0  0  0  0  0  0
  -39.3650  -70.5770   55.2080 H   0  0  0  0  0  0  0  0  0  0  0  0
  -39.9020  -70.8180   53.5290 H   0  0  0  0  0  0  0  0  0  0  0  0
  -39.1200  -69.2670   53.9810 H   0  0  0  0  0  0  0  0  0  0  0  0
  -44.6610  -66.8920   54.6180 H   0  0  0  0  0  0  0  0  0  0  0  0
  -45.0590  -65.1130   54.7790 H   0  0  0  0  0  0  0  0  0  0  0  0
  -46.0140  -66.5200   52.4580 H   0  0  0  0  0  0  0  0  0  0  0  0
  -47.5350  -65.0320   52.3630 H   0  0  0  0  0  0  0  0  0  0  0  0
  -47.4360  -64.4880   54.0560 H   0  0  0  0  0  0  0  0  0  0  0  0
  -49.4530  -65.8410   53.1280 H   0  0  0  0  0  0  0  0  0  0  0  0
  -48.7720  -66.2470   54.7840 H   0  0  0  0  0  0  0  0  0  0  0  0
  -48.0670  -67.5860   52.2030 H   0  0  0  0  0  0  0  0  0  0  0  0
  -48.7860  -68.3840   53.6640 H   0  0  0  0  0  0  0  0  0  0  0  0
  -46.9030  -67.5840   55.0490 H   0  0  0  0  0  0  0  0  0  0  0  0
  -46.1010  -68.3730   53.6130 H   0  0  0  0  0  0  0  0  0  0  0  0
  -44.3730  -62.6770   51.6810 H   0  0  0  0  0  0  0  0  0  0  0  0
  -45.5820  -63.6270   52.6220 H   0  0  0  0  0  0  0  0  0  0  0  0
  -44.4330  -62.5590   49.4390 H   0  0  0  0  0  0  0  0  0  0  0  0
  -45.6160  -63.0400   47.3170 H   0  0  0  0  0  0  0  0  0  0  0  0
  -47.3970  -64.6920   47.1880 H   0  0  0  0  0  0  0  0  0  0  0  0
  -48.0100  -65.8940   49.2470 H   0  0  0  0  0  0  0  0  0  0  0  0
  -46.8910  -65.4210   51.3790 H   0  0  0  0  0  0  0  0  0  0  0  0
  1  2  1  0  0  0  0
  2  3  2  0  0  0  0
  2 10  1  0  0  0  0
  3  4  1  0  0  0  0
  4  8  2  0  0  0  0
  4  5  1  0  0  0  0
  5  6  1  0  0  0  0
  6 17  1  0  0  0  0
  7  6  2  0  0  0  0
  7 12  1  0  0  0  0
  8  7  1  0  0  0  0
  9 31  1  0  0  0  0
  9  8  1  0  0  0  0
 10  9  2  0  0  0  0
 11 32  1  0  0  0  0
 11 10  1  0  0  0  0
 12 13  2  0  0  0  0
 14 12  1  0  0  0  0
 14 15  1  0  0  0  0
 15 34  1  0  0  0  0
 15 33  1  0  0  0  0
 16 15  1  0  0  0  0
 16 35  1  0  0  0  0
 17 38  1  0  0  0  0
 17 39  1  0  0  0  0
 18 22  1  0  0  0  0
 18 17  1  0  0  0  0
 19 18  1  0  0  0  0
 19 20  1  0  0  0  0
 19 42  1  0  0  0  0
 20 44  1  0  0  0  0
 21 46  1  0  0  0  0
 21 20  1  0  0  0  0
 21 22  1  0  0  0  0
 22 47  1  0  0  0  0
 23  5  1  0  0  0  0
 23 50  1  0  0  0  0
 24 23  1  0  0  0  0
 25 51  1  0  0  0  0
 25 24  2  0  0  0  0
 26 25  1  0  0  0  0
 27 26  2  0  0  0  0
 27 28  1  0  0  0  0
 28 29  2  0  0  0  0
 29 24  1  0  0  0  0
 29 55  1  0  0  0  0
 30  3  1  0  0  0  0
 36 16  1  0  0  0  0
 37 16  1  0  0  0  0
 40 18  1  0  0  0  0
 41 19  1  0  0  0  0
 43 20  1  0  0  0  0
 45 21  1  0  0  0  0
 48 22  1  0  0  0  0
 49 23  1  0  0  0  0
 52 26  1  0  0  0  0
 53 27  1  0  0  0  0
 54 28  1  0  0  0  0
M  END
>  <Pose>
1

>  <Score>
-5.66

$$$$
