
 OpenBabel03202209423D

 47 50  0  0  0  0  0  0  0  0999 V2000
  -46.6030  -64.7490   50.9790 B   0  0  0  0  0  0  0  0  0  0  0  0
  -45.0900  -64.8190   52.1420 C   0  0  0  0  0  0  0  0  0  0  0  0
  -44.8830  -65.6710   53.2020 C   0  0  0  0  0  0  0  0  0  0  0  0
  -43.7010  -65.3840   53.7380 N   0  0  0  0  0  0  0  0  0  0  0  0
  -43.1770  -64.3810   53.0380 N   0  0  0  0  0  0  0  0  0  0  0  0
  -43.9920  -63.9960   52.0440 C   0  0  0  0  0  0  0  0  0  0  0  0
  -43.0610  -66.0360   54.8970 C   0  0  0  0  0  0  0  0  0  0  0  0
  -42.8590  -67.4630   54.5260 C   0  0  0  0  0  0  0  0  0  0  0  0
  -43.6170  -68.3230   55.0800 O   0  0  0  0  0  0  0  0  0  0  0  0
  -41.8900  -67.8310   53.6190 N   0  0  0  0  0  0  0  0  0  0  0  0
  -41.6080  -67.2900   52.3020 C   0  0  0  0  0  0  0  0  0  0  0  0
  -40.2860  -67.6890   51.7730 C   0  0  0  0  0  0  0  0  0  0  0  0
  -39.5690  -68.7360   52.2940 C   0  0  0  0  0  0  0  0  0  0  0  0
  -38.3540  -69.1130   51.7530 C   0  0  0  0  0  0  0  0  0  0  0  0
  -37.8240  -68.4490   50.6690 C   0  0  0  0  0  0  0  0  0  0  0  0
  -38.5500  -67.3730   50.1230 C   0  0  0  0  0  0  0  0  0  0  0  0
  -39.7540  -66.9990   50.6600 C   0  0  0  0  0  0  0  0  0  0  0  0
  -40.4940  -65.8710   50.0900 C   0  0  0  0  0  0  0  0  0  0  0  0
  -40.1830  -65.4820   48.7000 C   0  0  0  0  0  0  0  0  0  0  0  0
  -38.7840  -65.6630   48.3340 N   0  0  0  0  0  0  0  0  0  0  0  0
  -38.0280  -66.7050   48.9350 C   0  0  0  0  0  0  0  0  0  0  0  0
  -36.9150  -67.0330   48.4240 O   0  0  0  0  0  0  0  0  0  0  0  0
  -38.2460  -64.7580   47.3440 C   0  0  0  0  0  0  0  0  0  0  0  0
  -36.6110  -68.7960   50.1030 O   0  0  0  0  0  0  0  0  0  0  0  0
  -35.4590  -68.9840   50.8980 C   0  0  0  0  0  0  0  0  0  0  0  0
  -37.9040  -70.1810   52.5050 O   0  0  0  0  0  0  0  0  0  0  0  0
  -38.7250  -70.3740   53.6290 C   0  0  0  0  0  0  0  0  0  0  0  0
  -39.8800  -69.5750   53.3880 O   0  0  0  0  0  0  0  0  0  0  0  0
  -45.5990  -66.4350   53.5130 H   0  0  0  0  0  0  0  0  0  0  0  0
  -43.8700  -63.2230   51.3030 H   0  0  0  0  0  0  0  0  0  0  0  0
  -43.7710  -65.9480   55.7560 H   0  0  0  0  0  0  0  0  0  0  0  0
  -42.1200  -65.5610   55.1690 H   0  0  0  0  0  0  0  0  0  0  0  0
  -41.2350  -68.6330   53.8860 H   0  0  0  0  0  0  0  0  0  0  0  0
  -41.5310  -66.1730   52.5310 H   0  0  0  0  0  0  0  0  0  0  0  0
  -42.4250  -67.4040   51.5870 H   0  0  0  0  0  0  0  0  0  0  0  0
  -40.5160  -64.9780   50.7490 H   0  0  0  0  0  0  0  0  0  0  0  0
  -41.5840  -66.2000   50.0720 H   0  0  0  0  0  0  0  0  0  0  0  0
  -40.7770  -66.1110   47.9740 H   0  0  0  0  0  0  0  0  0  0  0  0
  -40.5110  -64.4180   48.5400 H   0  0  0  0  0  0  0  0  0  0  0  0
  -39.0480  -64.5180   46.6050 H   0  0  0  0  0  0  0  0  0  0  0  0
  -37.9690  -63.8220   47.8630 H   0  0  0  0  0  0  0  0  0  0  0  0
  -37.3370  -65.1470   46.8480 H   0  0  0  0  0  0  0  0  0  0  0  0
  -35.5480  -68.2740   51.7670 H   0  0  0  0  0  0  0  0  0  0  0  0
  -34.5260  -68.7340   50.3540 H   0  0  0  0  0  0  0  0  0  0  0  0
  -35.3780  -70.0370   51.2790 H   0  0  0  0  0  0  0  0  0  0  0  0
  -38.2650  -70.0070   54.5740 H   0  0  0  0  0  0  0  0  0  0  0  0
  -39.0870  -71.4240   53.6940 H   0  0  0  0  0  0  0  0  0  0  0  0
  1  2  1  0  0  0  0
  2  3  2  0  0  0  0
  3 29  1  0  0  0  0
  3  4  1  0  0  0  0
  4  7  1  0  0  0  0
  5  4  1  0  0  0  0
  6  2  1  0  0  0  0
  6  5  2  0  0  0  0
  7 32  1  0  0  0  0
  7 31  1  0  0  0  0
  8  7  1  0  0  0  0
  8  9  2  0  0  0  0
 10 33  1  0  0  0  0
 10  8  1  0  0  0  0
 11 34  1  0  0  0  0
 11 10  1  0  0  0  0
 12 13  1  0  0  0  0
 12 11  1  0  0  0  0
 13 28  1  0  0  0  0
 14 13  2  0  0  0  0
 14 26  1  0  0  0  0
 15 14  1  0  0  0  0
 16 17  1  0  0  0  0
 16 15  2  0  0  0  0
 17 12  2  0  0  0  0
 18 17  1  0  0  0  0
 18 36  1  0  0  0  0
 19 18  1  0  0  0  0
 20 19  1  0  0  0  0
 20 21  1  0  0  0  0
 21 16  1  0  0  0  0
 22 21  2  0  0  0  0
 23 41  1  0  0  0  0
 23 20  1  0  0  0  0
 24 15  1  0  0  0  0
 24 25  1  0  0  0  0
 25 45  1  0  0  0  0
 25 43  1  0  0  0  0
 26 27  1  0  0  0  0
 27 47  1  0  0  0  0
 27 46  1  0  0  0  0
 28 27  1  0  0  0  0
 30  6  1  0  0  0  0
 35 11  1  0  0  0  0
 37 18  1  0  0  0  0
 38 19  1  0  0  0  0
 39 19  1  0  0  0  0
 40 23  1  0  0  0  0
 42 23  1  0  0  0  0
 44 25  1  0  0  0  0
M  END
>  <Pose>
1

>  <Score>
-6.27

$$$$
