
 OpenBabel03202209423D

 33 37  0  0  0  0  0  0  0  0999 V2000
  -33.7410  -68.4470   51.4290 B   0  0  0  0  0  0  0  0  0  0  0  0
  -34.3850  -66.9600   50.4540 C   0  0  0  0  0  0  0  0  0  0  0  0
  -35.4790  -66.9370   49.6130 C   0  0  0  0  0  0  0  0  0  0  0  0
  -35.6000  -65.6940   49.1160 N   0  0  0  0  0  0  0  0  0  0  0  0
  -34.6290  -64.9500   49.6120 N   0  0  0  0  0  0  0  0  0  0  0  0
  -33.8570  -65.6890   50.4420 C   0  0  0  0  0  0  0  0  0  0  0  0
  -36.6180  -65.2380   48.1930 C   0  0  0  0  0  0  0  0  0  0  0  0
  -37.7540  -64.6410   48.9000 N   0  0  0  0  0  0  0  0  0  0  0  0
  -38.5660  -65.2840   49.7210 N   0  0  0  0  0  0  0  0  0  0  0  0
  -39.5090  -64.4620   50.2110 C   0  0  0  0  0  0  0  0  0  0  0  0
  -39.2520  -63.2310   49.6470 C   0  0  0  0  0  0  0  0  0  0  0  0
  -38.1410  -63.3570   48.8190 C   0  0  0  0  0  0  0  0  0  0  0  0
  -40.5880  -64.7790   51.1460 C   0  0  0  0  0  0  0  0  0  0  0  0
  -41.6720  -64.0270   51.3940 N   0  0  0  0  0  0  0  0  0  0  0  0
  -42.4460  -64.6220   52.3020 N   0  0  0  0  0  0  0  0  0  0  0  0
  -41.8410  -65.7940   52.6490 C   0  0  0  0  0  0  0  0  0  0  0  0
  -40.7060  -65.8650   51.9270 N   0  0  0  0  0  0  0  0  0  0  0  0
  -42.4570  -66.5970   53.5850 C   0  0  0  0  0  0  0  0  0  0  0  0
  -43.6590  -66.2600   54.1810 C   0  0  0  0  0  0  0  0  0  0  0  0
  -44.0100  -67.2290   55.0440 N   0  0  0  0  0  0  0  0  0  0  0  0
  -43.0630  -68.1520   54.9990 N   0  0  0  0  0  0  0  0  0  0  0  0
  -42.0990  -67.8040   54.1220 C   0  0  0  0  0  0  0  0  0  0  0  0
  -44.2170  -65.0970   53.8080 N   0  0  0  0  0  0  0  0  0  0  0  0
  -43.6130  -64.3170   52.8970 C   0  0  0  0  0  0  0  0  0  0  0  0
  -36.1000  -67.7840   49.4160 H   0  0  0  0  0  0  0  0  0  0  0  0
  -32.9950  -65.3720   50.9940 H   0  0  0  0  0  0  0  0  0  0  0  0
  -37.0060  -66.0640   47.5550 H   0  0  0  0  0  0  0  0  0  0  0  0
  -36.1920  -64.4850   47.4690 H   0  0  0  0  0  0  0  0  0  0  0  0
  -39.8290  -62.3400   49.8320 H   0  0  0  0  0  0  0  0  0  0  0  0
  -37.6630  -62.5930   48.2220 H   0  0  0  0  0  0  0  0  0  0  0  0
  -44.8590  -67.2720   55.6470 H   0  0  0  0  0  0  0  0  0  0  0  0
  -41.1900  -68.3520   53.8610 H   0  0  0  0  0  0  0  0  0  0  0  0
  -44.0950  -63.3900   52.6230 H   0  0  0  0  0  0  0  0  0  0  0  0
  2  1  1  0  0  0  0
  3  2  2  0  0  0  0
  4  5  1  0  0  0  0
  4  3  1  0  0  0  0
  5  6  2  0  0  0  0
  6  2  1  0  0  0  0
  6 26  1  0  0  0  0
  7  8  1  0  0  0  0
  7  4  1  0  0  0  0
  8  9  1  0  0  0  0
  9 10  2  0  0  0  0
 10 13  1  0  0  0  0
 11 29  1  0  0  0  0
 11 10  1  0  0  0  0
 12  8  1  0  0  0  0
 12 11  2  0  0  0  0
 13 14  2  0  0  0  0
 13 17  1  0  0  0  0
 14 15  1  0  0  0  0
 15 16  1  0  0  0  0
 15 24  1  0  0  0  0
 16 18  1  0  0  0  0
 17 16  2  0  0  0  0
 18 22  1  0  0  0  0
 18 19  2  0  0  0  0
 19 20  1  0  0  0  0
 20 31  1  0  0  0  0
 21 20  1  0  0  0  0
 22 21  2  0  0  0  0
 23 19  1  0  0  0  0
 24 23  2  0  0  0  0
 25  3  1  0  0  0  0
 27  7  1  0  0  0  0
 28  7  1  0  0  0  0
 30 12  1  0  0  0  0
 32 22  1  0  0  0  0
 33 24  1  0  0  0  0
M  END
>  <Pose>
1

>  <Score>
-7.23

$$$$
