
 OpenBabel03202209423D

 42 45  0  0  0  0  0  0  0  0999 V2000
  -39.9850  -69.9070   54.8860 B   0  0  0  0  0  0  0  0  0  0  0  0
  -41.0290  -68.5600   53.9900 C   0  0  0  0  0  0  0  0  0  0  0  0
  -42.3050  -68.1470   54.3010 C   0  0  0  0  0  0  0  0  0  0  0  0
  -42.6870  -67.1870   53.4400 N   0  0  0  0  0  0  0  0  0  0  0  0
  -41.6790  -67.0040   52.6130 N   0  0  0  0  0  0  0  0  0  0  0  0
  -40.6560  -67.8060   52.9000 C   0  0  0  0  0  0  0  0  0  0  0  0
  -43.9170  -66.4800   53.3880 C   0  0  0  0  0  0  0  0  0  0  0  0
  -45.1080  -67.1280   53.6040 C   0  0  0  0  0  0  0  0  0  0  0  0
  -46.3090  -66.4710   53.5600 C   0  0  0  0  0  0  0  0  0  0  0  0
  -46.4130  -65.0900   53.2940 C   0  0  0  0  0  0  0  0  0  0  0  0
  -45.2140  -64.4530   53.0790 C   0  0  0  0  0  0  0  0  0  0  0  0
  -43.9890  -65.1380   53.1280 C   0  0  0  0  0  0  0  0  0  0  0  0
  -47.7220  -64.4810   53.2240 C   0  0  0  0  0  0  0  0  0  0  0  0
  -47.7030  -63.1980   53.0500 O   0  0  0  0  0  0  0  0  0  0  0  0
  -48.9780  -65.0560   53.3150 N   0  0  0  0  0  0  0  0  0  0  0  0
  -49.5350  -66.2300   52.6980 C   0  0  0  0  0  0  0  0  0  0  0  0
  -49.4960  -67.3370   53.7330 C   0  0  0  0  0  0  0  0  0  0  0  0
  -49.8080  -66.7850   55.1090 C   0  0  0  0  0  0  0  0  0  0  0  0
  -50.6230  -67.7690   55.7890 N   0  0  0  0  0  0  0  0  0  0  0  0
  -49.7530  -68.7180   56.3870 C   0  0  0  0  0  0  0  0  0  0  0  0
  -50.0260  -69.9030   56.7670 O   0  0  0  0  0  0  0  0  0  0  0  0
  -48.4670  -68.0870   56.4920 N   0  0  0  0  0  0  0  0  0  0  0  0
  -48.5950  -66.7560   55.9470 C   0  0  0  0  0  0  0  0  0  0  0  0
  -47.8010  -65.8200   56.1830 O   0  0  0  0  0  0  0  0  0  0  0  0
  -50.5560  -65.4910   55.0770 C   0  0  0  0  0  0  0  0  0  0  0  0
  -49.9570  -64.4090   54.2440 C   0  0  0  0  0  0  0  0  0  0  0  0
  -42.9060  -68.5370   55.1130 H   0  0  0  0  0  0  0  0  0  0  0  0
  -39.6790  -67.8970   52.4050 H   0  0  0  0  0  0  0  0  0  0  0  0
  -45.0350  -68.2010   53.8110 H   0  0  0  0  0  0  0  0  0  0  0  0
  -47.2190  -67.0150   53.7360 H   0  0  0  0  0  0  0  0  0  0  0  0
  -45.2070  -63.4030   52.8430 H   0  0  0  0  0  0  0  0  0  0  0  0
  -43.0660  -64.5980   52.9530 H   0  0  0  0  0  0  0  0  0  0  0  0
  -50.6780  -66.0340   52.6040 H   0  0  0  0  0  0  0  0  0  0  0  0
  -49.2270  -66.4820   51.7060 H   0  0  0  0  0  0  0  0  0  0  0  0
  -50.1860  -68.1380   53.4700 H   0  0  0  0  0  0  0  0  0  0  0  0
  -48.4710  -67.7400   53.7560 H   0  0  0  0  0  0  0  0  0  0  0  0
  -51.6590  -67.8130   55.8550 H   0  0  0  0  0  0  0  0  0  0  0  0
  -47.5770  -68.4700   56.8780 H   0  0  0  0  0  0  0  0  0  0  0  0
  -50.5630  -65.1120   56.1420 H   0  0  0  0  0  0  0  0  0  0  0  0
  -51.6340  -65.6490   54.8390 H   0  0  0  0  0  0  0  0  0  0  0  0
  -50.7320  -63.9910   53.5690 H   0  0  0  0  0  0  0  0  0  0  0  0
  -49.4900  -63.5890   54.7910 H   0  0  0  0  0  0  0  0  0  0  0  0
  2  3  2  0  0  0  0
  2  1  1  0  0  0  0
  3 27  1  0  0  0  0
  4  3  1  0  0  0  0
  5  6  2  0  0  0  0
  5  4  1  0  0  0  0
  6  2  1  0  0  0  0
  7  4  1  0  0  0  0
  7  8  1  0  0  0  0
  8 29  1  0  0  0  0
  9  8  2  0  0  0  0
  9 30  1  0  0  0  0
 10  9  1  0  0  0  0
 11 12  1  0  0  0  0
 11 10  2  0  0  0  0
 12  7  2  0  0  0  0
 13 10  1  0  0  0  0
 13 15  1  0  0  0  0
 14 13  2  0  0  0  0
 15 26  1  0  0  0  0
 16 15  1  0  0  0  0
 16 17  1  0  0  0  0
 17 36  1  0  0  0  0
 17 18  1  0  0  0  0
 18 19  1  0  0  0  0
 18 23  1  0  0  0  0
 19 37  1  0  0  0  0
 19 20  1  0  0  0  0
 20 22  1  0  0  0  0
 20 21  2  0  0  0  0
 22 38  1  0  0  0  0
 23 24  2  0  0  0  0
 23 22  1  0  0  0  0
 25 18  1  0  0  0  0
 25 39  1  0  0  0  0
 26 42  1  0  0  0  0
 26 25  1  0  0  0  0
 28  6  1  0  0  0  0
 31 11  1  0  0  0  0
 32 12  1  0  0  0  0
 33 16  1  0  0  0  0
 34 16  1  0  0  0  0
 35 17  1  0  0  0  0
 40 25  1  0  0  0  0
 41 26  1  0  0  0  0
M  END
>  <Pose>
1

>  <Score>
-4.93

$$$$
