
 OpenBabel03202209423D

 41 44  0  0  0  0  0  0  0  0999 V2000
  -39.1940  -65.1020   47.7020 B   0  0  0  0  0  0  0  0  0  0  0  0
  -40.0830  -64.9030   49.3820 C   0  0  0  0  0  0  0  0  0  0  0  0
  -41.3550  -65.3690   49.5910 C   0  0  0  0  0  0  0  0  0  0  0  0
  -41.9540  -65.2250   50.7780 N   0  0  0  0  0  0  0  0  0  0  0  0
  -41.3720  -64.6220   51.8500 C   0  0  0  0  0  0  0  0  0  0  0  0
  -40.0730  -64.1480   51.6250 C   0  0  0  0  0  0  0  0  0  0  0  0
  -39.4340  -64.2820   50.4230 C   0  0  0  0  0  0  0  0  0  0  0  0
  -42.0440  -64.5120   53.0890 N   0  0  0  0  0  0  0  0  0  0  0  0
  -43.2140  -65.2830   53.2840 C   0  0  0  0  0  0  0  0  0  0  0  0
  -43.3220  -66.5490   53.5600 C   0  0  0  0  0  0  0  0  0  0  0  0
  -44.7540  -66.8350   53.6570 C   0  0  0  0  0  0  0  0  0  0  0  0
  -45.2310  -67.9840   53.9190 O   0  0  0  0  0  0  0  0  0  0  0  0
  -45.5330  -65.6540   53.4200 N   0  0  0  0  0  0  0  0  0  0  0  0
  -44.5500  -64.6480   53.1780 C   0  0  0  0  0  0  0  0  0  0  0  0
  -44.7790  -63.4370   52.9190 O   0  0  0  0  0  0  0  0  0  0  0  0
  -46.9460  -65.5300   53.4370 C   0  0  0  0  0  0  0  0  0  0  0  0
  -47.7860  -66.5160   53.8880 C   0  0  0  0  0  0  0  0  0  0  0  0
  -49.1860  -66.3510   53.9060 C   0  0  0  0  0  0  0  0  0  0  0  0
  -49.7560  -65.1780   53.4660 C   0  0  0  0  0  0  0  0  0  0  0  0
  -48.9200  -64.1880   53.0150 C   0  0  0  0  0  0  0  0  0  0  0  0
  -47.5370  -64.3690   53.0040 C   0  0  0  0  0  0  0  0  0  0  0  0
  -42.2840  -67.5160   53.7340 N   0  0  0  0  0  0  0  0  0  0  0  0
  -42.2170  -68.2320   54.8710 C   0  0  0  0  0  0  0  0  0  0  0  0
  -41.2040  -69.1850   55.0770 C   0  0  0  0  0  0  0  0  0  0  0  0
  -40.2510  -69.3980   54.0990 C   0  0  0  0  0  0  0  0  0  0  0  0
  -40.3410  -68.6530   52.9430 C   0  0  0  0  0  0  0  0  0  0  0  0
  -41.3450  -67.7350   52.7810 C   0  0  0  0  0  0  0  0  0  0  0  0
  -41.8670  -65.8520   48.7760 H   0  0  0  0  0  0  0  0  0  0  0  0
  -39.5900  -63.6600   52.4680 H   0  0  0  0  0  0  0  0  0  0  0  0
  -38.4210  -63.9130   50.2460 H   0  0  0  0  0  0  0  0  0  0  0  0
  -41.6990  -63.8920   53.8210 H   0  0  0  0  0  0  0  0  0  0  0  0
  -47.3640  -67.4460   54.2350 H   0  0  0  0  0  0  0  0  0  0  0  0
  -49.8100  -67.1630   54.2720 H   0  0  0  0  0  0  0  0  0  0  0  0
  -50.8390  -65.0620   53.4860 H   0  0  0  0  0  0  0  0  0  0  0  0
  -49.3600  -63.2620   52.6650 H   0  0  0  0  0  0  0  0  0  0  0  0
  -46.9440  -63.5450   52.6400 H   0  0  0  0  0  0  0  0  0  0  0  0
  -42.9750  -68.0490   55.6240 H   0  0  0  0  0  0  0  0  0  0  0  0
  -41.1920  -69.7430   56.0160 H   0  0  0  0  0  0  0  0  0  0  0  0
  -39.4550  -70.1360   54.2450 H   0  0  0  0  0  0  0  0  0  0  0  0
  -39.6030  -68.8100   52.1760 H   0  0  0  0  0  0  0  0  0  0  0  0
  -41.4260  -67.1350   51.8600 H   0  0  0  0  0  0  0  0  0  0  0  0
  1  2  1  0  0  0  0
  2  3  2  0  0  0  0
  2  7  1  0  0  0  0
  3  4  1  0  0  0  0
  4  5  2  0  0  0  0
  5  8  1  0  0  0  0
  6  5  1  0  0  0  0
  6 29  1  0  0  0  0
  7  6  2  0  0  0  0
  8  9  1  0  0  0  0
  8 31  1  0  0  0  0
  9 10  2  0  0  0  0
 10 11  1  0  0  0  0
 10 22  1  0  0  0  0
 11 12  2  0  0  0  0
 13 16  1  0  0  0  0
 13 11  1  0  0  0  0
 14  9  1  0  0  0  0
 14 13  1  0  0  0  0
 15 14  2  0  0  0  0
 16 17  1  0  0  0  0
 17 18  2  0  0  0  0
 17 32  1  0  0  0  0
 18 33  1  0  0  0  0
 19 34  1  0  0  0  0
 19 18  1  0  0  0  0
 20 19  2  0  0  0  0
 21 20  1  0  0  0  0
 21 16  2  0  0  0  0
 22 23  1  0  0  0  0
 23 24  1  0  0  0  0
 23 37  1  0  0  0  0
 24 38  1  0  0  0  0
 25 39  1  0  0  0  0
 25 24  2  0  0  0  0
 26 25  1  0  0  0  0
 27 26  2  0  0  0  0
 27 22  1  0  0  0  0
 28  3  1  0  0  0  0
 30  7  1  0  0  0  0
 35 20  1  0  0  0  0
 36 21  1  0  0  0  0
 40 26  1  0  0  0  0
 41 27  1  0  0  0  0
M  END
>  <Pose>
1

>  <Score>
-6.30

$$$$
