
 OpenBabel03202209423D

 43 46  0  0  0  0  0  0  0  0999 V2000
  -34.5120  -67.1770   50.1060 B   0  0  0  0  0  0  0  0  0  0  0  0
  -35.8930  -67.1620   48.7870 C   0  0  0  0  0  0  0  0  0  0  0  0
  -35.6080  -67.4300   47.4860 C   0  0  0  0  0  0  0  0  0  0  0  0
  -36.5610  -67.4230   46.5550 N   0  0  0  0  0  0  0  0  0  0  0  0
  -37.8270  -67.1470   46.9010 C   0  0  0  0  0  0  0  0  0  0  0  0
  -38.1760  -66.8660   48.2180 C   0  0  0  0  0  0  0  0  0  0  0  0
  -37.1970  -66.8720   49.1850 C   0  0  0  0  0  0  0  0  0  0  0  0
  -39.5630  -66.5870   48.5020 C   0  0  0  0  0  0  0  0  0  0  0  0
  -40.1790  -65.7120   47.8710 O   0  0  0  0  0  0  0  0  0  0  0  0
  -40.2840  -67.3340   49.5530 N   0  0  0  0  0  0  0  0  0  0  0  0
  -39.7500  -67.2320   50.8400 C   0  0  0  0  0  0  0  0  0  0  0  0
  -40.4090  -67.6350   52.0640 C   0  0  0  0  0  0  0  0  0  0  0  0
  -39.7180  -68.7290   52.6950 C   0  0  0  0  0  0  0  0  0  0  0  0
  -40.1920  -69.2490   53.8430 C   0  0  0  0  0  0  0  0  0  0  0  0
  -41.3590  -68.7430   54.4440 C   0  0  0  0  0  0  0  0  0  0  0  0
  -42.0300  -67.6980   53.8560 C   0  0  0  0  0  0  0  0  0  0  0  0
  -41.5430  -67.1460   52.6600 C   0  0  0  0  0  0  0  0  0  0  0  0
  -42.2010  -65.9560   52.0620 C   0  0  0  0  0  0  0  0  0  0  0  0
  -43.1010  -65.2010   53.0340 C   0  0  0  0  0  0  0  0  0  0  0  0
  -43.9580  -66.0970   53.7750 N   0  0  0  0  0  0  0  0  0  0  0  0
  -43.2620  -67.1670   54.4300 C   0  0  0  0  0  0  0  0  0  0  0  0
  -43.7700  -67.5960   55.4870 O   0  0  0  0  0  0  0  0  0  0  0  0
  -45.3930  -65.9280   53.8480 C   0  0  0  0  0  0  0  0  0  0  0  0
  -41.7690  -69.3170   55.5890 O   0  0  0  0  0  0  0  0  0  0  0  0
  -39.3230  -70.2860   54.2180 O   0  0  0  0  0  0  0  0  0  0  0  0
  -38.4380  -70.5770   53.1570 C   0  0  0  0  0  0  0  0  0  0  0  0
  -38.5600  -69.4280   52.3420 O   0  0  0  0  0  0  0  0  0  0  0  0
  -34.5890  -67.6630   47.1350 H   0  0  0  0  0  0  0  0  0  0  0  0
  -38.6310  -67.1330   46.1700 H   0  0  0  0  0  0  0  0  0  0  0  0
  -37.4350  -66.6620   50.2140 H   0  0  0  0  0  0  0  0  0  0  0  0
  -41.0750  -67.8640   49.1590 H   0  0  0  0  0  0  0  0  0  0  0  0
  -38.7080  -67.7680   50.7990 H   0  0  0  0  0  0  0  0  0  0  0  0
  -39.3350  -66.1440   50.9680 H   0  0  0  0  0  0  0  0  0  0  0  0
  -42.8250  -66.1840   51.1920 H   0  0  0  0  0  0  0  0  0  0  0  0
  -41.4430  -65.1820   51.7900 H   0  0  0  0  0  0  0  0  0  0  0  0
  -43.6930  -64.4970   52.3980 H   0  0  0  0  0  0  0  0  0  0  0  0
  -42.4240  -64.6450   53.7200 H   0  0  0  0  0  0  0  0  0  0  0  0
  -45.8020  -66.2830   52.8700 H   0  0  0  0  0  0  0  0  0  0  0  0
  -45.6460  -64.8570   53.9480 H   0  0  0  0  0  0  0  0  0  0  0  0
  -45.8030  -66.5710   54.6380 H   0  0  0  0  0  0  0  0  0  0  0  0
  -41.3840  -70.0150   56.1270 H   0  0  0  0  0  0  0  0  0  0  0  0
  -37.3980  -70.7270   53.5120 H   0  0  0  0  0  0  0  0  0  0  0  0
  -38.8050  -71.4920   52.6650 H   0  0  0  0  0  0  0  0  0  0  0  0
  2  7  1  0  0  0  0
  2  1  1  0  0  0  0
  3  2  2  0  0  0  0
  4  5  2  0  0  0  0
  4  3  1  0  0  0  0
  5  6  1  0  0  0  0
  6  8  1  0  0  0  0
  6  7  2  0  0  0  0
  7 30  1  0  0  0  0
  8 10  1  0  0  0  0
  9  8  2  0  0  0  0
 10 11  1  0  0  0  0
 11 33  1  0  0  0  0
 11 12  1  0  0  0  0
 12 17  2  0  0  0  0
 12 13  1  0  0  0  0
 13 14  2  0  0  0  0
 14 25  1  0  0  0  0
 14 15  1  0  0  0  0
 15 24  1  0  0  0  0
 16 21  1  0  0  0  0
 16 15  2  0  0  0  0
 17 16  1  0  0  0  0
 18 17  1  0  0  0  0
 18 19  1  0  0  0  0
 19 37  1  0  0  0  0
 19 20  1  0  0  0  0
 20 23  1  0  0  0  0
 20 21  1  0  0  0  0
 21 22  2  0  0  0  0
 23 39  1  0  0  0  0
 23 40  1  0  0  0  0
 24 41  1  0  0  0  0
 26 42  1  0  0  0  0
 26 25  1  0  0  0  0
 27 13  1  0  0  0  0
 27 26  1  0  0  0  0
 28  3  1  0  0  0  0
 29  5  1  0  0  0  0
 31 10  1  0  0  0  0
 32 11  1  0  0  0  0
 34 18  1  0  0  0  0
 35 18  1  0  0  0  0
 36 19  1  0  0  0  0
 38 23  1  0  0  0  0
 43 26  1  0  0  0  0
M  END
>  <Pose>
1

>  <Score>
-7.48

$$$$
