
 OpenBabel03202209423D

 37 40  0  0  1  0  0  0  0  0999 V2000
  -34.2680  -66.4700   50.2910 B   0  0  0  0  0  0  0  0  0  0  0  0
  -35.5380  -66.7940   48.8850 C   0  0  0  0  0  0  0  0  0  0  0  0
  -35.1570  -67.5860   47.8260 C   0  0  0  0  0  0  0  0  0  0  0  0
  -36.0580  -67.7960   46.8600 N   0  0  0  0  0  0  0  0  0  0  0  0
  -37.3120  -67.2580   46.9010 C   0  0  0  0  0  0  0  0  0  0  0  0
  -37.7500  -66.4630   47.9290 C   0  0  0  0  0  0  0  0  0  0  0  0
  -36.7950  -66.2470   48.9400 C   0  0  0  0  0  0  0  0  0  0  0  0
  -39.0490  -65.8490   48.0470 C   0  0  0  0  0  0  0  0  0  0  0  0
  -39.5230  -65.2550   47.0290 O   0  0  0  0  0  0  0  0  0  0  0  0
  -39.8090  -65.8730   49.2230 N   0  0  0  0  0  0  0  0  0  0  0  0
  -40.0100  -65.1280   50.4370 C   0  0  0  0  0  0  0  0  0  0  0  0
  -40.8900  -66.2150   51.0350 C   0  0  0  0  0  0  0  0  0  0  0  0
  -40.8450  -66.8270   49.6680 C   0  0  0  0  0  0  0  0  0  0  0  0
  -42.1470  -65.8260   51.4950 O   0  0  0  0  0  0  0  0  0  0  0  0
  -42.8130  -66.3530   52.5830 C   0  0  2  0  0  0  0  0  0  0  0  0
  -44.0980  -66.0660   52.7730 C   0  0  0  0  0  0  0  0  0  0  0  0
  -44.8560  -66.5920   53.9010 C   0  0  0  0  0  0  0  0  0  0  0  0
  -46.1330  -66.2860   54.0580 C   0  0  0  0  0  0  0  0  0  0  0  0
  -44.1720  -67.4360   54.8160 N   0  0  0  0  0  0  0  0  0  0  0  0
  -42.7850  -67.7280   54.5860 C   0  0  0  0  0  0  0  0  0  0  0  0
  -42.1430  -67.2130   53.5270 N   0  0  0  0  0  0  0  0  0  0  0  0
  -40.8740  -67.6320   53.5480 N   0  0  0  0  0  0  0  0  0  0  0  0
  -40.7340  -68.4090   54.6270 C   0  0  0  0  0  0  0  0  0  0  0  0
  -41.9070  -68.4700   55.2670 N   0  0  0  0  0  0  0  0  0  0  0  0
  -34.1510  -68.0290   47.7720 H   0  0  0  0  0  0  0  0  0  0  0  0
  -38.0120  -67.4650   46.0950 H   0  0  0  0  0  0  0  0  0  0  0  0
  -37.0780  -65.6280   49.7790 H   0  0  0  0  0  0  0  0  0  0  0  0
  -39.0900  -65.0180   51.0690 H   0  0  0  0  0  0  0  0  0  0  0  0
  -40.5270  -64.1830   50.2310 H   0  0  0  0  0  0  0  0  0  0  0  0
  -40.3520  -66.8040   51.8210 H   0  0  0  0  0  0  0  0  0  0  0  0
  -41.7290  -66.6690   49.0540 H   0  0  0  0  0  0  0  0  0  0  0  0
  -40.5060  -67.8700   49.6610 H   0  0  0  0  0  0  0  0  0  0  0  0
  -44.5840  -65.4000   52.0430 H   0  0  0  0  0  0  0  0  0  0  0  0
  -46.6580  -66.6900   54.8980 H   0  0  0  0  0  0  0  0  0  0  0  0
  -46.6390  -65.6550   53.3720 H   0  0  0  0  0  0  0  0  0  0  0  0
  -44.7000  -67.8150   55.6200 H   0  0  0  0  0  0  0  0  0  0  0  0
  -39.8290  -68.9280   54.9670 H   0  0  0  0  0  0  0  0  0  0  0  0
  2  7  1  0  0  0  0
  2  1  1  0  0  0  0
  3  2  2  0  0  0  0
  4  5  2  0  0  0  0
  4  3  1  0  0  0  0
  5  6  1  0  0  0  0
  6  8  1  0  0  0  0
  6  7  2  0  0  0  0
  7 27  1  0  0  0  0
  8 10  1  0  0  0  0
  9  8  2  0  0  0  0
 10 13  1  0  0  0  0
 10 11  1  0  0  0  0
 11 12  1  0  0  0  0
 11 28  1  0  0  0  0
 12 14  1  0  0  0  0
 12 30  1  0  0  0  0
 13 12  1  0  0  0  0
 15 14  1  1  0  0  0
 15 16  1  0  0  0  0
 15 21  1  0  0  0  0
 16 17  2  0  0  0  0
 17 18  1  0  0  0  0
 17 19  1  0  0  0  0
 18 34  1  0  0  0  0
 19 36  1  0  0  0  0
 20 19  1  0  0  0  0
 20 24  2  0  0  0  0
 21 22  1  0  0  0  0
 21 20  1  0  0  0  0
 22 23  2  0  0  0  0
 23 37  1  0  0  0  0
 23 24  1  0  0  0  0
 25  3  1  0  0  0  0
 26  5  1  0  0  0  0
 29 11  1  0  0  0  0
 31 13  1  0  0  0  0
 32 13  1  0  0  0  0
 33 16  1  0  0  0  0
 35 18  1  0  0  0  0
M  END
>  <Pose>
1

>  <Score>
-6.86

$$$$
