
 OpenBabel03202209423D

 57 60  0  0  0  0  0  0  0  0999 V2000
  -43.7420  -66.7770   54.6900 B   0  0  0  0  0  0  0  0  0  0  0  0
  -44.9040  -65.9160   53.4590 C   0  0  0  0  0  0  0  0  0  0  0  0
  -46.2490  -66.2330   53.4570 C   0  0  0  0  0  0  0  0  0  0  0  0
  -47.1610  -65.6360   52.5740 C   0  0  0  0  0  0  0  0  0  0  0  0
  -46.7060  -64.7010   51.6770 C   0  0  0  0  0  0  0  0  0  0  0  0
  -45.3620  -64.3790   51.6730 C   0  0  0  0  0  0  0  0  0  0  0  0
  -44.4670  -64.9660   52.5400 C   0  0  0  0  0  0  0  0  0  0  0  0
  -44.6980  -63.0880   50.4430 B   0  0  0  0  0  0  0  0  0  0  0  0
  -48.5680  -66.0140   52.6010 C   0  0  0  0  0  0  0  0  0  0  0  0
  -49.2160  -65.7970   51.5410 O   0  0  0  0  0  0  0  0  0  0  0  0
  -49.1970  -66.6080   53.7760 C   0  0  0  0  0  0  0  0  0  0  0  0
  -48.0980  -66.8950   54.8330 C   0  0  0  0  0  0  0  0  0  0  0  0
  -46.8510  -67.1520   54.3000 O   0  0  0  0  0  0  0  0  0  0  0  0
  -50.1820  -65.8090   54.4980 C   0  0  0  0  0  0  0  0  0  0  0  0
  -50.0460  -64.4890   54.9060 N   0  0  0  0  0  4  0  0  0  0  0  0
  -50.8390  -63.9650   55.9730 C   0  0  0  0  0  0  0  0  0  0  0  0
  -50.0400  -62.7710   56.5560 C   0  0  0  0  0  0  0  0  0  0  0  0
  -50.1690  -61.6690   55.5250 C   0  0  0  0  0  0  0  0  0  0  0  0
  -50.6080  -62.2070   54.1810 C   0  0  0  0  0  0  0  0  0  0  0  0
  -49.9110  -63.5070   53.8400 C   0  0  0  0  0  0  0  0  0  0  0  0
  -49.8170  -67.9310   53.3530 C   0  0  0  0  0  0  0  0  0  0  0  0
  -50.8230  -68.4000   54.2740 N   0  0  0  0  0  4  0  0  0  0  0  0
  -50.4580  -69.7490   54.6830 C   0  0  0  0  0  0  0  0  0  0  0  0
  -50.2570  -70.5910   53.4670 C   0  0  0  0  0  0  0  0  0  0  0  0
  -51.3900  -70.5970   52.5080 C   0  0  0  0  0  0  0  0  0  0  0  0
  -52.1320  -69.3110   52.3830 C   0  0  0  0  0  0  0  0  0  0  0  0
  -52.1430  -68.5480   53.6890 C   0  0  0  0  0  0  0  0  0  0  0  0
  -47.4020  -64.2200   50.9750 H   0  0  0  0  0  0  0  0  0  0  0  0
  -43.4130  -64.7170   52.5420 H   0  0  0  0  0  0  0  0  0  0  0  0
  -48.4670  -67.6820   55.5320 H   0  0  0  0  0  0  0  0  0  0  0  0
  -48.0510  -65.9830   55.4610 H   0  0  0  0  0  0  0  0  0  0  0  0
  -50.5050  -66.3820   55.4320 H   0  0  0  0  0  0  0  0  0  0  0  0
  -51.1440  -65.8840   53.8830 H   0  0  0  0  0  0  0  0  0  0  0  0
  -49.0530  -64.4650   55.3460 H   0  0  0  0  0  0  0  0  0  0  0  0
  -50.9690  -64.6820   56.7920 H   0  0  0  0  0  0  0  0  0  0  0  0
  -51.7720  -63.4460   55.6580 H   0  0  0  0  0  0  0  0  0  0  0  0
  -48.9850  -63.0630   56.7080 H   0  0  0  0  0  0  0  0  0  0  0  0
  -50.5190  -62.4940   57.5170 H   0  0  0  0  0  0  0  0  0  0  0  0
  -51.0110  -61.0120   55.8800 H   0  0  0  0  0  0  0  0  0  0  0  0
  -49.2800  -61.0260   55.4670 H   0  0  0  0  0  0  0  0  0  0  0  0
  -50.2240  -61.4580   53.4250 H   0  0  0  0  0  0  0  0  0  0  0  0
  -51.6900  -62.2290   54.0330 H   0  0  0  0  0  0  0  0  0  0  0  0
  -48.8330  -63.2140   53.6550 H   0  0  0  0  0  0  0  0  0  0  0  0
  -50.2580  -63.8480   52.8640 H   0  0  0  0  0  0  0  0  0  0  0  0
  -50.1580  -67.8970   52.3150 H   0  0  0  0  0  0  0  0  0  0  0  0
  -48.9840  -68.6570   53.4160 H   0  0  0  0  0  0  0  0  0  0  0  0
  -50.9300  -67.7630   55.0820 H   0  0  0  0  0  0  0  0  0  0  0  0
  -49.5580  -69.7720   55.3050 H   0  0  0  0  0  0  0  0  0  0  0  0
  -51.3440  -70.1690   55.2280 H   0  0  0  0  0  0  0  0  0  0  0  0
  -50.1070  -71.6490   53.8340 H   0  0  0  0  0  0  0  0  0  0  0  0
  -49.3280  -70.3650   52.9070 H   0  0  0  0  0  0  0  0  0  0  0  0
  -51.0030  -70.8540   51.4780 H   0  0  0  0  0  0  0  0  0  0  0  0
  -52.0730  -71.4580   52.7550 H   0  0  0  0  0  0  0  0  0  0  0  0
  -53.2140  -69.5840   52.1950 H   0  0  0  0  0  0  0  0  0  0  0  0
  -51.8500  -68.6910   51.5140 H   0  0  0  0  0  0  0  0  0  0  0  0
  -52.7340  -67.6400   53.6330 H   0  0  0  0  0  0  0  0  0  0  0  0
  -52.7040  -69.2190   54.4090 H   0  0  0  0  0  0  0  0  0  0  0  0
  2  1  1  0  0  0  0
  3  2  1  0  0  0  0
  3 13  1  0  0  0  0
  4  9  1  0  0  0  0
  4  3  2  0  0  0  0
  5  4  1  0  0  0  0
  6  5  2  0  0  0  0
  6  7  1  0  0  0  0
  7 29  1  0  0  0  0
  7  2  2  0  0  0  0
  8  6  1  0  0  0  0
  9 11  1  0  0  0  0
 10  9  2  0  0  0  0
 11 14  1  0  0  0  0
 11 12  1  0  0  0  0
 12 31  1  0  0  0  0
 12 30  1  0  0  0  0
 13 12  1  0  0  0  0
 14 15  1  0  0  0  0
 14 32  1  0  0  0  0
 15 34  1  0  0  0  0
 15 16  1  0  0  0  0
 16 17  1  0  0  0  0
 16 35  1  0  0  0  0
 17 37  1  0  0  0  0
 17 38  1  0  0  0  0
 18 39  1  0  0  0  0
 18 17  1  0  0  0  0
 19 18  1  0  0  0  0
 20 19  1  0  0  0  0
 20 15  1  0  0  0  0
 21 46  1  0  0  0  0
 21 11  1  0  0  0  0
 21 22  1  0  0  0  0
 22 23  1  0  0  0  0
 22 47  1  0  0  0  0
 23 49  1  0  0  0  0
 23 48  1  0  0  0  0
 24 50  1  0  0  0  0
 24 23  1  0  0  0  0
 25 53  1  0  0  0  0
 25 24  1  0  0  0  0
 26 25  1  0  0  0  0
 26 27  1  0  0  0  0
 27 22  1  0  0  0  0
 27 57  1  0  0  0  0
 28  5  1  0  0  0  0
 33 14  1  0  0  0  0
 36 16  1  0  0  0  0
 40 18  1  0  0  0  0
 41 19  1  0  0  0  0
 42 19  1  0  0  0  0
 43 20  1  0  0  0  0
 44 20  1  0  0  0  0
 45 21  1  0  0  0  0
 51 24  1  0  0  0  0
 52 25  1  0  0  0  0
 54 26  1  0  0  0  0
 55 26  1  0  0  0  0
 56 27  1  0  0  0  0
M  END
>  <Pose>
1

>  <Score>
-4.77

$$$$
