
 OpenBabel03202209423D

 44 47  0  0  1  0  0  0  0  0999 V2000
  -47.3820  -66.4050   54.4180 B   0  0  0  0  0  0  0  0  0  0  0  0
  -45.8160  -65.9860   53.3990 C   0  0  0  0  0  0  0  0  0  0  0  0
  -44.5990  -66.5800   53.6630 C   0  0  0  0  0  0  0  0  0  0  0  0
  -43.4610  -66.2870   52.9320 C   0  0  0  0  0  0  0  0  0  0  0  0
  -43.6030  -65.3650   51.9180 C   0  0  0  0  0  0  0  0  0  0  0  0
  -44.7990  -64.7500   51.6260 C   0  0  0  0  0  0  0  0  0  0  0  0
  -45.9290  -65.0550   52.3670 C   0  0  0  0  0  0  0  0  0  0  0  0
  -44.9280  -63.4780   50.2040 B   0  0  0  0  0  0  0  0  0  0  0  0
  -42.3190  -67.0510   53.4120 C   0  0  0  0  0  0  0  0  0  0  0  0
  -41.1050  -67.0660   53.0060 N   0  0  0  0  0  0  0  0  0  0  0  0
  -40.1210  -67.8710   53.5890 N   0  0  0  0  0  0  0  0  0  0  0  0
  -39.6900  -69.0110   52.8750 C   0  0  0  0  0  0  0  0  0  0  0  0
  -39.9710  -70.1570   53.2830 O   0  0  0  0  0  0  0  0  0  0  0  0
  -38.8860  -68.9110   51.6160 C   0  0  0  0  0  0  0  0  0  0  0  0
  -39.1900  -67.7170   50.8780 N   0  0  0  0  0  0  0  0  0  0  0  0
  -38.2710  -67.1080   49.9810 C   0  0  0  0  0  0  0  0  0  0  0  0
  -38.5590  -65.9880   49.5060 O   0  0  0  0  0  0  0  0  0  0  0  0
  -36.9770  -67.7350   49.5750 C   0  0  2  0  0  0  0  0  0  0  0  0
  -35.8870  -67.1500   50.2230 O   0  0  0  0  0  0  0  0  0  0  0  0
  -34.9310  -66.3470   49.6050 C   0  0  0  0  0  0  0  0  0  0  0  0
  -34.8360  -66.4300   48.2410 C   0  0  0  0  0  0  0  0  0  0  0  0
  -33.8860  -65.6380   47.5960 C   0  0  0  0  0  0  0  0  0  0  0  0
  -33.0490  -64.7860   48.2790 C   0  0  0  0  0  0  0  0  0  0  0  0
  -33.1730  -64.7290   49.6530 C   0  0  0  0  0  0  0  0  0  0  0  0
  -34.1080  -65.5070   50.2950 C   0  0  0  0  0  0  0  0  0  0  0  0
  -35.6640  -67.2750   47.5540 O   0  0  0  0  0  0  0  0  0  0  0  0
  -36.8290  -67.8320   48.0970 C   0  0  0  0  0  0  0  0  0  0  0  0
  -42.8260  -67.8650   54.5220 C   0  0  0  0  0  0  0  0  0  0  0  0
  -42.1150  -68.6630   55.1900 O   0  0  0  0  0  0  0  0  0  0  0  0
  -44.1990  -67.5450   54.6300 N   0  0  0  0  0  0  0  0  0  0  0  0
  -42.7450  -65.1040   51.3220 H   0  0  0  0  0  0  0  0  0  0  0  0
  -46.8660  -64.5930   52.1570 H   0  0  0  0  0  0  0  0  0  0  0  0
  -39.7600  -67.5850   54.5230 H   0  0  0  0  0  0  0  0  0  0  0  0
  -37.8240  -68.8620   51.9440 H   0  0  0  0  0  0  0  0  0  0  0  0
  -38.9910  -69.8310   50.9990 H   0  0  0  0  0  0  0  0  0  0  0  0
  -40.1190  -67.2410   50.9720 H   0  0  0  0  0  0  0  0  0  0  0  0
  -37.0440  -68.7860   49.9840 H   0  0  0  0  0  0  0  0  0  0  0  0
  -33.8300  -65.7220   46.5180 H   0  0  0  0  0  0  0  0  0  0  0  0
  -32.3280  -64.1900   47.7410 H   0  0  0  0  0  0  0  0  0  0  0  0
  -32.4990  -64.0430   50.1950 H   0  0  0  0  0  0  0  0  0  0  0  0
  -34.1830  -65.4440   51.3720 H   0  0  0  0  0  0  0  0  0  0  0  0
  -36.8880  -68.9150   47.7660 H   0  0  0  0  0  0  0  0  0  0  0  0
  -37.6920  -67.3250   47.6050 H   0  0  0  0  0  0  0  0  0  0  0  0
  -44.8390  -67.9600   55.3290 H   0  0  0  0  0  0  0  0  0  0  0  0
  2  3  1  0  0  0  0
  2  1  1  0  0  0  0
  3 30  1  0  0  0  0
  4  9  1  0  0  0  0
  4  3  2  0  0  0  0
  5  4  1  0  0  0  0
  6  5  2  0  0  0  0
  6  7  1  0  0  0  0
  7  2  2  0  0  0  0
  8  6  1  0  0  0  0
  9 28  1  0  0  0  0
 10  9  2  0  0  0  0
 10 11  1  0  0  0  0
 11 33  1  0  0  0  0
 12 13  2  0  0  0  0
 12 11  1  0  0  0  0
 14 34  1  0  0  0  0
 14 12  1  0  0  0  0
 15 36  1  0  0  0  0
 15 14  1  0  0  0  0
 16 15  1  0  0  0  0
 17 16  2  0  0  0  0
 18 16  1  0  0  0  0
 18 37  1  1  0  0  0
 18 19  1  0  0  0  0
 20 19  1  0  0  0  0
 20 25  1  0  0  0  0
 21 20  2  0  0  0  0
 22 21  1  0  0  0  0
 22 23  2  0  0  0  0
 23 24  1  0  0  0  0
 24 40  1  0  0  0  0
 24 25  2  0  0  0  0
 25 41  1  0  0  0  0
 26 27  1  0  0  0  0
 26 21  1  0  0  0  0
 27 18  1  0  0  0  0
 28 30  1  0  0  0  0
 28 29  2  0  0  0  0
 30 44  1  0  0  0  0
 31  5  1  0  0  0  0
 32  7  1  0  0  0  0
 35 14  1  0  0  0  0
 38 22  1  0  0  0  0
 39 23  1  0  0  0  0
 42 27  1  0  0  0  0
 43 27  1  0  0  0  0
M  END
>  <Pose>
1

>  <Score>
-7.22

$$$$
