
 OpenBabel03202209423D

 56 59  0  0  1  0  0  0  0  0999 V2000
  -36.8270  -63.0550   49.0440 B   0  0  0  0  0  0  0  0  0  0  0  0
  -37.4660  -64.8260   49.2840 C   0  0  0  0  0  0  0  0  0  0  0  0
  -38.7810  -65.0240   49.7280 C   0  0  0  0  0  0  0  0  0  0  0  0
  -39.2970  -66.2710   49.9100 C   0  0  0  0  0  0  0  0  0  0  0  0
  -38.4910  -67.3650   49.6480 C   0  0  0  0  0  0  0  0  0  0  0  0
  -37.1860  -67.1780   49.2080 C   0  0  0  0  0  0  0  0  0  0  0  0
  -36.6680  -65.9170   49.0240 C   0  0  0  0  0  0  0  0  0  0  0  0
  -36.2860  -68.3300   48.9140 C   0  0  0  0  0  0  0  0  0  0  0  0
  -40.7090  -66.4570   50.3410 C   0  0  1  0  0  0  0  0  0  0  0  0
  -41.2870  -65.3970   51.2090 C   0  0  0  0  0  0  0  0  0  0  0  0
  -40.3850  -64.1390   51.2280 C   0  0  0  0  0  0  0  0  0  0  0  0
  -39.6580  -63.9890   50.0190 O   0  0  0  0  0  0  0  0  0  0  0  0
  -41.3350  -65.7910   52.6730 C   0  0  0  0  0  0  0  0  0  0  0  0
  -41.4940  -67.2100   52.9110 N   0  0  0  0  0  4  0  0  0  0  0  0
  -42.2640  -67.4160   54.1380 C   0  0  0  0  0  0  0  0  0  0  0  0
  -41.9270  -68.7630   54.6620 C   0  0  0  0  0  0  0  0  0  0  0  0
  -40.7780  -69.2040   53.8200 C   0  0  0  0  0  0  0  0  0  0  0  0
  -40.2520  -67.8620   53.2930 C   0  0  0  0  0  0  0  0  0  0  0  0
  -42.5820  -64.8880   50.7010 C   0  0  0  0  0  0  0  0  0  0  0  0
  -43.8620  -65.2330   51.0500 N   0  0  0  0  0  4  0  0  0  0  0  0
  -43.9370  -65.5130   52.5010 C   0  0  0  0  0  0  0  0  0  0  0  0
  -45.2740  -65.0650   52.9500 C   0  0  0  0  0  0  0  0  0  0  0  0
  -45.7250  -64.0400   51.9820 C   0  0  0  0  0  0  0  0  0  0  0  0
  -44.9230  -64.3720   50.7250 C   0  0  0  0  0  0  0  0  0  0  0  0
  -41.3890  -66.6070   49.1000 O   0  0  0  0  0  0  0  0  0  0  0  0
  -38.8280  -68.3720   49.7700 H   0  0  0  0  0  0  0  0  0  0  0  0
  -35.6630  -65.7320   48.6830 H   0  0  0  0  0  0  0  0  0  0  0  0
  -36.5910  -69.2360   49.4680 H   0  0  0  0  0  0  0  0  0  0  0  0
  -36.2980  -68.4950   47.8040 H   0  0  0  0  0  0  0  0  0  0  0  0
  -35.2200  -68.0510   49.1450 H   0  0  0  0  0  0  0  0  0  0  0  0
  -40.7900  -67.4860   50.8000 H   0  0  0  0  0  0  0  0  0  0  0  0
  -39.7800  -64.0760   52.1300 H   0  0  0  0  0  0  0  0  0  0  0  0
  -41.0690  -63.2490   51.2750 H   0  0  0  0  0  0  0  0  0  0  0  0
  -40.3190  -65.5450   53.1240 H   0  0  0  0  0  0  0  0  0  0  0  0
  -42.0270  -65.2640   53.3030 H   0  0  0  0  0  0  0  0  0  0  0  0
  -41.8820  -67.7510   52.1250 H   0  0  0  0  0  0  0  0  0  0  0  0
  -43.3340  -67.3060   54.0030 H   0  0  0  0  0  0  0  0  0  0  0  0
  -41.9260  -66.6130   54.8400 H   0  0  0  0  0  0  0  0  0  0  0  0
  -42.7940  -69.4390   54.6500 H   0  0  0  0  0  0  0  0  0  0  0  0
  -41.6110  -68.6910   55.7430 H   0  0  0  0  0  0  0  0  0  0  0  0
  -41.1760  -69.7820   52.9430 H   0  0  0  0  0  0  0  0  0  0  0  0
  -39.9910  -69.7490   54.3560 H   0  0  0  0  0  0  0  0  0  0  0  0
  -39.7700  -67.3320   54.1450 H   0  0  0  0  0  0  0  0  0  0  0  0
  -39.5500  -68.0330   52.4830 H   0  0  0  0  0  0  0  0  0  0  0  0
  -42.5570  -63.7130   50.7600 H   0  0  0  0  0  0  0  0  0  0  0  0
  -42.5640  -64.9380   49.5330 H   0  0  0  0  0  0  0  0  0  0  0  0
  -44.1190  -66.2510   50.6800 H   0  0  0  0  0  0  0  0  0  0  0  0
  -43.8770  -66.6140   52.7130 H   0  0  0  0  0  0  0  0  0  0  0  0
  -43.1180  -65.0730   53.0660 H   0  0  0  0  0  0  0  0  0  0  0  0
  -46.0170  -65.8950   52.9680 H   0  0  0  0  0  0  0  0  0  0  0  0
  -45.2420  -64.5960   53.9690 H   0  0  0  0  0  0  0  0  0  0  0  0
  -46.7950  -64.1200   51.7270 H   0  0  0  0  0  0  0  0  0  0  0  0
  -45.5390  -62.9910   52.3150 H   0  0  0  0  0  0  0  0  0  0  0  0
  -44.6960  -63.4080   50.2830 H   0  0  0  0  0  0  0  0  0  0  0  0
  -45.6400  -64.8620   49.9770 H   0  0  0  0  0  0  0  0  0  0  0  0
  -42.3430  -66.4450   49.1980 H   0  0  0  0  0  0  0  0  0  0  0  0
  1  2  1  0  0  0  0
  2  3  1  0  0  0  0
  3  4  2  0  0  0  0
  3 12  1  0  0  0  0
  4  9  1  0  0  0  0
  5 26  1  0  0  0  0
  5  4  1  0  0  0  0
  6  5  2  0  0  0  0
  7  6  1  0  0  0  0
  7  2  2  0  0  0  0
  8 30  1  0  0  0  0
  8  6  1  0  0  0  0
  8 28  1  0  0  0  0
  9 31  1  1  0  0  0
  9 10  1  0  0  0  0
 10 11  1  0  0  0  0
 10 13  1  0  0  0  0
 11 33  1  0  0  0  0
 11 32  1  0  0  0  0
 12 11  1  0  0  0  0
 13 14  1  0  0  0  0
 13 34  1  0  0  0  0
 13 35  1  0  0  0  0
 14 18  1  0  0  0  0
 14 15  1  0  0  0  0
 15 16  1  0  0  0  0
 15 38  1  0  0  0  0
 16 40  1  0  0  0  0
 17 42  1  0  0  0  0
 17 16  1  0  0  0  0
 18 17  1  0  0  0  0
 18 43  1  0  0  0  0
 19 45  1  0  0  0  0
 19 20  1  0  0  0  0
 19 10  1  0  0  0  0
 20 21  1  0  0  0  0
 21 48  1  0  0  0  0
 21 22  1  0  0  0  0
 21 49  1  0  0  0  0
 22 50  1  0  0  0  0
 22 51  1  0  0  0  0
 23 53  1  0  0  0  0
 23 22  1  0  0  0  0
 24 20  1  0  0  0  0
 24 23  1  0  0  0  0
 25 56  1  0  0  0  0
 25  9  1  0  0  0  0
 27  7  1  0  0  0  0
 29  8  1  0  0  0  0
 36 14  1  0  0  0  0
 37 15  1  0  0  0  0
 39 16  1  0  0  0  0
 41 17  1  0  0  0  0
 44 18  1  0  0  0  0
 46 19  1  0  0  0  0
 47 20  1  0  0  0  0
 52 23  1  0  0  0  0
 54 24  1  0  0  0  0
 55 24  1  0  0  0  0
M  END
>  <Pose>
1

>  <Score>
-5.00

$$$$
