
 OpenBabel03202209423D

 56 59  0  0  1  0  0  0  0  0999 V2000
  -40.7260  -66.5910   50.8860 B   0  0  0  0  0  0  0  0  0  0  0  0
  -41.2470  -67.1880   52.6160 C   0  0  0  0  0  0  0  0  0  0  0  0
  -40.5700  -68.2400   53.2010 C   0  0  0  0  0  0  0  0  0  0  0  0
  -40.9260  -68.6930   54.4540 C   0  0  0  0  0  0  0  0  0  0  0  0
  -41.9740  -68.0510   55.0800 C   0  0  0  0  0  0  0  0  0  0  0  0
  -42.6460  -66.9990   54.4890 C   0  0  0  0  0  0  0  0  0  0  0  0
  -42.2970  -66.5390   53.2350 C   0  0  0  0  0  0  0  0  0  0  0  0
  -42.9680  -65.4790   52.6270 O   0  0  0  0  0  0  0  0  0  0  0  0
  -44.1370  -65.7790   51.8890 C   0  0  0  0  0  0  0  0  0  0  0  0
  -45.3910  -65.4000   52.6360 C   0  0  2  0  0  0  0  0  0  0  0  0
  -45.8800  -66.4130   53.4180 O   0  0  0  0  0  0  0  0  0  0  0  0
  -46.4180  -64.8540   51.7050 C   0  0  0  0  0  0  0  0  0  0  0  0
  -46.0470  -64.9340   50.3100 N   0  0  0  0  0  4  0  0  0  0  0  0
  -45.3430  -63.7050   49.9900 C   0  0  0  0  0  0  0  0  0  0  0  0
  -45.1160  -63.5490   48.4790 C   0  0  0  0  0  0  0  0  0  0  0  0
  -46.3720  -63.5910   47.8210 N   0  0  0  0  0  0  0  0  0  0  0  0
  -47.5290  -63.8300   48.7100 C   0  0  0  0  0  0  0  0  0  0  0  0
  -47.2590  -65.0580   49.5140 C   0  0  0  0  0  0  0  0  0  0  0  0
  -46.5710  -63.4270   46.4460 C   0  0  0  0  0  0  0  0  0  0  0  0
  -47.1390  -62.2720   46.1360 O   0  0  0  0  0  0  0  0  0  0  0  0
  -46.2810  -64.2620   45.3260 C   0  0  0  0  0  0  0  0  0  0  0  0
  -45.3790  -64.0130   44.3310 C   0  0  0  0  0  0  0  0  0  0  0  0
  -45.1450  -64.8710   43.2650 C   0  0  0  0  0  0  0  0  0  0  0  0
  -45.8310  -66.0390   43.1670 C   0  0  0  0  0  0  0  0  0  0  0  0
  -46.7500  -66.3200   44.1570 C   0  0  0  0  0  0  0  0  0  0  0  0
  -46.9820  -65.4720   45.2100 C   0  0  0  0  0  0  0  0  0  0  0  0
  -40.2460  -69.7480   55.0400 C   0  0  0  0  0  0  0  0  0  0  0  0
  -39.1970  -70.3900   54.4150 C   0  0  0  0  0  0  0  0  0  0  0  0
  -38.8410  -69.9370   53.1600 C   0  0  0  0  0  0  0  0  0  0  0  0
  -39.5180  -68.8860   52.5750 C   0  0  0  0  0  0  0  0  0  0  0  0
  -42.2600  -68.4010   56.0650 H   0  0  0  0  0  0  0  0  0  0  0  0
  -43.4730  -66.4960   54.9870 H   0  0  0  0  0  0  0  0  0  0  0  0
  -44.0870  -65.1960   50.9480 H   0  0  0  0  0  0  0  0  0  0  0  0
  -44.1130  -66.8650   51.6550 H   0  0  0  0  0  0  0  0  0  0  0  0
  -45.0960  -64.5490   53.3170 H   0  0  0  0  0  0  0  0  0  0  0  0
  -46.0640  -66.1700   54.3430 H   0  0  0  0  0  0  0  0  0  0  0  0
  -46.5450  -63.7610   51.9330 H   0  0  0  0  0  0  0  0  0  0  0  0
  -47.3790  -65.3840   51.8170 H   0  0  0  0  0  0  0  0  0  0  0  0
  -45.4100  -65.7290   50.0890 H   0  0  0  0  0  0  0  0  0  0  0  0
  -45.8510  -62.8340   50.4330 H   0  0  0  0  0  0  0  0  0  0  0  0
  -44.3300  -63.7880   50.4380 H   0  0  0  0  0  0  0  0  0  0  0  0
  -44.6720  -62.5430   48.3640 H   0  0  0  0  0  0  0  0  0  0  0  0
  -44.3800  -64.3150   48.1730 H   0  0  0  0  0  0  0  0  0  0  0  0
  -47.5760  -62.9570   49.3830 H   0  0  0  0  0  0  0  0  0  0  0  0
  -48.4430  -63.9500   48.1340 H   0  0  0  0  0  0  0  0  0  0  0  0
  -47.2120  -65.9330   48.8360 H   0  0  0  0  0  0  0  0  0  0  0  0
  -48.1470  -65.2230   50.1750 H   0  0  0  0  0  0  0  0  0  0  0  0
  -44.7980  -63.1250   44.3250 H   0  0  0  0  0  0  0  0  0  0  0  0
  -44.4120  -64.6140   42.5040 H   0  0  0  0  0  0  0  0  0  0  0  0
  -45.6750  -66.7310   42.3520 H   0  0  0  0  0  0  0  0  0  0  0  0
  -47.2960  -67.2510   44.0770 H   0  0  0  0  0  0  0  0  0  0  0  0
  -47.7230  -65.7920   45.9260 H   0  0  0  0  0  0  0  0  0  0  0  0
  -40.5240  -70.1040   56.0230 H   0  0  0  0  0  0  0  0  0  0  0  0
  -38.6860  -71.2130   54.9010 H   0  0  0  0  0  0  0  0  0  0  0  0
  -38.0130  -70.4480   52.6730 H   0  0  0  0  0  0  0  0  0  0  0  0
  -39.2370  -68.5310   51.5900 H   0  0  0  0  0  0  0  0  0  0  0  0
  1  2  1  0  0  0  0
  2  3  2  0  0  0  0
  2  7  1  0  0  0  0
  3  4  1  0  0  0  0
  4 27  1  0  0  0  0
  4  5  2  0  0  0  0
  5 31  1  0  0  0  0
  6 32  1  0  0  0  0
  6  5  1  0  0  0  0
  7  6  2  0  0  0  0
  8  7  1  0  0  0  0
  9  8  1  0  0  0  0
  9 10  1  0  0  0  0
 10 35  1  1  0  0  0
 10 11  1  0  0  0  0
 11 36  1  0  0  0  0
 12 38  1  0  0  0  0
 12 37  1  0  0  0  0
 12 10  1  0  0  0  0
 13 12  1  0  0  0  0
 14 13  1  0  0  0  0
 14 40  1  0  0  0  0
 14 41  1  0  0  0  0
 15 14  1  0  0  0  0
 16 15  1  0  0  0  0
 16 17  1  0  0  0  0
 17 44  1  0  0  0  0
 17 18  1  0  0  0  0
 18 47  1  0  0  0  0
 18 13  1  0  0  0  0
 19 16  1  0  0  0  0
 20 19  2  0  0  0  0
 21 19  1  0  0  0  0
 22 21  2  0  0  0  0
 23 22  1  0  0  0  0
 24 23  2  0  0  0  0
 24 25  1  0  0  0  0
 25 26  2  0  0  0  0
 26 21  1  0  0  0  0
 26 52  1  0  0  0  0
 27 53  1  0  0  0  0
 28 54  1  0  0  0  0
 28 27  2  0  0  0  0
 29 28  1  0  0  0  0
 30 29  2  0  0  0  0
 30  3  1  0  0  0  0
 33  9  1  0  0  0  0
 34  9  1  0  0  0  0
 39 13  1  0  0  0  0
 42 15  1  0  0  0  0
 43 15  1  0  0  0  0
 45 17  1  0  0  0  0
 46 18  1  0  0  0  0
 48 22  1  0  0  0  0
 49 23  1  0  0  0  0
 50 24  1  0  0  0  0
 51 25  1  0  0  0  0
 55 29  1  0  0  0  0
 56 30  1  0  0  0  0
M  END
>  <Pose>
1

>  <Score>
-6.29

$$$$
