
 OpenBabel03202209423D

 43 46  0  0  0  0  0  0  0  0999 V2000
  -41.4330  -65.4270   50.5850 B   0  0  0  0  0  0  0  0  0  0  0  0
  -41.0820  -66.8030   51.8540 C   0  0  0  0  0  0  0  0  0  0  0  0
  -41.8380  -66.9840   52.9800 N   0  0  0  0  0  0  0  0  0  0  0  0
  -41.2760  -68.0390   53.6020 C   0  0  0  0  0  0  0  0  0  0  0  0
  -40.1890  -68.5140   52.8860 C   0  0  0  0  0  0  0  0  0  0  0  0
  -40.1010  -67.7160   51.8010 N   0  0  0  0  0  0  0  0  0  0  0  0
  -39.4370  -69.5640   53.2610 N   0  0  0  0  0  0  0  0  0  0  0  0
  -39.7860  -70.1740   54.4080 C   0  0  0  0  0  0  0  0  0  0  0  0
  -39.1020  -71.1750   54.8080 O   0  0  0  0  0  0  0  0  0  0  0  0
  -40.8350  -69.7460   55.1340 N   0  0  0  0  0  0  0  0  0  0  0  0
  -41.5990  -68.6830   54.7570 C   0  0  0  0  0  0  0  0  0  0  0  0
  -42.5700  -68.3000   55.4410 O   0  0  0  0  0  0  0  0  0  0  0  0
  -38.3020  -70.0520   52.5070 C   0  0  0  0  0  0  0  0  0  0  0  0
  -42.9890  -66.1820   53.3410 C   0  0  0  0  0  0  0  0  0  0  0  0
  -44.0260  -66.9280   54.1280 C   0  0  0  0  0  0  0  0  0  0  0  0
  -45.2660  -67.2780   53.3560 C   0  0  0  0  0  0  0  0  0  0  0  0
  -46.1890  -66.1510   53.3580 N   0  0  0  0  0  0  0  0  0  0  0  0
  -47.4320  -66.0850   53.8870 C   0  0  0  0  0  0  0  0  0  0  0  0
  -47.9730  -64.8380   53.6770 C   0  0  0  0  0  0  0  0  0  0  0  0
  -47.0340  -64.1440   53.0080 N   0  0  0  0  0  0  0  0  0  0  0  0
  -45.9620  -64.9420   52.8190 C   0  0  0  0  0  0  0  0  0  0  0  0
  -44.3360  -64.4820   51.9300 B   0  0  0  0  0  0  0  0  0  0  0  0
  -49.2020  -64.4780   54.0940 N   0  0  0  0  0  0  0  0  0  0  0  0
  -49.9180  -65.4220   54.7530 C   0  0  0  0  0  0  0  0  0  0  0  0
  -51.0760  -65.0860   55.1480 O   0  0  0  0  0  0  0  0  0  0  0  0
  -49.4240  -66.6570   54.9800 N   0  0  0  0  0  0  0  0  0  0  0  0
  -48.1910  -67.0070   54.5580 C   0  0  0  0  0  0  0  0  0  0  0  0
  -47.7030  -68.1460   54.7530 O   0  0  0  0  0  0  0  0  0  0  0  0
  -49.7360  -63.1410   53.8470 C   0  0  0  0  0  0  0  0  0  0  0  0
  -41.1180  -70.2070   56.0250 H   0  0  0  0  0  0  0  0  0  0  0  0
  -37.9590  -69.3080   51.7590 H   0  0  0  0  0  0  0  0  0  0  0  0
  -37.4370  -70.1610   53.2220 H   0  0  0  0  0  0  0  0  0  0  0  0
  -38.5170  -70.9990   51.9730 H   0  0  0  0  0  0  0  0  0  0  0  0
  -43.4110  -65.6930   52.4360 H   0  0  0  0  0  0  0  0  0  0  0  0
  -42.6060  -65.3740   54.0300 H   0  0  0  0  0  0  0  0  0  0  0  0
  -44.2720  -66.4130   55.0830 H   0  0  0  0  0  0  0  0  0  0  0  0
  -43.5700  -67.9140   54.4460 H   0  0  0  0  0  0  0  0  0  0  0  0
  -44.9830  -67.4150   52.2700 H   0  0  0  0  0  0  0  0  0  0  0  0
  -45.7540  -68.1730   53.7360 H   0  0  0  0  0  0  0  0  0  0  0  0
  -50.0180  -67.3400   55.4910 H   0  0  0  0  0  0  0  0  0  0  0  0
  -49.1560  -62.3710   54.3990 H   0  0  0  0  0  0  0  0  0  0  0  0
  -49.6980  -62.8810   52.7720 H   0  0  0  0  0  0  0  0  0  0  0  0
  -50.7630  -63.1280   54.2440 H   0  0  0  0  0  0  0  0  0  0  0  0
  1  2  1  0  0  0  0
  2  3  1  0  0  0  0
  3 14  1  0  0  0  0
  3  4  1  0  0  0  0
  4 11  1  0  0  0  0
  5  7  1  0  0  0  0
  5  4  2  0  0  0  0
  6  2  2  0  0  0  0
  6  5  1  0  0  0  0
  7  8  1  0  0  0  0
  8  9  2  0  0  0  0
  8 10  1  0  0  0  0
 10 30  1  0  0  0  0
 11 10  1  0  0  0  0
 11 12  2  0  0  0  0
 13 32  1  0  0  0  0
 13  7  1  0  0  0  0
 14 35  1  0  0  0  0
 14 15  1  0  0  0  0
 15 37  1  0  0  0  0
 15 36  1  0  0  0  0
 16 17  1  0  0  0  0
 16 39  1  0  0  0  0
 16 15  1  0  0  0  0
 17 18  1  0  0  0  0
 18 27  1  0  0  0  0
 19 18  2  0  0  0  0
 19 23  1  0  0  0  0
 20 19  1  0  0  0  0
 21 20  2  0  0  0  0
 21 17  1  0  0  0  0
 22 21  1  0  0  0  0
 23 24  1  0  0  0  0
 24 26  1  0  0  0  0
 24 25  2  0  0  0  0
 26 40  1  0  0  0  0
 27 28  2  0  0  0  0
 27 26  1  0  0  0  0
 29 23  1  0  0  0  0
 29 43  1  0  0  0  0
 29 41  1  0  0  0  0
 31 13  1  0  0  0  0
 33 13  1  0  0  0  0
 34 14  1  0  0  0  0
 38 16  1  0  0  0  0
 42 29  1  0  0  0  0
M  END
>  <Pose>
1

>  <Score>
-7.82

$$$$
