
 OpenBabel03202209423D

 40 43  0  0  0  0  0  0  0  0999 V2000
  -41.8130  -65.1620   50.6760 B   0  0  0  0  0  0  0  0  0  0  0  0
  -41.2830  -66.5730   51.8490 C   0  0  0  0  0  0  0  0  0  0  0  0
  -41.9250  -66.8490   53.0080 N   0  0  0  0  0  0  0  0  0  0  0  0
  -41.2720  -67.8980   53.5590 C   0  0  0  0  0  0  0  0  0  0  0  0
  -40.2130  -68.2840   52.7410 C   0  0  0  0  0  0  0  0  0  0  0  0
  -40.2620  -67.4300   51.6930 N   0  0  0  0  0  0  0  0  0  0  0  0
  -39.4170  -69.3140   53.0750 N   0  0  0  0  0  0  0  0  0  0  0  0
  -39.6270  -70.0000   54.2120 C   0  0  0  0  0  0  0  0  0  0  0  0
  -38.8780  -70.9760   54.5360 O   0  0  0  0  0  0  0  0  0  0  0  0
  -40.6360  -69.6740   55.0400 N   0  0  0  0  0  0  0  0  0  0  0  0
  -41.4430  -68.6340   54.7070 C   0  0  0  0  0  0  0  0  0  0  0  0
  -42.4050  -68.2980   55.4580 O   0  0  0  0  0  0  0  0  0  0  0  0
  -38.3150  -69.7200   52.2320 C   0  0  0  0  0  0  0  0  0  0  0  0
  -43.0670  -66.1540   53.4990 C   0  0  0  0  0  0  0  0  0  0  0  0
  -43.6130  -65.0630   52.6490 C   0  0  0  0  0  0  0  0  0  0  0  0
  -45.0160  -65.0100   52.4380 N   0  0  0  0  0  0  0  0  0  0  0  0
  -45.9800  -65.6050   53.1610 C   0  0  0  0  0  0  0  0  0  0  0  0
  -47.2070  -65.3030   52.6090 C   0  0  0  0  0  0  0  0  0  0  0  0
  -46.9250  -64.5170   51.5510 N   0  0  0  0  0  0  0  0  0  0  0  0
  -45.6180  -64.3220   51.4230 C   0  0  0  0  0  0  0  0  0  0  0  0
  -44.7110  -63.2800   50.0790 B   0  0  0  0  0  0  0  0  0  0  0  0
  -48.3250  -65.7780   53.1580 N   0  0  0  0  0  0  0  0  0  0  0  0
  -48.2720  -66.5500   54.2460 C   0  0  0  0  0  0  0  0  0  0  0  0
  -49.3240  -67.0200   54.7930 O   0  0  0  0  0  0  0  0  0  0  0  0
  -47.1150  -66.8890   54.8430 N   0  0  0  0  0  0  0  0  0  0  0  0
  -45.9940  -66.4100   54.2890 C   0  0  0  0  0  0  0  0  0  0  0  0
  -44.9130  -66.7170   54.8390 O   0  0  0  0  0  0  0  0  0  0  0  0
  -49.6170  -65.4700   52.5900 C   0  0  0  0  0  0  0  0  0  0  0  0
  -40.8170  -70.1920   55.9260 H   0  0  0  0  0  0  0  0  0  0  0  0
  -38.5080  -70.7640   51.8760 H   0  0  0  0  0  0  0  0  0  0  0  0
  -37.3940  -69.6410   52.8280 H   0  0  0  0  0  0  0  0  0  0  0  0
  -38.2320  -69.0140   51.3680 H   0  0  0  0  0  0  0  0  0  0  0  0
  -42.9210  -65.8310   54.5580 H   0  0  0  0  0  0  0  0  0  0  0  0
  -43.9110  -66.9110   53.5930 H   0  0  0  0  0  0  0  0  0  0  0  0
  -43.0270  -65.0490   51.6900 H   0  0  0  0  0  0  0  0  0  0  0  0
  -43.3240  -64.0950   53.1660 H   0  0  0  0  0  0  0  0  0  0  0  0
  -47.1090  -67.4990   55.7000 H   0  0  0  0  0  0  0  0  0  0  0  0
  -49.5190  -64.4990   52.0700 H   0  0  0  0  0  0  0  0  0  0  0  0
  -49.9960  -66.2320   51.9060 H   0  0  0  0  0  0  0  0  0  0  0  0
  -50.3860  -65.3090   53.3870 H   0  0  0  0  0  0  0  0  0  0  0  0
  1  2  1  0  0  0  0
  2  3  1  0  0  0  0
  3 14  1  0  0  0  0
  3  4  1  0  0  0  0
  4 11  1  0  0  0  0
  5  7  1  0  0  0  0
  5  4  2  0  0  0  0
  6  2  2  0  0  0  0
  6  5  1  0  0  0  0
  7  8  1  0  0  0  0
  8  9  2  0  0  0  0
  8 10  1  0  0  0  0
 10 29  1  0  0  0  0
 11 10  1  0  0  0  0
 11 12  2  0  0  0  0
 13 31  1  0  0  0  0
 13  7  1  0  0  0  0
 14 34  1  0  0  0  0
 14 33  1  0  0  0  0
 15 36  1  0  0  0  0
 15 14  1  0  0  0  0
 16 15  1  0  0  0  0
 16 17  1  0  0  0  0
 17 26  1  0  0  0  0
 18 22  1  0  0  0  0
 18 17  2  0  0  0  0
 19 18  1  0  0  0  0
 20 19  2  0  0  0  0
 20 16  1  0  0  0  0
 21 20  1  0  0  0  0
 22 23  1  0  0  0  0
 23 24  2  0  0  0  0
 23 25  1  0  0  0  0
 25 37  1  0  0  0  0
 26 27  2  0  0  0  0
 26 25  1  0  0  0  0
 28 22  1  0  0  0  0
 28 40  1  0  0  0  0
 30 13  1  0  0  0  0
 32 13  1  0  0  0  0
 35 15  1  0  0  0  0
 38 28  1  0  0  0  0
 39 28  1  0  0  0  0
M  END
>  <Pose>
1

>  <Score>
-7.92

$$$$
