
 OpenBabel03202209423D

 53 56  0  0  1  0  0  0  0  0999 V2000
  -40.7340  -68.0900   53.4860 B   0  0  0  0  0  0  0  0  0  0  0  0
  -42.4350  -67.3640   53.9040 C   0  0  0  0  0  0  0  0  0  0  0  0
  -43.3520  -67.8290   54.7710 N   0  0  0  0  0  0  0  0  0  0  0  0
  -44.4230  -67.0810   54.7910 N   0  0  0  0  0  0  0  0  0  0  0  0
  -44.2310  -66.0780   53.9130 C   0  0  0  0  0  0  0  0  0  0  0  0
  -44.9900  -65.0400   53.5230 N   0  0  0  0  0  0  0  0  0  0  0  0
  -44.5820  -64.1580   52.6060 C   0  0  0  0  0  0  0  0  0  0  0  0
  -43.3830  -64.3050   52.0550 N   0  0  0  0  0  0  0  0  0  0  0  0
  -42.5460  -65.3170   52.3820 C   0  0  0  0  0  0  0  0  0  0  0  0
  -42.9740  -66.2340   53.3360 C   0  0  0  0  0  0  0  0  0  0  0  0
  -41.2740  -65.4230   51.8080 N   0  0  0  0  0  0  0  0  0  0  0  0
  -40.2420  -64.4630   52.0790 C   0  0  0  0  0  0  0  0  0  0  0  0
  -40.1010  -63.6560   50.7850 C   0  0  0  0  0  0  0  0  0  0  0  0
  -40.6560  -64.3940   49.6450 N   0  0  0  0  0  0  0  0  0  0  0  0
  -40.2410  -65.7970   49.7230 C   0  0  0  0  0  0  0  0  0  0  0  0
  -40.9340  -66.4810   50.8880 C   0  0  0  0  0  0  0  0  0  0  0  0
  -40.0660  -63.8100   48.4510 C   0  0  2  0  0  0  0  0  0  0  0  0
  -41.2240  -63.5900   47.4410 C   0  0  0  0  0  0  0  0  0  0  0  0
  -39.0820  -64.7220   47.8420 C   0  0  0  0  0  0  0  0  0  0  0  0
  -39.6090  -65.5610   46.9990 O   0  0  0  0  0  0  0  0  0  0  0  0
  -37.6970  -64.7930   48.0590 N   0  0  0  0  0  0  0  0  0  0  0  0
  -36.9460  -65.8270   48.7040 C   0  0  0  0  0  0  0  0  0  0  0  0
  -35.9070  -65.3240   49.6850 C   0  0  0  0  0  0  0  0  0  0  0  0
  -35.2510  -64.0460   49.2900 C   0  0  0  0  0  0  0  0  0  0  0  0
  -36.2400  -63.0320   48.7560 C   0  0  0  0  0  0  0  0  0  0  0  0
  -36.8820  -63.6660   47.5500 C   0  0  0  0  0  0  0  0  0  0  0  0
  -45.6410  -67.2220   55.5760 C   0  0  0  0  0  0  0  0  0  0  0  0
  -45.2390  -63.3110   52.3070 H   0  0  0  0  0  0  0  0  0  0  0  0
  -39.2610  -65.0340   52.1070 H   0  0  0  0  0  0  0  0  0  0  0  0
  -40.3900  -63.8240   52.9440 H   0  0  0  0  0  0  0  0  0  0  0  0
  -40.7360  -62.7580   50.9060 H   0  0  0  0  0  0  0  0  0  0  0  0
  -39.0670  -63.3110   50.6090 H   0  0  0  0  0  0  0  0  0  0  0  0
  -40.5830  -66.2840   48.7980 H   0  0  0  0  0  0  0  0  0  0  0  0
  -39.1610  -65.8960   49.8620 H   0  0  0  0  0  0  0  0  0  0  0  0
  -41.7650  -67.0950   50.5570 H   0  0  0  0  0  0  0  0  0  0  0  0
  -40.1850  -67.1350   51.4270 H   0  0  0  0  0  0  0  0  0  0  0  0
  -39.5990  -62.8480   48.6710 H   0  0  0  0  0  0  0  0  0  0  0  0
  -42.0210  -64.3360   47.6230 H   0  0  0  0  0  0  0  0  0  0  0  0
  -40.8600  -63.7500   46.4130 H   0  0  0  0  0  0  0  0  0  0  0  0
  -41.6110  -62.5670   47.5280 H   0  0  0  0  0  0  0  0  0  0  0  0
  -36.3820  -66.3460   47.8610 H   0  0  0  0  0  0  0  0  0  0  0  0
  -37.5210  -66.5950   49.2060 H   0  0  0  0  0  0  0  0  0  0  0  0
  -35.1040  -66.1100   49.7130 H   0  0  0  0  0  0  0  0  0  0  0  0
  -36.3180  -65.2940   50.7020 H   0  0  0  0  0  0  0  0  0  0  0  0
  -34.4670  -64.2380   48.5380 H   0  0  0  0  0  0  0  0  0  0  0  0
  -34.7660  -63.6090   50.1740 H   0  0  0  0  0  0  0  0  0  0  0  0
  -36.9900  -62.8070   49.5540 H   0  0  0  0  0  0  0  0  0  0  0  0
  -35.6790  -62.1210   48.4920 H   0  0  0  0  0  0  0  0  0  0  0  0
  -37.4820  -62.9600   46.9680 H   0  0  0  0  0  0  0  0  0  0  0  0
  -36.0800  -64.0780   46.9100 H   0  0  0  0  0  0  0  0  0  0  0  0
  -46.5190  -67.4570   54.9210 H   0  0  0  0  0  0  0  0  0  0  0  0
  -45.8450  -66.2430   56.0410 H   0  0  0  0  0  0  0  0  0  0  0  0
  -45.5610  -68.0570   56.2890 H   0  0  0  0  0  0  0  0  0  0  0  0
  1  2  1  0  0  0  0
  2  3  2  0  0  0  0
  3  4  1  0  0  0  0
  4 27  1  0  0  0  0
  5  4  1  0  0  0  0
  6  5  1  0  0  0  0
  7  6  2  0  0  0  0
  8  9  2  0  0  0  0
  8  7  1  0  0  0  0
  9 10  1  0  0  0  0
 10  2  1  0  0  0  0
 10  5  2  0  0  0  0
 11 12  1  0  0  0  0
 11  9  1  0  0  0  0
 12 29  1  0  0  0  0
 12 30  1  0  0  0  0
 13 31  1  0  0  0  0
 13 12  1  0  0  0  0
 14 15  1  0  0  0  0
 14 13  1  0  0  0  0
 15 34  1  0  0  0  0
 15 16  1  0  0  0  0
 16 36  1  0  0  0  0
 16 11  1  0  0  0  0
 17 37  1  1  0  0  0
 17 14  1  0  0  0  0
 18 40  1  0  0  0  0
 18 38  1  0  0  0  0
 18 17  1  0  0  0  0
 19 21  1  0  0  0  0
 19 17  1  0  0  0  0
 20 19  2  0  0  0  0
 21 22  1  0  0  0  0
 22 42  1  0  0  0  0
 22 23  1  0  0  0  0
 23 43  1  0  0  0  0
 23 44  1  0  0  0  0
 24 23  1  0  0  0  0
 24 46  1  0  0  0  0
 25 24  1  0  0  0  0
 25 47  1  0  0  0  0
 26 21  1  0  0  0  0
 26 25  1  0  0  0  0
 27 52  1  0  0  0  0
 27 53  1  0  0  0  0
 28  7  1  0  0  0  0
 32 13  1  0  0  0  0
 33 15  1  0  0  0  0
 35 16  1  0  0  0  0
 39 18  1  0  0  0  0
 41 22  1  0  0  0  0
 45 24  1  0  0  0  0
 48 25  1  0  0  0  0
 49 26  1  0  0  0  0
 50 26  1  0  0  0  0
 51 27  1  0  0  0  0
M  END
>  <Pose>
1

>  <Score>
-5.47

$$$$
