
 OpenBabel03202209423D

 32 35  0  0  1  0  0  0  0  0999 V2000
  -39.2400  -63.0700   47.7530 B   0  0  0  0  0  0  0  0  0  0  0  0
  -39.6160  -64.7930   48.5050 C   0  0  0  0  0  0  0  0  0  0  0  0
  -39.9450  -65.0930   49.7660 N   0  0  0  0  0  0  0  0  0  0  0  0
  -40.1250  -66.4070   49.8800 C   0  0  0  0  0  0  0  0  0  0  0  0
  -39.9030  -66.9470   48.6530 N   0  0  0  0  0  0  0  0  0  0  0  0
  -39.5880  -65.9700   47.7850 C   0  0  0  0  0  0  0  0  0  0  0  0
  -40.5000  -67.0150   51.1910 C   0  0  0  0  0  0  0  0  0  0  0  0
  -41.2730  -66.0820   51.9730 N   0  0  2  0  0  0  0  0  0  0  0  0
  -41.2030  -64.6480   51.8190 C   0  0  0  0  0  0  0  0  0  0  0  0
  -40.1030  -64.2040   50.9000 C   0  0  0  0  0  0  0  0  0  0  0  0
  -42.1470  -66.6030   52.9470 C   0  0  2  0  0  0  0  0  0  0  0  0
  -43.3800  -66.1550   53.0110 C   0  0  0  0  0  0  0  0  0  0  0  0
  -44.3370  -66.6630   54.0070 C   0  0  0  0  0  0  0  0  0  0  0  0
  -45.5800  -66.2220   54.0830 C   0  0  0  0  0  0  0  0  0  0  0  0
  -43.8300  -67.6590   54.8820 N   0  0  0  0  0  0  0  0  0  0  0  0
  -42.4800  -68.1350   54.7970 C   0  0  0  0  0  0  0  0  0  0  0  0
  -41.6800  -67.5970   53.8370 N   0  0  0  0  0  0  0  0  0  0  0  0
  -40.4960  -68.2040   53.9730 N   0  0  0  0  0  0  0  0  0  0  0  0
  -40.5230  -69.0960   54.9740 C   0  0  0  0  0  0  0  0  0  0  0  0
  -41.7660  -69.0450   55.4810 N   0  0  0  0  0  0  0  0  0  0  0  0
  -39.3520  -66.0800   46.7180 H   0  0  0  0  0  0  0  0  0  0  0  0
  -41.0340  -67.9690   51.0120 H   0  0  0  0  0  0  0  0  0  0  0  0
  -39.5690  -67.2380   51.7780 H   0  0  0  0  0  0  0  0  0  0  0  0
  -40.9860  -64.2220   52.8350 H   0  0  0  0  0  0  0  0  0  0  0  0
  -42.1880  -64.2820   51.5210 H   0  0  0  0  0  0  0  0  0  0  0  0
  -40.3490  -63.1740   50.5650 H   0  0  0  0  0  0  0  0  0  0  0  0
  -39.1180  -64.1350   51.4050 H   0  0  0  0  0  0  0  0  0  0  0  0
  -43.7650  -65.3870   52.3340 H   0  0  0  0  0  0  0  0  0  0  0  0
  -45.9730  -65.4610   53.4190 H   0  0  0  0  0  0  0  0  0  0  0  0
  -46.2800  -66.5950   54.8160 H   0  0  0  0  0  0  0  0  0  0  0  0
  -44.4590  -68.0590   55.6110 H   0  0  0  0  0  0  0  0  0  0  0  0
  -39.6910  -69.7380   55.3070 H   0  0  0  0  0  0  0  0  0  0  0  0
  1  2  1  0  0  0  0
  2  3  1  0  0  0  0
  3  4  1  0  0  0  0
  3 10  1  0  0  0  0
  4  7  1  0  0  0  0
  5  4  2  0  0  0  0
  6  2  2  0  0  0  0
  6  5  1  0  0  0  0
  7 23  1  0  0  0  0
  8  7  1  1  0  0  0
  8 11  1  0  0  0  0
  9  8  1  0  0  0  0
  9 24  1  0  0  0  0
 10 27  1  0  0  0  0
 10  9  1  0  0  0  0
 11 12  1  1  0  0  0
 11 17  1  0  0  0  0
 12 13  2  0  0  0  0
 13 14  1  0  0  0  0
 13 15  1  0  0  0  0
 14 30  1  0  0  0  0
 15 31  1  0  0  0  0
 16 15  1  0  0  0  0
 16 20  2  0  0  0  0
 17 18  1  0  0  0  0
 17 16  1  0  0  0  0
 18 19  2  0  0  0  0
 19 32  1  0  0  0  0
 19 20  1  0  0  0  0
 21  6  1  0  0  0  0
 22  7  1  0  0  0  0
 25  9  1  0  0  0  0
 26 10  1  0  0  0  0
 28 12  1  0  0  0  0
 29 14  1  0  0  0  0
M  END
>  <Pose>
1

>  <Score>
-5.85

$$$$
