
 OpenBabel03202209423D

 49 52  0  0  0  0  0  0  0  0999 V2000
  -39.4490  -70.2990   54.6430 B   0  0  0  0  0  0  0  0  0  0  0  0
  -40.6410  -68.8700   54.1510 C   0  0  0  0  0  0  0  0  0  0  0  0
  -41.7160  -68.4600   54.7540 O   0  0  0  0  0  0  0  0  0  0  0  0
  -42.2780  -67.4700   54.1450 C   0  0  0  0  0  0  0  0  0  0  0  0
  -41.5120  -67.1690   53.0130 C   0  0  0  0  0  0  0  0  0  0  0  0
  -40.4740  -68.0770   53.0380 C   0  0  0  0  0  0  0  0  0  0  0  0
  -43.4800  -66.7800   54.5430 C   0  0  0  0  0  0  0  0  0  0  0  0
  -43.3960  -65.5680   54.9010 O   0  0  0  0  0  0  0  0  0  0  0  0
  -44.7650  -67.3870   54.5590 N   0  0  0  0  0  0  0  0  0  0  0  0
  -45.7720  -67.0800   53.5920 C   0  0  0  0  0  0  0  0  0  0  0  0
  -46.7060  -65.9930   54.0270 C   0  0  0  0  0  0  0  0  0  0  0  0
  -48.1110  -66.4270   54.0880 C   0  0  0  0  0  0  0  0  0  0  0  0
  -48.3960  -67.3170   54.9560 O   0  0  0  0  0  0  0  0  0  0  0  0
  -49.1220  -65.9050   53.2370 N   0  0  0  0  0  0  0  0  0  0  0  0
  -49.5920  -64.5610   53.4350 C   0  0  0  0  0  0  0  0  0  0  0  0
  -49.9960  -63.8630   52.1730 C   0  0  0  0  0  0  0  0  0  0  0  0
  -50.3880  -64.7990   51.0680 C   0  0  0  0  0  0  0  0  0  0  0  0
  -51.3490  -64.1880   50.2000 N   0  0  0  0  0  0  0  0  0  0  0  0
  -51.8090  -65.0260   49.1460 C   0  0  0  0  0  0  0  0  0  0  0  0
  -50.7510  -65.8110   48.4440 C   0  0  0  0  0  0  0  0  0  0  0  0
  -49.3900  -65.5730   48.9870 C   0  0  0  0  0  0  0  0  0  0  0  0
  -48.1800  -65.7500   48.4550 N   0  0  0  0  0  0  0  0  0  0  0  0
  -47.2460  -65.3890   49.3460 C   0  0  0  0  0  0  0  0  0  0  0  0
  -47.8540  -64.9740   50.4650 N   0  0  0  0  0  0  0  0  0  0  0  0
  -49.1710  -65.0850   50.2520 C   0  0  0  0  0  0  0  0  0  0  0  0
  -50.8660  -66.1220   51.6460 C   0  0  0  0  0  0  0  0  0  0  0  0
  -49.6250  -66.7940   52.1950 C   0  0  0  0  0  0  0  0  0  0  0  0
  -41.6930  -66.4080   52.2890 H   0  0  0  0  0  0  0  0  0  0  0  0
  -39.6510  -68.1710   52.3150 H   0  0  0  0  0  0  0  0  0  0  0  0
  -44.9660  -68.0770   55.3070 H   0  0  0  0  0  0  0  0  0  0  0  0
  -45.3480  -66.8560   52.5960 H   0  0  0  0  0  0  0  0  0  0  0  0
  -46.3710  -68.0260   53.4420 H   0  0  0  0  0  0  0  0  0  0  0  0
  -46.4090  -65.7070   55.0750 H   0  0  0  0  0  0  0  0  0  0  0  0
  -46.5430  -65.0860   53.4110 H   0  0  0  0  0  0  0  0  0  0  0  0
  -48.8080  -64.0000   53.9830 H   0  0  0  0  0  0  0  0  0  0  0  0
  -50.4780  -64.6110   54.1030 H   0  0  0  0  0  0  0  0  0  0  0  0
  -49.1310  -63.2660   51.8210 H   0  0  0  0  0  0  0  0  0  0  0  0
  -50.8230  -63.1370   52.3320 H   0  0  0  0  0  0  0  0  0  0  0  0
  -52.1670  -63.8960   50.7780 H   0  0  0  0  0  0  0  0  0  0  0  0
  -52.2810  -64.3530   48.3720 H   0  0  0  0  0  0  0  0  0  0  0  0
  -52.6410  -65.6940   49.4740 H   0  0  0  0  0  0  0  0  0  0  0  0
  -50.9780  -66.9080   48.5390 H   0  0  0  0  0  0  0  0  0  0  0  0
  -50.7090  -65.6180   47.3520 H   0  0  0  0  0  0  0  0  0  0  0  0
  -46.1600  -65.4040   49.2420 H   0  0  0  0  0  0  0  0  0  0  0  0
  -47.3820  -64.6220   51.3590 H   0  0  0  0  0  0  0  0  0  0  0  0
  -51.3870  -66.7400   50.8980 H   0  0  0  0  0  0  0  0  0  0  0  0
  -51.5300  -65.9420   52.5410 H   0  0  0  0  0  0  0  0  0  0  0  0
  -48.8290  -66.9080   51.4440 H   0  0  0  0  0  0  0  0  0  0  0  0
  -49.9590  -67.7590   52.6240 H   0  0  0  0  0  0  0  0  0  0  0  0
  2  1  1  0  0  0  0
  2  3  1  0  0  0  0
  4  7  1  0  0  0  0
  4  3  1  0  0  0  0
  5  6  1  0  0  0  0
  5  4  2  0  0  0  0
  6  2  2  0  0  0  0
  7  9  1  0  0  0  0
  7  8  2  0  0  0  0
  9 30  1  0  0  0  0
 10 11  1  0  0  0  0
 10  9  1  0  0  0  0
 11 12  1  0  0  0  0
 11 33  1  0  0  0  0
 12 13  2  0  0  0  0
 14 15  1  0  0  0  0
 14 12  1  0  0  0  0
 15 35  1  0  0  0  0
 15 36  1  0  0  0  0
 16 38  1  0  0  0  0
 16 15  1  0  0  0  0
 17 26  1  0  0  0  0
 17 16  1  0  0  0  0
 18 39  1  0  0  0  0
 18 17  1  0  0  0  0
 19 41  1  0  0  0  0
 19 18  1  0  0  0  0
 20 42  1  0  0  0  0
 20 21  1  0  0  0  0
 20 19  1  0  0  0  0
 21 25  2  0  0  0  0
 22 21  1  0  0  0  0
 22 23  2  0  0  0  0
 23 24  1  0  0  0  0
 24 45  1  0  0  0  0
 25 24  1  0  0  0  0
 25 17  1  0  0  0  0
 26 27  1  0  0  0  0
 26 47  1  0  0  0  0
 27 49  1  0  0  0  0
 27 14  1  0  0  0  0
 28  5  1  0  0  0  0
 29  6  1  0  0  0  0
 31 10  1  0  0  0  0
 32 10  1  0  0  0  0
 34 11  1  0  0  0  0
 37 16  1  0  0  0  0
 40 19  1  0  0  0  0
 43 20  1  0  0  0  0
 44 23  1  0  0  0  0
 46 26  1  0  0  0  0
 48 27  1  0  0  0  0
M  END
>  <Pose>
1

>  <Score>
-5.82

$$$$
