
 OpenBabel03202209423D

 49 52  0  0  1  0  0  0  0  0999 V2000
  -47.8880  -67.5030   54.4460 B   0  0  0  0  0  0  0  0  0  0  0  0
  -47.1470  -65.9620   53.5610 C   0  0  0  0  0  0  0  0  0  0  0  0
  -45.8850  -65.7860   53.2660 O   0  0  0  0  0  0  0  0  0  0  0  0
  -45.7070  -64.6130   52.6570 C   0  0  0  0  0  0  0  0  0  0  0  0
  -46.9480  -64.0210   52.5690 C   0  0  0  0  0  0  0  0  0  0  0  0
  -47.8730  -64.8600   53.1370 C   0  0  0  0  0  0  0  0  0  0  0  0
  -44.4270  -64.1020   52.1930 C   0  0  0  0  0  0  0  0  0  0  0  0
  -44.0130  -63.0000   52.6070 O   0  0  0  0  0  0  0  0  0  0  0  0
  -43.6470  -64.8380   51.2820 N   0  0  0  0  0  0  0  0  0  0  0  0
  -42.4080  -65.4970   51.6440 C   0  0  1  0  0  0  0  0  0  0  0  0
  -42.6320  -66.2970   52.8750 C   0  0  0  0  0  0  0  0  0  0  0  0
  -41.8170  -66.2310   50.5120 C   0  0  0  0  0  0  0  0  0  0  0  0
  -42.0300  -65.7340   49.3510 O   0  0  0  0  0  0  0  0  0  0  0  0
  -41.0520  -67.4010   50.5700 N   0  0  0  0  0  0  0  0  0  0  0  0
  -39.6040  -67.3940   50.5940 C   0  0  0  0  0  0  0  0  0  0  0  0
  -39.1620  -68.0120   51.8850 C   0  0  0  0  0  0  0  0  0  0  0  0
  -39.7950  -69.3480   52.1180 C   0  0  1  0  0  0  0  0  0  0  0  0
  -38.7400  -70.3290   52.3050 N   0  0  0  0  0  0  0  0  0  0  0  0
  -38.0340  -69.9970   53.5290 C   0  0  0  0  0  0  0  0  0  0  0  0
  -38.8780  -70.5680   54.6750 C   0  0  0  0  0  0  0  0  0  0  0  0
  -40.2180  -69.9480   54.5340 C   0  0  0  0  0  0  0  0  0  0  0  0
  -41.2030  -69.8210   55.4430 N   0  0  0  0  0  0  0  0  0  0  0  0
  -42.2220  -69.1880   54.8410 C   0  0  0  0  0  0  0  0  0  0  0  0
  -41.8620  -68.9310   53.5700 N   0  0  0  0  0  0  0  0  0  0  0  0
  -40.6200  -69.3910   53.3450 C   0  0  0  0  0  0  0  0  0  0  0  0
  -40.6200  -69.7470   50.8950 C   0  0  0  0  0  0  0  0  0  0  0  0
  -41.6630  -68.7180   50.6040 C   0  0  0  0  0  0  0  0  0  0  0  0
  -47.1260  -63.0620   52.1240 H   0  0  0  0  0  0  0  0  0  0  0  0
  -48.9480  -64.7100   53.2390 H   0  0  0  0  0  0  0  0  0  0  0  0
  -43.9680  -64.9190   50.2960 H   0  0  0  0  0  0  0  0  0  0  0  0
  -41.6780  -64.6780   51.9120 H   0  0  0  0  0  0  0  0  0  0  0  0
  -43.6870  -66.1730   53.1970 H   0  0  0  0  0  0  0  0  0  0  0  0
  -42.0340  -65.9860   53.7570 H   0  0  0  0  0  0  0  0  0  0  0  0
  -42.5230  -67.3930   52.7020 H   0  0  0  0  0  0  0  0  0  0  0  0
  -39.1740  -66.4090   50.3990 H   0  0  0  0  0  0  0  0  0  0  0  0
  -39.2210  -68.0410   49.7490 H   0  0  0  0  0  0  0  0  0  0  0  0
  -38.0420  -68.1360   51.8100 H   0  0  0  0  0  0  0  0  0  0  0  0
  -39.3370  -67.3000   52.7170 H   0  0  0  0  0  0  0  0  0  0  0  0
  -38.0220  -70.2700   51.5300 H   0  0  0  0  0  0  0  0  0  0  0  0
  -37.0040  -70.3580   53.5520 H   0  0  0  0  0  0  0  0  0  0  0  0
  -38.0360  -68.8860   53.7060 H   0  0  0  0  0  0  0  0  0  0  0  0
  -39.0080  -71.6600   54.4670 H   0  0  0  0  0  0  0  0  0  0  0  0
  -38.4140  -70.3780   55.6470 H   0  0  0  0  0  0  0  0  0  0  0  0
  -41.2260  -70.1350   56.4460 H   0  0  0  0  0  0  0  0  0  0  0  0
  -43.1680  -68.9220   55.2720 H   0  0  0  0  0  0  0  0  0  0  0  0
  -41.1010  -70.7190   51.1540 H   0  0  0  0  0  0  0  0  0  0  0  0
  -39.9160  -69.9200   50.0740 H   0  0  0  0  0  0  0  0  0  0  0  0
  -42.0130  -68.9030   49.5450 H   0  0  0  0  0  0  0  0  0  0  0  0
  -42.5360  -68.7640   51.2630 H   0  0  0  0  0  0  0  0  0  0  0  0
  2  1  1  0  0  0  0
  3  2  1  0  0  0  0
  4  3  1  0  0  0  0
  5  4  2  0  0  0  0
  5  6  1  0  0  0  0
  6 29  1  0  0  0  0
  6  2  2  0  0  0  0
  7  8  2  0  0  0  0
  7  4  1  0  0  0  0
  9 10  1  0  0  0  0
  9  7  1  0  0  0  0
 10 31  1  1  0  0  0
 10 11  1  0  0  0  0
 11 32  1  0  0  0  0
 11 33  1  0  0  0  0
 12 14  1  0  0  0  0
 12 10  1  0  0  0  0
 13 12  2  0  0  0  0
 14 15  1  0  0  0  0
 14 27  1  0  0  0  0
 15 16  1  0  0  0  0
 16 17  1  0  0  0  0
 16 38  1  0  0  0  0
 17 18  1  0  0  0  0
 17 25  1  1  0  0  0
 18 19  1  0  0  0  0
 19 40  1  0  0  0  0
 19 41  1  0  0  0  0
 19 20  1  0  0  0  0
 20 43  1  0  0  0  0
 21 20  1  0  0  0  0
 21 22  1  0  0  0  0
 22 44  1  0  0  0  0
 23 45  1  0  0  0  0
 23 22  1  0  0  0  0
 24 23  2  0  0  0  0
 25 24  1  0  0  0  0
 25 21  2  0  0  0  0
 26 46  1  0  0  0  0
 26 17  1  0  0  0  0
 27 26  1  0  0  0  0
 27 49  1  0  0  0  0
 28  5  1  0  0  0  0
 30  9  1  0  0  0  0
 34 11  1  0  0  0  0
 35 15  1  0  0  0  0
 36 15  1  0  0  0  0
 37 16  1  0  0  0  0
 39 18  1  0  0  0  0
 42 20  1  0  0  0  0
 47 26  1  0  0  0  0
 48 27  1  0  0  0  0
M  END
>  <Pose>
1

>  <Score>
-5.90

$$$$
