
 OpenBabel03202209423D

 43 46  0  0  0  0  0  0  0  0999 V2000
  -39.3510  -70.3810   54.4510 B   0  0  0  0  0  0  0  0  0  0  0  0
  -39.6450  -69.1480   53.0570 C   0  0  0  0  0  0  0  0  0  0  0  0
  -40.5140  -68.0630   53.2090 C   0  0  0  0  0  0  0  0  0  0  0  0
  -40.6940  -67.1940   52.1670 C   0  0  0  0  0  0  0  0  0  0  0  0
  -39.9820  -67.4570   50.9930 C   0  0  0  0  0  0  0  0  0  0  0  0
  -39.1880  -68.4760   50.9000 O   0  0  0  0  0  0  0  0  0  0  0  0
  -38.9950  -69.3110   51.8580 C   0  0  0  0  0  0  0  0  0  0  0  0
  -38.2030  -70.2720   51.6710 O   0  0  0  0  0  0  0  0  0  0  0  0
  -41.5730  -66.0420   52.2240 C   0  0  0  0  0  0  0  0  0  0  0  0
  -41.0920  -65.0170   51.5460 O   0  0  0  0  0  0  0  0  0  0  0  0
  -42.7950  -65.8280   52.8440 N   0  0  0  0  0  0  0  0  0  0  0  0
  -43.6640  -64.7270   52.3560 C   0  0  0  0  0  0  0  0  0  0  0  0
  -45.0120  -65.3000   51.9900 C   0  0  0  0  0  0  0  0  0  0  0  0
  -45.5710  -65.9490   53.1090 N   0  0  0  0  0  0  0  0  0  0  0  0
  -44.7130  -65.9070   54.2430 C   0  0  0  0  0  0  0  0  0  0  0  0
  -43.3430  -66.5540   53.9250 C   0  0  0  0  0  0  0  0  0  0  0  0
  -46.9200  -65.6060   53.4310 C   0  0  0  0  0  0  0  0  0  0  0  0
  -47.8020  -66.7370   53.7700 C   0  0  0  0  0  0  0  0  0  0  0  0
  -48.2030  -67.6960   52.8990 C   0  0  0  0  0  0  0  0  0  0  0  0
  -49.0310  -68.7120   53.3090 C   0  0  0  0  0  0  0  0  0  0  0  0
  -49.4540  -68.7550   54.6100 C   0  0  0  0  0  0  0  0  0  0  0  0
  -49.0600  -67.7940   55.5130 C   0  0  0  0  0  0  0  0  0  0  0  0
  -48.2410  -66.8020   55.0800 C   0  0  0  0  0  0  0  0  0  0  0  0
  -50.2730  -69.8560   54.7940 O   0  0  0  0  0  0  0  0  0  0  0  0
  -50.6500  -70.2900   53.4940 C   0  0  0  0  0  0  0  0  0  0  0  0
  -49.6040  -69.8190   52.6650 O   0  0  0  0  0  0  0  0  0  0  0  0
  -40.9950  -67.9770   54.1550 H   0  0  0  0  0  0  0  0  0  0  0  0
  -40.0830  -66.7910   50.1070 H   0  0  0  0  0  0  0  0  0  0  0  0
  -43.1720  -64.2900   51.4550 H   0  0  0  0  0  0  0  0  0  0  0  0
  -43.7690  -63.9680   53.1280 H   0  0  0  0  0  0  0  0  0  0  0  0
  -45.6690  -64.4430   51.6410 H   0  0  0  0  0  0  0  0  0  0  0  0
  -44.9400  -65.9370   51.0690 H   0  0  0  0  0  0  0  0  0  0  0  0
  -44.5040  -64.9390   54.6850 H   0  0  0  0  0  0  0  0  0  0  0  0
  -45.1980  -66.5520   55.0280 H   0  0  0  0  0  0  0  0  0  0  0  0
  -43.5320  -67.6250   53.7660 H   0  0  0  0  0  0  0  0  0  0  0  0
  -42.7060  -66.4580   54.8480 H   0  0  0  0  0  0  0  0  0  0  0  0
  -46.8760  -64.9570   54.3560 H   0  0  0  0  0  0  0  0  0  0  0  0
  -47.4160  -64.9790   52.6710 H   0  0  0  0  0  0  0  0  0  0  0  0
  -47.8810  -67.6840   51.8750 H   0  0  0  0  0  0  0  0  0  0  0  0
  -49.3990  -67.8370   56.5350 H   0  0  0  0  0  0  0  0  0  0  0  0
  -47.9380  -66.0510   55.8040 H   0  0  0  0  0  0  0  0  0  0  0  0
  -51.6340  -69.9360   53.1920 H   0  0  0  0  0  0  0  0  0  0  0  0
  -50.6350  -71.3990   53.4170 H   0  0  0  0  0  0  0  0  0  0  0  0
  2  3  2  0  0  0  0
  2  1  1  0  0  0  0
  3 27  1  0  0  0  0
  4  9  1  0  0  0  0
  4  3  1  0  0  0  0
  5  4  2  0  0  0  0
  6  5  1  0  0  0  0
  6  7  1  0  0  0  0
  7  2  1  0  0  0  0
  8  7  2  0  0  0  0
  9 11  1  0  0  0  0
 10  9  2  0  0  0  0
 11 16  1  0  0  0  0
 12 11  1  0  0  0  0
 12 30  1  0  0  0  0
 13 12  1  0  0  0  0
 13 14  1  0  0  0  0
 14 17  1  0  0  0  0
 14 15  1  0  0  0  0
 15 33  1  0  0  0  0
 15 34  1  0  0  0  0
 16 15  1  0  0  0  0
 16 36  1  0  0  0  0
 17 18  1  0  0  0  0
 17 37  1  0  0  0  0
 18 23  1  0  0  0  0
 19 20  1  0  0  0  0
 19 18  2  0  0  0  0
 20 21  2  0  0  0  0
 21 24  1  0  0  0  0
 21 22  1  0  0  0  0
 22 40  1  0  0  0  0
 23 22  2  0  0  0  0
 23 41  1  0  0  0  0
 25 24  1  0  0  0  0
 26 20  1  0  0  0  0
 26 25  1  0  0  0  0
 28  5  1  0  0  0  0
 29 12  1  0  0  0  0
 31 13  1  0  0  0  0
 32 13  1  0  0  0  0
 35 16  1  0  0  0  0
 38 17  1  0  0  0  0
 39 19  1  0  0  0  0
 42 25  1  0  0  0  0
 43 25  1  0  0  0  0
M  END
>  <Pose>
1

>  <Score>
-5.54

$$$$
