
 OpenBabel03202209423D

 63 66  0  0  1  0  0  0  0  0999 V2000
  -47.2810  -65.4540   51.8800 B   0  0  0  0  0  0  0  0  0  0  0  0
  -45.9060  -66.2690   52.9450 C   0  0  0  0  0  0  0  0  0  0  0  0
  -44.5830  -65.9640   52.7230 C   0  0  0  0  0  0  0  0  0  0  0  0
  -43.6200  -66.5200   53.4510 N   0  0  0  0  0  0  0  0  0  0  0  0
  -43.9160  -67.3880   54.4150 C   0  0  0  0  0  0  0  0  0  0  0  0
  -43.0220  -67.9420   55.1350 O   0  0  0  0  0  0  0  0  0  0  0  0
  -45.2010  -67.6990   54.6460 N   0  0  0  0  0  0  0  0  0  0  0  0
  -46.2190  -67.1690   53.9430 C   0  0  0  0  0  0  0  0  0  0  0  0
  -47.4210  -67.4830   54.1850 O   0  0  0  0  0  0  0  0  0  0  0  0
  -42.2370  -66.1710   53.1960 C   0  0  1  0  0  0  0  0  0  0  0  0
  -41.5870  -66.9640   52.1340 C   0  0  1  0  0  0  0  0  0  0  0  0
  -40.4600  -66.2250   51.4020 C   0  0  0  0  0  0  0  0  0  0  0  0
  -40.9540  -64.9040   50.8650 C   0  0  2  0  0  0  0  0  0  0  0  0
  -42.0760  -64.4620   51.5400 O   0  0  0  0  0  0  0  0  0  0  0  0
  -42.0920  -64.7080   52.8790 C   0  0  0  0  0  0  0  0  0  0  0  0
  -41.2280  -65.0900   49.3840 C   0  0  0  0  0  0  0  0  0  0  0  0
  -40.0450  -64.6440   48.5680 C   0  0  0  0  0  0  0  0  0  0  0  0
  -38.8390  -65.0600   49.2380 N   0  0  0  0  0  0  0  0  0  0  0  0
  -38.5450  -64.3820   50.4920 C   0  0  0  0  0  0  0  0  0  0  0  0
  -39.8570  -63.8840   51.0550 C   0  0  0  0  0  0  0  0  0  0  0  0
  -38.0080  -66.0390   48.6880 C   0  0  0  0  0  0  0  0  0  0  0  0
  -37.5640  -66.9130   49.5180 O   0  0  0  0  0  0  0  0  0  0  0  0
  -37.5670  -66.2120   47.3080 C   0  0  1  0  0  0  0  0  0  0  0  0
  -37.5230  -64.9400   46.5840 N   0  0  0  0  0  0  0  0  0  0  0  0
  -36.1970  -66.8300   47.1400 C   0  0  0  0  0  0  0  0  0  0  0  0
  -35.2400  -65.9230   47.8780 C   0  0  0  0  0  0  0  0  0  0  0  0
  -34.8470  -66.2270   49.1540 C   0  0  0  0  0  0  0  0  0  0  0  0
  -33.9640  -65.3640   49.7970 C   0  0  0  0  0  0  0  0  0  0  0  0
  -33.4850  -64.2290   49.1850 C   0  0  0  0  0  0  0  0  0  0  0  0
  -33.9050  -63.9570   47.8980 C   0  0  0  0  0  0  0  0  0  0  0  0
  -34.7800  -64.7930   47.2350 C   0  0  0  0  0  0  0  0  0  0  0  0
  -32.6100  -63.4080   49.8720 O   0  0  0  0  0  0  0  0  0  0  0  0
  -40.9190  -68.0410   52.7710 O   0  0  0  0  0  0  0  0  0  0  0  0
  -42.5080  -67.5910   51.1390 C   0  0  0  0  0  0  0  0  0  0  0  0
  -44.3890  -65.2470   51.9210 H   0  0  0  0  0  0  0  0  0  0  0  0
  -45.4380  -68.3940   55.4170 H   0  0  0  0  0  0  0  0  0  0  0  0
  -41.7140  -66.3330   54.1930 H   0  0  0  0  0  0  0  0  0  0  0  0
  -39.6110  -66.0430   52.0710 H   0  0  0  0  0  0  0  0  0  0  0  0
  -40.1240  -66.8470   50.5680 H   0  0  0  0  0  0  0  0  0  0  0  0
  -42.8910  -64.0970   53.3620 H   0  0  0  0  0  0  0  0  0  0  0  0
  -41.1050  -64.3650   53.3100 H   0  0  0  0  0  0  0  0  0  0  0  0
  -41.4580  -66.1360   49.1350 H   0  0  0  0  0  0  0  0  0  0  0  0
  -42.0830  -64.4620   49.0480 H   0  0  0  0  0  0  0  0  0  0  0  0
  -40.1290  -64.9920   47.5180 H   0  0  0  0  0  0  0  0  0  0  0  0
  -40.1040  -63.5270   48.4890 H   0  0  0  0  0  0  0  0  0  0  0  0
  -38.0640  -65.0100   51.2380 H   0  0  0  0  0  0  0  0  0  0  0  0
  -37.9030  -63.5050   50.3030 H   0  0  0  0  0  0  0  0  0  0  0  0
  -40.1490  -62.9030   50.6220 H   0  0  0  0  0  0  0  0  0  0  0  0
  -39.6720  -63.6920   52.1260 H   0  0  0  0  0  0  0  0  0  0  0  0
  -38.2910  -66.8620   46.7770 H   0  0  0  0  0  0  0  0  0  0  0  0
  -38.4260  -64.4270   46.6720 H   0  0  0  0  0  0  0  0  0  0  0  0
  -37.4010  -65.1460   45.5620 H   0  0  0  0  0  0  0  0  0  0  0  0
  -36.1040  -67.8180   47.5870 H   0  0  0  0  0  0  0  0  0  0  0  0
  -35.8710  -66.8830   46.1030 H   0  0  0  0  0  0  0  0  0  0  0  0
  -35.2290  -67.1170   49.6180 H   0  0  0  0  0  0  0  0  0  0  0  0
  -33.6530  -65.6010   50.8020 H   0  0  0  0  0  0  0  0  0  0  0  0
  -33.5420  -63.0780   47.4120 H   0  0  0  0  0  0  0  0  0  0  0  0
  -35.1140  -64.5890   46.2260 H   0  0  0  0  0  0  0  0  0  0  0  0
  -32.2070  -63.6370   50.7800 H   0  0  0  0  0  0  0  0  0  0  0  0
  -40.1720  -67.7260   53.3300 H   0  0  0  0  0  0  0  0  0  0  0  0
  -43.1650  -66.9050   50.6000 H   0  0  0  0  0  0  0  0  0  0  0  0
  -41.8960  -68.1320   50.3910 H   0  0  0  0  0  0  0  0  0  0  0  0
  -43.0910  -68.4080   51.6620 H   0  0  0  0  0  0  0  0  0  0  0  0
  1  2  1  0  0  0  0
  2  8  1  0  0  0  0
  3  2  2  0  0  0  0
  3  4  1  0  0  0  0
  4  5  1  0  0  0  0
  5  7  1  0  0  0  0
  5  6  2  0  0  0  0
  7 36  1  0  0  0  0
  8  9  2  0  0  0  0
  8  7  1  0  0  0  0
 10  4  1  0  0  0  0
 10 37  1  1  0  0  0
 11 33  1  1  0  0  0
 11 10  1  0  0  0  0
 12 38  1  0  0  0  0
 12 11  1  0  0  0  0
 13 20  1  0  0  0  0
 13 12  1  0  0  0  0
 13 14  1  1  0  0  0
 14 15  1  0  0  0  0
 15 10  1  0  0  0  0
 15 41  1  0  0  0  0
 15 40  1  0  0  0  0
 16 13  1  0  0  0  0
 17 18  1  0  0  0  0
 17 16  1  0  0  0  0
 18 19  1  0  0  0  0
 19 20  1  0  0  0  0
 19 46  1  0  0  0  0
 20 49  1  0  0  0  0
 21 18  1  0  0  0  0
 21 22  2  0  0  0  0
 23 50  1  6  0  0  0
 23 21  1  0  0  0  0
 24 51  1  0  0  0  0
 24 23  1  0  0  0  0
 25 23  1  0  0  0  0
 25 53  1  0  0  0  0
 25 26  1  0  0  0  0
 26 27  1  0  0  0  0
 27 55  1  0  0  0  0
 27 28  2  0  0  0  0
 28 56  1  0  0  0  0
 29 28  1  0  0  0  0
 29 32  1  0  0  0  0
 30 29  2  0  0  0  0
 31 26  2  0  0  0  0
 31 30  1  0  0  0  0
 32 59  1  0  0  0  0
 33 60  1  0  0  0  0
 34 63  1  0  0  0  0
 34 11  1  0  0  0  0
 35  3  1  0  0  0  0
 39 12  1  0  0  0  0
 42 16  1  0  0  0  0
 43 16  1  0  0  0  0
 44 17  1  0  0  0  0
 45 17  1  0  0  0  0
 47 19  1  0  0  0  0
 48 20  1  0  0  0  0
 52 24  1  0  0  0  0
 54 25  1  0  0  0  0
 57 30  1  0  0  0  0
 58 31  1  0  0  0  0
 61 34  1  0  0  0  0
 62 34  1  0  0  0  0
M  END
>  <Pose>
1

>  <Score>
-6.27

$$$$
