
 OpenBabel03202209423D

 64 67  0  0  1  0  0  0  0  0999 V2000
  -38.1990  -69.2290   51.4510 B   0  0  0  0  0  0  0  0  0  0  0  0
  -39.5240  -69.0000   52.7840 C   0  0  0  0  0  0  0  0  0  0  0  0
  -40.5470  -68.0780   52.5600 C   0  0  0  0  0  0  0  0  0  0  0  0
  -41.5160  -67.8620   53.4530 N   0  0  0  0  0  0  0  0  0  0  0  0
  -41.4530  -68.5960   54.6040 C   0  0  0  0  0  0  0  0  0  0  0  0
  -42.3460  -68.4290   55.4790 O   0  0  0  0  0  0  0  0  0  0  0  0
  -40.4810  -69.4910   54.8480 N   0  0  0  0  0  0  0  0  0  0  0  0
  -39.4980  -69.7190   53.9580 C   0  0  0  0  0  0  0  0  0  0  0  0
  -38.5760  -70.5680   54.1880 O   0  0  0  0  0  0  0  0  0  0  0  0
  -42.5790  -66.9530   53.3050 C   0  0  1  0  0  0  0  0  0  0  0  0
  -43.5770  -67.0050   54.4740 C   0  0  1  0  0  0  0  0  0  0  0  0
  -44.8590  -66.3940   53.8910 C   0  0  0  0  0  0  0  0  0  0  0  0
  -44.5720  -65.0580   53.2630 C   0  0  2  0  0  0  0  0  0  0  0  0
  -43.2820  -64.6880   53.5570 O   0  0  0  0  0  0  0  0  0  0  0  0
  -42.2990  -65.5300   53.0430 C   0  0  0  0  0  0  0  0  0  0  0  0
  -45.4850  -64.0580   53.9590 C   0  0  0  0  0  0  0  0  0  0  0  0
  -46.8400  -64.0590   53.2960 C   0  0  0  0  0  0  0  0  0  0  0  0
  -47.0560  -65.3250   52.5760 N   0  0  0  0  0  0  0  0  0  0  0  0
  -46.2220  -65.5250   51.4280 C   0  0  0  0  0  0  0  0  0  0  0  0
  -44.8460  -64.9820   51.8030 C   0  0  0  0  0  0  0  0  0  0  0  0
  -47.9790  -66.2790   53.0000 C   0  0  0  0  0  0  0  0  0  0  0  0
  -47.6930  -67.5390   52.9700 O   0  0  0  0  0  0  0  0  0  0  0  0
  -49.3040  -65.9430   53.4980 C   0  0  1  0  0  0  0  0  0  0  0  0
  -49.3090  -65.8520   54.9380 N   0  0  0  0  0  0  0  0  0  0  0  0
  -49.6960  -66.8080   55.8690 C   0  0  0  0  0  0  0  0  0  0  0  0
  -50.2730  -66.5770   56.9510 O   0  0  0  0  0  0  0  0  0  0  0  0
  -49.4290  -68.2820   55.6200 C   0  0  0  0  0  0  0  0  0  0  0  0
  -49.8130  -64.5890   52.9100 C   0  0  0  0  0  0  0  0  0  0  0  0
  -50.0440  -63.6240   53.9990 C   0  0  0  0  0  0  0  0  0  0  0  0
  -49.2410  -62.6940   54.4930 N   0  0  0  0  0  0  0  0  0  0  0  0
  -49.8380  -62.0060   55.5040 C   0  0  0  0  0  0  0  0  0  0  0  0
  -51.0690  -62.5350   55.6420 N   0  0  0  0  0  0  0  0  0  0  0  0
  -51.2130  -63.5240   54.7340 C   0  0  0  0  0  0  0  0  0  0  0  0
  -43.8450  -68.2960   54.8710 O   0  0  0  0  0  0  0  0  0  0  0  0
  -43.0730  -66.2350   55.6540 C   0  0  0  0  0  0  0  0  0  0  0  0
  -40.5860  -67.4990   51.6460 H   0  0  0  0  0  0  0  0  0  0  0  0
  -40.5060  -70.0170   55.7620 H   0  0  0  0  0  0  0  0  0  0  0  0
  -43.2000  -67.3150   52.4250 H   0  0  0  0  0  0  0  0  0  0  0  0
  -45.6030  -66.3520   54.7110 H   0  0  0  0  0  0  0  0  0  0  0  0
  -45.2150  -67.1320   53.1500 H   0  0  0  0  0  0  0  0  0  0  0  0
  -42.2700  -65.3230   51.9320 H   0  0  0  0  0  0  0  0  0  0  0  0
  -41.3420  -65.1230   53.4110 H   0  0  0  0  0  0  0  0  0  0  0  0
  -45.6280  -64.2710   55.0210 H   0  0  0  0  0  0  0  0  0  0  0  0
  -44.9890  -63.0670   53.8850 H   0  0  0  0  0  0  0  0  0  0  0  0
  -46.9460  -63.2660   52.5240 H   0  0  0  0  0  0  0  0  0  0  0  0
  -47.6540  -63.9570   54.0260 H   0  0  0  0  0  0  0  0  0  0  0  0
  -46.1290  -66.5890   51.1030 H   0  0  0  0  0  0  0  0  0  0  0  0
  -46.6430  -64.9630   50.5740 H   0  0  0  0  0  0  0  0  0  0  0  0
  -44.1350  -65.5000   51.1540 H   0  0  0  0  0  0  0  0  0  0  0  0
  -44.8490  -63.9130   51.5080 H   0  0  0  0  0  0  0  0  0  0  0  0
  -50.1410  -66.6190   53.2010 H   0  0  0  0  0  0  0  0  0  0  0  0
  -48.9700  -64.9150   55.3190 H   0  0  0  0  0  0  0  0  0  0  0  0
  -49.2380  -68.8100   56.5550 H   0  0  0  0  0  0  0  0  0  0  0  0
  -50.3160  -68.7290   55.1230 H   0  0  0  0  0  0  0  0  0  0  0  0
  -48.5750  -68.3840   54.9330 H   0  0  0  0  0  0  0  0  0  0  0  0
  -49.1010  -64.1840   52.2000 H   0  0  0  0  0  0  0  0  0  0  0  0
  -50.7740  -64.8010   52.3710 H   0  0  0  0  0  0  0  0  0  0  0  0
  -49.3910  -61.1930   56.0730 H   0  0  0  0  0  0  0  0  0  0  0  0
  -51.7620  -62.1990   56.3540 H   0  0  0  0  0  0  0  0  0  0  0  0
  -52.1140  -64.1120   54.6360 H   0  0  0  0  0  0  0  0  0  0  0  0
  -44.5920  -68.2870   55.5220 H   0  0  0  0  0  0  0  0  0  0  0  0
  -42.8920  -66.8940   56.5480 H   0  0  0  0  0  0  0  0  0  0  0  0
  -42.0960  -65.7270   55.4630 H   0  0  0  0  0  0  0  0  0  0  0  0
  -43.7760  -65.4630   55.9710 H   0  0  0  0  0  0  0  0  0  0  0  0
  1  2  1  0  0  0  0
  2  8  1  0  0  0  0
  3  2  2  0  0  0  0
  3  4  1  0  0  0  0
  4  5  1  0  0  0  0
  5  7  1  0  0  0  0
  5  6  2  0  0  0  0
  7 37  1  0  0  0  0
  8  9  2  0  0  0  0
  8  7  1  0  0  0  0
 10 38  1  6  0  0  0
 10  4  1  0  0  0  0
 10 11  1  0  0  0  0
 11 34  1  1  0  0  0
 11 35  1  0  0  0  0
 12 11  1  0  0  0  0
 12 39  1  0  0  0  0
 13 14  1  1  0  0  0
 13 12  1  0  0  0  0
 13 16  1  0  0  0  0
 15 10  1  0  0  0  0
 15 42  1  0  0  0  0
 15 14  1  0  0  0  0
 16 43  1  0  0  0  0
 17 16  1  0  0  0  0
 17 46  1  0  0  0  0
 18 21  1  0  0  0  0
 18 17  1  0  0  0  0
 19 20  1  0  0  0  0
 19 18  1  0  0  0  0
 20 13  1  0  0  0  0
 21 23  1  0  0  0  0
 22 21  2  0  0  0  0
 23 51  1  6  0  0  0
 23 24  1  0  0  0  0
 24 52  1  0  0  0  0
 24 25  1  0  0  0  0
 25 26  2  0  0  0  0
 27 25  1  0  0  0  0
 27 53  1  0  0  0  0
 28 23  1  0  0  0  0
 28 29  1  0  0  0  0
 29 30  1  0  0  0  0
 29 33  2  0  0  0  0
 30 31  2  0  0  0  0
 31 32  1  0  0  0  0
 31 58  1  0  0  0  0
 32 59  1  0  0  0  0
 33 32  1  0  0  0  0
 34 61  1  0  0  0  0
 35 64  1  0  0  0  0
 35 62  1  0  0  0  0
 36  3  1  0  0  0  0
 40 12  1  0  0  0  0
 41 15  1  0  0  0  0
 44 16  1  0  0  0  0
 45 17  1  0  0  0  0
 47 19  1  0  0  0  0
 48 19  1  0  0  0  0
 49 20  1  0  0  0  0
 50 20  1  0  0  0  0
 54 27  1  0  0  0  0
 55 27  1  0  0  0  0
 56 28  1  0  0  0  0
 57 28  1  0  0  0  0
 60 33  1  0  0  0  0
 63 35  1  0  0  0  0
M  END
>  <Pose>
1

>  <Score>
-6.45

$$$$
