
 OpenBabel03202209423D

 41 44  0  0  1  0  0  0  0  0999 V2000
  -37.7160  -69.7840   51.5970 B   0  0  0  0  0  0  0  0  0  0  0  0
  -39.1520  -69.3520   52.7890 C   0  0  0  0  0  0  0  0  0  0  0  0
  -40.0330  -68.3260   52.5310 C   0  0  0  0  0  0  0  0  0  0  0  0
  -41.0560  -68.0160   53.3770 N   0  0  0  0  0  0  0  0  0  0  0  0
  -41.2060  -68.7410   54.5000 C   0  0  0  0  0  0  0  0  0  0  0  0
  -42.2670  -68.2650   55.1750 N   0  0  0  0  0  0  0  0  0  0  0  0
  -42.8050  -67.2350   54.4950 C   0  0  0  0  0  0  0  0  0  0  0  0
  -42.0320  -67.0890   53.3630 C   0  0  0  0  0  0  0  0  0  0  0  0
  -43.9850  -66.4170   54.8740 C   0  0  0  0  0  0  0  0  0  0  0  0
  -45.0540  -66.5630   53.9120 N   0  0  0  0  0  0  0  0  0  0  0  0
  -45.6260  -65.4210   53.3310 C   0  0  0  0  0  0  0  0  0  0  0  0
  -44.9770  -64.7500   52.5020 O   0  0  0  0  0  0  0  0  0  0  0  0
  -46.9940  -65.0020   53.6900 C   0  0  1  0  0  0  0  0  0  0  0  0
  -47.4140  -63.8070   52.8720 C   0  0  0  0  0  0  0  0  0  0  0  0
  -47.3700  -64.2110   51.4800 N   0  0  0  0  0  0  0  0  0  0  0  0
  -47.7270  -65.4570   51.1290 C   0  0  0  0  0  0  0  0  0  0  0  0
  -47.5870  -65.5410   49.7910 N   0  0  0  0  0  0  0  0  0  0  0  0
  -47.1650  -64.4030   49.3260 N   0  0  0  0  0  0  0  0  0  0  0  0
  -47.0260  -63.5680   50.3640 C   0  0  0  0  0  0  0  0  0  0  0  0
  -46.5530  -62.1580   50.2070 C   0  0  0  0  0  0  0  0  0  0  0  0
  -48.1770  -66.4960   52.0680 C   0  0  0  0  0  0  0  0  0  0  0  0
  -47.9410  -66.1580   53.4980 C   0  0  0  0  0  0  0  0  0  0  0  0
  -40.3320  -69.7850   54.7890 C   0  0  0  0  0  0  0  0  0  0  0  0
  -39.3010  -70.0980   53.9390 C   0  0  0  0  0  0  0  0  0  0  0  0
  -39.9060  -67.7550   51.6380 H   0  0  0  0  0  0  0  0  0  0  0  0
  -42.1260  -66.3770   52.5550 H   0  0  0  0  0  0  0  0  0  0  0  0
  -44.3060  -66.6980   55.9070 H   0  0  0  0  0  0  0  0  0  0  0  0
  -43.6840  -65.3350   54.9320 H   0  0  0  0  0  0  0  0  0  0  0  0
  -45.4070  -67.5020   53.6420 H   0  0  0  0  0  0  0  0  0  0  0  0
  -47.0030  -64.7650   54.7790 H   0  0  0  0  0  0  0  0  0  0  0  0
  -48.4610  -63.5370   53.1490 H   0  0  0  0  0  0  0  0  0  0  0  0
  -46.7260  -62.9670   53.0950 H   0  0  0  0  0  0  0  0  0  0  0  0
  -46.1880  -61.7770   51.1650 H   0  0  0  0  0  0  0  0  0  0  0  0
  -45.7020  -62.1140   49.4740 H   0  0  0  0  0  0  0  0  0  0  0  0
  -47.3830  -61.5540   49.7870 H   0  0  0  0  0  0  0  0  0  0  0  0
  -49.2820  -66.6690   51.9390 H   0  0  0  0  0  0  0  0  0  0  0  0
  -47.6960  -67.4530   51.7780 H   0  0  0  0  0  0  0  0  0  0  0  0
  -47.4900  -67.0470   54.0170 H   0  0  0  0  0  0  0  0  0  0  0  0
  -48.8850  -65.9280   54.0400 H   0  0  0  0  0  0  0  0  0  0  0  0
  -40.5070  -70.3290   55.7080 H   0  0  0  0  0  0  0  0  0  0  0  0
  -38.6450  -70.9200   54.2060 H   0  0  0  0  0  0  0  0  0  0  0  0
  1  2  1  0  0  0  0
  2 24  1  0  0  0  0
  3  2  2  0  0  0  0
  3  4  1  0  0  0  0
  4  5  1  0  0  0  0
  5 23  1  0  0  0  0
  5  6  2  0  0  0  0
  7  9  1  0  0  0  0
  7  6  1  0  0  0  0
  8  4  1  0  0  0  0
  8  7  2  0  0  0  0
  9 28  1  0  0  0  0
  9 27  1  0  0  0  0
 10  9  1  0  0  0  0
 11 13  1  0  0  0  0
 11 10  1  0  0  0  0
 12 11  2  0  0  0  0
 13 30  1  1  0  0  0
 14 32  1  0  0  0  0
 14 31  1  0  0  0  0
 14 13  1  0  0  0  0
 15 14  1  0  0  0  0
 16 15  1  0  0  0  0
 16 21  1  0  0  0  0
 17 16  2  0  0  0  0
 18 17  1  0  0  0  0
 18 19  2  0  0  0  0
 19 15  1  0  0  0  0
 20 19  1  0  0  0  0
 20 33  1  0  0  0  0
 21 22  1  0  0  0  0
 22 13  1  0  0  0  0
 22 38  1  0  0  0  0
 22 39  1  0  0  0  0
 23 40  1  0  0  0  0
 24 41  1  0  0  0  0
 24 23  2  0  0  0  0
 25  3  1  0  0  0  0
 26  8  1  0  0  0  0
 29 10  1  0  0  0  0
 34 20  1  0  0  0  0
 35 20  1  0  0  0  0
 36 21  1  0  0  0  0
 37 21  1  0  0  0  0
M  END
>  <Pose>
1

>  <Score>
-6.18

$$$$
