
 OpenBabel03202209423D

 37 40  0  0  1  0  0  0  0  0999 V2000
  -38.8380  -70.3740   53.4340 B   0  0  0  0  0  0  0  0  0  0  0  0
  -40.3810  -69.3300   53.9050 C   0  0  0  0  0  0  0  0  0  0  0  0
  -40.7440  -68.2150   53.1820 C   0  0  0  0  0  0  0  0  0  0  0  0
  -41.8320  -67.4660   53.5020 N   0  0  0  0  0  0  0  0  0  0  0  0
  -42.3810  -66.3790   52.9840 N   0  0  0  0  0  0  0  0  0  0  0  0
  -43.4730  -66.0020   53.6640 C   0  0  0  0  0  0  0  0  0  0  0  0
  -43.5840  -66.9520   54.6790 C   0  0  0  0  0  0  0  0  0  0  0  0
  -42.5520  -67.8620   54.5680 C   0  0  0  0  0  0  0  0  0  0  0  0
  -42.2040  -68.9610   55.2880 N   0  0  0  0  0  0  0  0  0  0  0  0
  -41.1340  -69.7150   54.9910 C   0  0  0  0  0  0  0  0  0  0  0  0
  -44.3800  -64.8670   53.4410 C   0  0  0  0  0  0  0  0  0  0  0  0
  -44.7930  -64.2060   54.4320 O   0  0  0  0  0  0  0  0  0  0  0  0
  -44.8150  -64.4760   52.1490 N   0  0  0  0  0  0  0  0  0  0  0  0
  -43.9730  -63.6910   51.3230 C   0  0  0  0  0  0  0  0  0  0  0  0
  -44.7040  -62.8460   50.3480 C   0  0  2  0  0  0  0  0  0  0  0  0
  -46.1340  -62.9620   50.3640 N   0  0  2  0  0  0  0  0  0  0  0  0
  -46.5540  -64.3510   50.3900 C   0  0  0  0  0  0  0  0  0  0  0  0
  -46.1220  -64.9060   51.7340 C   0  0  0  0  0  0  0  0  0  0  0  0
  -46.5450  -62.2420   49.1980 C   0  0  0  0  0  0  0  0  0  0  0  0
  -45.5000  -62.5400   48.1520 C   0  0  0  0  0  0  0  0  0  0  0  0
  -44.3630  -63.1910   48.9080 C   0  0  0  0  0  0  0  0  0  0  0  0
  -40.1380  -67.9340   52.3350 H   0  0  0  0  0  0  0  0  0  0  0  0
  -44.3780  -66.9270   55.4110 H   0  0  0  0  0  0  0  0  0  0  0  0
  -40.8620  -70.5980   55.5760 H   0  0  0  0  0  0  0  0  0  0  0  0
  -43.2550  -64.3550   50.7820 H   0  0  0  0  0  0  0  0  0  0  0  0
  -43.3000  -63.0470   51.9700 H   0  0  0  0  0  0  0  0  0  0  0  0
  -44.4670  -61.7690   50.5140 H   0  0  0  0  0  0  0  0  0  0  0  0
  -47.6590  -64.3590   50.3550 H   0  0  0  0  0  0  0  0  0  0  0  0
  -46.1880  -64.9390   49.5390 H   0  0  0  0  0  0  0  0  0  0  0  0
  -46.1380  -66.0150   51.7180 H   0  0  0  0  0  0  0  0  0  0  0  0
  -46.8980  -64.6080   52.5080 H   0  0  0  0  0  0  0  0  0  0  0  0
  -46.5140  -61.1470   49.4650 H   0  0  0  0  0  0  0  0  0  0  0  0
  -47.5640  -62.5030   48.8540 H   0  0  0  0  0  0  0  0  0  0  0  0
  -45.9340  -63.2060   47.3780 H   0  0  0  0  0  0  0  0  0  0  0  0
  -45.1690  -61.6150   47.6340 H   0  0  0  0  0  0  0  0  0  0  0  0
  -43.3770  -62.7940   48.6300 H   0  0  0  0  0  0  0  0  0  0  0  0
  -44.3840  -64.2920   48.8010 H   0  0  0  0  0  0  0  0  0  0  0  0
  1  2  1  0  0  0  0
  2 10  1  0  0  0  0
  3  4  1  0  0  0  0
  3  2  2  0  0  0  0
  4  8  1  0  0  0  0
  5  4  1  0  0  0  0
  5  6  2  0  0  0  0
  6  7  1  0  0  0  0
  7 23  1  0  0  0  0
  8  7  2  0  0  0  0
  8  9  1  0  0  0  0
 10  9  2  0  0  0  0
 10 24  1  0  0  0  0
 11  6  1  0  0  0  0
 11 12  2  0  0  0  0
 13 11  1  0  0  0  0
 14 26  1  0  0  0  0
 14 13  1  0  0  0  0
 15 16  1  0  0  0  0
 15 27  1  1  0  0  0
 15 14  1  0  0  0  0
 16 19  1  6  0  0  0
 16 17  1  0  0  0  0
 17 18  1  0  0  0  0
 18 13  1  0  0  0  0
 18 31  1  0  0  0  0
 19 32  1  0  0  0  0
 20 21  1  0  0  0  0
 20 19  1  0  0  0  0
 21 15  1  0  0  0  0
 22  3  1  0  0  0  0
 25 14  1  0  0  0  0
 28 17  1  0  0  0  0
 29 17  1  0  0  0  0
 30 18  1  0  0  0  0
 33 19  1  0  0  0  0
 34 20  1  0  0  0  0
 35 20  1  0  0  0  0
 36 21  1  0  0  0  0
 37 21  1  0  0  0  0
M  END
>  <Pose>
1

>  <Score>
-5.61

$$$$
