
 OpenBabel03202209423D

 40 43  0  0  0  0  0  0  0  0999 V2000
  -39.0380  -70.3890   53.7870 B   0  0  0  0  0  0  0  0  0  0  0  0
  -40.1100  -68.9100   53.2020 C   0  0  0  0  0  0  0  0  0  0  0  0
  -41.2280  -68.5070   53.8990 C   0  0  0  0  0  0  0  0  0  0  0  0
  -42.0070  -67.4720   53.5190 N   0  0  0  0  0  0  0  0  0  0  0  0
  -41.7340  -66.7550   52.4150 C   0  0  0  0  0  0  0  0  0  0  0  0
  -42.4980  -65.7210   52.0220 N   0  0  0  0  0  0  0  0  0  0  0  0
  -43.5980  -65.3210   52.7030 C   0  0  0  0  0  0  0  0  0  0  0  0
  -43.8980  -66.0420   53.8390 C   0  0  0  0  0  0  0  0  0  0  0  0
  -43.0950  -67.1090   54.2300 C   0  0  0  0  0  0  0  0  0  0  0  0
  -43.3560  -67.7650   55.2510 O   0  0  0  0  0  0  0  0  0  0  0  0
  -44.4230  -64.1710   52.2470 C   0  0  0  0  0  0  0  0  0  0  0  0
  -45.2250  -64.4600   51.1330 O   0  0  0  0  0  0  0  0  0  0  0  0
  -46.2300  -63.6550   50.6390 C   0  0  0  0  0  0  0  0  0  0  0  0
  -47.1240  -63.2440   51.4060 O   0  0  0  0  0  0  0  0  0  0  0  0
  -46.2140  -63.3010   49.2010 C   0  0  0  0  0  0  0  0  0  0  0  0
  -45.2320  -62.2910   48.9290 N   0  0  0  0  0  0  0  0  0  0  0  0
  -45.2960  -60.9390   49.3240 C   0  0  0  0  0  0  0  0  0  0  0  0
  -46.1910  -60.3390   49.9750 O   0  0  0  0  0  0  0  0  0  0  0  0
  -44.0790  -60.2570   48.8360 C   0  0  0  0  0  0  0  0  0  0  0  0
  -43.3220  -61.1850   48.1740 C   0  0  0  0  0  0  0  0  0  0  0  0
  -42.1250  -60.8580   47.6030 C   0  0  0  0  0  0  0  0  0  0  0  0
  -41.6820  -59.5620   47.7040 C   0  0  0  0  0  0  0  0  0  0  0  0
  -42.4460  -58.6240   48.3720 C   0  0  0  0  0  0  0  0  0  0  0  0
  -43.6550  -58.9440   48.9510 C   0  0  0  0  0  0  0  0  0  0  0  0
  -44.0270  -62.4680   48.2210 C   0  0  0  0  0  0  0  0  0  0  0  0
  -43.5950  -63.5410   47.6990 O   0  0  0  0  0  0  0  0  0  0  0  0
  -40.6040  -67.1390   51.6870 C   0  0  0  0  0  0  0  0  0  0  0  0
  -39.8020  -68.1940   52.0650 C   0  0  0  0  0  0  0  0  0  0  0  0
  -41.4740  -69.0730   54.8000 H   0  0  0  0  0  0  0  0  0  0  0  0
  -44.7730  -65.7720   54.4410 H   0  0  0  0  0  0  0  0  0  0  0  0
  -45.0810  -63.8030   53.0580 H   0  0  0  0  0  0  0  0  0  0  0  0
  -43.7710  -63.2960   51.9660 H   0  0  0  0  0  0  0  0  0  0  0  0
  -47.2250  -62.8470   48.9970 H   0  0  0  0  0  0  0  0  0  0  0  0
  -46.0960  -64.1990   48.5550 H   0  0  0  0  0  0  0  0  0  0  0  0
  -41.5390  -61.5970   47.0860 H   0  0  0  0  0  0  0  0  0  0  0  0
  -40.7350  -59.3270   47.2460 H   0  0  0  0  0  0  0  0  0  0  0  0
  -42.0450  -57.6210   48.4180 H   0  0  0  0  0  0  0  0  0  0  0  0
  -44.2550  -58.2180   49.4740 H   0  0  0  0  0  0  0  0  0  0  0  0
  -40.3930  -66.5600   50.8050 H   0  0  0  0  0  0  0  0  0  0  0  0
  -38.9300  -68.4880   51.4980 H   0  0  0  0  0  0  0  0  0  0  0  0
  2  1  1  0  0  0  0
  2  3  1  0  0  0  0
  3 29  1  0  0  0  0
  4  3  1  0  0  0  0
  4  9  1  0  0  0  0
  5  4  1  0  0  0  0
  6  5  1  0  0  0  0
  6  7  2  0  0  0  0
  7  8  1  0  0  0  0
  8  9  1  0  0  0  0
  8 30  1  0  0  0  0
  9 10  2  0  0  0  0
 11  7  1  0  0  0  0
 11 31  1  0  0  0  0
 12 11  1  0  0  0  0
 13 12  1  0  0  0  0
 13 14  2  0  0  0  0
 15 13  1  0  0  0  0
 16 15  1  0  0  0  0
 16 17  1  0  0  0  0
 17 18  2  0  0  0  0
 19 24  1  0  0  0  0
 19 17  1  0  0  0  0
 20 25  1  0  0  0  0
 20 19  2  0  0  0  0
 21 22  2  0  0  0  0
 21 20  1  0  0  0  0
 22 23  1  0  0  0  0
 23 37  1  0  0  0  0
 23 24  2  0  0  0  0
 24 38  1  0  0  0  0
 25 16  1  0  0  0  0
 26 25  2  0  0  0  0
 27 28  1  0  0  0  0
 27  5  2  0  0  0  0
 28  2  2  0  0  0  0
 32 11  1  0  0  0  0
 33 15  1  0  0  0  0
 34 15  1  0  0  0  0
 35 21  1  0  0  0  0
 36 22  1  0  0  0  0
 39 27  1  0  0  0  0
 40 28  1  0  0  0  0
M  END
>  <Pose>
1

>  <Score>
-6.03

$$$$
