
 OpenBabel03202209423D

 45 48  0  0  0  0  0  0  0  0999 V2000
  -48.5500  -67.6020   54.5100 B   0  0  0  0  0  0  0  0  0  0  0  0
  -46.9200  -66.8470   53.8590 C   0  0  0  0  0  0  0  0  0  0  0  0
  -45.7210  -67.3860   54.2730 C   0  0  0  0  0  0  0  0  0  0  0  0
  -44.5730  -66.8570   53.8180 N   0  0  0  0  0  0  0  0  0  0  0  0
  -44.5620  -65.8130   52.9640 C   0  0  0  0  0  0  0  0  0  0  0  0
  -43.3930  -65.2950   52.5180 N   0  0  0  0  0  0  0  0  0  0  0  0
  -42.2000  -65.7890   52.8950 C   0  0  0  0  0  0  0  0  0  0  0  0
  -42.1920  -66.8550   53.7640 C   0  0  0  0  0  0  0  0  0  0  0  0
  -43.3990  -67.3890   54.2260 C   0  0  0  0  0  0  0  0  0  0  0  0
  -43.4030  -68.3520   55.0110 O   0  0  0  0  0  0  0  0  0  0  0  0
  -40.9260  -65.2130   52.3980 C   0  0  0  0  0  0  0  0  0  0  0  0
  -40.3550  -66.1130   51.4670 O   0  0  0  0  0  0  0  0  0  0  0  0
  -40.9110  -66.3660   50.2350 C   0  0  0  0  0  0  0  0  0  0  0  0
  -41.7210  -67.3240   50.1330 O   0  0  0  0  0  0  0  0  0  0  0  0
  -40.6210  -65.5850   49.0040 C   0  0  0  0  0  0  0  0  0  0  0  0
  -39.4370  -64.7880   49.1240 N   0  0  0  0  0  0  0  0  0  0  0  0
  -39.3780  -63.3910   49.4100 C   0  0  0  0  0  0  0  0  0  0  0  0
  -40.3830  -62.6470   49.6010 O   0  0  0  0  0  0  0  0  0  0  0  0
  -38.0100  -63.0040   49.4380 N   0  0  0  0  0  0  0  0  0  0  0  0
  -37.2010  -64.1180   49.0130 C   0  0  0  0  0  0  0  0  0  0  0  0
  -36.5970  -63.9170   47.6480 C   0  0  0  0  0  0  0  0  0  0  0  0
  -35.4660  -64.8960   47.6260 C   0  0  0  0  0  0  0  0  0  0  0  0
  -35.2040  -65.3330   49.0380 C   0  0  0  0  0  0  0  0  0  0  0  0
  -36.0100  -64.3630   49.8750 C   0  0  0  0  0  0  0  0  0  0  0  0
  -38.1000  -65.2700   48.9740 C   0  0  0  0  0  0  0  0  0  0  0  0
  -37.8100  -66.4820   48.8380 O   0  0  0  0  0  0  0  0  0  0  0  0
  -45.7600  -65.2670   52.5460 C   0  0  0  0  0  0  0  0  0  0  0  0
  -46.9640  -65.7720   52.9840 C   0  0  0  0  0  0  0  0  0  0  0  0
  -45.6800  -68.2260   54.9570 H   0  0  0  0  0  0  0  0  0  0  0  0
  -41.2460  -67.2730   54.0850 H   0  0  0  0  0  0  0  0  0  0  0  0
  -41.1330  -64.2550   51.8850 H   0  0  0  0  0  0  0  0  0  0  0  0
  -40.2350  -65.0400   53.2540 H   0  0  0  0  0  0  0  0  0  0  0  0
  -40.5840  -66.2650   48.1240 H   0  0  0  0  0  0  0  0  0  0  0  0
  -41.5180  -64.9300   48.8410 H   0  0  0  0  0  0  0  0  0  0  0  0
  -37.6830  -62.0650   49.7240 H   0  0  0  0  0  0  0  0  0  0  0  0
  -37.3770  -64.2320   46.8970 H   0  0  0  0  0  0  0  0  0  0  0  0
  -36.2910  -62.8890   47.4440 H   0  0  0  0  0  0  0  0  0  0  0  0
  -34.5440  -64.3640   47.2590 H   0  0  0  0  0  0  0  0  0  0  0  0
  -35.6970  -65.7490   46.9460 H   0  0  0  0  0  0  0  0  0  0  0  0
  -34.1230  -65.2730   49.2970 H   0  0  0  0  0  0  0  0  0  0  0  0
  -35.5120  -66.3890   49.2360 H   0  0  0  0  0  0  0  0  0  0  0  0
  -36.2460  -64.7830   50.8720 H   0  0  0  0  0  0  0  0  0  0  0  0
  -35.4080  -63.4300   49.9880 H   0  0  0  0  0  0  0  0  0  0  0  0
  -45.7200  -64.4330   51.8650 H   0  0  0  0  0  0  0  0  0  0  0  0
  -47.9100  -65.3600   52.6680 H   0  0  0  0  0  0  0  0  0  0  0  0
  2  3  1  0  0  0  0
  2  1  1  0  0  0  0
  3 29  1  0  0  0  0
  4  9  1  0  0  0  0
  4  3  1  0  0  0  0
  5  4  1  0  0  0  0
  6  7  2  0  0  0  0
  6  5  1  0  0  0  0
  7  8  1  0  0  0  0
  8 30  1  0  0  0  0
  8  9  1  0  0  0  0
  9 10  2  0  0  0  0
 11  7  1  0  0  0  0
 11 32  1  0  0  0  0
 12 11  1  0  0  0  0
 13 12  1  0  0  0  0
 14 13  2  0  0  0  0
 15 16  1  0  0  0  0
 15 13  1  0  0  0  0
 16 17  1  0  0  0  0
 17 19  1  0  0  0  0
 17 18  2  0  0  0  0
 19 35  1  0  0  0  0
 20 19  1  0  0  0  0
 20 24  1  0  0  0  0
 21 20  1  0  0  0  0
 22 21  1  0  0  0  0
 22 23  1  0  0  0  0
 23 41  1  0  0  0  0
 23 40  1  0  0  0  0
 23 24  1  0  0  0  0
 24 43  1  0  0  0  0
 24 42  1  0  0  0  0
 25 20  1  0  0  0  0
 25 16  1  0  0  0  0
 26 25  2  0  0  0  0
 27  5  2  0  0  0  0
 27 28  1  0  0  0  0
 28  2  2  0  0  0  0
 31 11  1  0  0  0  0
 33 15  1  0  0  0  0
 34 15  1  0  0  0  0
 36 21  1  0  0  0  0
 37 21  1  0  0  0  0
 38 22  1  0  0  0  0
 39 22  1  0  0  0  0
 44 27  1  0  0  0  0
 45 28  1  0  0  0  0
M  END
>  <Pose>
1

>  <Score>
-6.24

$$$$
