
 OpenBabel03202209423D

 56 59  0  0  1  0  0  0  0  0999 V2000
  -48.6290  -67.6300   54.8870 B   0  0  0  0  0  0  0  0  0  0  0  0
  -47.2180  -66.6050   54.0730 C   0  0  0  0  0  0  0  0  0  0  0  0
  -45.8990  -66.9820   54.2580 C   0  0  0  0  0  0  0  0  0  0  0  0
  -44.8740  -66.2450   53.6720 C   0  0  0  0  0  0  0  0  0  0  0  0
  -45.1390  -65.1350   52.9030 C   0  0  0  0  0  0  0  0  0  0  0  0
  -46.4610  -64.7890   52.7410 C   0  0  0  0  0  0  0  0  0  0  0  0
  -47.4930  -65.4980   53.3070 C   0  0  0  0  0  0  0  0  0  0  0  0
  -44.0840  -64.3590   52.2880 C   0  0  0  0  0  0  0  0  0  0  0  0
  -44.3110  -63.7570   51.2050 O   0  0  0  0  0  0  0  0  0  0  0  0
  -42.7230  -64.2310   52.8740 C   0  0  0  0  0  0  0  0  0  0  0  0
  -41.7380  -64.9120   52.0870 N   0  0  0  0  0  0  0  0  0  0  0  0
  -40.9510  -64.3820   51.1790 N   0  0  0  0  0  0  0  0  0  0  0  0
  -40.1530  -65.3170   50.6420 C   0  0  0  0  0  0  0  0  0  0  0  0
  -40.4550  -66.4780   51.2410 N   0  0  0  0  0  0  0  0  0  0  0  0
  -41.4460  -66.2160   52.1430 C   0  0  2  0  0  0  0  0  0  0  0  0
  -42.0880  -67.1910   53.0240 C   0  0  0  0  0  0  0  0  0  0  0  0
  -41.1120  -67.8960   53.9350 C   0  0  0  0  0  0  0  0  0  0  0  0
  -40.2500  -68.8870   53.1840 C   0  0  0  0  0  0  0  0  0  0  0  0
  -39.2380  -68.2330   52.2950 C   0  0  0  0  0  0  0  0  0  0  0  0
  -39.8430  -67.7660   50.9780 C   0  0  0  0  0  0  0  0  0  0  0  0
  -39.1340  -65.1420   49.5990 C   0  0  0  0  0  0  0  0  0  0  0  0
  -38.2810  -64.0190   49.8450 N   0  0  0  0  0  0  0  0  0  0  0  0
  -37.4450  -63.4460   48.8440 C   0  0  0  0  0  0  0  0  0  0  0  0
  -37.8970  -63.1790   47.5720 C   0  0  0  0  0  0  0  0  0  0  0  0
  -37.0840  -62.6230   46.6190 C   0  0  0  0  0  0  0  0  0  0  0  0
  -35.7950  -62.3230   46.9280 C   0  0  0  0  0  0  0  0  0  0  0  0
  -35.3380  -62.5890   48.2000 C   0  0  0  0  0  0  0  0  0  0  0  0
  -36.1470  -63.1480   49.1670 C   0  0  0  0  0  0  0  0  0  0  0  0
  -34.9570  -61.7650   45.9920 O   0  0  0  0  0  0  0  0  0  0  0  0
  -35.3570  -60.7340   45.1240 C   0  0  0  0  0  0  0  0  0  0  0  0
  -45.7010  -67.8490   54.8580 H   0  0  0  0  0  0  0  0  0  0  0  0
  -43.8570  -66.5570   53.8290 H   0  0  0  0  0  0  0  0  0  0  0  0
  -46.6930  -63.9060   52.1300 H   0  0  0  0  0  0  0  0  0  0  0  0
  -48.5030  -65.1790   53.1440 H   0  0  0  0  0  0  0  0  0  0  0  0
  -42.4640  -63.1750   53.0790 H   0  0  0  0  0  0  0  0  0  0  0  0
  -42.7770  -64.7580   53.8710 H   0  0  0  0  0  0  0  0  0  0  0  0
  -42.8460  -66.7130   53.6700 H   0  0  0  0  0  0  0  0  0  0  0  0
  -42.6350  -68.0030   52.4640 H   0  0  0  0  0  0  0  0  0  0  0  0
  -40.4950  -67.2200   54.5290 H   0  0  0  0  0  0  0  0  0  0  0  0
  -41.7260  -68.4940   54.6530 H   0  0  0  0  0  0  0  0  0  0  0  0
  -40.8450  -69.6390   52.6630 H   0  0  0  0  0  0  0  0  0  0  0  0
  -39.6700  -69.4440   53.9740 H   0  0  0  0  0  0  0  0  0  0  0  0
  -38.7700  -67.3730   52.7700 H   0  0  0  0  0  0  0  0  0  0  0  0
  -38.4420  -68.9960   52.0750 H   0  0  0  0  0  0  0  0  0  0  0  0
  -40.5510  -68.5020   50.5680 H   0  0  0  0  0  0  0  0  0  0  0  0
  -39.0290  -67.6330   50.2500 H   0  0  0  0  0  0  0  0  0  0  0  0
  -39.6630  -65.0010   48.6210 H   0  0  0  0  0  0  0  0  0  0  0  0
  -38.5150  -66.0470   49.4850 H   0  0  0  0  0  0  0  0  0  0  0  0
  -38.2530  -63.5870   50.7800 H   0  0  0  0  0  0  0  0  0  0  0  0
  -38.9460  -63.4410   47.3760 H   0  0  0  0  0  0  0  0  0  0  0  0
  -37.4820  -62.4320   45.6400 H   0  0  0  0  0  0  0  0  0  0  0  0
  -34.3070  -62.3590   48.4800 H   0  0  0  0  0  0  0  0  0  0  0  0
  -35.7650  -63.3500   50.1780 H   0  0  0  0  0  0  0  0  0  0  0  0
  -34.6390  -60.6140   44.3030 H   0  0  0  0  0  0  0  0  0  0  0  0
  -36.3500  -60.9940   44.7050 H   0  0  0  0  0  0  0  0  0  0  0  0
  -35.4660  -59.7640   45.6600 H   0  0  0  0  0  0  0  0  0  0  0  0
  2  3  1  0  0  0  0
  2  1  1  0  0  0  0
  3 31  1  0  0  0  0
  4 32  1  0  0  0  0
  4  3  2  0  0  0  0
  5  4  1  0  0  0  0
  6  5  2  0  0  0  0
  6  7  1  0  0  0  0
  7  2  2  0  0  0  0
  8 10  1  0  0  0  0
  8  5  1  0  0  0  0
  9  8  2  0  0  0  0
 10 35  1  0  0  0  0
 10 36  1  0  0  0  0
 11 15  1  0  0  0  0
 11 10  1  0  0  0  0
 12 11  1  0  0  0  0
 13 12  2  0  0  0  0
 13 14  1  0  0  0  0
 15 14  1  6  0  0  0
 15 16  1  0  0  0  0
 16 37  1  0  0  0  0
 16 17  1  0  0  0  0
 17 39  1  0  0  0  0
 17 40  1  0  0  0  0
 18 17  1  0  0  0  0
 18 42  1  0  0  0  0
 19 43  1  0  0  0  0
 19 18  1  0  0  0  0
 20 14  1  0  0  0  0
 20 19  1  0  0  0  0
 21 22  1  0  0  0  0
 21 13  1  0  0  0  0
 22 49  1  0  0  0  0
 23 28  1  0  0  0  0
 23 22  1  0  0  0  0
 24 23  2  0  0  0  0
 25 26  2  0  0  0  0
 25 24  1  0  0  0  0
 26 27  1  0  0  0  0
 27 52  1  0  0  0  0
 27 28  2  0  0  0  0
 28 53  1  0  0  0  0
 29 26  1  0  0  0  0
 30 56  1  0  0  0  0
 30 29  1  0  0  0  0
 33  6  1  0  0  0  0
 34  7  1  0  0  0  0
 38 16  1  0  0  0  0
 41 18  1  0  0  0  0
 44 19  1  0  0  0  0
 45 20  1  0  0  0  0
 46 20  1  0  0  0  0
 47 21  1  0  0  0  0
 48 21  1  0  0  0  0
 50 24  1  0  0  0  0
 51 25  1  0  0  0  0
 54 30  1  0  0  0  0
 55 30  1  0  0  0  0
M  END
>  <Pose>
1

>  <Score>
-6.44

$$$$
