
 OpenBabel03202209423D

 53 56  0  0  1  0  0  0  0  0999 V2000
  -46.8750  -63.9970   47.0830 B   0  0  0  0  0  0  0  0  0  0  0  0
  -47.1630  -64.1050   48.9520 C   0  0  0  0  0  0  0  0  0  0  0  0
  -47.2800  -62.9420   49.6900 C   0  0  0  0  0  0  0  0  0  0  0  0
  -47.4970  -62.9990   51.0500 C   0  0  0  0  0  0  0  0  0  0  0  0
  -47.6020  -64.2100   51.6940 C   0  0  0  0  0  0  0  0  0  0  0  0
  -47.4870  -65.3550   50.9640 C   0  0  0  0  0  0  0  0  0  0  0  0
  -47.2660  -65.3200   49.5800 C   0  0  0  0  0  0  0  0  0  0  0  0
  -47.8300  -64.3230   53.1630 C   0  0  2  0  0  0  0  0  0  0  0  0
  -47.1620  -65.5070   53.6990 N   0  0  0  0  0  4  0  0  0  0  0  0
  -48.0710  -66.5270   53.8420 C   0  0  0  0  0  0  0  0  0  0  0  0
  -47.9990  -67.6220   54.5570 C   0  0  0  0  0  0  0  0  0  0  0  0
  -48.9070  -68.7840   54.7780 C   0  0  0  0  0  0  0  0  0  0  0  0
  -50.2700  -68.6180   54.1840 C   0  0  0  0  0  0  0  0  0  0  0  0
  -50.2030  -68.3600   52.6970 C   0  0  0  0  0  0  0  0  0  0  0  0
  -50.2730  -66.8700   52.4270 C   0  0  0  0  0  0  0  0  0  0  0  0
  -49.2660  -66.1370   53.1260 N   0  0  0  0  0  0  0  0  0  0  0  0
  -49.3500  -64.6750   53.2380 C   0  0  0  0  0  0  0  0  0  0  0  0
  -45.8480  -65.6710   53.3490 C   0  0  0  0  0  0  0  0  0  0  0  0
  -45.1150  -66.8060   53.5200 C   0  0  0  0  0  0  0  0  0  0  0  0
  -43.7280  -66.8620   53.3030 C   0  0  0  0  0  0  0  0  0  0  0  0
  -43.0370  -65.7500   52.9000 C   0  0  0  0  0  0  0  0  0  0  0  0
  -43.7760  -64.5900   52.7200 C   0  0  0  0  0  0  0  0  0  0  0  0
  -45.1370  -64.5390   52.9360 C   0  0  0  0  0  0  0  0  0  0  0  0
  -41.6680  -65.7810   52.6910 O   0  0  0  0  0  0  0  0  0  0  0  0
  -40.9440  -66.8910   52.2230 C   0  0  0  0  0  0  0  0  0  0  0  0
  -41.1200  -66.8840   50.6920 C   0  0  0  0  0  0  0  0  0  0  0  0
  -47.6380  -63.2170   53.8960 O   0  0  0  0  0  0  0  0  0  0  0  0
  -47.2110  -61.9640   49.2420 H   0  0  0  0  0  0  0  0  0  0  0  0
  -47.5870  -62.0480   51.5830 H   0  0  0  0  0  0  0  0  0  0  0  0
  -47.5640  -66.3040   51.4540 H   0  0  0  0  0  0  0  0  0  0  0  0
  -47.1780  -66.2220   48.9890 H   0  0  0  0  0  0  0  0  0  0  0  0
  -47.0620  -65.1570   54.7800 H   0  0  0  0  0  0  0  0  0  0  0  0
  -47.1100  -67.7270   55.1740 H   0  0  0  0  0  0  0  0  0  0  0  0
  -49.0190  -68.9510   55.8630 H   0  0  0  0  0  0  0  0  0  0  0  0
  -48.4430  -69.6690   54.2660 H   0  0  0  0  0  0  0  0  0  0  0  0
  -50.9050  -67.9250   54.7230 H   0  0  0  0  0  0  0  0  0  0  0  0
  -50.7660  -69.6300   54.2860 H   0  0  0  0  0  0  0  0  0  0  0  0
  -49.3290  -68.8310   52.2640 H   0  0  0  0  0  0  0  0  0  0  0  0
  -51.1230  -68.8040   52.2080 H   0  0  0  0  0  0  0  0  0  0  0  0
  -50.3730  -66.6610   51.3520 H   0  0  0  0  0  0  0  0  0  0  0  0
  -51.2610  -66.5520   52.8820 H   0  0  0  0  0  0  0  0  0  0  0  0
  -49.7820  -64.3970   54.1960 H   0  0  0  0  0  0  0  0  0  0  0  0
  -49.8750  -64.2880   52.3710 H   0  0  0  0  0  0  0  0  0  0  0  0
  -45.5630  -67.7390   53.8010 H   0  0  0  0  0  0  0  0  0  0  0  0
  -43.2180  -67.7920   53.4690 H   0  0  0  0  0  0  0  0  0  0  0  0
  -43.2970  -63.6570   52.3910 H   0  0  0  0  0  0  0  0  0  0  0  0
  -45.6400  -63.5710   52.7920 H   0  0  0  0  0  0  0  0  0  0  0  0
  -41.3980  -67.8580   52.6210 H   0  0  0  0  0  0  0  0  0  0  0  0
  -39.8970  -66.8800   52.5390 H   0  0  0  0  0  0  0  0  0  0  0  0
  -40.1280  -66.5750   50.3170 H   0  0  0  0  0  0  0  0  0  0  0  0
  -41.8560  -66.1210   50.3840 H   0  0  0  0  0  0  0  0  0  0  0  0
  -41.4690  -67.8530   50.3060 H   0  0  0  0  0  0  0  0  0  0  0  0
  -47.4600  -63.2760   54.8460 H   0  0  0  0  0  0  0  0  0  0  0  0
  1  2  1  0  0  0  0
  2  7  2  0  0  0  0
  2  3  1  0  0  0  0
  3  4  2  0  0  0  0
  4 29  1  0  0  0  0
  4  5  1  0  0  0  0
  5  8  1  0  0  0  0
  6 30  1  0  0  0  0
  6  5  2  0  0  0  0
  7  6  1  0  0  0  0
  8 17  1  0  0  0  0
  8  9  1  0  0  0  0
  8 27  1  1  0  0  0
  9 10  1  0  0  0  0
  9 32  1  0  0  0  0
 10 11  2  0  0  0  0
 11 12  1  0  0  0  0
 11 33  1  0  0  0  0
 12 34  1  0  0  0  0
 13 37  1  0  0  0  0
 13 36  1  0  0  0  0
 13 12  1  0  0  0  0
 14 13  1  0  0  0  0
 15 14  1  0  0  0  0
 15 41  1  0  0  0  0
 15 16  1  0  0  0  0
 16 17  1  0  0  0  0
 16 10  1  0  0  0  0
 17 42  1  0  0  0  0
 18 19  1  0  0  0  0
 18  9  1  0  0  0  0
 19 44  1  0  0  0  0
 20 45  1  0  0  0  0
 20 19  2  0  0  0  0
 21 20  1  0  0  0  0
 22 21  2  0  0  0  0
 22 23  1  0  0  0  0
 23 18  2  0  0  0  0
 24 21  1  0  0  0  0
 25 49  1  0  0  0  0
 25 48  1  0  0  0  0
 25 24  1  0  0  0  0
 26 25  1  0  0  0  0
 27 53  1  0  0  0  0
 28  3  1  0  0  0  0
 31  7  1  0  0  0  0
 35 12  1  0  0  0  0
 38 14  1  0  0  0  0
 39 14  1  0  0  0  0
 40 15  1  0  0  0  0
 43 17  1  0  0  0  0
 46 22  1  0  0  0  0
 47 23  1  0  0  0  0
 50 26  1  0  0  0  0
 51 26  1  0  0  0  0
 52 26  1  0  0  0  0
M  END
>  <Pose>
1

>  <Score>
-5.21

$$$$
