
 OpenBabel03202209423D

 47 50  0  0  1  0  0  0  0  0999 V2000
  -37.0050  -65.7990   49.1650 B   0  0  0  0  0  0  0  0  0  0  0  0
  -38.8220  -65.5360   49.7290 C   0  0  0  0  0  0  0  0  0  0  0  0
  -39.2870  -64.2560   49.9260 C   0  0  0  0  0  0  0  0  0  0  0  0
  -40.6090  -64.0770   50.3290 C   0  0  0  0  0  0  0  0  0  0  0  0
  -41.4720  -65.1310   50.5390 C   0  0  0  0  0  0  0  0  0  0  0  0
  -40.9810  -66.4070   50.3340 C   0  0  0  0  0  0  0  0  0  0  0  0
  -39.6730  -66.6010   49.9330 C   0  0  0  0  0  0  0  0  0  0  0  0
  -42.8640  -64.8720   50.9780 C   0  0  2  0  0  0  0  0  0  0  0  0
  -43.5780  -63.9660   50.1030 N   0  0  0  0  0  0  0  0  0  0  0  0
  -43.5580  -63.5880   48.7060 C   0  0  0  0  0  0  0  0  0  0  0  0
  -44.9430  -63.2730   48.1790 C   0  0  0  0  0  0  0  0  0  0  0  0
  -45.5190  -62.1720   49.0050 C   0  0  0  0  0  0  0  0  0  0  0  0
  -45.4290  -62.4710   50.4500 C   0  0  0  0  0  0  0  0  0  0  0  0
  -44.5180  -63.3100   50.9510 C   0  0  0  0  0  0  0  0  0  0  0  0
  -44.3130  -63.6570   52.3030 N   0  0  0  0  0  4  0  0  0  0  0  0
  -42.9210  -64.1520   52.2940 C   0  0  0  0  0  0  0  0  0  0  0  0
  -45.1770  -64.5950   52.8570 C   0  0  0  0  0  0  0  0  0  0  0  0
  -46.5450  -64.4890   52.8140 C   0  0  0  0  0  0  0  0  0  0  0  0
  -47.3530  -65.4600   53.4090 C   0  0  0  0  0  0  0  0  0  0  0  0
  -46.8010  -66.5410   54.0470 C   0  0  0  0  0  0  0  0  0  0  0  0
  -45.4280  -66.6570   54.0930 C   0  0  0  0  0  0  0  0  0  0  0  0
  -44.6400  -65.7000   53.5060 C   0  0  0  0  0  0  0  0  0  0  0  0
  -47.1850  -63.4360   52.1920 O   0  0  0  0  0  0  0  0  0  0  0  0
  -48.4290  -63.5990   51.5950 C   0  0  0  0  0  0  0  0  0  0  0  0
  -43.5100  -66.0950   51.1270 O   0  0  0  0  0  0  0  0  0  0  0  0
  -38.6630  -63.3620   49.7730 H   0  0  0  0  0  0  0  0  0  0  0  0
  -41.0110  -63.0670   50.4960 H   0  0  0  0  0  0  0  0  0  0  0  0
  -41.6690  -67.2470   50.5040 H   0  0  0  0  0  0  0  0  0  0  0  0
  -39.2970  -67.6050   49.7740 H   0  0  0  0  0  0  0  0  0  0  0  0
  -42.9820  -62.6210   48.6290 H   0  0  0  0  0  0  0  0  0  0  0  0
  -43.0550  -64.3600   48.0860 H   0  0  0  0  0  0  0  0  0  0  0  0
  -45.5710  -64.1710   48.0730 H   0  0  0  0  0  0  0  0  0  0  0  0
  -44.7940  -62.8680   47.1430 H   0  0  0  0  0  0  0  0  0  0  0  0
  -46.5450  -61.8880   48.6920 H   0  0  0  0  0  0  0  0  0  0  0  0
  -44.8510  -61.2770   48.8430 H   0  0  0  0  0  0  0  0  0  0  0  0
  -46.1520  -61.9690   51.0960 H   0  0  0  0  0  0  0  0  0  0  0  0
  -44.2330  -62.7800   52.9150 H   0  0  0  0  0  0  0  0  0  0  0  0
  -42.2270  -63.3130   52.2810 H   0  0  0  0  0  0  0  0  0  0  0  0
  -42.7850  -64.8270   53.1570 H   0  0  0  0  0  0  0  0  0  0  0  0
  -48.4330  -65.4170   53.4030 H   0  0  0  0  0  0  0  0  0  0  0  0
  -47.3980  -67.3340   54.5270 H   0  0  0  0  0  0  0  0  0  0  0  0
  -45.0070  -67.5170   54.5950 H   0  0  0  0  0  0  0  0  0  0  0  0
  -43.5780  -65.7930   53.5470 H   0  0  0  0  0  0  0  0  0  0  0  0
  -48.5380  -64.5050   50.9510 H   0  0  0  0  0  0  0  0  0  0  0  0
  -48.6930  -62.7380   50.8970 H   0  0  0  0  0  0  0  0  0  0  0  0
  -49.2370  -63.6260   52.3700 H   0  0  0  0  0  0  0  0  0  0  0  0
  -43.7450  -66.4040   50.2190 H   0  0  0  0  0  0  0  0  0  0  0  0
  1  2  1  0  0  0  0
  2  3  2  0  0  0  0
  2  7  1  0  0  0  0
  3  4  1  0  0  0  0
  4 27  1  0  0  0  0
  4  5  2  0  0  0  0
  5  8  1  0  0  0  0
  6 28  1  0  0  0  0
  6  5  1  0  0  0  0
  7  6  2  0  0  0  0
  8 25  1  1  0  0  0
  8 16  1  0  0  0  0
  9 14  1  0  0  0  0
  9  8  1  0  0  0  0
 10  9  1  0  0  0  0
 11 10  1  0  0  0  0
 11 12  1  0  0  0  0
 12 13  1  0  0  0  0
 13 14  2  0  0  0  0
 13 36  1  0  0  0  0
 14 15  1  0  0  0  0
 15 17  1  0  0  0  0
 15 37  1  0  0  0  0
 16 15  1  0  0  0  0
 16 39  1  0  0  0  0
 17 22  1  0  0  0  0
 18 17  2  0  0  0  0
 18 19  1  0  0  0  0
 19 20  2  0  0  0  0
 20 21  1  0  0  0  0
 20 41  1  0  0  0  0
 21 42  1  0  0  0  0
 22 43  1  0  0  0  0
 22 21  2  0  0  0  0
 23 18  1  0  0  0  0
 24 23  1  0  0  0  0
 24 46  1  0  0  0  0
 26  3  1  0  0  0  0
 29  7  1  0  0  0  0
 30 10  1  0  0  0  0
 31 10  1  0  0  0  0
 32 11  1  0  0  0  0
 33 11  1  0  0  0  0
 34 12  1  0  0  0  0
 35 12  1  0  0  0  0
 38 16  1  0  0  0  0
 40 19  1  0  0  0  0
 44 24  1  0  0  0  0
 45 24  1  0  0  0  0
 47 25  1  0  0  0  0
M  END
>  <Pose>
1

>  <Score>
-5.07

$$$$
