
 OpenBabel03202209423D

 47 50  0  0  1  0  0  0  0  0999 V2000
  -39.3850  -70.1180   53.4050 B   0  0  0  0  0  0  0  0  0  0  0  0
  -40.7370  -68.7920   53.6390 C   0  0  0  0  0  0  0  0  0  0  0  0
  -40.8800  -67.7370   52.7570 C   0  0  0  0  0  0  0  0  0  0  0  0
  -41.8650  -66.7880   52.9410 C   0  0  0  0  0  0  0  0  0  0  0  0
  -42.7540  -66.8270   53.9940 C   0  0  0  0  0  0  0  0  0  0  0  0
  -42.6020  -67.8910   54.8750 C   0  0  0  0  0  0  0  0  0  0  0  0
  -41.6180  -68.8460   54.6980 C   0  0  0  0  0  0  0  0  0  0  0  0
  -43.7770  -65.7930   54.1350 C   0  0  2  0  0  0  0  0  0  0  0  0
  -44.9670  -66.0060   53.3490 N   0  0  0  0  0  0  0  0  0  0  0  0
  -45.6970  -67.1650   52.8550 C   0  0  0  0  0  0  0  0  0  0  0  0
  -47.1540  -66.9650   52.6980 C   0  0  0  0  0  0  0  0  0  0  0  0
  -47.6890  -65.6400   53.1810 C   0  0  0  0  0  0  0  0  0  0  0  0
  -46.7680  -64.5290   52.9570 C   0  0  0  0  0  0  0  0  0  0  0  0
  -45.4630  -64.7130   53.0390 C   0  0  0  0  0  0  0  0  0  0  0  0
  -44.3480  -63.8430   52.8730 N   0  0  0  0  0  4  0  0  0  0  0  0
  -43.3140  -64.4320   53.6660 C   0  0  0  0  0  0  0  0  0  0  0  0
  -44.0680  -63.7160   51.5190 C   0  0  0  0  0  0  0  0  0  0  0  0
  -44.9400  -63.0640   50.6790 C   0  0  0  0  0  0  0  0  0  0  0  0
  -44.6560  -62.9380   49.3100 C   0  0  0  0  0  0  0  0  0  0  0  0
  -43.5130  -63.4520   48.7640 C   0  0  0  0  0  0  0  0  0  0  0  0
  -42.6220  -64.1180   49.6270 C   0  0  0  0  0  0  0  0  0  0  0  0
  -42.9310  -64.2250   50.9670 C   0  0  0  0  0  0  0  0  0  0  0  0
  -43.1670  -63.3630   47.4170 O   0  0  0  0  0  0  0  0  0  0  0  0
  -41.9360  -62.9710   46.9040 C   0  0  0  0  0  0  0  0  0  0  0  0
  -44.1770  -65.7500   55.4860 O   0  0  0  0  0  0  0  0  0  0  0  0
  -40.1840  -67.7010   51.9270 H   0  0  0  0  0  0  0  0  0  0  0  0
  -41.9580  -65.9630   52.2290 H   0  0  0  0  0  0  0  0  0  0  0  0
  -43.2780  -67.9510   55.7080 H   0  0  0  0  0  0  0  0  0  0  0  0
  -41.4960  -69.6820   55.3850 H   0  0  0  0  0  0  0  0  0  0  0  0
  -45.5270  -68.0460   53.5350 H   0  0  0  0  0  0  0  0  0  0  0  0
  -45.2630  -67.5130   51.8740 H   0  0  0  0  0  0  0  0  0  0  0  0
  -47.7320  -67.8150   53.1490 H   0  0  0  0  0  0  0  0  0  0  0  0
  -47.4280  -67.0090   51.6030 H   0  0  0  0  0  0  0  0  0  0  0  0
  -48.6710  -65.4020   52.7230 H   0  0  0  0  0  0  0  0  0  0  0  0
  -47.8890  -65.7610   54.2810 H   0  0  0  0  0  0  0  0  0  0  0  0
  -47.1570  -63.5590   52.7230 H   0  0  0  0  0  0  0  0  0  0  0  0
  -44.6330  -62.9080   53.2730 H   0  0  0  0  0  0  0  0  0  0  0  0
  -43.1630  -63.8180   54.5820 H   0  0  0  0  0  0  0  0  0  0  0  0
  -42.3300  -64.4700   53.1650 H   0  0  0  0  0  0  0  0  0  0  0  0
  -45.8640  -62.6260   51.0200 H   0  0  0  0  0  0  0  0  0  0  0  0
  -45.3520  -62.4190   48.6580 H   0  0  0  0  0  0  0  0  0  0  0  0
  -41.7150  -64.5240   49.1940 H   0  0  0  0  0  0  0  0  0  0  0  0
  -42.2390  -64.7350   51.6000 H   0  0  0  0  0  0  0  0  0  0  0  0
  -41.1800  -62.7380   47.6450 H   0  0  0  0  0  0  0  0  0  0  0  0
  -42.0750  -62.1680   46.1410 H   0  0  0  0  0  0  0  0  0  0  0  0
  -41.5190  -63.8390   46.3130 H   0  0  0  0  0  0  0  0  0  0  0  0
  -44.8750  -66.4430   55.5820 H   0  0  0  0  0  0  0  0  0  0  0  0
  1  2  1  0  0  0  0
  2  7  1  0  0  0  0
  3  4  1  0  0  0  0
  3  2  2  0  0  0  0
  4  5  2  0  0  0  0
  5  8  1  0  0  0  0
  5  6  1  0  0  0  0
  6 28  1  0  0  0  0
  7  6  2  0  0  0  0
  7 29  1  0  0  0  0
  8 25  1  1  0  0  0
  9  8  1  0  0  0  0
 10  9  1  0  0  0  0
 10 30  1  0  0  0  0
 11 10  1  0  0  0  0
 11 32  1  0  0  0  0
 11 12  1  0  0  0  0
 12 35  1  0  0  0  0
 13 14  2  0  0  0  0
 13 12  1  0  0  0  0
 14  9  1  0  0  0  0
 15 14  1  0  0  0  0
 15 37  1  0  0  0  0
 15 16  1  0  0  0  0
 16  8  1  0  0  0  0
 16 38  1  0  0  0  0
 17 15  1  0  0  0  0
 18 40  1  0  0  0  0
 18 17  2  0  0  0  0
 19 18  1  0  0  0  0
 20 19  2  0  0  0  0
 20 21  1  0  0  0  0
 21 22  2  0  0  0  0
 22 17  1  0  0  0  0
 22 43  1  0  0  0  0
 23 20  1  0  0  0  0
 24 23  1  0  0  0  0
 24 44  1  0  0  0  0
 25 47  1  0  0  0  0
 26  3  1  0  0  0  0
 27  4  1  0  0  0  0
 31 10  1  0  0  0  0
 33 11  1  0  0  0  0
 34 12  1  0  0  0  0
 36 13  1  0  0  0  0
 39 16  1  0  0  0  0
 41 19  1  0  0  0  0
 42 21  1  0  0  0  0
 45 24  1  0  0  0  0
 46 24  1  0  0  0  0
M  END
>  <Pose>
1

>  <Score>
-5.78

$$$$
