
 OpenBabel03202209423D

 56 59  0  0  1  0  0  0  0  0999 V2000
  -50.6260  -67.0580   44.5420 B   0  0  0  0  0  0  0  0  0  0  0  0
  -49.3110  -66.2740   45.6680 C   0  0  0  0  0  0  0  0  0  0  0  0
  -48.0990  -65.8450   45.1360 C   0  0  0  0  0  0  0  0  0  0  0  0
  -47.1510  -65.2810   45.9470 C   0  0  0  0  0  0  0  0  0  0  0  0
  -47.3910  -65.1350   47.2960 C   0  0  0  0  0  0  0  0  0  0  0  0
  -48.5970  -65.5660   47.8070 C   0  0  0  0  0  0  0  0  0  0  0  0
  -49.5710  -66.1370   47.0200 C   0  0  0  0  0  0  0  0  0  0  0  0
  -46.4010  -64.5500   48.1500 N   0  0  0  0  0  0  0  0  0  0  0  0
  -46.7360  -63.6510   49.2370 C   0  0  0  0  0  0  0  0  0  0  0  0
  -46.0860  -64.0430   50.5290 C   0  0  0  0  0  0  0  0  0  0  0  0
  -46.5860  -64.7310   51.5690 N   0  0  0  0  0  0  0  0  0  0  0  0
  -45.6210  -64.8340   52.5010 C   0  0  1  0  0  0  0  0  0  0  0  0
  -44.4990  -64.1960   52.0290 N   0  0  0  0  0  0  0  0  0  0  0  0
  -44.8210  -63.7310   50.8350 N   0  0  0  0  0  0  0  0  0  0  0  0
  -43.2580  -64.0010   52.6670 C   0  0  0  0  0  0  0  0  0  0  0  0
  -42.1370  -64.8010   52.2500 C   0  0  1  0  0  0  0  0  0  0  0  0
  -41.3770  -64.1830   51.3450 O   0  0  0  0  0  0  0  0  0  0  0  0
  -41.6530  -66.1100   52.5890 C   0  0  0  0  0  0  0  0  0  0  0  0
  -40.6870  -66.7470   51.7800 C   0  0  0  0  0  0  0  0  0  0  0  0
  -40.1950  -67.9960   52.0530 C   0  0  0  0  0  0  0  0  0  0  0  0
  -40.6290  -68.7000   53.1480 C   0  0  0  0  0  0  0  0  0  0  0  0
  -41.5660  -68.1180   53.9590 C   0  0  0  0  0  0  0  0  0  0  0  0
  -42.0620  -66.8340   53.6660 C   0  0  0  0  0  0  0  0  0  0  0  0
  -40.1280  -69.9700   53.4250 O   0  0  0  0  0  0  0  0  0  0  0  0
  -39.5950  -70.3150   54.6800 C   0  0  0  0  0  0  0  0  0  0  0  0
  -45.5840  -65.4600   53.8270 C   0  0  0  0  0  0  0  0  0  0  0  0
  -46.4220  -66.7020   53.9670 C   0  0  0  0  0  0  0  0  0  0  0  0
  -47.8810  -66.4720   53.7410 C   0  0  0  0  0  0  0  0  0  0  0  0
  -48.1190  -66.5530   52.2510 C   0  0  0  0  0  0  0  0  0  0  0  0
  -47.9260  -65.2170   51.5770 C   0  0  0  0  0  0  0  0  0  0  0  0
  -47.9520  -65.9810   44.0600 H   0  0  0  0  0  0  0  0  0  0  0  0
  -46.2240  -64.9520   45.5310 H   0  0  0  0  0  0  0  0  0  0  0  0
  -48.7870  -65.4540   48.8560 H   0  0  0  0  0  0  0  0  0  0  0  0
  -50.5250  -66.4810   47.3950 H   0  0  0  0  0  0  0  0  0  0  0  0
  -45.4090  -64.8040   47.9490 H   0  0  0  0  0  0  0  0  0  0  0  0
  -46.4790  -62.5870   48.9790 H   0  0  0  0  0  0  0  0  0  0  0  0
  -47.8400  -63.6530   49.3590 H   0  0  0  0  0  0  0  0  0  0  0  0
  -43.3800  -64.0230   53.8100 H   0  0  0  0  0  0  0  0  0  0  0  0
  -42.9070  -62.9030   52.5500 H   0  0  0  0  0  0  0  0  0  0  0  0
  -40.3410  -66.1980   50.9150 H   0  0  0  0  0  0  0  0  0  0  0  0
  -39.4500  -68.4290   51.3900 H   0  0  0  0  0  0  0  0  0  0  0  0
  -41.9200  -68.6620   54.8290 H   0  0  0  0  0  0  0  0  0  0  0  0
  -42.7800  -66.4820   54.3470 H   0  0  0  0  0  0  0  0  0  0  0  0
  -38.8410  -69.5500   54.9820 H   0  0  0  0  0  0  0  0  0  0  0  0
  -39.0550  -71.2780   54.5710 H   0  0  0  0  0  0  0  0  0  0  0  0
  -40.3780  -70.4240   55.4550 H   0  0  0  0  0  0  0  0  0  0  0  0
  -45.9080  -64.7520   54.6160 H   0  0  0  0  0  0  0  0  0  0  0  0
  -44.5400  -65.7700   54.0410 H   0  0  0  0  0  0  0  0  0  0  0  0
  -46.2970  -67.0490   55.0180 H   0  0  0  0  0  0  0  0  0  0  0  0
  -46.0640  -67.5320   53.3260 H   0  0  0  0  0  0  0  0  0  0  0  0
  -48.4600  -67.3030   54.2190 H   0  0  0  0  0  0  0  0  0  0  0  0
  -48.2220  -65.4950   54.0930 H   0  0  0  0  0  0  0  0  0  0  0  0
  -49.1820  -66.8340   52.1070 H   0  0  0  0  0  0  0  0  0  0  0  0
  -47.5140  -67.3570   51.7670 H   0  0  0  0  0  0  0  0  0  0  0  0
  -48.5700  -64.4940   52.1210 H   0  0  0  0  0  0  0  0  0  0  0  0
  -48.2530  -65.3620   50.5260 H   0  0  0  0  0  0  0  0  0  0  0  0
  1  2  1  0  0  0  0
  2  7  1  0  0  0  0
  3  2  2  0  0  0  0
  3  4  1  0  0  0  0
  4  5  2  0  0  0  0
  5  6  1  0  0  0  0
  5  8  1  0  0  0  0
  6 33  1  0  0  0  0
  7 34  1  0  0  0  0
  7  6  2  0  0  0  0
  8  9  1  0  0  0  0
  9 37  1  0  0  0  0
  9 10  1  0  0  0  0
 10 14  2  0  0  0  0
 10 11  1  0  0  0  0
 11 30  1  0  0  0  0
 12 11  1  1  0  0  0
 12 26  1  0  0  0  0
 13 12  1  0  0  0  0
 13 15  1  0  0  0  0
 14 13  1  0  0  0  0
 15 38  1  0  0  0  0
 16 17  1  1  0  0  0
 16 18  1  0  0  0  0
 16 15  1  0  0  0  0
 18 23  1  0  0  0  0
 19 20  1  0  0  0  0
 19 18  2  0  0  0  0
 20 21  2  0  0  0  0
 21 24  1  0  0  0  0
 21 22  1  0  0  0  0
 22 42  1  0  0  0  0
 23 22  2  0  0  0  0
 23 43  1  0  0  0  0
 24 25  1  0  0  0  0
 25 44  1  0  0  0  0
 25 46  1  0  0  0  0
 26 27  1  0  0  0  0
 26 48  1  0  0  0  0
 26 47  1  0  0  0  0
 27 49  1  0  0  0  0
 28 27  1  0  0  0  0
 28 52  1  0  0  0  0
 28 51  1  0  0  0  0
 29 28  1  0  0  0  0
 30 55  1  0  0  0  0
 30 29  1  0  0  0  0
 31  3  1  0  0  0  0
 32  4  1  0  0  0  0
 35  8  1  0  0  0  0
 36  9  1  0  0  0  0
 39 15  1  0  0  0  0
 40 19  1  0  0  0  0
 41 20  1  0  0  0  0
 45 25  1  0  0  0  0
 50 27  1  0  0  0  0
 53 29  1  0  0  0  0
 54 29  1  0  0  0  0
 56 30  1  0  0  0  0
M  END
>  <Pose>
1

>  <Score>
-6.33

$$$$
