
 OpenBabel03202209423D

 55 58  0  0  1  0  0  0  0  0999 V2000
  -42.2790  -67.6030   54.4690 B   0  0  0  0  0  0  0  0  0  0  0  0
  -41.2770  -67.3060   52.8630 C   0  0  0  0  0  0  0  0  0  0  0  0
  -41.2420  -66.0690   52.2510 C   0  0  0  0  0  0  0  0  0  0  0  0
  -40.5210  -65.8610   51.0970 C   0  0  0  0  0  0  0  0  0  0  0  0
  -39.8390  -66.9450   50.5850 C   0  0  0  0  0  0  0  0  0  0  0  0
  -39.8700  -68.1840   51.1920 C   0  0  0  0  0  0  0  0  0  0  0  0
  -40.5940  -68.3880   52.3480 C   0  0  0  0  0  0  0  0  0  0  0  0
  -40.6210  -69.7300   52.9960 C   0  0  0  0  0  0  0  0  0  0  0  0
  -39.1170  -66.7090   49.4170 O   0  0  0  0  0  0  0  0  0  0  0  0
  -39.2890  -65.5960   48.6060 C   0  0  0  0  0  0  0  0  0  0  0  0
  -39.6750  -64.3390   49.3090 C   0  0  2  0  0  0  0  0  0  0  0  0
  -40.5360  -64.5170   50.5090 C   0  0  2  0  0  0  0  0  0  0  0  0
  -40.1610  -63.6190   51.5380 O   0  0  0  0  0  0  0  0  0  0  0  0
  -40.4620  -63.5730   48.3370 N   0  0  0  0  0  4  0  0  0  0  0  0
  -41.8660  -63.7040   48.5200 C   0  0  0  0  0  0  0  0  0  0  0  0
  -42.5120  -62.5780   47.6980 C   0  0  0  0  0  0  0  0  0  0  0  0
  -42.2110  -62.8440   46.3730 O   0  0  0  0  0  0  0  0  0  0  0  0
  -40.8460  -62.8510   46.1100 C   0  0  0  0  0  0  0  0  0  0  0  0
  -40.1270  -63.8900   46.9820 C   0  0  0  0  0  0  0  0  0  0  0  0
  -38.4810  -63.4770   49.6650 C   0  0  0  0  0  0  0  0  0  0  0  0
  -37.3930  -63.5860   48.7430 N   0  0  0  0  0  4  0  0  0  0  0  0
  -37.2420  -62.4060   47.9100 C   0  0  0  0  0  0  0  0  0  0  0  0
  -35.7860  -61.9780   47.7960 C   0  0  0  0  0  0  0  0  0  0  0  0
  -35.2500  -61.6020   49.0160 O   0  0  0  0  0  0  0  0  0  0  0  0
  -35.7750  -62.3620   50.0560 C   0  0  0  0  0  0  0  0  0  0  0  0
  -36.1230  -63.7180   49.4760 C   0  0  0  0  0  0  0  0  0  0  0  0
  -41.8010  -65.2400   52.6970 H   0  0  0  0  0  0  0  0  0  0  0  0
  -39.3270  -69.0180   50.7720 H   0  0  0  0  0  0  0  0  0  0  0  0
  -41.3760  -70.3870   52.5090 H   0  0  0  0  0  0  0  0  0  0  0  0
  -39.6460  -70.2400   52.9270 H   0  0  0  0  0  0  0  0  0  0  0  0
  -40.9460  -69.5990   54.0490 H   0  0  0  0  0  0  0  0  0  0  0  0
  -38.3520  -65.4450   48.0220 H   0  0  0  0  0  0  0  0  0  0  0  0
  -40.0600  -65.8740   47.8270 H   0  0  0  0  0  0  0  0  0  0  0  0
  -41.6170  -64.2530   50.3090 H   0  0  0  0  0  0  0  0  0  0  0  0
  -39.3190  -63.1600   51.3390 H   0  0  0  0  0  0  0  0  0  0  0  0
  -40.2020  -62.5740   48.5000 H   0  0  0  0  0  0  0  0  0  0  0  0
  -42.2310  -63.5880   49.5380 H   0  0  0  0  0  0  0  0  0  0  0  0
  -42.2410  -64.6490   48.0330 H   0  0  0  0  0  0  0  0  0  0  0  0
  -43.5890  -62.6430   47.8380 H   0  0  0  0  0  0  0  0  0  0  0  0
  -42.0570  -61.6420   48.0670 H   0  0  0  0  0  0  0  0  0  0  0  0
  -40.7140  -63.0580   45.0390 H   0  0  0  0  0  0  0  0  0  0  0  0
  -40.4530  -61.8640   46.4320 H   0  0  0  0  0  0  0  0  0  0  0  0
  -40.5170  -64.8690   46.6390 H   0  0  0  0  0  0  0  0  0  0  0  0
  -39.0500  -63.8000   46.7480 H   0  0  0  0  0  0  0  0  0  0  0  0
  -38.7360  -62.4130   49.7890 H   0  0  0  0  0  0  0  0  0  0  0  0
  -38.1210  -63.8270   50.6760 H   0  0  0  0  0  0  0  0  0  0  0  0
  -37.4280  -64.3980   48.1090 H   0  0  0  0  0  0  0  0  0  0  0  0
  -37.7700  -61.5600   48.4030 H   0  0  0  0  0  0  0  0  0  0  0  0
  -37.5940  -62.5680   46.8710 H   0  0  0  0  0  0  0  0  0  0  0  0
  -35.1720  -62.7000   47.2390 H   0  0  0  0  0  0  0  0  0  0  0  0
  -35.8050  -61.0470   47.1650 H   0  0  0  0  0  0  0  0  0  0  0  0
  -36.6810  -61.8300   50.4180 H   0  0  0  0  0  0  0  0  0  0  0  0
  -35.0010  -62.4390   50.8380 H   0  0  0  0  0  0  0  0  0  0  0  0
  -35.3380  -64.0460   48.7630 H   0  0  0  0  0  0  0  0  0  0  0  0
  -36.1930  -64.5060   50.2550 H   0  0  0  0  0  0  0  0  0  0  0  0
  2  1  1  0  0  0  0
  3 27  1  0  0  0  0
  3  2  2  0  0  0  0
  4  3  1  0  0  0  0
  5  4  2  0  0  0  0
  5  6  1  0  0  0  0
  6  7  2  0  0  0  0
  7  2  1  0  0  0  0
  7  8  1  0  0  0  0
  8 31  1  0  0  0  0
  9  5  1  0  0  0  0
 10 11  1  0  0  0  0
 10  9  1  0  0  0  0
 11 20  1  1  0  0  0
 11 12  1  0  0  0  0
 12 34  1  6  0  0  0
 12  4  1  0  0  0  0
 12 13  1  0  0  0  0
 14 36  1  0  0  0  0
 14 15  1  0  0  0  0
 14 11  1  0  0  0  0
 15 37  1  0  0  0  0
 16 39  1  0  0  0  0
 16 40  1  0  0  0  0
 16 15  1  0  0  0  0
 17 16  1  0  0  0  0
 18 17  1  0  0  0  0
 18 42  1  0  0  0  0
 18 19  1  0  0  0  0
 19 14  1  0  0  0  0
 20 45  1  0  0  0  0
 20 46  1  0  0  0  0
 21 26  1  0  0  0  0
 21 20  1  0  0  0  0
 22 48  1  0  0  0  0
 22 21  1  0  0  0  0
 23 22  1  0  0  0  0
 23 24  1  0  0  0  0
 24 25  1  0  0  0  0
 25 52  1  0  0  0  0
 25 53  1  0  0  0  0
 26 25  1  0  0  0  0
 26 55  1  0  0  0  0
 28  6  1  0  0  0  0
 29  8  1  0  0  0  0
 30  8  1  0  0  0  0
 32 10  1  0  0  0  0
 33 10  1  0  0  0  0
 35 13  1  0  0  0  0
 38 15  1  0  0  0  0
 41 18  1  0  0  0  0
 43 19  1  0  0  0  0
 44 19  1  0  0  0  0
 47 21  1  0  0  0  0
 49 22  1  0  0  0  0
 50 23  1  0  0  0  0
 51 23  1  0  0  0  0
 54 26  1  0  0  0  0
M  END
>  <Pose>
1

>  <Score>
-4.24

$$$$
