
 OpenBabel03202209423D

 60 63  0  0  0  0  0  0  0  0999 V2000
  -38.2890  -67.6480   46.3990 B   0  0  0  0  0  0  0  0  0  0  0  0
  -38.2390  -66.2270   47.6390 C   0  0  0  0  0  0  0  0  0  0  0  0
  -39.2410  -66.1570   48.5770 C   0  0  0  0  0  0  0  0  0  0  0  0
  -39.3100  -65.1460   49.5510 C   0  0  0  0  0  0  0  0  0  0  0  0
  -38.3120  -64.1640   49.5670 C   0  0  0  0  0  0  0  0  0  0  0  0
  -37.3150  -64.2470   48.6210 C   0  0  0  0  0  0  0  0  0  0  0  0
  -37.2660  -65.2500   47.6700 C   0  0  0  0  0  0  0  0  0  0  0  0
  -36.1640  -65.3130   46.6500 C   0  0  0  0  0  0  0  0  0  0  0  0
  -35.9570  -62.9100   48.6450 B   0  0  0  0  0  0  0  0  0  0  0  0
  -40.3960  -65.1190   50.5120 C   0  0  0  0  0  0  0  0  0  0  0  0
  -40.7620  -63.9840   50.9070 O   0  0  0  0  0  0  0  0  0  0  0  0
  -40.9620  -66.4160   50.9300 C   0  0  0  0  0  0  0  0  0  0  0  0
  -41.3660  -67.0020   49.5030 C   0  0  0  0  0  0  0  0  0  0  0  0
  -40.2760  -67.0700   48.6550 O   0  0  0  0  0  0  0  0  0  0  0  0
  -42.1910  -66.3850   51.6970 C   0  0  0  0  0  0  0  0  0  0  0  0
  -43.4030  -65.7960   51.3750 N   0  0  0  0  0  4  0  0  0  0  0  0
  -43.7490  -64.4850   51.7630 C   0  0  0  0  0  0  0  0  0  0  0  0
  -45.2480  -64.2670   51.9230 C   0  0  0  0  0  0  0  0  0  0  0  0
  -45.8080  -65.0680   53.0550 C   0  0  0  0  0  0  0  0  0  0  0  0
  -45.0530  -66.3590   53.1370 C   0  0  0  0  0  0  0  0  0  0  0  0
  -44.5020  -66.6960   51.7900 C   0  0  0  0  0  0  0  0  0  0  0  0
  -39.8910  -67.2840   51.4700 C   0  0  0  0  0  0  0  0  0  0  0  0
  -40.1900  -68.3430   52.3410 N   0  0  0  0  0  4  0  0  0  0  0  0
  -38.9990  -69.1960   52.4520 C   0  0  0  0  0  0  0  0  0  0  0  0
  -39.3050  -70.5160   53.1290 C   0  0  0  0  0  0  0  0  0  0  0  0
  -39.6970  -70.1580   54.5720 C   0  0  0  0  0  0  0  0  0  0  0  0
  -40.9260  -69.2930   54.4200 C   0  0  0  0  0  0  0  0  0  0  0  0
  -40.4940  -67.9940   53.7190 C   0  0  0  0  0  0  0  0  0  0  0  0
  -38.3700  -63.3940   50.3100 H   0  0  0  0  0  0  0  0  0  0  0  0
  -35.2480  -65.6140   47.2200 H   0  0  0  0  0  0  0  0  0  0  0  0
  -36.4270  -66.0210   45.8640 H   0  0  0  0  0  0  0  0  0  0  0  0
  -35.9990  -64.2760   46.2950 H   0  0  0  0  0  0  0  0  0  0  0  0
  -42.0730  -66.2380   49.1220 H   0  0  0  0  0  0  0  0  0  0  0  0
  -41.8980  -67.9320   49.6540 H   0  0  0  0  0  0  0  0  0  0  0  0
  -41.9490  -66.0370   52.7660 H   0  0  0  0  0  0  0  0  0  0  0  0
  -42.4330  -67.4950   51.9380 H   0  0  0  0  0  0  0  0  0  0  0  0
  -43.5760  -65.8190   50.2840 H   0  0  0  0  0  0  0  0  0  0  0  0
  -43.3890  -63.7570   50.9920 H   0  0  0  0  0  0  0  0  0  0  0  0
  -43.3310  -64.1360   52.7110 H   0  0  0  0  0  0  0  0  0  0  0  0
  -45.7290  -64.5860   50.9870 H   0  0  0  0  0  0  0  0  0  0  0  0
  -45.4850  -63.2130   52.0920 H   0  0  0  0  0  0  0  0  0  0  0  0
  -46.8880  -65.2540   52.9890 H   0  0  0  0  0  0  0  0  0  0  0  0
  -45.6010  -64.4610   53.9870 H   0  0  0  0  0  0  0  0  0  0  0  0
  -45.7830  -67.1590   53.3860 H   0  0  0  0  0  0  0  0  0  0  0  0
  -44.3010  -66.3890   53.9470 H   0  0  0  0  0  0  0  0  0  0  0  0
  -44.1690  -67.7660   51.6920 H   0  0  0  0  0  0  0  0  0  0  0  0
  -45.3200  -66.5590   51.0640 H   0  0  0  0  0  0  0  0  0  0  0  0
  -39.0570  -66.6710   51.9020 H   0  0  0  0  0  0  0  0  0  0  0  0
  -39.3140  -67.7770   50.5820 H   0  0  0  0  0  0  0  0  0  0  0  0
  -40.9410  -69.0100   52.0710 H   0  0  0  0  0  0  0  0  0  0  0  0
  -38.3010  -68.6580   53.1580 H   0  0  0  0  0  0  0  0  0  0  0  0
  -38.4580  -69.3400   51.5310 H   0  0  0  0  0  0  0  0  0  0  0  0
  -40.1370  -71.0240   52.6120 H   0  0  0  0  0  0  0  0  0  0  0  0
  -38.3830  -71.0910   53.1620 H   0  0  0  0  0  0  0  0  0  0  0  0
  -39.8700  -71.0530   55.1680 H   0  0  0  0  0  0  0  0  0  0  0  0
  -38.8910  -69.4980   54.9590 H   0  0  0  0  0  0  0  0  0  0  0  0
  -41.6230  -69.7880   53.6860 H   0  0  0  0  0  0  0  0  0  0  0  0
  -41.4640  -69.0910   55.3460 H   0  0  0  0  0  0  0  0  0  0  0  0
  -41.3700  -67.3420   53.8510 H   0  0  0  0  0  0  0  0  0  0  0  0
  -39.5980  -67.6420   54.2550 H   0  0  0  0  0  0  0  0  0  0  0  0
  1  2  1  0  0  0  0
  2  7  2  0  0  0  0
  2  3  1  0  0  0  0
  3 14  1  0  0  0  0
  3  4  2  0  0  0  0
  4  5  1  0  0  0  0
  4 10  1  0  0  0  0
  5 29  1  0  0  0  0
  6  9  1  0  0  0  0
  6  5  2  0  0  0  0
  7  6  1  0  0  0  0
  8 30  1  0  0  0  0
  8  7  1  0  0  0  0
 10 11  2  0  0  0  0
 10 12  1  0  0  0  0
 12 22  1  0  0  0  0
 12 15  1  0  0  0  0
 13 34  1  0  0  0  0
 13 12  1  0  0  0  0
 14 13  1  0  0  0  0
 15 36  1  0  0  0  0
 15 35  1  0  0  0  0
 16 15  1  0  0  0  0
 16 17  1  0  0  0  0
 16 21  1  0  0  0  0
 17 18  1  0  0  0  0
 17 39  1  0  0  0  0
 18 41  1  0  0  0  0
 18 19  1  0  0  0  0
 19 20  1  0  0  0  0
 19 43  1  0  0  0  0
 20 44  1  0  0  0  0
 20 45  1  0  0  0  0
 21 20  1  0  0  0  0
 22 48  1  0  0  0  0
 22 23  1  0  0  0  0
 23 24  1  0  0  0  0
 23 28  1  0  0  0  0
 24 25  1  0  0  0  0
 24 51  1  0  0  0  0
 25 54  1  0  0  0  0
 25 26  1  0  0  0  0
 26 56  1  0  0  0  0
 26 55  1  0  0  0  0
 27 26  1  0  0  0  0
 27 58  1  0  0  0  0
 28 59  1  0  0  0  0
 28 60  1  0  0  0  0
 28 27  1  0  0  0  0
 31  8  1  0  0  0  0
 32  8  1  0  0  0  0
 33 13  1  0  0  0  0
 37 16  1  0  0  0  0
 38 17  1  0  0  0  0
 40 18  1  0  0  0  0
 42 19  1  0  0  0  0
 46 21  1  0  0  0  0
 47 21  1  0  0  0  0
 49 22  1  0  0  0  0
 50 23  1  0  0  0  0
 52 24  1  0  0  0  0
 53 25  1  0  0  0  0
 57 27  1  0  0  0  0
M  END
>  <Pose>
1

>  <Score>
-5.62

$$$$
