
 OpenBabel03202209423D

 41 44  0  0  0  0  0  0  0  0999 V2000
  -48.5880  -68.2350   56.6890 F   0  0  0  0  0  0  0  0  0  0  0  0
  -49.0690  -68.7800   55.5370 C   0  0  0  0  0  0  0  0  0  0  0  0
  -48.3720  -68.5080   54.3480 C   0  0  0  0  0  0  0  0  0  0  0  0
  -48.8490  -69.0500   53.1960 C   0  0  0  0  0  0  0  0  0  0  0  0
  -50.0010  -69.8640   53.1480 C   0  0  0  0  0  0  0  0  0  0  0  0
  -50.6550  -70.1070   54.3340 C   0  0  0  0  0  0  0  0  0  0  0  0
  -50.1910  -69.5680   55.5160 C   0  0  0  0  0  0  0  0  0  0  0  0
  -51.7660  -70.8790   54.3560 F   0  0  0  0  0  0  0  0  0  0  0  0
  -47.2280  -67.6970   54.4150 N   0  0  0  0  0  0  0  0  0  0  0  0
  -46.7890  -66.8460   53.4040 C   0  0  0  0  0  0  0  0  0  0  0  0
  -47.2140  -66.8710   52.2450 O   0  0  0  0  0  0  0  0  0  0  0  0
  -45.7210  -65.8160   53.7140 C   0  0  0  0  0  0  0  0  0  0  0  0
  -44.4550  -66.4910   53.9000 N   0  0  0  0  0  0  0  0  0  0  0  0
  -44.2250  -67.3440   54.8820 N   0  0  0  0  0  0  0  0  0  0  0  0
  -42.9740  -67.7430   54.7290 N   0  0  0  0  0  0  0  0  0  0  0  0
  -42.4040  -67.1540   53.6580 C   0  0  0  0  0  0  0  0  0  0  0  0
  -43.3550  -66.3600   53.1400 C   0  0  0  0  0  0  0  0  0  0  0  0
  -42.7580  -65.7690   52.0510 C   0  0  0  0  0  0  0  0  0  0  0  0
  -43.3250  -64.9440   51.2840 O   0  0  0  0  0  0  0  0  0  0  0  0
  -41.4830  -66.1780   51.8940 N   0  0  0  0  0  0  0  0  0  0  0  0
  -41.2540  -67.0430   52.8950 C   0  0  0  0  0  0  0  0  0  0  0  0
  -40.1690  -67.6490   53.0980 O   0  0  0  0  0  0  0  0  0  0  0  0
  -40.5860  -65.7480   50.8550 C   0  0  0  0  0  0  0  0  0  0  0  0
  -40.2420  -66.6000   49.8240 C   0  0  0  0  0  0  0  0  0  0  0  0
  -39.3860  -66.2320   48.8060 C   0  0  0  0  0  0  0  0  0  0  0  0
  -38.8700  -64.9510   48.8510 C   0  0  0  0  0  0  0  0  0  0  0  0
  -39.1800  -64.0540   49.8590 C   0  0  0  0  0  0  0  0  0  0  0  0
  -40.0410  -64.4870   50.8460 C   0  0  0  0  0  0  0  0  0  0  0  0
  -37.6810  -64.4600   47.4230 B   0  0  0  0  0  0  0  0  0  0  0  0
  -48.3830  -68.8950   52.2510 H   0  0  0  0  0  0  0  0  0  0  0  0
  -50.3480  -70.2750   52.2140 H   0  0  0  0  0  0  0  0  0  0  0  0
  -50.7200  -69.7680   56.4560 H   0  0  0  0  0  0  0  0  0  0  0  0
  -46.6260  -67.7130   55.3080 H   0  0  0  0  0  0  0  0  0  0  0  0
  -45.9960  -65.2830   54.6540 H   0  0  0  0  0  0  0  0  0  0  0  0
  -45.7270  -65.0880   52.9020 H   0  0  0  0  0  0  0  0  0  0  0  0
  -44.8940  -67.6540   55.6440 H   0  0  0  0  0  0  0  0  0  0  0  0
  -42.5180  -68.4350   55.3790 H   0  0  0  0  0  0  0  0  0  0  0  0
  -40.6770  -67.5890   49.8420 H   0  0  0  0  0  0  0  0  0  0  0  0
  -39.1250  -66.9260   47.9940 H   0  0  0  0  0  0  0  0  0  0  0  0
  -38.7400  -63.0710   49.8310 H   0  0  0  0  0  0  0  0  0  0  0  0
  -40.2870  -63.7880   51.6380 H   0  0  0  0  0  0  0  0  0  0  0  0
  2  1  1  0  0  0  0
  3  9  1  0  0  0  0
  3  2  2  0  0  0  0
  4  3  1  0  0  0  0
  5  4  2  0  0  0  0
  5  6  1  0  0  0  0
  6  8  1  0  0  0  0
  6  7  2  0  0  0  0
  7  2  1  0  0  0  0
  7 32  1  0  0  0  0
  9 33  1  0  0  0  0
 10 12  1  0  0  0  0
 10  9  1  0  0  0  0
 11 10  2  0  0  0  0
 12 13  1  0  0  0  0
 12 34  1  0  0  0  0
 13 14  1  0  0  0  0
 14 36  1  0  0  0  0
 15 14  1  0  0  0  0
 15 37  1  0  0  0  0
 16 15  1  0  0  0  0
 17 16  2  0  0  0  0
 17 13  1  0  0  0  0
 18 17  1  0  0  0  0
 19 18  2  0  0  0  0
 20 18  1  0  0  0  0
 20 21  1  0  0  0  0
 21 22  2  0  0  0  0
 21 16  1  0  0  0  0
 23 20  1  0  0  0  0
 24 38  1  0  0  0  0
 24 23  2  0  0  0  0
 25 26  2  0  0  0  0
 25 24  1  0  0  0  0
 26 27  1  0  0  0  0
 27 28  2  0  0  0  0
 28 23  1  0  0  0  0
 28 41  1  0  0  0  0
 29 26  1  0  0  0  0
 30  4  1  0  0  0  0
 31  5  1  0  0  0  0
 35 12  1  0  0  0  0
 39 25  1  0  0  0  0
 40 27  1  0  0  0  0
M  END
>  <Pose>
1

>  <Score>
-7.16

$$$$
