
 OpenBabel03202209423D

 53 56  0  0  1  0  0  0  0  0999 V2000
  -42.3390  -67.2680   55.0440 F   0  0  0  0  0  0  0  0  0  0  0  0
  -41.4340  -67.8150   54.2480 C   0  0  0  0  0  0  0  0  0  0  0  0
  -41.0320  -67.2100   53.0740 C   0  0  0  0  0  0  0  0  0  0  0  0
  -40.0870  -67.8990   52.3570 C   0  0  0  0  0  0  0  0  0  0  0  0
  -39.5440  -69.1160   52.7380 C   0  0  0  0  0  0  0  0  0  0  0  0
  -39.9660  -69.6840   53.9060 C   0  0  0  0  0  0  0  0  0  0  0  0
  -40.8990  -69.0410   54.6530 C   0  0  0  0  0  0  0  0  0  0  0  0
  -41.5470  -65.9060   52.6270 C   0  0  2  0  0  0  0  0  0  0  0  0
  -42.8640  -65.9510   52.0110 N   0  0  0  0  0  0  0  0  0  0  0  0
  -42.5950  -66.7070   50.8120 C   0  0  0  0  0  0  0  0  0  0  0  0
  -43.3600  -67.4880   50.1870 O   0  0  0  0  0  0  0  0  0  0  0  0
  -41.1970  -66.4270   50.3770 C   0  0  0  0  0  0  0  0  0  0  0  0
  -40.5290  -66.8300   49.4270 O   0  0  0  0  0  0  0  0  0  0  0  0
  -40.7370  -65.4690   51.4250 C   0  0  0  0  0  0  0  0  0  0  0  0
  -39.8470  -64.5170   51.2880 C   0  0  0  0  0  0  0  0  0  0  0  0
  -39.5260  -63.7100   52.3980 O   0  0  0  0  0  0  0  0  0  0  0  0
  -39.1800  -64.2640   50.0190 C   0  0  0  0  0  0  0  0  0  0  0  0
  -39.4740  -63.1090   49.3280 C   0  0  0  0  0  0  0  0  0  0  0  0
  -38.8980  -62.8190   48.1030 C   0  0  0  0  0  0  0  0  0  0  0  0
  -37.9990  -63.7000   47.5420 C   0  0  0  0  0  0  0  0  0  0  0  0
  -37.6940  -64.8480   48.2070 C   0  0  0  0  0  0  0  0  0  0  0  0
  -38.2860  -65.1320   49.4500 C   0  0  0  0  0  0  0  0  0  0  0  0
  -37.1800  -63.3230   45.8380 B   0  0  0  0  0  0  0  0  0  0  0  0
  -44.1280  -65.4550   52.3540 C   0  0  0  0  0  0  0  0  0  0  0  0
  -44.5970  -65.4930   53.7640 C   0  0  0  0  0  0  0  0  0  0  0  0
  -46.0090  -65.7050   53.9100 N   0  0  0  0  0  4  0  0  0  0  0  0
  -46.2670  -67.1300   53.9490 C   0  0  0  0  0  0  0  0  0  0  0  0
  -47.7360  -67.4030   54.2220 C   0  0  0  0  0  0  0  0  0  0  0  0
  -48.4950  -66.8220   53.2240 O   0  0  0  0  0  0  0  0  0  0  0  0
  -48.2320  -65.4570   53.1410 C   0  0  0  0  0  0  0  0  0  0  0  0
  -46.7690  -65.2280   52.7370 C   0  0  0  0  0  0  0  0  0  0  0  0
  -39.7220  -67.4920   51.4510 H   0  0  0  0  0  0  0  0  0  0  0  0
  -38.8000  -69.6360   52.1530 H   0  0  0  0  0  0  0  0  0  0  0  0
  -39.5550  -70.6360   54.2230 H   0  0  0  0  0  0  0  0  0  0  0  0
  -41.2240  -69.5070   55.5770 H   0  0  0  0  0  0  0  0  0  0  0  0
  -41.4180  -65.1680   53.4040 H   0  0  0  0  0  0  0  0  0  0  0  0
  -40.1740  -62.3660   49.7080 H   0  0  0  0  0  0  0  0  0  0  0  0
  -39.1090  -61.9230   47.5390 H   0  0  0  0  0  0  0  0  0  0  0  0
  -36.9880  -65.5440   47.7720 H   0  0  0  0  0  0  0  0  0  0  0  0
  -38.0480  -66.0420   49.9520 H   0  0  0  0  0  0  0  0  0  0  0  0
  -44.9230  -65.9850   51.7560 H   0  0  0  0  0  0  0  0  0  0  0  0
  -44.2990  -64.3720   52.0400 H   0  0  0  0  0  0  0  0  0  0  0  0
  -44.1080  -66.4010   54.2230 H   0  0  0  0  0  0  0  0  0  0  0  0
  -44.2040  -64.6560   54.3890 H   0  0  0  0  0  0  0  0  0  0  0  0
  -46.4410  -65.1820   54.6990 H   0  0  0  0  0  0  0  0  0  0  0  0
  -46.0810  -67.5000   52.8980 H   0  0  0  0  0  0  0  0  0  0  0  0
  -45.5860  -67.6930   54.5840 H   0  0  0  0  0  0  0  0  0  0  0  0
  -47.9630  -67.0200   55.2380 H   0  0  0  0  0  0  0  0  0  0  0  0
  -47.8740  -68.4980   54.1770 H   0  0  0  0  0  0  0  0  0  0  0  0
  -48.3440  -65.0540   54.1850 H   0  0  0  0  0  0  0  0  0  0  0  0
  -48.9110  -64.9250   52.4670 H   0  0  0  0  0  0  0  0  0  0  0  0
  -46.4990  -65.8250   51.8640 H   0  0  0  0  0  0  0  0  0  0  0  0
  -46.6040  -64.1440   52.6530 H   0  0  0  0  0  0  0  0  0  0  0  0
  2  7  1  0  0  0  0
  2  1  1  0  0  0  0
  3  2  2  0  0  0  0
  4  5  2  0  0  0  0
  4  3  1  0  0  0  0
  5  6  1  0  0  0  0
  6 34  1  0  0  0  0
  6  7  2  0  0  0  0
  7 35  1  0  0  0  0
  8  3  1  0  0  0  0
  8 36  1  1  0  0  0
  9 24  1  0  0  0  0
  9  8  1  0  0  0  0
 10  9  1  0  0  0  0
 11 10  2  0  0  0  0
 12 10  1  0  0  0  0
 12 14  1  0  0  0  0
 13 12  2  0  0  0  0
 14  8  1  0  0  0  0
 15 14  2  0  0  0  0
 15 16  1  0  0  0  0
 17 15  1  0  0  0  0
 18 37  1  0  0  0  0
 18 17  2  0  0  0  0
 19 18  1  0  0  0  0
 20 19  2  0  0  0  0
 20 21  1  0  0  0  0
 21 22  2  0  0  0  0
 22 40  1  0  0  0  0
 22 17  1  0  0  0  0
 23 20  1  0  0  0  0
 24 25  1  0  0  0  0
 25 26  1  0  0  0  0
 25 43  1  0  0  0  0
 25 44  1  0  0  0  0
 26 27  1  0  0  0  0
 26 45  1  0  0  0  0
 27 28  1  0  0  0  0
 27 47  1  0  0  0  0
 28 48  1  0  0  0  0
 29 28  1  0  0  0  0
 30 29  1  0  0  0  0
 30 50  1  0  0  0  0
 31 30  1  0  0  0  0
 31 26  1  0  0  0  0
 32  4  1  0  0  0  0
 33  5  1  0  0  0  0
 38 19  1  0  0  0  0
 39 21  1  0  0  0  0
 41 24  1  0  0  0  0
 42 24  1  0  0  0  0
 46 27  1  0  0  0  0
 49 28  1  0  0  0  0
 51 30  1  0  0  0  0
 52 31  1  0  0  0  0
 53 31  1  0  0  0  0
M  END
>  <Pose>
1

>  <Score>
-5.10

$$$$
