
 OpenBabel03202209423D

 41 44  0  0  0  0  0  0  0  0999 V2000
  -51.0730  -63.1600   50.9810 F   0  0  0  0  0  0  0  0  0  0  0  0
  -49.8180  -63.5590   51.3470 C   0  0  0  0  0  0  0  0  0  0  0  0
  -49.5080  -63.6940   52.6700 C   0  0  0  0  0  0  0  0  0  0  0  0
  -48.2290  -64.1030   53.0560 C   0  0  0  0  0  0  0  0  0  0  0  0
  -47.2470  -64.3790   52.1310 C   0  0  0  0  0  0  0  0  0  0  0  0
  -47.5950  -64.2320   50.7970 C   0  0  0  0  0  0  0  0  0  0  0  0
  -48.8520  -63.8300   50.4060 C   0  0  0  0  0  0  0  0  0  0  0  0
  -45.9280  -64.8070   52.4660 N   0  0  0  0  0  0  0  0  0  0  0  0
  -45.5500  -65.8780   53.1830 C   0  0  0  0  0  0  0  0  0  0  0  0
  -46.3960  -66.6800   53.6640 O   0  0  0  0  0  0  0  0  0  0  0  0
  -44.1770  -65.9660   53.3070 C   0  0  0  0  0  0  0  0  0  0  0  0
  -43.7070  -64.9130   52.6440 C   0  0  0  0  0  0  0  0  0  0  0  0
  -42.3750  -64.9550   52.7420 N   0  0  0  0  0  0  0  0  0  0  0  0
  -42.0420  -66.0170   53.4530 N   0  0  0  0  0  0  0  0  0  0  0  0
  -43.1390  -66.6710   53.8230 N   0  0  0  0  0  0  0  0  0  0  0  0
  -43.2620  -67.8720   54.5970 C   0  0  0  0  0  0  0  0  0  0  0  0
  -42.0280  -68.6470   54.7650 C   0  0  0  0  0  0  0  0  0  0  0  0
  -41.4690  -68.6000   55.8710 O   0  0  0  0  0  0  0  0  0  0  0  0
  -41.5140  -69.4070   53.7100 N   0  0  0  0  0  0  0  0  0  0  0  0
  -40.3680  -69.1710   52.9150 C   0  0  0  0  0  0  0  0  0  0  0  0
  -39.1910  -69.8540   53.1100 C   0  0  0  0  0  0  0  0  0  0  0  0
  -38.0380  -69.6480   52.3460 C   0  0  0  0  0  0  0  0  0  0  0  0
  -38.1230  -68.7040   51.3540 C   0  0  0  0  0  0  0  0  0  0  0  0
  -39.2860  -68.0080   51.1370 C   0  0  0  0  0  0  0  0  0  0  0  0
  -40.4030  -68.2290   51.9010 C   0  0  0  0  0  0  0  0  0  0  0  0
  -36.5720  -68.3690   50.2590 B   0  0  0  0  0  0  0  0  0  0  0  0
  -44.7640  -64.1960   52.1250 C   0  0  0  0  0  0  0  0  0  0  0  0
  -44.7450  -63.1370   51.4350 O   0  0  0  0  0  0  0  0  0  0  0  0
  -50.2750  -63.4780   53.3990 H   0  0  0  0  0  0  0  0  0  0  0  0
  -48.0030  -64.2040   54.0940 H   0  0  0  0  0  0  0  0  0  0  0  0
  -46.8090  -64.4530   50.0630 H   0  0  0  0  0  0  0  0  0  0  0  0
  -49.1060  -63.7210   49.3630 H   0  0  0  0  0  0  0  0  0  0  0  0
  -41.7320  -64.2390   52.3060 H   0  0  0  0  0  0  0  0  0  0  0  0
  -41.0860  -66.3120   53.6950 H   0  0  0  0  0  0  0  0  0  0  0  0
  -43.9990  -68.5410   54.0600 H   0  0  0  0  0  0  0  0  0  0  0  0
  -43.7680  -67.6770   55.5860 H   0  0  0  0  0  0  0  0  0  0  0  0
  -42.0420  -70.3120   53.4340 H   0  0  0  0  0  0  0  0  0  0  0  0
  -39.0570  -70.6130   53.8750 H   0  0  0  0  0  0  0  0  0  0  0  0
  -37.1240  -70.1990   52.5210 H   0  0  0  0  0  0  0  0  0  0  0  0
  -39.3390  -67.2610   50.3450 H   0  0  0  0  0  0  0  0  0  0  0  0
  -41.3310  -67.6540   51.7060 H   0  0  0  0  0  0  0  0  0  0  0  0
  1  2  1  0  0  0  0
  2  3  1  0  0  0  0
  3  4  2  0  0  0  0
  3 29  1  0  0  0  0
  4 30  1  0  0  0  0
  5  8  1  0  0  0  0
  5  4  1  0  0  0  0
  6  5  2  0  0  0  0
  7  6  1  0  0  0  0
  7  2  2  0  0  0  0
  8  9  1  0  0  0  0
  9 11  1  0  0  0  0
  9 10  2  0  0  0  0
 11 15  1  0  0  0  0
 12 13  1  0  0  0  0
 12 11  2  0  0  0  0
 13 14  1  0  0  0  0
 14 34  1  0  0  0  0
 14 15  1  0  0  0  0
 15 16  1  0  0  0  0
 16 17  1  0  0  0  0
 16 36  1  0  0  0  0
 17 18  2  0  0  0  0
 19 17  1  0  0  0  0
 20 21  1  0  0  0  0
 20 19  1  0  0  0  0
 21 38  1  0  0  0  0
 22 39  1  0  0  0  0
 22 21  2  0  0  0  0
 23 22  1  0  0  0  0
 24 23  2  0  0  0  0
 24 25  1  0  0  0  0
 25 20  2  0  0  0  0
 26 23  1  0  0  0  0
 27  8  1  0  0  0  0
 27 12  1  0  0  0  0
 28 27  2  0  0  0  0
 31  6  1  0  0  0  0
 32  7  1  0  0  0  0
 33 13  1  0  0  0  0
 35 16  1  0  0  0  0
 37 19  1  0  0  0  0
 40 24  1  0  0  0  0
 41 25  1  0  0  0  0
M  END
>  <Pose>
1

>  <Score>
-6.45

$$$$
