
 OpenBabel03202209423D

 39 42  0  0  1  0  0  0  0  0999 V2000
  -39.5010  -70.3770   54.3270 I   0  0  0  0  0  0  0  0  0  0  0  0
  -40.6690  -68.7660   53.6450 C   0  0  0  0  0  0  0  0  0  0  0  0
  -41.4730  -68.0600   54.5410 C   0  0  0  0  0  0  0  0  0  0  0  0
  -42.2510  -67.0010   54.1370 C   0  0  0  0  0  0  0  0  0  0  0  0
  -42.1870  -66.6760   52.7750 C   0  0  0  0  0  0  0  0  0  0  0  0
  -41.3950  -67.3760   51.9020 C   0  0  0  0  0  0  0  0  0  0  0  0
  -40.6240  -68.4320   52.3270 C   0  0  0  0  0  0  0  0  0  0  0  0
  -41.3350  -66.9050   50.0580 B   0  0  0  0  0  0  0  0  0  0  0  0
  -43.1150  -66.2070   55.0500 C   0  0  2  0  0  0  0  0  0  0  0  0
  -44.4660  -66.6830   54.8550 N   0  0  0  0  0  0  0  0  0  0  0  0
  -45.1720  -66.3350   53.6600 C   0  0  0  0  0  0  0  0  0  0  0  0
  -46.4830  -67.0790   52.7920 S   0  0  0  0  0  0  0  0  0  0  0  0
  -46.6420  -65.9630   51.5200 C   0  0  0  0  0  0  0  0  0  0  0  0
  -45.6830  -65.0520   51.7960 C   0  0  0  0  0  0  0  0  0  0  0  0
  -44.9250  -65.2350   52.8910 C   0  0  0  0  0  0  0  0  0  0  0  0
  -43.8110  -64.4200   53.4540 C   0  0  0  0  0  0  0  0  0  0  0  0
  -43.4330  -63.3640   52.8940 O   0  0  0  0  0  0  0  0  0  0  0  0
  -43.1480  -64.8140   54.6370 N   0  0  0  0  0  0  0  0  0  0  0  0
  -45.5950  -63.9050   50.7960 C   0  0  0  0  0  0  0  0  0  0  0  0
  -46.9110  -63.7920   50.0980 C   0  0  0  0  0  0  0  0  0  0  0  0
  -47.0840  -65.0610   49.3730 N   0  0  0  0  0  4  0  0  0  0  0  0
  -47.5900  -65.9690   50.3810 C   0  0  0  0  0  0  0  0  0  0  0  0
  -47.9910  -64.9110   48.2600 C   0  0  0  0  0  0  0  0  0  0  0  0
  -41.4840  -68.4400   55.8640 O   0  0  0  0  0  0  0  0  0  0  0  0
  -42.8000  -65.8440   52.4530 H   0  0  0  0  0  0  0  0  0  0  0  0
  -39.9860  -68.9960   51.6340 H   0  0  0  0  0  0  0  0  0  0  0  0
  -42.7900  -66.3020   56.1070 H   0  0  0  0  0  0  0  0  0  0  0  0
  -44.9690  -67.2770   55.5510 H   0  0  0  0  0  0  0  0  0  0  0  0
  -42.6620  -64.1060   55.2440 H   0  0  0  0  0  0  0  0  0  0  0  0
  -44.8220  -64.1890   50.0720 H   0  0  0  0  0  0  0  0  0  0  0  0
  -45.3040  -62.9750   51.2950 H   0  0  0  0  0  0  0  0  0  0  0  0
  -47.7380  -63.6700   50.8170 H   0  0  0  0  0  0  0  0  0  0  0  0
  -46.8700  -62.9680   49.3870 H   0  0  0  0  0  0  0  0  0  0  0  0
  -46.1470  -65.4100   49.0810 H   0  0  0  0  0  0  0  0  0  0  0  0
  -48.6090  -65.6900   50.7150 H   0  0  0  0  0  0  0  0  0  0  0  0
  -47.6820  -66.9610   49.8990 H   0  0  0  0  0  0  0  0  0  0  0  0
  -48.9190  -65.4920   48.3920 H   0  0  0  0  0  0  0  0  0  0  0  0
  -47.4700  -65.3420   47.3620 H   0  0  0  0  0  0  0  0  0  0  0  0
  -48.1870  -63.8500   47.9980 H   0  0  0  0  0  0  0  0  0  0  0  0
  2  1  1  0  0  0  0
  2  3  1  0  0  0  0
  3 24  1  0  0  0  0
  4  3  2  0  0  0  0
  4  9  1  0  0  0  0
  5  4  1  0  0  0  0
  6  7  1  0  0  0  0
  6  5  2  0  0  0  0
  7  2  2  0  0  0  0
  8  6  1  0  0  0  0
  9 27  1  1  0  0  0
 10  9  1  0  0  0  0
 10 28  1  0  0  0  0
 11 10  1  0  0  0  0
 12 11  1  0  0  0  0
 13 14  2  0  0  0  0
 13 12  1  0  0  0  0
 14 15  1  0  0  0  0
 15 16  1  0  0  0  0
 15 11  2  0  0  0  0
 16 18  1  0  0  0  0
 17 16  2  0  0  0  0
 18  9  1  0  0  0  0
 18 29  1  0  0  0  0
 19 31  1  0  0  0  0
 19 14  1  0  0  0  0
 20 19  1  0  0  0  0
 20 32  1  0  0  0  0
 21 20  1  0  0  0  0
 21 22  1  0  0  0  0
 22 35  1  0  0  0  0
 22 13  1  0  0  0  0
 23 37  1  0  0  0  0
 23 21  1  0  0  0  0
 25  5  1  0  0  0  0
 26  7  1  0  0  0  0
 30 19  1  0  0  0  0
 33 20  1  0  0  0  0
 34 21  1  0  0  0  0
 36 22  1  0  0  0  0
 38 23  1  0  0  0  0
 39 23  1  0  0  0  0
M  END
>  <Pose>
1

>  <Score>
-7.85

$$$$
