
 OpenBabel03202209423D

 43 46  0  0  1  0  0  0  0  0999 V2000
  -48.3580  -63.6050   52.0460 I   0  0  0  0  0  0  0  0  0  0  0  0
  -47.3220  -65.2330   52.8980 C   0  0  0  0  0  0  0  0  0  0  0  0
  -48.0050  -66.3920   53.2050 C   0  0  0  0  0  0  0  0  0  0  0  0
  -47.3330  -67.4760   53.7690 C   0  0  0  0  0  0  0  0  0  0  0  0
  -45.9970  -67.3410   53.9970 C   0  0  0  0  0  0  0  0  0  0  0  0
  -45.2850  -66.1860   53.6980 C   0  0  0  0  0  0  0  0  0  0  0  0
  -45.9620  -65.1340   53.1450 C   0  0  0  0  0  0  0  0  0  0  0  0
  -43.8270  -66.1640   53.9960 C   0  0  2  0  0  0  0  0  0  0  0  0
  -43.1530  -66.1910   52.6980 N   0  0  0  0  0  0  0  0  0  0  0  0
  -41.9480  -66.9710   52.4990 C   0  0  0  0  0  0  0  0  0  0  0  0
  -40.7620  -66.9910   51.2550 S   0  0  0  0  0  0  0  0  0  0  0  0
  -39.7500  -68.2050   51.8700 C   0  0  0  0  0  0  0  0  0  0  0  0
  -40.3630  -68.5710   53.0380 C   0  0  0  0  0  0  0  0  0  0  0  0
  -41.5060  -67.9250   53.3580 C   0  0  0  0  0  0  0  0  0  0  0  0
  -42.3560  -68.1360   54.5650 C   0  0  0  0  0  0  0  0  0  0  0  0
  -42.0550  -68.9960   55.4470 O   0  0  0  0  0  0  0  0  0  0  0  0
  -43.5210  -67.3620   54.7290 N   0  0  0  0  0  0  0  0  0  0  0  0
  -39.5960  -69.6730   53.7590 C   0  0  0  0  0  0  0  0  0  0  0  0
  -39.2990  -70.7870   52.7910 C   0  0  0  0  0  0  0  0  0  0  0  0
  -38.8280  -70.3440   51.5210 N   0  0  0  0  0  4  0  0  0  0  0  0
  -38.4750  -68.9290   51.5160 C   0  0  0  0  0  0  0  0  0  0  0  0
  -39.9480  -70.4690   50.5750 C   0  0  0  0  0  0  0  0  0  0  0  0
  -48.0710  -68.6160   54.0570 O   0  0  0  0  0  0  0  0  0  0  0  0
  -48.9500  -68.5900   55.1670 C   0  0  0  0  0  0  0  0  0  0  0  0
  -49.3610  -66.4910   52.9580 O   0  0  0  0  0  0  0  0  0  0  0  0
  -45.4630  -68.1790   54.4360 H   0  0  0  0  0  0  0  0  0  0  0  0
  -45.4010  -64.2270   52.9110 H   0  0  0  0  0  0  0  0  0  0  0  0
  -43.5350  -65.2440   54.5380 H   0  0  0  0  0  0  0  0  0  0  0  0
  -43.5120  -65.6580   51.8850 H   0  0  0  0  0  0  0  0  0  0  0  0
  -44.2360  -67.6680   55.4400 H   0  0  0  0  0  0  0  0  0  0  0  0
  -38.6910  -69.2400   54.1830 H   0  0  0  0  0  0  0  0  0  0  0  0
  -40.2270  -70.1030   54.5580 H   0  0  0  0  0  0  0  0  0  0  0  0
  -40.1430  -71.5000   52.6880 H   0  0  0  0  0  0  0  0  0  0  0  0
  -38.4670  -71.3900   53.2600 H   0  0  0  0  0  0  0  0  0  0  0  0
  -38.0220  -70.9100   51.1460 H   0  0  0  0  0  0  0  0  0  0  0  0
  -38.1690  -68.6770   50.4920 H   0  0  0  0  0  0  0  0  0  0  0  0
  -37.6990  -68.7870   52.2830 H   0  0  0  0  0  0  0  0  0  0  0  0
  -40.8530  -70.0980   51.1000 H   0  0  0  0  0  0  0  0  0  0  0  0
  -39.7520  -69.8260   49.6890 H   0  0  0  0  0  0  0  0  0  0  0  0
  -40.0540  -71.5060   50.2230 H   0  0  0  0  0  0  0  0  0  0  0  0
  -49.8430  -67.9510   54.9090 H   0  0  0  0  0  0  0  0  0  0  0  0
  -48.4940  -68.1300   56.0640 H   0  0  0  0  0  0  0  0  0  0  0  0
  -49.2730  -69.6090   55.4640 H   0  0  0  0  0  0  0  0  0  0  0  0
  1  2  1  0  0  0  0
  2  7  2  0  0  0  0
  2  3  1  0  0  0  0
  3  4  2  0  0  0  0
  4  5  1  0  0  0  0
  4 23  1  0  0  0  0
  5 26  1  0  0  0  0
  6  8  1  0  0  0  0
  6  5  2  0  0  0  0
  7  6  1  0  0  0  0
  8 28  1  1  0  0  0
  8 17  1  0  0  0  0
  9  8  1  0  0  0  0
 10  9  1  0  0  0  0
 10 14  2  0  0  0  0
 11 12  1  0  0  0  0
 11 10  1  0  0  0  0
 12 13  2  0  0  0  0
 13 14  1  0  0  0  0
 13 18  1  0  0  0  0
 14 15  1  0  0  0  0
 15 17  1  0  0  0  0
 15 16  2  0  0  0  0
 17 30  1  0  0  0  0
 18 31  1  0  0  0  0
 18 32  1  0  0  0  0
 19 34  1  0  0  0  0
 19 18  1  0  0  0  0
 20 19  1  0  0  0  0
 21 20  1  0  0  0  0
 21 12  1  0  0  0  0
 21 37  1  0  0  0  0
 22 38  1  0  0  0  0
 22 20  1  0  0  0  0
 23 24  1  0  0  0  0
 24 43  1  0  0  0  0
 24 42  1  0  0  0  0
 25  3  1  0  0  0  0
 27  7  1  0  0  0  0
 29  9  1  0  0  0  0
 33 19  1  0  0  0  0
 35 20  1  0  0  0  0
 36 21  1  0  0  0  0
 39 22  1  0  0  0  0
 40 22  1  0  0  0  0
 41 24  1  0  0  0  0
M  END
>  <Pose>
1

>  <Score>
-6.23

$$$$
