
 OpenBabel03202209423D

 38 41  0  0  1  0  0  0  0  0999 V2000
  -38.8550  -65.7930   48.2030 I   0  0  0  0  0  0  0  0  0  0  0  0
  -37.5080  -67.0070   49.2840 C   0  0  0  0  0  0  0  0  0  0  0  0
  -37.9950  -67.8350   50.3200 C   0  0  0  0  0  0  0  0  0  0  0  0
  -37.1390  -68.6250   51.0320 C   0  0  0  0  0  0  0  0  0  0  0  0
  -35.7840  -68.5820   50.6960 C   0  0  0  0  0  0  0  0  0  0  0  0
  -35.2830  -67.7900   49.7010 C   0  0  0  0  0  0  0  0  0  0  0  0
  -36.1680  -66.9890   48.9830 C   0  0  0  0  0  0  0  0  0  0  0  0
  -39.3780  -67.8340   50.5940 N   0  0  0  0  0  0  0  0  0  0  0  0
  -40.0190  -68.0100   51.8380 C   0  0  2  0  0  0  0  0  0  0  0  0
  -39.7450  -68.9490   52.7360 N   0  0  0  0  0  0  0  0  0  0  0  0
  -40.3620  -69.1080   53.9190 C   0  0  0  0  0  0  0  0  0  0  0  0
  -40.2990  -69.9250   54.9770 N   0  0  0  0  0  0  0  0  0  0  0  0
  -41.1830  -69.5840   55.8690 O   0  0  0  0  0  0  0  0  0  0  0  0
  -41.8510  -68.5490   55.4450 N   0  0  0  0  0  0  0  0  0  0  0  0
  -41.3850  -68.2070   54.2350 C   0  0  0  0  0  0  0  0  0  0  0  0
  -41.6990  -67.2520   53.3790 N   0  0  0  0  0  0  0  0  0  0  0  0
  -41.0560  -67.1340   52.2140 C   0  0  0  0  0  0  0  0  0  0  0  0
  -41.5940  -66.0990   51.5890 N   0  0  0  0  0  0  0  0  0  0  0  0
  -42.5670  -65.5730   52.3540 N   0  0  0  0  0  0  0  0  0  0  0  0
  -42.6520  -66.2820   53.4890 C   0  0  0  0  0  0  0  0  0  0  0  0
  -43.5680  -66.1050   54.6470 C   0  0  0  0  0  0  0  0  0  0  0  0
  -45.0010  -66.1450   54.2690 C   0  0  0  0  0  0  0  0  0  0  0  0
  -45.6850  -65.1180   54.0770 O   0  0  0  0  0  0  0  0  0  0  0  0
  -45.6070  -67.3620   54.1250 O   0  0  0  0  0  0  0  0  0  0  0  0
  -46.8230  -67.5820   53.5030 C   0  0  0  0  0  0  0  0  0  0  0  0
  -48.0140  -67.6190   54.3820 C   0  0  0  0  0  0  0  0  0  0  0  0
  -37.4280  -69.2810   51.8320 H   0  0  0  0  0  0  0  0  0  0  0  0
  -35.0860  -69.2090   51.2590 H   0  0  0  0  0  0  0  0  0  0  0  0
  -34.2330  -67.7760   49.4650 H   0  0  0  0  0  0  0  0  0  0  0  0
  -35.7620  -66.3660   48.1990 H   0  0  0  0  0  0  0  0  0  0  0  0
  -40.0070  -67.6750   49.7300 H   0  0  0  0  0  0  0  0  0  0  0  0
  -43.3170  -65.2130   55.2490 H   0  0  0  0  0  0  0  0  0  0  0  0
  -43.4310  -66.9830   55.3510 H   0  0  0  0  0  0  0  0  0  0  0  0
  -46.9270  -66.7880   52.7120 H   0  0  0  0  0  0  0  0  0  0  0  0
  -46.7880  -68.5390   52.9070 H   0  0  0  0  0  0  0  0  0  0  0  0
  -48.6970  -66.7710   54.0750 H   0  0  0  0  0  0  0  0  0  0  0  0
  -47.7700  -67.4040   55.4470 H   0  0  0  0  0  0  0  0  0  0  0  0
  -48.5520  -68.5670   54.2570 H   0  0  0  0  0  0  0  0  0  0  0  0
  1  2  1  0  0  0  0
  2  3  1  0  0  0  0
  3  8  1  0  0  0  0
  3  4  2  0  0  0  0
  4 27  1  0  0  0  0
  5  4  1  0  0  0  0
  5 28  1  0  0  0  0
  6  5  2  0  0  0  0
  7  2  2  0  0  0  0
  7  6  1  0  0  0  0
  9  8  1  6  0  0  0
  9 17  1  0  0  0  0
  9 10  1  0  0  0  0
 10 11  2  0  0  0  0
 11 15  1  0  0  0  0
 11 12  1  0  0  0  0
 12 13  1  0  0  0  0
 14 13  1  0  0  0  0
 15 14  2  0  0  0  0
 16 20  1  0  0  0  0
 16 15  1  0  0  0  0
 17 16  1  0  0  0  0
 18 17  2  0  0  0  0
 18 19  1  0  0  0  0
 19 20  2  0  0  0  0
 20 21  1  0  0  0  0
 21 32  1  0  0  0  0
 21 33  1  0  0  0  0
 22 21  1  0  0  0  0
 23 22  2  0  0  0  0
 24 22  1  0  0  0  0
 25 24  1  0  0  0  0
 25 26  1  0  0  0  0
 26 37  1  0  0  0  0
 29  6  1  0  0  0  0
 30  7  1  0  0  0  0
 31  8  1  0  0  0  0
 34 25  1  0  0  0  0
 35 25  1  0  0  0  0
 36 26  1  0  0  0  0
 38 26  1  0  0  0  0
M  END
>  <Pose>
1

>  <Score>
-7.01

$$$$
