
 OpenBabel03202209423D

 34 37  0  0  0  0  0  0  0  0999 V2000
  -41.8300  -68.2330   54.6650 I   0  0  0  0  0  0  0  0  0  0  0  0
  -40.6160  -68.1230   52.9350 C   0  0  0  0  0  0  0  0  0  0  0  0
  -40.9330  -67.1610   51.9980 C   0  0  0  0  0  0  0  0  0  0  0  0
  -40.1300  -67.1060   50.8780 C   0  0  0  0  0  0  0  0  0  0  0  0
  -39.0640  -67.9730   50.7110 C   0  0  0  0  0  0  0  0  0  0  0  0
  -38.7570  -68.9310   51.6540 C   0  0  0  0  0  0  0  0  0  0  0  0
  -39.5550  -68.9920   52.7770 C   0  0  0  0  0  0  0  0  0  0  0  0
  -42.0350  -66.2720   52.1840 N   0  0  0  0  0  0  0  0  0  0  0  0
  -43.3340  -66.5680   52.3690 C   0  0  0  0  0  0  0  0  0  0  0  0
  -43.8180  -67.7390   52.4120 O   0  0  0  0  0  0  0  0  0  0  0  0
  -44.0960  -65.4260   52.5100 C   0  0  0  0  0  0  0  0  0  0  0  0
  -43.2450  -64.4180   52.4100 C   0  0  0  0  0  0  0  0  0  0  0  0
  -44.0060  -63.3070   52.5510 N   0  0  0  0  0  0  0  0  0  0  0  0
  -45.2730  -63.6320   52.7310 N   0  0  0  0  0  0  0  0  0  0  0  0
  -45.3520  -64.9370   52.7090 N   0  0  0  0  0  0  0  0  0  0  0  0
  -46.5050  -65.7530   52.8600 C   0  0  0  0  0  0  0  0  0  0  0  0
  -46.6210  -66.6780   53.8740 C   0  0  0  0  0  0  0  0  0  0  0  0
  -47.7590  -67.4580   53.9940 C   0  0  0  0  0  0  0  0  0  0  0  0
  -48.8150  -67.3470   53.1140 C   0  0  0  0  0  0  0  0  0  0  0  0
  -48.7010  -66.4220   52.0980 C   0  0  0  0  0  0  0  0  0  0  0  0
  -47.5770  -65.6440   51.9710 C   0  0  0  0  0  0  0  0  0  0  0  0
  -41.9720  -64.9280   52.2090 C   0  0  0  0  0  0  0  0  0  0  0  0
  -40.9250  -64.2160   52.0720 O   0  0  0  0  0  0  0  0  0  0  0  0
  -40.3730  -66.3540   50.1400 H   0  0  0  0  0  0  0  0  0  0  0  0
  -38.4480  -67.9130   49.8250 H   0  0  0  0  0  0  0  0  0  0  0  0
  -37.9160  -69.5940   51.4930 H   0  0  0  0  0  0  0  0  0  0  0  0
  -39.3070  -69.7530   53.5200 H   0  0  0  0  0  0  0  0  0  0  0  0
  -43.6620  -62.3240   52.5250 H   0  0  0  0  0  0  0  0  0  0  0  0
  -46.0660  -62.9720   52.8640 H   0  0  0  0  0  0  0  0  0  0  0  0
  -45.8060  -66.7850   54.5800 H   0  0  0  0  0  0  0  0  0  0  0  0
  -47.8130  -68.1720   54.8030 H   0  0  0  0  0  0  0  0  0  0  0  0
  -49.6930  -67.9760   53.2380 H   0  0  0  0  0  0  0  0  0  0  0  0
  -49.5350  -66.3370   51.4050 H   0  0  0  0  0  0  0  0  0  0  0  0
  -47.4650  -64.9190   51.1890 H   0  0  0  0  0  0  0  0  0  0  0  0
  2  1  1  0  0  0  0
  3  8  1  0  0  0  0
  3  2  2  0  0  0  0
  4  3  1  0  0  0  0
  5  4  2  0  0  0  0
  5  6  1  0  0  0  0
  6  7  2  0  0  0  0
  7  2  1  0  0  0  0
  7 27  1  0  0  0  0
  8 22  1  0  0  0  0
  8  9  1  0  0  0  0
  9 10  2  0  0  0  0
  9 11  1  0  0  0  0
 11 15  1  0  0  0  0
 12 11  2  0  0  0  0
 12 13  1  0  0  0  0
 13 14  1  0  0  0  0
 14 29  1  0  0  0  0
 15 14  1  0  0  0  0
 15 16  1  0  0  0  0
 16 17  1  0  0  0  0
 17 18  2  0  0  0  0
 17 30  1  0  0  0  0
 18 31  1  0  0  0  0
 19 32  1  0  0  0  0
 19 18  1  0  0  0  0
 20 19  2  0  0  0  0
 21 20  1  0  0  0  0
 21 16  2  0  0  0  0
 22 12  1  0  0  0  0
 23 22  2  0  0  0  0
 24  4  1  0  0  0  0
 25  5  1  0  0  0  0
 26  6  1  0  0  0  0
 28 13  1  0  0  0  0
 33 20  1  0  0  0  0
 34 21  1  0  0  0  0
M  END
>  <Pose>
1

>  <Score>
-5.86

$$$$
