
 OpenBabel03202209423D

 40 43  0  0  1  0  0  0  0  0999 V2000
  -50.3790  -69.7960   53.0960 I   0  0  0  0  0  0  0  0  0  0  0  0
  -49.1610  -68.1080   53.1390 C   0  0  0  0  0  0  0  0  0  0  0  0
  -48.2690  -67.8170   54.1530 C   0  0  0  0  0  0  0  0  0  0  0  0
  -47.4820  -66.6970   54.1500 C   0  0  0  0  0  0  0  0  0  0  0  0
  -47.5380  -65.7970   53.1300 C   0  0  0  0  0  0  0  0  0  0  0  0
  -48.4320  -66.0730   52.0970 C   0  0  0  0  0  0  0  0  0  0  0  0
  -49.2130  -67.1800   52.0980 C   0  0  0  0  0  0  0  0  0  0  0  0
  -46.7130  -64.6200   53.0860 C   0  0  2  0  0  0  0  0  0  0  0  0
  -47.3860  -63.5000   53.1010 O   0  0  0  0  0  0  0  0  0  0  0  0
  -45.2910  -64.4120   53.0270 C   0  0  0  0  0  0  0  0  0  0  0  0
  -44.3720  -65.4460   53.3280 N   0  0  0  0  0  0  0  0  0  0  0  0
  -43.3000  -65.7230   52.6530 C   0  0  1  0  0  0  0  0  0  0  0  0
  -42.3840  -65.1760   51.2030 S   0  0  0  0  0  0  0  0  0  0  0  0
  -41.1100  -66.4020   51.3970 C   0  0  0  0  0  0  0  0  0  0  0  0
  -41.3800  -67.1290   52.4580 C   0  0  0  0  0  0  0  0  0  0  0  0
  -42.5590  -66.7900   53.1650 N   0  0  0  0  0  0  0  0  0  0  0  0
  -43.2900  -67.2570   54.3710 C   0  0  0  0  0  0  0  0  0  0  0  0
  -44.4990  -66.3880   54.4050 C   0  0  0  0  0  0  0  0  0  0  0  0
  -40.4360  -68.2320   52.8070 C   0  0  0  0  0  0  0  0  0  0  0  0
  -40.5280  -68.9310   53.9810 C   0  0  0  0  0  0  0  0  0  0  0  0
  -39.6410  -69.9770   54.3010 C   0  0  0  0  0  0  0  0  0  0  0  0
  -38.6400  -70.3280   53.4240 C   0  0  0  0  0  0  0  0  0  0  0  0
  -38.5430  -69.6300   52.2460 C   0  0  0  0  0  0  0  0  0  0  0  0
  -39.4230  -68.6010   51.9400 C   0  0  0  0  0  0  0  0  0  0  0  0
  -48.2200  -68.5380   54.9770 H   0  0  0  0  0  0  0  0  0  0  0  0
  -46.8390  -66.5620   54.9820 H   0  0  0  0  0  0  0  0  0  0  0  0
  -48.4930  -65.3800   51.2850 H   0  0  0  0  0  0  0  0  0  0  0  0
  -49.9250  -67.4110   51.2870 H   0  0  0  0  0  0  0  0  0  0  0  0
  -44.9680  -63.9910   52.0050 H   0  0  0  0  0  0  0  0  0  0  0  0
  -45.0730  -63.5070   53.6910 H   0  0  0  0  0  0  0  0  0  0  0  0
  -40.2880  -66.4420   50.6850 H   0  0  0  0  0  0  0  0  0  0  0  0
  -42.7090  -67.1010   55.2910 H   0  0  0  0  0  0  0  0  0  0  0  0
  -43.6460  -68.3010   54.2500 H   0  0  0  0  0  0  0  0  0  0  0  0
  -44.5620  -65.8850   55.3930 H   0  0  0  0  0  0  0  0  0  0  0  0
  -45.4520  -66.9810   54.2650 H   0  0  0  0  0  0  0  0  0  0  0  0
  -41.2990  -68.6750   54.6820 H   0  0  0  0  0  0  0  0  0  0  0  0
  -39.7630  -70.4810   55.2240 H   0  0  0  0  0  0  0  0  0  0  0  0
  -37.9310  -71.1180   53.6120 H   0  0  0  0  0  0  0  0  0  0  0  0
  -37.7650  -69.8940   51.5520 H   0  0  0  0  0  0  0  0  0  0  0  0
  -39.2870  -68.0920   50.9890 H   0  0  0  0  0  0  0  0  0  0  0  0
  1  2  1  0  0  0  0
  2  3  1  0  0  0  0
  3 25  1  0  0  0  0
  4  3  2  0  0  0  0
  4 26  1  0  0  0  0
  5  4  1  0  0  0  0
  6  7  1  0  0  0  0
  6  5  2  0  0  0  0
  7  2  2  0  0  0  0
  8  9  1  6  0  0  0
  8  5  1  0  0  0  0
 10  8  1  0  0  0  0
 10 11  1  0  0  0  0
 10 30  1  0  0  0  0
 11 18  1  0  0  0  0
 12 13  1  1  0  0  0
 12 16  1  0  0  0  0
 12 11  1  0  0  0  0
 13 14  1  0  0  0  0
 14 15  2  0  0  0  0
 15 19  1  0  0  0  0
 15 16  1  0  0  0  0
 16 17  1  0  0  0  0
 17 18  1  0  0  0  0
 17 32  1  0  0  0  0
 18 34  1  0  0  0  0
 19 20  1  0  0  0  0
 20 21  2  0  0  0  0
 20 36  1  0  0  0  0
 21 37  1  0  0  0  0
 22 38  1  0  0  0  0
 22 21  1  0  0  0  0
 23 22  2  0  0  0  0
 24 23  1  0  0  0  0
 24 19  2  0  0  0  0
 27  6  1  0  0  0  0
 28  7  1  0  0  0  0
 29 10  1  0  0  0  0
 31 14  1  0  0  0  0
 33 17  1  0  0  0  0
 35 18  1  0  0  0  0
 39 23  1  0  0  0  0
 40 24  1  0  0  0  0
M  END
>  <Pose>
1

>  <Score>
-6.10

$$$$
