
 OpenBabel03202209423D

 44 47  0  0  1  0  0  0  0  0999 V2000
  -32.8170  -63.8850   48.7280 I   0  0  0  0  0  0  0  0  0  0  0  0
  -34.7290  -64.7450   48.9860 C   0  0  0  0  0  0  0  0  0  0  0  0
  -35.8820  -63.9890   48.9670 C   0  0  0  0  0  0  0  0  0  0  0  0
  -37.1190  -64.5770   49.1390 C   0  0  0  0  0  0  0  0  0  0  0  0
  -37.2530  -65.9360   49.3350 C   0  0  0  0  0  0  0  0  0  0  0  0
  -36.0920  -66.6720   49.3510 C   0  0  0  0  0  0  0  0  0  0  0  0
  -34.8440  -66.1040   49.1810 C   0  0  0  0  0  0  0  0  0  0  0  0
  -38.5650  -66.5030   49.5080 N   0  0  0  0  0  0  0  0  0  0  0  0
  -39.7550  -66.1910   48.8030 C   0  0  0  0  0  0  0  0  0  0  0  0
  -39.7730  -65.6540   47.6650 O   0  0  0  0  0  0  0  0  0  0  0  0
  -40.9370  -66.5980   49.6130 C   0  0  1  0  0  0  0  0  0  0  0  0
  -40.3730  -67.7640   50.4060 C   0  0  0  0  0  0  0  0  0  0  0  0
  -38.9190  -67.5140   50.4490 C   0  0  0  0  0  0  0  0  0  0  0  0
  -38.0780  -68.0930   51.1970 O   0  0  0  0  0  0  0  0  0  0  0  0
  -41.3270  -65.5070   50.4080 N   0  0  0  0  0  0  0  0  0  0  0  0
  -42.4040  -64.6970   50.0500 C   0  0  0  0  0  0  0  0  0  0  0  0
  -42.9560  -64.0740   51.3590 C   0  0  0  0  0  0  0  0  0  0  0  0
  -43.1350  -65.1470   52.3250 N   0  0  0  0  0  0  0  0  0  0  0  0
  -41.9520  -65.8850   52.6910 C   0  0  0  0  0  0  0  0  0  0  0  0
  -40.8430  -65.4680   51.7280 C   0  0  0  0  0  0  0  0  0  0  0  0
  -44.4040  -65.4440   52.8630 C   0  0  0  0  0  0  0  0  0  0  0  0
  -45.4990  -64.7200   52.5010 N   0  0  0  0  0  0  0  0  0  0  0  0
  -46.7230  -64.9590   52.9650 C   0  0  0  0  0  0  0  0  0  0  0  0
  -46.9370  -65.9910   53.8690 C   0  0  0  0  0  0  0  0  0  0  0  0
  -45.8210  -66.7230   54.2340 C   0  0  0  0  0  0  0  0  0  0  0  0
  -44.6060  -66.4490   53.7400 N   0  0  0  0  0  0  0  0  0  0  0  0
  -35.7960  -62.9310   48.8140 H   0  0  0  0  0  0  0  0  0  0  0  0
  -38.0350  -63.9800   49.1260 H   0  0  0  0  0  0  0  0  0  0  0  0
  -36.1730  -67.7390   49.5050 H   0  0  0  0  0  0  0  0  0  0  0  0
  -33.9320  -66.7050   49.1960 H   0  0  0  0  0  0  0  0  0  0  0  0
  -41.7330  -67.0120   48.9690 H   0  0  0  0  0  0  0  0  0  0  0  0
  -40.7540  -67.8060   51.4420 H   0  0  0  0  0  0  0  0  0  0  0  0
  -40.5380  -68.7180   49.8650 H   0  0  0  0  0  0  0  0  0  0  0  0
  -42.2410  -63.8850   49.3410 H   0  0  0  0  0  0  0  0  0  0  0  0
  -43.2620  -65.3610   49.7300 H   0  0  0  0  0  0  0  0  0  0  0  0
  -43.9400  -63.5970   51.1890 H   0  0  0  0  0  0  0  0  0  0  0  0
  -42.2710  -63.2810   51.7290 H   0  0  0  0  0  0  0  0  0  0  0  0
  -41.5770  -65.5960   53.7010 H   0  0  0  0  0  0  0  0  0  0  0  0
  -42.0790  -66.9800   52.6430 H   0  0  0  0  0  0  0  0  0  0  0  0
  -39.9460  -66.1160   51.8650 H   0  0  0  0  0  0  0  0  0  0  0  0
  -40.4940  -64.4480   52.0490 H   0  0  0  0  0  0  0  0  0  0  0  0
  -47.5740  -64.3690   52.6620 H   0  0  0  0  0  0  0  0  0  0  0  0
  -47.9290  -66.1870   54.2500 H   0  0  0  0  0  0  0  0  0  0  0  0
  -45.9890  -67.5310   54.9430 H   0  0  0  0  0  0  0  0  0  0  0  0
  1  2  1  0  0  0  0
  2  7  1  0  0  0  0
  3  2  2  0  0  0  0
  3  4  1  0  0  0  0
  4  5  2  0  0  0  0
  5  6  1  0  0  0  0
  5  8  1  0  0  0  0
  6 29  1  0  0  0  0
  7 30  1  0  0  0  0
  7  6  2  0  0  0  0
  8 13  1  0  0  0  0
  9  8  1  0  0  0  0
  9 11  1  0  0  0  0
 10  9  2  0  0  0  0
 11 31  1  6  0  0  0
 11 12  1  0  0  0  0
 11 15  1  0  0  0  0
 12 13  1  0  0  0  0
 12 32  1  0  0  0  0
 13 14  2  0  0  0  0
 15 20  1  0  0  0  0
 16 15  1  0  0  0  0
 16 17  1  0  0  0  0
 17 37  1  0  0  0  0
 17 18  1  0  0  0  0
 18 19  1  0  0  0  0
 18 21  1  0  0  0  0
 19 38  1  0  0  0  0
 20 40  1  0  0  0  0
 20 41  1  0  0  0  0
 20 19  1  0  0  0  0
 21 26  1  0  0  0  0
 22 21  2  0  0  0  0
 22 23  1  0  0  0  0
 23 24  2  0  0  0  0
 24 25  1  0  0  0  0
 24 43  1  0  0  0  0
 25 44  1  0  0  0  0
 26 25  2  0  0  0  0
 27  3  1  0  0  0  0
 28  4  1  0  0  0  0
 33 12  1  0  0  0  0
 34 16  1  0  0  0  0
 35 16  1  0  0  0  0
 36 17  1  0  0  0  0
 39 19  1  0  0  0  0
 42 23  1  0  0  0  0
M  END
>  <Pose>
1

>  <Score>
-5.44

$$$$
