
 OpenBabel03202209423D

 44 47  0  0  1  0  0  0  0  0999 V2000
  -45.6800  -64.6000   52.2010 I   0  0  0  0  0  0  0  0  0  0  0  0
  -43.7390  -65.4200   52.2580 C   0  0  0  0  0  0  0  0  0  0  0  0
  -43.2690  -66.3240   53.1650 C   0  0  0  0  0  0  0  0  0  0  0  0
  -41.9470  -66.5490   52.7810 C   0  0  0  0  0  0  0  0  0  0  0  0
  -41.6150  -65.8340   51.7050 N   0  0  0  0  0  0  0  0  0  0  0  0
  -42.7060  -65.1400   51.3790 C   0  0  0  0  0  0  0  0  0  0  0  0
  -40.3640  -65.7850   51.0100 C   0  0  2  0  0  0  0  0  0  0  0  0
  -40.0440  -64.5230   50.5250 O   0  0  0  0  0  0  0  0  0  0  0  0
  -38.8860  -64.7690   49.7920 C   0  0  1  0  0  0  0  0  0  0  0  0
  -39.0920  -66.0810   49.0720 C   0  0  2  0  0  0  0  0  0  0  0  0
  -40.3900  -66.5920   49.7090 C   0  0  0  0  0  0  0  0  0  0  0  0
  -38.1060  -67.0120   49.4010 O   0  0  0  0  0  0  0  0  0  0  0  0
  -38.7210  -63.7010   48.7020 C   0  0  0  0  0  0  0  0  0  0  0  0
  -38.0570  -62.5960   49.2510 O   0  0  0  0  0  0  0  0  0  0  0  0
  -41.2260  -67.4150   53.5120 N   0  0  0  0  0  0  0  0  0  0  0  0
  -41.7590  -68.0390   54.5740 C   0  0  0  0  0  0  0  0  0  0  0  0
  -43.0260  -67.8210   54.9390 N   0  0  0  0  0  0  0  0  0  0  0  0
  -43.8320  -66.9550   54.2500 C   0  0  0  0  0  0  0  0  0  0  0  0
  -45.1750  -66.7610   54.6840 N   0  0  0  0  0  0  0  0  0  0  0  0
  -46.2320  -67.2890   53.8880 C   0  0  0  0  0  0  0  0  0  0  0  0
  -45.9270  -67.7500   52.7590 O   0  0  0  0  0  0  0  0  0  0  0  0
  -47.6110  -67.3260   54.2920 C   0  0  0  0  0  0  0  0  0  0  0  0
  -48.0410  -68.1770   55.2710 C   0  0  0  0  0  0  0  0  0  0  0  0
  -49.3770  -68.2230   55.6770 C   0  0  0  0  0  0  0  0  0  0  0  0
  -50.2850  -67.3970   55.0840 C   0  0  0  0  0  0  0  0  0  0  0  0
  -49.8830  -66.5330   54.0990 C   0  0  0  0  0  0  0  0  0  0  0  0
  -48.5390  -66.5040   53.7080 C   0  0  0  0  0  0  0  0  0  0  0  0
  -42.8320  -64.4360   50.5500 H   0  0  0  0  0  0  0  0  0  0  0  0
  -39.5490  -66.2070   51.6100 H   0  0  0  0  0  0  0  0  0  0  0  0
  -37.9910  -64.7790   50.4500 H   0  0  0  0  0  0  0  0  0  0  0  0
  -39.1840  -65.9780   47.9840 H   0  0  0  0  0  0  0  0  0  0  0  0
  -41.2290  -66.2300   49.0880 H   0  0  0  0  0  0  0  0  0  0  0  0
  -40.3750  -67.6690   49.8840 H   0  0  0  0  0  0  0  0  0  0  0  0
  -37.8290  -66.7830   50.3410 H   0  0  0  0  0  0  0  0  0  0  0  0
  -38.1110  -64.0760   47.8710 H   0  0  0  0  0  0  0  0  0  0  0  0
  -39.7140  -63.3750   48.3700 H   0  0  0  0  0  0  0  0  0  0  0  0
  -37.8180  -62.7670   50.2160 H   0  0  0  0  0  0  0  0  0  0  0  0
  -41.1390  -68.7420   55.1510 H   0  0  0  0  0  0  0  0  0  0  0  0
  -45.4620  -66.2680   55.5340 H   0  0  0  0  0  0  0  0  0  0  0  0
  -47.3880  -68.8750   55.8020 H   0  0  0  0  0  0  0  0  0  0  0  0
  -49.7000  -68.8960   56.4470 H   0  0  0  0  0  0  0  0  0  0  0  0
  -51.3520  -67.3950   55.3680 H   0  0  0  0  0  0  0  0  0  0  0  0
  -50.6090  -65.8920   53.6450 H   0  0  0  0  0  0  0  0  0  0  0  0
  -48.2890  -65.8130   52.9380 H   0  0  0  0  0  0  0  0  0  0  0  0
  1  2  1  0  0  0  0
  2  3  1  0  0  0  0
  3 18  1  0  0  0  0
  4  3  2  0  0  0  0
  4 15  1  0  0  0  0
  5  4  1  0  0  0  0
  6  5  1  0  0  0  0
  6  2  2  0  0  0  0
  7 29  1  1  0  0  0
  7  5  1  0  0  0  0
  8  7  1  0  0  0  0
  9 30  1  1  0  0  0
  9  8  1  0  0  0  0
 10 31  1  6  0  0  0
 10 12  1  0  0  0  0
 10 11  1  0  0  0  0
 10  9  1  0  0  0  0
 11 33  1  0  0  0  0
 11  7  1  0  0  0  0
 12 34  1  0  0  0  0
 13 14  1  0  0  0  0
 13  9  1  0  0  0  0
 14 37  1  0  0  0  0
 15 16  2  0  0  0  0
 16 17  1  0  0  0  0
 16 38  1  0  0  0  0
 18 19  1  0  0  0  0
 18 17  2  0  0  0  0
 19 39  1  0  0  0  0
 20 22  1  0  0  0  0
 20 19  1  0  0  0  0
 21 20  2  0  0  0  0
 22 23  1  0  0  0  0
 23 24  2  0  0  0  0
 23 40  1  0  0  0  0
 24 41  1  0  0  0  0
 25 42  1  0  0  0  0
 25 24  1  0  0  0  0
 26 25  2  0  0  0  0
 27 26  1  0  0  0  0
 27 22  2  0  0  0  0
 28  6  1  0  0  0  0
 32 11  1  0  0  0  0
 35 13  1  0  0  0  0
 36 13  1  0  0  0  0
 43 26  1  0  0  0  0
 44 27  1  0  0  0  0
M  END
>  <Pose>
1

>  <Score>
-6.89

$$$$
