
 OpenBabel03202209423D

 48 52  0  0  1  0  0  0  0  0999 V2000
  -44.1210  -66.0720   54.4080 B   0  0  0  0  0  0  0  0  0  0  0  0
  -43.7850  -65.1820   52.7570 C   0  0  0  0  0  0  0  0  0  0  0  0
  -44.7670  -64.2690   52.2980 C   0  0  0  0  0  0  0  0  0  0  0  0
  -44.6170  -63.6280   51.0980 C   0  0  0  0  0  0  0  0  0  0  0  0
  -43.4930  -63.8910   50.3470 C   0  0  0  0  0  0  0  0  0  0  0  0
  -42.5450  -64.7800   50.8020 C   0  0  0  0  0  0  0  0  0  0  0  0
  -42.6680  -65.4590   52.0400 C   0  0  0  0  0  0  0  0  0  0  0  0
  -41.5760  -66.3190   52.4350 C   0  0  0  0  0  0  0  0  0  0  0  0
  -41.5330  -67.5510   52.8050 C   0  0  0  0  0  0  0  0  0  0  0  0
  -40.4340  -68.4160   53.1920 C   0  0  1  0  0  0  0  0  0  0  0  0
  -40.3990  -69.2350   54.2150 N   0  0  0  0  0  0  0  0  0  0  0  0
  -39.3260  -70.0640   54.3900 C   0  0  0  0  0  0  0  0  0  0  0  0
  -38.2530  -70.1010   53.5530 C   0  0  0  0  0  0  0  0  0  0  0  0
  -38.2520  -69.2520   52.4680 C   0  0  0  0  0  0  0  0  0  0  0  0
  -37.3730  -69.0110   51.4350 N   0  0  0  0  0  0  0  0  0  0  0  0
  -37.8700  -68.0740   50.6450 C   0  0  0  0  0  0  0  0  0  0  0  0
  -39.0680  -67.7250   51.1860 N   0  0  0  0  0  0  0  0  0  0  0  0
  -39.3260  -68.4270   52.2970 C   0  0  0  0  0  0  0  0  0  0  0  0
  -37.2920  -67.4740   49.4360 C   0  0  0  0  0  0  0  0  0  0  0  0
  -36.0540  -67.7310   48.9500 C   0  0  0  0  0  0  0  0  0  0  0  0
  -35.5960  -67.0700   47.7940 C   0  0  0  0  0  0  0  0  0  0  0  0
  -36.4020  -66.1600   47.1500 C   0  0  0  0  0  0  0  0  0  0  0  0
  -37.6750  -65.8800   47.6270 C   0  0  0  0  0  0  0  0  0  0  0  0
  -38.0760  -66.5380   48.7420 C   0  0  0  0  0  0  0  0  0  0  0  0
  -36.1290  -69.7240   51.3650 C   0  0  0  0  0  0  0  0  0  0  0  0
  -41.4210  -69.2510   55.2200 C   0  0  0  0  0  0  0  0  0  0  0  0
  -43.5870  -63.1160   49.1790 O   0  0  0  0  0  0  0  0  0  0  0  0
  -44.4650  -62.0530   49.4850 C   0  0  0  0  0  0  0  0  0  0  0  0
  -45.3730  -62.6990   50.3770 O   0  0  0  0  0  0  0  0  0  0  0  0
  -45.6230  -64.1040   52.9290 H   0  0  0  0  0  0  0  0  0  0  0  0
  -41.6630  -64.9740   50.1950 H   0  0  0  0  0  0  0  0  0  0  0  0
  -40.5960  -65.8060   52.4560 H   0  0  0  0  0  0  0  0  0  0  0  0
  -42.5330  -68.0300   52.8400 H   0  0  0  0  0  0  0  0  0  0  0  0
  -39.3440  -70.7290   55.2500 H   0  0  0  0  0  0  0  0  0  0  0  0
  -37.4000  -70.7520   53.6810 H   0  0  0  0  0  0  0  0  0  0  0  0
  -35.3940  -68.4500   49.4180 H   0  0  0  0  0  0  0  0  0  0  0  0
  -34.6070  -67.2920   47.4300 H   0  0  0  0  0  0  0  0  0  0  0  0
  -36.0530  -65.6480   46.2580 H   0  0  0  0  0  0  0  0  0  0  0  0
  -38.3260  -65.1700   47.1400 H   0  0  0  0  0  0  0  0  0  0  0  0
  -39.0780  -66.3220   49.1250 H   0  0  0  0  0  0  0  0  0  0  0  0
  -36.0520  -70.4700   50.5660 H   0  0  0  0  0  0  0  0  0  0  0  0
  -35.9530  -70.3050   52.3390 H   0  0  0  0  0  0  0  0  0  0  0  0
  -35.2240  -69.0750   51.3380 H   0  0  0  0  0  0  0  0  0  0  0  0
  -42.2200  -69.9890   55.0740 H   0  0  0  0  0  0  0  0  0  0  0  0
  -40.9050  -69.6550   56.1760 H   0  0  0  0  0  0  0  0  0  0  0  0
  -41.7280  -68.2460   55.5700 H   0  0  0  0  0  0  0  0  0  0  0  0
  -43.8930  -61.2630   50.0150 H   0  0  0  0  0  0  0  0  0  0  0  0
  -44.9950  -61.6760   48.5850 H   0  0  0  0  0  0  0  0  0  0  0  0
  2  1  1  0  0  0  0
  3  2  1  0  0  0  0
  3 30  1  0  0  0  0
  4  3  2  0  0  0  0
  5  6  2  0  0  0  0
  5  4  1  0  0  0  0
  6  7  1  0  0  0  0
  7  8  1  0  0  0  0
  7  2  2  0  0  0  0
  8 32  1  0  0  0  0
  8  9  2  0  0  0  0
  9 33  1  0  0  0  0
 10  9  1  6  0  0  0
 10 11  1  0  0  0  0
 11 12  1  0  0  0  0
 11 26  1  0  0  0  0
 12 34  1  0  0  0  0
 13 35  1  0  0  0  0
 13 12  2  0  0  0  0
 14 13  1  0  0  0  0
 15 14  1  0  0  0  0
 16 17  2  0  0  0  0
 16 15  1  0  0  0  0
 17 18  1  0  0  0  0
 18 14  2  0  0  0  0
 18 10  1  0  0  0  0
 19 16  1  0  0  0  0
 20 36  1  0  0  0  0
 20 19  1  0  0  0  0
 21 20  2  0  0  0  0
 22 23  2  0  0  0  0
 22 21  1  0  0  0  0
 23 24  1  0  0  0  0
 24 40  1  0  0  0  0
 24 19  2  0  0  0  0
 25 15  1  0  0  0  0
 25 42  1  0  0  0  0
 26 46  1  0  0  0  0
 26 45  1  0  0  0  0
 27 28  1  0  0  0  0
 27  5  1  0  0  0  0
 28 47  1  0  0  0  0
 28 29  1  0  0  0  0
 29  4  1  0  0  0  0
 31  6  1  0  0  0  0
 37 21  1  0  0  0  0
 38 22  1  0  0  0  0
 39 23  1  0  0  0  0
 41 25  1  0  0  0  0
 43 25  1  0  0  0  0
 44 26  1  0  0  0  0
 48 28  1  0  0  0  0
M  END
>  <Pose>
1

>  <Score>
-6.45

$$$$
