
 OpenBabel03202209423D

 35 38  0  0  1  0  0  0  0  0999 V2000
  -40.6800  -69.0530   55.0140 B   0  0  0  0  0  0  0  0  0  0  0  0
  -41.4430  -67.8490   53.7560 C   0  0  0  0  0  0  0  0  0  0  0  0
  -40.8350  -67.5200   52.5480 C   0  0  0  0  0  0  0  0  0  0  0  0
  -41.4320  -66.6350   51.6650 C   0  0  0  0  0  0  0  0  0  0  0  0
  -42.6490  -66.0640   51.9760 C   0  0  0  0  0  0  0  0  0  0  0  0
  -43.2530  -66.3820   53.1600 C   0  0  0  0  0  0  0  0  0  0  0  0
  -42.6560  -67.2590   54.0300 C   0  0  0  0  0  0  0  0  0  0  0  0
  -43.3380  -67.5380   55.2280 O   0  0  0  0  0  0  0  0  0  0  0  0
  -44.9450  -65.5530   53.5290 B   0  0  0  0  0  0  0  0  0  0  0  0
  -40.8520  -66.2920   50.4630 C   0  0  0  0  0  0  0  0  0  0  0  0
  -39.6360  -66.8680   50.1590 C   0  0  0  0  0  0  0  0  0  0  0  0
  -39.0770  -67.7920   51.1530 C   0  0  0  0  0  0  0  0  0  0  0  0
  -37.8460  -68.3660   50.8320 C   0  0  1  0  0  0  0  0  0  0  0  0
  -37.2180  -68.0630   49.6460 C   0  0  0  0  0  0  0  0  0  0  0  0
  -36.1110  -68.6040   49.4000 O   0  0  0  0  0  0  0  0  0  0  0  0
  -37.7740  -67.1820   48.7250 C   0  0  0  0  0  0  0  0  0  0  0  0
  -38.9760  -66.5850   48.9740 C   0  0  0  0  0  0  0  0  0  0  0  0
  -36.8340  -66.8170   47.1010 B   0  0  0  0  0  0  0  0  0  0  0  0
  -37.0540  -69.5860   52.0880 B   0  0  0  0  0  0  0  0  0  0  0  0
  -39.6820  -68.0780   52.2820 O   0  0  0  0  0  0  0  0  0  0  0  0
  -41.4810  -65.3510   49.5350 C   0  0  0  0  0  0  0  0  0  0  0  0
  -42.6630  -65.6760   48.8950 C   0  0  0  0  0  0  0  0  0  0  0  0
  -43.2720  -64.8090   48.0130 C   0  0  0  0  0  0  0  0  0  0  0  0
  -42.6760  -63.5880   47.7710 C   0  0  0  0  0  0  0  0  0  0  0  0
  -41.5130  -63.2280   48.3790 C   0  0  0  0  0  0  0  0  0  0  0  0
  -40.9180  -64.1070   49.2570 C   0  0  0  0  0  0  0  0  0  0  0  0
  -39.6830  -63.7350   49.9030 C   0  0  0  0  0  0  0  0  0  0  0  0
  -38.6120  -63.5570   49.2590 O   0  0  0  0  0  0  0  0  0  0  0  0
  -39.6340  -63.5590   51.2840 O   0  0  0  0  0  0  0  0  0  0  0  0
  -40.8260  -61.6530   48.0150 Cl  0  0  0  0  0  0  0  0  0  0  0  0
  -43.4060  -67.2450   49.2230 Cl  0  0  0  0  0  0  0  0  0  0  0  0
  -43.1070  -65.3620   51.2610 H   0  0  0  0  0  0  0  0  0  0  0  0
  -39.4520  -65.8960   48.2960 H   0  0  0  0  0  0  0  0  0  0  0  0
  -44.2080  -65.0960   47.5200 H   0  0  0  0  0  0  0  0  0  0  0  0
  -43.1490  -62.9010   47.0780 H   0  0  0  0  0  0  0  0  0  0  0  0
  2  7  1  0  0  0  0
  2  1  1  0  0  0  0
  3  2  2  0  0  0  0
  4  5  1  0  0  0  0
  4  3  1  0  0  0  0
  5  6  1  0  0  0  0
  6  9  1  0  0  0  0
  6  7  2  0  0  0  0
  7  8  1  0  0  0  0
 10  4  2  0  0  0  0
 11 10  1  0  0  0  0
 11 12  2  0  0  0  0
 12 20  1  0  0  0  0
 13 12  1  0  0  0  0
 13 19  1  1  0  0  0
 14 13  1  0  0  0  0
 15 14  2  0  0  0  0
 16 17  2  0  0  0  0
 16 14  1  0  0  0  0
 17 11  1  0  0  0  0
 18 16  1  0  0  0  0
 20  3  1  0  0  0  0
 21 10  1  0  0  0  0
 22 31  1  0  0  0  0
 22 21  2  0  0  0  0
 23 22  1  0  0  0  0
 24 23  2  0  0  0  0
 24 25  1  0  0  0  0
 25 26  2  0  0  0  0
 26 21  1  0  0  0  0
 26 27  1  0  0  0  0
 27 29  1  0  0  0  0
 28 27  2  0  0  0  0
 30 25  1  0  0  0  0
 32  5  1  0  0  0  0
 33 17  1  0  0  0  0
 34 23  1  0  0  0  0
 35 24  1  0  0  0  0
M  END
>  <Pose>
1

>  <Score>
-6.27

$$$$
