
 OpenBabel03202209423D

 35 39  0  0  0  0  0  0  0  0999 V2000
  -44.5770  -66.9800   54.0260 I   0  0  0  0  0  0  0  0  0  0  0  0
  -45.7080  -65.5010   53.0310 C   0  0  0  0  0  0  0  0  0  0  0  0
  -45.0960  -64.8400   51.9710 C   0  0  0  0  0  0  0  0  0  0  0  0
  -45.7980  -63.8840   51.3120 C   0  0  0  0  0  0  0  0  0  0  0  0
  -47.1040  -63.5980   51.7180 C   0  0  0  0  0  0  0  0  0  0  0  0
  -47.7180  -64.2470   52.7660 C   0  0  0  0  0  0  0  0  0  0  0  0
  -46.9980  -65.2180   53.4310 C   0  0  0  0  0  0  0  0  0  0  0  0
  -47.5960  -65.8850   54.4900 O   0  0  0  0  0  0  0  0  0  0  0  0
  -49.7030  -63.7760   53.3440 I   0  0  0  0  0  0  0  0  0  0  0  0
  -45.2560  -63.1340   50.1940 C   0  0  0  0  0  0  0  0  0  0  0  0
  -45.2420  -61.7250   50.4670 O   0  0  0  0  0  0  0  0  0  0  0  0
  -45.9580  -61.0120   49.5420 C   0  0  0  0  0  0  0  0  0  0  0  0
  -46.1630  -59.7670   49.4640 O   0  0  0  0  0  0  0  0  0  0  0  0
  -46.4830  -61.9860   48.5950 C   0  0  0  0  0  0  0  0  0  0  0  0
  -46.0740  -63.2280   48.9740 C   0  0  0  0  0  0  0  0  0  0  0  0
  -46.4430  -64.3490   48.2310 C   0  0  0  0  0  0  0  0  0  0  0  0
  -47.2250  -64.2290   47.1020 C   0  0  0  0  0  0  0  0  0  0  0  0
  -47.6420  -62.9580   46.7170 C   0  0  0  0  0  0  0  0  0  0  0  0
  -47.2810  -61.8530   47.4450 C   0  0  0  0  0  0  0  0  0  0  0  0
  -47.8050  -60.2870   46.9560 Cl  0  0  0  0  0  0  0  0  0  0  0  0
  -48.6310  -62.7370   45.3010 Cl  0  0  0  0  0  0  0  0  0  0  0  0
  -47.6680  -65.6560   46.1940 Cl  0  0  0  0  0  0  0  0  0  0  0  0
  -45.8870  -65.8990   48.7690 Cl  0  0  0  0  0  0  0  0  0  0  0  0
  -43.8610  -63.5420   49.8720 C   0  0  0  0  0  0  0  0  0  0  0  0
  -43.1900  -64.5000   50.5510 C   0  0  0  0  0  0  0  0  0  0  0  0
  -41.8880  -64.7840   50.1450 C   0  0  0  0  0  0  0  0  0  0  0  0
  -41.2730  -64.1360   49.0970 C   0  0  0  0  0  0  0  0  0  0  0  0
  -41.9880  -63.1640   48.4280 C   0  0  0  0  0  0  0  0  0  0  0  0
  -43.2720  -62.8580   48.8010 C   0  0  0  0  0  0  0  0  0  0  0  0
  -41.0750  -62.1530   46.8210 I   0  0  0  0  0  0  0  0  0  0  0  0
  -39.9920  -64.4150   48.6970 O   0  0  0  0  0  0  0  0  0  0  0  0
  -40.8360  -66.2690   51.1900 I   0  0  0  0  0  0  0  0  0  0  0  0
  -43.7760  -65.1720   51.6080 O   0  0  0  0  0  0  0  0  0  0  0  0
  -47.6970  -62.8380   51.2140 H   0  0  0  0  0  0  0  0  0  0  0  0
  -43.7960  -62.1020   48.2620 H   0  0  0  0  0  0  0  0  0  0  0  0
  2  7  1  0  0  0  0
  2  1  1  0  0  0  0
  3  2  2  0  0  0  0
  4  5  2  0  0  0  0
  4  3  1  0  0  0  0
  5  6  1  0  0  0  0
  6  9  1  0  0  0  0
  6  7  2  0  0  0  0
  7  8  1  0  0  0  0
 10 11  1  0  0  0  0
 10  4  1  0  0  0  0
 12 11  1  0  0  0  0
 13 12  2  0  0  0  0
 14 15  1  0  0  0  0
 14 12  1  0  0  0  0
 15 10  1  0  0  0  0
 16 23  1  0  0  0  0
 16 15  2  0  0  0  0
 17 16  1  0  0  0  0
 18 17  2  0  0  0  0
 18 19  1  0  0  0  0
 19 14  2  0  0  0  0
 20 19  1  0  0  0  0
 21 18  1  0  0  0  0
 22 17  1  0  0  0  0
 24 10  1  0  0  0  0
 24 25  1  0  0  0  0
 25 33  1  0  0  0  0
 26 25  2  0  0  0  0
 26 32  1  0  0  0  0
 27 26  1  0  0  0  0
 28 29  1  0  0  0  0
 28 27  2  0  0  0  0
 29 24  2  0  0  0  0
 30 28  1  0  0  0  0
 31 27  1  0  0  0  0
 33  3  1  0  0  0  0
 34  5  1  0  0  0  0
 35 29  1  0  0  0  0
M  END
>  <Pose>
1

>  <Score>
-5.50

$$$$
