
 OpenBabel03202209423D

 35 39  0  0  0  0  0  0  0  0999 V2000
  -43.5330  -66.0990   53.3990 I   0  0  0  0  0  0  0  0  0  0  0  0
  -41.8290  -66.7090   52.2980 C   0  0  0  0  0  0  0  0  0  0  0  0
  -41.5860  -66.0210   51.0970 C   0  0  0  0  0  0  0  0  0  0  0  0
  -40.4980  -66.3930   50.3720 C   0  0  0  0  0  0  0  0  0  0  0  0
  -39.6790  -67.4340   50.8470 C   0  0  0  0  0  0  0  0  0  0  0  0
  -39.9180  -68.1040   52.0190 C   0  0  0  0  0  0  0  0  0  0  0  0
  -41.0200  -67.7250   52.7530 C   0  0  0  0  0  0  0  0  0  0  0  0
  -41.2910  -68.3820   53.9440 O   0  0  0  0  0  0  0  0  0  0  0  0
  -38.6400  -69.6620   52.6760 I   0  0  0  0  0  0  0  0  0  0  0  0
  -40.1600  -65.7350   49.1050 C   0  0  0  0  0  0  0  0  0  0  0  0
  -39.9950  -66.6700   48.0550 O   0  0  0  0  0  0  0  0  0  0  0  0
  -38.7340  -66.6380   47.5200 C   0  0  0  0  0  0  0  0  0  0  0  0
  -38.2560  -67.3300   46.5820 O   0  0  0  0  0  0  0  0  0  0  0  0
  -37.9870  -65.6210   48.2460 C   0  0  0  0  0  0  0  0  0  0  0  0
  -38.8150  -65.0860   49.1790 C   0  0  0  0  0  0  0  0  0  0  0  0
  -38.3150  -64.0750   50.0080 C   0  0  0  0  0  0  0  0  0  0  0  0
  -37.0150  -63.6460   49.8710 C   0  0  0  0  0  0  0  0  0  0  0  0
  -36.1720  -64.1880   48.9250 C   0  0  0  0  0  0  0  0  0  0  0  0
  -36.6520  -65.1800   48.1050 C   0  0  0  0  0  0  0  0  0  0  0  0
  -41.1040  -64.6680   48.7330 C   0  0  0  0  0  0  0  0  0  0  0  0
  -42.1700  -64.3420   49.4990 C   0  0  0  0  0  0  0  0  0  0  0  0
  -43.0210  -63.3230   49.0840 C   0  0  0  0  0  0  0  0  0  0  0  0
  -42.7890  -62.6510   47.9180 C   0  0  0  0  0  0  0  0  0  0  0  0
  -41.7140  -62.9540   47.1150 C   0  0  0  0  0  0  0  0  0  0  0  0
  -40.8930  -63.9610   47.5420 C   0  0  0  0  0  0  0  0  0  0  0  0
  -41.3600  -61.9110   45.3100 I   0  0  0  0  0  0  0  0  0  0  0  0
  -43.6540  -61.6360   47.5280 O   0  0  0  0  0  0  0  0  0  0  0  0
  -44.6950  -62.8190   50.2950 I   0  0  0  0  0  0  0  0  0  0  0  0
  -42.4570  -65.0010   50.7060 O   0  0  0  0  0  0  0  0  0  0  0  0
  -38.8050  -67.7190   50.2450 H   0  0  0  0  0  0  0  0  0  0  0  0
  -39.0040  -63.6790   50.7320 H   0  0  0  0  0  0  0  0  0  0  0  0
  -36.6720  -62.8690   50.5270 H   0  0  0  0  0  0  0  0  0  0  0  0
  -35.1320  -63.8580   48.8020 H   0  0  0  0  0  0  0  0  0  0  0  0
  -36.0310  -65.6440   47.3420 H   0  0  0  0  0  0  0  0  0  0  0  0
  -40.0410  -64.2200   46.9310 H   0  0  0  0  0  0  0  0  0  0  0  0
  2  7  1  0  0  0  0
  2  1  1  0  0  0  0
  3  2  2  0  0  0  0
  4  5  2  0  0  0  0
  4  3  1  0  0  0  0
  5  6  1  0  0  0  0
  6  9  1  0  0  0  0
  6  7  2  0  0  0  0
  7  8  1  0  0  0  0
 10 15  1  0  0  0  0
 10  4  1  0  0  0  0
 11 10  1  0  0  0  0
 12 11  1  0  0  0  0
 12 14  1  0  0  0  0
 13 12  2  0  0  0  0
 14 15  1  0  0  0  0
 15 16  2  0  0  0  0
 16 31  1  0  0  0  0
 17 16  1  0  0  0  0
 17 32  1  0  0  0  0
 18 17  2  0  0  0  0
 19 14  2  0  0  0  0
 19 18  1  0  0  0  0
 20 10  1  0  0  0  0
 20 21  1  0  0  0  0
 21 29  1  0  0  0  0
 22 21  2  0  0  0  0
 22 28  1  0  0  0  0
 23 22  1  0  0  0  0
 24 25  1  0  0  0  0
 24 23  2  0  0  0  0
 25 20  2  0  0  0  0
 26 24  1  0  0  0  0
 27 23  1  0  0  0  0
 29  3  1  0  0  0  0
 30  5  1  0  0  0  0
 33 18  1  0  0  0  0
 34 19  1  0  0  0  0
 35 25  1  0  0  0  0
M  END
>  <Pose>
1

>  <Score>
-6.22

$$$$
