
 OpenBabel03202209423D

 35 38  0  0  1  0  0  0  0  0999 V2000
  -42.7820  -65.1610   51.8340 I   0  0  0  0  0  0  0  0  0  0  0  0
  -41.2790  -65.1530   50.3570 C   0  0  0  0  0  0  0  0  0  0  0  0
  -40.2330  -66.0540   50.3580 C   0  0  0  0  0  0  0  0  0  0  0  0
  -39.2470  -66.0530   49.3950 C   0  0  0  0  0  0  0  0  0  0  0  0
  -39.3310  -65.0990   48.3970 C   0  0  0  0  0  0  0  0  0  0  0  0
  -40.3780  -64.1900   48.3880 C   0  0  0  0  0  0  0  0  0  0  0  0
  -41.3670  -64.1980   49.3640 C   0  0  0  0  0  0  0  0  0  0  0  0
  -42.3960  -63.2620   49.3070 O   0  0  0  0  0  0  0  0  0  0  0  0
  -38.1940  -66.9450   49.3780 C   0  0  0  0  0  0  0  0  0  0  0  0
  -38.1740  -67.8760   50.4120 C   0  0  0  0  0  0  0  0  0  0  0  0
  -39.2370  -67.8450   51.4140 C   0  0  0  0  0  0  0  0  0  0  0  0
  -39.1620  -68.7920   52.4130 C   0  0  2  0  0  0  0  0  0  0  0  0
  -38.1530  -69.7280   52.4870 C   0  0  0  0  0  0  0  0  0  0  0  0
  -38.1020  -70.5900   53.4130 O   0  0  0  0  0  0  0  0  0  0  0  0
  -37.1470  -69.7570   51.5410 C   0  0  0  0  0  0  0  0  0  0  0  0
  -37.1930  -68.8220   50.5260 C   0  0  0  0  0  0  0  0  0  0  0  0
  -40.6470  -68.8270   53.9010 I   0  0  0  0  0  0  0  0  0  0  0  0
  -40.1830  -66.9440   51.3170 O   0  0  0  0  0  0  0  0  0  0  0  0
  -37.1490  -66.9460   48.3600 C   0  0  0  0  0  0  0  0  0  0  0  0
  -36.0870  -66.0580   48.5010 C   0  0  0  0  0  0  0  0  0  0  0  0
  -35.0820  -66.0230   47.5710 C   0  0  0  0  0  0  0  0  0  0  0  0
  -35.1260  -66.8740   46.4880 C   0  0  0  0  0  0  0  0  0  0  0  0
  -36.1660  -67.7630   46.3260 C   0  0  0  0  0  0  0  0  0  0  0  0
  -37.1650  -67.7810   47.2730 C   0  0  0  0  0  0  0  0  0  0  0  0
  -36.0300  -65.1520   49.6440 C   0  0  0  0  0  0  0  0  0  0  0  0
  -36.8290  -64.2010   49.7980 O   0  0  0  0  0  0  0  0  0  0  0  0
  -35.0620  -65.3140   50.6250 O   0  0  0  0  0  0  0  0  0  0  0  0
  -38.5570  -65.1010   47.6430 H   0  0  0  0  0  0  0  0  0  0  0  0
  -40.3860  -63.4680   47.5800 H   0  0  0  0  0  0  0  0  0  0  0  0
  -36.3680  -70.5030   51.6230 H   0  0  0  0  0  0  0  0  0  0  0  0
  -36.4150  -68.8320   49.7780 H   0  0  0  0  0  0  0  0  0  0  0  0
  -34.2290  -65.3330   47.6530 H   0  0  0  0  0  0  0  0  0  0  0  0
  -34.3220  -66.8320   45.7630 H   0  0  0  0  0  0  0  0  0  0  0  0
  -36.1670  -68.4240   45.4520 H   0  0  0  0  0  0  0  0  0  0  0  0
  -37.9990  -68.4670   47.1770 H   0  0  0  0  0  0  0  0  0  0  0  0
  2  3  2  0  0  0  0
  2  1  1  0  0  0  0
  3 18  1  0  0  0  0
  4  3  1  0  0  0  0
  5  4  1  0  0  0  0
  6  5  1  0  0  0  0
  6  7  2  0  0  0  0
  7  2  1  0  0  0  0
  8  7  1  0  0  0  0
  9  4  2  0  0  0  0
  9 10  1  0  0  0  0
 10 16  1  0  0  0  0
 10 11  2  0  0  0  0
 11 12  1  0  0  0  0
 12 13  1  0  0  0  0
 12 17  1  6  0  0  0
 13 14  2  0  0  0  0
 15 30  1  0  0  0  0
 15 13  1  0  0  0  0
 16 15  2  0  0  0  0
 18 11  1  0  0  0  0
 19 20  1  0  0  0  0
 19  9  1  0  0  0  0
 20 25  1  0  0  0  0
 21 32  1  0  0  0  0
 21 20  2  0  0  0  0
 22 21  1  0  0  0  0
 23 22  2  0  0  0  0
 23 24  1  0  0  0  0
 24 19  2  0  0  0  0
 25 26  2  0  0  0  0
 25 27  1  0  0  0  0
 28  5  1  0  0  0  0
 29  6  1  0  0  0  0
 31 16  1  0  0  0  0
 33 22  1  0  0  0  0
 34 23  1  0  0  0  0
 35 24  1  0  0  0  0
M  END
>  <Pose>
1

>  <Score>
-5.90

$$$$
