
 OpenBabel03202209423D

 38 41  0  0  0  0  0  0  0  0999 V2000
  -46.5580  -66.8050   53.8940 S   0  0  0  0  0  0  0  0  0  0  0  0
  -46.0750  -68.0950   54.4960 O   0  0  0  0  0  0  0  0  0  0  0  0
  -47.6800  -66.2560   54.7410 O   0  0  0  0  0  0  0  0  0  0  0  0
  -47.0850  -67.1300   52.3310 O   0  0  0  0  0  0  0  0  0  0  0  0
  -45.2200  -65.7370   53.8850 O   0  0  0  0  0  0  0  0  0  0  0  0
  -44.2610  -65.7900   52.8800 C   0  0  0  0  0  0  0  0  0  0  0  0
  -43.1050  -66.5770   52.9770 C   0  0  0  0  0  0  0  0  0  0  0  0
  -42.4310  -66.3580   51.7970 C   0  0  0  0  0  0  0  0  0  0  0  0
  -43.1410  -65.5000   51.0520 N   0  0  0  0  0  0  0  0  0  0  0  0
  -44.2900  -65.1170   51.6870 C   0  0  0  0  0  0  0  0  0  0  0  0
  -45.2620  -64.1610   51.1680 C   0  0  0  0  0  0  0  0  0  0  0  0
  -46.5930  -64.2410   51.4410 N   0  0  0  0  0  0  0  0  0  0  0  0
  -47.2640  -63.2530   50.8290 C   0  0  0  0  0  0  0  0  0  0  0  0
  -46.3710  -62.4790   50.1210 C   0  0  0  0  0  0  0  0  0  0  0  0
  -45.1290  -63.0790   50.3550 C   0  0  0  0  0  0  0  0  0  0  0  0
  -43.9580  -62.5940   49.8020 O   0  0  0  0  0  0  0  0  0  0  0  0
  -43.4170  -63.0610   48.2540 S   0  0  0  0  0  0  0  0  0  0  0  0
  -42.3630  -64.1250   48.3520 O   0  0  0  0  0  0  0  0  0  0  0  0
  -42.8200  -61.9060   47.5010 O   0  0  0  0  0  0  0  0  0  0  0  0
  -44.7390  -63.5940   47.3320 O   0  0  0  0  0  0  0  0  0  0  0  0
  -46.7700  -61.3810   49.3860 C   0  0  0  0  0  0  0  0  0  0  0  0
  -48.1060  -61.0170   49.3370 C   0  0  0  0  0  0  0  0  0  0  0  0
  -49.0170  -61.7850   50.0450 C   0  0  0  0  0  0  0  0  0  0  0  0
  -48.5990  -62.8790   50.7740 C   0  0  0  0  0  0  0  0  0  0  0  0
  -49.9050  -63.8920   51.7250 B   0  0  0  0  0  0  0  0  0  0  0  0
  -48.6840  -59.4960   48.3220 B   0  0  0  0  0  0  0  0  0  0  0  0
  -41.2200  -67.0150   51.5910 C   0  0  0  0  0  0  0  0  0  0  0  0
  -40.7350  -67.8510   52.5580 C   0  0  0  0  0  0  0  0  0  0  0  0
  -41.4160  -68.0770   53.7580 C   0  0  0  0  0  0  0  0  0  0  0  0
  -42.6320  -67.4160   53.9610 C   0  0  0  0  0  0  0  0  0  0  0  0
  -40.6890  -69.2510   55.0620 B   0  0  0  0  0  0  0  0  0  0  0  0
  -40.2710  -66.7340   49.9770 B   0  0  0  0  0  0  0  0  0  0  0  0
  -42.8650  -65.1500   50.0910 H   0  0  0  0  0  0  0  0  0  0  0  0
  -47.0600  -64.9580   52.0390 H   0  0  0  0  0  0  0  0  0  0  0  0
  -46.0370  -60.8170   48.8550 H   0  0  0  0  0  0  0  0  0  0  0  0
  -50.0750  -61.4950   50.0050 H   0  0  0  0  0  0  0  0  0  0  0  0
  -39.7990  -68.3790   52.4360 H   0  0  0  0  0  0  0  0  0  0  0  0
  -43.1860  -67.5670   54.8810 H   0  0  0  0  0  0  0  0  0  0  0  0
  1  2  1  0  0  0  0
  1  3  1  0  0  0  0
  4  1  1  0  0  0  0
  5  1  1  0  0  0  0
  6  7  1  0  0  0  0
  6  5  1  0  0  0  0
  7 30  1  0  0  0  0
  8  7  2  0  0  0  0
  9 10  1  0  0  0  0
  9  8  1  0  0  0  0
 10  6  2  0  0  0  0
 11 12  1  0  0  0  0
 11 10  1  0  0  0  0
 12 34  1  0  0  0  0
 13 12  1  0  0  0  0
 14 15  1  0  0  0  0
 14 13  2  0  0  0  0
 15 11  2  0  0  0  0
 16 15  1  0  0  0  0
 17 18  1  0  0  0  0
 17 16  1  0  0  0  0
 19 17  1  0  0  0  0
 20 17  1  0  0  0  0
 21 14  1  0  0  0  0
 22 21  2  0  0  0  0
 22 23  1  0  0  0  0
 23 24  2  0  0  0  0
 24 13  1  0  0  0  0
 24 25  1  0  0  0  0
 26 22  1  0  0  0  0
 27  8  1  0  0  0  0
 27 28  2  0  0  0  0
 28 29  1  0  0  0  0
 29 30  2  0  0  0  0
 29 31  1  0  0  0  0
 30 38  1  0  0  0  0
 32 27  1  0  0  0  0
 33  9  1  0  0  0  0
 35 21  1  0  0  0  0
 36 23  1  0  0  0  0
 37 28  1  0  0  0  0
M  END
>  <Pose>
1

>  <Score>
-7.11

$$$$
