
 OpenBabel03202209423D

 46 51  0  0  1  0  0  0  0  0999 V2000
  -50.8240  -70.0130   56.2250 P   0  0  2  0  0  0  0  0  0  0  0  0
  -51.3130  -71.6730   56.0870 S   0  0  0  0  0  0  0  0  0  0  0  0
  -50.5290  -69.4230   54.6600 O   0  0  0  0  0  0  0  0  0  0  0  0
  -49.3070  -68.7590   54.7090 C   0  0  2  0  0  0  0  0  0  0  0  0
  -49.3280  -67.9330   55.9970 C   0  0  2  0  0  0  0  0  0  0  0  0
  -48.5820  -66.8270   55.6960 O   0  0  0  0  0  0  0  0  0  0  0  0
  -48.8320  -66.4860   54.3680 C   0  0  2  0  0  0  0  0  0  0  0  0
  -49.1430  -67.7390   53.6240 C   0  0  2  0  0  0  0  0  0  0  0  0
  -50.3280  -67.6110   52.8870 O   0  0  0  0  0  0  0  0  0  0  0  0
  -47.7080  -65.7480   53.7970 N   0  0  0  0  0  0  0  0  0  0  0  0
  -46.4000  -66.1060   53.7820 C   0  0  0  0  0  0  0  0  0  0  0  0
  -45.6410  -65.1450   53.1480 C   0  0  0  0  0  0  0  0  0  0  0  0
  -46.5190  -64.1900   52.7760 N   0  0  0  0  0  0  0  0  0  0  0  0
  -47.7550  -64.5600   53.1680 C   0  0  0  0  0  0  0  0  0  0  0  0
  -49.3860  -63.5950   52.9090 B   0  0  0  0  0  0  0  0  0  0  0  0
  -44.2770  -65.3240   53.0290 C   0  0  0  0  0  0  0  0  0  0  0  0
  -43.5790  -64.4590   52.4570 O   0  0  0  0  0  0  0  0  0  0  0  0
  -43.6490  -66.4190   53.5160 N   0  0  0  0  0  0  0  0  0  0  0  0
  -44.4090  -67.3440   54.1300 C   0  0  0  0  0  0  0  0  0  0  0  0
  -43.5610  -68.3150   54.5150 N   0  0  0  0  0  0  0  0  0  0  0  0
  -42.2920  -68.0370   54.1680 C   0  0  0  0  0  0  0  0  0  0  0  0
  -42.3470  -66.8180   53.5240 C   0  0  0  0  0  0  0  0  0  0  0  0
  -41.0970  -68.8540   54.4150 C   0  0  0  0  0  0  0  0  0  0  0  0
  -40.3660  -69.3520   53.3610 C   0  0  0  0  0  0  0  0  0  0  0  0
  -39.2300  -70.1270   53.5630 C   0  0  0  0  0  0  0  0  0  0  0  0
  -38.8350  -70.3970   54.8540 C   0  0  0  0  0  0  0  0  0  0  0  0
  -39.5440  -69.9150   55.9430 C   0  0  0  0  0  0  0  0  0  0  0  0
  -40.6610  -69.1520   55.6830 C   0  0  0  0  0  0  0  0  0  0  0  0
  -45.7570  -67.1850   54.2570 N   0  0  0  0  0  0  0  0  0  0  0  0
  -48.7240  -68.8060   57.0710 C   0  0  0  0  0  0  0  0  0  0  0  0
  -49.4230  -69.9880   57.1690 O   0  0  0  0  0  0  0  0  0  0  0  0
  -51.9940  -69.0910   57.0240 O   0  0  0  0  0  0  0  0  0  0  0  0
  -48.4860  -69.4890   54.7010 H   0  0  0  0  0  0  0  0  0  0  0  0
  -50.3420  -67.6190   56.2670 H   0  0  0  0  0  0  0  0  0  0  0  0
  -49.7120  -65.7780   54.4040 H   0  0  0  0  0  0  0  0  0  0  0  0
  -48.3160  -68.0230   52.9710 H   0  0  0  0  0  0  0  0  0  0  0  0
  -50.1920  -67.7980   51.9360 H   0  0  0  0  0  0  0  0  0  0  0  0
  -41.5160  -66.2610   53.0960 H   0  0  0  0  0  0  0  0  0  0  0  0
  -40.6750  -69.1400   52.3500 H   0  0  0  0  0  0  0  0  0  0  0  0
  -38.6510  -70.5220   52.7370 H   0  0  0  0  0  0  0  0  0  0  0  0
  -37.9560  -70.9970   55.0380 H   0  0  0  0  0  0  0  0  0  0  0  0
  -39.2110  -70.1420   56.9540 H   0  0  0  0  0  0  0  0  0  0  0  0
  -41.2230  -68.7690   56.5180 H   0  0  0  0  0  0  0  0  0  0  0  0
  -46.3420  -67.9070   54.7350 H   0  0  0  0  0  0  0  0  0  0  0  0
  -48.5990  -68.2770   58.0360 H   0  0  0  0  0  0  0  0  0  0  0  0
  -47.6780  -69.0610   56.7340 H   0  0  0  0  0  0  0  0  0  0  0  0
  1  2  1  6  0  0  0
  1 32  2  0  0  0  0
  1 31  1  0  0  0  0
  3  4  1  0  0  0  0
  3  1  1  0  0  0  0
  4 33  1  1  0  0  0
  4  5  1  0  0  0  0
  5 34  1  1  0  0  0
  5 30  1  0  0  0  0
  6  5  1  0  0  0  0
  7 35  1  6  0  0  0
  7  6  1  0  0  0  0
  8 36  1  6  0  0  0
  8  7  1  0  0  0  0
  8  4  1  0  0  0  0
  9  8  1  0  0  0  0
 10  7  1  0  0  0  0
 11 10  1  0  0  0  0
 11 29  1  0  0  0  0
 12 11  2  0  0  0  0
 13 12  1  0  0  0  0
 13 14  2  0  0  0  0
 14 10  1  0  0  0  0
 15 14  1  0  0  0  0
 16 12  1  0  0  0  0
 16 18  1  0  0  0  0
 17 16  2  0  0  0  0
 18 22  1  0  0  0  0
 18 19  1  0  0  0  0
 19 29  1  0  0  0  0
 19 20  2  0  0  0  0
 21 23  1  0  0  0  0
 21 20  1  0  0  0  0
 22 21  2  0  0  0  0
 23 28  1  0  0  0  0
 24 25  1  0  0  0  0
 24 23  2  0  0  0  0
 25 26  2  0  0  0  0
 26 41  1  0  0  0  0
 26 27  1  0  0  0  0
 27 42  1  0  0  0  0
 28 27  2  0  0  0  0
 28 43  1  0  0  0  0
 29 44  1  0  0  0  0
 30 31  1  0  0  0  0
 30 45  1  0  0  0  0
 37  9  1  0  0  0  0
 38 22  1  0  0  0  0
 39 24  1  0  0  0  0
 40 25  1  0  0  0  0
 46 30  1  0  0  0  0
M  END
>  <Pose>
1

>  <Score>
-6.72

$$$$
