
 OpenBabel03202209423D

 33 36  0  0  1  0  0  0  0  0999 V2000
  -47.5110  -64.9190   52.6150 P   0  0  2  0  0  0  0  0  0  0  0  0
  -47.8250  -65.7520   51.1140 S   0  0  0  0  0  0  0  0  0  0  0  0
  -45.9090  -64.3300   52.6210 O   0  0  0  0  0  0  0  0  0  0  0  0
  -45.0860  -65.4180   52.7730 C   0  0  2  0  0  0  0  0  0  0  0  0
  -45.3820  -66.0710   54.1300 C   0  0  2  0  0  0  0  0  0  0  0  0
  -44.2620  -66.8900   54.2570 O   0  0  0  0  0  0  0  0  0  0  0  0
  -43.1810  -66.0930   53.9640 C   0  0  2  0  0  0  0  0  0  0  0  0
  -43.6310  -65.0410   52.9830 C   0  0  2  0  0  0  0  0  0  0  0  0
  -43.6320  -63.8170   53.6650 O   0  0  0  0  0  0  0  0  0  0  0  0
  -42.0900  -66.8240   53.3480 N   0  0  0  0  0  0  0  0  0  0  0  0
  -41.4740  -67.8910   53.9160 C   0  0  0  0  0  0  0  0  0  0  0  0
  -41.6660  -68.5290   55.0990 N   0  0  0  0  0  0  0  0  0  0  0  0
  -40.9110  -69.5900   55.4490 C   0  0  0  0  0  0  0  0  0  0  0  0
  -39.9420  -70.0310   54.6100 N   0  0  0  0  0  0  0  0  0  0  0  0
  -39.7210  -69.4260   53.4300 C   0  0  0  0  0  0  0  0  0  0  0  0
  -40.4890  -68.3370   53.0580 C   0  0  0  0  0  0  0  0  0  0  0  0
  -40.5100  -67.5410   51.9740 N   0  0  0  0  0  0  0  0  0  0  0  0
  -41.4870  -66.6270   52.1640 C   0  0  0  0  0  0  0  0  0  0  0  0
  -42.0030  -65.2180   50.9670 B   0  0  0  0  0  0  0  0  0  0  0  0
  -38.6940  -69.9050   52.5550 N   0  0  0  0  0  0  0  0  0  0  0  0
  -46.6680  -66.8360   54.0960 C   0  0  0  0  0  0  0  0  0  0  0  0
  -47.7070  -65.9390   53.9240 O   0  0  0  0  0  0  0  0  0  0  0  0
  -48.5450  -63.6110   52.7090 O   0  0  0  0  0  0  0  0  0  0  0  0
  -45.2220  -66.1880   52.0140 H   0  0  0  0  0  0  0  0  0  0  0  0
  -45.3620  -65.2720   54.8830 H   0  0  0  0  0  0  0  0  0  0  0  0
  -42.7870  -65.6580   54.9120 H   0  0  0  0  0  0  0  0  0  0  0  0
  -43.0520  -65.0220   52.0590 H   0  0  0  0  0  0  0  0  0  0  0  0
  -44.2330  -63.1580   53.2710 H   0  0  0  0  0  0  0  0  0  0  0  0
  -41.1020  -70.0720   56.4120 H   0  0  0  0  0  0  0  0  0  0  0  0
  -38.2150  -70.8150   52.7950 H   0  0  0  0  0  0  0  0  0  0  0  0
  -38.4060  -69.3930   51.6980 H   0  0  0  0  0  0  0  0  0  0  0  0
  -46.8020  -67.3390   55.0540 H   0  0  0  0  0  0  0  0  0  0  0  0
  -46.6000  -67.5910   53.2890 H   0  0  0  0  0  0  0  0  0  0  0  0
  1  2  1  6  0  0  0
  1  3  1  0  0  0  0
  1 23  2  0  0  0  0
  1 22  1  0  0  0  0
  3  4  1  0  0  0  0
  4 24  1  6  0  0  0
  4  8  1  0  0  0  0
  4  5  1  0  0  0  0
  5  6  1  0  0  0  0
  5 25  1  1  0  0  0
  7  6  1  0  0  0  0
  7 26  1  1  0  0  0
  8 27  1  6  0  0  0
  8  9  1  0  0  0  0
  8  7  1  0  0  0  0
 10 11  1  0  0  0  0
 10  7  1  0  0  0  0
 11 12  1  0  0  0  0
 12 13  2  0  0  0  0
 13 29  1  0  0  0  0
 14 13  1  0  0  0  0
 15 14  2  0  0  0  0
 16 15  1  0  0  0  0
 16 11  2  0  0  0  0
 17 18  2  0  0  0  0
 17 16  1  0  0  0  0
 18 10  1  0  0  0  0
 19 18  1  0  0  0  0
 20 30  1  0  0  0  0
 20 15  1  0  0  0  0
 21  5  1  0  0  0  0
 21 32  1  0  0  0  0
 22 21  1  0  0  0  0
 28  9  1  0  0  0  0
 31 20  1  0  0  0  0
 33 21  1  0  0  0  0
M  END
>  <Pose>
1

>  <Score>
-6.62

$$$$
