
 OpenBabel03202209423D

 52 55  0  0  1  0  0  0  0  0999 V2000
  -42.9240  -65.6670   52.0470 S   0  0  0  0  0  0  0  0  0  0  0  0
  -43.7570  -64.0990   51.8050 C   0  0  1  0  0  0  0  0  0  0  0  0
  -43.5320  -63.6740   50.4600 N   0  0  0  0  0  0  0  0  0  0  0  0
  -42.5300  -64.0950   49.5300 C   0  0  0  0  0  0  0  0  0  0  0  0
  -41.5070  -64.7700   49.9480 C   0  0  0  0  0  0  0  0  0  0  0  0
  -41.2810  -65.1650   51.4150 C   0  0  0  0  0  0  0  0  0  0  0  0
  -40.4270  -65.2650   49.1330 C   0  0  0  0  0  0  0  0  0  0  0  0
  -39.2860  -64.5720   48.9030 O   0  0  0  0  0  0  0  0  0  0  0  0
  -38.5770  -64.6320   47.6970 C   0  0  0  0  0  0  0  0  0  0  0  0
  -39.2440  -64.5970   46.6460 O   0  0  0  0  0  0  0  0  0  0  0  0
  -37.1000  -64.7320   47.7650 C   0  0  0  0  0  0  0  0  0  0  0  0
  -42.7580  -63.7000   48.1090 C   0  0  0  0  0  0  0  0  0  0  0  0
  -43.7650  -63.8800   47.4590 O   0  0  0  0  0  0  0  0  0  0  0  0
  -41.7180  -63.0490   47.4180 O   0  0  0  0  0  0  0  0  0  0  0  0
  -44.6660  -62.8530   50.6780 C   0  0  0  0  0  0  0  0  0  0  0  0
  -45.1680  -61.7480   50.4420 O   0  0  0  0  0  0  0  0  0  0  0  0
  -45.1900  -64.0320   51.4810 C   0  0  1  0  0  0  0  0  0  0  0  0
  -45.7270  -64.9760   50.5560 N   0  0  0  0  0  0  0  0  0  0  0  0
  -46.9960  -65.5530   50.8100 C   0  0  0  0  0  0  0  0  0  0  0  0
  -47.7920  -65.6930   49.8430 O   0  0  0  0  0  0  0  0  0  0  0  0
  -47.4010  -65.9850   52.1510 C   0  0  0  0  0  0  0  0  0  0  0  0
  -48.5900  -66.1430   52.6420 O   0  0  0  0  0  0  0  0  0  0  0  0
  -48.5690  -66.5400   53.8720 C   0  0  0  0  0  0  0  0  0  0  0  0
  -47.2250  -66.6600   54.2470 C   0  0  0  0  0  0  0  0  0  0  0  0
  -46.5000  -66.3040   53.1420 C   0  0  0  0  0  0  0  0  0  0  0  0
  -49.7360  -66.8330   54.7810 C   0  0  0  0  0  0  0  0  0  0  0  0
  -49.2950  -67.1450   56.0770 O   0  0  0  0  0  0  0  0  0  0  0  0
  -49.5790  -68.2850   56.7720 C   0  0  0  0  0  0  0  0  0  0  0  0
  -48.6370  -69.0490   57.4560 C   0  0  0  0  0  0  0  0  0  0  0  0
  -49.0350  -70.1830   58.1270 C   0  0  0  0  0  0  0  0  0  0  0  0
  -50.3380  -70.6220   58.1660 C   0  0  0  0  0  0  0  0  0  0  0  0
  -51.2820  -69.8680   57.4900 C   0  0  0  0  0  0  0  0  0  0  0  0
  -50.8870  -68.7230   56.8110 C   0  0  0  0  0  0  0  0  0  0  0  0
  -50.8310  -72.2020   59.1140 B   0  0  0  0  0  0  0  0  0  0  0  0
  -43.4850  -63.3080   52.5380 H   0  0  0  0  0  0  0  0  0  0  0  0
  -40.5650  -65.9710   51.5210 H   0  0  0  0  0  0  0  0  0  0  0  0
  -40.9470  -64.2400   51.9150 H   0  0  0  0  0  0  0  0  0  0  0  0
  -40.0910  -66.3020   49.5610 H   0  0  0  0  0  0  0  0  0  0  0  0
  -40.8630  -65.5930   48.1030 H   0  0  0  0  0  0  0  0  0  0  0  0
  -36.7930  -65.1540   48.7440 H   0  0  0  0  0  0  0  0  0  0  0  0
  -36.6330  -63.7050   47.6850 H   0  0  0  0  0  0  0  0  0  0  0  0
  -36.6750  -65.3430   46.9540 H   0  0  0  0  0  0  0  0  0  0  0  0
  -45.8910  -63.7360   52.2790 H   0  0  0  0  0  0  0  0  0  0  0  0
  -45.2330  -65.2800   49.6780 H   0  0  0  0  0  0  0  0  0  0  0  0
  -46.8980  -66.9790   55.2320 H   0  0  0  0  0  0  0  0  0  0  0  0
  -45.4190  -66.2880   53.0920 H   0  0  0  0  0  0  0  0  0  0  0  0
  -50.3730  -67.6320   54.3430 H   0  0  0  0  0  0  0  0  0  0  0  0
  -50.3760  -65.9290   54.8540 H   0  0  0  0  0  0  0  0  0  0  0  0
  -47.6140  -68.7360   57.4420 H   0  0  0  0  0  0  0  0  0  0  0  0
  -48.2860  -70.7540   58.6460 H   0  0  0  0  0  0  0  0  0  0  0  0
  -52.3070  -70.2060   57.5170 H   0  0  0  0  0  0  0  0  0  0  0  0
  -51.6970  -68.1890   56.3050 H   0  0  0  0  0  0  0  0  0  0  0  0
  2  1  1  0  0  0  0
  2 35  1  1  0  0  0
  3 15  1  0  0  0  0
  3  2  1  0  0  0  0
  4  5  2  0  0  0  0
  4  3  1  0  0  0  0
  5  6  1  0  0  0  0
  6 36  1  0  0  0  0
  6 37  1  0  0  0  0
  6  1  1  0  0  0  0
  7 38  1  0  0  0  0
  7  5  1  0  0  0  0
  8  7  1  0  0  0  0
  9 11  1  0  0  0  0
  9  8  1  0  0  0  0
 10  9  2  0  0  0  0
 11 40  1  0  0  0  0
 12  4  1  0  0  0  0
 13 12  1  0  0  0  0
 14 12  2  0  0  0  0
 15 17  1  0  0  0  0
 16 15  2  0  0  0  0
 17  2  1  0  0  0  0
 17 43  1  1  0  0  0
 18 19  1  0  0  0  0
 18 17  1  0  0  0  0
 19 21  1  0  0  0  0
 20 19  2  0  0  0  0
 21 22  1  0  0  0  0
 21 25  2  0  0  0  0
 22 23  1  0  0  0  0
 23 24  2  0  0  0  0
 23 26  1  0  0  0  0
 24 45  1  0  0  0  0
 25 24  1  0  0  0  0
 26 48  1  0  0  0  0
 26 27  1  0  0  0  0
 27 28  1  0  0  0  0
 28 33  2  0  0  0  0
 28 29  1  0  0  0  0
 29 30  2  0  0  0  0
 30 31  1  0  0  0  0
 30 50  1  0  0  0  0
 31 34  1  0  0  0  0
 32 51  1  0  0  0  0
 32 31  2  0  0  0  0
 33 32  1  0  0  0  0
 39  7  1  0  0  0  0
 41 11  1  0  0  0  0
 42 11  1  0  0  0  0
 44 18  1  0  0  0  0
 46 25  1  0  0  0  0
 47 26  1  0  0  0  0
 49 29  1  0  0  0  0
 52 33  1  0  0  0  0
M  END
>  <Pose>
1

>  <Score>
-5.87

$$$$
