
 OpenBabel03202209423D

 33 36  0  0  1  0  0  0  0  0999 V2000
  -39.8450  -63.9150   49.3080 P   0  0  2  0  0  0  0  0  0  0  0  0
  -38.9290  -62.6910   49.2420 O   0  0  0  0  0  0  0  0  0  0  0  0
  -40.7120  -63.8190   50.7420 O   0  0  0  0  0  0  0  0  0  0  0  0
  -40.7150  -65.0120   51.4190 C   0  0  2  0  0  0  0  0  0  0  0  0
  -40.7170  -66.1190   50.3560 C   0  0  2  0  0  0  0  0  0  0  0  0
  -41.3330  -67.1930   50.9250 O   0  0  0  0  0  0  0  0  0  0  0  0
  -42.1790  -66.7770   51.9150 C   0  0  2  0  0  0  0  0  0  0  0  0
  -42.0060  -65.3140   52.1320 C   0  0  2  0  0  0  0  0  0  0  0  0
  -43.0320  -64.5470   51.6160 O   0  0  0  0  0  0  0  0  0  0  0  0
  -41.8870  -67.5620   53.1070 N   0  0  0  0  0  0  0  0  0  0  0  0
  -40.9010  -68.4820   53.2290 C   0  0  0  0  0  0  0  0  0  0  0  0
  -39.9760  -68.9030   52.3490 N   0  0  0  0  0  0  0  0  0  0  0  0
  -39.0930  -69.8430   52.7210 C   0  0  0  0  0  0  0  0  0  0  0  0
  -39.1420  -70.3530   53.9660 N   0  0  0  0  0  0  0  0  0  0  0  0
  -40.0360  -69.9810   54.8950 C   0  0  0  0  0  0  0  0  0  0  0  0
  -40.9490  -69.0050   54.5030 C   0  0  0  0  0  0  0  0  0  0  0  0
  -41.9500  -68.4140   55.1500 N   0  0  0  0  0  0  0  0  0  0  0  0
  -42.5120  -67.5420   54.2950 C   0  0  0  0  0  0  0  0  0  0  0  0
  -44.0120  -66.3820   54.6510 B   0  0  0  0  0  0  0  0  0  0  0  0
  -40.0970  -70.5110   56.2110 N   0  0  0  0  0  0  0  0  0  0  0  0
  -39.2870  -66.3290   49.9730 C   0  0  0  0  0  0  0  0  0  0  0  0
  -38.8780  -65.2700   49.1980 O   0  0  0  0  0  0  0  0  0  0  0  0
  -40.9030  -63.7720   47.9710 O   0  0  0  0  0  0  0  0  0  0  0  0
  -39.8780  -65.1500   52.1090 H   0  0  0  0  0  0  0  0  0  0  0  0
  -41.2990  -65.8010   49.4630 H   0  0  0  0  0  0  0  0  0  0  0  0
  -43.2490  -66.9380   51.5970 H   0  0  0  0  0  0  0  0  0  0  0  0
  -41.9290  -65.0900   53.2170 H   0  0  0  0  0  0  0  0  0  0  0  0
  -43.2590  -64.7600   50.6970 H   0  0  0  0  0  0  0  0  0  0  0  0
  -38.3240  -70.2050   52.0150 H   0  0  0  0  0  0  0  0  0  0  0  0
  -39.4260  -71.2970   56.4600 H   0  0  0  0  0  0  0  0  0  0  0  0
  -40.7430  -70.1890   56.9380 H   0  0  0  0  0  0  0  0  0  0  0  0
  -38.6780  -66.2860   50.9230 H   0  0  0  0  0  0  0  0  0  0  0  0
  -39.0780  -67.3180   49.5390 H   0  0  0  0  0  0  0  0  0  0  0  0
  1 23  2  6  0  0  0
  1  3  1  0  0  0  0
  2  1  1  0  0  0  0
  3  4  1  0  0  0  0
  4 24  1  1  0  0  0
  4  8  1  0  0  0  0
  5 25  1  6  0  0  0
  5  6  1  0  0  0  0
  5  4  1  0  0  0  0
  6  7  1  0  0  0  0
  7 26  1  6  0  0  0
  7  8  1  0  0  0  0
  7 10  1  0  0  0  0
  8 27  1  1  0  0  0
  9  8  1  0  0  0  0
 10 11  1  0  0  0  0
 10 18  1  0  0  0  0
 11 16  2  0  0  0  0
 12 13  2  0  0  0  0
 12 11  1  0  0  0  0
 13 14  1  0  0  0  0
 14 15  2  0  0  0  0
 15 20  1  0  0  0  0
 16 15  1  0  0  0  0
 16 17  1  0  0  0  0
 18 19  1  0  0  0  0
 18 17  2  0  0  0  0
 20 30  1  0  0  0  0
 20 31  1  0  0  0  0
 21  5  1  0  0  0  0
 21 32  1  0  0  0  0
 22  1  1  0  0  0  0
 22 21  1  0  0  0  0
 28  9  1  0  0  0  0
 29 13  1  0  0  0  0
 33 21  1  0  0  0  0
M  END
>  <Pose>
1

>  <Score>
-6.61

$$$$
