
 OpenBabel03202209423D

 47 50  0  0  1  0  0  0  0  0999 V2000
  -41.1040  -68.9370   54.9100 S   0  0  0  0  0  0  0  0  0  0  0  0
  -42.5460  -69.3700   55.0750 O   0  0  0  0  0  0  0  0  0  0  0  0
  -40.7390  -68.0480   56.0740 O   0  0  0  0  0  0  0  0  0  0  0  0
  -40.1490  -70.3620   54.8890 N   0  0  0  0  0  0  0  0  0  0  0  0
  -40.9450  -68.0800   53.4060 C   0  0  0  0  0  0  0  0  0  0  0  0
  -41.4400  -66.8010   53.2960 C   0  0  0  0  0  0  0  0  0  0  0  0
  -41.3380  -66.0720   52.1160 C   0  0  0  0  0  0  0  0  0  0  0  0
  -40.7180  -66.6740   51.0440 C   0  0  0  0  0  0  0  0  0  0  0  0
  -40.2130  -67.9700   51.1480 C   0  0  0  0  0  0  0  0  0  0  0  0
  -40.3220  -68.6770   52.3240 C   0  0  0  0  0  0  0  0  0  0  0  0
  -40.5390  -65.7460   49.4020 B   0  0  0  0  0  0  0  0  0  0  0  0
  -41.8670  -64.7260   52.0150 C   0  0  0  0  0  0  0  0  0  0  0  0
  -41.1120  -63.7990   51.6320 O   0  0  0  0  0  0  0  0  0  0  0  0
  -43.2280  -64.4490   52.3410 N   0  0  0  0  0  0  0  0  0  0  0  0
  -44.0460  -63.6400   51.4630 C   0  0  0  0  0  0  0  0  0  0  0  0
  -45.4470  -64.1500   51.3270 C   0  0  2  0  0  0  0  0  0  0  0  0
  -45.4470  -65.5890   51.8510 C   0  0  0  0  0  0  0  0  0  0  0  0
  -45.2140  -65.4780   53.3420 C   0  0  0  0  0  0  0  0  0  0  0  0
  -43.8130  -64.9650   53.5510 C   0  0  0  0  0  0  0  0  0  0  0  0
  -45.9600  -64.0950   49.9220 C   0  0  0  0  0  0  0  0  0  0  0  0
  -45.3200  -63.5640   48.8470 N   0  0  0  0  0  0  0  0  0  0  0  0
  -46.0730  -63.6900   47.7510 C   0  0  0  0  0  0  0  0  0  0  0  0
  -47.2100  -64.3190   48.1750 N   0  0  0  0  0  0  0  0  0  0  0  0
  -47.1370  -64.5580   49.4700 N   0  0  0  0  0  0  0  0  0  0  0  0
  -45.4120  -63.1190   46.5410 C   0  0  0  0  0  0  0  0  0  0  0  0
  -44.0030  -62.9390   47.0150 C   0  0  0  0  0  0  0  0  0  0  0  0
  -44.0690  -62.9010   48.5270 C   0  0  0  0  0  0  0  0  0  0  0  0
  -40.4190  -70.9990   54.1010 H   0  0  0  0  0  0  0  0  0  0  0  0
  -40.2320  -70.8680   55.8050 H   0  0  0  0  0  0  0  0  0  0  0  0
  -41.9270  -66.3690   54.1840 H   0  0  0  0  0  0  0  0  0  0  0  0
  -39.7360  -68.3940   50.2750 H   0  0  0  0  0  0  0  0  0  0  0  0
  -39.9390  -69.6760   52.4240 H   0  0  0  0  0  0  0  0  0  0  0  0
  -43.5610  -63.4420   50.4880 H   0  0  0  0  0  0  0  0  0  0  0  0
  -44.1190  -62.6300   51.9600 H   0  0  0  0  0  0  0  0  0  0  0  0
  -46.1780  -63.6200   51.9710 H   0  0  0  0  0  0  0  0  0  0  0  0
  -46.4050  -66.0800   51.6110 H   0  0  0  0  0  0  0  0  0  0  0  0
  -44.6130  -66.1500   51.3990 H   0  0  0  0  0  0  0  0  0  0  0  0
  -45.9790  -64.7690   53.7560 H   0  0  0  0  0  0  0  0  0  0  0  0
  -45.3790  -66.4750   53.7950 H   0  0  0  0  0  0  0  0  0  0  0  0
  -43.2010  -65.8550   53.8700 H   0  0  0  0  0  0  0  0  0  0  0  0
  -43.7950  -64.2230   54.3850 H   0  0  0  0  0  0  0  0  0  0  0  0
  -45.4120  -63.8490   45.6940 H   0  0  0  0  0  0  0  0  0  0  0  0
  -45.9140  -62.1680   46.2730 H   0  0  0  0  0  0  0  0  0  0  0  0
  -43.3210  -63.7670   46.6800 H   0  0  0  0  0  0  0  0  0  0  0  0
  -43.6060  -61.9820   46.6020 H   0  0  0  0  0  0  0  0  0  0  0  0
  -44.0750  -61.8320   48.8200 H   0  0  0  0  0  0  0  0  0  0  0  0
  -43.1970  -63.3720   48.9790 H   0  0  0  0  0  0  0  0  0  0  0  0
  1  2  2  0  0  0  0
  1  3  2  0  0  0  0
  4  1  1  0  0  0  0
  4 29  1  0  0  0  0
  5  1  1  0  0  0  0
  6  5  1  0  0  0  0
  6 30  1  0  0  0  0
  7  6  2  0  0  0  0
  8  9  2  0  0  0  0
  8  7  1  0  0  0  0
  9 10  1  0  0  0  0
 10 32  1  0  0  0  0
 10  5  2  0  0  0  0
 11  8  1  0  0  0  0
 12  7  1  0  0  0  0
 12 14  1  0  0  0  0
 13 12  2  0  0  0  0
 14 19  1  0  0  0  0
 15 34  1  0  0  0  0
 15 14  1  0  0  0  0
 16 15  1  0  0  0  0
 16 17  1  0  0  0  0
 16 35  1  1  0  0  0
 17 18  1  0  0  0  0
 18 19  1  0  0  0  0
 18 38  1  0  0  0  0
 18 39  1  0  0  0  0
 19 40  1  0  0  0  0
 19 41  1  0  0  0  0
 20 16  1  0  0  0  0
 21 20  1  0  0  0  0
 22 23  2  0  0  0  0
 22 21  1  0  0  0  0
 23 24  1  0  0  0  0
 24 20  2  0  0  0  0
 25 26  1  0  0  0  0
 25 22  1  0  0  0  0
 26 27  1  0  0  0  0
 27 46  1  0  0  0  0
 27 21  1  0  0  0  0
 27 47  1  0  0  0  0
 28  4  1  0  0  0  0
 31  9  1  0  0  0  0
 33 15  1  0  0  0  0
 36 17  1  0  0  0  0
 37 17  1  0  0  0  0
 42 25  1  0  0  0  0
 43 25  1  0  0  0  0
 44 26  1  0  0  0  0
 45 26  1  0  0  0  0
M  END
>  <Pose>
1

>  <Score>
-6.86

$$$$
