
 OpenBabel03202209423D

 54 57  0  0  0  0  0  0  0  0999 V2000
  -46.3260  -64.2880   51.9190 S   0  0  0  0  0  0  0  0  0  0  0  0
  -45.8010  -64.4620   50.4990 O   0  0  0  0  0  0  0  0  0  0  0  0
  -47.3180  -63.1770   51.8570 O   0  0  0  0  0  0  0  0  0  0  0  0
  -44.9530  -63.8840   52.8780 N   0  0  0  0  0  0  0  0  0  0  0  0
  -43.7040  -64.0460   52.1620 C   0  0  0  0  0  0  0  0  0  0  0  0
  -42.7960  -64.8650   53.0680 C   0  0  0  0  0  0  0  0  0  0  0  0
  -43.1510  -66.3260   53.0080 C   0  0  0  0  0  0  0  0  0  0  0  0
  -42.0800  -67.0820   53.5410 N   0  0  0  0  0  0  0  0  0  0  0  0
  -42.4200  -68.0900   54.4800 C   0  0  0  0  0  0  0  0  0  0  0  0
  -41.1820  -68.4220   55.2960 C   0  0  0  0  0  0  0  0  0  0  0  0
  -40.0550  -68.4970   54.5010 O   0  0  0  0  0  0  0  0  0  0  0  0
  -40.3380  -68.6640   53.1510 C   0  0  0  0  0  0  0  0  0  0  0  0
  -40.9990  -67.3680   52.6720 C   0  0  0  0  0  0  0  0  0  0  0  0
  -47.0450  -65.7770   52.4720 C   0  0  0  0  0  0  0  0  0  0  0  0
  -48.2580  -66.2030   51.9210 C   0  0  0  0  0  0  0  0  0  0  0  0
  -48.8460  -67.3740   52.3460 C   0  0  0  0  0  0  0  0  0  0  0  0
  -48.2800  -68.1770   53.3200 C   0  0  0  0  0  0  0  0  0  0  0  0
  -47.0940  -67.7700   53.8640 C   0  0  0  0  0  0  0  0  0  0  0  0
  -46.4910  -66.5810   53.4380 C   0  0  0  0  0  0  0  0  0  0  0  0
  -44.8230  -66.0220   54.2000 B   0  0  0  0  0  0  0  0  0  0  0  0
  -49.1490  -69.3670   53.5420 C   0  0  0  0  0  0  0  0  0  0  0  0
  -49.9800  -69.3930   52.2410 C   0  0  0  0  0  0  0  0  0  0  0  0
  -50.0810  -67.9790   51.9200 N   0  0  0  0  0  0  0  0  0  0  0  0
  -51.1410  -67.2620   51.3190 C   0  0  0  0  0  0  0  0  0  0  0  0
  -51.5250  -66.1420   51.7300 O   0  0  0  0  0  0  0  0  0  0  0  0
  -51.8320  -67.8590   50.1520 C   0  0  0  0  0  0  0  0  0  0  0  0
  -50.9510  -68.2200   49.0260 C   0  0  0  0  0  0  0  0  0  0  0  0
  -51.9510  -67.0990   48.8820 C   0  0  0  0  0  0  0  0  0  0  0  0
  -45.0680  -62.9060   53.2080 H   0  0  0  0  0  0  0  0  0  0  0  0
  -43.2450  -63.0970   51.8550 H   0  0  0  0  0  0  0  0  0  0  0  0
  -43.9370  -64.7170   51.2850 H   0  0  0  0  0  0  0  0  0  0  0  0
  -41.7230  -64.7330   52.7980 H   0  0  0  0  0  0  0  0  0  0  0  0
  -43.0140  -64.5150   54.1070 H   0  0  0  0  0  0  0  0  0  0  0  0
  -43.3090  -66.6570   51.9440 H   0  0  0  0  0  0  0  0  0  0  0  0
  -44.0920  -66.5180   53.5410 H   0  0  0  0  0  0  0  0  0  0  0  0
  -42.7110  -69.0080   53.9340 H   0  0  0  0  0  0  0  0  0  0  0  0
  -43.2330  -67.7170   55.1240 H   0  0  0  0  0  0  0  0  0  0  0  0
  -41.0210  -67.6280   56.0590 H   0  0  0  0  0  0  0  0  0  0  0  0
  -41.3650  -69.3560   55.8690 H   0  0  0  0  0  0  0  0  0  0  0  0
  -39.3840  -68.8510   52.6250 H   0  0  0  0  0  0  0  0  0  0  0  0
  -41.0050  -69.5320   52.9540 H   0  0  0  0  0  0  0  0  0  0  0  0
  -40.2330  -66.5910   52.6060 H   0  0  0  0  0  0  0  0  0  0  0  0
  -41.3380  -67.5900   51.6330 H   0  0  0  0  0  0  0  0  0  0  0  0
  -48.7180  -65.5770   51.1490 H   0  0  0  0  0  0  0  0  0  0  0  0
  -46.5840  -68.3400   54.6340 H   0  0  0  0  0  0  0  0  0  0  0  0
  -49.8060  -69.2720   54.4080 H   0  0  0  0  0  0  0  0  0  0  0  0
  -48.5890  -70.3080   53.6010 H   0  0  0  0  0  0  0  0  0  0  0  0
  -49.3820  -69.8570   51.4300 H   0  0  0  0  0  0  0  0  0  0  0  0
  -50.9340  -69.8890   52.4030 H   0  0  0  0  0  0  0  0  0  0  0  0
  -52.6810  -68.5530   50.3910 H   0  0  0  0  0  0  0  0  0  0  0  0
  -49.8960  -67.8360   48.9780 H   0  0  0  0  0  0  0  0  0  0  0  0
  -51.0810  -69.1480   48.4690 H   0  0  0  0  0  0  0  0  0  0  0  0
  -51.6290  -66.0510   48.8030 H   0  0  0  0  0  0  0  0  0  0  0  0
  -52.8030  -67.3620   48.2230 H   0  0  0  0  0  0  0  0  0  0  0  0
  1 14  1  0  0  0  0
  1  4  1  0  0  0  0
  2  1  2  0  0  0  0
  3  1  2  0  0  0  0
  4 29  1  0  0  0  0
  5  4  1  0  0  0  0
  5  6  1  0  0  0  0
  6 33  1  0  0  0  0
  7  6  1  0  0  0  0
  7  8  1  0  0  0  0
  7 35  1  0  0  0  0
  8  9  1  0  0  0  0
  9 37  1  0  0  0  0
  9 10  1  0  0  0  0
 10 39  1  0  0  0  0
 10 38  1  0  0  0  0
 11 10  1  0  0  0  0
 12 11  1  0  0  0  0
 13 12  1  0  0  0  0
 13  8  1  0  0  0  0
 14 19  1  0  0  0  0
 15 16  1  0  0  0  0
 15 14  2  0  0  0  0
 16 17  2  0  0  0  0
 17 21  1  0  0  0  0
 17 18  1  0  0  0  0
 18 45  1  0  0  0  0
 19 18  2  0  0  0  0
 19 20  1  0  0  0  0
 21 47  1  0  0  0  0
 21 46  1  0  0  0  0
 22 49  1  0  0  0  0
 22 21  1  0  0  0  0
 23 22  1  0  0  0  0
 23 16  1  0  0  0  0
 24 25  2  0  0  0  0
 24 23  1  0  0  0  0
 26 50  1  0  0  0  0
 26 24  1  0  0  0  0
 27 26  1  0  0  0  0
 28 27  1  0  0  0  0
 28 26  1  0  0  0  0
 30  5  1  0  0  0  0
 31  5  1  0  0  0  0
 32  6  1  0  0  0  0
 34  7  1  0  0  0  0
 36  9  1  0  0  0  0
 40 12  1  0  0  0  0
 41 12  1  0  0  0  0
 42 13  1  0  0  0  0
 43 13  1  0  0  0  0
 44 15  1  0  0  0  0
 48 22  1  0  0  0  0
 51 27  1  0  0  0  0
 52 27  1  0  0  0  0
 53 28  1  0  0  0  0
 54 28  1  0  0  0  0
M  END
>  <Pose>
1

>  <Score>
-5.57

$$$$
