
 OpenBabel03202209423D

 54 57  0  0  0  0  0  0  0  0999 V2000
  -38.7160  -65.8700   48.3790 S   0  0  0  0  0  0  0  0  0  0  0  0
  -37.8810  -65.6020   47.1270 O   0  0  0  0  0  0  0  0  0  0  0  0
  -39.9100  -66.6440   47.8680 O   0  0  0  0  0  0  0  0  0  0  0  0
  -39.1960  -64.3870   48.9940 N   0  0  0  0  0  0  0  0  0  0  0  0
  -39.1060  -64.0980   50.3530 C   0  0  0  0  0  0  0  0  0  0  0  0
  -40.2640  -64.5170   51.1740 C   0  0  0  0  0  0  0  0  0  0  0  0
  -40.1310  -64.7810   52.3930 O   0  0  0  0  0  0  0  0  0  0  0  0
  -41.5160  -64.5980   50.5020 N   0  0  0  0  0  0  0  0  0  0  0  0
  -41.5860  -64.0080   49.2150 C   0  0  0  0  0  0  0  0  0  0  0  0
  -42.7090  -63.6010   48.8060 O   0  0  0  0  0  0  0  0  0  0  0  0
  -40.3930  -63.8600   48.3550 C   0  0  0  0  0  0  0  0  0  0  0  0
  -42.6450  -65.2510   51.1310 C   0  0  0  0  0  0  0  0  0  0  0  0
  -43.3200  -64.4470   52.1870 C   0  0  0  0  0  0  0  0  0  0  0  0
  -44.4830  -65.0680   52.8190 C   0  0  0  0  0  0  0  0  0  0  0  0
  -45.7520  -64.5930   52.6390 C   0  0  0  0  0  0  0  0  0  0  0  0
  -46.7950  -65.2180   53.2620 C   0  0  0  0  0  0  0  0  0  0  0  0
  -46.6070  -66.3290   54.0780 C   0  0  0  0  0  0  0  0  0  0  0  0
  -45.3280  -66.7860   54.2420 C   0  0  0  0  0  0  0  0  0  0  0  0
  -44.2570  -66.1810   53.6300 C   0  0  0  0  0  0  0  0  0  0  0  0
  -37.7370  -66.8760   49.4120 C   0  0  0  0  0  0  0  0  0  0  0  0
  -36.3450  -66.8170   49.2680 C   0  0  0  0  0  0  0  0  0  0  0  0
  -35.4670  -67.6060   49.9760 C   0  0  0  0  0  0  0  0  0  0  0  0
  -35.9480  -68.5200   50.8880 C   0  0  0  0  0  0  0  0  0  0  0  0
  -37.3100  -68.5910   51.0430 C   0  0  0  0  0  0  0  0  0  0  0  0
  -38.2010  -67.7820   50.3190 C   0  0  0  0  0  0  0  0  0  0  0  0
  -40.0770  -67.9010   50.6980 B   0  0  0  0  0  0  0  0  0  0  0  0
  -34.8290  -69.2520   51.5320 C   0  0  0  0  0  0  0  0  0  0  0  0
  -33.6430  -68.3380   51.2190 C   0  0  0  0  0  0  0  0  0  0  0  0
  -34.0410  -67.6960   49.9710 N   0  0  0  0  0  0  0  0  0  0  0  0
  -33.1490  -67.2700   48.9710 C   0  0  0  0  0  0  0  0  0  0  0  0
  -32.1340  -68.0040   48.7050 O   0  0  0  0  0  0  0  0  0  0  0  0
  -33.2710  -66.0280   48.1710 C   0  0  0  0  0  0  0  0  0  0  0  0
  -39.0380  -62.9460   50.4440 H   0  0  0  0  0  0  0  0  0  0  0  0
  -38.1580  -64.4160   50.7910 H   0  0  0  0  0  0  0  0  0  0  0  0
  -40.6120  -64.3220   47.3780 H   0  0  0  0  0  0  0  0  0  0  0  0
  -40.2200  -62.7810   48.1860 H   0  0  0  0  0  0  0  0  0  0  0  0
  -42.3230  -66.2440   51.5400 H   0  0  0  0  0  0  0  0  0  0  0  0
  -43.4220  -65.4910   50.3610 H   0  0  0  0  0  0  0  0  0  0  0  0
  -43.6630  -63.5020   51.7060 H   0  0  0  0  0  0  0  0  0  0  0  0
  -42.5520  -64.1320   52.9310 H   0  0  0  0  0  0  0  0  0  0  0  0
  -45.9260  -63.7460   52.0210 H   0  0  0  0  0  0  0  0  0  0  0  0
  -47.8260  -64.8750   53.1490 H   0  0  0  0  0  0  0  0  0  0  0  0
  -47.4450  -66.8190   54.5700 H   0  0  0  0  0  0  0  0  0  0  0  0
  -45.1340  -67.6530   54.8720 H   0  0  0  0  0  0  0  0  0  0  0  0
  -43.2700  -66.5880   53.7990 H   0  0  0  0  0  0  0  0  0  0  0  0
  -35.9790  -66.0840   48.5450 H   0  0  0  0  0  0  0  0  0  0  0  0
  -37.7510  -69.2920   51.7480 H   0  0  0  0  0  0  0  0  0  0  0  0
  -34.6460  -70.2420   51.1020 H   0  0  0  0  0  0  0  0  0  0  0  0
  -34.9600  -69.3360   52.6350 H   0  0  0  0  0  0  0  0  0  0  0  0
  -32.7340  -68.9370   51.0640 H   0  0  0  0  0  0  0  0  0  0  0  0
  -33.5550  -67.5700   51.9960 H   0  0  0  0  0  0  0  0  0  0  0  0
  -32.5780  -66.0680   47.2810 H   0  0  0  0  0  0  0  0  0  0  0  0
  -32.9400  -65.1250   48.7240 H   0  0  0  0  0  0  0  0  0  0  0  0
  -34.3190  -65.8730   47.8230 H   0  0  0  0  0  0  0  0  0  0  0  0
  1  4  1  0  0  0  0
  1 20  1  0  0  0  0
  2  1  2  0  0  0  0
  3  1  2  0  0  0  0
  4  5  1  0  0  0  0
  5 33  1  0  0  0  0
  5 34  1  0  0  0  0
  5  6  1  0  0  0  0
  6  7  2  0  0  0  0
  8 12  1  0  0  0  0
  8  6  1  0  0  0  0
  9  8  1  0  0  0  0
 10  9  2  0  0  0  0
 11  4  1  0  0  0  0
 11  9  1  0  0  0  0
 12 37  1  0  0  0  0
 12 13  1  0  0  0  0
 13 14  1  0  0  0  0
 13 40  1  0  0  0  0
 14 19  1  0  0  0  0
 15 14  2  0  0  0  0
 15 16  1  0  0  0  0
 16 17  2  0  0  0  0
 17 18  1  0  0  0  0
 17 43  1  0  0  0  0
 18 44  1  0  0  0  0
 19 45  1  0  0  0  0
 19 18  2  0  0  0  0
 20 25  1  0  0  0  0
 21 20  2  0  0  0  0
 21 22  1  0  0  0  0
 22 23  2  0  0  0  0
 23 24  1  0  0  0  0
 23 27  1  0  0  0  0
 24 47  1  0  0  0  0
 25 26  1  0  0  0  0
 25 24  2  0  0  0  0
 27 49  1  0  0  0  0
 28 27  1  0  0  0  0
 28 51  1  0  0  0  0
 29 22  1  0  0  0  0
 29 28  1  0  0  0  0
 30 29  1  0  0  0  0
 31 30  2  0  0  0  0
 32 53  1  0  0  0  0
 32 30  1  0  0  0  0
 35 11  1  0  0  0  0
 36 11  1  0  0  0  0
 38 12  1  0  0  0  0
 39 13  1  0  0  0  0
 41 15  1  0  0  0  0
 42 16  1  0  0  0  0
 46 21  1  0  0  0  0
 48 27  1  0  0  0  0
 50 28  1  0  0  0  0
 52 32  1  0  0  0  0
 54 32  1  0  0  0  0
M  END
>  <Pose>
1

>  <Score>
-6.20

$$$$
