
 OpenBabel03202209423D

 41 44  0  0  0  0  0  0  0  0999 V2000
  -40.6030  -64.1060   50.2010 S   0  0  0  0  0  0  0  0  0  0  0  0
  -40.0470  -63.3960   51.4020 O   0  0  0  0  0  0  0  0  0  0  0  0
  -41.1010  -63.0320   49.2630 O   0  0  0  0  0  0  0  0  0  0  0  0
  -41.8420  -65.1380   50.7010 N   0  0  0  0  0  0  0  0  0  0  0  0
  -41.6420  -65.9810   51.8260 C   0  0  0  0  0  0  0  0  0  0  0  0
  -42.6350  -65.2200   52.6140 C   0  0  0  0  0  0  0  0  0  0  0  0
  -42.9400  -64.5080   51.3430 C   0  0  0  0  0  0  0  0  0  0  0  0
  -43.7680  -65.9690   53.1230 N   0  0  0  0  0  0  0  0  0  0  0  0
  -43.7640  -67.0560   53.8490 N   0  0  0  0  0  0  0  0  0  0  0  0
  -45.0190  -67.4430   54.1160 N   0  0  0  0  0  0  0  0  0  0  0  0
  -45.8680  -66.5730   53.5410 C   0  0  0  0  0  0  0  0  0  0  0  0
  -45.0540  -65.6420   52.9130 C   0  0  0  0  0  0  0  0  0  0  0  0
  -47.3690  -66.5960   53.5670 C   0  0  0  0  0  0  0  0  0  0  0  0
  -47.8430  -65.6530   52.5700 N   0  0  0  0  0  0  0  0  0  0  0  0
  -48.2660  -65.9840   51.2430 C   0  0  0  0  0  0  0  0  0  0  0  0
  -48.7380  -64.6990   50.6250 C   0  0  0  0  0  0  0  0  0  0  0  0
  -48.8250  -63.6630   51.6980 C   0  0  0  0  0  0  0  0  0  0  0  0
  -47.9560  -64.2480   52.7770 C   0  0  0  0  0  0  0  0  0  0  0  0
  -47.4410  -63.5700   53.6850 O   0  0  0  0  0  0  0  0  0  0  0  0
  -39.2530  -64.9400   49.4340 C   0  0  0  0  0  0  0  0  0  0  0  0
  -39.3170  -66.2220   48.2980 S   0  0  0  0  0  0  0  0  0  0  0  0
  -37.6430  -66.4580   48.0560 C   0  0  0  0  0  0  0  0  0  0  0  0
  -37.0830  -65.5170   48.8800 C   0  0  0  0  0  0  0  0  0  0  0  0
  -37.9130  -64.7430   49.5820 C   0  0  0  0  0  0  0  0  0  0  0  0
  -36.7360  -67.7200   46.9180 B   0  0  0  0  0  0  0  0  0  0  0  0
  -40.5760  -65.9230   52.1760 H   0  0  0  0  0  0  0  0  0  0  0  0
  -41.9040  -67.0480   51.6130 H   0  0  0  0  0  0  0  0  0  0  0  0
  -42.1360  -64.6270   53.4060 H   0  0  0  0  0  0  0  0  0  0  0  0
  -42.9480  -63.4020   51.3830 H   0  0  0  0  0  0  0  0  0  0  0  0
  -43.9030  -64.8480   50.8990 H   0  0  0  0  0  0  0  0  0  0  0  0
  -45.4400  -64.7920   52.3480 H   0  0  0  0  0  0  0  0  0  0  0  0
  -47.7530  -67.6190   53.3510 H   0  0  0  0  0  0  0  0  0  0  0  0
  -47.6950  -66.2510   54.5560 H   0  0  0  0  0  0  0  0  0  0  0  0
  -47.4160  -66.4020   50.6600 H   0  0  0  0  0  0  0  0  0  0  0  0
  -49.1330  -66.6980   51.2250 H   0  0  0  0  0  0  0  0  0  0  0  0
  -48.0830  -64.3980   49.7780 H   0  0  0  0  0  0  0  0  0  0  0  0
  -49.7650  -64.8010   50.1820 H   0  0  0  0  0  0  0  0  0  0  0  0
  -48.3800  -62.6970   51.3470 H   0  0  0  0  0  0  0  0  0  0  0  0
  -49.8520  -63.4690   52.0630 H   0  0  0  0  0  0  0  0  0  0  0  0
  -35.9790  -65.4380   48.9280 H   0  0  0  0  0  0  0  0  0  0  0  0
  -37.5640  -63.9540   50.2770 H   0  0  0  0  0  0  0  0  0  0  0  0
  1  4  1  0  0  0  0
  1  2  2  0  0  0  0
  3  1  2  0  0  0  0
  4  7  1  0  0  0  0
  4  5  1  0  0  0  0
  5 26  1  0  0  0  0
  5  6  1  0  0  0  0
  6  8  1  0  0  0  0
  6 28  1  0  0  0  0
  7 29  1  0  0  0  0
  7  6  1  0  0  0  0
  8  9  1  0  0  0  0
  9 10  2  0  0  0  0
 11 13  1  0  0  0  0
 11 10  1  0  0  0  0
 12  8  1  0  0  0  0
 12 11  2  0  0  0  0
 13 33  1  0  0  0  0
 14 18  1  0  0  0  0
 14 13  1  0  0  0  0
 15 14  1  0  0  0  0
 16 15  1  0  0  0  0
 16 17  1  0  0  0  0
 17 39  1  0  0  0  0
 17 18  1  0  0  0  0
 18 19  2  0  0  0  0
 20 24  2  0  0  0  0
 20  1  1  0  0  0  0
 21 20  1  0  0  0  0
 22 21  1  0  0  0  0
 22 23  2  0  0  0  0
 23 40  1  0  0  0  0
 23 24  1  0  0  0  0
 24 41  1  0  0  0  0
 25 22  1  0  0  0  0
 27  5  1  0  0  0  0
 30  7  1  0  0  0  0
 31 12  1  0  0  0  0
 32 13  1  0  0  0  0
 34 15  1  0  0  0  0
 35 15  1  0  0  0  0
 36 16  1  0  0  0  0
 37 16  1  0  0  0  0
 38 17  1  0  0  0  0
M  END
>  <Pose>
1

>  <Score>
-6.08

$$$$
