
 OpenBabel03202209423D

 50 53  0  0  0  0  0  0  0  0999 V2000
  -40.0240  -64.0510   50.3030 S   0  0  0  0  0  0  0  0  0  0  0  0
  -39.8550  -63.6480   51.7420 O   0  0  0  0  0  0  0  0  0  0  0  0
  -40.1460  -62.7590   49.5140 O   0  0  0  0  0  0  0  0  0  0  0  0
  -41.4340  -64.9770   50.1440 N   0  0  0  0  0  0  0  0  0  0  0  0
  -41.4130  -66.2660   50.7460 C   0  0  0  0  0  0  0  0  0  0  0  0
  -42.1580  -66.4750   51.9810 C   0  0  0  0  0  0  0  0  0  0  0  0
  -43.1350  -65.4770   52.3740 N   0  0  0  0  0  0  0  0  0  0  0  0
  -43.1750  -64.2000   51.7300 C   0  0  0  0  0  0  0  0  0  0  0  0
  -42.6510  -64.2650   50.3000 C   0  0  0  0  0  0  0  0  0  0  0  0
  -44.0450  -65.8130   53.3770 C   0  0  0  0  0  0  0  0  0  0  0  0
  -43.5780  -65.4370   54.5860 O   0  0  0  0  0  0  0  0  0  0  0  0
  -45.3290  -66.4530   53.3910 C   0  0  0  0  0  0  0  0  0  0  0  0
  -46.5670  -65.6830   53.3000 C   0  0  0  0  0  0  0  0  0  0  0  0
  -47.7650  -66.1980   53.7320 C   0  0  0  0  0  0  0  0  0  0  0  0
  -48.9380  -65.4500   53.6450 C   0  0  0  0  0  0  0  0  0  0  0  0
  -48.8950  -64.1900   53.1260 C   0  0  0  0  0  0  0  0  0  0  0  0
  -47.6800  -63.6590   52.6870 C   0  0  0  0  0  0  0  0  0  0  0  0
  -46.5390  -64.3910   52.7730 C   0  0  0  0  0  0  0  0  0  0  0  0
  -47.8520  -67.9700   54.4590 B   0  0  0  0  0  0  0  0  0  0  0  0
  -38.5540  -64.8930   49.8570 C   0  0  0  0  0  0  0  0  0  0  0  0
  -37.3660  -64.1830   49.6930 C   0  0  0  0  0  0  0  0  0  0  0  0
  -36.1810  -64.7860   49.3310 C   0  0  0  0  0  0  0  0  0  0  0  0
  -36.1200  -66.1430   49.1110 C   0  0  0  0  0  0  0  0  0  0  0  0
  -37.2910  -66.8520   49.2710 C   0  0  0  0  0  0  0  0  0  0  0  0
  -38.4900  -66.2510   49.6360 C   0  0  0  0  0  0  0  0  0  0  0  0
  -34.9140  -66.7690   48.7370 O   0  0  0  0  0  0  0  0  0  0  0  0
  -33.6610  -66.1620   49.0990 C   0  0  0  0  0  0  0  0  0  0  0  0
  -33.7960  -64.7210   48.7650 C   0  0  0  0  0  0  0  0  0  0  0  0
  -32.9100  -64.0890   48.1470 O   0  0  0  0  0  0  0  0  0  0  0  0
  -34.9700  -64.0310   49.1550 N   0  0  0  0  0  0  0  0  0  0  0  0
  -40.3270  -66.5080   50.9450 H   0  0  0  0  0  0  0  0  0  0  0  0
  -41.7070  -67.0030   49.9400 H   0  0  0  0  0  0  0  0  0  0  0  0
  -42.7100  -67.4610   51.9360 H   0  0  0  0  0  0  0  0  0  0  0  0
  -41.4770  -66.5990   52.8840 H   0  0  0  0  0  0  0  0  0  0  0  0
  -42.5910  -63.4910   52.3320 H   0  0  0  0  0  0  0  0  0  0  0  0
  -44.1850  -63.7580   51.6340 H   0  0  0  0  0  0  0  0  0  0  0  0
  -42.5430  -63.2340   49.9460 H   0  0  0  0  0  0  0  0  0  0  0  0
  -43.4340  -64.8300   49.7220 H   0  0  0  0  0  0  0  0  0  0  0  0
  -45.3520  -67.2470   52.5500 H   0  0  0  0  0  0  0  0  0  0  0  0
  -45.3950  -67.0980   54.3220 H   0  0  0  0  0  0  0  0  0  0  0  0
  -49.8460  -65.9160   53.9990 H   0  0  0  0  0  0  0  0  0  0  0  0
  -49.7980  -63.6210   53.0630 H   0  0  0  0  0  0  0  0  0  0  0  0
  -47.6980  -62.6390   52.2790 H   0  0  0  0  0  0  0  0  0  0  0  0
  -45.5750  -64.0120   52.4410 H   0  0  0  0  0  0  0  0  0  0  0  0
  -37.4020  -63.1110   49.8630 H   0  0  0  0  0  0  0  0  0  0  0  0
  -37.2470  -67.9380   49.0970 H   0  0  0  0  0  0  0  0  0  0  0  0
  -39.3970  -66.8420   49.7560 H   0  0  0  0  0  0  0  0  0  0  0  0
  -33.5470  -66.1920   50.2260 H   0  0  0  0  0  0  0  0  0  0  0  0
  -32.8900  -66.6940   48.5620 H   0  0  0  0  0  0  0  0  0  0  0  0
  -35.0260  -63.0160   49.3230 H   0  0  0  0  0  0  0  0  0  0  0  0
  1  2  2  0  0  0  0
  3  1  2  0  0  0  0
  4  9  1  0  0  0  0
  4  1  1  0  0  0  0
  4  5  1  0  0  0  0
  5 31  1  0  0  0  0
  5  6  1  0  0  0  0
  6  7  1  0  0  0  0
  6 34  1  0  0  0  0
  7 10  1  0  0  0  0
  8 35  1  0  0  0  0
  8  7  1  0  0  0  0
  9  8  1  0  0  0  0
 10 12  1  0  0  0  0
 10 11  2  0  0  0  0
 12 40  1  0  0  0  0
 13 12  1  0  0  0  0
 13 14  1  0  0  0  0
 14 19  1  0  0  0  0
 15 14  2  0  0  0  0
 15 41  1  0  0  0  0
 16 15  1  0  0  0  0
 17 18  1  0  0  0  0
 17 16  2  0  0  0  0
 18 13  2  0  0  0  0
 20  1  1  0  0  0  0
 21 20  1  0  0  0  0
 21 45  1  0  0  0  0
 22 21  2  0  0  0  0
 23 24  2  0  0  0  0
 23 22  1  0  0  0  0
 24 25  1  0  0  0  0
 25 47  1  0  0  0  0
 25 20  2  0  0  0  0
 26 27  1  0  0  0  0
 26 23  1  0  0  0  0
 27 48  1  0  0  0  0
 28 27  1  0  0  0  0
 28 30  1  0  0  0  0
 29 28  2  0  0  0  0
 30 50  1  0  0  0  0
 30 22  1  0  0  0  0
 32  5  1  0  0  0  0
 33  6  1  0  0  0  0
 36  8  1  0  0  0  0
 37  9  1  0  0  0  0
 38  9  1  0  0  0  0
 39 12  1  0  0  0  0
 42 16  1  0  0  0  0
 43 17  1  0  0  0  0
 44 18  1  0  0  0  0
 46 24  1  0  0  0  0
 49 27  1  0  0  0  0
M  END
>  <Pose>
1

>  <Score>
-6.06

$$$$
