
 OpenBabel03202209423D

 47 50  0  0  0  0  0  0  0  0999 V2000
  -46.7940  -65.0870   52.9690 S   0  0  0  0  0  0  0  0  0  0  0  0
  -47.2590  -63.6860   53.0430 O   0  0  0  0  0  0  0  0  0  0  0  0
  -46.6770  -65.4380   51.4910 O   0  0  0  0  0  0  0  0  0  0  0  0
  -45.2840  -65.3640   53.6800 N   0  0  0  0  0  0  0  0  0  0  0  0
  -44.1580  -64.8570   53.0300 C   0  0  0  0  0  0  0  0  0  0  0  0
  -42.8630  -65.5420   53.2910 C   0  0  0  0  0  0  0  0  0  0  0  0
  -42.9780  -66.9160   53.6670 N   0  0  0  0  0  0  0  0  0  0  0  0
  -44.2930  -67.5130   53.7490 C   0  0  0  0  0  0  0  0  0  0  0  0
  -45.1590  -66.5010   54.4970 C   0  0  0  0  0  0  0  0  0  0  0  0
  -41.8510  -67.7190   53.9630 C   0  0  0  0  0  0  0  0  0  0  0  0
  -41.7000  -68.2280   55.1190 O   0  0  0  0  0  0  0  0  0  0  0  0
  -40.8050  -68.0150   52.9910 C   0  0  0  0  0  0  0  0  0  0  0  0
  -39.8580  -69.0000   53.2010 C   0  0  0  0  0  0  0  0  0  0  0  0
  -38.8680  -69.2890   52.2910 C   0  0  0  0  0  0  0  0  0  0  0  0
  -38.8280  -68.5520   51.1180 C   0  0  0  0  0  0  0  0  0  0  0  0
  -39.7440  -67.5610   50.8550 C   0  0  0  0  0  0  0  0  0  0  0  0
  -40.7160  -67.3100   51.7990 C   0  0  0  0  0  0  0  0  0  0  0  0
  -39.9750  -69.9740   54.8400 B   0  0  0  0  0  0  0  0  0  0  0  0
  -47.9890  -66.2000   53.6240 C   0  0  0  0  0  0  0  0  0  0  0  0
  -47.7740  -66.8710   54.8110 C   0  0  0  0  0  0  0  0  0  0  0  0
  -48.6910  -67.7490   55.3510 C   0  0  0  0  0  0  0  0  0  0  0  0
  -49.8860  -67.9930   54.7050 C   0  0  0  0  0  0  0  0  0  0  0  0
  -50.1060  -67.3200   53.5120 C   0  0  0  0  0  0  0  0  0  0  0  0
  -49.1840  -66.4430   52.9790 C   0  0  0  0  0  0  0  0  0  0  0  0
  -50.8320  -68.8740   55.2250 O   0  0  0  0  0  0  0  0  0  0  0  0
  -50.5800  -69.7750   56.2860 C   0  0  0  0  0  0  0  0  0  0  0  0
  -49.4270  -69.3480   57.1190 C   0  0  0  0  0  0  0  0  0  0  0  0
  -49.3530  -69.8160   58.2830 O   0  0  0  0  0  0  0  0  0  0  0  0
  -48.4740  -68.4440   56.5720 N   0  0  0  0  0  0  0  0  0  0  0  0
  -44.0380  -63.7690   53.3040 H   0  0  0  0  0  0  0  0  0  0  0  0
  -44.3600  -64.8420   51.9180 H   0  0  0  0  0  0  0  0  0  0  0  0
  -42.2550  -64.9480   54.0170 H   0  0  0  0  0  0  0  0  0  0  0  0
  -42.2520  -65.5180   52.3420 H   0  0  0  0  0  0  0  0  0  0  0  0
  -44.2750  -68.4880   54.2750 H   0  0  0  0  0  0  0  0  0  0  0  0
  -44.7170  -67.6530   52.7480 H   0  0  0  0  0  0  0  0  0  0  0  0
  -46.1160  -66.9980   54.6890 H   0  0  0  0  0  0  0  0  0  0  0  0
  -44.6180  -66.2270   55.4390 H   0  0  0  0  0  0  0  0  0  0  0  0
  -38.1200  -70.0750   52.4710 H   0  0  0  0  0  0  0  0  0  0  0  0
  -38.0360  -68.7920   50.4040 H   0  0  0  0  0  0  0  0  0  0  0  0
  -39.6870  -66.9970   49.9200 H   0  0  0  0  0  0  0  0  0  0  0  0
  -41.4390  -66.5330   51.6000 H   0  0  0  0  0  0  0  0  0  0  0  0
  -46.8440  -66.6910   55.3260 H   0  0  0  0  0  0  0  0  0  0  0  0
  -51.0440  -67.5100   53.0020 H   0  0  0  0  0  0  0  0  0  0  0  0
  -49.3560  -65.9230   52.0530 H   0  0  0  0  0  0  0  0  0  0  0  0
  -50.3430  -70.7990   55.8880 H   0  0  0  0  0  0  0  0  0  0  0  0
  -51.5080  -69.8850   56.8810 H   0  0  0  0  0  0  0  0  0  0  0  0
  -47.5760  -68.2700   57.0720 H   0  0  0  0  0  0  0  0  0  0  0  0
  1  2  2  0  0  0  0
  1 19  1  0  0  0  0
  1  4  1  0  0  0  0
  3  1  2  0  0  0  0
  4  9  1  0  0  0  0
  5  6  1  0  0  0  0
  5 30  1  0  0  0  0
  5  4  1  0  0  0  0
  6  7  1  0  0  0  0
  6 32  1  0  0  0  0
  7  8  1  0  0  0  0
  7 10  1  0  0  0  0
  8 34  1  0  0  0  0
  8  9  1  0  0  0  0
  9 36  1  0  0  0  0
  9 37  1  0  0  0  0
 10 11  2  0  0  0  0
 12 13  1  0  0  0  0
 12 10  1  0  0  0  0
 13 18  1  0  0  0  0
 14 38  1  0  0  0  0
 14 13  2  0  0  0  0
 15 14  1  0  0  0  0
 16 15  2  0  0  0  0
 16 17  1  0  0  0  0
 17 12  2  0  0  0  0
 19 20  1  0  0  0  0
 20 42  1  0  0  0  0
 20 21  2  0  0  0  0
 21 29  1  0  0  0  0
 22 25  1  0  0  0  0
 22 21  1  0  0  0  0
 23 22  2  0  0  0  0
 24 23  1  0  0  0  0
 24 19  2  0  0  0  0
 25 26  1  0  0  0  0
 26 46  1  0  0  0  0
 26 27  1  0  0  0  0
 27 28  2  0  0  0  0
 29 47  1  0  0  0  0
 29 27  1  0  0  0  0
 31  5  1  0  0  0  0
 33  6  1  0  0  0  0
 35  8  1  0  0  0  0
 39 15  1  0  0  0  0
 40 16  1  0  0  0  0
 41 17  1  0  0  0  0
 43 23  1  0  0  0  0
 44 24  1  0  0  0  0
 45 26  1  0  0  0  0
M  END
>  <Pose>
1

>  <Score>
-6.38

$$$$
