
 OpenBabel03202209423D

 43 46  0  0  0  0  0  0  0  0999 V2000
  -47.1650  -64.6620   52.7260 S   0  0  0  0  0  0  0  0  0  0  0  0
  -47.3840  -64.6520   51.2470 O   0  0  0  0  0  0  0  0  0  0  0  0
  -47.9860  -63.5350   53.3390 O   0  0  0  0  0  0  0  0  0  0  0  0
  -45.5170  -64.3150   53.0850 N   0  0  0  0  0  0  0  0  0  0  0  0
  -44.7860  -63.7930   51.9900 C   0  0  0  0  0  0  0  0  0  0  0  0
  -43.6810  -64.6410   51.4590 C   0  0  0  0  0  0  0  0  0  0  0  0
  -42.9990  -65.4120   52.4640 N   0  0  0  0  0  0  0  0  0  0  0  0
  -43.4540  -65.2430   53.8260 C   0  0  0  0  0  0  0  0  0  0  0  0
  -44.9550  -65.4350   53.7590 C   0  0  0  0  0  0  0  0  0  0  0  0
  -41.9380  -66.2990   52.2030 C   0  0  0  0  0  0  0  0  0  0  0  0
  -41.7630  -67.2950   52.9390 O   0  0  0  0  0  0  0  0  0  0  0  0
  -41.0370  -66.0670   51.0790 C   0  0  0  0  0  0  0  0  0  0  0  0
  -40.2440  -65.0130   50.9210 N   0  0  0  0  0  0  0  0  0  0  0  0
  -39.5530  -65.1160   49.7840 N   0  0  0  0  0  0  0  0  0  0  0  0
  -39.8880  -66.2680   49.1590 C   0  0  0  0  0  0  0  0  0  0  0  0
  -40.8380  -66.8750   49.9880 C   0  0  0  0  0  0  0  0  0  0  0  0
  -39.3350  -66.6290   47.9740 N   0  0  0  0  0  0  0  0  0  0  0  0
  -38.4120  -65.8110   47.3900 C   0  0  0  0  0  0  0  0  0  0  0  0
  -38.0490  -64.6320   48.0030 C   0  0  0  0  0  0  0  0  0  0  0  0
  -38.6400  -64.3090   49.2040 C   0  0  0  0  0  0  0  0  0  0  0  0
  -36.7480  -63.4800   47.1770 B   0  0  0  0  0  0  0  0  0  0  0  0
  -47.6620  -66.2080   53.3660 C   0  0  0  0  0  0  0  0  0  0  0  0
  -48.1620  -67.2810   52.6630 C   0  0  0  0  0  0  0  0  0  0  0  0
  -48.4270  -68.2840   53.5020 N   0  0  0  0  0  0  0  0  0  0  0  0
  -48.1160  -67.9000   54.7240 N   0  0  0  0  0  0  0  0  0  0  0  0
  -47.6400  -66.6290   54.6950 C   0  0  0  0  0  0  0  0  0  0  0  0
  -48.9610  -69.5790   53.1730 C   0  0  0  0  0  0  0  0  0  0  0  0
  -45.4850  -63.5600   51.1600 H   0  0  0  0  0  0  0  0  0  0  0  0
  -44.3460  -62.8190   52.3020 H   0  0  0  0  0  0  0  0  0  0  0  0
  -44.0490  -65.3620   50.6700 H   0  0  0  0  0  0  0  0  0  0  0  0
  -42.9100  -64.0280   50.9450 H   0  0  0  0  0  0  0  0  0  0  0  0
  -43.0060  -65.9790   54.5190 H   0  0  0  0  0  0  0  0  0  0  0  0
  -43.2200  -64.1920   54.1100 H   0  0  0  0  0  0  0  0  0  0  0  0
  -45.3570  -65.4550   54.7950 H   0  0  0  0  0  0  0  0  0  0  0  0
  -45.1680  -66.4020   53.2780 H   0  0  0  0  0  0  0  0  0  0  0  0
  -41.3250  -67.8100   49.8060 H   0  0  0  0  0  0  0  0  0  0  0  0
  -37.9440  -66.0590   46.4460 H   0  0  0  0  0  0  0  0  0  0  0  0
  -38.3660  -63.3830   49.6980 H   0  0  0  0  0  0  0  0  0  0  0  0
  -48.3360  -67.3550   51.5860 H   0  0  0  0  0  0  0  0  0  0  0  0
  -47.3020  -66.0360   55.5360 H   0  0  0  0  0  0  0  0  0  0  0  0
  -50.0120  -69.6220   53.5260 H   0  0  0  0  0  0  0  0  0  0  0  0
  -48.4170  -70.3660   53.7320 H   0  0  0  0  0  0  0  0  0  0  0  0
  -48.9340  -69.7670   52.0810 H   0  0  0  0  0  0  0  0  0  0  0  0
  1  4  1  0  0  0  0
  1  3  2  0  0  0  0
  1 22  1  0  0  0  0
  2  1  2  0  0  0  0
  4  9  1  0  0  0  0
  5 29  1  0  0  0  0
  5  4  1  0  0  0  0
  6  5  1  0  0  0  0
  6  7  1  0  0  0  0
  7  8  1  0  0  0  0
  8 33  1  0  0  0  0
  8 32  1  0  0  0  0
  9  8  1  0  0  0  0
  9 34  1  0  0  0  0
 10  7  1  0  0  0  0
 10 11  2  0  0  0  0
 12 10  1  0  0  0  0
 13 12  2  0  0  0  0
 14 13  1  0  0  0  0
 15 14  1  0  0  0  0
 15 16  2  0  0  0  0
 16 12  1  0  0  0  0
 17 15  1  0  0  0  0
 18 17  2  0  0  0  0
 18 19  1  0  0  0  0
 19 20  2  0  0  0  0
 20 38  1  0  0  0  0
 20 14  1  0  0  0  0
 21 19  1  0  0  0  0
 22 26  1  0  0  0  0
 23 22  2  0  0  0  0
 23 24  1  0  0  0  0
 24 25  1  0  0  0  0
 26 25  2  0  0  0  0
 26 40  1  0  0  0  0
 27 24  1  0  0  0  0
 27 41  1  0  0  0  0
 27 42  1  0  0  0  0
 28  5  1  0  0  0  0
 30  6  1  0  0  0  0
 31  6  1  0  0  0  0
 35  9  1  0  0  0  0
 36 16  1  0  0  0  0
 37 18  1  0  0  0  0
 39 23  1  0  0  0  0
 43 27  1  0  0  0  0
M  END
>  <Pose>
1

>  <Score>
-5.72

$$$$
