
 OpenBabel03202209423D

 49 52  0  0  1  0  0  0  0  0999 V2000
  -47.8320  -63.1960   50.8510 S   0  0  0  0  0  0  0  0  0  0  0  0
  -49.0560  -63.8680   50.3340 O   0  0  0  0  0  0  0  0  0  0  0  0
  -47.9570  -63.0610   52.3480 O   0  0  0  0  0  0  0  0  0  0  0  0
  -46.4590  -64.1220   50.5090 N   0  0  0  0  0  0  0  0  0  0  0  0
  -46.4770  -65.4640   50.9520 C   0  0  0  0  0  0  0  0  0  0  0  0
  -45.7050  -65.7860   52.1640 C   0  0  0  0  0  0  0  0  0  0  0  0
  -44.4590  -65.0820   52.2140 N   0  0  0  0  0  0  0  0  0  0  0  0
  -44.0810  -64.2420   51.1140 C   0  0  0  0  0  0  0  0  0  0  0  0
  -45.2150  -63.4430   50.5520 C   0  0  0  0  0  0  0  0  0  0  0  0
  -43.6050  -65.2060   53.3280 C   0  0  0  0  0  0  0  0  0  0  0  0
  -43.4300  -64.2130   54.0710 O   0  0  0  0  0  0  0  0  0  0  0  0
  -42.9020  -66.4340   53.6770 C   0  0  1  0  0  0  0  0  0  0  0  0
  -43.4050  -67.2580   54.6670 C   0  0  0  0  0  0  0  0  0  0  0  0
  -42.7590  -68.3890   54.9880 N   0  0  0  0  0  0  0  0  0  0  0  0
  -41.6170  -68.7700   54.3770 C   0  0  1  0  0  0  0  0  0  0  0  0
  -41.1000  -67.9920   53.4100 N   0  0  0  0  0  0  0  0  0  0  0  0
  -39.9480  -68.3730   52.7900 C   0  0  0  0  0  0  0  0  0  0  0  0
  -39.2900  -69.5380   53.1270 C   0  0  0  0  0  0  0  0  0  0  0  0
  -39.8030  -70.3550   54.1210 C   0  0  0  0  0  0  0  0  0  0  0  0
  -40.9680  -69.9490   54.7310 C   0  0  0  0  0  0  0  0  0  0  0  0
  -38.0330  -69.9850   52.4760 C   0  0  0  0  0  0  0  0  0  0  0  0
  -41.7340  -66.8400   53.0640 C   0  0  0  0  0  0  0  0  0  0  0  0
  -41.2570  -66.1230   52.1710 O   0  0  0  0  0  0  0  0  0  0  0  0
  -47.6630  -61.5990   50.1720 C   0  0  0  0  0  0  0  0  0  0  0  0
  -46.4110  -61.0920   49.8960 C   0  0  0  0  0  0  0  0  0  0  0  0
  -46.3490  -59.8120   49.3550 C   0  0  0  0  0  0  0  0  0  0  0  0
  -47.4730  -59.0710   49.1010 C   0  0  0  0  0  0  0  0  0  0  0  0
  -48.7280  -59.5910   49.3820 C   0  0  0  0  0  0  0  0  0  0  0  0
  -48.8130  -60.8770   49.9260 C   0  0  0  0  0  0  0  0  0  0  0  0
  -44.6510  -59.0560   48.9530 B   0  0  0  0  0  0  0  0  0  0  0  0
  -47.5450  -65.7670   51.1070 H   0  0  0  0  0  0  0  0  0  0  0  0
  -46.1120  -66.1150   50.1160 H   0  0  0  0  0  0  0  0  0  0  0  0
  -46.3480  -65.5120   53.0530 H   0  0  0  0  0  0  0  0  0  0  0  0
  -45.4560  -66.8790   52.2590 H   0  0  0  0  0  0  0  0  0  0  0  0
  -43.2400  -63.5830   51.4120 H   0  0  0  0  0  0  0  0  0  0  0  0
  -43.6420  -64.9270   50.3290 H   0  0  0  0  0  0  0  0  0  0  0  0
  -44.9410  -63.1160   49.5280 H   0  0  0  0  0  0  0  0  0  0  0  0
  -45.3280  -62.5230   51.1610 H   0  0  0  0  0  0  0  0  0  0  0  0
  -44.3310  -66.9630   55.1720 H   0  0  0  0  0  0  0  0  0  0  0  0
  -39.5380  -67.7420   52.0140 H   0  0  0  0  0  0  0  0  0  0  0  0
  -39.3330  -71.2790   54.4270 H   0  0  0  0  0  0  0  0  0  0  0  0
  -41.3820  -70.5750   55.5080 H   0  0  0  0  0  0  0  0  0  0  0  0
  -38.2650  -70.6030   51.5670 H   0  0  0  0  0  0  0  0  0  0  0  0
  -37.4200  -70.6040   53.1760 H   0  0  0  0  0  0  0  0  0  0  0  0
  -37.4440  -69.1230   52.0950 H   0  0  0  0  0  0  0  0  0  0  0  0
  -45.5250  -61.6710   50.0950 H   0  0  0  0  0  0  0  0  0  0  0  0
  -47.3750  -58.0800   48.6800 H   0  0  0  0  0  0  0  0  0  0  0  0
  -49.6040  -58.9980   49.1770 H   0  0  0  0  0  0  0  0  0  0  0  0
  -49.7770  -61.2960   50.1500 H   0  0  0  0  0  0  0  0  0  0  0  0
  1  3  2  0  0  0  0
  2  1  2  0  0  0  0
  4  9  1  0  0  0  0
  4  1  1  0  0  0  0
  4  5  1  0  0  0  0
  5 31  1  0  0  0  0
  5  6  1  0  0  0  0
  6  7  1  0  0  0  0
  6 34  1  0  0  0  0
  6 33  1  0  0  0  0
  7 10  1  0  0  0  0
  8 35  1  0  0  0  0
  8  7  1  0  0  0  0
  9  8  1  0  0  0  0
  9 38  1  0  0  0  0
 10 11  2  0  0  0  0
 12 10  1  6  0  0  0
 12 13  1  0  0  0  0
 13 14  2  0  0  0  0
 13 39  1  0  0  0  0
 15 20  1  1  0  0  0
 15 14  1  0  0  0  0
 16 15  1  0  0  0  0
 17 18  2  0  0  0  0
 17 16  1  0  0  0  0
 18 19  1  0  0  0  0
 19 41  1  0  0  0  0
 19 20  2  0  0  0  0
 20 42  1  0  0  0  0
 21 18  1  0  0  0  0
 21 44  1  0  0  0  0
 22 16  1  0  0  0  0
 22 12  1  0  0  0  0
 23 22  2  0  0  0  0
 24  1  1  0  0  0  0
 25 46  1  0  0  0  0
 25 24  2  0  0  0  0
 26 25  1  0  0  0  0
 27 26  2  0  0  0  0
 27 28  1  0  0  0  0
 28 29  2  0  0  0  0
 29 49  1  0  0  0  0
 29 24  1  0  0  0  0
 30 26  1  0  0  0  0
 32  5  1  0  0  0  0
 36  8  1  0  0  0  0
 37  9  1  0  0  0  0
 40 17  1  0  0  0  0
 43 21  1  0  0  0  0
 45 21  1  0  0  0  0
 47 27  1  0  0  0  0
 48 28  1  0  0  0  0
M  END
>  <Pose>
1

>  <Score>
-6.37

$$$$
