
 OpenBabel03202209423D

 54 58  0  0  1  0  0  0  0  0999 V2000
  -43.9300  -66.5170   54.3550 S   0  0  0  0  0  0  0  0  0  0  0  0
  -43.9470  -67.9940   54.7250 O   0  0  0  0  0  0  0  0  0  0  0  0
  -44.1710  -65.8050   55.6860 O   0  0  0  0  0  0  0  0  0  0  0  0
  -42.3770  -66.1300   53.8450 N   0  0  0  0  0  0  0  0  0  0  0  0
  -41.4580  -67.2250   53.6810 C   0  0  0  0  0  0  0  0  0  0  0  0
  -40.6970  -67.1240   52.3790 C   0  0  0  0  0  0  0  0  0  0  0  0
  -41.6460  -67.0050   51.2440 N   0  0  0  0  0  0  0  0  0  0  0  0
  -42.3630  -65.7480   51.4030 C   0  0  0  0  0  0  0  0  0  0  0  0
  -42.2390  -65.1640   52.8000 C   0  0  0  0  0  0  0  0  0  0  0  0
  -40.7840  -66.9270   50.0840 C   0  0  0  0  0  0  0  0  0  0  0  0
  -39.4630  -67.5660   50.1630 C   0  0  0  0  0  0  0  0  0  0  0  0
  -38.3930  -67.0830   49.3570 N   0  0  0  0  0  0  0  0  0  0  0  0
  -38.3990  -66.2290   48.2200 C   0  0  0  0  0  0  0  0  0  0  0  0
  -39.3510  -66.0790   47.4400 O   0  0  0  0  0  0  0  0  0  0  0  0
  -37.0830  -65.5520   48.1230 C   0  0  1  0  0  0  0  0  0  0  0  0
  -36.1720  -66.6240   48.7660 C   0  0  2  0  0  0  0  0  0  0  0  0
  -35.5610  -67.3580   47.6320 C   0  0  1  0  0  0  0  0  0  0  0  0
  -36.5720  -67.1070   46.5000 C   0  0  0  0  0  0  0  0  0  0  0  0
  -36.5890  -65.5840   46.7220 C   0  0  2  0  0  0  0  0  0  0  0  0
  -35.1080  -65.3400   46.7800 C   0  0  0  0  0  0  0  0  0  0  0  0
  -34.4640  -66.4650   47.0910 C   0  0  0  0  0  0  0  0  0  0  0  0
  -37.0170  -67.4010   49.6610 C   0  0  0  0  0  0  0  0  0  0  0  0
  -36.5900  -68.1990   50.5330 O   0  0  0  0  0  0  0  0  0  0  0  0
  -45.2310  -66.1030   53.3130 C   0  0  0  0  0  0  0  0  0  0  0  0
  -46.2950  -66.9550   53.1420 C   0  0  0  0  0  0  0  0  0  0  0  0
  -47.3300  -66.5830   52.3030 C   0  0  0  0  0  0  0  0  0  0  0  0
  -47.3380  -65.3800   51.6220 C   0  0  0  0  0  0  0  0  0  0  0  0
  -46.2680  -64.5270   51.7960 C   0  0  0  0  0  0  0  0  0  0  0  0
  -45.2280  -64.9020   52.6400 C   0  0  0  0  0  0  0  0  0  0  0  0
  -48.7620  -64.8670   50.4630 B   0  0  0  0  0  0  0  0  0  0  0  0
  -40.6960  -67.1420   54.4910 H   0  0  0  0  0  0  0  0  0  0  0  0
  -41.9620  -68.1850   53.7930 H   0  0  0  0  0  0  0  0  0  0  0  0
  -40.1470  -68.0680   52.2180 H   0  0  0  0  0  0  0  0  0  0  0  0
  -39.9740  -66.2880   52.3490 H   0  0  0  0  0  0  0  0  0  0  0  0
  -43.4400  -65.9460   51.2790 H   0  0  0  0  0  0  0  0  0  0  0  0
  -41.9860  -65.0490   50.6360 H   0  0  0  0  0  0  0  0  0  0  0  0
  -42.9260  -64.3350   52.9620 H   0  0  0  0  0  0  0  0  0  0  0  0
  -41.2060  -64.7520   52.8780 H   0  0  0  0  0  0  0  0  0  0  0  0
  -40.5920  -65.8300   49.8490 H   0  0  0  0  0  0  0  0  0  0  0  0
  -41.3770  -67.2490   49.1690 H   0  0  0  0  0  0  0  0  0  0  0  0
  -39.1290  -67.4660   51.2480 H   0  0  0  0  0  0  0  0  0  0  0  0
  -39.6160  -68.6750   50.0370 H   0  0  0  0  0  0  0  0  0  0  0  0
  -37.0340  -64.5980   48.6380 H   0  0  0  0  0  0  0  0  0  0  0  0
  -35.3360  -66.1040   49.3160 H   0  0  0  0  0  0  0  0  0  0  0  0
  -35.2950  -68.3790   47.7620 H   0  0  0  0  0  0  0  0  0  0  0  0
  -36.1650  -67.3570   45.5140 H   0  0  0  0  0  0  0  0  0  0  0  0
  -37.5610  -67.5020   46.7100 H   0  0  0  0  0  0  0  0  0  0  0  0
  -37.1120  -65.0300   45.9800 H   0  0  0  0  0  0  0  0  0  0  0  0
  -34.5870  -64.4050   46.6040 H   0  0  0  0  0  0  0  0  0  0  0  0
  -33.4180  -66.6840   46.9820 H   0  0  0  0  0  0  0  0  0  0  0  0
  -46.3440  -67.9270   53.6590 H   0  0  0  0  0  0  0  0  0  0  0  0
  -48.1720  -67.2610   52.1690 H   0  0  0  0  0  0  0  0  0  0  0  0
  -46.2870  -63.5920   51.2590 H   0  0  0  0  0  0  0  0  0  0  0  0
  -44.4330  -64.1740   52.7210 H   0  0  0  0  0  0  0  0  0  0  0  0
  1  2  2  0  0  0  0
  1  3  2  0  0  0  0
  4  1  1  0  0  0  0
  5 32  1  0  0  0  0
  5  4  1  0  0  0  0
  5 31  1  0  0  0  0
  6  5  1  0  0  0  0
  7  8  1  0  0  0  0
  7  6  1  0  0  0  0
  8  9  1  0  0  0  0
  9 38  1  0  0  0  0
  9 37  1  0  0  0  0
  9  4  1  0  0  0  0
 10 11  1  0  0  0  0
 10  7  1  0  0  0  0
 11 41  1  0  0  0  0
 12 22  1  0  0  0  0
 12 11  1  0  0  0  0
 13 12  1  0  0  0  0
 14 13  2  0  0  0  0
 15 13  1  0  0  0  0
 15 43  1  1  0  0  0
 15 16  1  0  0  0  0
 16 44  1  1  0  0  0
 16 22  1  0  0  0  0
 17 45  1  1  0  0  0
 17 16  1  0  0  0  0
 18 47  1  0  0  0  0
 18 19  1  0  0  0  0
 18 17  1  0  0  0  0
 19 48  1  6  0  0  0
 19 20  1  0  0  0  0
 19 15  1  0  0  0  0
 20 21  1  0  0  0  0
 21 17  1  0  0  0  0
 22 23  2  0  0  0  0
 24  1  1  0  0  0  0
 25 24  1  0  0  0  0
 25 51  1  0  0  0  0
 26 25  2  0  0  0  0
 27 28  2  0  0  0  0
 27 26  1  0  0  0  0
 28 29  1  0  0  0  0
 29 54  1  0  0  0  0
 29 24  2  0  0  0  0
 30 27  1  0  0  0  0
 33  6  1  0  0  0  0
 34  6  1  0  0  0  0
 35  8  1  0  0  0  0
 36  8  1  0  0  0  0
 39 10  1  0  0  0  0
 40 10  1  0  0  0  0
 42 11  1  0  0  0  0
 46 18  1  0  0  0  0
 49 20  1  0  0  0  0
 50 21  1  0  0  0  0
 52 26  1  0  0  0  0
 53 28  1  0  0  0  0
M  END
>  <Pose>
1

>  <Score>
-5.83

$$$$
