
 OpenBabel03202209423D

 53 56  0  0  0  0  0  0  0  0999 V2000
  -41.8000  -69.1590   54.4070 S   0  0  0  0  0  0  0  0  0  0  0  0
  -41.5160  -68.9950   55.8910 O   0  0  0  0  0  0  0  0  0  0  0  0
  -42.5970  -70.4180   54.2250 O   0  0  0  0  0  0  0  0  0  0  0  0
  -42.7540  -67.8080   53.9000 N   0  0  0  0  0  0  0  0  0  0  0  0
  -41.9430  -66.9770   53.0760 C   0  0  0  0  0  0  0  0  0  0  0  0
  -42.2990  -65.5090   53.1640 C   0  0  0  0  0  0  0  0  0  0  0  0
  -43.6820  -65.4210   53.5340 N   0  0  0  0  0  0  0  0  0  0  0  0
  -44.0880  -65.9490   54.8030 C   0  0  0  0  0  0  0  0  0  0  0  0
  -43.2430  -67.1630   55.0960 C   0  0  0  0  0  0  0  0  0  0  0  0
  -44.6090  -64.8260   52.6620 C   0  0  0  0  0  0  0  0  0  0  0  0
  -45.9370  -64.9570   52.8160 N   0  0  0  0  0  0  0  0  0  0  0  0
  -46.8570  -64.4240   52.0310 C   0  0  0  0  0  0  0  0  0  0  0  0
  -46.4230  -63.6630   50.9590 C   0  0  0  0  0  0  0  0  0  0  0  0
  -45.0710  -63.4990   50.7600 C   0  0  0  0  0  0  0  0  0  0  0  0
  -44.2020  -64.0780   51.6080 N   0  0  0  0  0  0  0  0  0  0  0  0
  -44.5640  -62.6890   49.6190 C   0  0  0  0  0  0  0  0  0  0  0  0
  -48.2300  -64.6390   52.3020 N   0  0  0  0  0  0  0  0  0  0  0  0
  -48.8100  -65.9500   52.5120 C   0  0  0  0  0  0  0  0  0  0  0  0
  -50.0870  -65.7270   53.3200 C   0  0  0  0  0  0  0  0  0  0  0  0
  -49.7900  -64.7750   54.2980 O   0  0  0  0  0  0  0  0  0  0  0  0
  -49.6860  -63.4970   53.7990 C   0  0  0  0  0  0  0  0  0  0  0  0
  -49.1150  -63.5000   52.3770 C   0  0  0  0  0  0  0  0  0  0  0  0
  -40.2830  -69.2260   53.5550 C   0  0  0  0  0  0  0  0  0  0  0  0
  -39.2640  -70.0150   54.0710 C   0  0  0  0  0  0  0  0  0  0  0  0
  -38.0390  -70.1160   53.4510 C   0  0  0  0  0  0  0  0  0  0  0  0
  -37.8040  -69.4200   52.2900 C   0  0  0  0  0  0  0  0  0  0  0  0
  -38.7930  -68.6230   51.7450 C   0  0  0  0  0  0  0  0  0  0  0  0
  -40.0210  -68.5430   52.3960 C   0  0  0  0  0  0  0  0  0  0  0  0
  -36.1020  -69.5720   51.4460 B   0  0  0  0  0  0  0  0  0  0  0  0
  -40.8550  -67.0940   53.2190 H   0  0  0  0  0  0  0  0  0  0  0  0
  -42.1320  -67.2700   52.0040 H   0  0  0  0  0  0  0  0  0  0  0  0
  -42.0510  -64.9560   52.2470 H   0  0  0  0  0  0  0  0  0  0  0  0
  -41.6430  -65.0780   53.9730 H   0  0  0  0  0  0  0  0  0  0  0  0
  -45.1740  -66.1910   54.8140 H   0  0  0  0  0  0  0  0  0  0  0  0
  -43.9260  -65.2340   55.6460 H   0  0  0  0  0  0  0  0  0  0  0  0
  -43.8880  -67.8960   55.6240 H   0  0  0  0  0  0  0  0  0  0  0  0
  -42.3930  -66.9420   55.7800 H   0  0  0  0  0  0  0  0  0  0  0  0
  -47.1630  -63.2250   50.3160 H   0  0  0  0  0  0  0  0  0  0  0  0
  -44.1330  -61.7200   49.9820 H   0  0  0  0  0  0  0  0  0  0  0  0
  -43.7310  -63.2420   49.1460 H   0  0  0  0  0  0  0  0  0  0  0  0
  -45.3400  -62.5470   48.8460 H   0  0  0  0  0  0  0  0  0  0  0  0
  -49.0800  -66.4590   51.5680 H   0  0  0  0  0  0  0  0  0  0  0  0
  -48.1350  -66.5890   53.1390 H   0  0  0  0  0  0  0  0  0  0  0  0
  -50.4170  -66.6510   53.7960 H   0  0  0  0  0  0  0  0  0  0  0  0
  -50.8840  -65.3480   52.6570 H   0  0  0  0  0  0  0  0  0  0  0  0
  -48.9590  -62.8930   54.4190 H   0  0  0  0  0  0  0  0  0  0  0  0
  -50.6470  -62.9680   53.8200 H   0  0  0  0  0  0  0  0  0  0  0  0
  -49.9520  -63.5940   51.6440 H   0  0  0  0  0  0  0  0  0  0  0  0
  -48.5800  -62.5570   52.1680 H   0  0  0  0  0  0  0  0  0  0  0  0
  -39.4560  -70.5620   54.9890 H   0  0  0  0  0  0  0  0  0  0  0  0
  -37.2480  -70.7340   53.8580 H   0  0  0  0  0  0  0  0  0  0  0  0
  -38.6150  -68.0710   50.8280 H   0  0  0  0  0  0  0  0  0  0  0  0
  -40.8090  -67.9190   51.9790 H   0  0  0  0  0  0  0  0  0  0  0  0
  1  2  2  0  0  0  0
  3  1  2  0  0  0  0
  4  1  1  0  0  0  0
  4  9  1  0  0  0  0
  5  6  1  0  0  0  0
  5 30  1  0  0  0  0
  5  4  1  0  0  0  0
  6  7  1  0  0  0  0
  6 33  1  0  0  0  0
  7  8  1  0  0  0  0
  8 34  1  0  0  0  0
  8  9  1  0  0  0  0
  8 35  1  0  0  0  0
  9 36  1  0  0  0  0
  9 37  1  0  0  0  0
 10 11  2  0  0  0  0
 10  7  1  0  0  0  0
 12 17  1  0  0  0  0
 12 11  1  0  0  0  0
 13 12  2  0  0  0  0
 14 13  1  0  0  0  0
 14 15  2  0  0  0  0
 15 10  1  0  0  0  0
 16 39  1  0  0  0  0
 16 14  1  0  0  0  0
 17 22  1  0  0  0  0
 17 18  1  0  0  0  0
 18 43  1  0  0  0  0
 18 19  1  0  0  0  0
 19 44  1  0  0  0  0
 19 20  1  0  0  0  0
 21 47  1  0  0  0  0
 21 20  1  0  0  0  0
 21 46  1  0  0  0  0
 22 21  1  0  0  0  0
 23 24  1  0  0  0  0
 23  1  1  0  0  0  0
 24 50  1  0  0  0  0
 25 51  1  0  0  0  0
 25 24  2  0  0  0  0
 26 25  1  0  0  0  0
 27 26  2  0  0  0  0
 27 28  1  0  0  0  0
 28 23  2  0  0  0  0
 29 26  1  0  0  0  0
 31  5  1  0  0  0  0
 32  6  1  0  0  0  0
 38 13  1  0  0  0  0
 40 16  1  0  0  0  0
 41 16  1  0  0  0  0
 42 18  1  0  0  0  0
 45 19  1  0  0  0  0
 48 22  1  0  0  0  0
 49 22  1  0  0  0  0
 52 27  1  0  0  0  0
 53 28  1  0  0  0  0
M  END
>  <Pose>
1

>  <Score>
-5.74

$$$$
