
 OpenBabel03202209423D

 37 40  0  0  0  0  0  0  0  0999 V2000
  -37.8180  -66.7130   49.4050 S   0  0  0  0  0  0  0  0  0  0  0  0
  -37.5960  -67.7210   48.2830 O   0  0  0  0  0  0  0  0  0  0  0  0
  -37.6190  -67.4530   50.6770 O   0  0  0  0  0  0  0  0  0  0  0  0
  -39.3480  -66.0630   49.2410 N   0  0  0  0  0  0  0  0  0  0  0  0
  -39.7370  -64.9910   50.0730 C   0  0  0  0  0  0  0  0  0  0  0  0
  -40.5990  -65.3510   51.2580 C   0  0  0  0  0  0  0  0  0  0  0  0
  -40.9530  -66.7350   51.2900 N   0  0  0  0  0  0  0  0  0  0  0  0
  -41.0730  -67.5560   50.0980 C   0  0  0  0  0  0  0  0  0  0  0  0
  -40.4220  -66.9150   48.9080 C   0  0  0  0  0  0  0  0  0  0  0  0
  -41.2040  -67.3740   52.5350 C   0  0  0  0  0  0  0  0  0  0  0  0
  -42.2100  -66.9140   53.3370 N   0  0  0  0  0  0  0  0  0  0  0  0
  -42.4680  -67.5040   54.5040 C   0  0  0  0  0  0  0  0  0  0  0  0
  -41.7700  -68.5520   54.9380 N   0  0  0  0  0  0  0  0  0  0  0  0
  -40.7850  -69.0160   54.1710 C   0  0  0  0  0  0  0  0  0  0  0  0
  -39.9320  -70.0290   54.3440 N   0  0  0  0  0  0  0  0  0  0  0  0
  -39.1070  -70.0880   53.2620 C   0  0  0  0  0  0  0  0  0  0  0  0
  -39.4300  -69.1220   52.4020 N   0  0  0  0  0  0  0  0  0  0  0  0
  -40.4580  -68.4490   52.9380 C   0  0  0  0  0  0  0  0  0  0  0  0
  -36.4970  -65.5510   49.2470 C   0  0  0  0  0  0  0  0  0  0  0  0
  -34.8220  -65.8310   49.1020 S   0  0  0  0  0  0  0  0  0  0  0  0
  -34.2760  -64.2220   49.0010 C   0  0  0  0  0  0  0  0  0  0  0  0
  -35.4400  -63.4960   49.0840 C   0  0  0  0  0  0  0  0  0  0  0  0
  -36.5790  -64.1870   49.2110 C   0  0  0  0  0  0  0  0  0  0  0  0
  -32.4940  -63.5620   48.8170 B   0  0  0  0  0  0  0  0  0  0  0  0
  -38.8940  -64.3400   50.4090 H   0  0  0  0  0  0  0  0  0  0  0  0
  -40.3530  -64.2960   49.4240 H   0  0  0  0  0  0  0  0  0  0  0  0
  -41.4530  -64.6460   51.3080 H   0  0  0  0  0  0  0  0  0  0  0  0
  -40.0130  -65.1160   52.1910 H   0  0  0  0  0  0  0  0  0  0  0  0
  -40.6040  -68.5440   50.2650 H   0  0  0  0  0  0  0  0  0  0  0  0
  -42.1550  -67.7290   49.9110 H   0  0  0  0  0  0  0  0  0  0  0  0
  -40.0740  -67.6790   48.1860 H   0  0  0  0  0  0  0  0  0  0  0  0
  -41.2110  -66.2980   48.3920 H   0  0  0  0  0  0  0  0  0  0  0  0
  -43.2660  -67.1430   55.1470 H   0  0  0  0  0  0  0  0  0  0  0  0
  -38.3270  -70.8230   53.1580 H   0  0  0  0  0  0  0  0  0  0  0  0
  -38.9560  -68.9440   51.4970 H   0  0  0  0  0  0  0  0  0  0  0  0
  -35.3890  -62.3800   49.0430 H   0  0  0  0  0  0  0  0  0  0  0  0
  -37.5670  -63.6840   49.2850 H   0  0  0  0  0  0  0  0  0  0  0  0
  1  3  2  0  0  0  0
  2  1  2  0  0  0  0
  4  1  1  0  0  0  0
  4  5  1  0  0  0  0
  5 25  1  0  0  0  0
  5  6  1  0  0  0  0
  6  7  1  0  0  0  0
  6 27  1  0  0  0  0
  6 28  1  0  0  0  0
  7 10  1  0  0  0  0
  8 29  1  0  0  0  0
  8  7  1  0  0  0  0
  9  4  1  0  0  0  0
  9  8  1  0  0  0  0
 10 18  2  0  0  0  0
 10 11  1  0  0  0  0
 11 12  2  0  0  0  0
 12 13  1  0  0  0  0
 12 33  1  0  0  0  0
 14 15  1  0  0  0  0
 14 13  2  0  0  0  0
 16 15  2  0  0  0  0
 17 18  1  0  0  0  0
 17 16  1  0  0  0  0
 18 14  1  0  0  0  0
 19  1  1  0  0  0  0
 20 19  1  0  0  0  0
 21 22  2  0  0  0  0
 21 20  1  0  0  0  0
 22 23  1  0  0  0  0
 23 19  2  0  0  0  0
 23 37  1  0  0  0  0
 24 21  1  0  0  0  0
 26  5  1  0  0  0  0
 30  8  1  0  0  0  0
 31  9  1  0  0  0  0
 32  9  1  0  0  0  0
 34 16  1  0  0  0  0
 35 17  1  0  0  0  0
 36 22  1  0  0  0  0
M  END
>  <Pose>
1

>  <Score>
-6.54

$$$$
