
 OpenBabel03202209423D

 43 46  0  0  0  0  0  0  0  0999 V2000
  -39.7220  -65.3090   48.5530 S   0  0  0  0  0  0  0  0  0  0  0  0
  -40.4210  -64.9120   47.2580 O   0  0  0  0  0  0  0  0  0  0  0  0
  -39.7040  -66.8080   48.5720 O   0  0  0  0  0  0  0  0  0  0  0  0
  -40.6550  -64.6990   49.8390 N   0  0  0  0  0  0  0  0  0  0  0  0
  -41.9780  -65.1890   49.9230 C   0  0  0  0  0  0  0  0  0  0  0  0
  -42.1950  -66.3400   50.8410 C   0  0  0  0  0  0  0  0  0  0  0  0
  -41.4490  -66.1740   52.0990 N   0  0  0  0  0  0  0  0  0  0  0  0
  -40.8520  -64.8680   52.2770 C   0  0  0  0  0  0  0  0  0  0  0  0
  -39.9400  -64.6460   51.0850 C   0  0  0  0  0  0  0  0  0  0  0  0
  -41.3510  -67.2340   53.0300 C   0  0  0  0  0  0  0  0  0  0  0  0
  -40.3600  -68.1910   52.8500 C   0  0  0  0  0  0  0  0  0  0  0  0
  -40.2740  -69.2310   53.7740 C   0  0  0  0  0  0  0  0  0  0  0  0
  -41.1060  -69.3190   54.8030 N   0  0  0  0  0  0  0  0  0  0  0  0
  -40.7700  -70.4150   55.5020 C   0  0  0  0  0  0  0  0  0  0  0  0
  -39.7230  -70.9870   54.8770 N   0  0  0  0  0  0  0  0  0  0  0  0
  -39.4140  -70.2630   53.8150 N   0  0  0  0  0  0  0  0  0  0  0  0
  -41.4340  -70.9170   56.7480 C   0  0  0  0  0  0  0  0  0  0  0  0
  -42.0390  -68.4270   54.9840 N   0  0  0  0  0  0  0  0  0  0  0  0
  -42.1680  -67.3930   54.1130 C   0  0  0  0  0  0  0  0  0  0  0  0
  -38.1190  -64.6290   48.4760 C   0  0  0  0  0  0  0  0  0  0  0  0
  -37.8560  -63.3290   48.8860 C   0  0  0  0  0  0  0  0  0  0  0  0
  -36.5890  -62.7930   48.8250 C   0  0  0  0  0  0  0  0  0  0  0  0
  -35.5570  -63.5800   48.3390 C   0  0  0  0  0  0  0  0  0  0  0  0
  -35.7670  -64.8790   47.9200 C   0  0  0  0  0  0  0  0  0  0  0  0
  -37.0480  -65.3760   47.9980 C   0  0  0  0  0  0  0  0  0  0  0  0
  -33.8000  -62.8190   48.2610 B   0  0  0  0  0  0  0  0  0  0  0  0
  -42.6490  -64.3390   50.2450 H   0  0  0  0  0  0  0  0  0  0  0  0
  -42.3270  -65.4560   48.9080 H   0  0  0  0  0  0  0  0  0  0  0  0
  -43.2700  -66.3700   51.1300 H   0  0  0  0  0  0  0  0  0  0  0  0
  -41.9630  -67.3060   50.3630 H   0  0  0  0  0  0  0  0  0  0  0  0
  -40.2520  -64.7520   53.1760 H   0  0  0  0  0  0  0  0  0  0  0  0
  -41.6580  -64.0810   52.1980 H   0  0  0  0  0  0  0  0  0  0  0  0
  -39.3730  -63.6980   51.1680 H   0  0  0  0  0  0  0  0  0  0  0  0
  -39.1960  -65.4690   51.0900 H   0  0  0  0  0  0  0  0  0  0  0  0
  -39.6590  -68.1680   52.0300 H   0  0  0  0  0  0  0  0  0  0  0  0
  -42.4610  -70.4880   56.8300 H   0  0  0  0  0  0  0  0  0  0  0  0
  -41.5380  -72.0020   56.6960 H   0  0  0  0  0  0  0  0  0  0  0  0
  -40.8560  -70.6340   57.6500 H   0  0  0  0  0  0  0  0  0  0  0  0
  -42.9440  -66.6980   54.3090 H   0  0  0  0  0  0  0  0  0  0  0  0
  -38.6980  -62.7460   49.2600 H   0  0  0  0  0  0  0  0  0  0  0  0
  -36.4560  -61.7800   49.1590 H   0  0  0  0  0  0  0  0  0  0  0  0
  -34.9190  -65.4400   47.5520 H   0  0  0  0  0  0  0  0  0  0  0  0
  -37.2190  -66.3770   47.6750 H   0  0  0  0  0  0  0  0  0  0  0  0
  1  3  2  0  0  0  0
  1  4  1  0  0  0  0
  2  1  2  0  0  0  0
  4  5  1  0  0  0  0
  4  9  1  0  0  0  0
  5 27  1  0  0  0  0
  5  6  1  0  0  0  0
  6 29  1  0  0  0  0
  6  7  1  0  0  0  0
  7  8  1  0  0  0  0
  7 10  1  0  0  0  0
  8 31  1  0  0  0  0
  9 34  1  0  0  0  0
  9 33  1  0  0  0  0
  9  8  1  0  0  0  0
 10 19  1  0  0  0  0
 11 10  2  0  0  0  0
 11 12  1  0  0  0  0
 12 16  2  0  0  0  0
 12 13  1  0  0  0  0
 13 18  1  0  0  0  0
 13 14  1  0  0  0  0
 14 17  1  0  0  0  0
 15 14  2  0  0  0  0
 16 15  1  0  0  0  0
 17 36  1  0  0  0  0
 17 38  1  0  0  0  0
 19 39  1  0  0  0  0
 19 18  2  0  0  0  0
 20  1  1  0  0  0  0
 20 21  1  0  0  0  0
 21 40  1  0  0  0  0
 22 21  2  0  0  0  0
 22 41  1  0  0  0  0
 23 22  1  0  0  0  0
 24 25  1  0  0  0  0
 24 23  2  0  0  0  0
 25 20  2  0  0  0  0
 26 23  1  0  0  0  0
 28  5  1  0  0  0  0
 30  6  1  0  0  0  0
 32  8  1  0  0  0  0
 35 11  1  0  0  0  0
 37 17  1  0  0  0  0
 42 24  1  0  0  0  0
 43 25  1  0  0  0  0
M  END
>  <Pose>
1

>  <Score>
-6.02

$$$$
