
 OpenBabel03202209423D

 51 54  0  0  0  0  0  0  0  0999 V2000
  -41.2730  -62.7820   47.4170 S   0  0  0  0  0  0  0  0  0  0  0  0
  -41.4150  -63.3010   46.0280 O   0  0  0  0  0  0  0  0  0  0  0  0
  -41.3660  -61.2720   47.3430 O   0  0  0  0  0  0  0  0  0  0  0  0
  -39.7480  -63.1680   48.0830 N   0  0  0  0  0  0  0  0  0  0  0  0
  -39.4160  -64.5640   47.9700 C   0  0  0  0  0  0  0  0  0  0  0  0
  -38.3120  -64.8340   48.9970 C   0  0  0  0  0  0  0  0  0  0  0  0
  -38.8340  -64.8570   50.2720 O   0  0  0  0  0  0  0  0  0  0  0  0
  -40.0100  -64.0870   50.2980 C   0  0  0  0  0  0  0  0  0  0  0  0
  -39.7250  -62.8280   49.4930 C   0  0  0  0  0  0  0  0  0  0  0  0
  -42.6010  -63.3070   48.4410 C   0  0  0  0  0  0  0  0  0  0  0  0
  -43.8390  -62.7330   48.3980 C   0  0  0  0  0  0  0  0  0  0  0  0
  -44.8730  -63.1690   49.2200 C   0  0  0  0  0  0  0  0  0  0  0  0
  -44.6930  -64.1910   50.1050 C   0  0  0  0  0  0  0  0  0  0  0  0
  -43.4410  -64.7780   50.1550 C   0  0  0  0  0  0  0  0  0  0  0  0
  -42.4140  -64.3430   49.3370 C   0  0  0  0  0  0  0  0  0  0  0  0
  -45.7400  -64.7180   51.0120 C   0  0  0  0  0  0  0  0  0  0  0  0
  -45.2030  -65.1980   52.2250 O   0  0  0  0  0  0  0  0  0  0  0  0
  -44.4150  -64.4690   53.0820 C   0  0  0  0  0  0  0  0  0  0  0  0
  -44.1970  -63.2670   52.8350 O   0  0  0  0  0  0  0  0  0  0  0  0
  -43.8310  -65.0830   54.2720 C   0  0  0  0  0  0  0  0  0  0  0  0
  -42.9470  -66.1730   53.9840 N   0  0  0  0  0  0  0  0  0  0  0  0
  -41.8330  -66.0610   53.0890 C   0  0  0  0  0  0  0  0  0  0  0  0
  -41.4940  -65.0210   52.4560 O   0  0  0  0  0  0  0  0  0  0  0  0
  -41.1450  -67.3450   53.0220 C   0  0  0  0  0  0  0  0  0  0  0  0
  -41.7940  -68.2340   53.8380 C   0  0  0  0  0  0  0  0  0  0  0  0
  -41.3440  -69.5350   53.9580 C   0  0  0  0  0  0  0  0  0  0  0  0
  -40.2320  -69.9690   53.2620 C   0  0  0  0  0  0  0  0  0  0  0  0
  -39.5690  -69.0860   52.4360 C   0  0  0  0  0  0  0  0  0  0  0  0
  -40.0400  -67.7930   52.3340 C   0  0  0  0  0  0  0  0  0  0  0  0
  -38.0310  -69.6380   51.4540 B   0  0  0  0  0  0  0  0  0  0  0  0
  -42.9250  -67.5130   54.4480 C   0  0  0  0  0  0  0  0  0  0  0  0
  -43.7570  -67.9820   55.2550 O   0  0  0  0  0  0  0  0  0  0  0  0
  -38.9680  -64.7150   46.9650 H   0  0  0  0  0  0  0  0  0  0  0  0
  -40.2600  -65.2430   48.0810 H   0  0  0  0  0  0  0  0  0  0  0  0
  -37.5470  -64.0310   48.8610 H   0  0  0  0  0  0  0  0  0  0  0  0
  -37.7940  -65.7880   48.8010 H   0  0  0  0  0  0  0  0  0  0  0  0
  -40.8750  -64.6430   49.9310 H   0  0  0  0  0  0  0  0  0  0  0  0
  -40.1950  -63.8550   51.3640 H   0  0  0  0  0  0  0  0  0  0  0  0
  -40.4790  -62.0430   49.6530 H   0  0  0  0  0  0  0  0  0  0  0  0
  -38.7230  -62.4760   49.8260 H   0  0  0  0  0  0  0  0  0  0  0  0
  -43.9980  -61.9160   47.6960 H   0  0  0  0  0  0  0  0  0  0  0  0
  -45.8340  -62.6880   49.1570 H   0  0  0  0  0  0  0  0  0  0  0  0
  -43.2760  -65.5890   50.8500 H   0  0  0  0  0  0  0  0  0  0  0  0
  -41.4380  -64.8250   49.3980 H   0  0  0  0  0  0  0  0  0  0  0  0
  -46.4780  -63.9280   51.2620 H   0  0  0  0  0  0  0  0  0  0  0  0
  -46.2750  -65.5420   50.4710 H   0  0  0  0  0  0  0  0  0  0  0  0
  -43.2680  -64.3250   54.8920 H   0  0  0  0  0  0  0  0  0  0  0  0
  -44.6170  -65.4830   54.9790 H   0  0  0  0  0  0  0  0  0  0  0  0
  -41.8790  -70.2150   54.6130 H   0  0  0  0  0  0  0  0  0  0  0  0
  -39.8820  -71.0090   53.3650 H   0  0  0  0  0  0  0  0  0  0  0  0
  -39.5390  -67.0700   51.6900 H   0  0  0  0  0  0  0  0  0  0  0  0
  1  4  1  0  0  0  0
  1 10  1  0  0  0  0
  2  1  2  0  0  0  0
  3  1  2  0  0  0  0
  4  9  1  0  0  0  0
  5 34  1  0  0  0  0
  5  4  1  0  0  0  0
  5  6  1  0  0  0  0
  6  7  1  0  0  0  0
  7  8  1  0  0  0  0
  8 38  1  0  0  0  0
  9 39  1  0  0  0  0
  9 40  1  0  0  0  0
  9  8  1  0  0  0  0
 10 15  1  0  0  0  0
 11 10  2  0  0  0  0
 11 12  1  0  0  0  0
 12 13  2  0  0  0  0
 13 14  1  0  0  0  0
 13 16  1  0  0  0  0
 14 43  1  0  0  0  0
 15 44  1  0  0  0  0
 15 14  2  0  0  0  0
 16 45  1  0  0  0  0
 16 17  1  0  0  0  0
 17 18  1  0  0  0  0
 18 20  1  0  0  0  0
 19 18  2  0  0  0  0
 20 47  1  0  0  0  0
 20 48  1  0  0  0  0
 21 20  1  0  0  0  0
 21 31  1  0  0  0  0
 22 21  1  0  0  0  0
 23 22  2  0  0  0  0
 24 22  1  0  0  0  0
 24 25  1  0  0  0  0
 25 26  2  0  0  0  0
 25 31  1  0  0  0  0
 26 49  1  0  0  0  0
 27 50  1  0  0  0  0
 27 26  1  0  0  0  0
 28 27  2  0  0  0  0
 29 28  1  0  0  0  0
 29 24  2  0  0  0  0
 30 28  1  0  0  0  0
 31 32  2  0  0  0  0
 33  5  1  0  0  0  0
 35  6  1  0  0  0  0
 36  6  1  0  0  0  0
 37  8  1  0  0  0  0
 41 11  1  0  0  0  0
 42 12  1  0  0  0  0
 46 16  1  0  0  0  0
 51 29  1  0  0  0  0
M  END
>  <Pose>
1

>  <Score>
-5.75

$$$$
