
 OpenBabel03202209423D

 46 49  0  0  0  0  0  0  0  0999 V2000
  -44.5940  -66.2170   54.4890 S   0  0  0  0  0  0  0  0  0  0  0  0
  -45.8240  -67.1020   54.3330 O   0  0  0  0  0  0  0  0  0  0  0  0
  -44.6590  -65.7020   55.9130 O   0  0  0  0  0  0  0  0  0  0  0  0
  -44.7020  -64.9640   53.3820 N   0  0  0  0  0  0  0  0  0  0  0  0
  -43.5160  -64.4400   52.8450 C   0  0  0  0  0  0  0  0  0  0  0  0
  -43.6340  -64.2490   51.3610 C   0  0  0  0  0  0  0  0  0  0  0  0
  -44.7190  -63.4220   51.1300 O   0  0  0  0  0  0  0  0  0  0  0  0
  -45.9270  -64.0220   51.4630 C   0  0  0  0  0  0  0  0  0  0  0  0
  -45.9360  -64.6810   52.7880 C   0  0  0  0  0  0  0  0  0  0  0  0
  -43.1820  -67.2310   54.3020 C   0  0  0  0  0  0  0  0  0  0  0  0
  -42.8220  -68.2930   55.0430 N   0  0  0  0  0  0  0  0  0  0  0  0
  -41.6570  -68.7920   54.5570 C   0  0  0  0  0  0  0  0  0  0  0  0
  -41.2640  -68.0550   53.5040 N   0  0  0  0  0  0  0  0  0  0  0  0
  -42.1750  -67.1070   53.3390 C   0  0  0  0  0  0  0  0  0  0  0  0
  -40.0620  -68.2910   52.7320 C   0  0  0  0  0  0  0  0  0  0  0  0
  -40.1980  -67.7930   51.3420 C   0  0  0  0  0  0  0  0  0  0  0  0
  -41.1570  -68.1850   50.4620 N   0  0  0  0  0  0  0  0  0  0  0  0
  -40.9680  -67.5430   49.3490 O   0  0  0  0  0  0  0  0  0  0  0  0
  -39.9360  -66.7420   49.4290 C   0  0  0  0  0  0  0  0  0  0  0  0
  -39.4530  -66.9020   50.6870 N   0  0  0  0  0  0  0  0  0  0  0  0
  -39.3840  -65.8330   48.3790 C   0  0  0  0  0  0  0  0  0  0  0  0
  -37.9330  -65.6690   48.6720 C   0  0  0  0  0  0  0  0  0  0  0  0
  -37.0660  -66.6830   48.2950 C   0  0  0  0  0  0  0  0  0  0  0  0
  -35.7170  -66.6170   48.5250 C   0  0  0  0  0  0  0  0  0  0  0  0
  -35.2200  -65.5050   49.1480 C   0  0  0  0  0  0  0  0  0  0  0  0
  -36.0300  -64.4830   49.5380 C   0  0  0  0  0  0  0  0  0  0  0  0
  -37.3970  -64.5770   49.2920 C   0  0  0  0  0  0  0  0  0  0  0  0
  -33.3470  -65.3780   49.4850 B   0  0  0  0  0  0  0  0  0  0  0  0
  -42.6590  -65.0860   53.1290 H   0  0  0  0  0  0  0  0  0  0  0  0
  -43.3470  -63.4130   53.2820 H   0  0  0  0  0  0  0  0  0  0  0  0
  -42.7450  -63.7370   50.9320 H   0  0  0  0  0  0  0  0  0  0  0  0
  -43.8310  -65.2300   50.8960 H   0  0  0  0  0  0  0  0  0  0  0  0
  -46.7040  -63.2180   51.3970 H   0  0  0  0  0  0  0  0  0  0  0  0
  -46.2080  -64.7570   50.6750 H   0  0  0  0  0  0  0  0  0  0  0  0
  -46.5480  -65.6310   52.7400 H   0  0  0  0  0  0  0  0  0  0  0  0
  -46.5310  -64.0280   53.4930 H   0  0  0  0  0  0  0  0  0  0  0  0
  -41.1390  -69.6550   54.9700 H   0  0  0  0  0  0  0  0  0  0  0  0
  -42.1840  -66.3320   52.5860 H   0  0  0  0  0  0  0  0  0  0  0  0
  -39.8180  -69.3720   52.6960 H   0  0  0  0  0  0  0  0  0  0  0  0
  -39.2010  -67.7990   53.2300 H   0  0  0  0  0  0  0  0  0  0  0  0
  -39.9080  -64.8660   48.4780 H   0  0  0  0  0  0  0  0  0  0  0  0
  -39.5420  -66.2670   47.3680 H   0  0  0  0  0  0  0  0  0  0  0  0
  -37.4880  -67.5580   47.8000 H   0  0  0  0  0  0  0  0  0  0  0  0
  -35.0320  -67.4160   48.2280 H   0  0  0  0  0  0  0  0  0  0  0  0
  -35.6420  -63.5940   50.0350 H   0  0  0  0  0  0  0  0  0  0  0  0
  -38.0510  -63.7700   49.5970 H   0  0  0  0  0  0  0  0  0  0  0  0
  1  3  2  0  0  0  0
  2  1  2  0  0  0  0
  4  1  1  0  0  0  0
  5 29  1  0  0  0  0
  5 30  1  0  0  0  0
  5  4  1  0  0  0  0
  6  5  1  0  0  0  0
  7  6  1  0  0  0  0
  7  8  1  0  0  0  0
  8  9  1  0  0  0  0
  9  4  1  0  0  0  0
  9 36  1  0  0  0  0
 10  1  1  0  0  0  0
 10 11  1  0  0  0  0
 12 37  1  0  0  0  0
 12 11  2  0  0  0  0
 13 12  1  0  0  0  0
 14 13  1  0  0  0  0
 14 10  2  0  0  0  0
 15 40  1  0  0  0  0
 15 13  1  0  0  0  0
 16 15  1  0  0  0  0
 17 16  2  0  0  0  0
 18 19  1  0  0  0  0
 18 17  1  0  0  0  0
 19 20  2  0  0  0  0
 20 16  1  0  0  0  0
 21 41  1  0  0  0  0
 21 22  1  0  0  0  0
 21 19  1  0  0  0  0
 22 27  1  0  0  0  0
 23 24  1  0  0  0  0
 23 22  2  0  0  0  0
 24 25  2  0  0  0  0
 25 28  1  0  0  0  0
 25 26  1  0  0  0  0
 26 45  1  0  0  0  0
 27 26  2  0  0  0  0
 27 46  1  0  0  0  0
 31  6  1  0  0  0  0
 32  6  1  0  0  0  0
 33  8  1  0  0  0  0
 34  8  1  0  0  0  0
 35  9  1  0  0  0  0
 38 14  1  0  0  0  0
 39 15  1  0  0  0  0
 42 21  1  0  0  0  0
 43 23  1  0  0  0  0
 44 24  1  0  0  0  0
M  END
>  <Pose>
1

>  <Score>
-6.37

$$$$
