
 OpenBabel03202209423D

 37 40  0  0  0  0  0  0  0  0999 V2000
  -45.5890  -66.2490   54.2500 S   0  0  0  0  0  0  0  0  0  0  0  0
  -46.8180  -67.2160   53.3340 C   0  0  0  0  0  0  0  0  0  0  0  0
  -48.0830  -67.2410   54.1230 C   0  0  0  0  0  0  0  0  0  0  0  0
  -49.1920  -66.9220   53.5880 O   0  0  0  0  0  0  0  0  0  0  0  0
  -48.0990  -67.6150   55.4830 N   0  0  0  0  0  0  0  0  0  0  0  0
  -49.0480  -68.5370   55.9860 C   0  0  0  0  0  0  0  0  0  0  0  0
  -50.1600  -68.9920   55.3860 N   0  0  0  0  0  0  0  0  0  0  0  0
  -50.7850  -69.8330   56.1630 O   0  0  0  0  0  0  0  0  0  0  0  0
  -50.1050  -69.9350   57.2540 N   0  0  0  0  0  0  0  0  0  0  0  0
  -49.0120  -69.1620   57.2270 C   0  0  0  0  0  0  0  0  0  0  0  0
  -48.0490  -69.0330   58.2520 N   0  0  0  0  0  0  0  0  0  0  0  0
  -43.9610  -66.9560   53.9220 C   0  0  0  0  0  0  0  0  0  0  0  0
  -43.2140  -66.5350   52.8870 N   0  0  0  0  0  0  0  0  0  0  0  0
  -42.0160  -67.0180   52.6000 N   0  0  0  0  0  0  0  0  0  0  0  0
  -41.4610  -67.9900   53.3550 C   0  0  0  0  0  0  0  0  0  0  0  0
  -42.2100  -68.4390   54.4240 C   0  0  0  0  0  0  0  0  0  0  0  0
  -41.4630  -69.3920   55.0160 N   0  0  0  0  0  0  0  0  0  0  0  0
  -40.2940  -69.5590   54.3760 C   0  0  0  0  0  0  0  0  0  0  0  0
  -40.2620  -68.6810   53.3150 C   0  0  0  0  0  0  0  0  0  0  0  0
  -39.1860  -68.5980   52.4430 C   0  0  0  0  0  0  0  0  0  0  0  0
  -38.1200  -69.4470   52.6840 C   0  0  0  0  0  0  0  0  0  0  0  0
  -38.1260  -70.3340   53.7400 C   0  0  0  0  0  0  0  0  0  0  0  0
  -39.2030  -70.4000   54.5910 C   0  0  0  0  0  0  0  0  0  0  0  0
  -36.6360  -69.3310   51.4820 B   0  0  0  0  0  0  0  0  0  0  0  0
  -41.8980  -70.1200   56.1920 C   0  0  0  0  0  0  0  0  0  0  0  0
  -43.4450  -67.9230   54.6990 N   0  0  0  0  0  0  0  0  0  0  0  0
  -46.9650  -66.8440   52.3110 H   0  0  0  0  0  0  0  0  0  0  0  0
  -46.4440  -68.2820   53.3460 H   0  0  0  0  0  0  0  0  0  0  0  0
  -47.3880  -67.1960   56.1200 H   0  0  0  0  0  0  0  0  0  0  0  0
  -48.3580  -68.7840   59.2110 H   0  0  0  0  0  0  0  0  0  0  0  0
  -47.0320  -69.1770   58.0890 H   0  0  0  0  0  0  0  0  0  0  0  0
  -39.1910  -67.8940   51.6130 H   0  0  0  0  0  0  0  0  0  0  0  0
  -37.2760  -70.9950   53.9130 H   0  0  0  0  0  0  0  0  0  0  0  0
  -39.2420  -71.0860   55.4310 H   0  0  0  0  0  0  0  0  0  0  0  0
  -42.4550  -69.4630   56.8690 H   0  0  0  0  0  0  0  0  0  0  0  0
  -42.4520  -71.0410   55.9160 H   0  0  0  0  0  0  0  0  0  0  0  0
  -40.9840  -70.4540   56.7310 H   0  0  0  0  0  0  0  0  0  0  0  0
  2 28  1  0  0  0  0
  2  3  1  0  0  0  0
  2  1  1  0  0  0  0
  3  5  1  0  0  0  0
  4  3  2  0  0  0  0
  5  6  1  0  0  0  0
  5 29  1  0  0  0  0
  6 10  1  0  0  0  0
  7  6  2  0  0  0  0
  7  8  1  0  0  0  0
  8  9  1  0  0  0  0
 10  9  2  0  0  0  0
 10 11  1  0  0  0  0
 11 30  1  0  0  0  0
 12  1  1  0  0  0  0
 12 26  1  0  0  0  0
 13 12  2  0  0  0  0
 14 13  1  0  0  0  0
 14 15  1  0  0  0  0
 15 16  2  0  0  0  0
 16 26  1  0  0  0  0
 16 17  1  0  0  0  0
 17 25  1  0  0  0  0
 18 23  1  0  0  0  0
 18 17  1  0  0  0  0
 19 15  1  0  0  0  0
 19 18  2  0  0  0  0
 20 21  2  0  0  0  0
 20 19  1  0  0  0  0
 21 22  1  0  0  0  0
 22 33  1  0  0  0  0
 22 23  2  0  0  0  0
 23 34  1  0  0  0  0
 24 21  1  0  0  0  0
 25 37  1  0  0  0  0
 25 35  1  0  0  0  0
 27  2  1  0  0  0  0
 31 11  1  0  0  0  0
 32 20  1  0  0  0  0
 36 25  1  0  0  0  0
M  END
>  <Pose>
1

>  <Score>
-7.88

$$$$
