
 OpenBabel03202209423D

 47 50  0  0  1  0  0  0  0  0999 V2000
  -40.2710  -64.7030   51.1660 S   0  0  0  0  0  0  0  0  0  0  0  0
  -40.3860  -64.1830   49.3980 C   0  0  0  0  0  0  0  0  0  0  0  0
  -39.0240  -64.0420   48.8340 C   0  0  0  0  0  0  0  0  0  0  0  0
  -38.0490  -65.0050   48.9130 C   0  0  0  0  0  0  0  0  0  0  0  0
  -36.7800  -64.7850   48.5060 C   0  0  0  0  0  0  0  0  0  0  0  0
  -36.3900  -63.5620   47.9720 C   0  0  0  0  0  0  0  0  0  0  0  0
  -37.3600  -62.5530   47.8790 C   0  0  0  0  0  0  0  0  0  0  0  0
  -38.6530  -62.7920   48.3030 C   0  0  0  0  0  0  0  0  0  0  0  0
  -38.6290  -66.7280   49.5090 B   0  0  0  0  0  0  0  0  0  0  0  0
  -41.9020  -65.1030   51.8080 C   0  0  0  0  0  0  0  0  0  0  0  0
  -42.1820  -66.0490   52.7040 N   0  0  0  0  0  0  0  0  0  0  0  0
  -43.5110  -65.9520   52.9740 C   0  0  0  0  0  0  0  0  0  0  0  0
  -44.3970  -66.5270   53.8020 N   0  0  0  0  0  0  0  0  0  0  0  0
  -45.6850  -66.1920   53.9260 C   0  0  0  0  0  0  0  0  0  0  0  0
  -46.1650  -65.1650   53.1240 N   0  0  0  0  0  0  0  0  0  0  0  0
  -45.3730  -64.5450   52.2860 C   0  0  0  0  0  0  0  0  0  0  0  0
  -44.0440  -64.9000   52.1790 C   0  0  0  0  0  0  0  0  0  0  0  0
  -43.0130  -64.4200   51.4950 N   0  0  0  0  0  0  0  0  0  0  0  0
  -45.7980  -63.5310   51.4640 O   0  0  0  0  0  0  0  0  0  0  0  0
  -46.6060  -66.7860   54.8540 N   0  0  0  0  0  0  0  0  0  0  0  0
  -41.3510  -67.0470   53.2960 C   0  0  2  0  0  0  0  0  0  0  0  0
  -40.5730  -67.7730   52.3670 O   0  0  0  0  0  0  0  0  0  0  0  0
  -40.0430  -68.7520   53.2390 C   0  0  1  0  0  0  0  0  0  0  0  0
  -41.3900  -69.3510   53.7200 C   0  0  2  0  0  0  0  0  0  0  0  0
  -42.0250  -68.0360   54.1920 C   0  0  1  0  0  0  0  0  0  0  0  0
  -41.6300  -67.8610   55.5430 O   0  0  0  0  0  0  0  0  0  0  0  0
  -41.2300  -70.2620   54.7280 O   0  0  0  0  0  0  0  0  0  0  0  0
  -39.2060  -69.7470   52.5290 C   0  0  0  0  0  0  0  0  0  0  0  0
  -38.6710  -70.6760   53.4300 O   0  0  0  0  0  0  0  0  0  0  0  0
  -40.9610  -63.3000   49.3300 H   0  0  0  0  0  0  0  0  0  0  0  0
  -40.9040  -65.0910   48.8990 H   0  0  0  0  0  0  0  0  0  0  0  0
  -36.0530  -65.5720   48.5890 H   0  0  0  0  0  0  0  0  0  0  0  0
  -35.3830  -63.4060   47.6230 H   0  0  0  0  0  0  0  0  0  0  0  0
  -37.1060  -61.5700   47.4790 H   0  0  0  0  0  0  0  0  0  0  0  0
  -39.3660  -62.0130   48.2640 H   0  0  0  0  0  0  0  0  0  0  0  0
  -45.9630  -62.5820   51.7790 H   0  0  0  0  0  0  0  0  0  0  0  0
  -47.2250  -66.3000   55.4990 H   0  0  0  0  0  0  0  0  0  0  0  0
  -46.6170  -67.8640   54.9000 H   0  0  0  0  0  0  0  0  0  0  0  0
  -40.5670  -66.5330   53.9210 H   0  0  0  0  0  0  0  0  0  0  0  0
  -39.5680  -68.2860   54.1040 H   0  0  0  0  0  0  0  0  0  0  0  0
  -41.9470  -69.7740   52.8640 H   0  0  0  0  0  0  0  0  0  0  0  0
  -43.0890  -68.0650   54.2010 H   0  0  0  0  0  0  0  0  0  0  0  0
  -41.7960  -66.9080   55.7190 H   0  0  0  0  0  0  0  0  0  0  0  0
  -40.8900  -69.8160   55.5400 H   0  0  0  0  0  0  0  0  0  0  0  0
  -38.2870  -69.1840   52.1690 H   0  0  0  0  0  0  0  0  0  0  0  0
  -39.6690  -70.1750   51.6530 H   0  0  0  0  0  0  0  0  0  0  0  0
  -37.7210  -70.8470   53.1460 H   0  0  0  0  0  0  0  0  0  0  0  0
  1 10  1  0  0  0  0
  2  1  1  0  0  0  0
  3  4  1  0  0  0  0
  3  2  1  0  0  0  0
  4  9  1  0  0  0  0
  5 32  1  0  0  0  0
  5  4  2  0  0  0  0
  6  5  1  0  0  0  0
  7  6  2  0  0  0  0
  7  8  1  0  0  0  0
  8  3  2  0  0  0  0
 10 11  1  0  0  0  0
 11 12  1  0  0  0  0
 11 21  1  0  0  0  0
 12 13  1  0  0  0  0
 13 14  2  0  0  0  0
 14 20  1  0  0  0  0
 15 14  1  0  0  0  0
 16 15  2  0  0  0  0
 17 16  1  0  0  0  0
 17 12  2  0  0  0  0
 18 10  2  0  0  0  0
 18 17  1  0  0  0  0
 19 36  1  0  0  0  0
 19 16  1  0  0  0  0
 20 38  1  0  0  0  0
 20 37  1  0  0  0  0
 21 39  1  1  0  0  0
 21 25  1  0  0  0  0
 22 23  1  0  0  0  0
 22 21  1  0  0  0  0
 23 24  1  0  0  0  0
 23 40  1  1  0  0  0
 24 41  1  6  0  0  0
 24 25  1  0  0  0  0
 24 27  1  0  0  0  0
 25 42  1  6  0  0  0
 25 26  1  0  0  0  0
 26 43  1  0  0  0  0
 27 44  1  0  0  0  0
 28 23  1  0  0  0  0
 28 29  1  0  0  0  0
 30  2  1  0  0  0  0
 31  2  1  0  0  0  0
 33  6  1  0  0  0  0
 34  7  1  0  0  0  0
 35  8  1  0  0  0  0
 45 28  1  0  0  0  0
 46 28  1  0  0  0  0
 47 29  1  0  0  0  0
M  END
>  <Pose>
1

>  <Score>
-7.52

$$$$
