
 OpenBabel03202209423D

 52 56  0  0  1  0  0  0  0  0999 V2000
  -45.9020  -67.3440   53.5270 S   0  0  0  0  0  0  0  0  0  0  0  0
  -46.3150  -65.7000   52.9620 C   0  0  0  0  0  0  0  0  0  0  0  0
  -47.3920  -65.1000   53.3160 N   0  0  0  0  0  0  0  0  0  0  0  0
  -47.7850  -63.7990   52.9090 C   0  0  0  0  0  0  0  0  0  0  0  0
  -48.4440  -63.0230   53.6050 O   0  0  0  0  0  0  0  0  0  0  0  0
  -47.3100  -63.4190   51.4900 C   0  0  1  0  0  0  0  0  0  0  0  0
  -45.8420  -63.6530   51.6380 C   0  0  0  0  0  0  0  0  0  0  0  0
  -44.9490  -62.8300   51.4280 O   0  0  0  0  0  0  0  0  0  0  0  0
  -45.4620  -64.9530   52.0640 N   0  0  0  0  0  0  0  0  0  0  0  0
  -44.2570  -65.4990   51.6110 C   0  0  0  0  0  0  0  0  0  0  0  0
  -43.1990  -65.5800   52.5250 C   0  0  0  0  0  0  0  0  0  0  0  0
  -41.9820  -66.1070   52.1520 C   0  0  0  0  0  0  0  0  0  0  0  0
  -41.8070  -66.5620   50.8490 C   0  0  0  0  0  0  0  0  0  0  0  0
  -42.8710  -66.4780   49.9430 C   0  0  0  0  0  0  0  0  0  0  0  0
  -44.0790  -65.9500   50.3330 C   0  0  0  0  0  0  0  0  0  0  0  0
  -40.1550  -67.2910   50.2990 B   0  0  0  0  0  0  0  0  0  0  0  0
  -48.0030  -64.3480   50.6060 C   0  0  1  0  0  0  0  0  0  0  0  0
  -49.4440  -64.3690   50.8140 N   0  0  0  0  0  4  0  0  0  0  0  0
  -49.9930  -65.6380   50.3670 C   0  0  0  0  0  0  0  0  0  0  0  0
  -49.0460  -66.4590   49.5320 C   0  0  0  0  0  0  0  0  0  0  0  0
  -48.3480  -65.5320   48.5710 C   0  0  0  0  0  0  0  0  0  0  0  0
  -47.8020  -64.3710   49.1670 C   0  0  0  0  0  0  0  0  0  0  0  0
  -47.1670  -63.4500   48.3800 C   0  0  0  0  0  0  0  0  0  0  0  0
  -47.0870  -63.7080   47.0140 C   0  0  0  0  0  0  0  0  0  0  0  0
  -47.6250  -64.8460   46.4580 C   0  0  0  0  0  0  0  0  0  0  0  0
  -48.2710  -65.7850   47.2400 C   0  0  0  0  0  0  0  0  0  0  0  0
  -47.3880  -64.8200   45.0990 O   0  0  0  0  0  0  0  0  0  0  0  0
  -46.9530  -63.5320   44.7420 C   0  0  0  0  0  0  0  0  0  0  0  0
  -46.5260  -62.9920   45.9920 O   0  0  0  0  0  0  0  0  0  0  0  0
  -46.6210  -62.2900   48.9100 O   0  0  0  0  0  0  0  0  0  0  0  0
  -47.4700  -61.1680   49.1270 C   0  0  0  0  0  0  0  0  0  0  0  0
  -50.1570  -63.3190   50.1720 C   0  0  0  0  0  0  0  0  0  0  0  0
  -47.5040  -62.3600   51.4380 H   0  0  0  0  0  0  0  0  0  0  0  0
  -43.3110  -65.2300   53.5480 H   0  0  0  0  0  0  0  0  0  0  0  0
  -41.1820  -66.1580   52.8720 H   0  0  0  0  0  0  0  0  0  0  0  0
  -42.7800  -66.8190   48.9240 H   0  0  0  0  0  0  0  0  0  0  0  0
  -44.8900  -65.8850   49.6430 H   0  0  0  0  0  0  0  0  0  0  0  0
  -47.7060  -65.3940   50.9720 H   0  0  0  0  0  0  0  0  0  0  0  0
  -49.5980  -64.3080   51.8420 H   0  0  0  0  0  0  0  0  0  0  0  0
  -50.9170  -65.4810   49.7740 H   0  0  0  0  0  0  0  0  0  0  0  0
  -50.2980  -66.2840   51.2350 H   0  0  0  0  0  0  0  0  0  0  0  0
  -48.3490  -67.0840   50.0990 H   0  0  0  0  0  0  0  0  0  0  0  0
  -49.6800  -67.1340   48.8950 H   0  0  0  0  0  0  0  0  0  0  0  0
  -48.7030  -66.6920   46.8160 H   0  0  0  0  0  0  0  0  0  0  0  0
  -46.1100  -63.5680   44.0210 H   0  0  0  0  0  0  0  0  0  0  0  0
  -47.8230  -62.9650   44.3510 H   0  0  0  0  0  0  0  0  0  0  0  0
  -47.3600  -60.4900   48.2400 H   0  0  0  0  0  0  0  0  0  0  0  0
  -47.2540  -60.6290   50.0490 H   0  0  0  0  0  0  0  0  0  0  0  0
  -48.5180  -61.4960   49.1350 H   0  0  0  0  0  0  0  0  0  0  0  0
  -51.2380  -63.5670   50.2250 H   0  0  0  0  0  0  0  0  0  0  0  0
  -50.0450  -62.3270   50.6450 H   0  0  0  0  0  0  0  0  0  0  0  0
  -49.9280  -63.2760   49.0700 H   0  0  0  0  0  0  0  0  0  0  0  0
  2  3  1  0  0  0  0
  2  1  2  0  0  0  0
  4  3  1  0  0  0  0
  4  5  2  0  0  0  0
  6 33  1  6  0  0  0
  6  7  1  0  0  0  0
  6  4  1  0  0  0  0
  7  9  1  0  0  0  0
  8  7  2  0  0  0  0
  9  2  1  0  0  0  0
 10  9  1  0  0  0  0
 10 11  1  0  0  0  0
 11 34  1  0  0  0  0
 12 11  2  0  0  0  0
 12 35  1  0  0  0  0
 13 12  1  0  0  0  0
 14 15  1  0  0  0  0
 14 13  2  0  0  0  0
 15 10  2  0  0  0  0
 16 13  1  0  0  0  0
 17 18  1  0  0  0  0
 17 38  1  1  0  0  0
 17  6  1  0  0  0  0
 18 39  1  0  0  0  0
 19 18  1  0  0  0  0
 19 41  1  0  0  0  0
 20 42  1  0  0  0  0
 20 19  1  0  0  0  0
 21 22  1  0  0  0  0
 21 20  1  0  0  0  0
 22 17  1  0  0  0  0
 23 30  1  0  0  0  0
 23 22  2  0  0  0  0
 24 23  1  0  0  0  0
 25 24  2  0  0  0  0
 25 26  1  0  0  0  0
 26 21  2  0  0  0  0
 27 25  1  0  0  0  0
 28 27  1  0  0  0  0
 28 29  1  0  0  0  0
 29 24  1  0  0  0  0
 30 31  1  0  0  0  0
 31 49  1  0  0  0  0
 31 48  1  0  0  0  0
 32 50  1  0  0  0  0
 32 51  1  0  0  0  0
 32 18  1  0  0  0  0
 36 14  1  0  0  0  0
 37 15  1  0  0  0  0
 40 19  1  0  0  0  0
 43 20  1  0  0  0  0
 44 26  1  0  0  0  0
 45 28  1  0  0  0  0
 46 28  1  0  0  0  0
 47 31  1  0  0  0  0
 52 32  1  0  0  0  0
M  END
>  <Pose>
1

>  <Score>
-3.72

$$$$
