
 OpenBabel03202209423D

 39 42  0  0  1  0  0  0  0  0999 V2000
  -38.6300  -69.5860   52.0280 S   0  0  0  0  0  0  0  0  0  0  0  0
  -38.6270  -70.8970   51.2960 O   0  0  0  0  0  0  0  0  0  0  0  0
  -37.3370  -68.8420   51.8430 O   0  0  0  0  0  0  0  0  0  0  0  0
  -39.9970  -68.5650   51.5240 C   0  0  0  0  0  0  0  0  0  0  0  0
  -40.2860  -67.6490   52.6960 C   0  0  2  0  0  0  0  0  0  0  0  0
  -40.8520  -68.4360   53.7730 N   0  0  0  0  0  0  0  0  0  0  0  0
  -40.3810  -69.7810   54.0300 C   0  0  0  0  0  0  0  0  0  0  0  0
  -38.8710  -69.8530   53.7900 C   0  0  0  0  0  0  0  0  0  0  0  0
  -41.8360  -67.5990   54.3670 C   0  0  0  0  0  0  0  0  0  0  0  0
  -42.4030  -67.7910   55.4960 O   0  0  0  0  0  0  0  0  0  0  0  0
  -42.1200  -66.4850   53.5300 N   0  0  0  0  0  0  0  0  0  0  0  0
  -41.2950  -66.6320   52.3840 C   0  0  0  0  0  0  0  0  0  0  0  0
  -41.3950  -66.0100   51.2860 O   0  0  0  0  0  0  0  0  0  0  0  0
  -43.0590  -65.4000   53.7700 C   0  0  1  0  0  0  0  0  0  0  0  0
  -42.7930  -64.2280   52.8420 C   0  0  0  0  0  0  0  0  0  0  0  0
  -43.7750  -63.1310   53.2610 C   0  0  0  0  0  0  0  0  0  0  0  0
  -45.0650  -63.6170   52.9390 O   0  0  0  0  0  0  0  0  0  0  0  0
  -45.3850  -64.9580   53.1190 C   0  0  0  0  0  0  0  0  0  0  0  0
  -44.4390  -65.8580   53.5220 C   0  0  0  0  0  0  0  0  0  0  0  0
  -44.7530  -67.1770   53.6990 C   0  0  0  0  0  0  0  0  0  0  0  0
  -46.0430  -67.5860   53.4620 C   0  0  0  0  0  0  0  0  0  0  0  0
  -46.9820  -66.6700   53.0590 C   0  0  0  0  0  0  0  0  0  0  0  0
  -46.6970  -65.3300   52.8710 C   0  0  0  0  0  0  0  0  0  0  0  0
  -48.0080  -64.0720   52.3110 B   0  0  0  0  0  0  0  0  0  0  0  0
  -40.8830  -69.2460   51.4430 H   0  0  0  0  0  0  0  0  0  0  0  0
  -39.7920  -68.0210   50.5900 H   0  0  0  0  0  0  0  0  0  0  0  0
  -39.3800  -67.1570   53.0900 H   0  0  0  0  0  0  0  0  0  0  0  0
  -40.8590  -70.5310   53.3760 H   0  0  0  0  0  0  0  0  0  0  0  0
  -40.5230  -70.0840   55.0970 H   0  0  0  0  0  0  0  0  0  0  0  0
  -38.3180  -69.1330   54.3900 H   0  0  0  0  0  0  0  0  0  0  0  0
  -38.5850  -70.9100   53.9800 H   0  0  0  0  0  0  0  0  0  0  0  0
  -43.0020  -65.0170   54.7950 H   0  0  0  0  0  0  0  0  0  0  0  0
  -41.7630  -63.8570   52.9070 H   0  0  0  0  0  0  0  0  0  0  0  0
  -43.0550  -64.4810   51.7950 H   0  0  0  0  0  0  0  0  0  0  0  0
  -43.7260  -63.0900   54.3780 H   0  0  0  0  0  0  0  0  0  0  0  0
  -43.5570  -62.1730   52.7940 H   0  0  0  0  0  0  0  0  0  0  0  0
  -43.9770  -67.8860   54.0230 H   0  0  0  0  0  0  0  0  0  0  0  0
  -46.3040  -68.6290   53.5990 H   0  0  0  0  0  0  0  0  0  0  0  0
  -47.9910  -67.0140   52.8800 H   0  0  0  0  0  0  0  0  0  0  0  0
  1  8  1  0  0  0  0
  2  1  2  0  0  0  0
  3  1  2  0  0  0  0
  4  1  1  0  0  0  0
  4  5  1  0  0  0  0
  5 27  1  1  0  0  0
  5  6  1  0  0  0  0
  6  7  1  0  0  0  0
  6  9  1  0  0  0  0
  7 29  1  0  0  0  0
  8 31  1  0  0  0  0
  8  7  1  0  0  0  0
  8 30  1  0  0  0  0
  9 10  2  0  0  0  0
 11 14  1  0  0  0  0
 11  9  1  0  0  0  0
 12  5  1  0  0  0  0
 12 11  1  0  0  0  0
 13 12  2  0  0  0  0
 14 32  1  1  0  0  0
 15 33  1  0  0  0  0
 15 16  1  0  0  0  0
 15 14  1  0  0  0  0
 16 35  1  0  0  0  0
 17 18  1  0  0  0  0
 17 16  1  0  0  0  0
 18 19  1  0  0  0  0
 19 20  2  0  0  0  0
 19 14  1  0  0  0  0
 20 37  1  0  0  0  0
 21 38  1  0  0  0  0
 21 20  1  0  0  0  0
 22 21  2  0  0  0  0
 23 22  1  0  0  0  0
 23 18  2  0  0  0  0
 24 23  1  0  0  0  0
 25  4  1  0  0  0  0
 26  4  1  0  0  0  0
 28  7  1  0  0  0  0
 34 15  1  0  0  0  0
 36 16  1  0  0  0  0
 39 22  1  0  0  0  0
M  END
>  <Pose>
1

>  <Score>
-5.22

$$$$
