
 OpenBabel03202209423D

 58 61  0  0  1  0  0  0  0  0999 V2000
  -46.9730  -65.6120   53.5750 S   0  0  0  0  0  0  0  0  0  0  0  0
  -48.5040  -66.3630   53.5410 C   0  0  0  0  0  0  0  0  0  0  0  0
  -48.1960  -67.6330   53.7210 N   0  0  0  0  0  0  0  0  0  0  0  0
  -46.9540  -67.9890   53.8670 C   0  0  0  0  0  0  0  0  0  0  0  0
  -46.0040  -67.0020   53.8220 C   0  0  0  0  0  0  0  0  0  0  0  0
  -44.5530  -67.0360   53.9890 C   0  0  0  0  0  0  0  0  0  0  0  0
  -43.7750  -66.1690   53.3690 C   0  0  0  0  0  0  0  0  0  0  0  0
  -42.2790  -66.0590   53.4160 C   0  0  2  0  0  0  0  0  0  0  0  0
  -41.9330  -65.5800   52.1150 N   0  0  0  0  0  0  0  0  0  0  0  0
  -43.0330  -64.7010   51.7520 C   0  0  0  0  0  0  0  0  0  0  0  0
  -42.9250  -63.7910   50.8850 O   0  0  0  0  0  0  0  0  0  0  0  0
  -44.2040  -65.0550   52.5340 C   0  0  0  0  0  0  0  0  0  0  0  0
  -45.3570  -64.5100   52.5000 O   0  0  0  0  0  0  0  0  0  0  0  0
  -40.7720  -65.7870   51.3010 C   0  0  0  0  0  0  0  0  0  0  0  0
  -40.9370  -66.7010   50.1300 C   0  0  0  0  0  0  0  0  0  0  0  0
  -39.8990  -66.3860   49.0430 C   0  0  0  0  0  0  0  0  0  0  0  0
  -38.6600  -66.0920   49.6800 N   0  0  0  0  0  4  0  0  0  0  0  0
  -37.6150  -67.0490   49.5060 C   0  0  0  0  0  0  0  0  0  0  0  0
  -36.9740  -66.9980   48.1390 C   0  0  0  0  0  0  0  0  0  0  0  0
  -37.6740  -66.0190   47.3980 O   0  0  0  0  0  0  0  0  0  0  0  0
  -37.3630  -64.8000   48.0320 C   0  0  0  0  0  0  0  0  0  0  0  0
  -38.1540  -64.7790   49.3230 C   0  0  0  0  0  0  0  0  0  0  0  0
  -41.6560  -67.2980   53.8630 C   0  0  0  0  0  0  0  0  0  0  0  0
  -40.7160  -67.9020   53.0130 C   0  0  0  0  0  0  0  0  0  0  0  0
  -40.0450  -69.0550   53.3320 C   0  0  0  0  0  0  0  0  0  0  0  0
  -40.2850  -69.6670   54.5380 C   0  0  0  0  0  0  0  0  0  0  0  0
  -41.2060  -69.0990   55.4050 C   0  0  0  0  0  0  0  0  0  0  0  0
  -41.8620  -67.9400   55.0500 C   0  0  0  0  0  0  0  0  0  0  0  0
  -38.7700  -69.8550   52.1560 B   0  0  0  0  0  0  0  0  0  0  0  0
  -43.9600  -68.0080   54.8270 O   0  0  0  0  0  0  0  0  0  0  0  0
  -46.6080  -69.4510   54.1180 C   0  0  0  0  0  0  0  0  0  0  0  0
  -49.8670  -65.7370   53.3530 C   0  0  0  0  0  0  0  0  0  0  0  0
  -42.0910  -65.2540   54.1890 H   0  0  0  0  0  0  0  0  0  0  0  0
  -40.0030  -66.2550   51.9780 H   0  0  0  0  0  0  0  0  0  0  0  0
  -40.3880  -64.8080   50.9270 H   0  0  0  0  0  0  0  0  0  0  0  0
  -40.8650  -67.7630   50.3150 H   0  0  0  0  0  0  0  0  0  0  0  0
  -41.9230  -66.4120   49.6540 H   0  0  0  0  0  0  0  0  0  0  0  0
  -40.2170  -65.5100   48.4430 H   0  0  0  0  0  0  0  0  0  0  0  0
  -39.8680  -67.2870   48.3940 H   0  0  0  0  0  0  0  0  0  0  0  0
  -38.8540  -66.0430   50.7260 H   0  0  0  0  0  0  0  0  0  0  0  0
  -37.8600  -68.0860   49.7280 H   0  0  0  0  0  0  0  0  0  0  0  0
  -36.8070  -66.7670   50.2450 H   0  0  0  0  0  0  0  0  0  0  0  0
  -36.9210  -67.9610   47.6270 H   0  0  0  0  0  0  0  0  0  0  0  0
  -35.9220  -66.6070   48.1830 H   0  0  0  0  0  0  0  0  0  0  0  0
  -36.2810  -64.8650   48.3220 H   0  0  0  0  0  0  0  0  0  0  0  0
  -37.5230  -63.9310   47.3970 H   0  0  0  0  0  0  0  0  0  0  0  0
  -37.5460  -64.3990   50.1610 H   0  0  0  0  0  0  0  0  0  0  0  0
  -39.0340  -64.1100   49.1880 H   0  0  0  0  0  0  0  0  0  0  0  0
  -40.4950  -67.4500   52.0470 H   0  0  0  0  0  0  0  0  0  0  0  0
  -39.7490  -70.5710   54.7740 H   0  0  0  0  0  0  0  0  0  0  0  0
  -41.4170  -69.5510   56.3500 H   0  0  0  0  0  0  0  0  0  0  0  0
  -42.5670  -67.5000   55.7420 H   0  0  0  0  0  0  0  0  0  0  0  0
  -45.6050  -69.5210   54.5260 H   0  0  0  0  0  0  0  0  0  0  0  0
  -46.7760  -70.0370   53.1920 H   0  0  0  0  0  0  0  0  0  0  0  0
  -47.3070  -69.8790   54.8730 H   0  0  0  0  0  0  0  0  0  0  0  0
  -50.3870  -66.1660   52.4910 H   0  0  0  0  0  0  0  0  0  0  0  0
  -50.4060  -65.9360   54.3060 H   0  0  0  0  0  0  0  0  0  0  0  0
  -49.7060  -64.6410   53.2890 H   0  0  0  0  0  0  0  0  0  0  0  0
  1  5  1  0  0  0  0
  2  1  1  0  0  0  0
  2  3  2  0  0  0  0
  3  4  1  0  0  0  0
  4 31  1  0  0  0  0
  5  4  2  0  0  0  0
  5  6  1  0  0  0  0
  6 30  1  0  0  0  0
  7  8  1  0  0  0  0
  7  6  2  0  0  0  0
  8 23  1  0  0  0  0
  8 33  1  1  0  0  0
  9  8  1  0  0  0  0
 10  9  1  0  0  0  0
 10 12  1  0  0  0  0
 11 10  2  0  0  0  0
 12  7  1  0  0  0  0
 13 12  2  0  0  0  0
 14 34  1  0  0  0  0
 14  9  1  0  0  0  0
 15 36  1  0  0  0  0
 15 14  1  0  0  0  0
 16 17  1  0  0  0  0
 16 15  1  0  0  0  0
 17 40  1  0  0  0  0
 18 17  1  0  0  0  0
 18 41  1  0  0  0  0
 18 42  1  0  0  0  0
 19 44  1  0  0  0  0
 19 18  1  0  0  0  0
 20 21  1  0  0  0  0
 20 19  1  0  0  0  0
 21 45  1  0  0  0  0
 21 22  1  0  0  0  0
 22 17  1  0  0  0  0
 22 47  1  0  0  0  0
 23 28  1  0  0  0  0
 24 25  1  0  0  0  0
 24 23  2  0  0  0  0
 25 26  2  0  0  0  0
 26 50  1  0  0  0  0
 26 27  1  0  0  0  0
 27 51  1  0  0  0  0
 28 27  2  0  0  0  0
 28 52  1  0  0  0  0
 29 25  1  0  0  0  0
 31 53  1  0  0  0  0
 31 55  1  0  0  0  0
 32  2  1  0  0  0  0
 32 57  1  0  0  0  0
 35 14  1  0  0  0  0
 37 15  1  0  0  0  0
 38 16  1  0  0  0  0
 39 16  1  0  0  0  0
 43 19  1  0  0  0  0
 46 21  1  0  0  0  0
 48 22  1  0  0  0  0
 49 24  1  0  0  0  0
 54 31  1  0  0  0  0
 56 32  1  0  0  0  0
 58 32  1  0  0  0  0
M  END
>  <Pose>
1

>  <Score>
-5.92

$$$$
