
 OpenBabel03202209423D

 58 61  0  0  1  0  0  0  0  0999 V2000
  -35.9370  -69.7720   52.0860 S   0  0  0  0  0  0  0  0  0  0  0  0
  -34.2980  -69.5870   51.6590 C   0  0  0  0  0  0  0  0  0  0  0  0
  -34.3480  -68.6420   50.7430 N   0  0  0  0  0  0  0  0  0  0  0  0
  -35.4890  -68.1230   50.4080 C   0  0  0  0  0  0  0  0  0  0  0  0
  -36.6130  -68.5960   51.0410 C   0  0  0  0  0  0  0  0  0  0  0  0
  -38.0320  -68.2320   50.8330 C   0  0  0  0  0  0  0  0  0  0  0  0
  -38.9500  -68.6360   51.6610 C   0  0  0  0  0  0  0  0  0  0  0  0
  -40.4090  -68.3230   51.5540 C   0  0  1  0  0  0  0  0  0  0  0  0
  -40.8160  -68.2460   52.9320 N   0  0  0  0  0  0  0  0  0  0  0  0
  -40.0290  -69.2320   53.6150 C   0  0  0  0  0  0  0  0  0  0  0  0
  -40.3120  -69.7730   54.6980 O   0  0  0  0  0  0  0  0  0  0  0  0
  -38.8340  -69.5020   52.8270 C   0  0  0  0  0  0  0  0  0  0  0  0
  -37.8710  -70.2910   53.0300 O   0  0  0  0  0  0  0  0  0  0  0  0
  -41.8190  -67.3680   53.4530 C   0  0  0  0  0  0  0  0  0  0  0  0
  -42.8290  -67.9990   54.3190 C   0  0  0  0  0  0  0  0  0  0  0  0
  -44.0240  -67.2600   54.6330 C   0  0  0  0  0  0  0  0  0  0  0  0
  -44.2670  -65.8980   54.5640 N   0  0  0  0  0  4  0  0  0  0  0  0
  -45.5930  -65.6270   53.8940 C   0  0  0  0  0  0  0  0  0  0  0  0
  -45.4240  -65.7360   52.4140 C   0  0  0  0  0  0  0  0  0  0  0  0
  -44.6300  -64.6700   52.0090 O   0  0  0  0  0  0  0  0  0  0  0  0
  -43.3360  -64.9610   52.4980 C   0  0  0  0  0  0  0  0  0  0  0  0
  -43.3290  -64.9910   54.0010 C   0  0  0  0  0  0  0  0  0  0  0  0
  -40.6300  -67.1090   50.7540 C   0  0  0  0  0  0  0  0  0  0  0  0
  -40.2680  -65.8330   51.0900 C   0  0  0  0  0  0  0  0  0  0  0  0
  -40.4980  -64.7210   50.3130 C   0  0  0  0  0  0  0  0  0  0  0  0
  -41.1350  -64.8840   49.1080 C   0  0  0  0  0  0  0  0  0  0  0  0
  -41.5230  -66.1370   48.7150 C   0  0  0  0  0  0  0  0  0  0  0  0
  -41.2770  -67.2280   49.5170 C   0  0  0  0  0  0  0  0  0  0  0  0
  -41.4510  -63.3330   48.0270 B   0  0  0  0  0  0  0  0  0  0  0  0
  -38.4000  -67.4410   49.7310 O   0  0  0  0  0  0  0  0  0  0  0  0
  -35.5900  -67.0580   49.3190 C   0  0  0  0  0  0  0  0  0  0  0  0
  -33.0750  -70.3000   52.1720 C   0  0  0  0  0  0  0  0  0  0  0  0
  -40.9490  -69.1790   51.1040 H   0  0  0  0  0  0  0  0  0  0  0  0
  -41.3770  -66.4840   53.8760 H   0  0  0  0  0  0  0  0  0  0  0  0
  -42.3710  -66.9710   52.5110 H   0  0  0  0  0  0  0  0  0  0  0  0
  -42.9860  -69.0430   53.9240 H   0  0  0  0  0  0  0  0  0  0  0  0
  -42.2620  -68.2540   55.2880 H   0  0  0  0  0  0  0  0  0  0  0  0
  -44.8880  -67.8540   54.0950 H   0  0  0  0  0  0  0  0  0  0  0  0
  -44.3110  -67.5690   55.7170 H   0  0  0  0  0  0  0  0  0  0  0  0
  -44.4720  -65.5240   55.5230 H   0  0  0  0  0  0  0  0  0  0  0  0
  -46.3350  -66.2470   54.3660 H   0  0  0  0  0  0  0  0  0  0  0  0
  -45.8260  -64.5700   54.1130 H   0  0  0  0  0  0  0  0  0  0  0  0
  -46.4320  -65.7100   51.9580 H   0  0  0  0  0  0  0  0  0  0  0  0
  -44.8960  -66.6530   52.0860 H   0  0  0  0  0  0  0  0  0  0  0  0
  -42.6900  -64.1270   52.1570 H   0  0  0  0  0  0  0  0  0  0  0  0
  -43.0040  -65.8690   52.0020 H   0  0  0  0  0  0  0  0  0  0  0  0
  -43.6320  -63.9020   54.2720 H   0  0  0  0  0  0  0  0  0  0  0  0
  -42.3320  -65.0630   54.3860 H   0  0  0  0  0  0  0  0  0  0  0  0
  -39.7620  -65.6850   52.0340 H   0  0  0  0  0  0  0  0  0  0  0  0
  -40.1690  -63.7470   50.6730 H   0  0  0  0  0  0  0  0  0  0  0  0
  -42.0290  -66.2290   47.7460 H   0  0  0  0  0  0  0  0  0  0  0  0
  -41.5910  -68.2060   49.1900 H   0  0  0  0  0  0  0  0  0  0  0  0
  -36.6040  -66.9770   48.9540 H   0  0  0  0  0  0  0  0  0  0  0  0
  -35.1990  -66.0880   49.6770 H   0  0  0  0  0  0  0  0  0  0  0  0
  -34.9370  -67.3540   48.4590 H   0  0  0  0  0  0  0  0  0  0  0  0
  -33.3800  -71.3360   52.4720 H   0  0  0  0  0  0  0  0  0  0  0  0
  -32.3430  -70.4520   51.3360 H   0  0  0  0  0  0  0  0  0  0  0  0
  -32.6170  -69.7680   53.0100 H   0  0  0  0  0  0  0  0  0  0  0  0
  2  1  1  0  0  0  0
  2 32  1  0  0  0  0
  3  2  2  0  0  0  0
  4  3  1  0  0  0  0
  4  5  2  0  0  0  0
  5  1  1  0  0  0  0
  6  5  1  0  0  0  0
  6  7  2  0  0  0  0
  7 12  1  0  0  0  0
  8 33  1  6  0  0  0
  8  7  1  0  0  0  0
  8  9  1  0  0  0  0
  9 14  1  0  0  0  0
  9 10  1  0  0  0  0
 10 11  2  0  0  0  0
 12 13  2  0  0  0  0
 12 10  1  0  0  0  0
 14 34  1  0  0  0  0
 14 15  1  0  0  0  0
 15 16  1  0  0  0  0
 15 37  1  0  0  0  0
 16 39  1  0  0  0  0
 17 16  1  0  0  0  0
 17 40  1  0  0  0  0
 18 42  1  0  0  0  0
 18 41  1  0  0  0  0
 18 17  1  0  0  0  0
 19 18  1  0  0  0  0
 20 19  1  0  0  0  0
 20 21  1  0  0  0  0
 21 22  1  0  0  0  0
 22 47  1  0  0  0  0
 22 48  1  0  0  0  0
 22 17  1  0  0  0  0
 23 24  1  0  0  0  0
 23  8  1  0  0  0  0
 24 49  1  0  0  0  0
 25 50  1  0  0  0  0
 25 24  2  0  0  0  0
 26 25  1  0  0  0  0
 27 26  2  0  0  0  0
 27 28  1  0  0  0  0
 28 23  2  0  0  0  0
 29 26  1  0  0  0  0
 30  6  1  0  0  0  0
 31 54  1  0  0  0  0
 31  4  1  0  0  0  0
 32 56  1  0  0  0  0
 32 58  1  0  0  0  0
 35 14  1  0  0  0  0
 36 15  1  0  0  0  0
 38 16  1  0  0  0  0
 43 19  1  0  0  0  0
 44 19  1  0  0  0  0
 45 21  1  0  0  0  0
 46 21  1  0  0  0  0
 51 27  1  0  0  0  0
 52 28  1  0  0  0  0
 53 31  1  0  0  0  0
 55 31  1  0  0  0  0
 57 32  1  0  0  0  0
M  END
>  <Pose>
1

>  <Score>
-6.35

$$$$
