
 OpenBabel03202209423D

 55 58  0  0  1  0  0  0  0  0999 V2000
  -44.7790  -62.9670   49.4290 S   0  0  0  0  0  0  0  0  0  0  0  0
  -45.8110  -62.5970   48.1280 C   0  0  0  0  0  0  0  0  0  0  0  0
  -46.8260  -63.4130   48.3310 N   0  0  0  0  0  0  0  0  0  0  0  0
  -46.8220  -64.2190   49.3470 C   0  0  0  0  0  0  0  0  0  0  0  0
  -45.7340  -64.1840   50.1880 C   0  0  0  0  0  0  0  0  0  0  0  0
  -45.4260  -64.9900   51.3790 C   0  0  0  0  0  0  0  0  0  0  0  0
  -46.2850  -64.9350   52.3750 C   0  0  0  0  0  0  0  0  0  0  0  0
  -46.2490  -65.6360   53.6950 C   0  0  1  0  0  0  0  0  0  0  0  0
  -47.5810  -66.0950   53.7890 N   0  0  0  0  0  0  0  0  0  0  0  0
  -48.3510  -64.8810   53.4320 C   0  0  0  0  0  0  0  0  0  0  0  0
  -49.5010  -64.5650   53.8390 O   0  0  0  0  0  0  0  0  0  0  0  0
  -47.5010  -64.1340   52.5120 C   0  0  0  0  0  0  0  0  0  0  0  0
  -47.7040  -63.0270   51.9230 O   0  0  0  0  0  0  0  0  0  0  0  0
  -48.3310  -67.2440   54.1670 C   0  0  0  0  0  0  0  0  0  0  0  0
  -48.8930  -68.1310   53.1410 C   0  0  0  0  0  0  0  0  0  0  0  0
  -49.3760  -69.4170   53.4420 N   0  0  0  0  0  4  0  0  0  0  0  0
  -50.3740  -69.4590   54.4900 C   0  0  0  0  0  0  0  0  0  0  0  0
  -50.6540  -70.9350   54.7530 C   0  0  0  0  0  0  0  0  0  0  0  0
  -50.1840  -71.7260   53.7050 O   0  0  0  0  0  0  0  0  0  0  0  0
  -50.7440  -71.1740   52.5350 C   0  0  0  0  0  0  0  0  0  0  0  0
  -50.1560  -69.8270   52.2280 C   0  0  0  0  0  0  0  0  0  0  0  0
  -45.0860  -66.3910   54.0090 C   0  0  0  0  0  0  0  0  0  0  0  0
  -45.0880  -67.7690   53.7730 C   0  0  0  0  0  0  0  0  0  0  0  0
  -44.0170  -68.5730   54.0630 C   0  0  0  0  0  0  0  0  0  0  0  0
  -42.8960  -67.9840   54.6110 C   0  0  0  0  0  0  0  0  0  0  0  0
  -42.8740  -66.6260   54.8520 C   0  0  0  0  0  0  0  0  0  0  0  0
  -43.9630  -65.8400   54.5520 C   0  0  0  0  0  0  0  0  0  0  0  0
  -41.3570  -69.0330   55.0460 B   0  0  0  0  0  0  0  0  0  0  0  0
  -44.2950  -65.7800   51.4820 O   0  0  0  0  0  0  0  0  0  0  0  0
  -47.9630  -65.1990   49.5750 C   0  0  0  0  0  0  0  0  0  0  0  0
  -45.6210  -61.5920   47.0230 C   0  0  0  0  0  0  0  0  0  0  0  0
  -46.2280  -64.7340   54.4240 H   0  0  0  0  0  0  0  0  0  0  0  0
  -49.2080  -66.8930   54.8010 H   0  0  0  0  0  0  0  0  0  0  0  0
  -47.7780  -67.9060   54.8830 H   0  0  0  0  0  0  0  0  0  0  0  0
  -48.0810  -68.2790   52.3530 H   0  0  0  0  0  0  0  0  0  0  0  0
  -49.6870  -67.5220   52.5890 H   0  0  0  0  0  0  0  0  0  0  0  0
  -48.6210  -70.1040   53.5300 H   0  0  0  0  0  0  0  0  0  0  0  0
  -50.0410  -69.0270   55.4360 H   0  0  0  0  0  0  0  0  0  0  0  0
  -51.2930  -68.9490   54.1050 H   0  0  0  0  0  0  0  0  0  0  0  0
  -51.7680  -71.0170   54.8690 H   0  0  0  0  0  0  0  0  0  0  0  0
  -50.1290  -71.2850   55.6670 H   0  0  0  0  0  0  0  0  0  0  0  0
  -50.6180  -71.8650   51.6860 H   0  0  0  0  0  0  0  0  0  0  0  0
  -51.8320  -71.0280   52.7930 H   0  0  0  0  0  0  0  0  0  0  0  0
  -49.4880  -69.8060   51.3690 H   0  0  0  0  0  0  0  0  0  0  0  0
  -50.9460  -69.0520   52.1450 H   0  0  0  0  0  0  0  0  0  0  0  0
  -45.9710  -68.2670   53.3390 H   0  0  0  0  0  0  0  0  0  0  0  0
  -44.0390  -69.6530   53.8700 H   0  0  0  0  0  0  0  0  0  0  0  0
  -41.9750  -66.1880   55.2840 H   0  0  0  0  0  0  0  0  0  0  0  0
  -43.8960  -64.7520   54.7830 H   0  0  0  0  0  0  0  0  0  0  0  0
  -48.2480  -65.6150   48.5800 H   0  0  0  0  0  0  0  0  0  0  0  0
  -48.8510  -64.7180   49.9770 H   0  0  0  0  0  0  0  0  0  0  0  0
  -47.6420  -66.0110   50.2410 H   0  0  0  0  0  0  0  0  0  0  0  0
  -45.9540  -61.9880   46.0480 H   0  0  0  0  0  0  0  0  0  0  0  0
  -44.5230  -61.3300   47.0110 H   0  0  0  0  0  0  0  0  0  0  0  0
  -46.1510  -60.6690   47.3270 H   0  0  0  0  0  0  0  0  0  0  0  0
  1  5  1  0  0  0  0
  2  3  2  0  0  0  0
  2  1  1  0  0  0  0
  3  4  1  0  0  0  0
  4 30  1  0  0  0  0
  4  5  2  0  0  0  0
  5  6  1  0  0  0  0
  6 29  1  0  0  0  0
  6  7  2  0  0  0  0
  7 12  1  0  0  0  0
  7  8  1  0  0  0  0
  8  9  1  0  0  0  0
  8 22  1  0  0  0  0
  8 32  1  1  0  0  0
  9 14  1  0  0  0  0
 10  9  1  0  0  0  0
 10 11  2  0  0  0  0
 12 10  1  0  0  0  0
 13 12  2  0  0  0  0
 14 33  1  0  0  0  0
 14 34  1  0  0  0  0
 15 16  1  0  0  0  0
 15 14  1  0  0  0  0
 16 37  1  0  0  0  0
 16 17  1  0  0  0  0
 17 18  1  0  0  0  0
 17 38  1  0  0  0  0
 18 40  1  0  0  0  0
 18 41  1  0  0  0  0
 19 18  1  0  0  0  0
 20 43  1  0  0  0  0
 20 19  1  0  0  0  0
 21 20  1  0  0  0  0
 21 16  1  0  0  0  0
 22 27  1  0  0  0  0
 23 22  2  0  0  0  0
 23 24  1  0  0  0  0
 24 25  2  0  0  0  0
 25 26  1  0  0  0  0
 25 28  1  0  0  0  0
 26 48  1  0  0  0  0
 27 49  1  0  0  0  0
 27 26  2  0  0  0  0
 30 51  1  0  0  0  0
 30 52  1  0  0  0  0
 31 55  1  0  0  0  0
 31  2  1  0  0  0  0
 35 15  1  0  0  0  0
 36 15  1  0  0  0  0
 39 17  1  0  0  0  0
 42 20  1  0  0  0  0
 44 21  1  0  0  0  0
 45 21  1  0  0  0  0
 46 23  1  0  0  0  0
 47 24  1  0  0  0  0
 50 30  1  0  0  0  0
 53 31  1  0  0  0  0
 54 31  1  0  0  0  0
M  END
>  <Pose>
1

>  <Score>
-5.61

$$$$
