
 OpenBabel03202209423D

 39 42  0  0  1  0  0  0  0  0999 V2000
  -44.3610  -63.5910   52.2030 S   0  0  0  0  0  0  0  0  0  0  0  0
  -44.1930  -64.8910   53.3140 C   0  0  0  0  0  0  0  0  0  0  0  0
  -45.2300  -65.7140   52.9660 C   0  0  0  0  0  0  0  0  0  0  0  0
  -46.0190  -65.3230   51.9540 C   0  0  0  0  0  0  0  0  0  0  0  0
  -45.7240  -64.1320   51.3470 C   0  0  0  0  0  0  0  0  0  0  0  0
  -46.6180  -63.7130   50.2160 C   0  0  0  0  0  0  0  0  0  0  0  0
  -46.6500  -64.8030   49.2430 N   0  0  0  0  0  4  0  0  0  0  0  0
  -47.0150  -66.0620   49.8150 C   0  0  0  0  0  0  0  0  0  0  0  0
  -47.2350  -65.9830   51.3210 C   0  0  0  0  0  0  0  0  0  0  0  0
  -45.2800  -64.9260   48.7440 C   0  0  0  0  0  0  0  0  0  0  0  0
  -45.3310  -66.9510   53.7890 C   0  0  0  0  0  0  0  0  0  0  0  0
  -46.2470  -67.7990   53.5710 O   0  0  0  0  0  0  0  0  0  0  0  0
  -44.3820  -67.1640   54.8220 N   0  0  0  0  0  0  0  0  0  0  0  0
  -43.0890  -66.5480   54.8790 C   0  0  2  0  0  0  0  0  0  0  0  0
  -43.2670  -65.1910   54.3860 N   0  0  0  0  0  0  0  0  0  0  0  0
  -42.0820  -67.2480   54.0460 C   0  0  0  0  0  0  0  0  0  0  0  0
  -41.3020  -68.2700   54.5500 C   0  0  0  0  0  0  0  0  0  0  0  0
  -40.3640  -68.9320   53.7910 C   0  0  0  0  0  0  0  0  0  0  0  0
  -40.1750  -68.5770   52.4710 C   0  0  0  0  0  0  0  0  0  0  0  0
  -40.9390  -67.5620   51.9480 C   0  0  0  0  0  0  0  0  0  0  0  0
  -41.8800  -66.9030   52.7160 C   0  0  0  0  0  0  0  0  0  0  0  0
  -40.6430  -67.1010   50.1060 B   0  0  0  0  0  0  0  0  0  0  0  0
  -39.2300  -69.2400   51.7010 O   0  0  0  0  0  0  0  0  0  0  0  0
  -39.3000  -70.3340   54.4940 B   0  0  0  0  0  0  0  0  0  0  0  0
  -47.6190  -63.4290   50.5600 H   0  0  0  0  0  0  0  0  0  0  0  0
  -46.1510  -62.8550   49.6830 H   0  0  0  0  0  0  0  0  0  0  0  0
  -47.2250  -64.5300   48.4200 H   0  0  0  0  0  0  0  0  0  0  0  0
  -46.2090  -66.8420   49.6830 H   0  0  0  0  0  0  0  0  0  0  0  0
  -47.9200  -66.5060   49.3700 H   0  0  0  0  0  0  0  0  0  0  0  0
  -47.4200  -66.9720   51.7320 H   0  0  0  0  0  0  0  0  0  0  0  0
  -48.0640  -65.2650   51.4800 H   0  0  0  0  0  0  0  0  0  0  0  0
  -44.7200  -63.9690   48.8450 H   0  0  0  0  0  0  0  0  0  0  0  0
  -44.7230  -65.6520   49.4060 H   0  0  0  0  0  0  0  0  0  0  0  0
  -45.2410  -65.3450   47.7350 H   0  0  0  0  0  0  0  0  0  0  0  0
  -44.6670  -67.8280   55.5970 H   0  0  0  0  0  0  0  0  0  0  0  0
  -42.7350  -66.5210   55.9210 H   0  0  0  0  0  0  0  0  0  0  0  0
  -42.7400  -64.3840   54.7780 H   0  0  0  0  0  0  0  0  0  0  0  0
  -41.4410  -68.5570   55.5810 H   0  0  0  0  0  0  0  0  0  0  0  0
  -42.4700  -66.1120   52.2940 H   0  0  0  0  0  0  0  0  0  0  0  0
  1  2  1  0  0  0  0
  2 15  1  0  0  0  0
  3  2  2  0  0  0  0
  3 11  1  0  0  0  0
  4  3  1  0  0  0  0
  5  4  2  0  0  0  0
  5  1  1  0  0  0  0
  6 25  1  0  0  0  0
  6  5  1  0  0  0  0
  7  8  1  0  0  0  0
  7  6  1  0  0  0  0
  8  9  1  0  0  0  0
  9 31  1  0  0  0  0
  9 30  1  0  0  0  0
  9  4  1  0  0  0  0
 10 32  1  0  0  0  0
 10  7  1  0  0  0  0
 10 33  1  0  0  0  0
 11 13  1  0  0  0  0
 12 11  2  0  0  0  0
 13 14  1  0  0  0  0
 13 35  1  0  0  0  0
 14 36  1  1  0  0  0
 15 37  1  0  0  0  0
 15 14  1  0  0  0  0
 16 17  1  0  0  0  0
 16 14  1  0  0  0  0
 17 38  1  0  0  0  0
 18 24  1  0  0  0  0
 18 17  2  0  0  0  0
 19 18  1  0  0  0  0
 20 19  2  0  0  0  0
 20 21  1  0  0  0  0
 21 16  2  0  0  0  0
 22 20  1  0  0  0  0
 23 19  1  0  0  0  0
 26  6  1  0  0  0  0
 27  7  1  0  0  0  0
 28  8  1  0  0  0  0
 29  8  1  0  0  0  0
 34 10  1  0  0  0  0
 39 21  1  0  0  0  0
M  END
>  <Pose>
1

>  <Score>
-6.58

$$$$
