
 OpenBabel03202209423D

 46 49  0  0  1  0  0  0  0  0999 V2000
  -43.6630  -64.0450   51.7070 S   0  0  0  0  0  0  0  0  0  0  0  0
  -45.0900  -64.3810   52.5810 C   0  0  0  0  0  0  0  0  0  0  0  0
  -44.8980  -65.6680   53.0000 C   0  0  0  0  0  0  0  0  0  0  0  0
  -43.7350  -66.2670   52.6390 C   0  0  0  0  0  0  0  0  0  0  0  0
  -42.8590  -65.5250   51.8850 C   0  0  0  0  0  0  0  0  0  0  0  0
  -41.5490  -66.0710   51.4240 C   0  0  0  0  0  0  0  0  0  0  0  0
  -40.9640  -67.0140   52.3130 N   0  0  0  0  0  4  0  0  0  0  0  0
  -41.8120  -67.5420   53.3270 C   0  0  0  0  0  0  0  0  0  0  0  0
  -43.2560  -67.6870   52.9630 C   0  0  0  0  0  0  0  0  0  0  0  0
  -40.2780  -68.0710   51.5800 C   0  0  0  0  0  0  0  0  0  0  0  0
  -46.0300  -66.2080   53.8140 C   0  0  0  0  0  0  0  0  0  0  0  0
  -45.9700  -67.4000   54.2610 O   0  0  0  0  0  0  0  0  0  0  0  0
  -47.1560  -65.3950   54.0790 N   0  0  0  0  0  0  0  0  0  0  0  0
  -47.5360  -64.3380   53.1680 C   0  0  1  0  0  0  0  0  0  0  0  0
  -46.2900  -63.6240   52.8950 N   0  0  0  0  0  0  0  0  0  0  0  0
  -48.0320  -64.9840   51.9240 C   0  0  0  0  0  0  0  0  0  0  0  0
  -47.5490  -64.6010   50.6910 C   0  0  0  0  0  0  0  0  0  0  0  0
  -47.9950  -65.1870   49.5260 C   0  0  0  0  0  0  0  0  0  0  0  0
  -48.9550  -66.1880   49.5900 C   0  0  0  0  0  0  0  0  0  0  0  0
  -49.4560  -66.5910   50.8090 C   0  0  0  0  0  0  0  0  0  0  0  0
  -48.9960  -65.9930   51.9400 C   0  0  0  0  0  0  0  0  0  0  0  0
  -50.4110  -67.5910   50.8190 O   0  0  0  0  0  0  0  0  0  0  0  0
  -50.5210  -68.6080   51.7640 C   0  0  0  0  0  0  0  0  0  0  0  0
  -50.2480  -69.9650   51.1530 C   0  0  0  0  0  0  0  0  0  0  0  0
  -49.4220  -66.7940   48.4260 O   0  0  0  0  0  0  0  0  0  0  0  0
  -47.3350  -64.6680   47.8150 B   0  0  0  0  0  0  0  0  0  0  0  0
  -41.7540  -66.5870   50.4530 H   0  0  0  0  0  0  0  0  0  0  0  0
  -40.8830  -65.2210   51.1840 H   0  0  0  0  0  0  0  0  0  0  0  0
  -40.1790  -66.5000   52.8210 H   0  0  0  0  0  0  0  0  0  0  0  0
  -41.7390  -66.9670   54.2730 H   0  0  0  0  0  0  0  0  0  0  0  0
  -41.4360  -68.5730   53.5790 H   0  0  0  0  0  0  0  0  0  0  0  0
  -43.4150  -68.3460   52.0940 H   0  0  0  0  0  0  0  0  0  0  0  0
  -43.7780  -68.0430   53.8670 H   0  0  0  0  0  0  0  0  0  0  0  0
  -39.3190  -68.3520   52.0530 H   0  0  0  0  0  0  0  0  0  0  0  0
  -40.0720  -67.6990   50.5440 H   0  0  0  0  0  0  0  0  0  0  0  0
  -40.8910  -68.9910   51.5180 H   0  0  0  0  0  0  0  0  0  0  0  0
  -47.7230  -65.5560   54.9410 H   0  0  0  0  0  0  0  0  0  0  0  0
  -48.2680  -63.6540   53.6080 H   0  0  0  0  0  0  0  0  0  0  0  0
  -46.1880  -62.5960   52.9080 H   0  0  0  0  0  0  0  0  0  0  0  0
  -46.8070  -63.8310   50.6150 H   0  0  0  0  0  0  0  0  0  0  0  0
  -49.3660  -66.2830   52.8990 H   0  0  0  0  0  0  0  0  0  0  0  0
  -49.8150  -68.3900   52.5930 H   0  0  0  0  0  0  0  0  0  0  0  0
  -51.5400  -68.6330   52.2030 H   0  0  0  0  0  0  0  0  0  0  0  0
  -50.0050  -69.8100   50.0820 H   0  0  0  0  0  0  0  0  0  0  0  0
  -49.4500  -70.5040   51.7110 H   0  0  0  0  0  0  0  0  0  0  0  0
  -51.1830  -70.5890   51.1450 H   0  0  0  0  0  0  0  0  0  0  0  0
  1  5  1  0  0  0  0
  1  2  1  0  0  0  0
  2 15  1  0  0  0  0
  2  3  2  0  0  0  0
  3 11  1  0  0  0  0
  4  9  1  0  0  0  0
  4  3  1  0  0  0  0
  5  4  2  0  0  0  0
  6  5  1  0  0  0  0
  6  7  1  0  0  0  0
  7 29  1  0  0  0  0
  7  8  1  0  0  0  0
  8 31  1  0  0  0  0
  8 30  1  0  0  0  0
  9  8  1  0  0  0  0
  9 33  1  0  0  0  0
 10 34  1  0  0  0  0
 10  7  1  0  0  0  0
 11 13  1  0  0  0  0
 11 12  2  0  0  0  0
 13 37  1  0  0  0  0
 14 38  1  1  0  0  0
 14 13  1  0  0  0  0
 15 39  1  0  0  0  0
 15 14  1  0  0  0  0
 16 21  1  0  0  0  0
 16 14  1  0  0  0  0
 17 16  2  0  0  0  0
 18 19  2  0  0  0  0
 18 17  1  0  0  0  0
 19 20  1  0  0  0  0
 20 22  1  0  0  0  0
 20 21  2  0  0  0  0
 21 41  1  0  0  0  0
 22 23  1  0  0  0  0
 23 43  1  0  0  0  0
 23 42  1  0  0  0  0
 24 45  1  0  0  0  0
 24 23  1  0  0  0  0
 25 19  1  0  0  0  0
 26 18  1  0  0  0  0
 27  6  1  0  0  0  0
 28  6  1  0  0  0  0
 32  9  1  0  0  0  0
 35 10  1  0  0  0  0
 36 10  1  0  0  0  0
 40 17  1  0  0  0  0
 44 24  1  0  0  0  0
 46 24  1  0  0  0  0
M  END
>  <Pose>
1

>  <Score>
-5.51

$$$$
