
 OpenBabel03202209423D

 40 43  0  0  1  0  0  0  0  0999 V2000
  -39.7940  -69.6420   53.2610 S   0  0  0  0  0  0  0  0  0  0  0  0
  -40.8970  -69.4030   54.6780 C   0  0  2  0  0  0  0  0  0  0  0  0
  -42.0240  -68.6820   53.9900 C   0  0  0  0  0  0  0  0  0  0  0  0
  -41.5600  -67.8470   52.9230 N   0  0  0  0  0  0  0  0  0  0  0  0
  -40.3650  -68.1780   52.4070 C   0  0  2  0  0  0  0  0  0  0  0  0
  -40.0440  -67.3060   51.4440 N   0  0  0  0  0  0  0  0  0  0  0  0
  -41.0410  -66.4000   51.3330 C   0  0  0  0  0  0  0  0  0  0  0  0
  -42.0050  -66.7280   52.2570 C   0  0  0  0  0  0  0  0  0  0  0  0
  -43.2290  -65.9890   52.4540 C   0  0  0  0  0  0  0  0  0  0  0  0
  -43.4020  -64.7990   51.7260 C   0  0  0  0  0  0  0  0  0  0  0  0
  -44.5570  -64.0690   51.8350 C   0  0  0  0  0  0  0  0  0  0  0  0
  -45.6020  -64.4410   52.6440 C   0  0  0  0  0  0  0  0  0  0  0  0
  -45.4580  -65.6010   53.3670 C   0  0  0  0  0  0  0  0  0  0  0  0
  -44.2790  -66.3490   53.2570 C   0  0  0  0  0  0  0  0  0  0  0  0
  -46.7610  -63.6320   52.7020 N   0  0  0  0  0  0  0  0  0  0  0  0
  -47.1450  -63.0040   51.7080 O   0  0  0  0  0  0  0  0  0  0  0  0
  -47.4570  -63.5470   53.8680 O   0  0  0  0  0  0  0  0  0  0  0  0
  -38.8590  -67.3100   50.6560 C   0  0  0  0  0  0  0  0  0  0  0  0
  -37.8460  -68.2160   50.8660 C   0  0  0  0  0  0  0  0  0  0  0  0
  -36.6890  -68.2410   50.1170 C   0  0  0  0  0  0  0  0  0  0  0  0
  -36.5160  -67.3240   49.1040 C   0  0  0  0  0  0  0  0  0  0  0  0
  -37.5150  -66.3960   48.8630 C   0  0  0  0  0  0  0  0  0  0  0  0
  -38.6630  -66.3930   49.6270 C   0  0  0  0  0  0  0  0  0  0  0  0
  -34.9240  -67.3280   48.0430 B   0  0  0  0  0  0  0  0  0  0  0  0
  -40.2950  -68.4610   55.6910 C   0  0  0  0  0  0  0  0  0  0  0  0
  -41.2300  -70.3530   55.1200 H   0  0  0  0  0  0  0  0  0  0  0  0
  -42.7200  -69.4630   53.6050 H   0  0  0  0  0  0  0  0  0  0  0  0
  -42.5510  -68.0540   54.7600 H   0  0  0  0  0  0  0  0  0  0  0  0
  -41.0580  -65.5570   50.6180 H   0  0  0  0  0  0  0  0  0  0  0  0
  -42.6050  -64.4550   51.0720 H   0  0  0  0  0  0  0  0  0  0  0  0
  -44.6410  -63.1540   51.2480 H   0  0  0  0  0  0  0  0  0  0  0  0
  -46.2540  -65.9380   54.0210 H   0  0  0  0  0  0  0  0  0  0  0  0
  -44.2490  -67.2480   53.8240 H   0  0  0  0  0  0  0  0  0  0  0  0
  -37.9820  -68.9480   51.6730 H   0  0  0  0  0  0  0  0  0  0  0  0
  -35.9450  -68.9880   50.3510 H   0  0  0  0  0  0  0  0  0  0  0  0
  -37.3930  -65.6630   48.0630 H   0  0  0  0  0  0  0  0  0  0  0  0
  -39.4740  -65.6850   49.4760 H   0  0  0  0  0  0  0  0  0  0  0  0
  -39.4970  -68.9250   56.2750 H   0  0  0  0  0  0  0  0  0  0  0  0
  -39.8940  -67.5940   55.1190 H   0  0  0  0  0  0  0  0  0  0  0  0
  -41.0980  -68.1200   56.3710 H   0  0  0  0  0  0  0  0  0  0  0  0
  1  2  1  0  0  0  0
  2 26  1  1  0  0  0
  2 25  1  0  0  0  0
  3  2  1  0  0  0  0
  3 28  1  0  0  0  0
  4  3  1  0  0  0  0
  5  4  1  0  0  0  0
  5  1  1  6  0  0  0
  6  5  1  0  0  0  0
  7  6  1  0  0  0  0
  7  8  2  0  0  0  0
  8  9  1  0  0  0  0
  8  4  1  0  0  0  0
  9 14  1  0  0  0  0
 10 11  1  0  0  0  0
 10  9  2  0  0  0  0
 11 12  2  0  0  0  0
 12 15  1  0  0  0  0
 12 13  1  0  0  0  0
 13 32  1  0  0  0  0
 14 13  2  0  0  0  0
 14 33  1  0  0  0  0
 15 17  2  0  0  0  0
 16 15  2  0  0  0  0
 18 19  1  0  0  0  0
 18  6  1  0  0  0  0
 19 34  1  0  0  0  0
 20 35  1  0  0  0  0
 20 19  2  0  0  0  0
 21 20  1  0  0  0  0
 22 21  2  0  0  0  0
 22 23  1  0  0  0  0
 23 18  2  0  0  0  0
 24 21  1  0  0  0  0
 25 38  1  0  0  0  0
 25 40  1  0  0  0  0
 27  3  1  0  0  0  0
 29  7  1  0  0  0  0
 30 10  1  0  0  0  0
 31 11  1  0  0  0  0
 36 22  1  0  0  0  0
 37 23  1  0  0  0  0
 39 25  1  0  0  0  0
M  END
>  <Pose>
1

>  <Score>
-5.56

$$$$
