
 OpenBabel03202209423D

 45 48  0  0  1  0  0  0  0  0999 V2000
  -49.7430  -64.4590   53.0780 S   0  0  0  0  0  0  0  0  0  0  0  0
  -51.0990  -63.6350   54.0000 C   0  0  0  0  0  0  0  0  0  0  0  0
  -50.8240  -63.9780   55.4650 C   0  0  0  0  0  0  0  0  0  0  0  0
  -51.0320  -65.4800   55.6360 C   0  0  0  0  0  0  0  0  0  0  0  0
  -49.8040  -66.1280   55.2460 N   0  0  1  0  0  0  0  0  0  0  0  0
  -49.1710  -65.7620   54.1620 C   0  0  2  0  0  0  0  0  0  0  0  0
  -47.9780  -66.5850   54.0620 N   0  0  0  0  0  0  0  0  0  0  0  0
  -48.4630  -67.8510   54.5670 C   0  0  2  0  0  0  0  0  0  0  0  0
  -49.0360  -67.2040   55.8820 C   0  0  0  0  0  0  0  0  0  0  0  0
  -47.5150  -68.7860   54.8410 O   0  0  0  0  0  0  0  0  0  0  0  0
  -49.5950  -68.3060   53.7530 C   0  0  0  0  0  0  0  0  0  0  0  0
  -49.6420  -68.1650   52.3770 C   0  0  0  0  0  0  0  0  0  0  0  0
  -50.7750  -68.5950   51.6700 C   0  0  0  0  0  0  0  0  0  0  0  0
  -51.8380  -69.1470   52.2800 C   0  0  0  0  0  0  0  0  0  0  0  0
  -51.8230  -69.3090   53.6810 C   0  0  0  0  0  0  0  0  0  0  0  0
  -50.6870  -68.8720   54.3400 C   0  0  0  0  0  0  0  0  0  0  0  0
  -53.0030  -69.5930   51.6030 O   0  0  0  0  0  0  0  0  0  0  0  0
  -53.4360  -70.9300   51.7330 C   0  0  0  0  0  0  0  0  0  0  0  0
  -46.6940  -66.1730   53.6520 C   0  0  0  0  0  0  0  0  0  0  0  0
  -46.6030  -65.3550   52.4990 C   0  0  0  0  0  0  0  0  0  0  0  0
  -45.3830  -64.9450   51.9890 C   0  0  0  0  0  0  0  0  0  0  0  0
  -44.2090  -65.3190   52.5830 C   0  0  0  0  0  0  0  0  0  0  0  0
  -44.2640  -66.1150   53.7080 C   0  0  0  0  0  0  0  0  0  0  0  0
  -45.5090  -66.5260   54.2210 C   0  0  0  0  0  0  0  0  0  0  0  0
  -42.5010  -64.7950   51.9050 B   0  0  0  0  0  0  0  0  0  0  0  0
  -50.9620  -62.5510   53.8420 H   0  0  0  0  0  0  0  0  0  0  0  0
  -52.0780  -64.0170   53.6810 H   0  0  0  0  0  0  0  0  0  0  0  0
  -51.4270  -63.3740   56.1440 H   0  0  0  0  0  0  0  0  0  0  0  0
  -49.7350  -63.7300   55.6260 H   0  0  0  0  0  0  0  0  0  0  0  0
  -51.2510  -65.6890   56.7080 H   0  0  0  0  0  0  0  0  0  0  0  0
  -51.8920  -65.8650   55.0750 H   0  0  0  0  0  0  0  0  0  0  0  0
  -49.6030  -67.8910   56.4670 H   0  0  0  0  0  0  0  0  0  0  0  0
  -48.1390  -66.7540   56.3550 H   0  0  0  0  0  0  0  0  0  0  0  0
  -47.1240  -68.5860   55.7470 H   0  0  0  0  0  0  0  0  0  0  0  0
  -48.8180  -67.7270   51.8580 H   0  0  0  0  0  0  0  0  0  0  0  0
  -50.7640  -68.4630   50.5950 H   0  0  0  0  0  0  0  0  0  0  0  0
  -52.6600  -69.7410   54.1800 H   0  0  0  0  0  0  0  0  0  0  0  0
  -50.7100  -69.0190   55.4130 H   0  0  0  0  0  0  0  0  0  0  0  0
  -54.4940  -70.9760   51.4240 H   0  0  0  0  0  0  0  0  0  0  0  0
  -53.3950  -71.3160   52.7700 H   0  0  0  0  0  0  0  0  0  0  0  0
  -52.8250  -71.6280   51.0910 H   0  0  0  0  0  0  0  0  0  0  0  0
  -47.4990  -65.0460   52.0070 H   0  0  0  0  0  0  0  0  0  0  0  0
  -45.3300  -64.3170   51.1000 H   0  0  0  0  0  0  0  0  0  0  0  0
  -43.3520  -66.4240   54.1840 H   0  0  0  0  0  0  0  0  0  0  0  0
  -45.5230  -67.1610   55.1070 H   0  0  0  0  0  0  0  0  0  0  0  0
  1  2  1  0  0  0  0
  2  3  1  0  0  0  0
  3 29  1  0  0  0  0
  3  4  1  0  0  0  0
  3 28  1  0  0  0  0
  4 30  1  0  0  0  0
  5  4  1  1  0  0  0
  5  9  1  0  0  0  0
  6  1  1  1  0  0  0
  6  5  1  0  0  0  0
  7  6  1  0  0  0  0
  7  8  1  0  0  0  0
  8 10  1  1  0  0  0
  8  9  1  0  0  0  0
  9 33  1  0  0  0  0
  9 32  1  0  0  0  0
 10 34  1  0  0  0  0
 11 16  1  0  0  0  0
 11  8  1  0  0  0  0
 12 11  2  0  0  0  0
 13 14  2  0  0  0  0
 13 12  1  0  0  0  0
 14 15  1  0  0  0  0
 15 37  1  0  0  0  0
 15 16  2  0  0  0  0
 16 38  1  0  0  0  0
 17 18  1  0  0  0  0
 17 14  1  0  0  0  0
 18 40  1  0  0  0  0
 19  7  1  0  0  0  0
 19 24  1  0  0  0  0
 20 19  2  0  0  0  0
 21 20  1  0  0  0  0
 21 22  2  0  0  0  0
 22 23  1  0  0  0  0
 23 44  1  0  0  0  0
 23 24  2  0  0  0  0
 24 45  1  0  0  0  0
 25 22  1  0  0  0  0
 26  2  1  0  0  0  0
 27  2  1  0  0  0  0
 31  4  1  0  0  0  0
 35 12  1  0  0  0  0
 36 13  1  0  0  0  0
 39 18  1  0  0  0  0
 41 18  1  0  0  0  0
 42 20  1  0  0  0  0
 43 21  1  0  0  0  0
M  END
>  <Pose>
1

>  <Score>
-4.20

$$$$
