
 OpenBabel03202209423D

 43 46  0  0  1  0  0  0  0  0999 V2000
  -39.7570  -64.1620   50.2080 S   0  0  0  0  0  0  0  0  0  0  0  0
  -40.6180  -63.2020   48.8950 C   0  0  0  0  0  0  0  0  0  0  0  0
  -40.4870  -63.9410   47.5750 C   0  0  0  0  0  0  0  0  0  0  0  0
  -39.0740  -64.4180   47.3580 C   0  0  0  0  0  0  0  0  0  0  0  0
  -38.8540  -65.6310   48.0800 N   0  0  2  0  0  0  0  0  0  0  0  0
  -38.2050  -66.9050   47.8340 C   0  0  1  0  0  0  0  0  0  0  0  0
  -38.9810  -67.8610   48.7230 C   0  0  0  0  0  0  0  0  0  0  0  0
  -39.4370  -66.9540   49.7960 N   0  0  0  0  0  0  0  0  0  0  0  0
  -39.3650  -65.7410   49.4180 C   0  0  1  0  0  0  0  0  0  0  0  0
  -39.9100  -67.3940   51.0660 C   0  0  0  0  0  0  0  0  0  0  0  0
  -40.9520  -66.8630   51.7670 C   0  0  0  0  0  0  0  0  0  0  0  0
  -41.3720  -67.3550   52.9950 C   0  0  0  0  0  0  0  0  0  0  0  0
  -40.7190  -68.4330   53.5570 C   0  0  0  0  0  0  0  0  0  0  0  0
  -39.6510  -69.0000   52.8710 C   0  0  0  0  0  0  0  0  0  0  0  0
  -39.2490  -68.4900   51.6430 C   0  0  0  0  0  0  0  0  0  0  0  0
  -41.2180  -69.1800   55.2470 B   0  0  0  0  0  0  0  0  0  0  0  0
  -38.2510  -67.2730   46.5040 O   0  0  0  0  0  0  0  0  0  0  0  0
  -36.7960  -66.9010   48.2950 C   0  0  0  0  0  0  0  0  0  0  0  0
  -36.4050  -67.7450   49.3150 C   0  0  0  0  0  0  0  0  0  0  0  0
  -35.0700  -67.7080   49.7160 C   0  0  0  0  0  0  0  0  0  0  0  0
  -34.1780  -66.8670   49.1220 C   0  0  0  0  0  0  0  0  0  0  0  0
  -34.5550  -66.0170   48.0990 C   0  0  0  0  0  0  0  0  0  0  0  0
  -35.8960  -66.0600   47.7020 C   0  0  0  0  0  0  0  0  0  0  0  0
  -34.6580  -68.5720   50.7620 N   0  0  0  0  0  0  0  0  0  0  0  0
  -35.3080  -69.5910   51.0670 O   0  0  0  0  0  0  0  0  0  0  0  0
  -33.5260  -68.3210   51.4840 O   0  0  0  0  0  0  0  0  0  0  0  0
  -40.2280  -62.1850   48.8470 H   0  0  0  0  0  0  0  0  0  0  0  0
  -41.6940  -63.1680   49.1380 H   0  0  0  0  0  0  0  0  0  0  0  0
  -40.7360  -63.2310   46.7530 H   0  0  0  0  0  0  0  0  0  0  0  0
  -41.1660  -64.7950   47.5060 H   0  0  0  0  0  0  0  0  0  0  0  0
  -38.8610  -64.4890   46.2790 H   0  0  0  0  0  0  0  0  0  0  0  0
  -38.3760  -63.6420   47.7950 H   0  0  0  0  0  0  0  0  0  0  0  0
  -39.8310  -68.3180   48.2080 H   0  0  0  0  0  0  0  0  0  0  0  0
  -38.3360  -68.6430   49.1820 H   0  0  0  0  0  0  0  0  0  0  0  0
  -41.4870  -66.0180   51.3710 H   0  0  0  0  0  0  0  0  0  0  0  0
  -42.2030  -66.9250   53.5400 H   0  0  0  0  0  0  0  0  0  0  0  0
  -39.1540  -69.8490   53.3290 H   0  0  0  0  0  0  0  0  0  0  0  0
  -38.4110  -68.9510   51.1270 H   0  0  0  0  0  0  0  0  0  0  0  0
  -37.7240  -66.7360   45.8950 H   0  0  0  0  0  0  0  0  0  0  0  0
  -37.1110  -68.4080   49.7830 H   0  0  0  0  0  0  0  0  0  0  0  0
  -33.1420  -66.8370   49.4320 H   0  0  0  0  0  0  0  0  0  0  0  0
  -33.8410  -65.3720   47.6450 H   0  0  0  0  0  0  0  0  0  0  0  0
  -36.1700  -65.3880   46.9030 H   0  0  0  0  0  0  0  0  0  0  0  0
  2 28  1  0  0  0  0
  2  1  1  0  0  0  0
  3  2  1  0  0  0  0
  4  3  1  0  0  0  0
  4 32  1  0  0  0  0
  5  4  1  6  0  0  0
  5  9  1  0  0  0  0
  6 17  1  6  0  0  0
  6  5  1  0  0  0  0
  6 18  1  0  0  0  0
  6  7  1  0  0  0  0
  7 34  1  0  0  0  0
  7  8  1  0  0  0  0
  8 10  1  0  0  0  0
  9  8  1  0  0  0  0
  9  1  1  1  0  0  0
 10 15  2  0  0  0  0
 10 11  1  0  0  0  0
 11 12  2  0  0  0  0
 12 36  1  0  0  0  0
 12 13  1  0  0  0  0
 13 16  1  0  0  0  0
 14 37  1  0  0  0  0
 14 13  2  0  0  0  0
 15 14  1  0  0  0  0
 18 19  1  0  0  0  0
 19 20  2  0  0  0  0
 19 40  1  0  0  0  0
 20 24  1  0  0  0  0
 21 41  1  0  0  0  0
 21 20  1  0  0  0  0
 22 21  2  0  0  0  0
 23 22  1  0  0  0  0
 23 18  2  0  0  0  0
 24 25  2  0  0  0  0
 24 26  2  0  0  0  0
 27  2  1  0  0  0  0
 29  3  1  0  0  0  0
 30  3  1  0  0  0  0
 31  4  1  0  0  0  0
 33  7  1  0  0  0  0
 35 11  1  0  0  0  0
 38 15  1  0  0  0  0
 39 17  1  0  0  0  0
 42 22  1  0  0  0  0
 43 23  1  0  0  0  0
M  END
>  <Pose>
1

>  <Score>
-5.92

$$$$
