
 OpenBabel03202209423D

 41 44  0  0  1  0  0  0  0  0999 V2000
  -41.5310  -66.9900   50.0240 S   0  0  0  0  0  0  0  0  0  0  0  0
  -40.5490  -65.7810   49.0290 C   0  0  0  0  0  0  0  0  0  0  0  0
  -40.8470  -64.3730   49.4750 C   0  0  0  0  0  0  0  0  0  0  0  0
  -42.2360  -64.1950   50.0490 C   0  0  0  0  0  0  0  0  0  0  0  0
  -42.4170  -64.7780   51.3200 N   0  0  1  0  0  0  0  0  0  0  0  0
  -43.1010  -64.5290   52.6020 C   0  0  1  0  0  0  0  0  0  0  0  0
  -42.0390  -65.0970   53.5130 C   0  0  0  0  0  0  0  0  0  0  0  0
  -41.6550  -66.3020   52.7920 N   0  0  0  0  0  0  0  0  0  0  0  0
  -41.7960  -66.0680   51.5740 C   0  0  1  0  0  0  0  0  0  0  0  0
  -41.2550  -67.5490   53.4000 C   0  0  0  0  0  0  0  0  0  0  0  0
  -41.8710  -68.1390   54.4580 C   0  0  0  0  0  0  0  0  0  0  0  0
  -41.4250  -69.3180   55.0420 C   0  0  0  0  0  0  0  0  0  0  0  0
  -40.3080  -69.9370   54.5460 C   0  0  0  0  0  0  0  0  0  0  0  0
  -39.6790  -69.3400   53.4700 C   0  0  0  0  0  0  0  0  0  0  0  0
  -40.1200  -68.1800   52.8970 C   0  0  0  0  0  0  0  0  0  0  0  0
  -39.6150  -71.5650   55.2910 B   0  0  0  0  0  0  0  0  0  0  0  0
  -43.2970  -63.2070   52.8580 O   0  0  0  0  0  0  0  0  0  0  0  0
  -44.3460  -65.3590   52.7060 C   0  0  0  0  0  0  0  0  0  0  0  0
  -45.3610  -65.3100   51.7690 C   0  0  0  0  0  0  0  0  0  0  0  0
  -46.4790  -66.1170   51.9380 C   0  0  0  0  0  0  0  0  0  0  0  0
  -46.6250  -66.9830   53.0140 C   0  0  0  0  0  0  0  0  0  0  0  0
  -45.6230  -67.0380   53.9450 C   0  0  0  0  0  0  0  0  0  0  0  0
  -44.5020  -66.2260   53.7800 C   0  0  0  0  0  0  0  0  0  0  0  0
  -39.4830  -65.9600   49.3530 H   0  0  0  0  0  0  0  0  0  0  0  0
  -40.6860  -65.9780   47.9590 H   0  0  0  0  0  0  0  0  0  0  0  0
  -40.7820  -63.7200   48.5540 H   0  0  0  0  0  0  0  0  0  0  0  0
  -40.1320  -64.0150   50.2460 H   0  0  0  0  0  0  0  0  0  0  0  0
  -42.5710  -63.1410   49.9580 H   0  0  0  0  0  0  0  0  0  0  0  0
  -42.8980  -64.7790   49.3220 H   0  0  0  0  0  0  0  0  0  0  0  0
  -42.3130  -65.2230   54.5370 H   0  0  0  0  0  0  0  0  0  0  0  0
  -41.1570  -64.3870   53.4240 H   0  0  0  0  0  0  0  0  0  0  0  0
  -42.7720  -67.6850   54.8960 H   0  0  0  0  0  0  0  0  0  0  0  0
  -41.9530  -69.7480   55.8850 H   0  0  0  0  0  0  0  0  0  0  0  0
  -38.7860  -69.8390   53.0820 H   0  0  0  0  0  0  0  0  0  0  0  0
  -39.6040  -67.7300   52.0390 H   0  0  0  0  0  0  0  0  0  0  0  0
  -44.2350  -62.9250   52.9990 H   0  0  0  0  0  0  0  0  0  0  0  0
  -45.2640  -64.6340   50.9260 H   0  0  0  0  0  0  0  0  0  0  0  0
  -47.2490  -66.0520   51.1910 H   0  0  0  0  0  0  0  0  0  0  0  0
  -47.5080  -67.6020   53.1160 H   0  0  0  0  0  0  0  0  0  0  0  0
  -45.6850  -67.7010   54.7920 H   0  0  0  0  0  0  0  0  0  0  0  0
  -43.7110  -66.2620   54.5150 H   0  0  0  0  0  0  0  0  0  0  0  0
  2 24  1  0  0  0  0
  2  3  1  0  0  0  0
  2  1  1  0  0  0  0
  3  4  1  0  0  0  0
  3 27  1  0  0  0  0
  5  4  1  6  0  0  0
  5  9  1  0  0  0  0
  5  6  1  0  0  0  0
  6 18  1  0  0  0  0
  6 17  1  1  0  0  0
  6  7  1  0  0  0  0
  7 30  1  0  0  0  0
  8 10  1  0  0  0  0
  8  7  1  0  0  0  0
  9  1  1  1  0  0  0
  9  8  1  0  0  0  0
 10 11  1  0  0  0  0
 11 32  1  0  0  0  0
 11 12  2  0  0  0  0
 12 33  1  0  0  0  0
 13 12  1  0  0  0  0
 13 16  1  0  0  0  0
 14 13  2  0  0  0  0
 15 10  2  0  0  0  0
 15 14  1  0  0  0  0
 17 36  1  0  0  0  0
 18 23  1  0  0  0  0
 19 20  1  0  0  0  0
 19 18  2  0  0  0  0
 20 21  2  0  0  0  0
 21 39  1  0  0  0  0
 21 22  1  0  0  0  0
 22 40  1  0  0  0  0
 23 22  2  0  0  0  0
 23 41  1  0  0  0  0
 25  2  1  0  0  0  0
 26  3  1  0  0  0  0
 28  4  1  0  0  0  0
 29  4  1  0  0  0  0
 31  7  1  0  0  0  0
 34 14  1  0  0  0  0
 35 15  1  0  0  0  0
 37 19  1  0  0  0  0
 38 20  1  0  0  0  0
M  END
>  <Pose>
1

>  <Score>
-4.32

$$$$
