
 OpenBabel03202209423D

 45 48  0  0  1  0  0  0  0  0999 V2000
  -48.6330  -63.6500   53.4960 S   0  0  0  0  0  0  0  0  0  0  0  0
  -50.4620  -63.6970   53.3070 C   0  0  0  0  0  0  0  0  0  0  0  0
  -50.7420  -63.0380   51.9640 C   0  0  0  0  0  0  0  0  0  0  0  0
  -50.2790  -63.8810   50.8180 C   0  0  0  0  0  0  0  0  0  0  0  0
  -48.8660  -64.0920   50.7590 N   0  0  2  0  0  0  0  0  0  0  0  0
  -47.8540  -64.1290   49.6980 C   0  0  1  0  0  0  0  0  0  0  0  0
  -47.0700  -65.3410   50.2350 C   0  0  0  0  0  0  0  0  0  0  0  0
  -47.0270  -65.0490   51.6560 N   0  0  0  0  0  0  0  0  0  0  0  0
  -48.0530  -64.3530   51.9350 C   0  0  1  0  0  0  0  0  0  0  0  0
  -45.9610  -65.5140   52.5150 C   0  0  0  0  0  0  0  0  0  0  0  0
  -46.1060  -66.7110   53.2100 C   0  0  0  0  0  0  0  0  0  0  0  0
  -45.1090  -67.1790   54.0390 C   0  0  0  0  0  0  0  0  0  0  0  0
  -43.9240  -66.5010   54.2290 C   0  0  0  0  0  0  0  0  0  0  0  0
  -43.7740  -65.3180   53.5470 C   0  0  0  0  0  0  0  0  0  0  0  0
  -44.7920  -64.8440   52.7040 C   0  0  0  0  0  0  0  0  0  0  0  0
  -42.9400  -67.0060   55.0720 O   0  0  0  0  0  0  0  0  0  0  0  0
  -42.0170  -68.0030   54.7390 C   0  0  0  0  0  0  0  0  0  0  0  0
  -48.4510  -64.4150   48.4930 O   0  0  0  0  0  0  0  0  0  0  0  0
  -46.9890  -62.9360   49.6910 C   0  0  0  0  0  0  0  0  0  0  0  0
  -45.6320  -62.9280   49.9290 C   0  0  0  0  0  0  0  0  0  0  0  0
  -44.9050  -61.7500   49.8890 C   0  0  0  0  0  0  0  0  0  0  0  0
  -45.5270  -60.5670   49.6110 C   0  0  0  0  0  0  0  0  0  0  0  0
  -46.8840  -60.5570   49.3710 C   0  0  0  0  0  0  0  0  0  0  0  0
  -47.5920  -61.7310   49.4130 C   0  0  0  0  0  0  0  0  0  0  0  0
  -44.5770  -58.8980   49.5420 B   0  0  0  0  0  0  0  0  0  0  0  0
  -50.9010  -63.1330   54.1260 H   0  0  0  0  0  0  0  0  0  0  0  0
  -50.7580  -64.7720   53.2900 H   0  0  0  0  0  0  0  0  0  0  0  0
  -50.2290  -62.0500   51.9620 H   0  0  0  0  0  0  0  0  0  0  0  0
  -51.8170  -62.8280   51.8340 H   0  0  0  0  0  0  0  0  0  0  0  0
  -50.8060  -64.8570   50.8930 H   0  0  0  0  0  0  0  0  0  0  0  0
  -50.5920  -63.3560   49.8830 H   0  0  0  0  0  0  0  0  0  0  0  0
  -47.7680  -66.2000   50.1050 H   0  0  0  0  0  0  0  0  0  0  0  0
  -46.1250  -65.4570   49.7320 H   0  0  0  0  0  0  0  0  0  0  0  0
  -47.0090  -67.2830   53.1030 H   0  0  0  0  0  0  0  0  0  0  0  0
  -45.2100  -68.1200   54.5920 H   0  0  0  0  0  0  0  0  0  0  0  0
  -42.8780  -64.7340   53.6500 H   0  0  0  0  0  0  0  0  0  0  0  0
  -44.6350  -63.9020   52.1900 H   0  0  0  0  0  0  0  0  0  0  0  0
  -41.8550  -68.6980   55.6130 H   0  0  0  0  0  0  0  0  0  0  0  0
  -42.2920  -68.6420   53.8940 H   0  0  0  0  0  0  0  0  0  0  0  0
  -41.0140  -67.5150   54.5910 H   0  0  0  0  0  0  0  0  0  0  0  0
  -48.2290  -65.3150   48.1560 H   0  0  0  0  0  0  0  0  0  0  0  0
  -45.1660  -63.8630   50.1450 H   0  0  0  0  0  0  0  0  0  0  0  0
  -43.8380  -61.7610   50.0750 H   0  0  0  0  0  0  0  0  0  0  0  0
  -47.3870  -59.6210   49.1490 H   0  0  0  0  0  0  0  0  0  0  0  0
  -48.6650  -61.6790   49.2150 H   0  0  0  0  0  0  0  0  0  0  0  0
  2  1  1  0  0  0  0
  2 26  1  0  0  0  0
  3  2  1  0  0  0  0
  4 30  1  0  0  0  0
  4  3  1  0  0  0  0
  5  4  1  6  0  0  0
  5  9  1  0  0  0  0
  6 18  1  6  0  0  0
  6  7  1  0  0  0  0
  6  5  1  0  0  0  0
  7  8  1  0  0  0  0
  8  9  1  0  0  0  0
  8 10  1  0  0  0  0
  9  1  1  6  0  0  0
 10 15  2  0  0  0  0
 10 11  1  0  0  0  0
 11 12  2  0  0  0  0
 12 13  1  0  0  0  0
 12 35  1  0  0  0  0
 13 16  1  0  0  0  0
 14 36  1  0  0  0  0
 14 13  2  0  0  0  0
 15 14  1  0  0  0  0
 17 16  1  0  0  0  0
 17 38  1  0  0  0  0
 19  6  1  0  0  0  0
 19 20  1  0  0  0  0
 20 42  1  0  0  0  0
 21 20  2  0  0  0  0
 21 43  1  0  0  0  0
 22 21  1  0  0  0  0
 23 24  1  0  0  0  0
 23 22  2  0  0  0  0
 24 19  2  0  0  0  0
 25 22  1  0  0  0  0
 27  2  1  0  0  0  0
 28  3  1  0  0  0  0
 29  3  1  0  0  0  0
 31  4  1  0  0  0  0
 32  7  1  0  0  0  0
 33  7  1  0  0  0  0
 34 11  1  0  0  0  0
 37 15  1  0  0  0  0
 39 17  1  0  0  0  0
 40 17  1  0  0  0  0
 41 18  1  0  0  0  0
 44 23  1  0  0  0  0
 45 24  1  0  0  0  0
M  END
>  <Pose>
1

>  <Score>
-4.02

$$$$
