
 OpenBabel03202209423D

 41 44  0  0  1  0  0  0  0  0999 V2000
  -40.5200  -67.9280   52.2640 S   0  0  0  0  0  0  0  0  0  0  0  0
  -40.1290  -69.0220   53.6580 C   0  0  0  0  0  0  0  0  0  0  0  0
  -40.6500  -68.3150   54.9130 C   0  0  0  0  0  0  0  0  0  0  0  0
  -42.1820  -68.2450   54.8120 C   0  0  0  0  0  0  0  0  0  0  0  0
  -42.5210  -67.0690   54.0010 N   0  0  1  0  0  0  0  0  0  0  0  0
  -43.4980  -66.0650   54.1190 C   0  0  2  0  0  0  0  0  0  0  0  0
  -43.0560  -64.9770   53.1460 C   0  0  0  0  0  0  0  0  0  0  0  0
  -42.0050  -65.5860   52.3910 N   0  0  0  0  0  0  0  0  0  0  0  0
  -41.7500  -66.7410   52.8540 C   0  0  1  0  0  0  0  0  0  0  0  0
  -41.3460  -64.9050   51.3100 C   0  0  0  0  0  0  0  0  0  0  0  0
  -40.0660  -64.4850   51.4770 C   0  0  0  0  0  0  0  0  0  0  0  0
  -39.4410  -63.8560   50.4050 C   0  0  0  0  0  0  0  0  0  0  0  0
  -40.0640  -63.6460   49.1960 C   0  0  0  0  0  0  0  0  0  0  0  0
  -41.3650  -64.0880   49.0750 C   0  0  0  0  0  0  0  0  0  0  0  0
  -42.0130  -64.7130   50.1130 C   0  0  0  0  0  0  0  0  0  0  0  0
  -43.4130  -65.4790   55.4010 O   0  0  0  0  0  0  0  0  0  0  0  0
  -44.8970  -66.3960   53.8530 C   0  0  0  0  0  0  0  0  0  0  0  0
  -45.6680  -65.3920   53.2680 C   0  0  0  0  0  0  0  0  0  0  0  0
  -46.9970  -65.5510   52.9220 C   0  0  0  0  0  0  0  0  0  0  0  0
  -47.6220  -66.7450   53.1530 C   0  0  0  0  0  0  0  0  0  0  0  0
  -46.8740  -67.7540   53.7330 C   0  0  0  0  0  0  0  0  0  0  0  0
  -45.5360  -67.5810   54.0750 C   0  0  0  0  0  0  0  0  0  0  0  0
  -49.4700  -67.0360   52.6820 B   0  0  0  0  0  0  0  0  0  0  0  0
  -40.6620  -69.9750   53.5110 H   0  0  0  0  0  0  0  0  0  0  0  0
  -39.0290  -69.1480   53.7580 H   0  0  0  0  0  0  0  0  0  0  0  0
  -40.3680  -68.8810   55.7970 H   0  0  0  0  0  0  0  0  0  0  0  0
  -40.2200  -67.2970   54.9280 H   0  0  0  0  0  0  0  0  0  0  0  0
  -42.5860  -69.1710   54.4170 H   0  0  0  0  0  0  0  0  0  0  0  0
  -42.5330  -68.1230   55.8490 H   0  0  0  0  0  0  0  0  0  0  0  0
  -42.6760  -64.1010   53.7030 H   0  0  0  0  0  0  0  0  0  0  0  0
  -43.8840  -64.7200   52.4410 H   0  0  0  0  0  0  0  0  0  0  0  0
  -39.4910  -64.6100   52.4140 H   0  0  0  0  0  0  0  0  0  0  0  0
  -38.4300  -63.5230   50.5510 H   0  0  0  0  0  0  0  0  0  0  0  0
  -39.5520  -63.1520   48.3560 H   0  0  0  0  0  0  0  0  0  0  0  0
  -41.8880  -63.9370   48.1310 H   0  0  0  0  0  0  0  0  0  0  0  0
  -43.0480  -65.0740   50.0370 H   0  0  0  0  0  0  0  0  0  0  0  0
  -43.0060  -64.5840   55.2680 H   0  0  0  0  0  0  0  0  0  0  0  0
  -45.1610  -64.4440   53.0930 H   0  0  0  0  0  0  0  0  0  0  0  0
  -47.5600  -64.7270   52.4650 H   0  0  0  0  0  0  0  0  0  0  0  0
  -47.3760  -68.6980   53.9070 H   0  0  0  0  0  0  0  0  0  0  0  0
  -44.9760  -68.3900   54.5370 H   0  0  0  0  0  0  0  0  0  0  0  0
  1  2  1  0  0  0  0
  2 25  1  0  0  0  0
  2  3  1  0  0  0  0
  3 27  1  0  0  0  0
  3 26  1  0  0  0  0
  4  3  1  0  0  0  0
  4 29  1  0  0  0  0
  5  6  1  0  0  0  0
  5  4  1  1  0  0  0
  6 16  1  1  0  0  0
  7 30  1  0  0  0  0
  7  6  1  0  0  0  0
  8  9  1  0  0  0  0
  8  7  1  0  0  0  0
  9  1  1  1  0  0  0
  9  5  1  0  0  0  0
 10 11  1  0  0  0  0
 10  8  1  0  0  0  0
 11 32  1  0  0  0  0
 12 33  1  0  0  0  0
 12 11  2  0  0  0  0
 13 12  1  0  0  0  0
 14 13  2  0  0  0  0
 14 15  1  0  0  0  0
 15 10  2  0  0  0  0
 17 22  1  0  0  0  0
 17  6  1  0  0  0  0
 18 17  2  0  0  0  0
 19 20  2  0  0  0  0
 19 18  1  0  0  0  0
 20 21  1  0  0  0  0
 21 40  1  0  0  0  0
 21 22  2  0  0  0  0
 22 41  1  0  0  0  0
 23 20  1  0  0  0  0
 24  2  1  0  0  0  0
 28  4  1  0  0  0  0
 31  7  1  0  0  0  0
 34 13  1  0  0  0  0
 35 14  1  0  0  0  0
 36 15  1  0  0  0  0
 37 16  1  0  0  0  0
 38 18  1  0  0  0  0
 39 19  1  0  0  0  0
M  END
>  <Pose>
1

>  <Score>
-5.72

$$$$
