
 OpenBabel03202209423D

 49 52  0  0  0  0  0  0  0  0999 V2000
  -41.4580  -68.3920   54.3070 S   0  0  0  0  0  0  0  0  0  0  0  0
  -40.6440  -69.5850   55.4130 C   0  0  0  0  0  0  0  0  0  0  0  0
  -39.6380  -70.1600   54.4680 C   0  0  0  0  0  0  0  0  0  0  0  0
  -39.4910  -69.4410   53.3080 N   0  0  0  0  0  0  0  0  0  0  0  0
  -40.2500  -68.5170   52.9890 C   0  0  0  0  0  0  0  0  0  0  0  0
  -40.2780  -67.4420   51.5600 S   0  0  0  0  0  0  0  0  0  0  0  0
  -41.9190  -66.8950   51.1410 C   0  0  0  0  0  0  0  0  0  0  0  0
  -42.2490  -65.4860   51.4110 C   0  0  0  0  0  0  0  0  0  0  0  0
  -43.2630  -65.0210   52.1500 N   0  0  0  0  0  0  0  0  0  0  0  0
  -43.1740  -63.6810   52.0820 N   0  0  0  0  0  0  0  0  0  0  0  0
  -42.1800  -63.3170   51.3550 N   0  0  0  0  0  0  0  0  0  0  0  0
  -41.5130  -64.4260   50.8700 C   0  0  0  0  0  0  0  0  0  0  0  0
  -40.3610  -64.3580   50.0090 C   0  0  0  0  0  0  0  0  0  0  0  0
  -40.3230  -65.2000   49.0260 O   0  0  0  0  0  0  0  0  0  0  0  0
  -39.2680  -63.5020   50.0890 N   0  0  0  0  0  0  0  0  0  0  0  0
  -38.0870  -63.7770   49.3150 N   0  0  0  0  0  0  0  0  0  0  0  0
  -36.9310  -63.3920   49.6900 C   0  0  0  0  0  0  0  0  0  0  0  0
  -35.7120  -63.6510   48.9380 C   0  0  0  0  0  0  0  0  0  0  0  0
  -34.9770  -64.8000   49.1210 C   0  0  0  0  0  0  0  0  0  0  0  0
  -33.8240  -65.0630   48.4110 C   0  0  0  0  0  0  0  0  0  0  0  0
  -33.3550  -64.1730   47.4800 C   0  0  0  0  0  0  0  0  0  0  0  0
  -34.0780  -62.9900   47.2660 C   0  0  0  0  0  0  0  0  0  0  0  0
  -35.2270  -62.7570   47.9910 C   0  0  0  0  0  0  0  0  0  0  0  0
  -33.5530  -62.1430   46.3180 O   0  0  0  0  0  0  0  0  0  0  0  0
  -34.2420  -61.6210   45.2090 C   0  0  0  0  0  0  0  0  0  0  0  0
  -32.1930  -64.4570   46.7780 O   0  0  0  0  0  0  0  0  0  0  0  0
  -32.8380  -66.6740   48.7020 B   0  0  0  0  0  0  0  0  0  0  0  0
  -44.3030  -65.6770   52.8720 C   0  0  0  0  0  0  0  0  0  0  0  0
  -44.2460  -66.8430   53.5490 N   0  0  0  0  0  0  0  0  0  0  0  0
  -45.3620  -67.1320   54.1070 O   0  0  0  0  0  0  0  0  0  0  0  0
  -46.2040  -66.1850   53.8330 N   0  0  0  0  0  0  0  0  0  0  0  0
  -45.5960  -65.2380   53.0580 C   0  0  0  0  0  0  0  0  0  0  0  0
  -46.1820  -64.0460   52.5730 N   0  0  0  0  0  4  0  0  0  0  0  0
  -40.2070  -69.1030   56.2990 H   0  0  0  0  0  0  0  0  0  0  0  0
  -41.3870  -70.3730   55.6460 H   0  0  0  0  0  0  0  0  0  0  0  0
  -39.7820  -71.2620   54.3380 H   0  0  0  0  0  0  0  0  0  0  0  0
  -38.6430  -70.1120   55.0240 H   0  0  0  0  0  0  0  0  0  0  0  0
  -42.6330  -67.5580   51.6580 H   0  0  0  0  0  0  0  0  0  0  0  0
  -42.1240  -67.0290   50.0290 H   0  0  0  0  0  0  0  0  0  0  0  0
  -39.1580  -62.6440   50.6560 H   0  0  0  0  0  0  0  0  0  0  0  0
  -36.8530  -62.8500   50.6120 H   0  0  0  0  0  0  0  0  0  0  0  0
  -35.3380  -65.5170   49.8590 H   0  0  0  0  0  0  0  0  0  0  0  0
  -35.7730  -61.8400   47.8170 H   0  0  0  0  0  0  0  0  0  0  0  0
  -33.5620  -61.5210   44.3170 H   0  0  0  0  0  0  0  0  0  0  0  0
  -35.1290  -62.2210   44.9730 H   0  0  0  0  0  0  0  0  0  0  0  0
  -34.5230  -60.5590   45.4530 H   0  0  0  0  0  0  0  0  0  0  0  0
  -46.0320  -64.0120   51.5300 H   0  0  0  0  0  0  0  0  0  0  0  0
  -45.8280  -63.1800   53.0150 H   0  0  0  0  0  0  0  0  0  0  0  0
  -47.2280  -64.1000   52.7140 H   0  0  0  0  0  0  0  0  0  0  0  0
  1  2  1  0  0  0  0
  2 35  1  0  0  0  0
  2 34  1  0  0  0  0
  3 37  1  0  0  0  0
  3  2  1  0  0  0  0
  4  3  1  0  0  0  0
  5  4  2  0  0  0  0
  5  1  1  0  0  0  0
  6  5  1  0  0  0  0
  7  8  1  0  0  0  0
  7  6  1  0  0  0  0
  7 38  1  0  0  0  0
  8  9  1  0  0  0  0
  9 28  1  0  0  0  0
 10  9  1  0  0  0  0
 11 10  2  0  0  0  0
 12 11  1  0  0  0  0
 12  8  2  0  0  0  0
 13 15  1  0  0  0  0
 13 12  1  0  0  0  0
 14 13  2  0  0  0  0
 15 40  1  0  0  0  0
 16 17  2  0  0  0  0
 16 15  1  0  0  0  0
 17 41  1  0  0  0  0
 18 19  1  0  0  0  0
 18 17  1  0  0  0  0
 19 42  1  0  0  0  0
 20 27  1  0  0  0  0
 20 19  2  0  0  0  0
 21 20  1  0  0  0  0
 22 21  2  0  0  0  0
 22 23  1  0  0  0  0
 23 18  2  0  0  0  0
 24 22  1  0  0  0  0
 25 46  1  0  0  0  0
 25 24  1  0  0  0  0
 26 21  1  0  0  0  0
 28 32  1  0  0  0  0
 28 29  2  0  0  0  0
 29 30  1  0  0  0  0
 31 30  1  0  0  0  0
 32 31  2  0  0  0  0
 33 49  1  0  0  0  0
 33 48  1  0  0  0  0
 33 32  1  0  0  0  0
 36  3  1  0  0  0  0
 39  7  1  0  0  0  0
 43 23  1  0  0  0  0
 44 25  1  0  0  0  0
 45 25  1  0  0  0  0
 47 33  1  0  0  0  0
M  END
>  <Pose>
1

>  <Score>
-8.24

$$$$
