
 OpenBabel03202209423D

 45 49  0  0  1  0  0  0  0  0999 V2000
  -42.9970  -65.1000   52.8180 S   0  0  0  0  0  0  0  0  0  0  0  0
  -44.2500  -65.4740   51.5000 C   0  0  0  0  0  0  0  0  0  0  0  0
  -43.2790  -65.6220   50.3560 C   0  0  0  0  0  0  0  0  0  0  0  0
  -42.1200  -66.3560   50.7780 N   0  0  0  0  0  0  0  0  0  0  0  0
  -41.7590  -66.1780   52.1290 C   0  0  0  0  0  0  0  0  0  0  0  0
  -40.7430  -66.7530   52.6170 N   0  0  0  0  0  0  0  0  0  0  0  0
  -39.8750  -67.5960   51.8360 C   0  0  0  0  0  0  0  0  0  0  0  0
  -39.1330  -68.4730   52.3440 O   0  0  0  0  0  0  0  0  0  0  0  0
  -39.8800  -67.3960   50.3610 C   0  0  1  0  0  0  0  0  0  0  0  0
  -41.2940  -67.2220   49.9560 C   0  0  0  0  0  0  0  0  0  0  0  0
  -41.8280  -67.7660   48.9600 O   0  0  0  0  0  0  0  0  0  0  0  0
  -39.0380  -66.2030   50.0710 C   0  0  2  0  0  0  0  0  0  0  0  0
  -39.5370  -65.3690   48.9170 C   0  0  2  0  0  0  0  0  0  0  0  0
  -38.8320  -65.6050   47.6470 C   0  0  0  0  0  0  0  0  0  0  0  0
  -39.0870  -66.6580   46.9630 O   0  0  0  0  0  0  0  0  0  0  0  0
  -37.8490  -64.6540   47.1690 N   0  0  0  0  0  0  0  0  0  0  0  0
  -36.9200  -64.8510   46.0910 C   0  0  0  0  0  0  0  0  0  0  0  0
  -35.6500  -64.0730   46.3310 C   0  0  0  0  0  0  0  0  0  0  0  0
  -36.4520  -62.5230   46.9570 S   0  0  0  0  0  0  0  0  0  0  0  0
  -37.7860  -63.3850   47.7860 C   0  0  0  0  0  0  0  0  0  0  0  0
  -38.5580  -63.0400   48.7420 N   0  0  0  0  0  0  0  0  0  0  0  0
  -39.5570  -63.9270   49.2690 C   0  0  0  0  0  0  0  0  0  0  0  0
  -40.4340  -63.4400   50.0260 O   0  0  0  0  0  0  0  0  0  0  0  0
  -37.6360  -66.6360   49.8820 C   0  0  0  0  0  0  0  0  0  0  0  0
  -36.6210  -65.7050   49.6970 C   0  0  0  0  0  0  0  0  0  0  0  0
  -35.3100  -66.0970   49.5240 C   0  0  0  0  0  0  0  0  0  0  0  0
  -34.9760  -67.4330   49.5320 C   0  0  0  0  0  0  0  0  0  0  0  0
  -35.9720  -68.3440   49.7130 C   0  0  0  0  0  0  0  0  0  0  0  0
  -37.2880  -67.9670   49.8870 C   0  0  0  0  0  0  0  0  0  0  0  0
  -33.9100  -64.8250   49.2690 B   0  0  0  0  0  0  0  0  0  0  0  0
  -44.7430  -66.4240   51.7120 H   0  0  0  0  0  0  0  0  0  0  0  0
  -44.8960  -64.6160   51.3420 H   0  0  0  0  0  0  0  0  0  0  0  0
  -43.8030  -66.1670   49.5470 H   0  0  0  0  0  0  0  0  0  0  0  0
  -42.9960  -64.5900   50.0410 H   0  0  0  0  0  0  0  0  0  0  0  0
  -39.4430  -68.2890   49.8450 H   0  0  0  0  0  0  0  0  0  0  0  0
  -39.0760  -65.5240   50.9690 H   0  0  0  0  0  0  0  0  0  0  0  0
  -40.6280  -65.6180   48.7320 H   0  0  0  0  0  0  0  0  0  0  0  0
  -37.3160  -64.4860   45.1160 H   0  0  0  0  0  0  0  0  0  0  0  0
  -36.6110  -65.9160   46.0330 H   0  0  0  0  0  0  0  0  0  0  0  0
  -35.0120  -64.5070   47.1150 H   0  0  0  0  0  0  0  0  0  0  0  0
  -35.1490  -63.8810   45.3850 H   0  0  0  0  0  0  0  0  0  0  0  0
  -36.8640  -64.6560   49.6880 H   0  0  0  0  0  0  0  0  0  0  0  0
  -33.9360  -67.7600   49.3950 H   0  0  0  0  0  0  0  0  0  0  0  0
  -35.7370  -69.4160   49.7230 H   0  0  0  0  0  0  0  0  0  0  0  0
  -38.0440  -68.7580   50.0310 H   0  0  0  0  0  0  0  0  0  0  0  0
  2 31  1  0  0  0  0
  2  1  1  0  0  0  0
  3  4  1  0  0  0  0
  3  2  1  0  0  0  0
  4  5  1  0  0  0  0
  5  6  2  0  0  0  0
  5  1  1  0  0  0  0
  7  8  2  0  0  0  0
  7  6  1  0  0  0  0
  9 35  1  6  0  0  0
  9  7  1  0  0  0  0
 10  9  1  0  0  0  0
 10  4  1  0  0  0  0
 11 10  2  0  0  0  0
 12  9  1  0  0  0  0
 12 36  1  1  0  0  0
 13 37  1  6  0  0  0
 13 22  1  0  0  0  0
 13 12  1  0  0  0  0
 14 13  1  0  0  0  0
 15 14  2  0  0  0  0
 16 14  1  0  0  0  0
 16 20  1  0  0  0  0
 17 18  1  0  0  0  0
 17 16  1  0  0  0  0
 18 19  1  0  0  0  0
 18 40  1  0  0  0  0
 19 20  1  0  0  0  0
 20 21  2  0  0  0  0
 21 22  1  0  0  0  0
 22 23  2  0  0  0  0
 24 29  1  0  0  0  0
 24 12  1  0  0  0  0
 25 24  2  0  0  0  0
 26 27  2  0  0  0  0
 26 25  1  0  0  0  0
 27 28  1  0  0  0  0
 28 44  1  0  0  0  0
 28 29  2  0  0  0  0
 29 45  1  0  0  0  0
 30 26  1  0  0  0  0
 32  2  1  0  0  0  0
 33  3  1  0  0  0  0
 34  3  1  0  0  0  0
 38 17  1  0  0  0  0
 39 17  1  0  0  0  0
 41 18  1  0  0  0  0
 42 25  1  0  0  0  0
 43 27  1  0  0  0  0
M  END
>  <Pose>
1

>  <Score>
-4.39

$$$$
