
 OpenBabel03202209423D

 25 28  0  0  0  0  0  0  0  0999 V2000
  -42.8430  -65.6180   53.3700 S   0  0  0  0  0  0  0  0  0  0  0  0
  -44.5020  -65.1860   53.2660 C   0  0  0  0  0  0  0  0  0  0  0  0
  -45.0870  -66.3020   53.6990 N   0  0  0  0  0  0  0  0  0  0  0  0
  -46.4320  -66.0170   53.6390 C   0  0  0  0  0  0  0  0  0  0  0  0
  -46.6040  -64.7770   53.1850 N   0  0  0  0  0  0  0  0  0  0  0  0
  -45.4300  -64.2300   52.9430 N   0  0  0  0  0  0  0  0  0  0  0  0
  -47.5310  -66.9310   54.0140 C   0  0  0  0  0  0  0  0  0  0  0  0
  -47.7650  -68.0590   53.3190 N   0  0  0  0  0  0  0  0  0  0  0  0
  -48.7740  -68.8870   53.6720 C   0  0  0  0  0  0  0  0  0  0  0  0
  -49.5710  -68.5880   54.7420 C   0  0  0  0  0  0  0  0  0  0  0  0
  -49.3260  -67.4660   55.4220 N   0  0  0  0  0  0  0  0  0  0  0  0
  -48.3260  -66.6210   55.0910 C   0  0  0  0  0  0  0  0  0  0  0  0
  -44.3620  -67.2890   54.0400 N   0  0  0  0  0  0  0  0  0  0  0  0
  -43.0470  -67.2220   53.9710 C   0  0  0  0  0  0  0  0  0  0  0  0
  -42.0290  -68.2220   54.3070 C   0  0  0  0  0  0  0  0  0  0  0  0
  -41.9880  -68.9840   55.4070 N   0  0  0  0  0  0  0  0  0  0  0  0
  -40.9050  -69.7770   55.3550 N   0  0  0  0  0  0  0  0  0  0  0  0
  -40.2400  -69.5250   54.2110 C   0  0  0  0  0  0  0  0  0  0  0  0
  -40.9600  -68.5320   53.5420 C   0  0  0  0  0  0  0  0  0  0  0  0
  -40.4540  -67.8110   51.8750 B   0  0  0  0  0  0  0  0  0  0  0  0
  -48.9240  -69.7690   53.0950 H   0  0  0  0  0  0  0  0  0  0  0  0
  -50.3640  -69.2400   55.0200 H   0  0  0  0  0  0  0  0  0  0  0  0
  -48.1340  -65.7060   55.6530 H   0  0  0  0  0  0  0  0  0  0  0  0
  -40.6400  -70.4690   56.0930 H   0  0  0  0  0  0  0  0  0  0  0  0
  -39.3300  -70.0280   53.9220 H   0  0  0  0  0  0  0  0  0  0  0  0
  1 14  1  0  0  0  0
  2  1  1  0  0  0  0
  2  3  1  0  0  0  0
  3 13  1  0  0  0  0
  4  3  1  0  0  0  0
  4  7  1  0  0  0  0
  5  4  2  0  0  0  0
  6  5  1  0  0  0  0
  6  2  2  0  0  0  0
  7 12  1  0  0  0  0
  8  9  1  0  0  0  0
  8  7  2  0  0  0  0
  9 10  2  0  0  0  0
 10 22  1  0  0  0  0
 10 11  1  0  0  0  0
 12 11  2  0  0  0  0
 12 23  1  0  0  0  0
 14 13  2  0  0  0  0
 14 15  1  0  0  0  0
 15 16  2  0  0  0  0
 17 16  1  0  0  0  0
 17 24  1  0  0  0  0
 18 17  1  0  0  0  0
 19 18  2  0  0  0  0
 19 15  1  0  0  0  0
 20 19  1  0  0  0  0
 21  9  1  0  0  0  0
 25 18  1  0  0  0  0
M  END
>  <Pose>
1

>  <Score>
-7.41

$$$$
