
 OpenBabel03202209423D

 47 50  0  0  0  0  0  0  0  0999 V2000
  -37.6330  -66.3980   47.6070 S   0  0  0  0  0  0  0  0  0  0  0  0
  -38.9690  -65.3260   47.5800 C   0  0  0  0  0  0  0  0  0  0  0  0
  -39.5070  -64.4940   46.6350 N   0  0  0  0  0  0  0  0  0  0  0  0
  -40.6110  -63.7730   46.8930 C   0  0  0  0  0  0  0  0  0  0  0  0
  -41.1700  -62.9950   46.0970 O   0  0  0  0  0  0  0  0  0  0  0  0
  -41.1360  -63.9400   48.1520 C   0  0  0  0  0  0  0  0  0  0  0  0
  -40.6060  -64.7660   49.0990 C   0  0  0  0  0  0  0  0  0  0  0  0
  -39.4770  -65.4910   48.8050 N   0  0  0  0  0  0  0  0  0  0  0  0
  -38.8960  -66.3170   49.5850 N   0  0  0  0  0  0  0  0  0  0  0  0
  -37.8390  -66.9860   49.2180 C   0  0  0  0  0  0  0  0  0  0  0  0
  -37.0590  -67.9690   49.9380 N   0  0  0  0  0  0  0  0  0  0  0  0
  -37.6930  -68.9310   50.7560 C   0  0  0  0  0  0  0  0  0  0  0  0
  -36.6630  -69.7760   51.4670 C   0  0  0  0  0  0  0  0  0  0  0  0
  -35.5990  -68.9700   51.8800 O   0  0  0  0  0  0  0  0  0  0  0  0
  -34.8280  -68.5860   50.7760 C   0  0  0  0  0  0  0  0  0  0  0  0
  -35.6510  -67.8720   49.7490 C   0  0  0  0  0  0  0  0  0  0  0  0
  -41.2850  -64.8470   50.3910 C   0  0  0  0  0  0  0  0  0  0  0  0
  -40.6360  -64.5590   51.4620 O   0  0  0  0  0  0  0  0  0  0  0  0
  -42.6300  -65.2320   50.5680 N   0  0  0  0  0  0  0  0  0  0  0  0
  -43.4190  -64.6310   51.6380 C   0  0  0  0  0  0  0  0  0  0  0  0
  -43.6200  -65.5960   52.7470 C   0  0  0  0  0  0  0  0  0  0  0  0
  -44.8270  -65.6000   53.4280 C   0  0  0  0  0  0  0  0  0  0  0  0
  -45.0080  -66.4600   54.4820 C   0  0  0  0  0  0  0  0  0  0  0  0
  -44.0290  -67.3260   54.8940 C   0  0  0  0  0  0  0  0  0  0  0  0
  -42.8230  -67.3300   54.2190 C   0  0  0  0  0  0  0  0  0  0  0  0
  -42.6440  -66.4610   53.1550 C   0  0  0  0  0  0  0  0  0  0  0  0
  -41.4090  -68.5090   54.7240 B   0  0  0  0  0  0  0  0  0  0  0  0
  -45.8030  -64.7240   53.0070 O   0  0  0  0  0  0  0  0  0  0  0  0
  -47.1670  -65.0580   53.2630 C   0  0  0  0  0  0  0  0  0  0  0  0
  -42.0400  -63.3620   48.3830 H   0  0  0  0  0  0  0  0  0  0  0  0
  -38.3810  -69.5820   50.1480 H   0  0  0  0  0  0  0  0  0  0  0  0
  -38.3280  -68.4890   51.5630 H   0  0  0  0  0  0  0  0  0  0  0  0
  -36.2710  -70.5050   50.7140 H   0  0  0  0  0  0  0  0  0  0  0  0
  -37.0920  -70.2490   52.3550 H   0  0  0  0  0  0  0  0  0  0  0  0
  -33.9700  -67.9510   51.1460 H   0  0  0  0  0  0  0  0  0  0  0  0
  -34.3430  -69.5130   50.3740 H   0  0  0  0  0  0  0  0  0  0  0  0
  -35.3210  -66.7930   49.6690 H   0  0  0  0  0  0  0  0  0  0  0  0
  -35.4110  -68.3570   48.7530 H   0  0  0  0  0  0  0  0  0  0  0  0
  -43.0760  -65.9420   49.9570 H   0  0  0  0  0  0  0  0  0  0  0  0
  -44.4540  -64.3830   51.2490 H   0  0  0  0  0  0  0  0  0  0  0  0
  -43.0050  -63.6810   51.9990 H   0  0  0  0  0  0  0  0  0  0  0  0
  -45.9650  -66.4500   55.0140 H   0  0  0  0  0  0  0  0  0  0  0  0
  -44.1630  -68.0120   55.7310 H   0  0  0  0  0  0  0  0  0  0  0  0
  -41.6680  -66.5130   52.6680 H   0  0  0  0  0  0  0  0  0  0  0  0
  -47.8250  -64.2560   52.8840 H   0  0  0  0  0  0  0  0  0  0  0  0
  -47.4630  -65.9910   52.7500 H   0  0  0  0  0  0  0  0  0  0  0  0
  -47.2800  -65.2310   54.3440 H   0  0  0  0  0  0  0  0  0  0  0  0
  1 10  1  0  0  0  0
  2  1  1  0  0  0  0
  2  8  1  0  0  0  0
  3  4  1  0  0  0  0
  3  2  2  0  0  0  0
  4  6  1  0  0  0  0
  5  4  2  0  0  0  0
  6 30  1  0  0  0  0
  6  7  2  0  0  0  0
  7 17  1  0  0  0  0
  8  7  1  0  0  0  0
  8  9  1  0  0  0  0
 10  9  2  0  0  0  0
 10 11  1  0  0  0  0
 11 12  1  0  0  0  0
 12 13  1  0  0  0  0
 12 32  1  0  0  0  0
 13 14  1  0  0  0  0
 13 34  1  0  0  0  0
 15 35  1  0  0  0  0
 15 14  1  0  0  0  0
 16 11  1  0  0  0  0
 16 15  1  0  0  0  0
 17 19  1  0  0  0  0
 17 18  2  0  0  0  0
 19 20  1  0  0  0  0
 20 41  1  0  0  0  0
 20 21  1  0  0  0  0
 21 26  2  0  0  0  0
 21 22  1  0  0  0  0
 22 23  2  0  0  0  0
 23 24  1  0  0  0  0
 23 42  1  0  0  0  0
 24 43  1  0  0  0  0
 25 27  1  0  0  0  0
 25 24  2  0  0  0  0
 26 25  1  0  0  0  0
 28 29  1  0  0  0  0
 28 22  1  0  0  0  0
 29 47  1  0  0  0  0
 31 12  1  0  0  0  0
 33 13  1  0  0  0  0
 36 15  1  0  0  0  0
 37 16  1  0  0  0  0
 38 16  1  0  0  0  0
 39 19  1  0  0  0  0
 40 20  1  0  0  0  0
 44 26  1  0  0  0  0
 45 29  1  0  0  0  0
 46 29  1  0  0  0  0
M  END
>  <Pose>
1

>  <Score>
-7.71

$$$$
