
 OpenBabel03202209423D

 63 66  0  0  1  0  0  0  0  0999 V2000
  -42.6360  -67.2490   54.4620 B   0  0  0  0  0  0  0  0  0  0  0  0
  -41.3870  -67.5340   53.0300 C   0  0  0  0  0  0  0  0  0  0  0  0
  -41.4310  -66.7310   51.8840 C   0  0  0  0  0  0  0  0  0  0  0  0
  -40.5420  -66.9160   50.8350 C   0  0  0  0  0  0  0  0  0  0  0  0
  -39.6230  -67.9190   50.9770 C   0  0  0  0  0  0  0  0  0  0  0  0
  -39.5640  -68.7260   52.1060 C   0  0  0  0  0  0  0  0  0  0  0  0
  -40.4520  -68.5300   53.1370 C   0  0  0  0  0  0  0  0  0  0  0  0
  -40.6290  -66.0720   49.6350 C   0  0  1  0  0  0  0  0  0  0  0  0
  -41.1690  -64.7700   49.9700 N   0  0  0  0  0  0  0  0  0  0  0  0
  -40.1060  -64.0110   50.5200 C   0  0  0  0  0  0  0  0  0  0  0  0
  -40.2320  -63.0720   51.3120 O   0  0  0  0  0  0  0  0  0  0  0  0
  -38.8630  -64.5680   49.9590 C   0  0  0  0  0  0  0  0  0  0  0  0
  -37.6870  -64.1870   50.1750 O   0  0  0  0  0  0  0  0  0  0  0  0
  -39.2920  -65.6580   49.0920 C   0  0  0  0  0  0  0  0  0  0  0  0
  -38.6230  -66.1150   48.0430 C   0  0  0  0  0  0  0  0  0  0  0  0
  -39.2610  -67.1510   47.3210 O   0  0  0  0  0  0  0  0  0  0  0  0
  -37.3180  -65.6160   47.6250 C   0  0  0  0  0  0  0  0  0  0  0  0
  -37.0990  -64.3840   47.0840 C   0  0  0  0  0  0  0  0  0  0  0  0
  -35.8130  -64.0020   46.6610 C   0  0  0  0  0  0  0  0  0  0  0  0
  -34.7270  -64.8280   46.7670 C   0  0  0  0  0  0  0  0  0  0  0  0
  -34.9460  -66.0740   47.3150 C   0  0  0  0  0  0  0  0  0  0  0  0
  -36.1940  -66.4570   47.7310 C   0  0  0  0  0  0  0  0  0  0  0  0
  -33.4500  -64.4540   46.3510 O   0  0  0  0  0  0  0  0  0  0  0  0
  -32.5850  -63.7700   47.2210 C   0  0  0  0  0  0  0  0  0  0  0  0
  -38.2050  -63.4050   46.9760 C   0  0  0  0  0  0  0  0  0  0  0  0
  -42.5490  -64.3810   49.7640 C   0  0  0  0  0  0  0  0  0  0  0  0
  -42.7110  -63.2030   48.8560 C   0  0  0  0  0  0  0  0  0  0  0  0
  -43.9450  -63.1820   48.0370 C   0  0  0  0  0  0  0  0  0  0  0  0
  -45.1070  -63.7070   48.6610 N   0  0  0  0  0  4  0  0  0  0  0  0
  -45.5560  -62.9270   49.8260 C   0  0  0  0  0  0  0  0  0  0  0  0
  -46.3900  -63.8990   50.6630 C   0  0  0  0  0  0  0  0  0  0  0  0
  -46.6920  -65.0570   49.9690 O   0  0  0  0  0  0  0  0  0  0  0  0
  -47.2330  -64.7620   48.7170 C   0  0  0  0  0  0  0  0  0  0  0  0
  -46.2530  -63.9410   47.8590 C   0  0  0  0  0  0  0  0  0  0  0  0
  -42.1840  -65.9770   51.8690 H   0  0  0  0  0  0  0  0  0  0  0  0
  -38.9300  -68.1080   50.1920 H   0  0  0  0  0  0  0  0  0  0  0  0
  -38.8350  -69.5120   52.2060 H   0  0  0  0  0  0  0  0  0  0  0  0
  -40.4530  -69.1330   54.0490 H   0  0  0  0  0  0  0  0  0  0  0  0
  -41.2360  -66.6220   48.8870 H   0  0  0  0  0  0  0  0  0  0  0  0
  -35.6610  -63.0070   46.2270 H   0  0  0  0  0  0  0  0  0  0  0  0
  -34.0730  -66.7320   47.3990 H   0  0  0  0  0  0  0  0  0  0  0  0
  -36.3420  -67.4350   48.1570 H   0  0  0  0  0  0  0  0  0  0  0  0
  -33.0140  -62.7820   47.5420 H   0  0  0  0  0  0  0  0  0  0  0  0
  -31.6270  -63.5290   46.7490 H   0  0  0  0  0  0  0  0  0  0  0  0
  -32.3780  -64.3110   48.1700 H   0  0  0  0  0  0  0  0  0  0  0  0
  -39.1870  -63.8390   46.7550 H   0  0  0  0  0  0  0  0  0  0  0  0
  -38.0010  -62.6960   46.1160 H   0  0  0  0  0  0  0  0  0  0  0  0
  -38.2230  -62.7220   47.8730 H   0  0  0  0  0  0  0  0  0  0  0  0
  -43.0600  -65.2460   49.2760 H   0  0  0  0  0  0  0  0  0  0  0  0
  -43.0990  -64.2100   50.7080 H   0  0  0  0  0  0  0  0  0  0  0  0
  -42.6020  -62.2970   49.5160 H   0  0  0  0  0  0  0  0  0  0  0  0
  -41.8020  -63.1500   48.1820 H   0  0  0  0  0  0  0  0  0  0  0  0
  -43.7500  -63.8040   47.1270 H   0  0  0  0  0  0  0  0  0  0  0  0
  -44.1120  -62.1450   47.6730 H   0  0  0  0  0  0  0  0  0  0  0  0
  -44.8320  -64.6500   49.0740 H   0  0  0  0  0  0  0  0  0  0  0  0
  -44.7260  -62.5100   50.4010 H   0  0  0  0  0  0  0  0  0  0  0  0
  -46.1870  -62.0980   49.4250 H   0  0  0  0  0  0  0  0  0  0  0  0
  -45.7780  -64.2250   51.5540 H   0  0  0  0  0  0  0  0  0  0  0  0
  -47.2550  -63.3810   51.0890 H   0  0  0  0  0  0  0  0  0  0  0  0
  -48.1800  -64.2140   48.9020 H   0  0  0  0  0  0  0  0  0  0  0  0
  -47.5260  -65.7070   48.2090 H   0  0  0  0  0  0  0  0  0  0  0  0
  -46.8050  -63.0260   47.5710 H   0  0  0  0  0  0  0  0  0  0  0  0
  -46.0100  -64.5790   46.9910 H   0  0  0  0  0  0  0  0  0  0  0  0
  2  7  1  0  0  0  0
  2  1  1  0  0  0  0
  3  2  2  0  0  0  0
  4  5  2  0  0  0  0
  4  3  1  0  0  0  0
  5  6  1  0  0  0  0
  6 37  1  0  0  0  0
  6  7  2  0  0  0  0
  7 38  1  0  0  0  0
  8 39  1  6  0  0  0
  8  9  1  0  0  0  0
  8  4  1  0  0  0  0
  9 10  1  0  0  0  0
 10 11  2  0  0  0  0
 12 13  2  0  0  0  0
 12 10  1  0  0  0  0
 14  8  1  0  0  0  0
 14 12  1  0  0  0  0
 15 14  2  0  0  0  0
 16 15  1  0  0  0  0
 17 22  1  0  0  0  0
 17 15  1  0  0  0  0
 18 17  2  0  0  0  0
 19 20  2  0  0  0  0
 19 18  1  0  0  0  0
 20 21  1  0  0  0  0
 21 41  1  0  0  0  0
 21 22  2  0  0  0  0
 22 42  1  0  0  0  0
 23 20  1  0  0  0  0
 23 24  1  0  0  0  0
 24 43  1  0  0  0  0
 24 45  1  0  0  0  0
 25 18  1  0  0  0  0
 25 48  1  0  0  0  0
 26  9  1  0  0  0  0
 26 50  1  0  0  0  0
 27 51  1  0  0  0  0
 27 26  1  0  0  0  0
 28 29  1  0  0  0  0
 28 27  1  0  0  0  0
 29 55  1  0  0  0  0
 29 30  1  0  0  0  0
 30 56  1  0  0  0  0
 30 31  1  0  0  0  0
 31 59  1  0  0  0  0
 31 58  1  0  0  0  0
 32 31  1  0  0  0  0
 33 60  1  0  0  0  0
 33 32  1  0  0  0  0
 34 29  1  0  0  0  0
 34 33  1  0  0  0  0
 35  3  1  0  0  0  0
 36  5  1  0  0  0  0
 40 19  1  0  0  0  0
 44 24  1  0  0  0  0
 46 25  1  0  0  0  0
 47 25  1  0  0  0  0
 49 26  1  0  0  0  0
 52 27  1  0  0  0  0
 53 28  1  0  0  0  0
 54 28  1  0  0  0  0
 57 30  1  0  0  0  0
 61 33  1  0  0  0  0
 62 34  1  0  0  0  0
 63 34  1  0  0  0  0
M  END
>  <Pose>
1

>  <Score>
-6.23

$$$$
