
 OpenBabel03202209423D

 48 51  0  0  1  0  0  0  0  0999 V2000
  -50.7370  -69.0660   49.4480 B   0  0  0  0  0  0  0  0  0  0  0  0
  -50.2360  -68.6640   51.2510 C   0  0  0  0  0  0  0  0  0  0  0  0
  -49.9940  -67.3720   51.6260 C   0  0  0  0  0  0  0  0  0  0  0  0
  -49.6310  -67.0710   52.9330 C   0  0  0  0  0  0  0  0  0  0  0  0
  -49.5220  -68.0960   53.8200 C   0  0  0  0  0  0  0  0  0  0  0  0
  -49.7700  -69.4030   53.4290 C   0  0  0  0  0  0  0  0  0  0  0  0
  -50.1300  -69.6970   52.1380 C   0  0  0  0  0  0  0  0  0  0  0  0
  -49.3690  -65.6960   53.3260 C   0  0  0  0  0  0  0  0  0  0  0  0
  -50.2980  -64.8250   53.1510 O   0  0  0  0  0  0  0  0  0  0  0  0
  -48.1400  -65.2960   53.8870 N   0  0  0  0  0  0  0  0  0  0  0  0
  -46.9260  -65.8060   53.2730 C   0  0  2  0  0  0  0  0  0  0  0  0
  -46.0890  -66.5890   54.2660 C   0  0  0  0  0  0  0  0  0  0  0  0
  -44.7530  -66.4900   53.7110 N   0  0  0  0  0  0  0  0  0  0  0  0
  -44.7180  -65.5530   52.6070 C   0  0  1  0  0  0  0  0  0  0  0  0
  -45.9760  -64.7150   52.8680 C   0  0  0  0  0  0  0  0  0  0  0  0
  -43.5000  -64.7510   52.7150 C   0  0  0  0  0  0  0  0  0  0  0  0
  -43.5370  -63.5120   52.7040 O   0  0  0  0  0  0  0  0  0  0  0  0
  -42.2630  -65.4360   52.8320 N   0  0  0  0  0  0  0  0  0  0  0  0
  -42.2350  -66.7590   53.4120 C   0  0  1  0  0  0  0  0  0  0  0  0
  -43.5160  -67.1330   54.0530 C   0  0  0  0  0  0  0  0  0  0  0  0
  -43.5360  -68.0400   54.9260 O   0  0  0  0  0  0  0  0  0  0  0  0
  -41.7600  -67.8120   52.4340 C   0  0  0  0  0  0  0  0  0  0  0  0
  -40.6770  -68.6550   52.9670 C   0  0  0  0  0  0  0  0  0  0  0  0
  -40.8480  -69.3130   54.1710 C   0  0  0  0  0  0  0  0  0  0  0  0
  -39.8400  -70.1030   54.6760 C   0  0  0  0  0  0  0  0  0  0  0  0
  -38.6330  -70.2770   54.0260 C   0  0  0  0  0  0  0  0  0  0  0  0
  -38.4600  -69.6220   52.8260 C   0  0  0  0  0  0  0  0  0  0  0  0
  -39.4610  -68.8260   52.3030 C   0  0  0  0  0  0  0  0  0  0  0  0
  -50.0720  -66.5280   50.9360 H   0  0  0  0  0  0  0  0  0  0  0  0
  -49.2350  -67.8920   54.8540 H   0  0  0  0  0  0  0  0  0  0  0  0
  -49.6850  -70.2160   54.1310 H   0  0  0  0  0  0  0  0  0  0  0  0
  -50.3300  -70.7150   51.8010 H   0  0  0  0  0  0  0  0  0  0  0  0
  -48.1290  -64.6620   54.6980 H   0  0  0  0  0  0  0  0  0  0  0  0
  -47.1200  -66.4580   52.4250 H   0  0  0  0  0  0  0  0  0  0  0  0
  -46.0960  -66.1320   55.2790 H   0  0  0  0  0  0  0  0  0  0  0  0
  -46.4210  -67.6480   54.3390 H   0  0  0  0  0  0  0  0  0  0  0  0
  -44.7920  -66.0490   51.6170 H   0  0  0  0  0  0  0  0  0  0  0  0
  -46.2250  -64.2420   51.9060 H   0  0  0  0  0  0  0  0  0  0  0  0
  -45.7360  -64.0130   53.6750 H   0  0  0  0  0  0  0  0  0  0  0  0
  -41.3580  -65.0200   52.5160 H   0  0  0  0  0  0  0  0  0  0  0  0
  -41.4280  -66.7150   54.2040 H   0  0  0  0  0  0  0  0  0  0  0  0
  -42.6320  -68.4230   52.1330 H   0  0  0  0  0  0  0  0  0  0  0  0
  -41.3720  -67.2800   51.5510 H   0  0  0  0  0  0  0  0  0  0  0  0
  -41.7570  -69.2420   54.7570 H   0  0  0  0  0  0  0  0  0  0  0  0
  -39.9670  -70.6200   55.6170 H   0  0  0  0  0  0  0  0  0  0  0  0
  -37.8570  -70.9130   54.4600 H   0  0  0  0  0  0  0  0  0  0  0  0
  -37.5070  -69.7600   52.3130 H   0  0  0  0  0  0  0  0  0  0  0  0
  -39.2910  -68.3250   51.3580 H   0  0  0  0  0  0  0  0  0  0  0  0
  1  2  1  0  0  0  0
  2  3  2  0  0  0  0
  2  7  1  0  0  0  0
  3  4  1  0  0  0  0
  4  8  1  0  0  0  0
  4  5  2  0  0  0  0
  5 30  1  0  0  0  0
  6  5  1  0  0  0  0
  6 31  1  0  0  0  0
  7  6  2  0  0  0  0
  8 10  1  0  0  0  0
  9  8  2  0  0  0  0
 10 33  1  0  0  0  0
 11 34  1  6  0  0  0
 11 10  1  0  0  0  0
 11 12  1  0  0  0  0
 12 36  1  0  0  0  0
 12 35  1  0  0  0  0
 13 20  1  0  0  0  0
 13 12  1  0  0  0  0
 14 37  1  6  0  0  0
 14 16  1  0  0  0  0
 14 15  1  0  0  0  0
 14 13  1  0  0  0  0
 15 11  1  0  0  0  0
 15 39  1  0  0  0  0
 16 18  1  0  0  0  0
 17 16  2  0  0  0  0
 18 19  1  0  0  0  0
 19 20  1  0  0  0  0
 19 41  1  1  0  0  0
 20 21  2  0  0  0  0
 22 23  1  0  0  0  0
 22 19  1  0  0  0  0
 23 24  1  0  0  0  0
 24 25  2  0  0  0  0
 24 44  1  0  0  0  0
 25 45  1  0  0  0  0
 26 46  1  0  0  0  0
 26 25  1  0  0  0  0
 27 26  2  0  0  0  0
 28 27  1  0  0  0  0
 28 23  2  0  0  0  0
 29  3  1  0  0  0  0
 32  7  1  0  0  0  0
 38 15  1  0  0  0  0
 40 18  1  0  0  0  0
 42 22  1  0  0  0  0
 43 22  1  0  0  0  0
 47 27  1  0  0  0  0
 48 28  1  0  0  0  0
M  END
>  <Pose>
1

>  <Score>
-6.68

$$$$
