
 OpenBabel03202209423D

 61 64  0  0  1  0  0  0  0  0999 V2000
  -47.4920  -64.3940   48.7210 B   0  0  0  0  0  0  0  0  0  0  0  0
  -48.4000  -64.3060   50.3980 C   0  0  0  0  0  0  0  0  0  0  0  0
  -47.9970  -64.9710   51.5150 C   0  0  0  0  0  0  0  0  0  0  0  0
  -48.6280  -64.9340   52.7470 C   0  0  0  0  0  0  0  0  0  0  0  0
  -49.7720  -64.1490   52.8530 C   0  0  0  0  0  0  0  0  0  0  0  0
  -50.2090  -63.4580   51.7390 C   0  0  0  0  0  0  0  0  0  0  0  0
  -49.5560  -63.5170   50.5200 C   0  0  0  0  0  0  0  0  0  0  0  0
  -48.0670  -65.7340   53.8410 C   0  0  1  0  0  0  0  0  0  0  0  0
  -48.7310  -66.9780   53.9530 N   0  0  0  0  0  0  0  0  0  0  0  0
  -47.8340  -68.0290   53.6340 C   0  0  0  0  0  0  0  0  0  0  0  0
  -48.1510  -69.2570   53.5500 O   0  0  0  0  0  0  0  0  0  0  0  0
  -46.5170  -67.4650   53.4320 C   0  0  0  0  0  0  0  0  0  0  0  0
  -45.5270  -68.1850   53.1320 O   0  0  0  0  0  0  0  0  0  0  0  0
  -46.6260  -66.0330   53.6320 C   0  0  0  0  0  0  0  0  0  0  0  0
  -45.6170  -65.1930   53.5750 C   0  0  0  0  0  0  0  0  0  0  0  0
  -45.8580  -63.8460   53.7170 O   0  0  0  0  0  0  0  0  0  0  0  0
  -44.2670  -65.6580   53.3750 C   0  0  0  0  0  0  0  0  0  0  0  0
  -43.4450  -65.2480   52.3100 C   0  0  0  0  0  0  0  0  0  0  0  0
  -42.2460  -65.8310   52.4330 N   0  0  0  0  0  0  0  0  0  0  0  0
  -42.2890  -66.5790   53.5200 N   0  0  0  0  0  0  0  0  0  0  0  0
  -43.4880  -66.5010   54.1170 C   0  0  0  0  0  0  0  0  0  0  0  0
  -41.1230  -65.6760   51.5770 C   0  0  0  0  0  0  0  0  0  0  0  0
  -40.7420  -64.3950   51.2000 C   0  0  0  0  0  0  0  0  0  0  0  0
  -39.6540  -64.1700   50.3800 C   0  0  0  0  0  0  0  0  0  0  0  0
  -38.8890  -65.2310   49.8940 C   0  0  0  0  0  0  0  0  0  0  0  0
  -39.2690  -66.5070   50.2700 C   0  0  0  0  0  0  0  0  0  0  0  0
  -40.3540  -66.7040   51.0850 C   0  0  0  0  0  0  0  0  0  0  0  0
  -43.8830  -64.3070   51.2380 C   0  0  0  0  0  0  0  0  0  0  0  0
  -50.1450  -67.2030   54.3630 C   0  0  0  0  0  0  0  0  0  0  0  0
  -50.1830  -68.0920   55.5800 C   0  0  0  0  0  0  0  0  0  0  0  0
  -50.1030  -67.3400   56.8710 C   0  0  0  0  0  0  0  0  0  0  0  0
  -49.8780  -68.1200   58.0420 N   0  0  0  0  0  4  0  0  0  0  0  0
  -51.0310  -68.6970   58.6520 C   0  0  0  0  0  0  0  0  0  0  0  0
  -48.9350  -69.2120   57.7500 C   0  0  0  0  0  0  0  0  0  0  0  0
  -47.0860  -65.5890   51.3940 H   0  0  0  0  0  0  0  0  0  0  0  0
  -50.2910  -64.0980   53.7930 H   0  0  0  0  0  0  0  0  0  0  0  0
  -51.1080  -62.8420   51.8270 H   0  0  0  0  0  0  0  0  0  0  0  0
  -49.8980  -62.9780   49.6430 H   0  0  0  0  0  0  0  0  0  0  0  0
  -48.2080  -65.1740   54.8010 H   0  0  0  0  0  0  0  0  0  0  0  0
  -43.7880  -67.0050   55.0380 H   0  0  0  0  0  0  0  0  0  0  0  0
  -41.3610  -63.5730   51.5980 H   0  0  0  0  0  0  0  0  0  0  0  0
  -39.3800  -63.1580   50.1080 H   0  0  0  0  0  0  0  0  0  0  0  0
  -38.0350  -65.0250   49.2450 H   0  0  0  0  0  0  0  0  0  0  0  0
  -38.6620  -67.3270   49.8810 H   0  0  0  0  0  0  0  0  0  0  0  0
  -40.6120  -67.7180   51.3560 H   0  0  0  0  0  0  0  0  0  0  0  0
  -44.5290  -63.5020   51.6630 H   0  0  0  0  0  0  0  0  0  0  0  0
  -44.3640  -64.8370   50.3950 H   0  0  0  0  0  0  0  0  0  0  0  0
  -42.9940  -63.7780   50.8170 H   0  0  0  0  0  0  0  0  0  0  0  0
  -50.6580  -66.2330   54.4980 H   0  0  0  0  0  0  0  0  0  0  0  0
  -50.6330  -67.7940   53.5350 H   0  0  0  0  0  0  0  0  0  0  0  0
  -51.2290  -68.5280   55.5660 H   0  0  0  0  0  0  0  0  0  0  0  0
  -49.5290  -68.9620   55.5000 H   0  0  0  0  0  0  0  0  0  0  0  0
  -51.0530  -66.7440   57.0490 H   0  0  0  0  0  0  0  0  0  0  0  0
  -49.2980  -66.5500   56.7960 H   0  0  0  0  0  0  0  0  0  0  0  0
  -49.3730  -67.5300   58.7710 H   0  0  0  0  0  0  0  0  0  0  0  0
  -50.9330  -69.8100   58.7740 H   0  0  0  0  0  0  0  0  0  0  0  0
  -52.0100  -68.4230   58.2130 H   0  0  0  0  0  0  0  0  0  0  0  0
  -51.0880  -68.3200   59.7150 H   0  0  0  0  0  0  0  0  0  0  0  0
  -48.0340  -69.1500   58.3830 H   0  0  0  0  0  0  0  0  0  0  0  0
  -48.6370  -69.1050   56.6830 H   0  0  0  0  0  0  0  0  0  0  0  0
  -49.4520  -70.1950   57.8340 H   0  0  0  0  0  0  0  0  0  0  0  0
  1  2  1  0  0  0  0
  2  7  2  0  0  0  0
  2  3  1  0  0  0  0
  3  4  2  0  0  0  0
  4  5  1  0  0  0  0
  4  8  1  0  0  0  0
  5 36  1  0  0  0  0
  6 37  1  0  0  0  0
  6  5  2  0  0  0  0
  7  6  1  0  0  0  0
  8  9  1  0  0  0  0
  8 39  1  1  0  0  0
  9 29  1  0  0  0  0
 10  9  1  0  0  0  0
 11 10  2  0  0  0  0
 12 14  1  0  0  0  0
 12 10  1  0  0  0  0
 13 12  2  0  0  0  0
 14  8  1  0  0  0  0
 15 14  2  0  0  0  0
 15 16  1  0  0  0  0
 17 15  1  0  0  0  0
 17 21  1  0  0  0  0
 18 19  1  0  0  0  0
 18 17  2  0  0  0  0
 19 20  1  0  0  0  0
 20 21  2  0  0  0  0
 21 40  1  0  0  0  0
 22 19  1  0  0  0  0
 23 22  1  0  0  0  0
 23 41  1  0  0  0  0
 24 23  2  0  0  0  0
 25 26  2  0  0  0  0
 25 24  1  0  0  0  0
 26 27  1  0  0  0  0
 27 45  1  0  0  0  0
 27 22  2  0  0  0  0
 28 46  1  0  0  0  0
 28 18  1  0  0  0  0
 29 49  1  0  0  0  0
 29 30  1  0  0  0  0
 30 31  1  0  0  0  0
 31 53  1  0  0  0  0
 31 32  1  0  0  0  0
 32 33  1  0  0  0  0
 32 55  1  0  0  0  0
 33 56  1  0  0  0  0
 33 58  1  0  0  0  0
 34 61  1  0  0  0  0
 34 32  1  0  0  0  0
 34 59  1  0  0  0  0
 35  3  1  0  0  0  0
 38  7  1  0  0  0  0
 42 24  1  0  0  0  0
 43 25  1  0  0  0  0
 44 26  1  0  0  0  0
 47 28  1  0  0  0  0
 48 28  1  0  0  0  0
 50 29  1  0  0  0  0
 51 30  1  0  0  0  0
 52 30  1  0  0  0  0
 54 31  1  0  0  0  0
 57 33  1  0  0  0  0
 60 34  1  0  0  0  0
M  END
>  <Pose>
1

>  <Score>
-5.29

$$$$
