
 OpenBabel03202209423D

 60 63  0  0  1  0  0  0  0  0999 V2000
  -39.1750  -70.2080   54.0220 B   0  0  0  0  0  0  0  0  0  0  0  0
  -40.5360  -68.8720   53.9050 C   0  0  0  0  0  0  0  0  0  0  0  0
  -40.4330  -67.8770   52.9840 C   0  0  0  0  0  0  0  0  0  0  0  0
  -41.4210  -66.8920   52.8860 C   0  0  0  0  0  0  0  0  0  0  0  0
  -42.4920  -66.9640   53.7510 C   0  0  0  0  0  0  0  0  0  0  0  0
  -42.5960  -67.9810   54.6920 C   0  0  0  0  0  0  0  0  0  0  0  0
  -41.6080  -68.9350   54.7620 C   0  0  0  0  0  0  0  0  0  0  0  0
  -41.2450  -65.8450   51.8710 C   0  0  1  0  0  0  0  0  0  0  0  0
  -40.6060  -66.2900   50.6480 N   0  0  0  0  0  0  0  0  0  0  0  0
  -41.6110  -66.9230   49.8260 C   0  0  0  0  0  0  0  0  0  0  0  0
  -41.4440  -67.7680   48.9380 O   0  0  0  0  0  0  0  0  0  0  0  0
  -42.8740  -66.3460   50.2780 C   0  0  0  0  0  0  0  0  0  0  0  0
  -44.0460  -66.5900   49.8630 O   0  0  0  0  0  0  0  0  0  0  0  0
  -42.5820  -65.3960   51.3390 C   0  0  0  0  0  0  0  0  0  0  0  0
  -43.3280  -64.3950   51.7780 C   0  0  0  0  0  0  0  0  0  0  0  0
  -42.8370  -63.6430   52.8830 O   0  0  0  0  0  0  0  0  0  0  0  0
  -44.5890  -64.0610   51.1650 C   0  0  0  0  0  0  0  0  0  0  0  0
  -45.8310  -64.1830   51.6800 N   0  0  0  0  0  0  0  0  0  0  0  0
  -46.7210  -63.7150   50.7700 C   0  0  0  0  0  0  0  0  0  0  0  0
  -46.0510  -63.2890   49.6640 N   0  0  0  0  0  0  0  0  0  0  0  0
  -44.7400  -63.5080   49.9190 C   0  0  0  0  0  0  0  0  0  0  0  0
  -43.6410  -63.1860   48.9670 C   0  0  0  0  0  0  0  0  0  0  0  0
  -48.0800  -63.6960   50.9500 C   0  0  0  0  0  0  0  0  0  0  0  0
  -48.5740  -64.1890   52.1370 C   0  0  0  0  0  0  0  0  0  0  0  0
  -47.6720  -64.6680   53.0660 C   0  0  0  0  0  0  0  0  0  0  0  0
  -46.3230  -64.6620   52.8350 C   0  0  0  0  0  0  0  0  0  0  0  0
  -49.0130  -63.1670   49.9140 C   0  0  0  0  0  0  0  0  0  0  0  0
  -39.2050  -66.1400   50.2950 C   0  0  0  0  0  0  0  0  0  0  0  0
  -38.9450  -65.1380   49.2230 C   0  0  0  0  0  0  0  0  0  0  0  0
  -37.8370  -64.1610   49.5250 C   0  0  0  0  0  0  0  0  0  0  0  0
  -38.1990  -62.8480   49.0460 N   0  0  0  0  0  4  0  0  0  0  0  0
  -37.6440  -62.6190   47.7250 C   0  0  0  0  0  0  0  0  0  0  0  0
  -39.6410  -62.7950   48.9030 C   0  0  0  0  0  0  0  0  0  0  0  0
  -39.5610  -67.8760   52.3300 H   0  0  0  0  0  0  0  0  0  0  0  0
  -43.2840  -66.2100   53.7070 H   0  0  0  0  0  0  0  0  0  0  0  0
  -43.4500  -68.0280   55.3710 H   0  0  0  0  0  0  0  0  0  0  0  0
  -41.6780  -69.7360   55.4950 H   0  0  0  0  0  0  0  0  0  0  0  0
  -40.7060  -64.9860   52.3240 H   0  0  0  0  0  0  0  0  0  0  0  0
  -43.1370  -64.1030   48.6250 H   0  0  0  0  0  0  0  0  0  0  0  0
  -42.8970  -62.5090   49.4320 H   0  0  0  0  0  0  0  0  0  0  0  0
  -44.0270  -62.6740   48.0740 H   0  0  0  0  0  0  0  0  0  0  0  0
  -49.6530  -64.1950   52.3270 H   0  0  0  0  0  0  0  0  0  0  0  0
  -48.0760  -65.0640   54.0190 H   0  0  0  0  0  0  0  0  0  0  0  0
  -45.6210  -65.0450   53.5710 H   0  0  0  0  0  0  0  0  0  0  0  0
  -48.4520  -62.8970   49.0090 H   0  0  0  0  0  0  0  0  0  0  0  0
  -49.6000  -62.3070   50.3200 H   0  0  0  0  0  0  0  0  0  0  0  0
  -49.6860  -64.0260   49.6510 H   0  0  0  0  0  0  0  0  0  0  0  0
  -38.8560  -67.1280   49.9330 H   0  0  0  0  0  0  0  0  0  0  0  0
  -38.5910  -65.9060   51.1880 H   0  0  0  0  0  0  0  0  0  0  0  0
  -39.8640  -64.5650   48.9470 H   0  0  0  0  0  0  0  0  0  0  0  0
  -38.6480  -65.6640   48.2890 H   0  0  0  0  0  0  0  0  0  0  0  0
  -37.6520  -64.0590   50.6150 H   0  0  0  0  0  0  0  0  0  0  0  0
  -36.9030  -64.4650   49.0460 H   0  0  0  0  0  0  0  0  0  0  0  0
  -37.9440  -62.0920   49.7170 H   0  0  0  0  0  0  0  0  0  0  0  0
  -38.2750  -61.8780   47.1560 H   0  0  0  0  0  0  0  0  0  0  0  0
  -37.8000  -63.5840   47.1610 H   0  0  0  0  0  0  0  0  0  0  0  0
  -36.5850  -62.3520   47.7290 H   0  0  0  0  0  0  0  0  0  0  0  0
  -39.9700  -61.7780   48.5640 H   0  0  0  0  0  0  0  0  0  0  0  0
  -40.1630  -63.0970   49.8350 H   0  0  0  0  0  0  0  0  0  0  0  0
  -39.9170  -63.5170   48.1090 H   0  0  0  0  0  0  0  0  0  0  0  0
  2  1  1  0  0  0  0
  2  7  1  0  0  0  0
  3  2  2  0  0  0  0
  4  3  1  0  0  0  0
  4  5  2  0  0  0  0
  5  6  1  0  0  0  0
  6  7  2  0  0  0  0
  6 36  1  0  0  0  0
  7 37  1  0  0  0  0
  8 38  1  1  0  0  0
  8  4  1  0  0  0  0
  9  8  1  0  0  0  0
 10 12  1  0  0  0  0
 10  9  1  0  0  0  0
 11 10  2  0  0  0  0
 12 14  1  0  0  0  0
 13 12  2  0  0  0  0
 14 15  2  0  0  0  0
 14  8  1  0  0  0  0
 15 16  1  0  0  0  0
 17 18  1  0  0  0  0
 17 15  1  0  0  0  0
 18 26  1  0  0  0  0
 19 23  1  0  0  0  0
 19 18  1  0  0  0  0
 20 21  1  0  0  0  0
 20 19  2  0  0  0  0
 21 17  2  0  0  0  0
 22 40  1  0  0  0  0
 22 21  1  0  0  0  0
 23 24  2  0  0  0  0
 24 42  1  0  0  0  0
 24 25  1  0  0  0  0
 25 43  1  0  0  0  0
 26 25  2  0  0  0  0
 26 44  1  0  0  0  0
 27 46  1  0  0  0  0
 27 23  1  0  0  0  0
 28  9  1  0  0  0  0
 28 49  1  0  0  0  0
 29 30  1  0  0  0  0
 29 28  1  0  0  0  0
 30 52  1  0  0  0  0
 31 30  1  0  0  0  0
 31 54  1  0  0  0  0
 32 57  1  0  0  0  0
 32 31  1  0  0  0  0
 33 31  1  0  0  0  0
 33 59  1  0  0  0  0
 34  3  1  0  0  0  0
 35  5  1  0  0  0  0
 39 22  1  0  0  0  0
 41 22  1  0  0  0  0
 45 27  1  0  0  0  0
 47 27  1  0  0  0  0
 48 28  1  0  0  0  0
 50 29  1  0  0  0  0
 51 29  1  0  0  0  0
 53 30  1  0  0  0  0
 55 32  1  0  0  0  0
 56 32  1  0  0  0  0
 58 33  1  0  0  0  0
 60 33  1  0  0  0  0
M  END
>  <Pose>
1

>  <Score>
-5.63

$$$$
