
 OpenBabel03202209423D

 39 42  0  0  1  0  0  0  0  0999 V2000
  -39.3730  -66.1030   48.1740 B   0  0  0  0  0  0  0  0  0  0  0  0
  -40.3730  -66.0090   49.8140 C   0  0  0  0  0  0  0  0  0  0  0  0
  -40.1920  -64.9730   50.6930 C   0  0  0  0  0  0  0  0  0  0  0  0
  -40.9400  -64.9360   51.8830 C   0  0  0  0  0  0  0  0  0  0  0  0
  -41.8440  -65.9130   52.1760 C   0  0  0  0  0  0  0  0  0  0  0  0
  -42.0170  -66.9460   51.2890 C   0  0  0  0  0  0  0  0  0  0  0  0
  -41.2740  -66.9940   50.0960 C   0  0  0  0  0  0  0  0  0  0  0  0
  -42.6400  -65.9000   53.4000 C   0  0  1  0  0  0  0  0  0  0  0  0
  -44.0010  -65.4320   53.2610 C   0  0  0  0  0  0  0  0  0  0  0  0
  -45.0480  -66.1290   53.7960 C   0  0  0  0  0  0  0  0  0  0  0  0
  -44.8580  -67.3390   54.5390 N   0  0  0  0  0  0  0  0  0  0  0  0
  -43.5120  -67.7710   54.6880 C   0  0  0  0  0  0  0  0  0  0  0  0
  -42.4950  -67.1230   54.1900 C   0  0  0  0  0  0  0  0  0  0  0  0
  -41.2380  -67.8390   54.5680 C   0  0  0  0  0  0  0  0  0  0  0  0
  -40.0860  -67.4380   54.2220 O   0  0  0  0  0  0  0  0  0  0  0  0
  -41.6250  -68.9130   55.2990 O   0  0  0  0  0  0  0  0  0  0  0  0
  -43.0050  -69.0050   55.4120 C   0  0  0  0  0  0  0  0  0  0  0  0
  -46.3260  -65.6570   53.6320 N   0  0  0  0  0  0  0  0  0  0  0  0
  -46.5530  -64.5250   52.9560 C   0  0  0  0  0  0  0  0  0  0  0  0
  -47.7380  -64.1090   52.8180 O   0  0  0  0  0  0  0  0  0  0  0  0
  -45.5170  -63.8470   52.4350 N   0  0  0  0  0  0  0  0  0  0  0  0
  -44.2490  -64.2360   52.5480 C   0  0  0  0  0  0  0  0  0  0  0  0
  -43.2750  -63.6090   52.0650 O   0  0  0  0  0  0  0  0  0  0  0  0
  -45.8140  -62.6150   51.7030 C   0  0  0  0  0  0  0  0  0  0  0  0
  -47.3970  -66.4440   54.2240 C   0  0  0  0  0  0  0  0  0  0  0  0
  -39.4760  -64.2120   50.4460 H   0  0  0  0  0  0  0  0  0  0  0  0
  -40.7320  -64.0860   52.5230 H   0  0  0  0  0  0  0  0  0  0  0  0
  -42.7030  -67.7720   51.4180 H   0  0  0  0  0  0  0  0  0  0  0  0
  -41.3990  -67.8010   49.3860 H   0  0  0  0  0  0  0  0  0  0  0  0
  -42.1290  -65.0980   54.0580 H   0  0  0  0  0  0  0  0  0  0  0  0
  -45.6790  -67.8380   54.9260 H   0  0  0  0  0  0  0  0  0  0  0  0
  -43.3740  -69.0070   56.4560 H   0  0  0  0  0  0  0  0  0  0  0  0
  -43.3400  -69.9260   54.8890 H   0  0  0  0  0  0  0  0  0  0  0  0
  -44.9250  -61.9540   51.6710 H   0  0  0  0  0  0  0  0  0  0  0  0
  -46.6250  -62.0710   52.1960 H   0  0  0  0  0  0  0  0  0  0  0  0
  -46.1600  -62.9290   50.6990 H   0  0  0  0  0  0  0  0  0  0  0  0
  -48.3590  -65.9180   54.1530 H   0  0  0  0  0  0  0  0  0  0  0  0
  -47.3970  -67.4430   53.7780 H   0  0  0  0  0  0  0  0  0  0  0  0
  -47.1670  -66.5030   55.3280 H   0  0  0  0  0  0  0  0  0  0  0  0
  1  2  1  0  0  0  0
  2  7  2  0  0  0  0
  2  3  1  0  0  0  0
  3  4  2  0  0  0  0
  4  5  1  0  0  0  0
  4 27  1  0  0  0  0
  5  8  1  0  0  0  0
  6 28  1  0  0  0  0
  6  5  2  0  0  0  0
  7  6  1  0  0  0  0
  8 30  1  1  0  0  0
  8 13  1  0  0  0  0
  9  8  1  0  0  0  0
  9 10  2  0  0  0  0
 10 11  1  0  0  0  0
 11 12  1  0  0  0  0
 11 31  1  0  0  0  0
 12 17  1  0  0  0  0
 13 14  1  0  0  0  0
 13 12  2  0  0  0  0
 14 16  1  0  0  0  0
 15 14  2  0  0  0  0
 16 17  1  0  0  0  0
 17 32  1  0  0  0  0
 18 10  1  0  0  0  0
 18 25  1  0  0  0  0
 19 18  1  0  0  0  0
 20 19  2  0  0  0  0
 21 22  1  0  0  0  0
 21 19  1  0  0  0  0
 22  9  1  0  0  0  0
 23 22  2  0  0  0  0
 24 35  1  0  0  0  0
 24 21  1  0  0  0  0
 25 39  1  0  0  0  0
 26  3  1  0  0  0  0
 29  7  1  0  0  0  0
 33 17  1  0  0  0  0
 34 24  1  0  0  0  0
 36 24  1  0  0  0  0
 37 25  1  0  0  0  0
 38 25  1  0  0  0  0
M  END
>  <Pose>
1

>  <Score>
-5.33

$$$$
