
 OpenBabel03202209423D

 31 34  0  0  1  0  0  0  0  0999 V2000
  -40.8960  -68.9440   55.2790 B   0  0  0  0  0  0  0  0  0  0  0  0
  -40.4440  -68.4520   53.4840 C   0  0  0  0  0  0  0  0  0  0  0  0
  -41.2100  -67.4680   52.9020 C   0  0  0  0  0  0  0  0  0  0  0  0
  -40.8760  -67.1170   51.5930 C   0  0  0  0  0  0  0  0  0  0  0  0
  -39.8340  -67.7340   50.9420 C   0  0  0  0  0  0  0  0  0  0  0  0
  -39.0640  -68.7240   51.5290 C   0  0  0  0  0  0  0  0  0  0  0  0
  -39.3890  -69.0770   52.8240 C   0  0  0  0  0  0  0  0  0  0  0  0
  -37.9900  -69.3430   50.8300 N   0  0  0  0  0  0  0  0  0  0  0  0
  -38.1050  -70.5400   50.5170 O   0  0  0  0  0  0  0  0  0  0  0  0
  -36.8320  -68.7060   50.4770 O   0  0  0  0  0  0  0  0  0  0  0  0
  -42.2760  -66.8430   53.5990 N   0  0  0  0  0  0  0  0  0  0  0  0
  -43.1620  -67.3470   54.5820 C   0  0  0  0  0  0  0  0  0  0  0  0
  -42.9900  -68.3630   55.2870 O   0  0  0  0  0  0  0  0  0  0  0  0
  -44.3650  -66.4940   54.6800 C   0  0  2  0  0  0  0  0  0  0  0  0
  -45.4230  -67.1310   53.8060 C   0  0  2  0  0  0  0  0  0  0  0  0
  -44.9160  -66.7890   52.5240 O   0  0  0  0  0  0  0  0  0  0  0  0
  -44.9680  -65.3820   52.7080 C   0  0  2  0  0  0  0  0  0  0  0  0
  -44.0320  -65.2390   53.8780 C   0  0  2  0  0  0  0  0  0  0  0  0
  -42.6530  -65.4790   53.3970 C   0  0  0  0  0  0  0  0  0  0  0  0
  -41.8990  -64.5970   52.8720 O   0  0  0  0  0  0  0  0  0  0  0  0
  -46.3860  -65.2340   53.1010 C   0  0  0  0  0  0  0  0  0  0  0  0
  -46.6650  -66.3200   53.8170 C   0  0  0  0  0  0  0  0  0  0  0  0
  -41.4640  -66.3440   51.1050 H   0  0  0  0  0  0  0  0  0  0  0  0
  -39.5670  -67.4620   49.9150 H   0  0  0  0  0  0  0  0  0  0  0  0
  -38.8320  -69.8360   53.3340 H   0  0  0  0  0  0  0  0  0  0  0  0
  -44.6880  -66.2830   55.6940 H   0  0  0  0  0  0  0  0  0  0  0  0
  -45.5470  -68.1940   53.9500 H   0  0  0  0  0  0  0  0  0  0  0  0
  -44.6760  -64.8380   51.8160 H   0  0  0  0  0  0  0  0  0  0  0  0
  -44.1440  -64.3290   54.4610 H   0  0  0  0  0  0  0  0  0  0  0  0
  -47.0380  -64.4110   52.8490 H   0  0  0  0  0  0  0  0  0  0  0  0
  -47.6000  -66.5790   54.3150 H   0  0  0  0  0  0  0  0  0  0  0  0
  2  1  1  0  0  0  0
  3  2  1  0  0  0  0
  3 11  1  0  0  0  0
  4  3  2  0  0  0  0
  5  6  2  0  0  0  0
  5  4  1  0  0  0  0
  6  7  1  0  0  0  0
  7 25  1  0  0  0  0
  7  2  2  0  0  0  0
  8  6  1  0  0  0  0
  9  8  2  0  0  0  0
 10  8  2  0  0  0  0
 11 12  1  0  0  0  0
 12 14  1  0  0  0  0
 12 13  2  0  0  0  0
 14 26  1  1  0  0  0
 15 22  1  0  0  0  0
 15 27  1  1  0  0  0
 15 14  1  0  0  0  0
 16 17  1  0  0  0  0
 16 15  1  0  0  0  0
 17 28  1  6  0  0  0
 17 21  1  0  0  0  0
 17 18  1  0  0  0  0
 18 29  1  1  0  0  0
 18 14  1  0  0  0  0
 19 11  1  0  0  0  0
 19 18  1  0  0  0  0
 20 19  2  0  0  0  0
 21 22  2  0  0  0  0
 22 31  1  0  0  0  0
 23  4  1  0  0  0  0
 24  5  1  0  0  0  0
 30 21  1  0  0  0  0
M  END
>  <Pose>
1

>  <Score>
-6.09

$$$$
