
 OpenBabel03202209423D

 52 55  0  0  1  0  0  0  0  0999 V2000
  -49.0320  -68.7200   53.6380 B   0  0  0  0  0  0  0  0  0  0  0  0
  -47.5820  -67.4380   53.5960 C   0  0  0  0  0  0  0  0  0  0  0  0
  -46.3270  -67.7840   54.0070 C   0  0  0  0  0  0  0  0  0  0  0  0
  -45.2830  -66.9040   53.9970 C   0  0  0  0  0  0  0  0  0  0  0  0
  -45.5700  -65.6100   53.5360 C   0  0  0  0  0  0  0  0  0  0  0  0
  -46.8140  -65.2270   53.1160 C   0  0  0  0  0  0  0  0  0  0  0  0
  -47.8240  -66.1590   53.1500 C   0  0  0  0  0  0  0  0  0  0  0  0
  -43.9380  -67.1860   54.4280 C   0  0  2  0  0  0  0  0  0  0  0  0
  -43.8230  -68.3120   55.0950 O   0  0  0  0  0  0  0  0  0  0  0  0
  -42.6950  -66.4260   54.2440 C   0  0  0  0  0  0  0  0  0  0  0  0
  -41.7970  -66.9970   53.2630 N   0  0  0  0  0  0  0  0  0  0  0  0
  -40.9590  -68.0560   53.5100 C   0  0  0  0  0  0  0  0  0  0  0  0
  -40.2370  -68.2510   52.3690 C   0  0  0  0  0  0  0  0  0  0  0  0
  -39.2920  -69.2810   52.3230 C   0  0  0  0  0  0  0  0  0  0  0  0
  -39.1060  -70.0820   53.4290 C   0  0  0  0  0  0  0  0  0  0  0  0
  -39.8340  -69.8860   54.5830 C   0  0  0  0  0  0  0  0  0  0  0  0
  -40.7740  -68.8540   54.6180 C   0  0  0  0  0  0  0  0  0  0  0  0
  -40.6330  -67.3270   51.4660 N   0  0  0  0  0  0  0  0  0  0  0  0
  -41.5820  -66.5530   51.9960 C   0  0  2  0  0  0  0  0  0  0  0  0
  -42.1250  -65.5000   51.4270 N   0  0  0  0  0  0  0  0  0  0  0  0
  -40.0240  -67.2340   50.1500 C   0  0  0  0  0  0  0  0  0  0  0  0
  -39.4430  -65.9270   49.7990 C   0  0  0  0  0  0  0  0  0  0  0  0
  -39.5030  -65.4750   48.4550 N   0  0  0  0  0  0  0  0  0  0  0  0
  -38.1800  -64.9550   48.0230 C   0  0  0  0  0  0  0  0  0  0  0  0
  -37.6790  -63.8740   48.9240 C   0  0  0  0  0  0  0  0  0  0  0  0
  -38.5230  -62.7760   48.7500 O   0  0  0  0  0  0  0  0  0  0  0  0
  -39.8300  -63.0870   49.0290 C   0  0  0  0  0  0  0  0  0  0  0  0
  -40.3660  -64.2920   48.3050 C   0  0  0  0  0  0  0  0  0  0  0  0
  -46.1820  -68.7840   54.3330 H   0  0  0  0  0  0  0  0  0  0  0  0
  -44.8040  -64.8380   53.4880 H   0  0  0  0  0  0  0  0  0  0  0  0
  -47.0080  -64.2020   52.7610 H   0  0  0  0  0  0  0  0  0  0  0  0
  -48.8230  -65.8690   52.8170 H   0  0  0  0  0  0  0  0  0  0  0  0
  -42.9130  -65.3510   53.9490 H   0  0  0  0  0  0  0  0  0  0  0  0
  -42.1400  -66.3890   55.2300 H   0  0  0  0  0  0  0  0  0  0  0  0
  -38.7280  -69.4290   51.4080 H   0  0  0  0  0  0  0  0  0  0  0  0
  -38.3740  -70.8700   53.3660 H   0  0  0  0  0  0  0  0  0  0  0  0
  -39.6710  -70.5280   55.4370 H   0  0  0  0  0  0  0  0  0  0  0  0
  -41.3310  -68.7000   55.5220 H   0  0  0  0  0  0  0  0  0  0  0  0
  -41.9270  -65.2170   50.4710 H   0  0  0  0  0  0  0  0  0  0  0  0
  -42.7590  -64.9140   51.9870 H   0  0  0  0  0  0  0  0  0  0  0  0
  -39.2820  -68.0550   50.0450 H   0  0  0  0  0  0  0  0  0  0  0  0
  -40.8130  -67.4700   49.3980 H   0  0  0  0  0  0  0  0  0  0  0  0
  -38.3860  -65.8660   50.2150 H   0  0  0  0  0  0  0  0  0  0  0  0
  -39.9790  -65.1560   50.4330 H   0  0  0  0  0  0  0  0  0  0  0  0
  -37.4650  -65.7810   47.8700 H   0  0  0  0  0  0  0  0  0  0  0  0
  -38.3840  -64.5010   47.0360 H   0  0  0  0  0  0  0  0  0  0  0  0
  -36.6810  -63.5700   48.5460 H   0  0  0  0  0  0  0  0  0  0  0  0
  -37.5540  -64.1420   49.9730 H   0  0  0  0  0  0  0  0  0  0  0  0
  -40.4410  -62.2120   48.6570 H   0  0  0  0  0  0  0  0  0  0  0  0
  -39.9650  -63.1400   50.1300 H   0  0  0  0  0  0  0  0  0  0  0  0
  -41.3930  -64.4510   48.6130 H   0  0  0  0  0  0  0  0  0  0  0  0
  -40.2800  -64.0450   47.2020 H   0  0  0  0  0  0  0  0  0  0  0  0
  2  1  1  0  0  0  0
  2  3  1  0  0  0  0
  3 29  1  0  0  0  0
  4  3  2  0  0  0  0
  4  8  1  0  0  0  0
  5  4  1  0  0  0  0
  6  7  1  0  0  0  0
  6  5  2  0  0  0  0
  7  2  2  0  0  0  0
  8  9  1  1  0  0  0
 10  8  1  0  0  0  0
 10 34  1  0  0  0  0
 11 12  1  0  0  0  0
 11 10  1  0  0  0  0
 12 17  1  0  0  0  0
 13 12  2  0  0  0  0
 14 13  1  0  0  0  0
 14 15  2  0  0  0  0
 15 16  1  0  0  0  0
 16 17  2  0  0  0  0
 16 37  1  0  0  0  0
 17 38  1  0  0  0  0
 18 19  1  0  0  0  0
 18 13  1  0  0  0  0
 19 20  1  1  0  0  0
 19 11  1  0  0  0  0
 20 40  1  0  0  0  0
 21 18  1  0  0  0  0
 22 21  1  0  0  0  0
 22 43  1  0  0  0  0
 22 44  1  0  0  0  0
 23 22  1  0  0  0  0
 24 23  1  0  0  0  0
 24 25  1  0  0  0  0
 25 48  1  0  0  0  0
 26 25  1  0  0  0  0
 26 27  1  0  0  0  0
 27 50  1  0  0  0  0
 28 23  1  0  0  0  0
 28 51  1  0  0  0  0
 28 27  1  0  0  0  0
 30  5  1  0  0  0  0
 31  6  1  0  0  0  0
 32  7  1  0  0  0  0
 33 10  1  0  0  0  0
 35 14  1  0  0  0  0
 36 15  1  0  0  0  0
 39 20  1  0  0  0  0
 41 21  1  0  0  0  0
 42 21  1  0  0  0  0
 45 24  1  0  0  0  0
 46 24  1  0  0  0  0
 47 25  1  0  0  0  0
 49 27  1  0  0  0  0
 52 28  1  0  0  0  0
M  END
>  <Pose>
1

>  <Score>
-6.59

$$$$
