
 OpenBabel03202209423D

 51 54  0  0  1  0  0  0  0  0999 V2000
  -39.1250  -70.5370   53.7350 B   0  0  0  0  0  0  0  0  0  0  0  0
  -40.3180  -69.0430   53.6170 C   0  0  0  0  0  0  0  0  0  0  0  0
  -40.5670  -68.4090   52.4250 C   0  0  0  0  0  0  0  0  0  0  0  0
  -41.4260  -67.3420   52.3670 C   0  0  0  0  0  0  0  0  0  0  0  0
  -42.0950  -66.8340   53.4960 C   0  0  0  0  0  0  0  0  0  0  0  0
  -41.8340  -67.4770   54.6660 C   0  0  0  0  0  0  0  0  0  0  0  0
  -40.9690  -68.5520   54.7250 C   0  0  0  0  0  0  0  0  0  0  0  0
  -42.9580  -65.6940   53.3100 C   0  0  1  0  0  0  0  0  0  0  0  0
  -42.8450  -64.9280   52.1050 N   0  0  0  0  0  0  0  0  0  0  0  0
  -44.0180  -64.0610   52.1420 C   0  0  0  0  0  0  0  0  0  0  0  0
  -44.1310  -62.9490   51.5810 O   0  0  0  0  0  0  0  0  0  0  0  0
  -45.0270  -64.7260   52.9450 C   0  0  0  0  0  0  0  0  0  0  0  0
  -46.1950  -64.3350   53.2430 O   0  0  0  0  0  0  0  0  0  0  0  0
  -44.4180  -65.9900   53.3700 C   0  0  0  0  0  0  0  0  0  0  0  0
  -45.0590  -67.0640   53.7420 C   0  0  0  0  0  0  0  0  0  0  0  0
  -44.3140  -68.1680   54.1730 O   0  0  0  0  0  0  0  0  0  0  0  0
  -46.5330  -67.1370   53.7090 C   0  0  0  0  0  0  0  0  0  0  0  0
  -47.3020  -67.6090   54.6850 O   0  0  0  0  0  0  0  0  0  0  0  0
  -48.5690  -67.5480   54.3690 C   0  0  0  0  0  0  0  0  0  0  0  0
  -48.7080  -67.0090   53.1070 C   0  0  0  0  0  0  0  0  0  0  0  0
  -47.4040  -66.7600   52.7150 C   0  0  0  0  0  0  0  0  0  0  0  0
  -49.9550  -66.8420   52.5480 C   0  0  0  0  0  0  0  0  0  0  0  0
  -51.1190  -67.1940   53.1960 C   0  0  0  0  0  0  0  0  0  0  0  0
  -50.9850  -67.7370   54.4610 C   0  0  0  0  0  0  0  0  0  0  0  0
  -49.7450  -67.9110   55.0340 C   0  0  0  0  0  0  0  0  0  0  0  0
  -41.8460  -64.8600   51.0620 C   0  0  0  0  0  0  0  0  0  0  0  0
  -40.4800  -64.4610   51.4330 C   0  0  0  0  0  0  0  0  0  0  0  0
  -39.6410  -63.9270   50.3910 N   0  0  0  0  0  4  0  0  0  0  0  0
  -38.6670  -64.8730   49.9270 C   0  0  0  0  0  0  0  0  0  0  0  0
  -40.3390  -63.2220   49.3540 C   0  0  0  0  0  0  0  0  0  0  0  0
  -40.0640  -68.7820   51.5430 H   0  0  0  0  0  0  0  0  0  0  0  0
  -41.5750  -66.8880   51.3910 H   0  0  0  0  0  0  0  0  0  0  0  0
  -42.2870  -67.1380   55.5730 H   0  0  0  0  0  0  0  0  0  0  0  0
  -40.7800  -69.0460   55.6800 H   0  0  0  0  0  0  0  0  0  0  0  0
  -42.8050  -64.9450   54.1480 H   0  0  0  0  0  0  0  0  0  0  0  0
  -47.1090  -66.3430   51.7650 H   0  0  0  0  0  0  0  0  0  0  0  0
  -50.0420  -66.4190   51.5610 H   0  0  0  0  0  0  0  0  0  0  0  0
  -52.1100  -67.0730   52.7770 H   0  0  0  0  0  0  0  0  0  0  0  0
  -51.8620  -68.0320   55.0190 H   0  0  0  0  0  0  0  0  0  0  0  0
  -49.6380  -68.3340   56.0240 H   0  0  0  0  0  0  0  0  0  0  0  0
  -42.2030  -64.2360   50.2020 H   0  0  0  0  0  0  0  0  0  0  0  0
  -41.7820  -65.9020   50.6160 H   0  0  0  0  0  0  0  0  0  0  0  0
  -39.9280  -65.3180   51.8630 H   0  0  0  0  0  0  0  0  0  0  0  0
  -40.5440  -63.6520   52.2210 H   0  0  0  0  0  0  0  0  0  0  0  0
  -39.0600  -63.1740   50.8980 H   0  0  0  0  0  0  0  0  0  0  0  0
  -38.7970  -65.7920   50.5290 H   0  0  0  0  0  0  0  0  0  0  0  0
  -38.6810  -65.0390   48.8290 H   0  0  0  0  0  0  0  0  0  0  0  0
  -37.6040  -64.5580   50.1380 H   0  0  0  0  0  0  0  0  0  0  0  0
  -41.4300  -63.1530   49.4900 H   0  0  0  0  0  0  0  0  0  0  0  0
  -40.0030  -62.1450   49.2700 H   0  0  0  0  0  0  0  0  0  0  0  0
  -40.0640  -63.6380   48.3390 H   0  0  0  0  0  0  0  0  0  0  0  0
  2  1  1  0  0  0  0
  2  7  1  0  0  0  0
  3  2  2  0  0  0  0
  4  3  1  0  0  0  0
  4  5  2  0  0  0  0
  5  6  1  0  0  0  0
  6  7  2  0  0  0  0
  6 33  1  0  0  0  0
  7 34  1  0  0  0  0
  8 14  1  0  0  0  0
  8  5  1  0  0  0  0
  8 35  1  1  0  0  0
  9 10  1  0  0  0  0
  9  8  1  0  0  0  0
 10 12  1  0  0  0  0
 11 10  2  0  0  0  0
 12 13  2  0  0  0  0
 12 14  1  0  0  0  0
 14 15  2  0  0  0  0
 15 16  1  0  0  0  0
 17 15  1  0  0  0  0
 17 18  1  0  0  0  0
 19 18  1  0  0  0  0
 19 25  1  0  0  0  0
 20 19  2  0  0  0  0
 21 20  1  0  0  0  0
 21 17  2  0  0  0  0
 22 20  1  0  0  0  0
 22 23  2  0  0  0  0
 23 24  1  0  0  0  0
 24 39  1  0  0  0  0
 24 25  2  0  0  0  0
 25 40  1  0  0  0  0
 26 27  1  0  0  0  0
 26  9  1  0  0  0  0
 27 43  1  0  0  0  0
 27 44  1  0  0  0  0
 28 45  1  0  0  0  0
 28 27  1  0  0  0  0
 29 48  1  0  0  0  0
 29 28  1  0  0  0  0
 29 46  1  0  0  0  0
 30 49  1  0  0  0  0
 30 28  1  0  0  0  0
 31  3  1  0  0  0  0
 32  4  1  0  0  0  0
 36 21  1  0  0  0  0
 37 22  1  0  0  0  0
 38 23  1  0  0  0  0
 41 26  1  0  0  0  0
 42 26  1  0  0  0  0
 47 29  1  0  0  0  0
 50 30  1  0  0  0  0
 51 30  1  0  0  0  0
M  END
>  <Pose>
1

>  <Score>
-6.16

$$$$
