
 OpenBabel03202209423D

 55 58  0  0  1  0  0  0  0  0999 V2000
  -47.0280  -74.0970   61.0560 B   0  0  0  0  0  0  0  0  0  0  0  0
  -47.7820  -72.5540   60.2060 C   0  0  0  0  0  0  0  0  0  0  0  0
  -47.0400  -71.3950   60.1630 C   0  0  0  0  0  0  0  0  0  0  0  0
  -47.5640  -70.2760   59.5570 C   0  0  0  0  0  0  0  0  0  0  0  0
  -48.8220  -70.2330   58.9710 C   0  0  0  0  0  0  0  0  0  0  0  0
  -49.5370  -71.4080   59.0310 C   0  0  0  0  0  0  0  0  0  0  0  0
  -49.0190  -72.5580   59.6450 C   0  0  0  0  0  0  0  0  0  0  0  0
  -49.2610  -69.0520   58.3840 N   0  0  0  0  0  0  0  0  0  0  0  0
  -49.7510  -68.8430   57.0820 C   0  0  0  0  0  0  0  0  0  0  0  0
  -50.4850  -69.6870   56.5300 O   0  0  0  0  0  0  0  0  0  0  0  0
  -49.4340  -67.6250   56.2920 C   0  0  0  0  0  0  0  0  0  0  0  0
  -48.1550  -67.7430   55.6560 N   0  0  0  0  0  0  0  0  0  0  0  0
  -47.8600  -67.2000   54.3810 C   0  0  0  0  0  0  0  0  0  0  0  0
  -48.3520  -67.7720   53.3710 O   0  0  0  0  0  0  0  0  0  0  0  0
  -46.9950  -65.9960   54.2690 C   0  0  2  0  0  0  0  0  0  0  0  0
  -47.5750  -65.1220   53.4270 O   0  0  0  0  0  0  0  0  0  0  0  0
  -46.7860  -64.2490   52.7480 C   0  0  2  0  0  0  0  0  0  0  0  0
  -47.5490  -63.7070   51.7040 O   0  0  0  0  0  0  0  0  0  0  0  0
  -47.4000  -64.5300   50.6140 C   0  0  0  0  0  0  0  0  0  0  0  0
  -46.4040  -65.4470   50.8820 O   0  0  0  0  0  0  0  0  0  0  0  0
  -45.6740  -64.9120   51.9690 C   0  0  2  0  0  0  0  0  0  0  0  0
  -44.9780  -65.9590   52.7500 C   0  0  1  0  0  0  0  0  0  0  0  0
  -43.6690  -65.5560   53.1000 O   0  0  0  0  0  0  0  0  0  0  0  0
  -43.4600  -65.9260   54.4040 C   0  0  0  0  0  0  0  0  0  0  0  0
  -44.7010  -65.8630   54.9810 O   0  0  0  0  0  0  0  0  0  0  0  0
  -45.5840  -66.3760   54.0190 C   0  0  1  0  0  0  0  0  0  0  0  0
  -42.5060  -64.8900   55.0120 C   0  0  0  0  0  0  0  0  0  0  0  0
  -42.7770  -67.2610   54.5490 C   0  0  0  0  0  0  0  0  0  0  0  0
  -46.9570  -63.7560   49.3720 C   0  0  0  0  0  0  0  0  0  0  0  0
  -48.6920  -65.2360   50.2360 C   0  0  0  0  0  0  0  0  0  0  0  0
  -46.0320  -71.3630   60.6110 H   0  0  0  0  0  0  0  0  0  0  0  0
  -46.9360  -69.3960   59.5540 H   0  0  0  0  0  0  0  0  0  0  0  0
  -50.5090  -71.4710   58.6110 H   0  0  0  0  0  0  0  0  0  0  0  0
  -49.6240  -73.4390   59.6590 H   0  0  0  0  0  0  0  0  0  0  0  0
  -49.2240  -68.1750   58.9990 H   0  0  0  0  0  0  0  0  0  0  0  0
  -50.1980  -67.5780   55.4620 H   0  0  0  0  0  0  0  0  0  0  0  0
  -49.5640  -66.6910   56.8660 H   0  0  0  0  0  0  0  0  0  0  0  0
  -47.4000  -68.2560   56.1580 H   0  0  0  0  0  0  0  0  0  0  0  0
  -47.0200  -65.5350   55.3040 H   0  0  0  0  0  0  0  0  0  0  0  0
  -46.4170  -63.3830   53.3350 H   0  0  0  0  0  0  0  0  0  0  0  0
  -45.0010  -64.1040   51.6130 H   0  0  0  0  0  0  0  0  0  0  0  0
  -44.8140  -66.8400   52.0620 H   0  0  0  0  0  0  0  0  0  0  0  0
  -45.4930  -67.4890   54.1120 H   0  0  0  0  0  0  0  0  0  0  0  0
  -42.1690  -65.2910   55.9760 H   0  0  0  0  0  0  0  0  0  0  0  0
  -42.9850  -63.9020   55.0720 H   0  0  0  0  0  0  0  0  0  0  0  0
  -41.6550  -64.8130   54.3040 H   0  0  0  0  0  0  0  0  0  0  0  0
  -43.0740  -67.8150   55.4410 H   0  0  0  0  0  0  0  0  0  0  0  0
  -42.9370  -67.8930   53.6500 H   0  0  0  0  0  0  0  0  0  0  0  0
  -41.6560  -67.1400   54.6170 H   0  0  0  0  0  0  0  0  0  0  0  0
  -47.5370  -62.8270   49.3180 H   0  0  0  0  0  0  0  0  0  0  0  0
  -45.8600  -63.6150   49.3570 H   0  0  0  0  0  0  0  0  0  0  0  0
  -47.2320  -64.3890   48.5010 H   0  0  0  0  0  0  0  0  0  0  0  0
  -49.0830  -64.9030   49.2530 H   0  0  0  0  0  0  0  0  0  0  0  0
  -49.4900  -65.0460   50.9940 H   0  0  0  0  0  0  0  0  0  0  0  0
  -48.5410  -66.3410   50.1500 H   0  0  0  0  0  0  0  0  0  0  0  0
  2  1  1  0  0  0  0
  3  2  1  0  0  0  0
  3 31  1  0  0  0  0
  4  3  2  0  0  0  0
  5  6  2  0  0  0  0
  5  4  1  0  0  0  0
  6  7  1  0  0  0  0
  7 34  1  0  0  0  0
  7  2  2  0  0  0  0
  8  5  1  0  0  0  0
  8 35  1  0  0  0  0
  9  8  1  0  0  0  0
 10  9  2  0  0  0  0
 11 37  1  0  0  0  0
 11  9  1  0  0  0  0
 12 38  1  0  0  0  0
 12 11  1  0  0  0  0
 13 12  1  0  0  0  0
 14 13  2  0  0  0  0
 15 13  1  0  0  0  0
 15 39  1  1  0  0  0
 16 15  1  0  0  0  0
 17 40  1  1  0  0  0
 17 16  1  0  0  0  0
 18 17  1  0  0  0  0
 19 20  1  0  0  0  0
 19 18  1  0  0  0  0
 20 21  1  0  0  0  0
 21 41  1  6  0  0  0
 21 17  1  0  0  0  0
 21 22  1  0  0  0  0
 22 42  1  6  0  0  0
 22 23  1  0  0  0  0
 22 26  1  0  0  0  0
 23 24  1  0  0  0  0
 24 28  1  0  0  0  0
 24 25  1  0  0  0  0
 24 27  1  0  0  0  0
 26 43  1  1  0  0  0
 26 15  1  0  0  0  0
 26 25  1  0  0  0  0
 27 45  1  0  0  0  0
 27 44  1  0  0  0  0
 28 49  1  0  0  0  0
 28 47  1  0  0  0  0
 29 19  1  0  0  0  0
 30 19  1  0  0  0  0
 30 54  1  0  0  0  0
 32  4  1  0  0  0  0
 33  6  1  0  0  0  0
 36 11  1  0  0  0  0
 46 27  1  0  0  0  0
 48 28  1  0  0  0  0
 50 29  1  0  0  0  0
 51 29  1  0  0  0  0
 52 29  1  0  0  0  0
 53 30  1  0  0  0  0
 55 30  1  0  0  0  0
M  END
>  <Pose>
1

>  <Score>
-6.18

$$$$
