
 OpenBabel03202209423D

 50 53  0  0  1  0  0  0  0  0999 V2000
  -38.4920  -70.3430   54.0740 Cl  0  0  0  0  0  0  0  0  0  0  0  0
  -39.8590  -69.2440   53.9410 C   0  0  0  0  0  0  0  0  0  0  0  0
  -40.0400  -68.4530   52.8270 C   0  0  0  0  0  0  0  0  0  0  0  0
  -41.1160  -67.5900   52.7290 C   0  0  0  0  0  0  0  0  0  0  0  0
  -42.0600  -67.4770   53.7310 C   0  0  0  0  0  0  0  0  0  0  0  0
  -41.8820  -68.2690   54.8460 C   0  0  0  0  0  0  0  0  0  0  0  0
  -40.7940  -69.1430   54.9500 C   0  0  0  0  0  0  0  0  0  0  0  0
  -43.1890  -66.5580   53.5990 C   0  0  0  0  0  0  0  0  0  0  0  0
  -43.3740  -65.5280   52.7400 N   0  0  0  0  0  0  0  0  0  0  0  0
  -44.5740  -64.9670   52.9940 C   0  0  1  0  0  0  0  0  0  0  0  0
  -45.1870  -65.6120   54.0100 N   0  0  0  0  0  0  0  0  0  0  0  0
  -44.3260  -66.5880   54.3750 C   0  0  0  0  0  0  0  0  0  0  0  0
  -46.4820  -65.3380   54.6010 C   0  0  0  0  0  0  0  0  0  0  0  0
  -47.4350  -66.4330   54.2620 C   0  0  0  0  0  0  0  0  0  0  0  0
  -47.8220  -66.5190   53.0950 O   0  0  0  0  0  0  0  0  0  0  0  0
  -47.8330  -67.2940   55.2860 N   0  0  0  0  0  0  0  0  0  0  0  0
  -48.7950  -68.3270   55.1470 C   0  0  0  0  0  0  0  0  0  0  0  0
  -49.2610  -68.9750   56.2980 C   0  0  0  0  0  0  0  0  0  0  0  0
  -50.1680  -69.9810   56.2000 C   0  0  0  0  0  0  0  0  0  0  0  0
  -50.6560  -70.3930   54.9700 C   0  0  0  0  0  0  0  0  0  0  0  0
  -50.1950  -69.7550   53.8530 C   0  0  0  0  0  0  0  0  0  0  0  0
  -49.2600  -68.7150   53.9220 C   0  0  0  0  0  0  0  0  0  0  0  0
  -51.6470  -71.4950   54.8870 C   0  0  0  0  0  0  0  0  0  0  0  0
  -50.9520  -72.7150   54.2750 C   0  0  0  0  0  0  0  0  0  0  0  0
  -44.8040  -63.8310   52.0650 C   0  0  0  0  0  0  0  0  0  0  0  0
  -43.6370  -63.8090   51.1390 C   0  0  0  0  0  0  0  0  0  0  0  0
  -42.7090  -64.8470   51.6520 C   0  0  0  0  0  0  0  0  0  0  0  0
  -39.3050  -68.5360   52.0400 H   0  0  0  0  0  0  0  0  0  0  0  0
  -41.2370  -66.9760   51.8400 H   0  0  0  0  0  0  0  0  0  0  0  0
  -42.5920  -68.2190   55.6580 H   0  0  0  0  0  0  0  0  0  0  0  0
  -40.6530  -69.7600   55.8180 H   0  0  0  0  0  0  0  0  0  0  0  0
  -44.5190  -67.3080   55.1880 H   0  0  0  0  0  0  0  0  0  0  0  0
  -46.8560  -64.3500   54.2670 H   0  0  0  0  0  0  0  0  0  0  0  0
  -46.3160  -65.2550   55.6980 H   0  0  0  0  0  0  0  0  0  0  0  0
  -47.4080  -67.2160   56.2700 H   0  0  0  0  0  0  0  0  0  0  0  0
  -48.8830  -68.6570   57.2820 H   0  0  0  0  0  0  0  0  0  0  0  0
  -50.5350  -70.4930   57.1070 H   0  0  0  0  0  0  0  0  0  0  0  0
  -50.5430  -70.0370   52.8570 H   0  0  0  0  0  0  0  0  0  0  0  0
  -48.9320  -68.2620   52.9710 H   0  0  0  0  0  0  0  0  0  0  0  0
  -52.5060  -71.1800   54.2710 H   0  0  0  0  0  0  0  0  0  0  0  0
  -52.0000  -71.7710   55.8970 H   0  0  0  0  0  0  0  0  0  0  0  0
  -50.2440  -73.1360   54.9990 H   0  0  0  0  0  0  0  0  0  0  0  0
  -50.5090  -72.4200   53.3160 H   0  0  0  0  0  0  0  0  0  0  0  0
  -51.7200  -73.4940   54.0600 H   0  0  0  0  0  0  0  0  0  0  0  0
  -44.9390  -62.8800   52.6240 H   0  0  0  0  0  0  0  0  0  0  0  0
  -45.7310  -64.0250   51.4580 H   0  0  0  0  0  0  0  0  0  0  0  0
  -43.9650  -64.0190   50.0780 H   0  0  0  0  0  0  0  0  0  0  0  0
  -43.1620  -62.7800   51.1330 H   0  0  0  0  0  0  0  0  0  0  0  0
  -41.7480  -64.3900   51.9900 H   0  0  0  0  0  0  0  0  0  0  0  0
  -42.5440  -65.5850   50.8160 H   0  0  0  0  0  0  0  0  0  0  0  0
  2  1  1  0  0  0  0
  2  7  1  0  0  0  0
  3  2  2  0  0  0  0
  4  3  1  0  0  0  0
  4  5  2  0  0  0  0
  5  6  1  0  0  0  0
  6  7  2  0  0  0  0
  6 30  1  0  0  0  0
  7 31  1  0  0  0  0
  8  5  1  0  0  0  0
  8 12  2  0  0  0  0
  9 10  1  0  0  0  0
  9  8  1  0  0  0  0
 10 25  1  1  0  0  0
 10 11  1  0  0  0  0
 11 12  1  0  0  0  0
 11 13  1  0  0  0  0
 12 32  1  0  0  0  0
 13 34  1  0  0  0  0
 14 13  1  0  0  0  0
 14 16  1  0  0  0  0
 15 14  2  0  0  0  0
 16 35  1  0  0  0  0
 17 16  1  0  0  0  0
 17 18  1  0  0  0  0
 18 36  1  0  0  0  0
 19 18  2  0  0  0  0
 19 37  1  0  0  0  0
 20 19  1  0  0  0  0
 21 22  1  0  0  0  0
 21 20  2  0  0  0  0
 22 17  2  0  0  0  0
 23 20  1  0  0  0  0
 23 41  1  0  0  0  0
 24 23  1  0  0  0  0
 24 42  1  0  0  0  0
 25 45  1  0  0  0  0
 26 27  1  0  0  0  0
 26 25  1  0  0  0  0
 27 49  1  0  0  0  0
 27  9  1  0  0  0  0
 28  3  1  0  0  0  0
 29  4  1  0  0  0  0
 33 13  1  0  0  0  0
 38 21  1  0  0  0  0
 39 22  1  0  0  0  0
 40 23  1  0  0  0  0
 43 24  1  0  0  0  0
 44 24  1  0  0  0  0
 46 25  1  0  0  0  0
 47 26  1  0  0  0  0
 48 26  1  0  0  0  0
 50 27  1  0  0  0  0
M  END
>  <Pose>
1

>  <Score>
-6.11

$$$$
