
 OpenBabel03202209423D

 42 45  0  0  1  0  0  0  0  0999 V2000
  -34.3290  -66.6460   50.4570 Cl  0  0  0  0  0  0  0  0  0  0  0  0
  -34.9720  -66.9480   48.8610 C   0  0  0  0  0  0  0  0  0  0  0  0
  -36.0730  -67.7710   48.7580 C   0  0  0  0  0  0  0  0  0  0  0  0
  -36.5540  -67.9890   47.4890 C   0  0  0  0  0  0  0  0  0  0  0  0
  -35.9830  -67.4260   46.3700 C   0  0  0  0  0  0  0  0  0  0  0  0
  -34.8660  -66.5920   46.4960 C   0  0  0  0  0  0  0  0  0  0  0  0
  -34.3680  -66.3610   47.7540 C   0  0  0  0  0  0  0  0  0  0  0  0
  -36.7030  -68.3840   49.9230 C   0  0  0  0  0  0  0  0  0  0  0  0
  -36.2090  -69.3620   50.7000 N   0  0  0  0  0  0  0  0  0  0  0  0
  -37.0740  -69.6430   51.6510 O   0  0  0  0  0  0  0  0  0  0  0  0
  -38.1310  -68.8810   51.5310 C   0  0  0  0  0  0  0  0  0  0  0  0
  -37.9030  -68.0960   50.4550 N   0  0  0  0  0  0  0  0  0  0  0  0
  -39.3620  -68.8630   52.4000 C   0  0  0  0  0  0  0  0  0  0  0  0
  -40.5200  -68.4580   51.6230 N   0  0  0  0  0  0  0  0  0  0  0  0
  -40.8790  -67.1050   51.4970 C   0  0  0  0  0  0  0  0  0  0  0  0
  -40.7190  -66.5250   50.4000 O   0  0  0  0  0  0  0  0  0  0  0  0
  -41.4370  -66.3720   52.6440 C   0  0  1  0  0  0  0  0  0  0  0  0
  -42.3960  -65.2780   52.2110 C   0  0  0  0  0  0  0  0  0  0  0  0
  -43.0960  -64.6730   53.3810 C   0  0  0  0  0  0  0  0  0  0  0  0
  -44.4030  -65.3060   53.7330 C   0  0  0  0  0  0  0  0  0  0  0  0
  -44.4530  -66.7810   53.3460 C   0  0  0  0  0  0  0  0  0  0  0  0
  -43.3210  -67.4280   53.9680 N   0  0  0  0  0  0  0  0  0  0  0  0
  -43.4260  -68.2970   54.9380 N   0  0  0  0  0  0  0  0  0  0  0  0
  -42.2260  -68.6940   55.2780 N   0  0  0  0  0  0  0  0  0  0  0  0
  -41.3640  -68.0610   54.5060 N   0  0  0  0  0  0  0  0  0  0  0  0
  -42.0290  -67.2500   53.6640 C   0  0  0  0  0  0  0  0  0  0  0  0
  -37.4110  -68.6230   47.3570 H   0  0  0  0  0  0  0  0  0  0  0  0
  -36.3540  -67.5900   45.3710 H   0  0  0  0  0  0  0  0  0  0  0  0
  -34.4000  -66.1370   45.6300 H   0  0  0  0  0  0  0  0  0  0  0  0
  -33.5020  -65.7150   47.8500 H   0  0  0  0  0  0  0  0  0  0  0  0
  -39.2030  -68.1810   53.2500 H   0  0  0  0  0  0  0  0  0  0  0  0
  -39.4860  -69.8860   52.8070 H   0  0  0  0  0  0  0  0  0  0  0  0
  -41.0960  -69.1810   51.1490 H   0  0  0  0  0  0  0  0  0  0  0  0
  -40.5950  -65.8320   53.1480 H   0  0  0  0  0  0  0  0  0  0  0  0
  -41.7670  -64.4660   51.7380 H   0  0  0  0  0  0  0  0  0  0  0  0
  -43.0480  -65.6370   51.4060 H   0  0  0  0  0  0  0  0  0  0  0  0
  -43.2330  -63.5730   53.1810 H   0  0  0  0  0  0  0  0  0  0  0  0
  -42.4110  -64.7160   54.2580 H   0  0  0  0  0  0  0  0  0  0  0  0
  -44.5560  -65.1790   54.8240 H   0  0  0  0  0  0  0  0  0  0  0  0
  -45.2640  -64.8290   53.2100 H   0  0  0  0  0  0  0  0  0  0  0  0
  -45.3910  -67.2010   53.7590 H   0  0  0  0  0  0  0  0  0  0  0  0
  -44.3810  -66.9100   52.2670 H   0  0  0  0  0  0  0  0  0  0  0  0
  2  1  1  0  0  0  0
  3  2  1  0  0  0  0
  3  8  1  0  0  0  0
  4  3  2  0  0  0  0
  5  6  2  0  0  0  0
  5  4  1  0  0  0  0
  6  7  1  0  0  0  0
  7 30  1  0  0  0  0
  7  2  2  0  0  0  0
  8 12  1  0  0  0  0
  8  9  2  0  0  0  0
  9 10  1  0  0  0  0
 11 10  1  0  0  0  0
 11 13  1  0  0  0  0
 12 11  2  0  0  0  0
 13 32  1  0  0  0  0
 13 31  1  0  0  0  0
 14 13  1  0  0  0  0
 15 14  1  0  0  0  0
 15 17  1  0  0  0  0
 16 15  2  0  0  0  0
 17 34  1  1  0  0  0
 17 26  1  0  0  0  0
 18 17  1  0  0  0  0
 18 19  1  0  0  0  0
 19 20  1  0  0  0  0
 19 38  1  0  0  0  0
 20 39  1  0  0  0  0
 21 20  1  0  0  0  0
 21 41  1  0  0  0  0
 21 22  1  0  0  0  0
 22 23  1  0  0  0  0
 23 24  2  0  0  0  0
 25 24  1  0  0  0  0
 26 22  1  0  0  0  0
 26 25  2  0  0  0  0
 27  4  1  0  0  0  0
 28  5  1  0  0  0  0
 29  6  1  0  0  0  0
 33 14  1  0  0  0  0
 35 18  1  0  0  0  0
 36 18  1  0  0  0  0
 37 19  1  0  0  0  0
 40 20  1  0  0  0  0
 42 21  1  0  0  0  0
M  END
>  <Pose>
1

>  <Score>
-5.99

$$$$
