
 OpenBabel03202209423D

 33 36  0  0  1  0  0  0  0  0999 V2000
  -36.6670  -68.5020   50.1460 B   0  0  0  0  0  0  0  0  0  0  0  0
  -36.0630  -66.8320   49.4450 C   0  0  0  0  0  0  0  0  0  0  0  0
  -36.8680  -65.7210   49.4310 C   0  0  0  0  0  0  0  0  0  0  0  0
  -36.4010  -64.5370   48.9110 C   0  0  0  0  0  0  0  0  0  0  0  0
  -35.1180  -64.4270   48.3940 C   0  0  0  0  0  0  0  0  0  0  0  0
  -34.2950  -65.5280   48.3990 C   0  0  0  0  0  0  0  0  0  0  0  0
  -34.7780  -66.7290   48.9290 C   0  0  0  0  0  0  0  0  0  0  0  0
  -38.2530  -65.7410   49.9690 C   0  0  1  0  0  0  0  0  0  0  0  0
  -39.0850  -64.6740   49.6240 C   0  0  1  0  0  0  0  0  0  0  0  0
  -39.7660  -64.1640   48.4030 C   0  0  0  0  0  0  0  0  0  0  0  0
  -41.0540  -64.8380   48.7030 N   0  0  0  0  0  0  0  0  0  0  0  0
  -40.7850  -66.0140   49.1780 C   0  0  1  0  0  0  0  0  0  0  0  0
  -39.3620  -66.1480   49.1960 C   0  0  2  0  0  0  0  0  0  0  0  0
  -38.9340  -66.5540   47.8230 C   0  0  0  0  0  0  0  0  0  0  0  0
  -38.5890  -66.8500   46.7310 N   0  0  0  0  0  0  0  0  0  0  0  0
  -41.7570  -66.9930   49.6060 N   0  0  0  0  0  0  0  0  0  0  0  0
  -39.9320  -62.7810   48.5440 O   0  0  0  0  0  0  0  0  0  0  0  0
  -39.4550  -62.1970   47.3860 C   0  0  0  0  0  0  0  0  0  0  0  0
  -39.6030  -63.3190   46.3730 C   0  0  0  0  0  0  0  0  0  0  0  0
  -39.2480  -64.4160   47.1970 O   0  0  0  0  0  0  0  0  0  0  0  0
  -39.9070  -64.1900   50.7900 C   0  0  0  0  0  0  0  0  0  0  0  0
  -40.5530  -63.7910   51.6950 N   0  0  0  0  0  0  0  0  0  0  0  0
  -37.0020  -63.6150   48.8740 H   0  0  0  0  0  0  0  0  0  0  0  0
  -34.7370  -63.5090   47.9850 H   0  0  0  0  0  0  0  0  0  0  0  0
  -33.3090  -65.4610   48.0090 H   0  0  0  0  0  0  0  0  0  0  0  0
  -34.1620  -67.6250   48.9550 H   0  0  0  0  0  0  0  0  0  0  0  0
  -38.2210  -66.1390   51.0230 H   0  0  0  0  0  0  0  0  0  0  0  0
  -42.7320  -66.9730   49.2490 H   0  0  0  0  0  0  0  0  0  0  0  0
  -41.4980  -67.7380   50.2800 H   0  0  0  0  0  0  0  0  0  0  0  0
  -38.3770  -61.9660   47.5240 H   0  0  0  0  0  0  0  0  0  0  0  0
  -40.0330  -61.2940   47.0980 H   0  0  0  0  0  0  0  0  0  0  0  0
  -40.6630  -63.4070   46.0530 H   0  0  0  0  0  0  0  0  0  0  0  0
  -38.9230  -63.2200   45.5160 H   0  0  0  0  0  0  0  0  0  0  0  0
  2  1  1  0  0  0  0
  3  2  1  0  0  0  0
  3  8  1  0  0  0  0
  4  3  2  0  0  0  0
  5  6  2  0  0  0  0
  5  4  1  0  0  0  0
  6  7  1  0  0  0  0
  7 26  1  0  0  0  0
  7  2  2  0  0  0  0
  8 27  1  1  0  0  0
  9  8  1  0  0  0  0
  9 21  1  1  0  0  0
 10 17  1  0  0  0  0
 10 11  1  0  0  0  0
 10  9  1  0  0  0  0
 11 12  1  0  0  0  0
 12 13  1  0  0  0  0
 12 16  1  1  0  0  0
 13 14  1  6  0  0  0
 13  9  1  0  0  0  0
 13  8  1  0  0  0  0
 15 14  3  0  0  0  0
 16 29  1  0  0  0  0
 18 30  1  0  0  0  0
 18 17  1  0  0  0  0
 19 20  1  0  0  0  0
 19 18  1  0  0  0  0
 20 10  1  0  0  0  0
 21 22  3  0  0  0  0
 23  4  1  0  0  0  0
 24  5  1  0  0  0  0
 25  6  1  0  0  0  0
 28 16  1  0  0  0  0
 31 18  1  0  0  0  0
 32 19  1  0  0  0  0
 33 19  1  0  0  0  0
M  END
>  <Pose>
1

>  <Score>
-4.55

$$$$
