
 OpenBabel03202209423D

 57 60  0  0  1  0  0  0  0  0999 V2000
  -39.0430  -69.9300   53.0430 B   0  0  0  0  0  0  0  0  0  0  0  0
  -39.0610  -68.6000   51.6790 C   0  0  0  0  0  0  0  0  0  0  0  0
  -40.2410  -67.9630   51.3240 C   0  0  0  0  0  0  0  0  0  0  0  0
  -40.2760  -67.0020   50.3440 C   0  0  0  0  0  0  0  0  0  0  0  0
  -39.1150  -66.6580   49.6920 C   0  0  0  0  0  0  0  0  0  0  0  0
  -37.9180  -67.2900   50.0370 C   0  0  0  0  0  0  0  0  0  0  0  0
  -37.8970  -68.2490   51.0190 C   0  0  0  0  0  0  0  0  0  0  0  0
  -39.0580  -65.6350   48.6720 C   0  0  1  0  0  0  0  0  0  0  0  0
  -39.4420  -66.0110   47.4850 O   0  0  0  0  0  0  0  0  0  0  0  0
  -38.6470  -64.2510   48.7370 C   0  0  1  0  0  0  0  0  0  0  0  0
  -38.6480  -63.6230   47.4420 N   0  0  0  0  0  0  0  0  0  0  0  0
  -40.0700  -63.7620   47.0510 C   0  0  2  0  0  0  0  0  0  0  0  0
  -40.2370  -63.0250   45.8590 N   0  0  0  0  0  0  0  0  0  0  0  0
  -38.9470  -62.5610   45.4490 C   0  0  0  0  0  0  0  0  0  0  0  0
  -38.0100  -62.9340   46.4160 C   0  0  0  0  0  0  0  0  0  0  0  0
  -36.6880  -62.5900   46.2250 C   0  0  0  0  0  0  0  0  0  0  0  0
  -35.8640  -62.9360   47.1090 O   0  0  0  0  0  0  0  0  0  0  0  0
  -36.3330  -61.9120   45.1270 N   0  0  0  0  0  0  0  0  0  0  0  0
  -37.2410  -61.5730   44.2280 C   0  0  0  0  0  0  0  0  0  0  0  0
  -36.8640  -60.9350   43.2080 O   0  0  0  0  0  0  0  0  0  0  0  0
  -38.5670  -61.8850   44.3610 N   0  0  0  0  0  0  0  0  0  0  0  0
  -39.4570  -61.4580   43.3060 C   0  0  0  0  0  0  0  0  0  0  0  0
  -34.9170  -61.5670   44.9640 C   0  0  0  0  0  0  0  0  0  0  0  0
  -41.4500  -62.7820   45.1220 C   0  0  0  0  0  0  0  0  0  0  0  0
  -40.8220  -63.4290   48.2700 C   0  0  1  0  0  0  0  0  0  0  0  0
  -39.7670  -63.4200   49.3850 C   0  0  1  0  0  0  0  0  0  0  0  0
  -40.2750  -64.0060   50.6210 C   0  0  0  0  0  0  0  0  0  0  0  0
  -39.4680  -64.3010   51.5640 O   0  0  0  0  0  0  0  0  0  0  0  0
  -41.6060  -64.2560   50.8140 O   0  0  0  0  0  0  0  0  0  0  0  0
  -42.1270  -64.8170   52.0220 C   0  0  0  0  0  0  0  0  0  0  0  0
  -41.6250  -62.2140   48.2970 C   0  0  0  0  0  0  0  0  0  0  0  0
  -41.0850  -61.1110   48.5740 O   0  0  0  0  0  0  0  0  0  0  0  0
  -42.9750  -62.2270   48.0230 O   0  0  0  0  0  0  0  0  0  0  0  0
  -43.8770  -62.9840   48.8000 C   0  0  0  0  0  0  0  0  0  0  0  0
  -41.1650  -68.2140   51.8210 H   0  0  0  0  0  0  0  0  0  0  0  0
  -41.2010  -66.5540   50.0920 H   0  0  0  0  0  0  0  0  0  0  0  0
  -36.9660  -67.0390   49.5340 H   0  0  0  0  0  0  0  0  0  0  0  0
  -36.9440  -68.7360   51.2740 H   0  0  0  0  0  0  0  0  0  0  0  0
  -37.6880  -64.0840   49.2820 H   0  0  0  0  0  0  0  0  0  0  0  0
  -40.2710  -64.8360   46.7950 H   0  0  0  0  0  0  0  0  0  0  0  0
  -40.3550  -60.9160   43.6600 H   0  0  0  0  0  0  0  0  0  0  0  0
  -38.9250  -60.6700   42.6760 H   0  0  0  0  0  0  0  0  0  0  0  0
  -39.6670  -62.2560   42.5590 H   0  0  0  0  0  0  0  0  0  0  0  0
  -34.5630  -60.9470   45.8150 H   0  0  0  0  0  0  0  0  0  0  0  0
  -34.7570  -61.0730   43.9860 H   0  0  0  0  0  0  0  0  0  0  0  0
  -34.3270  -62.5100   44.9790 H   0  0  0  0  0  0  0  0  0  0  0  0
  -42.2500  -63.5170   45.4480 H   0  0  0  0  0  0  0  0  0  0  0  0
  -41.8820  -61.7920   45.2110 H   0  0  0  0  0  0  0  0  0  0  0  0
  -41.3230  -63.0670   44.0300 H   0  0  0  0  0  0  0  0  0  0  0  0
  -41.4820  -64.3130   48.5680 H   0  0  0  0  0  0  0  0  0  0  0  0
  -39.3870  -62.3720   49.5040 H   0  0  0  0  0  0  0  0  0  0  0  0
  -42.2260  -64.0190   52.8000 H   0  0  0  0  0  0  0  0  0  0  0  0
  -43.1080  -65.2650   51.7720 H   0  0  0  0  0  0  0  0  0  0  0  0
  -41.3810  -65.5940   52.3270 H   0  0  0  0  0  0  0  0  0  0  0  0
  -44.9110  -62.7020   48.4790 H   0  0  0  0  0  0  0  0  0  0  0  0
  -43.7480  -64.0520   48.4910 H   0  0  0  0  0  0  0  0  0  0  0  0
  -43.7240  -62.8430   49.8900 H   0  0  0  0  0  0  0  0  0  0  0  0
  2  1  1  0  0  0  0
  3  2  1  0  0  0  0
  3 35  1  0  0  0  0
  4  3  2  0  0  0  0
  5  6  2  0  0  0  0
  5  4  1  0  0  0  0
  6  7  1  0  0  0  0
  7 38  1  0  0  0  0
  7  2  2  0  0  0  0
  8  9  1  1  0  0  0
  8 10  1  0  0  0  0
  8  5  1  0  0  0  0
 10 39  1  1  0  0  0
 10 26  1  0  0  0  0
 11 10  1  0  0  0  0
 12 40  1  6  0  0  0
 12 11  1  0  0  0  0
 12 25  1  0  0  0  0
 13 12  1  0  0  0  0
 14 13  1  0  0  0  0
 14 15  2  0  0  0  0
 15 11  1  0  0  0  0
 16 15  1  0  0  0  0
 16 17  2  0  0  0  0
 18 16  1  0  0  0  0
 19 21  1  0  0  0  0
 19 18  1  0  0  0  0
 20 19  2  0  0  0  0
 21 14  1  0  0  0  0
 22 41  1  0  0  0  0
 22 21  1  0  0  0  0
 23 46  1  0  0  0  0
 23 18  1  0  0  0  0
 23 44  1  0  0  0  0
 24 48  1  0  0  0  0
 24 47  1  0  0  0  0
 24 13  1  0  0  0  0
 25 31  1  0  0  0  0
 25 50  1  1  0  0  0
 25 26  1  0  0  0  0
 26 51  1  1  0  0  0
 26 27  1  0  0  0  0
 27 29  1  0  0  0  0
 27 28  2  0  0  0  0
 29 30  1  0  0  0  0
 30 54  1  0  0  0  0
 30 52  1  0  0  0  0
 31 32  2  0  0  0  0
 33 31  1  0  0  0  0
 33 34  1  0  0  0  0
 34 57  1  0  0  0  0
 36  4  1  0  0  0  0
 37  6  1  0  0  0  0
 42 22  1  0  0  0  0
 43 22  1  0  0  0  0
 45 23  1  0  0  0  0
 49 24  1  0  0  0  0
 53 30  1  0  0  0  0
 55 34  1  0  0  0  0
 56 34  1  0  0  0  0
M  END
>  <Pose>
1

>  <Score>
-4.33

$$$$
