
 OpenBabel03202209423D

 52 55  0  0  1  0  0  0  0  0999 V2000
  -35.9300  -62.9470   48.6980 B   0  0  0  0  0  0  0  0  0  0  0  0
  -37.5660  -63.9580   48.5330 C   0  0  0  0  0  0  0  0  0  0  0  0
  -38.5380  -63.8550   49.4960 C   0  0  0  0  0  0  0  0  0  0  0  0
  -39.7490  -64.5670   49.4440 C   0  0  0  0  0  0  0  0  0  0  0  0
  -39.9540  -65.3890   48.3780 C   0  0  0  0  0  0  0  0  0  0  0  0
  -38.9760  -65.5020   47.3960 C   0  0  0  0  0  0  0  0  0  0  0  0
  -37.7870  -64.7960   47.4650 C   0  0  0  0  0  0  0  0  0  0  0  0
  -40.7160  -64.3530   50.5330 C   0  0  0  0  0  0  0  0  0  0  0  0
  -41.8070  -63.7980   50.3540 O   0  0  0  0  0  0  0  0  0  0  0  0
  -40.3190  -64.8480   51.8400 N   0  0  0  0  0  0  0  0  0  0  0  0
  -40.7300  -66.1720   52.2410 C   0  0  2  0  0  0  0  0  0  0  0  0
  -40.2330  -67.0700   51.0790 C   0  0  0  0  0  0  0  0  0  0  0  0
  -42.2120  -66.3510   52.3090 C   0  0  0  0  0  0  0  0  0  0  0  0
  -42.7910  -66.7870   51.2920 O   0  0  0  0  0  0  0  0  0  0  0  0
  -42.9460  -66.0590   53.4640 N   0  0  0  0  0  0  0  0  0  0  0  0
  -43.2470  -64.8120   54.0810 C   0  0  0  0  0  0  0  0  0  0  0  0
  -44.6140  -65.0370   54.7440 C   0  0  0  0  0  0  0  0  0  0  0  0
  -45.4460  -66.0500   53.9970 C   0  0  1  0  0  0  0  0  0  0  0  0
  -46.7180  -66.2560   54.6350 N   0  0  0  0  0  0  0  0  0  0  0  0
  -47.4170  -67.3190   53.9000 C   0  0  0  0  0  0  0  0  0  0  0  0
  -47.7890  -66.8880   52.5160 C   0  0  0  0  0  0  0  0  0  0  0  0
  -46.8080  -65.9490   51.9250 C   0  0  0  0  0  0  0  0  0  0  0  0
  -46.7870  -65.3610   50.7250 N   0  0  0  0  0  0  0  0  0  0  0  0
  -45.6850  -64.5900   50.6450 C   0  0  0  0  0  0  0  0  0  0  0  0
  -45.0290  -64.7110   51.8070 N   0  0  0  0  0  0  0  0  0  0  0  0
  -45.6760  -65.5380   52.6420 C   0  0  0  0  0  0  0  0  0  0  0  0
  -44.7970  -67.4440   53.9790 C   0  0  0  0  0  0  0  0  0  0  0  0
  -43.3900  -67.2050   54.3260 C   0  0  0  0  0  0  0  0  0  0  0  0
  -38.3840  -63.2160   50.3540 H   0  0  0  0  0  0  0  0  0  0  0  0
  -40.8830  -65.9540   48.3090 H   0  0  0  0  0  0  0  0  0  0  0  0
  -39.1160  -66.1250   46.5530 H   0  0  0  0  0  0  0  0  0  0  0  0
  -36.9930  -64.8630   46.7220 H   0  0  0  0  0  0  0  0  0  0  0  0
  -39.7640  -64.2660   52.4640 H   0  0  0  0  0  0  0  0  0  0  0  0
  -40.1950  -66.5480   53.1300 H   0  0  0  0  0  0  0  0  0  0  0  0
  -40.7720  -66.6010   50.1860 H   0  0  0  0  0  0  0  0  0  0  0  0
  -39.1760  -66.9600   50.9250 H   0  0  0  0  0  0  0  0  0  0  0  0
  -40.5810  -68.0980   51.2050 H   0  0  0  0  0  0  0  0  0  0  0  0
  -42.5000  -64.6750   54.9060 H   0  0  0  0  0  0  0  0  0  0  0  0
  -43.2350  -63.9440   53.4320 H   0  0  0  0  0  0  0  0  0  0  0  0
  -45.1350  -64.0770   54.6380 H   0  0  0  0  0  0  0  0  0  0  0  0
  -44.5290  -65.2170   55.8220 H   0  0  0  0  0  0  0  0  0  0  0  0
  -46.5640  -66.6360   55.5990 H   0  0  0  0  0  0  0  0  0  0  0  0
  -46.8630  -68.2520   53.8170 H   0  0  0  0  0  0  0  0  0  0  0  0
  -48.3780  -67.5530   54.4450 H   0  0  0  0  0  0  0  0  0  0  0  0
  -48.8450  -66.5050   52.4470 H   0  0  0  0  0  0  0  0  0  0  0  0
  -47.7960  -67.7930   51.8330 H   0  0  0  0  0  0  0  0  0  0  0  0
  -47.4630  -65.4310   49.9330 H   0  0  0  0  0  0  0  0  0  0  0  0
  -45.3410  -63.9740   49.8380 H   0  0  0  0  0  0  0  0  0  0  0  0
  -44.9980  -67.8680   52.9960 H   0  0  0  0  0  0  0  0  0  0  0  0
  -45.2100  -68.0900   54.8070 H   0  0  0  0  0  0  0  0  0  0  0  0
  -42.6560  -67.9850   54.3250 H   0  0  0  0  0  0  0  0  0  0  0  0
  -43.3930  -66.8270   55.4060 H   0  0  0  0  0  0  0  0  0  0  0  0
  2  1  1  0  0  0  0
  2  3  1  0  0  0  0
  3 29  1  0  0  0  0
  4  3  2  0  0  0  0
  4  8  1  0  0  0  0
  5  4  1  0  0  0  0
  6  7  1  0  0  0  0
  6  5  2  0  0  0  0
  7  2  2  0  0  0  0
  8 10  1  0  0  0  0
  9  8  2  0  0  0  0
 10 11  1  0  0  0  0
 10 33  1  0  0  0  0
 11 13  1  0  0  0  0
 11 34  1  1  0  0  0
 12 37  1  0  0  0  0
 12 11  1  0  0  0  0
 13 15  1  0  0  0  0
 14 13  2  0  0  0  0
 15 16  1  0  0  0  0
 15 28  1  0  0  0  0
 16 17  1  0  0  0  0
 16 38  1  0  0  0  0
 17 41  1  0  0  0  0
 18 26  1  6  0  0  0
 18 19  1  0  0  0  0
 18 17  1  0  0  0  0
 19 42  1  0  0  0  0
 20 44  1  0  0  0  0
 20 19  1  0  0  0  0
 21 20  1  0  0  0  0
 22 21  1  0  0  0  0
 22 26  2  0  0  0  0
 23 22  1  0  0  0  0
 24 23  1  0  0  0  0
 24 25  2  0  0  0  0
 25 26  1  0  0  0  0
 27 18  1  0  0  0  0
 27 28  1  0  0  0  0
 27 50  1  0  0  0  0
 28 52  1  0  0  0  0
 30  5  1  0  0  0  0
 31  6  1  0  0  0  0
 32  7  1  0  0  0  0
 35 12  1  0  0  0  0
 36 12  1  0  0  0  0
 39 16  1  0  0  0  0
 40 17  1  0  0  0  0
 43 20  1  0  0  0  0
 45 21  1  0  0  0  0
 46 21  1  0  0  0  0
 47 23  1  0  0  0  0
 48 24  1  0  0  0  0
 49 27  1  0  0  0  0
 51 28  1  0  0  0  0
M  END
>  <Pose>
1

>  <Score>
-5.56

$$$$
