
 OpenBabel03202209423D

 45 48  0  0  0  0  0  0  0  0999 V2000
  -32.4830  -63.9020   48.6530 B   0  0  0  0  0  0  0  0  0  0  0  0
  -34.3030  -64.4350   48.9800 C   0  0  0  0  0  0  0  0  0  0  0  0
  -34.6040  -65.7430   49.3150 C   0  0  0  0  0  0  0  0  0  0  0  0
  -35.8810  -66.1350   49.5480 N   0  0  0  0  0  0  0  0  0  0  0  0
  -36.8900  -65.2620   49.4610 C   0  0  0  0  0  0  0  0  0  0  0  0
  -38.1540  -65.6550   49.6920 N   0  0  0  0  0  0  0  0  0  0  0  0
  -38.4660  -66.9200   50.0180 C   0  0  0  0  0  0  0  0  0  0  0  0
  -37.4310  -67.8170   50.1080 C   0  0  0  0  0  0  0  0  0  0  0  0
  -36.1060  -67.4250   49.8700 C   0  0  0  0  0  0  0  0  0  0  0  0
  -35.1820  -68.2710   49.9610 O   0  0  0  0  0  0  0  0  0  0  0  0
  -39.8750  -67.2910   50.2610 C   0  0  0  0  0  0  0  0  0  0  0  0
  -40.6270  -66.1080   50.2520 O   0  0  0  0  0  0  0  0  0  0  0  0
  -40.8650  -65.4660   51.4980 C   0  0  0  0  0  0  0  0  0  0  0  0
  -40.3240  -64.3690   51.5420 O   0  0  0  0  0  0  0  0  0  0  0  0
  -41.6690  -66.1500   52.4920 C   0  0  0  0  0  0  0  0  0  0  0  0
  -41.1480  -67.1910   53.2080 N   0  0  0  0  0  0  0  0  0  0  0  0
  -41.8590  -67.8300   54.1200 N   0  0  0  0  0  0  0  0  0  0  0  0
  -43.1300  -67.4860   54.3860 C   0  0  0  0  0  0  0  0  0  0  0  0
  -43.8070  -68.1110   55.2690 O   0  0  0  0  0  0  0  0  0  0  0  0
  -43.7290  -66.4500   53.7090 C   0  0  0  0  0  0  0  0  0  0  0  0
  -42.9550  -65.7900   52.7510 C   0  0  0  0  0  0  0  0  0  0  0  0
  -43.5920  -64.7620   52.1010 C   0  0  0  0  0  0  0  0  0  0  0  0
  -44.9090  -64.4130   52.3840 C   0  0  0  0  0  0  0  0  0  0  0  0
  -45.6420  -65.0850   53.3340 C   0  0  0  0  0  0  0  0  0  0  0  0
  -45.0260  -66.1160   53.9970 C   0  0  0  0  0  0  0  0  0  0  0  0
  -41.2950  -68.9330   54.8710 C   0  0  0  0  0  0  0  0  0  0  0  0
  -40.0760  -69.5180   54.2080 C   0  0  0  0  0  0  0  0  0  0  0  0
  -39.6760  -70.7100   54.7830 O   0  0  0  0  0  0  0  0  0  0  0  0
  -36.6120  -63.9630   49.1300 C   0  0  0  0  0  0  0  0  0  0  0  0
  -35.3270  -63.5260   48.8850 C   0  0  0  0  0  0  0  0  0  0  0  0
  -33.7640  -66.4390   49.3800 H   0  0  0  0  0  0  0  0  0  0  0  0
  -37.6210  -68.8490   50.3670 H   0  0  0  0  0  0  0  0  0  0  0  0
  -40.2460  -68.0560   49.5510 H   0  0  0  0  0  0  0  0  0  0  0  0
  -39.9120  -67.8040   51.2610 H   0  0  0  0  0  0  0  0  0  0  0  0
  -43.0960  -64.2000   51.3580 H   0  0  0  0  0  0  0  0  0  0  0  0
  -45.3670  -63.5940   51.8430 H   0  0  0  0  0  0  0  0  0  0  0  0
  -46.6770  -64.8130   53.5590 H   0  0  0  0  0  0  0  0  0  0  0  0
  -45.5770  -66.6520   54.7420 H   0  0  0  0  0  0  0  0  0  0  0  0
  -42.0450  -69.7430   54.9630 H   0  0  0  0  0  0  0  0  0  0  0  0
  -41.0320  -68.6020   55.8870 H   0  0  0  0  0  0  0  0  0  0  0  0
  -39.2350  -68.8000   54.1870 H   0  0  0  0  0  0  0  0  0  0  0  0
  -40.3510  -69.7320   53.1560 H   0  0  0  0  0  0  0  0  0  0  0  0
  -40.2600  -70.8760   55.5610 H   0  0  0  0  0  0  0  0  0  0  0  0
  -37.4300  -63.2320   49.0540 H   0  0  0  0  0  0  0  0  0  0  0  0
  -35.1140  -62.5010   48.6260 H   0  0  0  0  0  0  0  0  0  0  0  0
  1  2  1  0  0  0  0
  2  3  1  0  0  0  0
  3 31  1  0  0  0  0
  3  4  1  0  0  0  0
  4  9  1  0  0  0  0
  5  4  1  0  0  0  0
  5  6  1  0  0  0  0
  6  7  2  0  0  0  0
  7  8  1  0  0  0  0
  7 11  1  0  0  0  0
  8 32  1  0  0  0  0
  9 10  2  0  0  0  0
  9  8  1  0  0  0  0
 11 34  1  0  0  0  0
 12 11  1  0  0  0  0
 12 13  1  0  0  0  0
 13 14  2  0  0  0  0
 13 15  1  0  0  0  0
 15 21  1  0  0  0  0
 15 16  2  0  0  0  0
 16 17  1  0  0  0  0
 17 18  1  0  0  0  0
 17 26  1  0  0  0  0
 18 19  2  0  0  0  0
 20 25  1  0  0  0  0
 20 18  1  0  0  0  0
 21 20  2  0  0  0  0
 22 23  2  0  0  0  0
 22 21  1  0  0  0  0
 23 24  1  0  0  0  0
 24 37  1  0  0  0  0
 24 25  2  0  0  0  0
 25 38  1  0  0  0  0
 26 39  1  0  0  0  0
 26 40  1  0  0  0  0
 27 28  1  0  0  0  0
 27 26  1  0  0  0  0
 28 43  1  0  0  0  0
 29  5  2  0  0  0  0
 30  2  2  0  0  0  0
 30 29  1  0  0  0  0
 33 11  1  0  0  0  0
 35 22  1  0  0  0  0
 36 23  1  0  0  0  0
 41 27  1  0  0  0  0
 42 27  1  0  0  0  0
 44 29  1  0  0  0  0
 45 30  1  0  0  0  0
M  END
>  <Pose>
1

>  <Score>
-7.18

$$$$
