
 OpenBabel03202209423D

 55 58  0  0  1  0  0  0  0  0999 V2000
  -49.6130  -61.5250   49.5570 Cl  0  0  0  0  0  0  0  0  0  0  0  0
  -48.6780  -62.6120   50.5950 C   0  0  0  0  0  0  0  0  0  0  0  0
  -47.3090  -62.6460   50.4720 C   0  0  0  0  0  0  0  0  0  0  0  0
  -46.5410  -63.4830   51.2660 C   0  0  0  0  0  0  0  0  0  0  0  0
  -45.2240  -63.7180   51.3600 N   0  0  0  0  0  0  0  0  0  0  0  0
  -44.9990  -64.6670   52.3350 C   0  0  0  0  0  0  0  0  0  0  0  0
  -46.2010  -64.9780   52.8060 N   0  0  0  0  0  0  0  0  0  0  0  0
  -47.1920  -64.2780   52.1810 C   0  0  0  0  0  0  0  0  0  0  0  0
  -48.5650  -64.2520   52.3120 C   0  0  0  0  0  0  0  0  0  0  0  0
  -49.3150  -63.4180   51.5190 C   0  0  0  0  0  0  0  0  0  0  0  0
  -46.5170  -65.8990   53.8830 C   0  0  0  0  0  0  0  0  0  0  0  0
  -43.6530  -65.1320   52.7550 C   0  0  0  0  0  0  0  0  0  0  0  0
  -43.0940  -66.2940   52.0510 C   0  0  0  0  0  0  0  0  0  0  0  0
  -41.6440  -66.3360   51.8310 C   0  0  0  0  0  0  0  0  0  0  0  0
  -40.8350  -66.6440   52.7350 O   0  0  0  0  0  0  0  0  0  0  0  0
  -41.1330  -66.0070   50.5220 N   0  0  0  0  0  0  0  0  0  0  0  0
  -40.1230  -66.8470   49.9380 C   0  0  0  0  0  0  0  0  0  0  0  0
  -38.8470  -66.0340   49.8710 C   0  0  2  0  0  0  0  0  0  0  0  0
  -39.0760  -64.5820   49.6600 C   0  0  1  0  0  0  0  0  0  0  0  0
  -40.4010  -64.2150   49.0980 C   0  0  0  0  0  0  0  0  0  0  0  0
  -41.5710  -64.8780   49.7480 C   0  0  0  0  0  0  0  0  0  0  0  0
  -38.8750  -63.8240   50.8240 O   0  0  0  0  0  0  0  0  0  0  0  0
  -38.0090  -64.0920   48.6720 C   0  0  0  0  0  0  0  0  0  0  0  0
  -37.9910  -66.6370   48.8790 N   0  0  0  0  0  0  0  0  0  0  0  0
  -36.7250  -66.9770   49.1900 C   0  0  0  0  0  0  0  0  0  0  0  0
  -35.8740  -67.5540   48.2740 C   0  0  0  0  0  0  0  0  0  0  0  0
  -36.3420  -67.7880   47.0020 C   0  0  0  0  0  0  0  0  0  0  0  0
  -35.6030  -68.3190   46.1080 O   0  0  0  0  0  0  0  0  0  0  0  0
  -37.6060  -67.4380   46.7200 N   0  0  0  0  0  0  0  0  0  0  0  0
  -38.4110  -66.8800   47.6250 C   0  0  0  0  0  0  0  0  0  0  0  0
  -39.5950  -66.5700   47.3080 O   0  0  0  0  0  0  0  0  0  0  0  0
  -46.7640  -62.0330   49.7610 H   0  0  0  0  0  0  0  0  0  0  0  0
  -49.0240  -64.8890   53.0390 H   0  0  0  0  0  0  0  0  0  0  0  0
  -50.3950  -63.3700   51.5950 H   0  0  0  0  0  0  0  0  0  0  0  0
  -45.6310  -66.2550   54.4180 H   0  0  0  0  0  0  0  0  0  0  0  0
  -47.2440  -65.4740   54.6040 H   0  0  0  0  0  0  0  0  0  0  0  0
  -47.0450  -66.7670   53.4080 H   0  0  0  0  0  0  0  0  0  0  0  0
  -43.6760  -65.2700   53.8680 H   0  0  0  0  0  0  0  0  0  0  0  0
  -42.9920  -64.2180   52.6270 H   0  0  0  0  0  0  0  0  0  0  0  0
  -43.4760  -67.2740   52.4560 H   0  0  0  0  0  0  0  0  0  0  0  0
  -43.5440  -66.2760   51.0010 H   0  0  0  0  0  0  0  0  0  0  0  0
  -40.4140  -67.2330   48.9370 H   0  0  0  0  0  0  0  0  0  0  0  0
  -39.9650  -67.7470   50.5680 H   0  0  0  0  0  0  0  0  0  0  0  0
  -38.3430  -66.1610   50.8660 H   0  0  0  0  0  0  0  0  0  0  0  0
  -40.5330  -63.1040   49.2510 H   0  0  0  0  0  0  0  0  0  0  0  0
  -40.3940  -64.3300   47.9800 H   0  0  0  0  0  0  0  0  0  0  0  0
  -42.2140  -65.2880   48.9150 H   0  0  0  0  0  0  0  0  0  0  0  0
  -42.2200  -64.1850   50.3120 H   0  0  0  0  0  0  0  0  0  0  0  0
  -37.9780  -63.3730   50.7460 H   0  0  0  0  0  0  0  0  0  0  0  0
  -37.9530  -62.9850   48.8130 H   0  0  0  0  0  0  0  0  0  0  0  0
  -37.0070  -64.4780   48.9710 H   0  0  0  0  0  0  0  0  0  0  0  0
  -38.2770  -64.3020   47.6350 H   0  0  0  0  0  0  0  0  0  0  0  0
  -36.3510  -66.7930   50.2030 H   0  0  0  0  0  0  0  0  0  0  0  0
  -34.8600  -67.8260   48.5260 H   0  0  0  0  0  0  0  0  0  0  0  0
  -38.0080  -67.6000   45.7480 H   0  0  0  0  0  0  0  0  0  0  0  0
  1  2  1  0  0  0  0
  2 10  1  0  0  0  0
  3  2  2  0  0  0  0
  3  4  1  0  0  0  0
  4  5  1  0  0  0  0
  4  8  2  0  0  0  0
  5  6  2  0  0  0  0
  6 12  1  0  0  0  0
  6  7  1  0  0  0  0
  7 11  1  0  0  0  0
  8  9  1  0  0  0  0
  8  7  1  0  0  0  0
  9 33  1  0  0  0  0
 10 34  1  0  0  0  0
 10  9  2  0  0  0  0
 11 35  1  0  0  0  0
 11 36  1  0  0  0  0
 12 38  1  0  0  0  0
 13 40  1  0  0  0  0
 13 12  1  0  0  0  0
 14 13  1  0  0  0  0
 14 15  2  0  0  0  0
 16 14  1  0  0  0  0
 17 16  1  0  0  0  0
 17 43  1  0  0  0  0
 18 17  1  0  0  0  0
 18 44  1  1  0  0  0
 19 18  1  0  0  0  0
 19 22  1  1  0  0  0
 20 45  1  0  0  0  0
 20 19  1  0  0  0  0
 20 21  1  0  0  0  0
 21 48  1  0  0  0  0
 21 16  1  0  0  0  0
 23 50  1  0  0  0  0
 23 51  1  0  0  0  0
 23 19  1  0  0  0  0
 24 25  1  0  0  0  0
 24 18  1  0  0  0  0
 25 53  1  0  0  0  0
 26 54  1  0  0  0  0
 26 25  2  0  0  0  0
 27 26  1  0  0  0  0
 28 27  2  0  0  0  0
 29 27  1  0  0  0  0
 29 30  1  0  0  0  0
 30 24  1  0  0  0  0
 31 30  2  0  0  0  0
 32  3  1  0  0  0  0
 37 11  1  0  0  0  0
 39 12  1  0  0  0  0
 41 13  1  0  0  0  0
 42 17  1  0  0  0  0
 46 20  1  0  0  0  0
 47 21  1  0  0  0  0
 49 22  1  0  0  0  0
 52 23  1  0  0  0  0
 55 29  1  0  0  0  0
M  END
>  <Pose>
1

>  <Score>
-5.92

$$$$
