
 OpenBabel03202209423D

 49 52  0  0  0  0  0  0  0  0999 V2000
  -32.4750  -63.6040   48.8600 B   0  0  0  0  0  0  0  0  0  0  0  0
  -33.3160  -65.1510   48.1630 C   0  0  0  0  0  0  0  0  0  0  0  0
  -34.6840  -65.3000   48.3100 C   0  0  0  0  0  0  0  0  0  0  0  0
  -35.3570  -66.4060   47.8250 C   0  0  0  0  0  0  0  0  0  0  0  0
  -34.6160  -67.3810   47.1730 C   0  0  0  0  0  0  0  0  0  0  0  0
  -33.2580  -67.2260   47.0300 C   0  0  0  0  0  0  0  0  0  0  0  0
  -32.5710  -66.1320   47.5070 C   0  0  0  0  0  0  0  0  0  0  0  0
  -36.7940  -66.5910   47.9650 C   0  0  0  0  0  0  0  0  0  0  0  0
  -37.2460  -67.7240   48.2710 O   0  0  0  0  0  0  0  0  0  0  0  0
  -37.7280  -65.5480   47.7730 N   0  0  0  0  0  0  0  0  0  0  0  0
  -39.1380  -65.8080   47.5780 C   0  0  0  0  0  0  0  0  0  0  0  0
  -39.9800  -64.9690   48.4710 C   0  0  0  0  0  0  0  0  0  0  0  0
  -40.5370  -63.9690   47.9550 O   0  0  0  0  0  0  0  0  0  0  0  0
  -40.1760  -65.2370   49.8350 N   0  0  0  0  0  0  0  0  0  0  0  0
  -39.6980  -66.4430   50.4640 C   0  0  0  0  0  0  0  0  0  0  0  0
  -40.9190  -67.2110   50.9240 C   0  0  0  0  0  0  0  0  0  0  0  0
  -41.8210  -66.3000   51.7220 C   0  0  0  0  0  0  0  0  0  0  0  0
  -43.0800  -66.1870   51.0160 N   0  0  0  0  0  0  0  0  0  0  0  0
  -44.0890  -65.4600   51.7030 C   0  0  0  0  0  0  0  0  0  0  0  0
  -44.1930  -65.6660   53.1700 C   0  0  0  0  0  0  0  0  0  0  0  0
  -43.2810  -66.6940   53.7150 C   0  0  0  0  0  0  0  0  0  0  0  0
  -43.3280  -67.4640   54.8450 N   0  0  0  0  0  0  0  0  0  0  0  0
  -42.2260  -68.2250   54.8350 C   0  0  0  0  0  0  0  0  0  0  0  0
  -41.5070  -67.9470   53.7360 N   0  0  0  0  0  0  0  0  0  0  0  0
  -42.1370  -66.9900   53.0090 C   0  0  0  0  0  0  0  0  0  0  0  0
  -41.2470  -64.9480   51.9990 C   0  0  0  0  0  0  0  0  0  0  0  0
  -40.8770  -64.2910   50.6650 C   0  0  0  0  0  0  0  0  0  0  0  0
  -35.2150  -64.5330   48.8150 H   0  0  0  0  0  0  0  0  0  0  0  0
  -35.0670  -68.2810   46.7620 H   0  0  0  0  0  0  0  0  0  0  0  0
  -32.6610  -67.9790   46.5230 H   0  0  0  0  0  0  0  0  0  0  0  0
  -31.5200  -65.9810   47.4140 H   0  0  0  0  0  0  0  0  0  0  0  0
  -37.3900  -64.5650   47.7720 H   0  0  0  0  0  0  0  0  0  0  0  0
  -39.3830  -66.8630   47.8190 H   0  0  0  0  0  0  0  0  0  0  0  0
  -39.3490  -65.6310   46.5050 H   0  0  0  0  0  0  0  0  0  0  0  0
  -39.0710  -66.1990   51.3580 H   0  0  0  0  0  0  0  0  0  0  0  0
  -39.0500  -67.0460   49.8050 H   0  0  0  0  0  0  0  0  0  0  0  0
  -40.6400  -68.1170   51.5040 H   0  0  0  0  0  0  0  0  0  0  0  0
  -41.4270  -67.5550   49.9830 H   0  0  0  0  0  0  0  0  0  0  0  0
  -42.8990  -65.7050   50.0960 H   0  0  0  0  0  0  0  0  0  0  0  0
  -45.0770  -65.7780   51.2550 H   0  0  0  0  0  0  0  0  0  0  0  0
  -44.0550  -64.3590   51.4810 H   0  0  0  0  0  0  0  0  0  0  0  0
  -45.2390  -65.9510   53.4930 H   0  0  0  0  0  0  0  0  0  0  0  0
  -44.0110  -64.7100   53.7390 H   0  0  0  0  0  0  0  0  0  0  0  0
  -44.1100  -67.4270   55.5620 H   0  0  0  0  0  0  0  0  0  0  0  0
  -41.9580  -68.9470   55.5880 H   0  0  0  0  0  0  0  0  0  0  0  0
  -40.4150  -64.9580   52.7020 H   0  0  0  0  0  0  0  0  0  0  0  0
  -42.0470  -64.3200   52.4290 H   0  0  0  0  0  0  0  0  0  0  0  0
  -40.2200  -63.4130   50.8350 H   0  0  0  0  0  0  0  0  0  0  0  0
  -41.8100  -63.9280   50.2250 H   0  0  0  0  0  0  0  0  0  0  0  0
  2  3  1  0  0  0  0
  2  1  1  0  0  0  0
  3 28  1  0  0  0  0
  4  8  1  0  0  0  0
  4  3  2  0  0  0  0
  5  4  1  0  0  0  0
  6  5  2  0  0  0  0
  6  7  1  0  0  0  0
  7  2  2  0  0  0  0
  8  9  2  0  0  0  0
 10  8  1  0  0  0  0
 11 10  1  0  0  0  0
 11 33  1  0  0  0  0
 11 12  1  0  0  0  0
 12 14  1  0  0  0  0
 13 12  2  0  0  0  0
 14 15  1  0  0  0  0
 14 27  1  0  0  0  0
 15 16  1  0  0  0  0
 15 35  1  0  0  0  0
 16 37  1  0  0  0  0
 16 17  1  0  0  0  0
 17 26  1  0  0  0  0
 17 25  1  0  0  0  0
 18 19  1  0  0  0  0
 18 17  1  0  0  0  0
 19 20  1  0  0  0  0
 20 42  1  0  0  0  0
 20 21  1  0  0  0  0
 20 43  1  0  0  0  0
 21 22  1  0  0  0  0
 22 44  1  0  0  0  0
 23 22  1  0  0  0  0
 23 45  1  0  0  0  0
 24 23  2  0  0  0  0
 25 21  2  0  0  0  0
 25 24  1  0  0  0  0
 26 47  1  0  0  0  0
 26 46  1  0  0  0  0
 27 48  1  0  0  0  0
 27 26  1  0  0  0  0
 29  5  1  0  0  0  0
 30  6  1  0  0  0  0
 31  7  1  0  0  0  0
 32 10  1  0  0  0  0
 34 11  1  0  0  0  0
 36 15  1  0  0  0  0
 38 16  1  0  0  0  0
 39 18  1  0  0  0  0
 40 19  1  0  0  0  0
 41 19  1  0  0  0  0
 49 27  1  0  0  0  0
M  END
>  <Pose>
1

>  <Score>
-6.21

$$$$
