
 OpenBabel03202209423D

 36 39  0  0  1  0  0  0  0  0999 V2000
  -50.7400  -61.9670   55.5790 B   0  0  0  0  0  0  0  0  0  0  0  0
  -50.3350  -63.1570   54.1180 C   0  0  0  0  0  0  0  0  0  0  0  0
  -49.0400  -63.4600   53.7920 C   0  0  0  0  0  0  0  0  0  0  0  0
  -48.7740  -64.3150   52.7430 C   0  0  0  0  0  0  0  0  0  0  0  0
  -49.8410  -64.8330   52.0600 C   0  0  0  0  0  0  0  0  0  0  0  0
  -51.1740  -64.5200   52.3970 C   0  0  0  0  0  0  0  0  0  0  0  0
  -51.4190  -63.6700   53.4420 C   0  0  0  0  0  0  0  0  0  0  0  0
  -49.4090  -65.6930   51.0100 N   0  0  0  0  0  0  0  0  0  0  0  0
  -48.0090  -65.7220   51.0260 C   0  0  0  0  0  0  0  0  0  0  0  0
  -47.2830  -66.3880   50.2260 O   0  0  0  0  0  0  0  0  0  0  0  0
  -47.5220  -64.8370   52.1420 C   0  0  2  0  0  0  0  0  0  0  0  0
  -46.7740  -65.7050   53.0430 C   0  0  0  0  0  0  0  0  0  0  0  0
  -45.4420  -65.5250   53.2530 C   0  0  0  0  0  0  0  0  0  0  0  0
  -45.0520  -66.4900   54.1370 N   0  0  0  0  0  0  0  0  0  0  0  0
  -46.0790  -67.2430   54.4700 N   0  0  0  0  0  0  0  0  0  0  0  0
  -47.1550  -66.8000   53.8240 C   0  0  0  0  0  0  0  0  0  0  0  0
  -48.5610  -67.3130   53.8630 C   0  0  0  0  0  0  0  0  0  0  0  0
  -44.7080  -64.5090   52.6310 O   0  0  0  0  0  0  0  0  0  0  0  0
  -45.4250  -63.6830   51.7720 C   0  0  0  0  0  0  0  0  0  0  0  0
  -46.7040  -63.8070   51.5300 C   0  0  0  0  0  0  0  0  0  0  0  0
  -47.3000  -62.8400   50.5910 C   0  0  0  0  0  0  0  0  0  0  0  0
  -47.7600  -62.0570   49.8570 N   0  0  0  0  0  0  0  0  0  0  0  0
  -44.7140  -62.6080   51.0950 N   0  0  0  0  0  0  0  0  0  0  0  0
  -50.2690  -66.4260   50.0680 C   0  0  0  0  0  0  0  0  0  0  0  0
  -48.2110  -63.0430   54.3410 H   0  0  0  0  0  0  0  0  0  0  0  0
  -52.0150  -64.9320   51.8550 H   0  0  0  0  0  0  0  0  0  0  0  0
  -52.4490  -63.4090   53.7280 H   0  0  0  0  0  0  0  0  0  0  0  0
  -46.1030  -68.0650   55.1270 H   0  0  0  0  0  0  0  0  0  0  0  0
  -48.5520  -68.1840   54.5680 H   0  0  0  0  0  0  0  0  0  0  0  0
  -49.2530  -66.5720   54.3320 H   0  0  0  0  0  0  0  0  0  0  0  0
  -48.9020  -67.6940   52.9010 H   0  0  0  0  0  0  0  0  0  0  0  0
  -44.4710  -61.8000   51.7020 H   0  0  0  0  0  0  0  0  0  0  0  0
  -44.4690  -62.6310   50.1070 H   0  0  0  0  0  0  0  0  0  0  0  0
  -50.0140  -66.0750   49.0480 H   0  0  0  0  0  0  0  0  0  0  0  0
  -49.9280  -67.4850   50.1370 H   0  0  0  0  0  0  0  0  0  0  0  0
  -51.3230  -66.3270   50.3250 H   0  0  0  0  0  0  0  0  0  0  0  0
  2  1  1  0  0  0  0
  3  2  1  0  0  0  0
  3 25  1  0  0  0  0
  4  3  2  0  0  0  0
  5  6  2  0  0  0  0
  5  4  1  0  0  0  0
  6  7  1  0  0  0  0
  7 27  1  0  0  0  0
  7  2  2  0  0  0  0
  8  9  1  0  0  0  0
  8  5  1  0  0  0  0
 10  9  2  0  0  0  0
 11  9  1  6  0  0  0
 11  4  1  0  0  0  0
 11 12  1  0  0  0  0
 12 13  1  0  0  0  0
 12 16  2  0  0  0  0
 13 14  2  0  0  0  0
 14 15  1  0  0  0  0
 15 28  1  0  0  0  0
 16 17  1  0  0  0  0
 16 15  1  0  0  0  0
 17 30  1  0  0  0  0
 17 29  1  0  0  0  0
 18 13  1  0  0  0  0
 19 18  1  0  0  0  0
 20 19  2  0  0  0  0
 20 11  1  0  0  0  0
 21 20  1  0  0  0  0
 22 21  3  0  0  0  0
 23 32  1  0  0  0  0
 23 19  1  0  0  0  0
 24 35  1  0  0  0  0
 24 36  1  0  0  0  0
 24  8  1  0  0  0  0
 26  6  1  0  0  0  0
 31 17  1  0  0  0  0
 33 23  1  0  0  0  0
 34 24  1  0  0  0  0
M  END
>  <Pose>
1

>  <Score>
-4.15

$$$$
