
 OpenBabel03202209423D

 38 41  0  0  0  0  0  0  0  0999 V2000
  -40.0580  -67.3970   51.0310 B   0  0  0  0  0  0  0  0  0  0  0  0
  -40.6590  -68.0730   52.6950 C   0  0  0  0  0  0  0  0  0  0  0  0
  -39.9450  -69.0530   53.2970 C   0  0  0  0  0  0  0  0  0  0  0  0
  -38.8160  -69.6920   52.9320 N   0  0  0  0  0  0  0  0  0  0  0  0
  -38.5890  -70.5540   53.9180 N   0  0  0  0  0  0  0  0  0  0  0  0
  -39.4940  -70.4860   54.8550 N   0  0  0  0  0  0  0  0  0  0  0  0
  -40.3960  -69.5320   54.5070 C   0  0  0  0  0  0  0  0  0  0  0  0
  -41.5510  -69.0250   55.0920 C   0  0  0  0  0  0  0  0  0  0  0  0
  -42.2630  -68.0520   54.4990 N   0  0  0  0  0  0  0  0  0  0  0  0
  -41.8110  -67.5900   53.3130 C   0  0  0  0  0  0  0  0  0  0  0  0
  -43.4750  -67.4910   55.0730 C   0  0  0  0  0  0  0  0  0  0  0  0
  -43.7260  -66.1010   54.7030 C   0  0  0  0  0  0  0  0  0  0  0  0
  -43.3040  -65.2190   55.5120 O   0  0  0  0  0  0  0  0  0  0  0  0
  -44.4110  -65.6350   53.5020 C   0  0  0  0  0  0  0  0  0  0  0  0
  -43.7320  -64.8480   52.6150 C   0  0  0  0  0  0  0  0  0  0  0  0
  -44.3520  -64.3900   51.4810 C   0  0  0  0  0  0  0  0  0  0  0  0
  -45.6680  -64.6990   51.1900 C   0  0  0  0  0  0  0  0  0  0  0  0
  -46.3320  -65.5010   52.1150 C   0  0  0  0  0  0  0  0  0  0  0  0
  -45.7170  -65.9610   53.2470 C   0  0  0  0  0  0  0  0  0  0  0  0
  -46.3130  -64.2510   50.0560 C   0  0  0  0  0  0  0  0  0  0  0  0
  -45.5950  -63.4600   49.1850 C   0  0  0  0  0  0  0  0  0  0  0  0
  -44.2810  -63.1460   49.4650 C   0  0  0  0  0  0  0  0  0  0  0  0
  -43.6430  -63.5960   50.5970 C   0  0  0  0  0  0  0  0  0  0  0  0
  -37.9880  -69.5590   51.7950 C   0  0  0  0  0  0  0  0  0  0  0  0
  -41.8560  -69.4300   56.0280 H   0  0  0  0  0  0  0  0  0  0  0  0
  -42.3670  -66.8090   52.8180 H   0  0  0  0  0  0  0  0  0  0  0  0
  -44.3700  -68.1000   54.7730 H   0  0  0  0  0  0  0  0  0  0  0  0
  -43.4040  -67.5640   56.1740 H   0  0  0  0  0  0  0  0  0  0  0  0
  -42.6850  -64.5570   52.7680 H   0  0  0  0  0  0  0  0  0  0  0  0
  -47.3790  -65.7430   51.8790 H   0  0  0  0  0  0  0  0  0  0  0  0
  -46.2710  -66.5880   53.9530 H   0  0  0  0  0  0  0  0  0  0  0  0
  -47.3450  -64.5260   49.8850 H   0  0  0  0  0  0  0  0  0  0  0  0
  -46.0870  -63.0940   48.2790 H   0  0  0  0  0  0  0  0  0  0  0  0
  -43.7320  -62.5230   48.7680 H   0  0  0  0  0  0  0  0  0  0  0  0
  -42.6010  -63.3410   50.8100 H   0  0  0  0  0  0  0  0  0  0  0  0
  -37.3070  -70.4340   51.7340 H   0  0  0  0  0  0  0  0  0  0  0  0
  -37.2970  -68.6710   51.9190 H   0  0  0  0  0  0  0  0  0  0  0  0
  -38.4460  -69.4570   50.8240 H   0  0  0  0  0  0  0  0  0  0  0  0
  1  2  1  0  0  0  0
  2  3  1  0  0  0  0
  2 10  2  0  0  0  0
  3  7  2  0  0  0  0
  4  3  1  0  0  0  0
  4  5  1  0  0  0  0
  5  6  2  0  0  0  0
  7  6  1  0  0  0  0
  7  8  1  0  0  0  0
  8 25  1  0  0  0  0
  9 11  1  0  0  0  0
  9  8  1  0  0  0  0
 10  9  1  0  0  0  0
 11 28  1  0  0  0  0
 12 11  1  0  0  0  0
 12 13  2  0  0  0  0
 14 12  1  0  0  0  0
 15 29  1  0  0  0  0
 15 14  2  0  0  0  0
 16 15  1  0  0  0  0
 17 16  1  0  0  0  0
 17 18  1  0  0  0  0
 18 19  2  0  0  0  0
 19 14  1  0  0  0  0
 19 31  1  0  0  0  0
 20 17  2  0  0  0  0
 21 22  2  0  0  0  0
 21 20  1  0  0  0  0
 22 23  1  0  0  0  0
 23 35  1  0  0  0  0
 23 16  2  0  0  0  0
 24 37  1  0  0  0  0
 24  4  1  0  0  0  0
 26 10  1  0  0  0  0
 27 11  1  0  0  0  0
 30 18  1  0  0  0  0
 32 20  1  0  0  0  0
 33 21  1  0  0  0  0
 34 22  1  0  0  0  0
 36 24  1  0  0  0  0
 38 24  1  0  0  0  0
M  END
>  <Pose>
1

>  <Score>
-6.18

$$$$
