
 OpenBabel03202209423D

 66 69  0  0  1  0  0  0  0  0999 V2000
  -42.1440  -67.5660   56.7470 B   0  0  0  0  0  0  0  0  0  0  0  0
  -41.7250  -67.7240   54.8840 C   0  0  0  0  0  0  0  0  0  0  0  0
  -42.3120  -66.8740   53.9760 C   0  0  0  0  0  0  0  0  0  0  0  0
  -42.0320  -66.9560   52.6020 C   0  0  0  0  0  0  0  0  0  0  0  0
  -41.1400  -67.9320   52.2140 C   0  0  0  0  0  0  0  0  0  0  0  0
  -40.5390  -68.7970   53.1030 C   0  0  0  0  0  0  0  0  0  0  0  0
  -40.8290  -68.6970   54.4440 C   0  0  0  0  0  0  0  0  0  0  0  0
  -40.2330  -69.5810   55.4790 C   0  0  0  0  0  0  0  0  0  0  0  0
  -39.3080  -70.1400   52.5360 B   0  0  0  0  0  0  0  0  0  0  0  0
  -42.6750  -66.0420   51.6800 C   0  0  0  0  0  0  0  0  0  0  0  0
  -42.3580  -66.0380   50.4860 O   0  0  0  0  0  0  0  0  0  0  0  0
  -43.7090  -65.1180   52.1790 C   0  0  1  0  0  0  0  0  0  0  0  0
  -43.3300  -64.7460   53.5960 C   0  0  0  0  0  0  0  0  0  0  0  0
  -43.2070  -65.9000   54.4070 O   0  0  0  0  0  0  0  0  0  0  0  0
  -43.8970  -63.9040   51.3200 C   0  0  0  0  0  0  0  0  0  0  0  0
  -43.9750  -64.1340   49.9290 N   0  0  0  0  0  4  0  0  0  0  0  0
  -45.2780  -63.7830   49.4470 C   0  0  0  0  0  0  0  0  0  0  0  0
  -45.5720  -62.3260   49.4190 C   0  0  2  0  0  0  0  0  0  0  0  0
  -44.4380  -61.4120   49.6770 C   0  0  0  0  0  0  0  0  0  0  0  0
  -43.0820  -61.9470   49.4270 C   0  0  0  0  0  0  0  0  0  0  0  0
  -43.0280  -63.4150   49.1230 C   0  0  0  0  0  0  0  0  0  0  0  0
  -46.6420  -62.0490   50.4820 C   0  0  0  0  0  0  0  0  0  0  0  0
  -44.9930  -65.9190   52.2320 C   0  0  0  0  0  0  0  0  0  0  0  0
  -45.9330  -65.4990   53.2140 N   0  0  0  0  0  4  0  0  0  0  0  0
  -46.7850  -66.6180   53.6120 C   0  0  0  0  0  0  0  0  0  0  0  0
  -48.1330  -66.5800   52.9530 C   0  0  1  0  0  0  0  0  0  0  0  0
  -47.9760  -66.1840   51.5020 C   0  0  0  0  0  0  0  0  0  0  0  0
  -47.5040  -64.7640   51.4650 C   0  0  0  0  0  0  0  0  0  0  0  0
  -46.8230  -64.4470   52.7730 C   0  0  0  0  0  0  0  0  0  0  0  0
  -48.6720  -68.0170   52.9520 C   0  0  0  0  0  0  0  0  0  0  0  0
  -40.8870  -68.0400   51.1620 H   0  0  0  0  0  0  0  0  0  0  0  0
  -39.6310  -68.9430   56.1640 H   0  0  0  0  0  0  0  0  0  0  0  0
  -39.6770  -70.4200   55.0580 H   0  0  0  0  0  0  0  0  0  0  0  0
  -41.0970  -69.9420   56.1070 H   0  0  0  0  0  0  0  0  0  0  0  0
  -42.3600  -64.2290   53.6280 H   0  0  0  0  0  0  0  0  0  0  0  0
  -44.0700  -64.0210   54.0360 H   0  0  0  0  0  0  0  0  0  0  0  0
  -44.8500  -63.4380   51.6480 H   0  0  0  0  0  0  0  0  0  0  0  0
  -43.1030  -63.1750   51.5840 H   0  0  0  0  0  0  0  0  0  0  0  0
  -43.8350  -65.1560   49.7250 H   0  0  0  0  0  0  0  0  0  0  0  0
  -45.3620  -64.2280   48.4120 H   0  0  0  0  0  0  0  0  0  0  0  0
  -46.0240  -64.3440   50.0480 H   0  0  0  0  0  0  0  0  0  0  0  0
  -46.0670  -62.0890   48.4490 H   0  0  0  0  0  0  0  0  0  0  0  0
  -44.5780  -60.4990   49.0280 H   0  0  0  0  0  0  0  0  0  0  0  0
  -44.4760  -60.9880   50.7250 H   0  0  0  0  0  0  0  0  0  0  0  0
  -42.3810  -61.7220   50.2840 H   0  0  0  0  0  0  0  0  0  0  0  0
  -42.5840  -61.4320   48.5520 H   0  0  0  0  0  0  0  0  0  0  0  0
  -42.0070  -63.7750   49.1360 H   0  0  0  0  0  0  0  0  0  0  0  0
  -43.3840  -63.5250   48.0540 H   0  0  0  0  0  0  0  0  0  0  0  0
  -47.3120  -61.2150   50.1560 H   0  0  0  0  0  0  0  0  0  0  0  0
  -47.1840  -62.9760   50.7110 H   0  0  0  0  0  0  0  0  0  0  0  0
  -46.1180  -61.7280   51.4020 H   0  0  0  0  0  0  0  0  0  0  0  0
  -44.6770  -66.9780   52.4570 H   0  0  0  0  0  0  0  0  0  0  0  0
  -45.4320  -65.9880   51.1960 H   0  0  0  0  0  0  0  0  0  0  0  0
  -45.4540  -65.1850   54.0620 H   0  0  0  0  0  0  0  0  0  0  0  0
  -46.9280  -66.6560   54.7050 H   0  0  0  0  0  0  0  0  0  0  0  0
  -46.3150  -67.5940   53.3170 H   0  0  0  0  0  0  0  0  0  0  0  0
  -48.8780  -65.9780   53.4890 H   0  0  0  0  0  0  0  0  0  0  0  0
  -48.9710  -66.2960   51.0260 H   0  0  0  0  0  0  0  0  0  0  0  0
  -47.2890  -66.8930   51.0290 H   0  0  0  0  0  0  0  0  0  0  0  0
  -46.8860  -64.4990   50.6100 H   0  0  0  0  0  0  0  0  0  0  0  0
  -48.4110  -64.0960   51.4200 H   0  0  0  0  0  0  0  0  0  0  0  0
  -47.6040  -64.3500   53.5830 H   0  0  0  0  0  0  0  0  0  0  0  0
  -46.3680  -63.4600   52.6810 H   0  0  0  0  0  0  0  0  0  0  0  0
  -48.2670  -68.5720   53.8300 H   0  0  0  0  0  0  0  0  0  0  0  0
  -48.4400  -68.5310   51.9950 H   0  0  0  0  0  0  0  0  0  0  0  0
  -49.7770  -68.0230   53.0450 H   0  0  0  0  0  0  0  0  0  0  0  0
  2  1  1  0  0  0  0
  3 14  1  0  0  0  0
  3  2  2  0  0  0  0
  4  3  1  0  0  0  0
  5  4  2  0  0  0  0
  5  6  1  0  0  0  0
  6  7  2  0  0  0  0
  7  2  1  0  0  0  0
  7  8  1  0  0  0  0
  8 34  1  0  0  0  0
  8 32  1  0  0  0  0
  9  6  1  0  0  0  0
 10 12  1  0  0  0  0
 10  4  1  0  0  0  0
 11 10  2  0  0  0  0
 12 15  1  6  0  0  0
 12 23  1  0  0  0  0
 12 13  1  0  0  0  0
 13 35  1  0  0  0  0
 13 36  1  0  0  0  0
 13 14  1  0  0  0  0
 15 38  1  0  0  0  0
 15 37  1  0  0  0  0
 16 15  1  0  0  0  0
 17 16  1  0  0  0  0
 17 41  1  0  0  0  0
 18 42  1  6  0  0  0
 18 17  1  0  0  0  0
 18 19  1  0  0  0  0
 18 22  1  0  0  0  0
 19 44  1  0  0  0  0
 20 19  1  0  0  0  0
 20 45  1  0  0  0  0
 21 47  1  0  0  0  0
 21 20  1  0  0  0  0
 21 16  1  0  0  0  0
 22 50  1  0  0  0  0
 22 51  1  0  0  0  0
 23 52  1  0  0  0  0
 23 24  1  0  0  0  0
 24 25  1  0  0  0  0
 24 54  1  0  0  0  0
 25 55  1  0  0  0  0
 26 57  1  1  0  0  0
 26 25  1  0  0  0  0
 27 26  1  0  0  0  0
 28 27  1  0  0  0  0
 28 29  1  0  0  0  0
 29 24  1  0  0  0  0
 29 62  1  0  0  0  0
 30 26  1  0  0  0  0
 30 66  1  0  0  0  0
 30 64  1  0  0  0  0
 31  5  1  0  0  0  0
 33  8  1  0  0  0  0
 39 16  1  0  0  0  0
 40 17  1  0  0  0  0
 43 19  1  0  0  0  0
 46 20  1  0  0  0  0
 48 21  1  0  0  0  0
 49 22  1  0  0  0  0
 53 23  1  0  0  0  0
 56 25  1  0  0  0  0
 58 27  1  0  0  0  0
 59 27  1  0  0  0  0
 60 28  1  0  0  0  0
 61 28  1  0  0  0  0
 63 29  1  0  0  0  0
 65 30  1  0  0  0  0
M  END
>  <Pose>
1

>  <Score>
-4.49

$$$$
