
 OpenBabel03202209423D

 55 58  0  0  1  0  0  0  0  0999 V2000
  -47.6790  -68.3520   53.8310 Cl  0  0  0  0  0  0  0  0  0  0  0  0
  -47.0570  -66.8120   53.2470 C   0  0  0  0  0  0  0  0  0  0  0  0
  -45.7530  -66.6550   52.8570 C   0  0  0  0  0  0  0  0  0  0  0  0
  -45.3180  -65.4290   52.4090 C   0  0  0  0  0  0  0  0  0  0  0  0
  -46.2170  -64.3960   52.3690 C   0  0  0  0  0  0  0  0  0  0  0  0
  -47.5470  -64.5590   52.7670 C   0  0  0  0  0  0  0  0  0  0  0  0
  -47.9670  -65.7780   53.2100 C   0  0  0  0  0  0  0  0  0  0  0  0
  -45.6380  -63.1940   51.8730 N   0  0  0  0  0  0  0  0  0  0  0  0
  -44.3000  -63.4950   51.5880 C   0  0  0  0  0  0  0  0  0  0  0  0
  -43.5020  -62.6240   51.1090 O   0  0  0  0  0  0  0  0  0  0  0  0
  -44.0220  -64.8980   51.9240 C   0  0  2  0  0  0  0  0  0  0  0  0
  -43.5780  -65.5570   50.7270 N   0  0  0  0  0  0  0  0  0  0  0  0
  -42.1970  -65.8970   50.8690 C   0  0  2  0  0  0  0  0  0  0  0  0
  -41.6770  -65.1610   52.0630 C   0  0  0  0  0  0  0  0  0  0  0  0
  -42.9190  -64.9760   52.8890 C   0  0  2  0  0  0  0  0  0  0  0  0
  -43.0530  -65.9940   53.9630 C   0  0  0  0  0  0  0  0  0  0  0  0
  -43.3010  -65.5520   55.1110 O   0  0  0  0  0  0  0  0  0  0  0  0
  -42.9170  -67.3710   53.7530 N   0  0  0  0  0  0  0  0  0  0  0  0
  -41.7920  -68.1780   53.9310 C   0  0  0  0  0  0  0  0  0  0  0  0
  -41.4230  -68.5520   55.2140 C   0  0  0  0  0  0  0  0  0  0  0  0
  -40.3240  -69.3490   55.4640 C   0  0  0  0  0  0  0  0  0  0  0  0
  -39.5370  -69.8140   54.4410 C   0  0  0  0  0  0  0  0  0  0  0  0
  -39.8760  -69.4620   53.1660 C   0  0  0  0  0  0  0  0  0  0  0  0
  -40.9870  -68.6570   52.9280 C   0  0  0  0  0  0  0  0  0  0  0  0
  -39.1090  -69.9110   52.1060 O   0  0  0  0  0  0  0  0  0  0  0  0
  -37.9750  -69.2080   51.6310 C   0  0  0  0  0  0  0  0  0  0  0  0
  -42.1660  -68.1230   56.2990 O   0  0  0  0  0  0  0  0  0  0  0  0
  -42.6210  -68.9610   57.3180 C   0  0  0  0  0  0  0  0  0  0  0  0
  -41.4050  -65.5770   49.6120 C   0  0  0  0  0  0  0  0  0  0  0  0
  -41.6070  -64.1890   49.1720 C   0  0  0  0  0  0  0  0  0  0  0  0
  -40.8070  -63.3010   49.5080 O   0  0  0  0  0  0  0  0  0  0  0  0
  -42.7140  -63.8670   48.3650 N   0  0  0  0  0  0  0  0  0  0  0  0
  -45.0870  -67.4800   52.9040 H   0  0  0  0  0  0  0  0  0  0  0  0
  -48.2510  -63.7220   52.7270 H   0  0  0  0  0  0  0  0  0  0  0  0
  -49.0050  -65.9000   53.5190 H   0  0  0  0  0  0  0  0  0  0  0  0
  -46.1140  -62.2620   51.7440 H   0  0  0  0  0  0  0  0  0  0  0  0
  -44.1930  -66.3640   50.4910 H   0  0  0  0  0  0  0  0  0  0  0  0
  -42.0650  -66.9910   51.0560 H   0  0  0  0  0  0  0  0  0  0  0  0
  -41.3010  -64.1390   51.8000 H   0  0  0  0  0  0  0  0  0  0  0  0
  -40.8940  -65.7270   52.6160 H   0  0  0  0  0  0  0  0  0  0  0  0
  -42.8550  -63.9650   53.4070 H   0  0  0  0  0  0  0  0  0  0  0  0
  -43.8070  -67.8530   53.4170 H   0  0  0  0  0  0  0  0  0  0  0  0
  -40.0540  -69.6290   56.4880 H   0  0  0  0  0  0  0  0  0  0  0  0
  -38.6800  -70.4360   54.6340 H   0  0  0  0  0  0  0  0  0  0  0  0
  -41.1790  -68.4320   51.9120 H   0  0  0  0  0  0  0  0  0  0  0  0
  -37.2840  -68.9290   52.4490 H   0  0  0  0  0  0  0  0  0  0  0  0
  -38.3580  -68.3050   51.1120 H   0  0  0  0  0  0  0  0  0  0  0  0
  -37.4050  -69.7970   50.8950 H   0  0  0  0  0  0  0  0  0  0  0  0
  -41.7170  -69.2710   57.9110 H   0  0  0  0  0  0  0  0  0  0  0  0
  -43.2860  -68.3800   57.9900 H   0  0  0  0  0  0  0  0  0  0  0  0
  -43.0900  -69.8920   56.9670 H   0  0  0  0  0  0  0  0  0  0  0  0
  -41.6520  -66.3080   48.8120 H   0  0  0  0  0  0  0  0  0  0  0  0
  -40.3200  -65.7040   49.8100 H   0  0  0  0  0  0  0  0  0  0  0  0
  -43.4410  -64.5970   48.2110 H   0  0  0  0  0  0  0  0  0  0  0  0
  -42.8610  -62.9360   47.9030 H   0  0  0  0  0  0  0  0  0  0  0  0
  2  1  1  0  0  0  0
  3 33  1  0  0  0  0
  3  2  2  0  0  0  0
  4  3  1  0  0  0  0
  5  4  2  0  0  0  0
  5  6  1  0  0  0  0
  6  7  2  0  0  0  0
  7  2  1  0  0  0  0
  7 35  1  0  0  0  0
  8  5  1  0  0  0  0
  9  8  1  0  0  0  0
 10  9  2  0  0  0  0
 11  9  1  6  0  0  0
 11  4  1  0  0  0  0
 11 15  1  0  0  0  0
 12 13  1  0  0  0  0
 12 11  1  0  0  0  0
 13 38  1  1  0  0  0
 13 14  1  0  0  0  0
 14 40  1  0  0  0  0
 14 15  1  0  0  0  0
 15 41  1  1  0  0  0
 15 16  1  0  0  0  0
 16 17  2  0  0  0  0
 18 19  1  0  0  0  0
 18 16  1  0  0  0  0
 19 20  1  0  0  0  0
 20 21  2  0  0  0  0
 20 27  1  0  0  0  0
 21 43  1  0  0  0  0
 22 44  1  0  0  0  0
 22 21  1  0  0  0  0
 23 22  2  0  0  0  0
 24 23  1  0  0  0  0
 24 19  2  0  0  0  0
 25 23  1  0  0  0  0
 26 25  1  0  0  0  0
 26 46  1  0  0  0  0
 27 28  1  0  0  0  0
 28 49  1  0  0  0  0
 28 50  1  0  0  0  0
 29 53  1  0  0  0  0
 29 13  1  0  0  0  0
 30 31  2  0  0  0  0
 30 29  1  0  0  0  0
 32 30  1  0  0  0  0
 34  6  1  0  0  0  0
 36  8  1  0  0  0  0
 37 12  1  0  0  0  0
 39 14  1  0  0  0  0
 42 18  1  0  0  0  0
 45 24  1  0  0  0  0
 47 26  1  0  0  0  0
 48 26  1  0  0  0  0
 51 28  1  0  0  0  0
 52 29  1  0  0  0  0
 54 32  1  0  0  0  0
 55 32  1  0  0  0  0
M  END
>  <Pose>
1

>  <Score>
-6.81

$$$$
