
 OpenBabel03202209423D

 32 35  0  0  0  0  0  0  0  0999 V2000
  -48.2260  -65.7890   51.6120 B   0  0  0  0  0  0  0  0  0  0  0  0
  -46.7950  -66.1150   52.8280 C   0  0  0  0  0  0  0  0  0  0  0  0
  -45.5650  -65.4660   52.9010 C   0  0  0  0  0  0  0  0  0  0  0  0
  -44.8560  -66.0140   53.9080 N   0  0  0  0  0  0  0  0  0  0  0  0
  -45.5990  -66.9740   54.4590 N   0  0  0  0  0  0  0  0  0  0  0  0
  -46.7850  -67.0640   53.8280 C   0  0  0  0  0  0  0  0  0  0  0  0
  -47.9160  -67.9820   54.0980 C   0  0  0  0  0  0  0  0  0  0  0  0
  -43.5170  -65.6400   54.3340 C   0  0  0  0  0  0  0  0  0  0  0  0
  -42.5790  -66.7950   54.2800 C   0  0  0  0  0  0  0  0  0  0  0  0
  -42.4390  -67.8050   55.1550 N   0  0  0  0  0  0  0  0  0  0  0  0
  -41.4800  -68.6530   54.7480 N   0  0  0  0  0  0  0  0  0  0  0  0
  -40.9960  -68.1730   53.5890 C   0  0  0  0  0  0  0  0  0  0  0  0
  -41.6710  -67.0410   53.3110 N   0  0  0  0  0  0  0  0  0  0  0  0
  -39.9860  -68.8840   52.9710 C   0  0  0  0  0  0  0  0  0  0  0  0
  -39.4740  -70.0510   53.5060 C   0  0  0  0  0  0  0  0  0  0  0  0
  -38.5020  -70.5440   52.7080 N   0  0  0  0  0  0  0  0  0  0  0  0
  -38.4060  -69.7040   51.6950 N   0  0  0  0  0  0  0  0  0  0  0  0
  -39.2800  -68.6870   51.8070 C   0  0  0  0  0  0  0  0  0  0  0  0
  -37.7310  -71.7620   52.9470 C   0  0  0  0  0  0  0  0  0  0  0  0
  -40.0050  -70.4720   54.6670 N   0  0  0  0  0  0  0  0  0  0  0  0
  -40.9870  -69.7890   55.2770 C   0  0  0  0  0  0  0  0  0  0  0  0
  -45.2740  -64.6600   52.2360 H   0  0  0  0  0  0  0  0  0  0  0  0
  -47.8200  -68.9550   53.5700 H   0  0  0  0  0  0  0  0  0  0  0  0
  -48.8890  -67.5460   53.8220 H   0  0  0  0  0  0  0  0  0  0  0  0
  -47.8760  -68.2050   55.2000 H   0  0  0  0  0  0  0  0  0  0  0  0
  -43.5330  -65.1850   55.3620 H   0  0  0  0  0  0  0  0  0  0  0  0
  -43.1560  -64.7980   53.6740 H   0  0  0  0  0  0  0  0  0  0  0  0
  -39.4480  -67.8500   51.1550 H   0  0  0  0  0  0  0  0  0  0  0  0
  -37.3350  -72.1760   51.9940 H   0  0  0  0  0  0  0  0  0  0  0  0
  -38.4080  -72.5730   53.3460 H   0  0  0  0  0  0  0  0  0  0  0  0
  -36.8840  -71.6030   53.6220 H   0  0  0  0  0  0  0  0  0  0  0  0
  -41.4290  -70.1120   56.2160 H   0  0  0  0  0  0  0  0  0  0  0  0
  1  2  1  0  0  0  0
  2  3  2  0  0  0  0
  2  6  1  0  0  0  0
  3  4  1  0  0  0  0
  4  8  1  0  0  0  0
  4  5  1  0  0  0  0
  6  7  1  0  0  0  0
  6  5  2  0  0  0  0
  7 25  1  0  0  0  0
  8 26  1  0  0  0  0
  9  8  1  0  0  0  0
  9 10  2  0  0  0  0
 11 10  1  0  0  0  0
 11 21  1  0  0  0  0
 12 11  1  0  0  0  0
 13 12  2  0  0  0  0
 13  9  1  0  0  0  0
 14 15  2  0  0  0  0
 14 12  1  0  0  0  0
 15 20  1  0  0  0  0
 16 19  1  0  0  0  0
 16 15  1  0  0  0  0
 17 18  2  0  0  0  0
 17 16  1  0  0  0  0
 18 14  1  0  0  0  0
 19 30  1  0  0  0  0
 19 31  1  0  0  0  0
 20 21  2  0  0  0  0
 21 32  1  0  0  0  0
 22  3  1  0  0  0  0
 23  7  1  0  0  0  0
 24  7  1  0  0  0  0
 27  8  1  0  0  0  0
 28 18  1  0  0  0  0
 29 19  1  0  0  0  0
M  END
>  <Pose>
1

>  <Score>
-6.16

$$$$
