
 OpenBabel03202209423D

 46 49  0  0  0  0  0  0  0  0999 V2000
  -41.6150  -65.0070   50.7750 B   0  0  0  0  0  0  0  0  0  0  0  0
  -41.3470  -66.4650   51.9780 C   0  0  0  0  0  0  0  0  0  0  0  0
  -42.2010  -66.7560   52.9900 N   0  0  0  0  0  0  0  0  0  0  0  0
  -41.6630  -67.8390   53.5940 C   0  0  0  0  0  0  0  0  0  0  0  0
  -40.4920  -68.2210   52.9730 C   0  0  0  0  0  0  0  0  0  0  0  0
  -40.3230  -67.3370   51.9610 N   0  0  0  0  0  0  0  0  0  0  0  0
  -39.7590  -69.2790   53.3860 N   0  0  0  0  0  0  0  0  0  0  0  0
  -40.2040  -69.9740   54.4470 C   0  0  0  0  0  0  0  0  0  0  0  0
  -39.5740  -70.9720   54.8890 O   0  0  0  0  0  0  0  0  0  0  0  0
  -41.3550  -69.6280   55.0870 N   0  0  0  0  0  0  0  0  0  0  0  0
  -42.0880  -68.5800   54.6850 C   0  0  0  0  0  0  0  0  0  0  0  0
  -43.1520  -68.2220   55.2380 O   0  0  0  0  0  0  0  0  0  0  0  0
  -38.5300  -69.6660   52.7180 C   0  0  0  0  0  0  0  0  0  0  0  0
  -43.4200  -66.0840   53.3690 C   0  0  0  0  0  0  0  0  0  0  0  0
  -44.6420  -66.7740   52.7790 C   0  0  0  0  0  0  0  0  0  0  0  0
  -45.7960  -66.7540   53.7460 C   0  0  0  0  0  0  0  0  0  0  0  0
  -47.1520  -66.7920   53.1090 C   0  0  0  0  0  0  0  0  0  0  0  0
  -47.8170  -65.5420   53.2730 N   0  0  0  0  0  0  0  0  0  0  0  0
  -48.8350  -65.1930   54.0560 C   0  0  0  0  0  0  0  0  0  0  0  0
  -49.0920  -63.8380   53.8790 C   0  0  0  0  0  0  0  0  0  0  0  0
  -48.2060  -63.4170   52.9820 N   0  0  0  0  0  0  0  0  0  0  0  0
  -47.4260  -64.4300   52.6010 C   0  0  0  0  0  0  0  0  0  0  0  0
  -46.0170  -64.2760   51.3250 B   0  0  0  0  0  0  0  0  0  0  0  0
  -50.0770  -63.2350   54.5510 N   0  0  0  0  0  0  0  0  0  0  0  0
  -50.8480  -63.9220   55.4160 C   0  0  0  0  0  0  0  0  0  0  0  0
  -51.7720  -63.3470   56.0440 O   0  0  0  0  0  0  0  0  0  0  0  0
  -50.6130  -65.2250   55.5950 N   0  0  0  0  0  0  0  0  0  0  0  0
  -49.6340  -65.8690   54.9410 C   0  0  0  0  0  0  0  0  0  0  0  0
  -49.4310  -67.0860   55.1190 O   0  0  0  0  0  0  0  0  0  0  0  0
  -50.3680  -61.8150   54.3850 C   0  0  0  0  0  0  0  0  0  0  0  0
  -41.6690  -70.1930   55.9100 H   0  0  0  0  0  0  0  0  0  0  0  0
  -38.4830  -69.2680   51.6840 H   0  0  0  0  0  0  0  0  0  0  0  0
  -37.6490  -69.2130   53.2570 H   0  0  0  0  0  0  0  0  0  0  0  0
  -38.4180  -70.7670   52.6320 H   0  0  0  0  0  0  0  0  0  0  0  0
  -43.3930  -65.0210   53.1370 H   0  0  0  0  0  0  0  0  0  0  0  0
  -43.5140  -66.2020   54.4780 H   0  0  0  0  0  0  0  0  0  0  0  0
  -45.0070  -66.1900   51.8820 H   0  0  0  0  0  0  0  0  0  0  0  0
  -44.4250  -67.7960   52.4460 H   0  0  0  0  0  0  0  0  0  0  0  0
  -45.6580  -67.5560   54.5030 H   0  0  0  0  0  0  0  0  0  0  0  0
  -45.7860  -65.8070   54.3650 H   0  0  0  0  0  0  0  0  0  0  0  0
  -46.9880  -67.0400   52.0300 H   0  0  0  0  0  0  0  0  0  0  0  0
  -47.7080  -67.6540   53.5230 H   0  0  0  0  0  0  0  0  0  0  0  0
  -51.1960  -65.8030   56.2660 H   0  0  0  0  0  0  0  0  0  0  0  0
  -49.5430  -61.3750   53.7810 H   0  0  0  0  0  0  0  0  0  0  0  0
  -50.3540  -61.3780   55.4080 H   0  0  0  0  0  0  0  0  0  0  0  0
  -51.3470  -61.6510   53.9050 H   0  0  0  0  0  0  0  0  0  0  0  0
  1  2  1  0  0  0  0
  2  3  1  0  0  0  0
  3 14  1  0  0  0  0
  3  4  1  0  0  0  0
  4 11  1  0  0  0  0
  5  7  1  0  0  0  0
  5  4  2  0  0  0  0
  6  2  2  0  0  0  0
  6  5  1  0  0  0  0
  7  8  1  0  0  0  0
  8  9  2  0  0  0  0
  8 10  1  0  0  0  0
 10 31  1  0  0  0  0
 11 10  1  0  0  0  0
 11 12  2  0  0  0  0
 13 33  1  0  0  0  0
 13  7  1  0  0  0  0
 14 36  1  0  0  0  0
 15 14  1  0  0  0  0
 15 16  1  0  0  0  0
 16 40  1  0  0  0  0
 16 39  1  0  0  0  0
 17 18  1  0  0  0  0
 17 42  1  0  0  0  0
 17 16  1  0  0  0  0
 18 19  1  0  0  0  0
 19 28  1  0  0  0  0
 20 19  2  0  0  0  0
 20 24  1  0  0  0  0
 21 20  1  0  0  0  0
 22 21  2  0  0  0  0
 22 18  1  0  0  0  0
 23 22  1  0  0  0  0
 24 25  1  0  0  0  0
 25 27  1  0  0  0  0
 25 26  2  0  0  0  0
 27 43  1  0  0  0  0
 28 29  2  0  0  0  0
 28 27  1  0  0  0  0
 30 24  1  0  0  0  0
 30 45  1  0  0  0  0
 32 13  1  0  0  0  0
 34 13  1  0  0  0  0
 35 14  1  0  0  0  0
 37 15  1  0  0  0  0
 38 15  1  0  0  0  0
 41 17  1  0  0  0  0
 44 30  1  0  0  0  0
 46 30  1  0  0  0  0
M  END
>  <Pose>
1

>  <Score>
-7.65

$$$$
