
 OpenBabel03202209423D

 51 54  0  0  0  0  0  0  0  0999 V2000
  -39.6450  -67.1650   50.1240 Cl  0  0  0  0  0  0  0  0  0  0  0  0
  -38.1160  -67.9080   50.5290 C   0  0  0  0  0  0  0  0  0  0  0  0
  -38.0950  -69.1120   51.1690 C   0  0  0  0  0  0  0  0  0  0  0  0
  -36.8630  -69.6520   51.4640 C   0  0  0  0  0  0  0  0  0  0  0  0
  -35.6900  -69.0210   51.1370 C   0  0  0  0  0  0  0  0  0  0  0  0
  -35.7230  -67.8030   50.4900 C   0  0  0  0  0  0  0  0  0  0  0  0
  -36.9510  -67.2580   50.1920 C   0  0  0  0  0  0  0  0  0  0  0  0
  -39.3070  -69.8580   51.5560 C   0  0  0  0  0  0  0  0  0  0  0  0
  -39.5870  -69.8430   52.9490 N   0  0  0  0  0  0  0  0  0  0  0  0
  -39.2700  -70.7840   53.8300 N   0  0  0  0  0  0  0  0  0  0  0  0
  -39.6800  -70.4630   55.0450 C   0  0  0  0  0  0  0  0  0  0  0  0
  -40.3080  -69.2150   54.9270 C   0  0  0  0  0  0  0  0  0  0  0  0
  -40.2430  -68.8390   53.6040 C   0  0  0  0  0  0  0  0  0  0  0  0
  -40.6950  -67.6440   53.0560 N   0  0  0  0  0  0  0  0  0  0  0  0
  -41.8530  -66.9380   52.9760 C   0  0  0  0  0  0  0  0  0  0  0  0
  -42.2150  -66.8830   51.6510 O   0  0  0  0  0  0  0  0  0  0  0  0
  -42.8330  -66.2340   53.7870 C   0  0  0  0  0  0  0  0  0  0  0  0
  -44.2240  -66.2940   53.6480 N   0  0  0  0  0  0  0  0  0  0  0  0
  -45.0150  -67.5120   53.9700 C   0  0  0  0  0  0  0  0  0  0  0  0
  -46.3720  -67.2590   53.3480 C   0  0  0  0  0  0  0  0  0  0  0  0
  -47.0080  -66.0830   54.0410 C   0  0  0  0  0  0  0  0  0  0  0  0
  -46.2450  -64.8230   53.6940 C   0  0  0  0  0  0  0  0  0  0  0  0
  -44.9280  -65.1770   53.0890 C   0  0  0  0  0  0  0  0  0  0  0  0
  -44.4900  -64.5290   52.0070 C   0  0  0  0  0  0  0  0  0  0  0  0
  -45.2040  -63.4040   51.4690 N   0  0  0  0  0  0  0  0  0  0  0  0
  -44.5600  -62.9590   50.3000 N   0  0  0  0  0  0  0  0  0  0  0  0
  -43.4390  -63.7840   50.0790 C   0  0  0  0  0  0  0  0  0  0  0  0
  -42.5900  -63.7450   49.1600 O   0  0  0  0  0  0  0  0  0  0  0  0
  -43.4180  -64.7480   51.1470 N   0  0  0  0  0  0  0  0  0  0  0  0
  -36.8020  -70.6020   51.9700 H   0  0  0  0  0  0  0  0  0  0  0  0
  -34.7380  -69.4650   51.3800 H   0  0  0  0  0  0  0  0  0  0  0  0
  -34.7940  -67.3090   50.2330 H   0  0  0  0  0  0  0  0  0  0  0  0
  -36.9740  -66.3090   49.6870 H   0  0  0  0  0  0  0  0  0  0  0  0
  -39.2840  -70.8790   51.0960 H   0  0  0  0  0  0  0  0  0  0  0  0
  -40.1600  -69.3490   51.0130 H   0  0  0  0  0  0  0  0  0  0  0  0
  -39.5870  -70.9990   55.9880 H   0  0  0  0  0  0  0  0  0  0  0  0
  -40.7350  -68.6850   55.7530 H   0  0  0  0  0  0  0  0  0  0  0  0
  -39.8270  -67.0770   52.6220 H   0  0  0  0  0  0  0  0  0  0  0  0
  -42.5530  -66.6420   54.8490 H   0  0  0  0  0  0  0  0  0  0  0  0
  -42.5300  -65.1090   53.8520 H   0  0  0  0  0  0  0  0  0  0  0  0
  -44.6000  -68.3670   53.3840 H   0  0  0  0  0  0  0  0  0  0  0  0
  -45.1420  -67.7030   55.0130 H   0  0  0  0  0  0  0  0  0  0  0  0
  -47.0230  -68.1690   53.4980 H   0  0  0  0  0  0  0  0  0  0  0  0
  -46.3010  -67.0710   52.2570 H   0  0  0  0  0  0  0  0  0  0  0  0
  -48.0750  -65.9780   53.7200 H   0  0  0  0  0  0  0  0  0  0  0  0
  -47.0020  -66.2750   55.1250 H   0  0  0  0  0  0  0  0  0  0  0  0
  -46.8540  -64.1630   53.0340 H   0  0  0  0  0  0  0  0  0  0  0  0
  -46.0690  -64.2470   54.6070 H   0  0  0  0  0  0  0  0  0  0  0  0
  -46.0570  -62.9100   51.7970 H   0  0  0  0  0  0  0  0  0  0  0  0
  -44.8340  -62.1580   49.6780 H   0  0  0  0  0  0  0  0  0  0  0  0
  -42.7160  -65.5010   51.2310 H   0  0  0  0  0  0  0  0  0  0  0  0
  1  2  1  0  0  0  0
  2  3  1  0  0  0  0
  3  4  2  0  0  0  0
  3  8  1  0  0  0  0
  4 30  1  0  0  0  0
  5 31  1  0  0  0  0
  5  4  1  0  0  0  0
  6  5  2  0  0  0  0
  7  6  1  0  0  0  0
  7  2  2  0  0  0  0
  8  9  1  0  0  0  0
  9 13  1  0  0  0  0
  9 10  1  0  0  0  0
 10 11  2  0  0  0  0
 11 36  1  0  0  0  0
 12 11  1  0  0  0  0
 12 37  1  0  0  0  0
 13 12  2  0  0  0  0
 14 13  1  0  0  0  0
 15 14  1  0  0  0  0
 15 17  1  0  0  0  0
 16 15  2  0  0  0  0
 17 40  1  0  0  0  0
 17 39  1  0  0  0  0
 18 17  1  0  0  0  0
 18 19  1  0  0  0  0
 19 42  1  0  0  0  0
 20 43  1  0  0  0  0
 20 19  1  0  0  0  0
 20 21  1  0  0  0  0
 21 46  1  0  0  0  0
 22 21  1  0  0  0  0
 22 48  1  0  0  0  0
 23 18  1  0  0  0  0
 23 22  1  0  0  0  0
 24 23  2  0  0  0  0
 25 49  1  0  0  0  0
 25 24  1  0  0  0  0
 26 25  1  0  0  0  0
 27 26  1  0  0  0  0
 27 29  1  0  0  0  0
 28 27  2  0  0  0  0
 29 51  1  0  0  0  0
 29 24  1  0  0  0  0
 32  6  1  0  0  0  0
 33  7  1  0  0  0  0
 34  8  1  0  0  0  0
 35  8  1  0  0  0  0
 38 14  1  0  0  0  0
 41 19  1  0  0  0  0
 44 20  1  0  0  0  0
 45 21  1  0  0  0  0
 47 22  1  0  0  0  0
 50 26  1  0  0  0  0
M  END
>  <Pose>
1

>  <Score>
-6.07

$$$$
