
 OpenBabel03202209423D

 41 44  0  0  0  0  0  0  0  0999 V2000
  -46.1710  -63.9200   50.5260 B   0  0  0  0  0  0  0  0  0  0  0  0
  -46.2140  -65.0290   52.0800 C   0  0  0  0  0  0  0  0  0  0  0  0
  -47.4010  -65.6370   52.4220 C   0  0  0  0  0  0  0  0  0  0  0  0
  -47.4640  -66.4280   53.5190 N   0  0  0  0  0  0  0  0  0  0  0  0
  -46.3480  -66.6010   54.2520 C   0  0  0  0  0  0  0  0  0  0  0  0
  -45.1420  -66.0280   53.9680 C   0  0  0  0  0  0  0  0  0  0  0  0
  -45.0670  -65.2190   52.8510 C   0  0  0  0  0  0  0  0  0  0  0  0
  -43.9970  -66.2820   54.8300 C   0  0  0  0  0  0  0  0  0  0  0  0
  -43.4340  -65.2780   55.3780 O   0  0  0  0  0  0  0  0  0  0  0  0
  -43.4960  -67.5890   55.0740 N   0  0  0  0  0  0  0  0  0  0  0  0
  -42.1220  -67.8770   54.6940 C   0  0  0  0  0  0  0  0  0  0  0  0
  -41.9670  -69.3290   54.3030 C   0  0  0  0  0  0  0  0  0  0  0  0
  -40.7780  -69.3940   53.4450 N   0  0  0  0  0  0  0  0  0  0  0  0
  -39.8910  -70.3700   53.3490 N   0  0  0  0  0  0  0  0  0  0  0  0
  -38.9550  -70.0610   52.4610 N   0  0  0  0  0  0  0  0  0  0  0  0
  -39.2150  -68.8500   51.9460 C   0  0  0  0  0  0  0  0  0  0  0  0
  -40.3680  -68.4360   52.5720 C   0  0  0  0  0  0  0  0  0  0  0  0
  -38.4510  -68.1280   50.9450 C   0  0  0  0  0  0  0  0  0  0  0  0
  -37.1760  -68.3510   50.5780 N   0  0  0  0  0  0  0  0  0  0  0  0
  -36.8280  -67.4750   49.6220 C   0  0  0  0  0  0  0  0  0  0  0  0
  -37.9150  -66.7140   49.4130 N   0  0  0  0  0  0  0  0  0  0  0  0
  -38.8540  -67.1250   50.2090 O   0  0  0  0  0  0  0  0  0  0  0  0
  -35.5200  -67.3680   48.9410 C   0  0  0  0  0  0  0  0  0  0  0  0
  -35.4380  -67.5700   47.5820 C   0  0  0  0  0  0  0  0  0  0  0  0
  -34.2520  -67.4750   46.9510 N   0  0  0  0  0  0  0  0  0  0  0  0
  -33.1010  -67.1850   47.5900 C   0  0  0  0  0  0  0  0  0  0  0  0
  -33.1940  -66.9840   48.9540 C   0  0  0  0  0  0  0  0  0  0  0  0
  -34.3800  -67.0700   49.6350 C   0  0  0  0  0  0  0  0  0  0  0  0
  -48.3170  -65.5000   51.8290 H   0  0  0  0  0  0  0  0  0  0  0  0
  -46.4540  -67.2500   55.1260 H   0  0  0  0  0  0  0  0  0  0  0  0
  -44.1430  -64.7360   52.5720 H   0  0  0  0  0  0  0  0  0  0  0  0
  -44.1000  -68.3130   55.5110 H   0  0  0  0  0  0  0  0  0  0  0  0
  -41.9080  -67.2750   53.7700 H   0  0  0  0  0  0  0  0  0  0  0  0
  -41.4350  -67.5780   55.5080 H   0  0  0  0  0  0  0  0  0  0  0  0
  -41.8160  -69.9150   55.2240 H   0  0  0  0  0  0  0  0  0  0  0  0
  -42.8090  -69.6990   53.6990 H   0  0  0  0  0  0  0  0  0  0  0  0
  -40.8770  -67.5040   52.4070 H   0  0  0  0  0  0  0  0  0  0  0  0
  -36.3600  -67.8080   47.0290 H   0  0  0  0  0  0  0  0  0  0  0  0
  -32.1510  -67.1120   47.0630 H   0  0  0  0  0  0  0  0  0  0  0  0
  -32.2840  -66.7480   49.5010 H   0  0  0  0  0  0  0  0  0  0  0  0
  -34.4580  -66.9130   50.7110 H   0  0  0  0  0  0  0  0  0  0  0  0
  1  2  1  0  0  0  0
  2  3  2  0  0  0  0
  2  7  1  0  0  0  0
  3  4  1  0  0  0  0
  4  5  2  0  0  0  0
  5 30  1  0  0  0  0
  6  5  1  0  0  0  0
  6  8  1  0  0  0  0
  7  6  2  0  0  0  0
  8 10  1  0  0  0  0
  8  9  2  0  0  0  0
 10 32  1  0  0  0  0
 11 10  1  0  0  0  0
 11 34  1  0  0  0  0
 12 11  1  0  0  0  0
 12 35  1  0  0  0  0
 13 12  1  0  0  0  0
 14 13  1  0  0  0  0
 15 14  2  0  0  0  0
 16 15  1  0  0  0  0
 16 17  2  0  0  0  0
 17 13  1  0  0  0  0
 18 16  1  0  0  0  0
 19 18  2  0  0  0  0
 20 19  1  0  0  0  0
 21 20  2  0  0  0  0
 21 22  1  0  0  0  0
 22 18  1  0  0  0  0
 23 20  1  0  0  0  0
 23 28  1  0  0  0  0
 24 23  2  0  0  0  0
 25 24  1  0  0  0  0
 25 26  2  0  0  0  0
 26 27  1  0  0  0  0
 27 40  1  0  0  0  0
 27 28  2  0  0  0  0
 28 41  1  0  0  0  0
 29  3  1  0  0  0  0
 31  7  1  0  0  0  0
 33 11  1  0  0  0  0
 36 12  1  0  0  0  0
 37 17  1  0  0  0  0
 38 24  1  0  0  0  0
 39 26  1  0  0  0  0
M  END
>  <Pose>
1

>  <Score>
-7.05

$$$$
