
 OpenBabel03202209423D

 54 57  0  0  0  0  0  0  0  0999 V2000
  -43.0280  -63.2030   48.7850 Cl  0  0  0  0  0  0  0  0  0  0  0  0
  -41.8610  -63.1200   47.4620 C   0  0  0  0  0  0  0  0  0  0  0  0
  -40.6060  -63.6610   47.6310 C   0  0  0  0  0  0  0  0  0  0  0  0
  -39.7220  -63.5820   46.5900 C   0  0  0  0  0  0  0  0  0  0  0  0
  -40.0410  -62.9850   45.3800 C   0  0  0  0  0  0  0  0  0  0  0  0
  -41.3260  -62.4480   45.2470 C   0  0  0  0  0  0  0  0  0  0  0  0
  -42.2290  -62.5150   46.2780 C   0  0  0  0  0  0  0  0  0  0  0  0
  -40.2180  -64.2820   48.8340 N   0  0  0  0  0  0  0  0  0  0  0  0
  -40.2320  -65.7140   48.9790 C   0  0  0  0  0  0  0  0  0  0  0  0
  -40.8930  -66.1770   50.2530 C   0  0  0  0  0  0  0  0  0  0  0  0
  -41.0060  -65.0480   51.1370 N   0  0  0  0  0  0  0  0  0  0  0  0
  -39.8680  -64.1730   51.2500 C   0  0  0  0  0  0  0  0  0  0  0  0
  -39.8000  -63.3940   49.9290 C   0  0  0  0  0  0  0  0  0  0  0  0
  -42.1650  -64.7600   51.8910 C   0  0  0  0  0  0  0  0  0  0  0  0
  -42.7090  -63.6180   51.8490 O   0  0  0  0  0  0  0  0  0  0  0  0
  -42.7940  -65.7480   52.7530 C   0  0  0  0  0  0  0  0  0  0  0  0
  -44.1310  -65.6790   53.0320 C   0  0  0  0  0  0  0  0  0  0  0  0
  -44.7970  -66.5680   53.8320 N   0  0  0  0  0  0  0  0  0  0  0  0
  -44.0880  -67.5570   54.3670 C   0  0  0  0  0  0  0  0  0  0  0  0
  -42.7440  -67.7080   54.1460 C   0  0  0  0  0  0  0  0  0  0  0  0
  -42.0530  -66.7560   53.2960 C   0  0  0  0  0  0  0  0  0  0  0  0
  -40.7670  -67.1510   53.2640 N   0  0  0  0  0  0  0  0  0  0  0  0
  -40.6080  -68.2350   54.0030 N   0  0  0  0  0  0  0  0  0  0  0  0
  -41.7720  -68.6050   54.5530 C   0  0  0  0  0  0  0  0  0  0  0  0
  -42.0260  -69.5850   55.3180 O   0  0  0  0  0  0  0  0  0  0  0  0
  -46.2310  -66.4220   54.0310 C   0  0  0  0  0  0  0  0  0  0  0  0
  -47.0650  -67.5210   53.5420 C   0  0  0  0  0  0  0  0  0  0  0  0
  -48.4070  -67.8240   54.0400 C   0  0  0  0  0  0  0  0  0  0  0  0
  -48.6130  -68.6190   55.1030 O   0  0  0  0  0  0  0  0  0  0  0  0
  -49.1630  -68.2030   56.2450 C   0  0  0  0  0  0  0  0  0  0  0  0
  -38.7400  -63.9990   46.7080 H   0  0  0  0  0  0  0  0  0  0  0  0
  -39.3280  -62.9390   44.5840 H   0  0  0  0  0  0  0  0  0  0  0  0
  -41.5480  -61.9880   44.2950 H   0  0  0  0  0  0  0  0  0  0  0  0
  -43.2010  -62.0990   46.1530 H   0  0  0  0  0  0  0  0  0  0  0  0
  -39.2200  -66.1620   48.9030 H   0  0  0  0  0  0  0  0  0  0  0  0
  -40.8220  -66.1390   48.1400 H   0  0  0  0  0  0  0  0  0  0  0  0
  -41.8630  -66.6770   50.0680 H   0  0  0  0  0  0  0  0  0  0  0  0
  -40.2360  -66.9340   50.7640 H   0  0  0  0  0  0  0  0  0  0  0  0
  -38.9010  -64.7540   51.2770 H   0  0  0  0  0  0  0  0  0  0  0  0
  -39.9300  -63.4930   52.1090 H   0  0  0  0  0  0  0  0  0  0  0  0
  -38.8000  -62.9800   49.7500 H   0  0  0  0  0  0  0  0  0  0  0  0
  -40.5660  -62.5930   49.9920 H   0  0  0  0  0  0  0  0  0  0  0  0
  -44.7730  -64.8830   52.6170 H   0  0  0  0  0  0  0  0  0  0  0  0
  -44.5440  -68.3170   54.9920 H   0  0  0  0  0  0  0  0  0  0  0  0
  -39.7160  -68.7780   54.1750 H   0  0  0  0  0  0  0  0  0  0  0  0
  -46.5940  -65.3970   53.7920 H   0  0  0  0  0  0  0  0  0  0  0  0
  -46.3330  -66.4380   55.1770 H   0  0  0  0  0  0  0  0  0  0  0  0
  -47.0730  -67.5010   52.3930 H   0  0  0  0  0  0  0  0  0  0  0  0
  -46.4480  -68.4820   53.7040 H   0  0  0  0  0  0  0  0  0  0  0  0
  -49.0580  -66.8810   54.1000 H   0  0  0  0  0  0  0  0  0  0  0  0
  -48.9430  -68.3520   53.1590 H   0  0  0  0  0  0  0  0  0  0  0  0
  -50.2100  -67.8260   56.0990 H   0  0  0  0  0  0  0  0  0  0  0  0
  -48.6350  -67.4570   56.8450 H   0  0  0  0  0  0  0  0  0  0  0  0
  -49.3530  -69.1250   56.9070 H   0  0  0  0  0  0  0  0  0  0  0  0
  2  3  1  0  0  0  0
  2  1  1  0  0  0  0
  3  8  1  0  0  0  0
  4 31  1  0  0  0  0
  4  3  2  0  0  0  0
  5  4  1  0  0  0  0
  6  5  2  0  0  0  0
  6  7  1  0  0  0  0
  7  2  2  0  0  0  0
  8  9  1  0  0  0  0
  8 13  1  0  0  0  0
  9 10  1  0  0  0  0
 10 38  1  0  0  0  0
 10 11  1  0  0  0  0
 11 12  1  0  0  0  0
 11 14  1  0  0  0  0
 12 39  1  0  0  0  0
 12 40  1  0  0  0  0
 13 42  1  0  0  0  0
 13 12  1  0  0  0  0
 14 16  1  0  0  0  0
 15 14  2  0  0  0  0
 16 17  1  0  0  0  0
 16 21  2  0  0  0  0
 17 18  1  0  0  0  0
 18 26  1  0  0  0  0
 18 19  1  0  0  0  0
 19 44  1  0  0  0  0
 20 19  2  0  0  0  0
 20 24  1  0  0  0  0
 21 20  1  0  0  0  0
 22 21  1  0  0  0  0
 22 23  1  0  0  0  0
 23 45  1  0  0  0  0
 23 24  1  0  0  0  0
 24 25  2  0  0  0  0
 26 47  1  0  0  0  0
 27 49  1  0  0  0  0
 27 26  1  0  0  0  0
 27 28  1  0  0  0  0
 28 50  1  0  0  0  0
 28 29  1  0  0  0  0
 29 30  1  0  0  0  0
 30 53  1  0  0  0  0
 30 54  1  0  0  0  0
 32  5  1  0  0  0  0
 33  6  1  0  0  0  0
 34  7  1  0  0  0  0
 35  9  1  0  0  0  0
 36  9  1  0  0  0  0
 37 10  1  0  0  0  0
 41 13  1  0  0  0  0
 43 17  1  0  0  0  0
 46 26  1  0  0  0  0
 48 27  1  0  0  0  0
 51 28  1  0  0  0  0
 52 30  1  0  0  0  0
M  END
>  <Pose>
1

>  <Score>
-6.03

$$$$
