
 OpenBabel03202209423D

 59 63  0  0  1  0  0  0  0  0999 V2000
  -35.8670  -68.6790   50.5420 B   0  0  0  0  0  0  0  0  0  0  0  0
  -36.9040  -67.7970   49.2200 C   0  0  0  0  0  0  0  0  0  0  0  0
  -37.8680  -66.8810   49.5780 C   0  0  0  0  0  0  0  0  0  0  0  0
  -38.6380  -66.2300   48.6050 C   0  0  0  0  0  0  0  0  0  0  0  0
  -38.3510  -66.5800   47.3040 C   0  0  0  0  0  0  0  0  0  0  0  0
  -37.4060  -67.4800   46.9060 C   0  0  0  0  0  0  0  0  0  0  0  0
  -36.6660  -68.1030   47.8950 C   0  0  0  0  0  0  0  0  0  0  0  0
  -39.6880  -65.3090   48.9940 C   0  0  2  0  0  0  0  0  0  0  0  0
  -39.5530  -63.9200   48.9260 N   0  0  0  0  0  0  0  0  0  0  0  0
  -39.7480  -63.4050   50.2770 C   0  0  0  0  0  0  0  0  0  0  0  0
  -39.5770  -62.2270   50.6820 O   0  0  0  0  0  0  0  0  0  0  0  0
  -40.1940  -64.4790   51.1510 C   0  0  0  0  0  0  0  0  0  0  0  0
  -40.4530  -64.3840   52.3970 O   0  0  0  0  0  0  0  0  0  0  0  0
  -40.2750  -65.6570   50.3280 C   0  0  0  0  0  0  0  0  0  0  0  0
  -40.7370  -66.8280   50.7140 C   0  0  0  0  0  0  0  0  0  0  0  0
  -40.6520  -67.8570   49.7460 O   0  0  0  0  0  0  0  0  0  0  0  0
  -41.3150  -67.1410   52.0080 C   0  0  0  0  0  0  0  0  0  0  0  0
  -42.3380  -66.6160   52.6990 N   0  0  0  0  0  0  0  0  0  0  0  0
  -42.5010  -67.1930   53.8990 C   0  0  0  0  0  0  0  0  0  0  0  0
  -41.5380  -68.1370   53.9890 N   0  0  0  0  0  0  0  0  0  0  0  0
  -40.8060  -68.1350   52.8720 C   0  0  0  0  0  0  0  0  0  0  0  0
  -39.6630  -69.0060   52.5650 C   0  0  0  0  0  0  0  0  0  0  0  0
  -43.5070  -66.8180   54.7700 C   0  0  0  0  0  0  0  0  0  0  0  0
  -44.3660  -65.8200   54.3980 C   0  0  0  0  0  0  0  0  0  0  0  0
  -44.1990  -65.2260   53.1610 C   0  0  0  0  0  0  0  0  0  0  0  0
  -43.1880  -65.6240   52.3180 C   0  0  0  0  0  0  0  0  0  0  0  0
  -39.3730  -63.0860   47.7940 C   0  0  0  0  0  0  0  0  0  0  0  0
  -40.5070  -62.4750   47.1060 C   0  0  0  0  0  0  0  0  0  0  0  0
  -41.6160  -63.2710   46.6680 N   0  0  0  0  0  4  0  0  0  0  0  0
  -42.5450  -63.3520   47.7950 C   0  0  0  0  0  0  0  0  0  0  0  0
  -43.5390  -62.2350   47.8090 C   0  0  0  0  0  0  0  0  0  0  0  0
  -43.1750  -61.2260   46.9040 O   0  0  0  0  0  0  0  0  0  0  0  0
  -43.2710  -61.8010   45.6570 C   0  0  0  0  0  0  0  0  0  0  0  0
  -42.2070  -62.8160   45.4550 C   0  0  0  0  0  0  0  0  0  0  0  0
  -38.0790  -66.6200   50.5970 H   0  0  0  0  0  0  0  0  0  0  0  0
  -38.9360  -66.0890   46.5220 H   0  0  0  0  0  0  0  0  0  0  0  0
  -37.2130  -67.7290   45.8660 H   0  0  0  0  0  0  0  0  0  0  0  0
  -35.9160  -68.8210   47.5730 H   0  0  0  0  0  0  0  0  0  0  0  0
  -40.5510  -65.5300   48.2220 H   0  0  0  0  0  0  0  0  0  0  0  0
  -39.6090  -69.3250   51.5000 H   0  0  0  0  0  0  0  0  0  0  0  0
  -38.7320  -68.4820   52.8870 H   0  0  0  0  0  0  0  0  0  0  0  0
  -39.7380  -69.9310   53.1770 H   0  0  0  0  0  0  0  0  0  0  0  0
  -43.6360  -67.2790   55.7320 H   0  0  0  0  0  0  0  0  0  0  0  0
  -45.1830  -65.4660   55.0210 H   0  0  0  0  0  0  0  0  0  0  0  0
  -44.8620  -64.4260   52.8230 H   0  0  0  0  0  0  0  0  0  0  0  0
  -43.0490  -65.1600   51.3300 H   0  0  0  0  0  0  0  0  0  0  0  0
  -38.7990  -63.7030   47.0310 H   0  0  0  0  0  0  0  0  0  0  0  0
  -38.6350  -62.2760   48.0480 H   0  0  0  0  0  0  0  0  0  0  0  0
  -40.9400  -61.7210   47.8420 H   0  0  0  0  0  0  0  0  0  0  0  0
  -40.1930  -61.7850   46.2640 H   0  0  0  0  0  0  0  0  0  0  0  0
  -41.3370  -64.2870   46.5270 H   0  0  0  0  0  0  0  0  0  0  0  0
  -43.0890  -64.3060   47.7200 H   0  0  0  0  0  0  0  0  0  0  0  0
  -41.9820  -63.3760   48.7620 H   0  0  0  0  0  0  0  0  0  0  0  0
  -44.5570  -62.6060   47.5160 H   0  0  0  0  0  0  0  0  0  0  0  0
  -43.5510  -61.7780   48.8190 H   0  0  0  0  0  0  0  0  0  0  0  0
  -43.1330  -60.9400   44.9280 H   0  0  0  0  0  0  0  0  0  0  0  0
  -44.3060  -62.2270   45.5050 H   0  0  0  0  0  0  0  0  0  0  0  0
  -41.4540  -62.3880   44.7450 H   0  0  0  0  0  0  0  0  0  0  0  0
  -42.7020  -63.7070   44.9600 H   0  0  0  0  0  0  0  0  0  0  0  0
  2  3  1  0  0  0  0
  2  1  1  0  0  0  0
  3 35  1  0  0  0  0
  4  8  1  0  0  0  0
  4  3  2  0  0  0  0
  5  4  1  0  0  0  0
  6  5  2  0  0  0  0
  6  7  1  0  0  0  0
  7  2  2  0  0  0  0
  8 39  1  6  0  0  0
  8 14  1  0  0  0  0
  9  8  1  0  0  0  0
  9 10  1  0  0  0  0
 10 11  2  0  0  0  0
 10 12  1  0  0  0  0
 12 13  2  0  0  0  0
 14 15  2  0  0  0  0
 14 12  1  0  0  0  0
 15 17  1  0  0  0  0
 16 15  1  0  0  0  0
 17 18  1  0  0  0  0
 17 21  2  0  0  0  0
 18 19  1  0  0  0  0
 19 20  2  0  0  0  0
 19 23  1  0  0  0  0
 21 20  1  0  0  0  0
 22 21  1  0  0  0  0
 22 41  1  0  0  0  0
 22 42  1  0  0  0  0
 23 43  1  0  0  0  0
 24 23  2  0  0  0  0
 24 44  1  0  0  0  0
 25 24  1  0  0  0  0
 26 18  1  0  0  0  0
 26 25  2  0  0  0  0
 27 48  1  0  0  0  0
 27  9  1  0  0  0  0
 28 27  1  0  0  0  0
 28 49  1  0  0  0  0
 29 28  1  0  0  0  0
 29 30  1  0  0  0  0
 30 31  1  0  0  0  0
 30 53  1  0  0  0  0
 31 55  1  0  0  0  0
 32 31  1  0  0  0  0
 33 32  1  0  0  0  0
 34 33  1  0  0  0  0
 34 29  1  0  0  0  0
 36  5  1  0  0  0  0
 37  6  1  0  0  0  0
 38  7  1  0  0  0  0
 40 22  1  0  0  0  0
 45 25  1  0  0  0  0
 46 26  1  0  0  0  0
 47 27  1  0  0  0  0
 50 28  1  0  0  0  0
 51 29  1  0  0  0  0
 52 30  1  0  0  0  0
 54 31  1  0  0  0  0
 56 33  1  0  0  0  0
 57 33  1  0  0  0  0
 58 34  1  0  0  0  0
 59 34  1  0  0  0  0
M  END
>  <Pose>
1

>  <Score>
-6.05

$$$$
