
 OpenBabel03202209423D

 56 59  0  0  1  0  0  0  0  0999 V2000
  -35.2700  -67.2200   46.9940 B   0  0  0  0  0  0  0  0  0  0  0  0
  -36.9620  -67.0000   47.8840 C   0  0  0  0  0  0  0  0  0  0  0  0
  -38.0970  -66.7110   47.1460 C   0  0  0  0  0  0  0  0  0  0  0  0
  -39.3230  -66.5510   47.7840 C   0  0  0  0  0  0  0  0  0  0  0  0
  -39.4420  -66.6750   49.1490 C   0  0  0  0  0  0  0  0  0  0  0  0
  -38.2940  -66.9630   49.8520 C   0  0  0  0  0  0  0  0  0  0  0  0
  -37.0710  -67.1250   49.2490 C   0  0  0  0  0  0  0  0  0  0  0  0
  -40.7100  -66.5120   49.8260 C   0  0  0  0  0  0  0  0  0  0  0  0
  -41.5220  -67.4740   49.8570 O   0  0  0  0  0  0  0  0  0  0  0  0
  -41.1140  -65.2490   50.5000 C   0  0  0  0  0  0  0  0  0  0  0  0
  -42.0880  -65.4800   51.5240 N   0  0  0  0  0  0  0  0  0  0  0  0
  -43.3300  -65.0520   51.5410 N   0  0  0  0  0  0  0  0  0  0  0  0
  -43.9540  -65.4570   52.6580 C   0  0  0  0  0  0  0  0  0  0  0  0
  -43.0640  -66.1680   53.3660 N   0  0  0  0  0  0  0  0  0  0  0  0
  -41.9010  -66.1780   52.6500 C   0  0  2  0  0  0  0  0  0  0  0  0
  -40.6550  -66.8350   53.0410 C   0  0  0  0  0  0  0  0  0  0  0  0
  -40.8150  -68.3210   53.2620 C   0  0  0  0  0  0  0  0  0  0  0  0
  -41.5750  -68.6250   54.5340 C   0  0  0  0  0  0  0  0  0  0  0  0
  -43.0320  -68.2900   54.4450 C   0  0  0  0  0  0  0  0  0  0  0  0
  -43.2960  -66.8050   54.6470 C   0  0  0  0  0  0  0  0  0  0  0  0
  -45.3420  -65.1940   53.0620 C   0  0  0  0  0  0  0  0  0  0  0  0
  -45.9340  -64.1190   52.3260 N   0  0  0  0  0  0  0  0  0  0  0  0
  -46.4190  -64.2650   50.9950 C   0  0  0  0  0  0  0  0  0  0  0  0
  -47.4980  -65.0620   50.6890 C   0  0  0  0  0  0  0  0  0  0  0  0
  -47.9590  -65.1910   49.4040 C   0  0  0  0  0  0  0  0  0  0  0  0
  -47.3410  -64.5170   48.3980 C   0  0  0  0  0  0  0  0  0  0  0  0
  -46.2610  -63.7180   48.7000 C   0  0  0  0  0  0  0  0  0  0  0  0
  -45.7890  -63.5800   49.9890 C   0  0  0  0  0  0  0  0  0  0  0  0
  -47.7810  -64.6270   47.1000 O   0  0  0  0  0  0  0  0  0  0  0  0
  -46.9700  -65.1070   46.0560 C   0  0  0  0  0  0  0  0  0  0  0  0
  -37.9960  -66.6170   46.0820 H   0  0  0  0  0  0  0  0  0  0  0  0
  -40.1910  -66.3270   47.1890 H   0  0  0  0  0  0  0  0  0  0  0  0
  -38.3680  -67.0650   50.9440 H   0  0  0  0  0  0  0  0  0  0  0  0
  -36.2120  -67.3480   49.8500 H   0  0  0  0  0  0  0  0  0  0  0  0
  -40.2360  -64.6750   50.8530 H   0  0  0  0  0  0  0  0  0  0  0  0
  -41.6130  -64.6300   49.6980 H   0  0  0  0  0  0  0  0  0  0  0  0
  -39.8720  -66.7050   52.2740 H   0  0  0  0  0  0  0  0  0  0  0  0
  -40.2160  -66.4230   53.9950 H   0  0  0  0  0  0  0  0  0  0  0  0
  -41.2540  -68.8490   52.4140 H   0  0  0  0  0  0  0  0  0  0  0  0
  -39.7850  -68.7310   53.4050 H   0  0  0  0  0  0  0  0  0  0  0  0
  -41.0970  -68.1920   55.4140 H   0  0  0  0  0  0  0  0  0  0  0  0
  -41.5110  -69.7430   54.6650 H   0  0  0  0  0  0  0  0  0  0  0  0
  -43.4610  -68.5780   53.4860 H   0  0  0  0  0  0  0  0  0  0  0  0
  -43.5580  -68.8630   55.2560 H   0  0  0  0  0  0  0  0  0  0  0  0
  -42.6770  -66.3840   55.4540 H   0  0  0  0  0  0  0  0  0  0  0  0
  -44.3530  -66.6750   54.9250 H   0  0  0  0  0  0  0  0  0  0  0  0
  -45.3400  -64.9430   54.1540 H   0  0  0  0  0  0  0  0  0  0  0  0
  -45.9690  -66.0940   52.9550 H   0  0  0  0  0  0  0  0  0  0  0  0
  -46.0270  -63.1870   52.7570 H   0  0  0  0  0  0  0  0  0  0  0  0
  -47.9600  -65.5830   51.5380 H   0  0  0  0  0  0  0  0  0  0  0  0
  -48.8050  -65.8240   49.2130 H   0  0  0  0  0  0  0  0  0  0  0  0
  -45.7420  -63.1630   47.9140 H   0  0  0  0  0  0  0  0  0  0  0  0
  -44.9260  -62.9350   50.2110 H   0  0  0  0  0  0  0  0  0  0  0  0
  -47.4140  -64.8770   45.0800 H   0  0  0  0  0  0  0  0  0  0  0  0
  -45.9770  -64.6190   46.1300 H   0  0  0  0  0  0  0  0  0  0  0  0
  -46.8070  -66.2060   46.1350 H   0  0  0  0  0  0  0  0  0  0  0  0
  1  2  1  0  0  0  0
  2  7  1  0  0  0  0
  3  4  1  0  0  0  0
  3  2  2  0  0  0  0
  4  5  2  0  0  0  0
  5  8  1  0  0  0  0
  5  6  1  0  0  0  0
  6 33  1  0  0  0  0
  7 34  1  0  0  0  0
  7  6  2  0  0  0  0
  8  9  2  0  0  0  0
  8 10  1  0  0  0  0
 10 35  1  0  0  0  0
 10 11  1  0  0  0  0
 11 12  1  0  0  0  0
 12 13  2  0  0  0  0
 13 21  1  0  0  0  0
 13 14  1  0  0  0  0
 14 20  1  0  0  0  0
 15 11  1  1  0  0  0
 15 16  1  0  0  0  0
 15 14  1  0  0  0  0
 16 17  1  0  0  0  0
 16 38  1  0  0  0  0
 17 40  1  0  0  0  0
 17 18  1  0  0  0  0
 18 42  1  0  0  0  0
 18 41  1  0  0  0  0
 19 18  1  0  0  0  0
 19 20  1  0  0  0  0
 19 44  1  0  0  0  0
 20 46  1  0  0  0  0
 20 45  1  0  0  0  0
 21 47  1  0  0  0  0
 22 49  1  0  0  0  0
 22 21  1  0  0  0  0
 23 22  1  0  0  0  0
 24 23  1  0  0  0  0
 24 50  1  0  0  0  0
 25 24  2  0  0  0  0
 26 27  2  0  0  0  0
 26 25  1  0  0  0  0
 27 28  1  0  0  0  0
 28 53  1  0  0  0  0
 28 23  2  0  0  0  0
 29 26  1  0  0  0  0
 30 55  1  0  0  0  0
 30 56  1  0  0  0  0
 30 29  1  0  0  0  0
 31  3  1  0  0  0  0
 32  4  1  0  0  0  0
 36 10  1  0  0  0  0
 37 16  1  0  0  0  0
 39 17  1  0  0  0  0
 43 19  1  0  0  0  0
 48 21  1  0  0  0  0
 51 25  1  0  0  0  0
 52 27  1  0  0  0  0
 54 30  1  0  0  0  0
M  END
>  <Pose>
1

>  <Score>
-6.32

$$$$
