
 OpenBabel03202209423D

 54 58  0  0  0  0  0  0  0  0999 V2000
  -43.0970  -64.4640   51.1500 F   0  0  0  0  0  0  0  0  0  0  0  0
  -44.4010  -64.1420   51.2140 C   0  0  0  0  0  0  0  0  0  0  0  0
  -44.8380  -63.3280   50.1730 C   0  0  0  0  0  0  0  0  0  0  0  0
  -46.1530  -62.9240   50.1050 C   0  0  0  0  0  0  0  0  0  0  0  0
  -47.0110  -63.3500   51.0910 C   0  0  0  0  0  0  0  0  0  0  0  0
  -46.5560  -64.1640   52.1230 C   0  0  0  0  0  0  0  0  0  0  0  0
  -45.2510  -64.5710   52.2030 C   0  0  0  0  0  0  0  0  0  0  0  0
  -44.8300  -65.3790   53.2580 N   0  0  0  0  0  4  0  0  0  0  0  0
  -43.5630  -65.0280   53.8460 C   0  0  0  0  0  0  0  0  0  0  0  0
  -43.2990  -65.9090   55.0900 C   0  0  0  0  0  0  0  0  0  0  0  0
  -43.2080  -67.2290   54.6040 N   0  0  0  0  0  0  0  0  0  0  0  0
  -44.5620  -67.6990   54.1140 C   0  0  0  0  0  0  0  0  0  0  0  0
  -44.8360  -66.7750   52.9680 C   0  0  0  0  0  0  0  0  0  0  0  0
  -42.1800  -68.0970   54.4500 C   0  0  0  0  0  0  0  0  0  0  0  0
  -42.0180  -68.9550   55.4290 O   0  0  0  0  0  0  0  0  0  0  0  0
  -41.2180  -68.2510   53.3950 C   0  0  0  0  0  0  0  0  0  0  0  0
  -41.2000  -67.5070   52.2600 C   0  0  0  0  0  0  0  0  0  0  0  0
  -40.2170  -67.6530   51.2900 C   0  0  0  0  0  0  0  0  0  0  0  0
  -39.2270  -68.5830   51.4770 C   0  0  0  0  0  0  0  0  0  0  0  0
  -39.1990  -69.3600   52.6000 C   0  0  0  0  0  0  0  0  0  0  0  0
  -40.1760  -69.1920   53.5340 C   0  0  0  0  0  0  0  0  0  0  0  0
  -40.2330  -66.6600   49.8310 Cl  0  0  0  0  0  0  0  0  0  0  0  0
  -48.2940  -62.9430   51.0040 N   0  0  0  0  0  0  0  0  0  0  0  0
  -48.7390  -62.1570   50.0080 C   0  0  0  0  0  0  0  0  0  0  0  0
  -47.9050  -61.7140   49.0050 C   0  0  0  0  0  0  0  0  0  0  0  0
  -46.5880  -62.1050   49.0550 C   0  0  0  0  0  0  0  0  0  0  0  0
  -45.7750  -61.7380   48.1740 O   0  0  0  0  0  0  0  0  0  0  0  0
  -48.4100  -60.8510   47.9200 C   0  0  0  0  0  0  0  0  0  0  0  0
  -47.7180  -60.5440   46.9370 O   0  0  0  0  0  0  0  0  0  0  0  0
  -49.6990  -60.3800   48.0160 O   0  0  0  0  0  0  0  0  0  0  0  0
  -49.1950  -63.4070   52.0650 C   0  0  0  0  0  0  0  0  0  0  0  0
  -49.5680  -64.8210   52.1770 C   0  0  0  0  0  0  0  0  0  0  0  0
  -50.5580  -63.9590   51.5290 C   0  0  0  0  0  0  0  0  0  0  0  0
  -44.1840  -62.9800   49.3870 H   0  0  0  0  0  0  0  0  0  0  0  0
  -47.3150  -64.4440   52.8540 H   0  0  0  0  0  0  0  0  0  0  0  0
  -45.5450  -65.2420   54.0390 H   0  0  0  0  0  0  0  0  0  0  0  0
  -42.7600  -65.2960   53.1450 H   0  0  0  0  0  0  0  0  0  0  0  0
  -43.5170  -64.0090   54.2670 H   0  0  0  0  0  0  0  0  0  0  0  0
  -42.5060  -65.4690   55.6580 H   0  0  0  0  0  0  0  0  0  0  0  0
  -44.2200  -65.7910   55.7710 H   0  0  0  0  0  0  0  0  0  0  0  0
  -45.2460  -67.4530   54.9420 H   0  0  0  0  0  0  0  0  0  0  0  0
  -44.5330  -68.7490   53.8500 H   0  0  0  0  0  0  0  0  0  0  0  0
  -45.8780  -67.0280   52.6100 H   0  0  0  0  0  0  0  0  0  0  0  0
  -44.1780  -67.0760   52.1350 H   0  0  0  0  0  0  0  0  0  0  0  0
  -41.9600  -66.7850   52.0170 H   0  0  0  0  0  0  0  0  0  0  0  0
  -38.4690  -68.6830   50.7090 H   0  0  0  0  0  0  0  0  0  0  0  0
  -38.3910  -70.0750   52.6860 H   0  0  0  0  0  0  0  0  0  0  0  0
  -40.1510  -69.8150   54.4340 H   0  0  0  0  0  0  0  0  0  0  0  0
  -49.7760  -61.8580   49.9820 H   0  0  0  0  0  0  0  0  0  0  0  0
  -49.3040  -62.7410   52.9400 H   0  0  0  0  0  0  0  0  0  0  0  0
  -49.0690  -65.6180   51.5880 H   0  0  0  0  0  0  0  0  0  0  0  0
  -49.8010  -65.1830   53.2210 H   0  0  0  0  0  0  0  0  0  0  0  0
  -50.6640  -63.9870   50.4270 H   0  0  0  0  0  0  0  0  0  0  0  0
  -51.4640  -63.5800   52.0370 H   0  0  0  0  0  0  0  0  0  0  0  0
  1  2  1  0  0  0  0
  2  7  1  0  0  0  0
  3  2  2  0  0  0  0
  4  3  1  0  0  0  0
  4  5  2  0  0  0  0
  5  6  1  0  0  0  0
  6  7  2  0  0  0  0
  6 35  1  0  0  0  0
  7  8  1  0  0  0  0
  8  9  1  0  0  0  0
  8 36  1  0  0  0  0
  9 38  1  0  0  0  0
  9 10  1  0  0  0  0
 10 39  1  0  0  0  0
 10 40  1  0  0  0  0
 11 10  1  0  0  0  0
 12 11  1  0  0  0  0
 12 41  1  0  0  0  0
 13  8  1  0  0  0  0
 13 12  1  0  0  0  0
 14 11  1  0  0  0  0
 14 15  2  0  0  0  0
 16 21  1  0  0  0  0
 16 14  1  0  0  0  0
 17 16  2  0  0  0  0
 18 19  2  0  0  0  0
 18 17  1  0  0  0  0
 19 20  1  0  0  0  0
 20 47  1  0  0  0  0
 20 21  2  0  0  0  0
 21 48  1  0  0  0  0
 22 18  1  0  0  0  0
 23  5  1  0  0  0  0
 23 31  1  0  0  0  0
 24 23  1  0  0  0  0
 25 26  1  0  0  0  0
 25 24  2  0  0  0  0
 26  4  1  0  0  0  0
 27 26  2  0  0  0  0
 28 30  1  0  0  0  0
 28 25  1  0  0  0  0
 29 28  2  0  0  0  0
 31 32  1  0  0  0  0
 31 50  1  0  0  0  0
 32 52  1  0  0  0  0
 33 54  1  0  0  0  0
 33 31  1  0  0  0  0
 33 32  1  0  0  0  0
 34  3  1  0  0  0  0
 37  9  1  0  0  0  0
 42 12  1  0  0  0  0
 43 13  1  0  0  0  0
 44 13  1  0  0  0  0
 45 17  1  0  0  0  0
 46 19  1  0  0  0  0
 49 24  1  0  0  0  0
 51 32  1  0  0  0  0
 53 33  1  0  0  0  0
M  END
>  <Pose>
1

>  <Score>
-6.33

$$$$
