
 OpenBabel03202209423D

 51 54  0  0  0  0  0  0  0  0999 V2000
  -39.3400  -70.5680   54.6930 Cl  0  0  0  0  0  0  0  0  0  0  0  0
  -39.6390  -69.5110   53.3230 C   0  0  0  0  0  0  0  0  0  0  0  0
  -38.7830  -69.5390   52.2340 C   0  0  0  0  0  0  0  0  0  0  0  0
  -39.0250  -68.7090   51.1660 C   0  0  0  0  0  0  0  0  0  0  0  0
  -40.0990  -67.8460   51.1460 C   0  0  0  0  0  0  0  0  0  0  0  0
  -40.9320  -67.8350   52.2350 C   0  0  0  0  0  0  0  0  0  0  0  0
  -40.7160  -68.6650   53.3370 C   0  0  0  0  0  0  0  0  0  0  0  0
  -40.3120  -66.9640   49.9740 C   0  0  0  0  0  0  0  0  0  0  0  0
  -39.3170  -66.7980   49.2380 O   0  0  0  0  0  0  0  0  0  0  0  0
  -41.5320  -66.3610   49.7070 N   0  0  0  0  0  0  0  0  0  0  0  0
  -42.1770  -65.2520   50.2990 C   0  0  0  0  0  0  0  0  0  0  0  0
  -43.1220  -65.4900   51.4020 C   0  0  0  0  0  0  0  0  0  0  0  0
  -44.5160  -65.5300   51.1990 N   0  0  0  0  0  0  0  0  0  0  0  0
  -45.3360  -64.7560   52.0990 C   0  0  0  0  0  0  0  0  0  0  0  0
  -45.0690  -64.7580   53.3100 O   0  0  0  0  0  0  0  0  0  0  0  0
  -46.4860  -63.9610   51.6100 C   0  0  0  0  0  0  0  0  0  0  0  0
  -47.7050  -64.3600   52.4110 C   0  0  0  0  0  0  0  0  0  0  0  0
  -48.0940  -65.7530   51.9690 C   0  0  0  0  0  0  0  0  0  0  0  0
  -48.6150  -65.6030   50.6130 N   0  0  0  0  0  0  0  0  0  0  0  0
  -48.0460  -64.6400   49.7340 C   0  0  0  0  0  0  0  0  0  0  0  0
  -46.7290  -64.0930   50.1520 C   0  0  0  0  0  0  0  0  0  0  0  0
  -49.6860  -66.4430   50.2290 C   0  0  0  0  0  0  0  0  0  0  0  0
  -49.6320  -67.2530   49.1540 N   0  0  0  0  0  0  0  0  0  0  0  0
  -50.6230  -68.0410   48.7810 N   0  0  0  0  0  0  0  0  0  0  0  0
  -50.7480  -68.8920   47.7680 N   0  0  0  0  0  0  0  0  0  0  0  0
  -51.9220  -69.4640   47.7910 N   0  0  0  0  0  0  0  0  0  0  0  0
  -52.5820  -68.9920   48.8280 N   0  0  0  0  0  0  0  0  0  0  0  0
  -51.7800  -68.1030   49.4500 C   0  0  0  0  0  0  0  0  0  0  0  0
  -51.8980  -67.2940   50.5660 C   0  0  0  0  0  0  0  0  0  0  0  0
  -50.8630  -66.4690   50.9580 C   0  0  0  0  0  0  0  0  0  0  0  0
  -37.9310  -70.2210   52.2460 H   0  0  0  0  0  0  0  0  0  0  0  0
  -38.3650  -68.7140   50.2980 H   0  0  0  0  0  0  0  0  0  0  0  0
  -41.7810  -67.1960   52.3000 H   0  0  0  0  0  0  0  0  0  0  0  0
  -41.3690  -68.6580   54.1950 H   0  0  0  0  0  0  0  0  0  0  0  0
  -42.0640  -66.8610   48.8690 H   0  0  0  0  0  0  0  0  0  0  0  0
  -41.3920  -64.5040   50.6350 H   0  0  0  0  0  0  0  0  0  0  0  0
  -42.7390  -64.7280   49.4580 H   0  0  0  0  0  0  0  0  0  0  0  0
  -42.8540  -64.8060   52.2850 H   0  0  0  0  0  0  0  0  0  0  0  0
  -42.8540  -66.5080   51.8650 H   0  0  0  0  0  0  0  0  0  0  0  0
  -45.0280  -66.0170   50.4680 H   0  0  0  0  0  0  0  0  0  0  0  0
  -46.3240  -62.8790   51.8560 H   0  0  0  0  0  0  0  0  0  0  0  0
  -48.5270  -63.6710   52.1110 H   0  0  0  0  0  0  0  0  0  0  0  0
  -47.5280  -64.2960   53.4990 H   0  0  0  0  0  0  0  0  0  0  0  0
  -48.8910  -66.1770   52.6230 H   0  0  0  0  0  0  0  0  0  0  0  0
  -47.2510  -66.4530   51.8910 H   0  0  0  0  0  0  0  0  0  0  0  0
  -48.7610  -63.7730   49.6470 H   0  0  0  0  0  0  0  0  0  0  0  0
  -47.9320  -65.0440   48.6960 H   0  0  0  0  0  0  0  0  0  0  0  0
  -46.5080  -63.1000   49.6600 H   0  0  0  0  0  0  0  0  0  0  0  0
  -45.9080  -64.7590   49.7470 H   0  0  0  0  0  0  0  0  0  0  0  0
  -52.8360  -67.3350   51.1180 H   0  0  0  0  0  0  0  0  0  0  0  0
  -50.9690  -65.8380   51.8400 H   0  0  0  0  0  0  0  0  0  0  0  0
  2  7  1  0  0  0  0
  2  1  1  0  0  0  0
  3 31  1  0  0  0  0
  3  2  2  0  0  0  0
  4  3  1  0  0  0  0
  5  4  2  0  0  0  0
  5  6  1  0  0  0  0
  6 33  1  0  0  0  0
  6  7  2  0  0  0  0
  7 34  1  0  0  0  0
  8  5  1  0  0  0  0
  9  8  2  0  0  0  0
 10  8  1  0  0  0  0
 10 11  1  0  0  0  0
 11 36  1  0  0  0  0
 11 12  1  0  0  0  0
 12 39  1  0  0  0  0
 12 38  1  0  0  0  0
 13 12  1  0  0  0  0
 13 14  1  0  0  0  0
 14 15  2  0  0  0  0
 16 41  1  0  0  0  0
 16 14  1  0  0  0  0
 16 17  1  0  0  0  0
 17 43  1  0  0  0  0
 18 17  1  0  0  0  0
 18 44  1  0  0  0  0
 19 18  1  0  0  0  0
 20 21  1  0  0  0  0
 20 19  1  0  0  0  0
 21 16  1  0  0  0  0
 22 19  1  0  0  0  0
 22 30  1  0  0  0  0
 23 22  2  0  0  0  0
 24 23  1  0  0  0  0
 24 28  1  0  0  0  0
 25 26  2  0  0  0  0
 25 24  1  0  0  0  0
 26 27  1  0  0  0  0
 27 28  2  0  0  0  0
 28 29  1  0  0  0  0
 29 30  2  0  0  0  0
 29 50  1  0  0  0  0
 30 51  1  0  0  0  0
 32  4  1  0  0  0  0
 35 10  1  0  0  0  0
 37 11  1  0  0  0  0
 40 13  1  0  0  0  0
 42 17  1  0  0  0  0
 45 18  1  0  0  0  0
 46 20  1  0  0  0  0
 47 20  1  0  0  0  0
 48 21  1  0  0  0  0
 49 21  1  0  0  0  0
M  END
>  <Pose>
1

>  <Score>
-6.24

$$$$
