
 OpenBabel03202209423D

 49 52  0  0  0  0  0  0  0  0999 V2000
  -51.3960  -71.1190   55.3340 B   0  0  0  0  0  0  0  0  0  0  0  0
  -50.1430  -69.7660   54.8180 C   0  0  0  0  0  0  0  0  0  0  0  0
  -49.5460  -68.9470   55.7560 C   0  0  0  0  0  0  0  0  0  0  0  0
  -48.6350  -67.9650   55.3760 C   0  0  0  0  0  0  0  0  0  0  0  0
  -48.2960  -67.7720   54.0530 C   0  0  0  0  0  0  0  0  0  0  0  0
  -48.8950  -68.5920   53.1220 C   0  0  0  0  0  0  0  0  0  0  0  0
  -49.7980  -69.5660   53.4970 C   0  0  0  0  0  0  0  0  0  0  0  0
  -47.3700  -66.7790   53.6280 N   0  0  0  0  0  0  0  0  0  0  0  0
  -46.0720  -66.8910   53.3030 C   0  0  0  0  0  0  0  0  0  0  0  0
  -45.4590  -67.9890   53.3370 O   0  0  0  0  0  0  0  0  0  0  0  0
  -45.5390  -65.6650   52.9400 C   0  0  0  0  0  0  0  0  0  0  0  0
  -46.5330  -64.7930   53.0480 C   0  0  0  0  0  0  0  0  0  0  0  0
  -46.0160  -63.6050   52.6970 N   0  0  0  0  0  0  0  0  0  0  0  0
  -44.7410  -63.7490   52.3840 N   0  0  0  0  0  0  0  0  0  0  0  0
  -44.4280  -65.0090   52.5270 N   0  0  0  0  0  0  0  0  0  0  0  0
  -43.1450  -65.6310   52.2980 C   0  0  0  0  0  0  0  0  0  0  0  0
  -42.3200  -64.7450   51.3940 C   0  0  0  0  0  0  0  0  0  0  0  0
  -41.4280  -64.0260   51.8930 O   0  0  0  0  0  0  0  0  0  0  0  0
  -42.5580  -64.7350   50.0110 N   0  0  0  0  0  0  0  0  0  0  0  0
  -41.6300  -64.3680   49.0170 C   0  0  0  0  0  0  0  0  0  0  0  0
  -40.4210  -64.9710   48.7800 C   0  0  0  0  0  0  0  0  0  0  0  0
  -39.5470  -64.5510   47.7990 C   0  0  0  0  0  0  0  0  0  0  0  0
  -39.9160  -63.4730   47.0220 C   0  0  0  0  0  0  0  0  0  0  0  0
  -41.1290  -62.8360   47.2270 C   0  0  0  0  0  0  0  0  0  0  0  0
  -41.9790  -63.2690   48.2080 C   0  0  0  0  0  0  0  0  0  0  0  0
  -39.0490  -63.0330   46.0250 O   0  0  0  0  0  0  0  0  0  0  0  0
  -37.8440  -62.3910   46.3930 C   0  0  0  0  0  0  0  0  0  0  0  0
  -38.3260  -65.1840   47.5820 O   0  0  0  0  0  0  0  0  0  0  0  0
  -38.2420  -66.5830   47.8820 C   0  0  0  0  0  0  0  0  0  0  0  0
  -47.6590  -65.4690   53.4700 C   0  0  0  0  0  0  0  0  0  0  0  0
  -48.8010  -64.9410   53.6790 O   0  0  0  0  0  0  0  0  0  0  0  0
  -49.8190  -69.1060   56.7980 H   0  0  0  0  0  0  0  0  0  0  0  0
  -48.1750  -67.3320   56.1140 H   0  0  0  0  0  0  0  0  0  0  0  0
  -48.6230  -68.4340   52.0810 H   0  0  0  0  0  0  0  0  0  0  0  0
  -50.2570  -70.2020   52.7350 H   0  0  0  0  0  0  0  0  0  0  0  0
  -46.5110  -62.6920   52.6650 H   0  0  0  0  0  0  0  0  0  0  0  0
  -44.0660  -62.9910   52.0680 H   0  0  0  0  0  0  0  0  0  0  0  0
  -43.2300  -66.6230   51.7970 H   0  0  0  0  0  0  0  0  0  0  0  0
  -42.5740  -65.7310   53.2340 H   0  0  0  0  0  0  0  0  0  0  0  0
  -43.5340  -65.0410   49.6900 H   0  0  0  0  0  0  0  0  0  0  0  0
  -40.1120  -65.8240   49.3700 H   0  0  0  0  0  0  0  0  0  0  0  0
  -41.3880  -61.9850   46.5950 H   0  0  0  0  0  0  0  0  0  0  0  0
  -42.9420  -62.7520   48.3610 H   0  0  0  0  0  0  0  0  0  0  0  0
  -37.3240  -63.0830   47.0970 H   0  0  0  0  0  0  0  0  0  0  0  0
  -38.0720  -61.4540   46.9170 H   0  0  0  0  0  0  0  0  0  0  0  0
  -37.2210  -62.2420   45.4810 H   0  0  0  0  0  0  0  0  0  0  0  0
  -38.9140  -67.1620   47.1890 H   0  0  0  0  0  0  0  0  0  0  0  0
  -37.2000  -66.9440   47.7730 H   0  0  0  0  0  0  0  0  0  0  0  0
  -38.5750  -66.7760   48.9230 H   0  0  0  0  0  0  0  0  0  0  0  0
  2  1  1  0  0  0  0
  2  3  1  0  0  0  0
  3 32  1  0  0  0  0
  4  3  2  0  0  0  0
  4 33  1  0  0  0  0
  5  4  1  0  0  0  0
  6  7  1  0  0  0  0
  6  5  2  0  0  0  0
  7  2  2  0  0  0  0
  8  5  1  0  0  0  0
  9 10  2  0  0  0  0
  9  8  1  0  0  0  0
 11 12  2  0  0  0  0
 11  9  1  0  0  0  0
 12 30  1  0  0  0  0
 13 12  1  0  0  0  0
 14 15  1  0  0  0  0
 14 13  1  0  0  0  0
 15 11  1  0  0  0  0
 16 15  1  0  0  0  0
 16 39  1  0  0  0  0
 17 18  2  0  0  0  0
 17 16  1  0  0  0  0
 19 17  1  0  0  0  0
 20 19  1  0  0  0  0
 21 20  1  0  0  0  0
 21 41  1  0  0  0  0
 22 21  2  0  0  0  0
 23 24  2  0  0  0  0
 23 22  1  0  0  0  0
 24 25  1  0  0  0  0
 25 43  1  0  0  0  0
 25 20  2  0  0  0  0
 26 27  1  0  0  0  0
 26 23  1  0  0  0  0
 27 45  1  0  0  0  0
 27 44  1  0  0  0  0
 28 22  1  0  0  0  0
 28 29  1  0  0  0  0
 29 49  1  0  0  0  0
 30  8  1  0  0  0  0
 30 31  2  0  0  0  0
 34  6  1  0  0  0  0
 35  7  1  0  0  0  0
 36 13  1  0  0  0  0
 37 14  1  0  0  0  0
 38 16  1  0  0  0  0
 40 19  1  0  0  0  0
 42 24  1  0  0  0  0
 46 27  1  0  0  0  0
 47 29  1  0  0  0  0
 48 29  1  0  0  0  0
M  END
>  <Pose>
1

>  <Score>
-6.74

$$$$
