
 OpenBabel03202209423D

 52 55  0  0  0  0  0  0  0  0999 V2000
  -37.6590  -69.7690   51.3210 Cl  0  0  0  0  0  0  0  0  0  0  0  0
  -39.0490  -69.1910   52.2180 C   0  0  0  0  0  0  0  0  0  0  0  0
  -39.6870  -68.0380   51.7840 C   0  0  0  0  0  0  0  0  0  0  0  0
  -40.7930  -67.5260   52.4460 C   0  0  0  0  0  0  0  0  0  0  0  0
  -41.2760  -68.1700   53.5630 C   0  0  0  0  0  0  0  0  0  0  0  0
  -40.6150  -69.3260   53.9770 C   0  0  0  0  0  0  0  0  0  0  0  0
  -39.5240  -69.8460   53.3350 C   0  0  0  0  0  0  0  0  0  0  0  0
  -42.4360  -67.6820   54.3040 C   0  0  0  0  0  0  0  0  0  0  0  0
  -42.8160  -68.3570   55.2950 O   0  0  0  0  0  0  0  0  0  0  0  0
  -43.1160  -66.5160   53.9500 N   0  0  0  0  0  0  0  0  0  0  0  0
  -44.4880  -66.2330   54.3230 C   0  0  0  0  0  0  0  0  0  0  0  0
  -45.4170  -66.8770   53.3430 C   0  0  0  0  0  0  0  0  0  0  0  0
  -46.2960  -65.9020   52.6600 C   0  0  0  0  0  0  0  0  0  0  0  0
  -47.5360  -66.0010   52.8290 O   0  0  0  0  0  0  0  0  0  0  0  0
  -45.7660  -64.8820   51.8360 N   0  0  0  0  0  0  0  0  0  0  0  0
  -44.3490  -64.7360   51.5740 C   0  0  0  0  0  0  0  0  0  0  0  0
  -44.0600  -63.2510   51.4070 C   0  0  0  0  0  0  0  0  0  0  0  0
  -44.7940  -62.7030   50.1830 C   0  0  0  0  0  0  0  0  0  0  0  0
  -45.1680  -61.3540   50.4960 N   0  0  0  0  0  0  0  0  0  0  0  0
  -45.4290  -60.5720   49.3060 C   0  0  0  0  0  0  0  0  0  0  0  0
  -44.1010  -60.3070   48.6000 C   0  0  0  0  0  0  0  0  0  0  0  0
  -43.5410  -61.6450   48.2500 C   0  0  0  0  0  0  0  0  0  0  0  0
  -42.6920  -62.0430   47.2560 N   0  0  0  0  0  0  0  0  0  0  0  0
  -42.5010  -63.3680   47.3840 C   0  0  0  0  0  0  0  0  0  0  0  0
  -43.2190  -63.7900   48.4400 N   0  0  0  0  0  0  0  0  0  0  0  0
  -43.8840  -62.7410   49.0090 C   0  0  0  0  0  0  0  0  0  0  0  0
  -46.0420  -63.5110   49.9000 C   0  0  0  0  0  0  0  0  0  0  0  0
  -46.6520  -63.9210   51.2080 C   0  0  0  0  0  0  0  0  0  0  0  0
  -39.3040  -67.5360   50.9070 H   0  0  0  0  0  0  0  0  0  0  0  0
  -41.2740  -66.6050   52.0710 H   0  0  0  0  0  0  0  0  0  0  0  0
  -41.0030  -69.8230   54.8540 H   0  0  0  0  0  0  0  0  0  0  0  0
  -39.0090  -70.7360   53.6480 H   0  0  0  0  0  0  0  0  0  0  0  0
  -42.6490  -65.7720   53.3780 H   0  0  0  0  0  0  0  0  0  0  0  0
  -44.6200  -65.1330   54.2280 H   0  0  0  0  0  0  0  0  0  0  0  0
  -44.6850  -66.5110   55.3670 H   0  0  0  0  0  0  0  0  0  0  0  0
  -44.8080  -67.4330   52.5700 H   0  0  0  0  0  0  0  0  0  0  0  0
  -46.0030  -67.6470   53.8490 H   0  0  0  0  0  0  0  0  0  0  0  0
  -43.7920  -65.0390   52.5010 H   0  0  0  0  0  0  0  0  0  0  0  0
  -44.0070  -65.3160   50.7200 H   0  0  0  0  0  0  0  0  0  0  0  0
  -44.3080  -62.6890   52.3060 H   0  0  0  0  0  0  0  0  0  0  0  0
  -42.9760  -63.1490   51.1970 H   0  0  0  0  0  0  0  0  0  0  0  0
  -45.9870  -61.3190   51.1350 H   0  0  0  0  0  0  0  0  0  0  0  0
  -46.0150  -61.2070   48.6120 H   0  0  0  0  0  0  0  0  0  0  0  0
  -45.9850  -59.6580   49.5010 H   0  0  0  0  0  0  0  0  0  0  0  0
  -44.3240  -59.7010   47.7050 H   0  0  0  0  0  0  0  0  0  0  0  0
  -43.3910  -59.7850   49.2730 H   0  0  0  0  0  0  0  0  0  0  0  0
  -42.3050  -61.3670   46.5600 H   0  0  0  0  0  0  0  0  0  0  0  0
  -41.8660  -63.9360   46.7180 H   0  0  0  0  0  0  0  0  0  0  0  0
  -46.7910  -62.9500   49.3320 H   0  0  0  0  0  0  0  0  0  0  0  0
  -45.7860  -64.4390   49.3360 H   0  0  0  0  0  0  0  0  0  0  0  0
  -47.6470  -64.3570   50.9860 H   0  0  0  0  0  0  0  0  0  0  0  0
  -46.8020  -63.0350   51.8750 H   0  0  0  0  0  0  0  0  0  0  0  0
  1  2  1  0  0  0  0
  2  7  1  0  0  0  0
  3  2  2  0  0  0  0
  3  4  1  0  0  0  0
  4  5  2  0  0  0  0
  5  6  1  0  0  0  0
  5  8  1  0  0  0  0
  6 31  1  0  0  0  0
  7 32  1  0  0  0  0
  7  6  2  0  0  0  0
  8  9  2  0  0  0  0
 10  8  1  0  0  0  0
 10 11  1  0  0  0  0
 11 35  1  0  0  0  0
 12 37  1  0  0  0  0
 12 11  1  0  0  0  0
 13 14  2  0  0  0  0
 13 12  1  0  0  0  0
 15 13  1  0  0  0  0
 16 15  1  0  0  0  0
 16 38  1  0  0  0  0
 17 16  1  0  0  0  0
 17 40  1  0  0  0  0
 18 19  1  0  0  0  0
 18 17  1  0  0  0  0
 19 42  1  0  0  0  0
 20 44  1  0  0  0  0
 20 19  1  0  0  0  0
 21 46  1  0  0  0  0
 21 20  1  0  0  0  0
 22 21  1  0  0  0  0
 22 26  2  0  0  0  0
 23 24  1  0  0  0  0
 23 22  1  0  0  0  0
 24 25  2  0  0  0  0
 25 26  1  0  0  0  0
 26 18  1  0  0  0  0
 27 18  1  0  0  0  0
 27 28  1  0  0  0  0
 28 15  1  0  0  0  0
 28 52  1  0  0  0  0
 29  3  1  0  0  0  0
 30  4  1  0  0  0  0
 33 10  1  0  0  0  0
 34 11  1  0  0  0  0
 36 12  1  0  0  0  0
 39 16  1  0  0  0  0
 41 17  1  0  0  0  0
 43 20  1  0  0  0  0
 45 21  1  0  0  0  0
 47 23  1  0  0  0  0
 48 24  1  0  0  0  0
 49 27  1  0  0  0  0
 50 27  1  0  0  0  0
 51 28  1  0  0  0  0
M  END
>  <Pose>
1

>  <Score>
-6.77

$$$$
