
 OpenBabel03202209423D

 44 47  0  0  1  0  0  0  0  0999 V2000
  -33.5680  -65.0270   49.5470 B   0  0  0  0  0  0  0  0  0  0  0  0
  -34.9050  -66.3560   49.8070 C   0  0  0  0  0  0  0  0  0  0  0  0
  -36.2120  -66.1680   49.3660 C   0  0  0  0  0  0  0  0  0  0  0  0
  -37.1760  -67.1350   49.5570 C   0  0  0  0  0  0  0  0  0  0  0  0
  -36.7660  -68.2920   50.2100 C   0  0  0  0  0  0  0  0  0  0  0  0
  -35.4870  -68.4960   50.6510 C   0  0  0  0  0  0  0  0  0  0  0  0
  -34.5420  -67.5200   50.4500 C   0  0  0  0  0  0  0  0  0  0  0  0
  -38.5290  -66.9890   49.1260 N   0  0  0  0  0  0  0  0  0  0  0  0
  -39.6580  -67.1100   49.9830 C   0  0  0  0  0  0  0  0  0  0  0  0
  -39.6390  -67.7410   51.0670 O   0  0  0  0  0  0  0  0  0  0  0  0
  -40.7510  -66.3840   49.3470 C   0  0  2  0  0  0  0  0  0  0  0  0
  -40.4370  -66.5150   47.8710 C   0  0  0  0  0  0  0  0  0  0  0  0
  -38.9750  -66.6970   47.7960 C   0  0  0  0  0  0  0  0  0  0  0  0
  -38.2420  -66.6160   46.7750 O   0  0  0  0  0  0  0  0  0  0  0  0
  -40.9430  -65.0490   49.7520 N   0  0  0  0  0  0  0  0  0  0  0  0
  -40.0350  -64.5000   50.6760 C   0  0  0  0  0  0  0  0  0  0  0  0
  -40.6430  -64.6050   52.0820 C   0  0  0  0  0  0  0  0  0  0  0  0
  -42.0740  -64.8460   51.9810 N   0  0  0  0  0  0  0  0  0  0  0  0
  -42.8790  -64.2580   50.9300 C   0  0  0  0  0  0  0  0  0  0  0  0
  -42.1810  -64.4240   49.6010 C   0  0  0  0  0  0  0  0  0  0  0  0
  -42.7450  -65.7000   52.9180 C   0  0  0  0  0  0  0  0  0  0  0  0
  -43.9510  -65.3660   53.4230 N   0  0  0  0  0  0  0  0  0  0  0  0
  -44.5840  -66.1810   54.2900 C   0  0  0  0  0  0  0  0  0  0  0  0
  -44.0250  -67.3880   54.6920 C   0  0  0  0  0  0  0  0  0  0  0  0
  -42.7890  -67.7250   54.1690 C   0  0  0  0  0  0  0  0  0  0  0  0
  -42.2080  -66.8700   53.3090 N   0  0  0  0  0  0  0  0  0  0  0  0
  -36.4720  -65.2500   48.8650 H   0  0  0  0  0  0  0  0  0  0  0  0
  -37.5220  -69.0610   50.3670 H   0  0  0  0  0  0  0  0  0  0  0  0
  -35.1750  -69.4120   51.1660 H   0  0  0  0  0  0  0  0  0  0  0  0
  -33.5340  -67.6870   50.8020 H   0  0  0  0  0  0  0  0  0  0  0  0
  -41.7110  -66.9480   49.5170 H   0  0  0  0  0  0  0  0  0  0  0  0
  -40.8990  -67.4460   47.5030 H   0  0  0  0  0  0  0  0  0  0  0  0
  -40.7800  -65.6230   47.3040 H   0  0  0  0  0  0  0  0  0  0  0  0
  -39.9160  -63.4150   50.4770 H   0  0  0  0  0  0  0  0  0  0  0  0
  -39.0470  -64.9340   50.6730 H   0  0  0  0  0  0  0  0  0  0  0  0
  -40.1890  -65.4750   52.6240 H   0  0  0  0  0  0  0  0  0  0  0  0
  -40.5200  -63.6910   52.6660 H   0  0  0  0  0  0  0  0  0  0  0  0
  -43.0980  -63.1770   51.1670 H   0  0  0  0  0  0  0  0  0  0  0  0
  -43.8530  -64.8150   50.8300 H   0  0  0  0  0  0  0  0  0  0  0  0
  -42.8250  -64.9150   48.8430 H   0  0  0  0  0  0  0  0  0  0  0  0
  -42.0060  -63.3750   49.2160 H   0  0  0  0  0  0  0  0  0  0  0  0
  -45.5590  -65.9260   54.7060 H   0  0  0  0  0  0  0  0  0  0  0  0
  -44.5640  -68.0290   55.3980 H   0  0  0  0  0  0  0  0  0  0  0  0
  -42.3200  -68.6740   54.4600 H   0  0  0  0  0  0  0  0  0  0  0  0
  1  2  1  0  0  0  0
  2  7  1  0  0  0  0
  3  4  1  0  0  0  0
  3  2  2  0  0  0  0
  4  5  2  0  0  0  0
  5 28  1  0  0  0  0
  5  6  1  0  0  0  0
  6 29  1  0  0  0  0
  7  6  2  0  0  0  0
  7 30  1  0  0  0  0
  8  4  1  0  0  0  0
  8  9  1  0  0  0  0
  9 10  2  0  0  0  0
 11 31  1  1  0  0  0
 11 15  1  0  0  0  0
 11  9  1  0  0  0  0
 12 11  1  0  0  0  0
 13 12  1  0  0  0  0
 13  8  1  0  0  0  0
 14 13  2  0  0  0  0
 15 16  1  0  0  0  0
 16 17  1  0  0  0  0
 17 36  1  0  0  0  0
 17 37  1  0  0  0  0
 18 17  1  0  0  0  0
 18 21  1  0  0  0  0
 19 38  1  0  0  0  0
 19 18  1  0  0  0  0
 20 15  1  0  0  0  0
 20 19  1  0  0  0  0
 21 26  1  0  0  0  0
 21 22  2  0  0  0  0
 22 23  1  0  0  0  0
 23 24  2  0  0  0  0
 23 42  1  0  0  0  0
 24 43  1  0  0  0  0
 25 44  1  0  0  0  0
 25 24  1  0  0  0  0
 26 25  2  0  0  0  0
 27  3  1  0  0  0  0
 32 12  1  0  0  0  0
 33 12  1  0  0  0  0
 34 16  1  0  0  0  0
 35 16  1  0  0  0  0
 39 19  1  0  0  0  0
 40 20  1  0  0  0  0
 41 20  1  0  0  0  0
M  END
>  <Pose>
1

>  <Score>
-4.94

$$$$
