
 OpenBabel03202209423D

 46 49  0  0  1  0  0  0  0  0999 V2000
  -48.9330  -68.9920   53.4400 Cl  0  0  0  0  0  0  0  0  0  0  0  0
  -47.8060  -67.6670   53.3310 C   0  0  0  0  0  0  0  0  0  0  0  0
  -48.2110  -66.5060   52.7140 C   0  0  0  0  0  0  0  0  0  0  0  0
  -47.3110  -65.4710   52.6350 C   0  0  0  0  0  0  0  0  0  0  0  0
  -46.0280  -65.6250   53.1790 C   0  0  0  0  0  0  0  0  0  0  0  0
  -45.5880  -66.7560   53.7970 C   0  0  0  0  0  0  0  0  0  0  0  0
  -46.5580  -67.7880   53.8480 C   0  0  0  0  0  0  0  0  0  0  0  0
  -44.2870  -66.9740   54.3700 C   0  0  1  0  0  0  0  0  0  0  0  0
  -44.1990  -68.0740   55.0930 O   0  0  0  0  0  0  0  0  0  0  0  0
  -43.0630  -66.2110   54.2980 C   0  0  0  0  0  0  0  0  0  0  0  0
  -42.0950  -66.4500   53.2820 N   0  0  0  0  0  0  0  0  0  0  0  0
  -41.3220  -67.5740   53.1510 C   0  0  1  0  0  0  0  0  0  0  0  0
  -40.5240  -67.3600   52.1020 N   0  0  0  0  0  0  0  0  0  0  0  0
  -40.7360  -66.1580   51.5400 C   0  0  0  0  0  0  0  0  0  0  0  0
  -41.7400  -65.5810   52.2970 C   0  0  0  0  0  0  0  0  0  0  0  0
  -40.0810  -65.5450   50.3850 C   0  0  0  0  0  0  0  0  0  0  0  0
  -39.6550  -64.2430   50.3280 C   0  0  0  0  0  0  0  0  0  0  0  0
  -39.0330  -63.7260   49.1820 C   0  0  0  0  0  0  0  0  0  0  0  0
  -38.8180  -64.4960   48.0610 C   0  0  0  0  0  0  0  0  0  0  0  0
  -39.2430  -65.8060   48.1080 C   0  0  0  0  0  0  0  0  0  0  0  0
  -39.8550  -66.3120   49.2360 C   0  0  0  0  0  0  0  0  0  0  0  0
  -38.2040  -63.9980   46.9210 O   0  0  0  0  0  0  0  0  0  0  0  0
  -37.5030  -62.7680   46.9610 C   0  0  0  0  0  0  0  0  0  0  0  0
  -39.6570  -68.5120   51.8810 C   0  0  0  0  0  0  0  0  0  0  0  0
  -40.0990  -69.5370   52.8840 C   0  0  0  0  0  0  0  0  0  0  0  0
  -41.0970  -68.8970   53.7820 C   0  0  0  0  0  0  0  0  0  0  0  0
  -49.8120  -66.3180   52.0380 Cl  0  0  0  0  0  0  0  0  0  0  0  0
  -47.6200  -64.5670   52.1560 H   0  0  0  0  0  0  0  0  0  0  0  0
  -45.4160  -64.7690   53.0670 H   0  0  0  0  0  0  0  0  0  0  0  0
  -46.2930  -68.7180   54.3210 H   0  0  0  0  0  0  0  0  0  0  0  0
  -43.2980  -65.0750   54.2800 H   0  0  0  0  0  0  0  0  0  0  0  0
  -42.5160  -66.2500   55.3210 H   0  0  0  0  0  0  0  0  0  0  0  0
  -42.1870  -64.6000   52.1510 H   0  0  0  0  0  0  0  0  0  0  0  0
  -39.8030  -63.6090   51.1760 H   0  0  0  0  0  0  0  0  0  0  0  0
  -38.7010  -62.6970   49.1490 H   0  0  0  0  0  0  0  0  0  0  0  0
  -39.0820  -66.4310   47.2290 H   0  0  0  0  0  0  0  0  0  0  0  0
  -40.1890  -67.3500   49.2680 H   0  0  0  0  0  0  0  0  0  0  0  0
  -36.5670  -62.9520   47.5500 H   0  0  0  0  0  0  0  0  0  0  0  0
  -37.2350  -62.4640   45.9300 H   0  0  0  0  0  0  0  0  0  0  0  0
  -38.0970  -61.9890   47.4870 H   0  0  0  0  0  0  0  0  0  0  0  0
  -39.8080  -68.9730   50.8750 H   0  0  0  0  0  0  0  0  0  0  0  0
  -38.5950  -68.2240   52.0050 H   0  0  0  0  0  0  0  0  0  0  0  0
  -40.5650  -70.4360   52.4100 H   0  0  0  0  0  0  0  0  0  0  0  0
  -39.1770  -69.8830   53.4330 H   0  0  0  0  0  0  0  0  0  0  0  0
  -42.0510  -69.4520   53.8750 H   0  0  0  0  0  0  0  0  0  0  0  0
  -40.6810  -68.7950   54.8160 H   0  0  0  0  0  0  0  0  0  0  0  0
  2  1  1  0  0  0  0
  2  7  1  0  0  0  0
  3  2  2  0  0  0  0
  4  3  1  0  0  0  0
  4  5  2  0  0  0  0
  5  6  1  0  0  0  0
  6  7  2  0  0  0  0
  6  8  1  0  0  0  0
  7 30  1  0  0  0  0
  8  9  1  6  0  0  0
 10  8  1  0  0  0  0
 10 32  1  0  0  0  0
 11 10  1  0  0  0  0
 12 13  1  1  0  0  0
 12 11  1  0  0  0  0
 12 26  1  0  0  0  0
 14 13  1  0  0  0  0
 14 15  2  0  0  0  0
 15 11  1  0  0  0  0
 16 14  1  0  0  0  0
 17 16  1  0  0  0  0
 17 34  1  0  0  0  0
 18 17  2  0  0  0  0
 19 20  2  0  0  0  0
 19 18  1  0  0  0  0
 20 21  1  0  0  0  0
 21 37  1  0  0  0  0
 21 16  2  0  0  0  0
 22 23  1  0  0  0  0
 22 19  1  0  0  0  0
 23 40  1  0  0  0  0
 23 38  1  0  0  0  0
 24 42  1  0  0  0  0
 24 13  1  0  0  0  0
 24 25  1  0  0  0  0
 25 44  1  0  0  0  0
 25 26  1  0  0  0  0
 26 45  1  0  0  0  0
 26 46  1  0  0  0  0
 27  3  1  0  0  0  0
 28  4  1  0  0  0  0
 29  5  1  0  0  0  0
 31 10  1  0  0  0  0
 33 15  1  0  0  0  0
 35 18  1  0  0  0  0
 36 20  1  0  0  0  0
 39 23  1  0  0  0  0
 41 24  1  0  0  0  0
 43 25  1  0  0  0  0
M  END
>  <Pose>
1

>  <Score>
-5.82

$$$$
