
 OpenBabel03202209423D

 44 47  0  0  1  0  0  0  0  0999 V2000
  -38.8500  -65.6590   47.6070 Cl  0  0  0  0  0  0  0  0  0  0  0  0
  -38.5650  -66.7400   48.9540 C   0  0  0  0  0  0  0  0  0  0  0  0
  -37.4290  -67.4960   48.9530 C   0  0  0  0  0  0  0  0  0  0  0  0
  -37.1800  -68.3540   49.9990 C   0  0  0  0  0  0  0  0  0  0  0  0
  -38.1020  -68.4340   51.0460 C   0  0  0  0  0  0  0  0  0  0  0  0
  -39.2500  -67.6750   51.0530 C   0  0  0  0  0  0  0  0  0  0  0  0
  -39.4730  -66.8310   50.0040 C   0  0  0  0  0  0  0  0  0  0  0  0
  -40.1790  -67.8220   52.1730 C   0  0  0  0  0  0  0  0  0  0  0  0
  -40.1120  -68.6200   53.2710 N   0  0  0  0  0  0  0  0  0  0  0  0
  -41.1940  -68.4190   54.0310 C   0  0  2  0  0  0  0  0  0  0  0  0
  -42.0050  -67.4820   53.4500 N   0  0  0  0  0  0  0  0  0  0  0  0
  -41.3720  -67.1290   52.3190 C   0  0  0  0  0  0  0  0  0  0  0  0
  -43.2330  -66.9630   53.9770 C   0  0  0  0  0  0  0  0  0  0  0  0
  -43.6420  -65.5980   53.7850 C   0  0  1  0  0  0  0  0  0  0  0  0
  -43.3820  -64.8240   54.8350 O   0  0  0  0  0  0  0  0  0  0  0  0
  -44.2710  -64.8810   52.7060 C   0  0  0  0  0  0  0  0  0  0  0  0
  -45.5900  -64.3970   52.8610 C   0  0  0  0  0  0  0  0  0  0  0  0
  -46.2700  -63.7040   51.8940 C   0  0  0  0  0  0  0  0  0  0  0  0
  -45.6010  -63.4800   50.7080 C   0  0  0  0  0  0  0  0  0  0  0  0
  -44.3160  -63.9410   50.5320 C   0  0  0  0  0  0  0  0  0  0  0  0
  -43.6280  -64.6470   51.5210 C   0  0  0  0  0  0  0  0  0  0  0  0
  -47.5910  -63.2280   52.0700 N   0  0  0  0  0  0  0  0  0  0  0  0
  -48.1910  -62.7370   51.1080 O   0  0  0  0  0  0  0  0  0  0  0  0
  -48.2270  -63.2960   53.2760 O   0  0  0  0  0  0  0  0  0  0  0  0
  -41.1530  -69.2630   55.2460 C   0  0  0  0  0  0  0  0  0  0  0  0
  -40.2070  -70.3540   54.8250 C   0  0  0  0  0  0  0  0  0  0  0  0
  -39.2590  -69.6320   53.8950 C   0  0  0  0  0  0  0  0  0  0  0  0
  -36.2530  -67.4100   47.6400 Cl  0  0  0  0  0  0  0  0  0  0  0  0
  -36.2830  -68.9390   49.9800 H   0  0  0  0  0  0  0  0  0  0  0  0
  -37.8490  -69.1260   51.8370 H   0  0  0  0  0  0  0  0  0  0  0  0
  -40.3420  -66.2040   49.9070 H   0  0  0  0  0  0  0  0  0  0  0  0
  -41.7590  -66.3880   51.6110 H   0  0  0  0  0  0  0  0  0  0  0  0
  -44.0440  -67.6930   53.6320 H   0  0  0  0  0  0  0  0  0  0  0  0
  -43.1830  -67.2020   55.0930 H   0  0  0  0  0  0  0  0  0  0  0  0
  -46.1220  -64.5720   53.7970 H   0  0  0  0  0  0  0  0  0  0  0  0
  -46.1300  -62.9330   49.9330 H   0  0  0  0  0  0  0  0  0  0  0  0
  -43.7940  -63.7590   49.5860 H   0  0  0  0  0  0  0  0  0  0  0  0
  -42.6320  -64.9620   51.2900 H   0  0  0  0  0  0  0  0  0  0  0  0
  -42.1260  -69.7300   55.4770 H   0  0  0  0  0  0  0  0  0  0  0  0
  -40.7440  -68.7080   56.1330 H   0  0  0  0  0  0  0  0  0  0  0  0
  -40.8060  -71.1000   54.2580 H   0  0  0  0  0  0  0  0  0  0  0  0
  -39.6620  -70.8150   55.6750 H   0  0  0  0  0  0  0  0  0  0  0  0
  -38.4710  -69.1680   54.5250 H   0  0  0  0  0  0  0  0  0  0  0  0
  -38.8380  -70.3490   53.1480 H   0  0  0  0  0  0  0  0  0  0  0  0
  1  2  1  0  0  0  0
  2  7  1  0  0  0  0
  3  2  2  0  0  0  0
  3  4  1  0  0  0  0
  4  5  2  0  0  0  0
  5  6  1  0  0  0  0
  5 30  1  0  0  0  0
  6  8  1  0  0  0  0
  7  6  2  0  0  0  0
  8 12  2  0  0  0  0
  8  9  1  0  0  0  0
  9 27  1  0  0  0  0
 10  9  1  1  0  0  0
 10 25  1  0  0  0  0
 11 13  1  0  0  0  0
 11 10  1  0  0  0  0
 12 11  1  0  0  0  0
 13 34  1  0  0  0  0
 14 13  1  0  0  0  0
 14 15  1  6  0  0  0
 16 17  1  0  0  0  0
 16 14  1  0  0  0  0
 17 35  1  0  0  0  0
 18 22  1  0  0  0  0
 18 17  2  0  0  0  0
 19 18  1  0  0  0  0
 20 19  2  0  0  0  0
 20 21  1  0  0  0  0
 21 16  2  0  0  0  0
 22 24  2  0  0  0  0
 23 22  2  0  0  0  0
 25 39  1  0  0  0  0
 25 40  1  0  0  0  0
 26 25  1  0  0  0  0
 26 42  1  0  0  0  0
 27 43  1  0  0  0  0
 27 26  1  0  0  0  0
 28  3  1  0  0  0  0
 29  4  1  0  0  0  0
 31  7  1  0  0  0  0
 32 12  1  0  0  0  0
 33 13  1  0  0  0  0
 36 19  1  0  0  0  0
 37 20  1  0  0  0  0
 38 21  1  0  0  0  0
 41 26  1  0  0  0  0
 44 27  1  0  0  0  0
M  END
>  <Pose>
1

>  <Score>
-6.49

$$$$
