
 OpenBabel03202209423D

 60 63  0  0  1  0  0  0  0  0999 V2000
  -38.5820  -59.2270   45.7540 Cl  0  0  0  0  0  0  0  0  0  0  0  0
  -38.9920  -60.7970   46.4430 C   0  0  0  0  0  0  0  0  0  0  0  0
  -38.0720  -61.8300   46.4710 C   0  0  0  0  0  0  0  0  0  0  0  0
  -38.4090  -63.0520   47.0120 C   0  0  0  0  0  0  0  0  0  0  0  0
  -39.6510  -63.3140   47.5480 C   0  0  0  0  0  0  0  0  0  0  0  0
  -40.5690  -62.2570   47.5110 C   0  0  0  0  0  0  0  0  0  0  0  0
  -40.2360  -61.0360   46.9720 C   0  0  0  0  0  0  0  0  0  0  0  0
  -39.9850  -64.6400   48.1250 C   0  0  2  0  0  0  0  0  0  0  0  0
  -40.6970  -64.3630   49.3790 N   0  0  0  0  0  0  0  0  0  0  0  0
  -39.7000  -63.8790   50.2670 C   0  0  0  0  0  0  0  0  0  0  0  0
  -39.8670  -63.1050   51.2240 O   0  0  0  0  0  0  0  0  0  0  0  0
  -38.4400  -64.4720   49.8290 C   0  0  0  0  0  0  0  0  0  0  0  0
  -37.2680  -64.3480   50.2930 O   0  0  0  0  0  0  0  0  0  0  0  0
  -38.7660  -65.3080   48.6640 C   0  0  0  0  0  0  0  0  0  0  0  0
  -38.0920  -66.3570   48.2340 C   0  0  0  0  0  0  0  0  0  0  0  0
  -38.5360  -67.0020   47.0770 O   0  0  0  0  0  0  0  0  0  0  0  0
  -36.9130  -66.8750   48.9130 C   0  0  0  0  0  0  0  0  0  0  0  0
  -35.6380  -66.4120   48.6340 C   0  0  0  0  0  0  0  0  0  0  0  0
  -34.5200  -66.9240   49.2600 C   0  0  0  0  0  0  0  0  0  0  0  0
  -34.6370  -67.9340   50.2040 C   0  0  0  0  0  0  0  0  0  0  0  0
  -35.8990  -68.4030   50.4900 C   0  0  0  0  0  0  0  0  0  0  0  0
  -37.0240  -67.8760   49.8490 C   0  0  0  0  0  0  0  0  0  0  0  0
  -33.5190  -68.4610   50.8460 O   0  0  0  0  0  0  0  0  0  0  0  0
  -33.6930  -69.4890   51.7810 C   0  0  0  0  0  0  0  0  0  0  0  0
  -33.1770  -66.3990   48.9290 C   0  0  0  0  0  0  0  0  0  0  0  0
  -42.1240  -64.5470   49.6430 C   0  0  0  0  0  0  0  0  0  0  0  0
  -42.2260  -65.4210   50.8710 C   0  0  0  0  0  0  0  0  0  0  0  0
  -43.5870  -65.7000   51.2400 N   0  0  0  0  0  4  0  0  0  0  0  0
  -44.3830  -64.5160   51.1930 C   0  0  0  0  0  0  0  0  0  0  0  0
  -44.5750  -63.8020   52.4890 C   0  0  0  0  0  0  0  0  0  0  0  0
  -44.6080  -64.6020   53.5990 O   0  0  0  0  0  0  0  0  0  0  0  0
  -43.5170  -65.4570   53.6920 C   0  0  0  0  0  0  0  0  0  0  0  0
  -43.5870  -66.3810   52.5050 C   0  0  0  0  0  0  0  0  0  0  0  0
  -37.0900  -61.6620   46.0610 H   0  0  0  0  0  0  0  0  0  0  0  0
  -37.6990  -63.8910   47.0480 H   0  0  0  0  0  0  0  0  0  0  0  0
  -41.5400  -62.4720   47.9340 H   0  0  0  0  0  0  0  0  0  0  0  0
  -40.9580  -60.2410   46.9560 H   0  0  0  0  0  0  0  0  0  0  0  0
  -40.5660  -65.2770   47.4520 H   0  0  0  0  0  0  0  0  0  0  0  0
  -35.5730  -65.6120   47.8820 H   0  0  0  0  0  0  0  0  0  0  0  0
  -36.0040  -69.2040   51.2370 H   0  0  0  0  0  0  0  0  0  0  0  0
  -37.9830  -68.2970   50.1020 H   0  0  0  0  0  0  0  0  0  0  0  0
  -34.2990  -69.1190   52.6570 H   0  0  0  0  0  0  0  0  0  0  0  0
  -32.7210  -69.7940   52.2270 H   0  0  0  0  0  0  0  0  0  0  0  0
  -34.1540  -70.4010   51.3480 H   0  0  0  0  0  0  0  0  0  0  0  0
  -32.6750  -67.0460   48.1530 H   0  0  0  0  0  0  0  0  0  0  0  0
  -32.5000  -66.3960   49.8050 H   0  0  0  0  0  0  0  0  0  0  0  0
  -33.2450  -65.3720   48.4980 H   0  0  0  0  0  0  0  0  0  0  0  0
  -42.6280  -65.0720   48.8140 H   0  0  0  0  0  0  0  0  0  0  0  0
  -42.5860  -63.5700   49.7680 H   0  0  0  0  0  0  0  0  0  0  0  0
  -41.7040  -66.3820   50.7040 H   0  0  0  0  0  0  0  0  0  0  0  0
  -41.7400  -64.9580   51.7610 H   0  0  0  0  0  0  0  0  0  0  0  0
  -43.9540  -66.3570   50.4940 H   0  0  0  0  0  0  0  0  0  0  0  0
  -45.4140  -64.8010   50.8260 H   0  0  0  0  0  0  0  0  0  0  0  0
  -43.9950  -63.8370   50.3840 H   0  0  0  0  0  0  0  0  0  0  0  0
  -45.5100  -63.1900   52.4730 H   0  0  0  0  0  0  0  0  0  0  0  0
  -43.7360  -63.0530   52.5970 H   0  0  0  0  0  0  0  0  0  0  0  0
  -43.7110  -66.0960   54.5980 H   0  0  0  0  0  0  0  0  0  0  0  0
  -42.5580  -64.9260   53.7810 H   0  0  0  0  0  0  0  0  0  0  0  0
  -42.7200  -67.0810   52.6090 H   0  0  0  0  0  0  0  0  0  0  0  0
  -44.4920  -67.0200   52.6470 H   0  0  0  0  0  0  0  0  0  0  0  0
  1  2  1  0  0  0  0
  2  3  2  0  0  0  0
  2  7  1  0  0  0  0
  3  4  1  0  0  0  0
  4 35  1  0  0  0  0
  4  5  2  0  0  0  0
  5  8  1  0  0  0  0
  6  5  1  0  0  0  0
  6 36  1  0  0  0  0
  7  6  2  0  0  0  0
  8 38  1  6  0  0  0
  8 14  1  0  0  0  0
  8  9  1  0  0  0  0
  9 26  1  0  0  0  0
  9 10  1  0  0  0  0
 10 11  2  0  0  0  0
 12 10  1  0  0  0  0
 12 13  2  0  0  0  0
 14 12  1  0  0  0  0
 15 14  2  0  0  0  0
 15 17  1  0  0  0  0
 16 15  1  0  0  0  0
 17 22  1  0  0  0  0
 18 17  2  0  0  0  0
 18 19  1  0  0  0  0
 19 20  2  0  0  0  0
 20 21  1  0  0  0  0
 20 23  1  0  0  0  0
 21 40  1  0  0  0  0
 22 41  1  0  0  0  0
 22 21  2  0  0  0  0
 23 24  1  0  0  0  0
 24 43  1  0  0  0  0
 24 42  1  0  0  0  0
 25 19  1  0  0  0  0
 25 46  1  0  0  0  0
 26 49  1  0  0  0  0
 26 27  1  0  0  0  0
 27 28  1  0  0  0  0
 27 51  1  0  0  0  0
 28 33  1  0  0  0  0
 29 28  1  0  0  0  0
 29 30  1  0  0  0  0
 30 56  1  0  0  0  0
 30 31  1  0  0  0  0
 31 32  1  0  0  0  0
 32 58  1  0  0  0  0
 32 57  1  0  0  0  0
 33 59  1  0  0  0  0
 33 60  1  0  0  0  0
 33 32  1  0  0  0  0
 34  3  1  0  0  0  0
 37  7  1  0  0  0  0
 39 18  1  0  0  0  0
 44 24  1  0  0  0  0
 45 25  1  0  0  0  0
 47 25  1  0  0  0  0
 48 26  1  0  0  0  0
 50 27  1  0  0  0  0
 52 28  1  0  0  0  0
 53 29  1  0  0  0  0
 54 29  1  0  0  0  0
 55 30  1  0  0  0  0
M  END
>  <Pose>
1

>  <Score>
-6.03

$$$$
