
 OpenBabel03202209423D

 36 39  0  0  1  0  0  0  0  0999 V2000
  -37.4850  -69.6980   51.4410 Cl  0  0  0  0  0  0  0  0  0  0  0  0
  -38.7940  -69.4200   52.5800 C   0  0  0  0  0  0  0  0  0  0  0  0
  -39.7100  -68.4050   52.4110 C   0  0  0  0  0  0  0  0  0  0  0  0
  -40.7260  -68.1910   53.2980 N   0  0  0  0  0  0  0  0  0  0  0  0
  -40.8820  -68.9660   54.3860 C   0  0  0  0  0  0  0  0  0  0  0  0
  -41.8910  -68.7550   55.2690 N   0  0  0  0  0  0  0  0  0  0  0  0
  -42.7850  -67.7590   55.0960 C   0  0  0  0  0  0  0  0  0  0  0  0
  -42.6570  -66.9530   54.0020 C   0  0  2  0  0  0  0  0  0  0  0  0
  -43.6220  -65.8330   53.7610 C   0  0  0  0  0  0  0  0  0  0  0  0
  -44.8710  -66.2640   54.4140 N   0  0  0  0  0  0  0  0  0  0  0  0
  -44.7510  -66.4550   55.8310 C   0  0  0  0  0  0  0  0  0  0  0  0
  -43.8430  -67.6340   56.1340 C   0  0  0  0  0  0  0  0  0  0  0  0
  -45.9950  -66.4360   53.6120 C   0  0  0  0  0  0  0  0  0  0  0  0
  -46.5890  -67.5700   53.6250 O   0  0  0  0  0  0  0  0  0  0  0  0
  -46.5840  -65.4220   52.7300 C   0  0  0  0  0  0  0  0  0  0  0  0
  -46.4810  -65.4830   51.3990 N   0  0  0  0  0  0  0  0  0  0  0  0
  -47.0200  -64.5550   50.6030 C   0  0  0  0  0  0  0  0  0  0  0  0
  -47.7150  -63.4770   51.1110 C   0  0  0  0  0  0  0  0  0  0  0  0
  -47.8090  -63.4310   52.4520 N   0  0  0  0  0  0  0  0  0  0  0  0
  -47.2800  -64.3440   53.2670 C   0  0  0  0  0  0  0  0  0  0  0  0
  -41.6140  -67.1960   53.1190 C   0  0  0  0  0  0  0  0  0  0  0  0
  -41.4880  -66.4650   52.1170 O   0  0  0  0  0  0  0  0  0  0  0  0
  -39.9640  -69.9900   54.5650 C   0  0  0  0  0  0  0  0  0  0  0  0
  -38.9290  -70.2300   53.6870 C   0  0  0  0  0  0  0  0  0  0  0  0
  -39.6450  -67.7480   51.5620 H   0  0  0  0  0  0  0  0  0  0  0  0
  -43.7660  -65.6450   52.6900 H   0  0  0  0  0  0  0  0  0  0  0  0
  -43.1900  -64.9490   54.2940 H   0  0  0  0  0  0  0  0  0  0  0  0
  -45.6640  -66.4560   56.4080 H   0  0  0  0  0  0  0  0  0  0  0  0
  -44.1660  -65.5580   56.2100 H   0  0  0  0  0  0  0  0  0  0  0  0
  -44.4620  -68.5360   56.2060 H   0  0  0  0  0  0  0  0  0  0  0  0
  -43.3750  -67.4700   57.1290 H   0  0  0  0  0  0  0  0  0  0  0  0
  -46.9290  -64.6150   49.5220 H   0  0  0  0  0  0  0  0  0  0  0  0
  -48.1550  -62.7200   50.4680 H   0  0  0  0  0  0  0  0  0  0  0  0
  -47.3830  -64.2620   54.3200 H   0  0  0  0  0  0  0  0  0  0  0  0
  -40.0750  -70.6220   55.4350 H   0  0  0  0  0  0  0  0  0  0  0  0
  -38.2100  -71.0330   53.8280 H   0  0  0  0  0  0  0  0  0  0  0  0
  1  2  1  0  0  0  0
  2 24  2  0  0  0  0
  3  2  1  0  0  0  0
  3  4  1  0  0  0  0
  4  5  1  0  0  0  0
  5 23  2  0  0  0  0
  5  6  1  0  0  0  0
  7  6  2  0  0  0  0
  7 12  1  0  0  0  0
  8 21  1  6  0  0  0
  8  7  1  0  0  0  0
  9  8  1  0  0  0  0
  9 27  1  0  0  0  0
  9 10  1  0  0  0  0
 10 11  1  0  0  0  0
 11 12  1  0  0  0  0
 11 29  1  0  0  0  0
 11 28  1  0  0  0  0
 12 30  1  0  0  0  0
 12 31  1  0  0  0  0
 13 14  2  0  0  0  0
 13 10  1  0  0  0  0
 15 20  1  0  0  0  0
 15 13  1  0  0  0  0
 16 15  2  0  0  0  0
 17 18  2  0  0  0  0
 17 16  1  0  0  0  0
 18 19  1  0  0  0  0
 19 20  2  0  0  0  0
 20 34  1  0  0  0  0
 21  4  1  0  0  0  0
 22 21  2  0  0  0  0
 23 35  1  0  0  0  0
 24 36  1  0  0  0  0
 24 23  1  0  0  0  0
 25  3  1  0  0  0  0
 26  9  1  0  0  0  0
 32 17  1  0  0  0  0
 33 18  1  0  0  0  0
M  END
>  <Pose>
1

>  <Score>
-5.85

$$$$
