
 OpenBabel03202209423D

 46 49  0  0  1  0  0  0  0  0999 V2000
  -46.7920  -64.4660   52.8970 B   0  0  0  0  0  0  0  0  0  0  0  0
  -44.9920  -65.1500   52.8270 C   0  0  0  0  0  0  0  0  0  0  0  0
  -44.5970  -66.1860   53.6390 C   0  0  0  0  0  0  0  0  0  0  0  0
  -43.3530  -66.6840   53.6140 N   0  0  0  0  0  0  0  0  0  0  0  0
  -42.4170  -66.1790   52.7700 C   0  0  0  0  0  0  0  0  0  0  0  0
  -41.1660  -66.6410   52.7060 N   0  0  0  0  0  0  0  0  0  0  0  0
  -40.7400  -67.6540   53.4850 C   0  0  0  0  0  0  0  0  0  0  0  0
  -41.6630  -68.1930   54.3570 C   0  0  0  0  0  0  0  0  0  0  0  0
  -42.9540  -67.7070   54.4140 C   0  0  0  0  0  0  0  0  0  0  0  0
  -43.8300  -68.1720   55.1960 O   0  0  0  0  0  0  0  0  0  0  0  0
  -39.3580  -68.1870   53.4370 C   0  0  0  0  0  0  0  0  0  0  0  0
  -39.0100  -68.6800   52.1730 O   0  0  0  0  0  0  0  0  0  0  0  0
  -37.7270  -68.8260   51.6970 C   0  0  0  0  0  0  0  0  0  0  0  0
  -37.3110  -70.0140   51.5870 O   0  0  0  0  0  0  0  0  0  0  0  0
  -36.8680  -67.6690   51.3280 C   0  0  0  0  0  0  0  0  0  0  0  0
  -37.1190  -67.2310   49.9540 N   0  0  0  0  0  0  0  0  0  0  0  0
  -38.3030  -66.6260   49.4420 C   0  0  0  0  0  0  0  0  0  0  0  0
  -39.2730  -66.2000   50.1180 O   0  0  0  0  0  0  0  0  0  0  0  0
  -38.1910  -66.5870   47.9660 C   0  0  2  0  0  0  0  0  0  0  0  0
  -36.6950  -66.4400   47.8090 C   0  0  1  0  0  0  0  0  0  0  0  0
  -36.2070  -65.0350   48.1060 C   0  0  0  0  0  0  0  0  0  0  0  0
  -37.3280  -64.0520   48.3120 C   0  0  0  0  0  0  0  0  0  0  0  0
  -38.3740  -64.1890   47.2420 C   0  0  0  0  0  0  0  0  0  0  0  0
  -38.9930  -65.5390   47.3100 C   0  0  0  0  0  0  0  0  0  0  0  0
  -36.2080  -67.3460   48.8750 C   0  0  0  0  0  0  0  0  0  0  0  0
  -35.1800  -68.0920   48.8500 O   0  0  0  0  0  0  0  0  0  0  0  0
  -42.7810  -65.1290   51.9300 C   0  0  0  0  0  0  0  0  0  0  0  0
  -44.0640  -64.6240   51.9650 C   0  0  0  0  0  0  0  0  0  0  0  0
  -45.3210  -66.6020   54.3170 H   0  0  0  0  0  0  0  0  0  0  0  0
  -41.4140  -69.0170   55.0290 H   0  0  0  0  0  0  0  0  0  0  0  0
  -38.6780  -67.3490   53.6860 H   0  0  0  0  0  0  0  0  0  0  0  0
  -39.3090  -69.0120   54.1920 H   0  0  0  0  0  0  0  0  0  0  0  0
  -37.0160  -66.8000   51.9870 H   0  0  0  0  0  0  0  0  0  0  0  0
  -35.8160  -67.9930   51.4320 H   0  0  0  0  0  0  0  0  0  0  0  0
  -38.4520  -67.5900   47.5830 H   0  0  0  0  0  0  0  0  0  0  0  0
  -36.3580  -66.7730   46.8000 H   0  0  0  0  0  0  0  0  0  0  0  0
  -35.5650  -64.6510   47.2690 H   0  0  0  0  0  0  0  0  0  0  0  0
  -35.5610  -64.9970   48.9960 H   0  0  0  0  0  0  0  0  0  0  0  0
  -36.8880  -63.0240   48.1790 H   0  0  0  0  0  0  0  0  0  0  0  0
  -37.7490  -64.0580   49.3250 H   0  0  0  0  0  0  0  0  0  0  0  0
  -37.8720  -63.9830   46.2660 H   0  0  0  0  0  0  0  0  0  0  0  0
  -39.1110  -63.3620   47.3900 H   0  0  0  0  0  0  0  0  0  0  0  0
  -39.1950  -65.8700   46.2490 H   0  0  0  0  0  0  0  0  0  0  0  0
  -39.9990  -65.5110   47.7860 H   0  0  0  0  0  0  0  0  0  0  0  0
  -42.0490  -64.7250   51.2600 H   0  0  0  0  0  0  0  0  0  0  0  0
  -44.3590  -63.8130   51.3210 H   0  0  0  0  0  0  0  0  0  0  0  0
  2  1  1  0  0  0  0
  2  3  1  0  0  0  0
  3 29  1  0  0  0  0
  4  3  1  0  0  0  0
  4  9  1  0  0  0  0
  5  4  1  0  0  0  0
  6  5  1  0  0  0  0
  6  7  2  0  0  0  0
  7  8  1  0  0  0  0
  8  9  1  0  0  0  0
  8 30  1  0  0  0  0
  9 10  2  0  0  0  0
 11  7  1  0  0  0  0
 11 31  1  0  0  0  0
 11 32  1  0  0  0  0
 12 11  1  0  0  0  0
 13 12  1  0  0  0  0
 14 13  2  0  0  0  0
 15 34  1  0  0  0  0
 15 13  1  0  0  0  0
 15 33  1  0  0  0  0
 16 15  1  0  0  0  0
 17 16  1  0  0  0  0
 17 18  2  0  0  0  0
 19 35  1  6  0  0  0
 19 17  1  0  0  0  0
 20 36  1  6  0  0  0
 20 19  1  0  0  0  0
 20 21  1  0  0  0  0
 20 25  1  0  0  0  0
 21 22  1  0  0  0  0
 21 38  1  0  0  0  0
 22 40  1  0  0  0  0
 23 24  1  0  0  0  0
 23 42  1  0  0  0  0
 23 22  1  0  0  0  0
 24 44  1  0  0  0  0
 24 19  1  0  0  0  0
 25 16  1  0  0  0  0
 26 25  2  0  0  0  0
 27 28  1  0  0  0  0
 27  5  2  0  0  0  0
 28  2  2  0  0  0  0
 37 21  1  0  0  0  0
 39 22  1  0  0  0  0
 41 23  1  0  0  0  0
 43 24  1  0  0  0  0
 45 27  1  0  0  0  0
 46 28  1  0  0  0  0
M  END
>  <Pose>
1

>  <Score>
-5.18

$$$$
