
 OpenBabel03202209423D

 56 59  0  0  0  0  0  0  0  0999 V2000
  -36.8890  -68.2160   50.4360 Cl  0  0  0  0  0  0  0  0  0  0  0  0
  -35.8960  -66.9180   49.8780 C   0  0  0  0  0  0  0  0  0  0  0  0
  -36.5010  -65.7960   49.3550 C   0  0  0  0  0  0  0  0  0  0  0  0
  -35.6430  -64.7860   48.9250 C   0  0  0  0  0  0  0  0  0  0  0  0
  -34.2710  -64.9130   49.0220 C   0  0  0  0  0  0  0  0  0  0  0  0
  -33.7150  -66.0480   49.5500 C   0  0  0  0  0  0  0  0  0  0  0  0
  -34.5250  -67.0520   49.9790 C   0  0  0  0  0  0  0  0  0  0  0  0
  -37.8810  -65.6210   49.2340 N   0  0  0  0  0  0  0  0  0  0  0  0
  -38.8260  -66.6200   48.7820 C   0  0  0  0  0  0  0  0  0  0  0  0
  -40.2240  -66.1980   49.2270 C   0  0  0  0  0  0  0  0  0  0  0  0
  -40.1600  -65.6620   50.5770 N   0  0  0  0  0  0  0  0  0  0  0  0
  -39.2840  -64.5420   50.8320 C   0  0  0  0  0  0  0  0  0  0  0  0
  -38.4480  -64.3130   49.5960 C   0  0  0  0  0  0  0  0  0  0  0  0
  -40.9330  -66.2120   51.6370 C   0  0  0  0  0  0  0  0  0  0  0  0
  -40.9430  -67.4740   51.7800 O   0  0  0  0  0  0  0  0  0  0  0  0
  -41.7240  -65.4110   52.5790 C   0  0  0  0  0  0  0  0  0  0  0  0
  -42.8960  -64.7850   51.9690 N   0  0  0  0  0  0  0  0  0  0  0  0
  -42.9930  -64.1190   50.8360 N   0  0  0  0  0  0  0  0  0  0  0  0
  -44.2330  -63.6860   50.5930 C   0  0  0  0  0  0  0  0  0  0  0  0
  -45.0050  -64.1090   51.6600 C   0  0  0  0  0  0  0  0  0  0  0  0
  -44.1500  -64.7880   52.4990 C   0  0  0  0  0  0  0  0  0  0  0  0
  -44.5450  -65.4190   53.7760 C   0  0  0  0  0  0  0  0  0  0  0  0
  -44.6870  -62.9150   49.4220 C   0  0  0  0  0  0  0  0  0  0  0  0
  -44.4300  -63.3180   48.2690 O   0  0  0  0  0  0  0  0  0  0  0  0
  -45.4150  -61.7240   49.6290 N   0  0  0  0  0  0  0  0  0  0  0  0
  -44.8630  -60.4080   49.4720 C   0  0  0  0  0  0  0  0  0  0  0  0
  -46.0290  -59.4270   49.6460 C   0  0  0  0  0  0  0  0  0  0  0  0
  -47.0750  -59.7440   48.8090 O   0  0  0  0  0  0  0  0  0  0  0  0
  -47.6250  -60.9830   49.0400 C   0  0  0  0  0  0  0  0  0  0  0  0
  -46.8230  -61.8010   50.0310 C   0  0  0  0  0  0  0  0  0  0  0  0
  -36.0270  -63.8790   48.5050 H   0  0  0  0  0  0  0  0  0  0  0  0
  -33.6170  -64.1200   48.6830 H   0  0  0  0  0  0  0  0  0  0  0  0
  -32.6200  -66.1390   49.6220 H   0  0  0  0  0  0  0  0  0  0  0  0
  -34.0940  -67.9670   50.4040 H   0  0  0  0  0  0  0  0  0  0  0  0
  -38.8620  -66.7170   47.6870 H   0  0  0  0  0  0  0  0  0  0  0  0
  -38.6340  -67.5830   49.2970 H   0  0  0  0  0  0  0  0  0  0  0  0
  -40.8310  -67.1250   49.2730 H   0  0  0  0  0  0  0  0  0  0  0  0
  -40.6720  -65.4720   48.5200 H   0  0  0  0  0  0  0  0  0  0  0  0
  -39.8360  -63.6330   51.1380 H   0  0  0  0  0  0  0  0  0  0  0  0
  -38.5470  -64.8410   51.6270 H   0  0  0  0  0  0  0  0  0  0  0  0
  -39.1310  -64.0140   48.7610 H   0  0  0  0  0  0  0  0  0  0  0  0
  -37.6480  -63.5620   49.7610 H   0  0  0  0  0  0  0  0  0  0  0  0
  -41.1170  -64.6310   53.0810 H   0  0  0  0  0  0  0  0  0  0  0  0
  -42.1120  -66.0890   53.3640 H   0  0  0  0  0  0  0  0  0  0  0  0
  -46.0600  -63.9330   51.7920 H   0  0  0  0  0  0  0  0  0  0  0  0
  -45.3780  -66.1280   53.6020 H   0  0  0  0  0  0  0  0  0  0  0  0
  -43.6950  -65.9780   54.2090 H   0  0  0  0  0  0  0  0  0  0  0  0
  -44.8270  -64.6340   54.5210 H   0  0  0  0  0  0  0  0  0  0  0  0
  -44.4270  -60.2730   48.4600 H   0  0  0  0  0  0  0  0  0  0  0  0
  -44.1030  -60.1390   50.2130 H   0  0  0  0  0  0  0  0  0  0  0  0
  -46.3040  -59.3370   50.7090 H   0  0  0  0  0  0  0  0  0  0  0  0
  -45.6300  -58.4420   49.3190 H   0  0  0  0  0  0  0  0  0  0  0  0
  -48.6600  -60.8760   49.4590 H   0  0  0  0  0  0  0  0  0  0  0  0
  -47.6860  -61.5720   48.1050 H   0  0  0  0  0  0  0  0  0  0  0  0
  -47.1610  -62.8530   50.0040 H   0  0  0  0  0  0  0  0  0  0  0  0
  -46.9560  -61.3530   51.0310 H   0  0  0  0  0  0  0  0  0  0  0  0
  2  7  1  0  0  0  0
  2  1  1  0  0  0  0
  3  2  2  0  0  0  0
  4  5  2  0  0  0  0
  4  3  1  0  0  0  0
  5  6  1  0  0  0  0
  6 33  1  0  0  0  0
  6  7  2  0  0  0  0
  7 34  1  0  0  0  0
  8  3  1  0  0  0  0
  8 13  1  0  0  0  0
  9 10  1  0  0  0  0
  9  8  1  0  0  0  0
  9 36  1  0  0  0  0
 10 37  1  0  0  0  0
 10 11  1  0  0  0  0
 11 12  1  0  0  0  0
 11 14  1  0  0  0  0
 12 39  1  0  0  0  0
 12 40  1  0  0  0  0
 13 42  1  0  0  0  0
 13 12  1  0  0  0  0
 14 15  2  0  0  0  0
 14 16  1  0  0  0  0
 16 43  1  0  0  0  0
 16 44  1  0  0  0  0
 17 21  1  0  0  0  0
 17 16  1  0  0  0  0
 18 17  1  0  0  0  0
 19 18  2  0  0  0  0
 19 20  1  0  0  0  0
 20 45  1  0  0  0  0
 20 21  2  0  0  0  0
 21 22  1  0  0  0  0
 22 47  1  0  0  0  0
 22 48  1  0  0  0  0
 23 25  1  0  0  0  0
 23 19  1  0  0  0  0
 24 23  2  0  0  0  0
 25 30  1  0  0  0  0
 26 25  1  0  0  0  0
 26 27  1  0  0  0  0
 26 50  1  0  0  0  0
 27 51  1  0  0  0  0
 28 29  1  0  0  0  0
 28 27  1  0  0  0  0
 29 53  1  0  0  0  0
 29 30  1  0  0  0  0
 30 56  1  0  0  0  0
 31  4  1  0  0  0  0
 32  5  1  0  0  0  0
 35  9  1  0  0  0  0
 38 10  1  0  0  0  0
 41 13  1  0  0  0  0
 46 22  1  0  0  0  0
 49 26  1  0  0  0  0
 52 27  1  0  0  0  0
 54 29  1  0  0  0  0
 55 30  1  0  0  0  0
M  END
>  <Pose>
1

>  <Score>
-4.89

$$$$
