
 OpenBabel03202209423D

 46 49  0  0  1  0  0  0  0  0999 V2000
  -33.4880  -70.0690   52.2890 Cl  0  0  0  0  0  0  0  0  0  0  0  0
  -34.8360  -69.2830   51.4810 C   0  0  0  0  0  0  0  0  0  0  0  0
  -34.5650  -68.1680   50.7200 C   0  0  0  0  0  0  0  0  0  0  0  0
  -35.6080  -67.5640   50.0980 N   0  0  0  0  0  0  0  0  0  0  0  0
  -36.8660  -68.0200   50.2060 C   0  0  0  0  0  0  0  0  0  0  0  0
  -37.9070  -67.4280   49.5920 N   0  0  0  0  0  0  0  0  0  0  0  0
  -37.7660  -66.3330   48.8220 C   0  0  0  0  0  0  0  0  0  0  0  0
  -36.4700  -65.8620   48.7100 C   0  0  0  0  0  0  0  0  0  0  0  0
  -35.4060  -66.4680   49.3390 C   0  0  0  0  0  0  0  0  0  0  0  0
  -34.2320  -66.0010   49.2080 O   0  0  0  0  0  0  0  0  0  0  0  0
  -38.8750  -65.6560   48.1370 C   0  0  0  0  0  0  0  0  0  0  0  0
  -39.2550  -64.4050   48.6460 N   0  0  0  0  0  0  0  0  0  0  0  0
  -40.1840  -63.6390   47.9250 C   0  0  0  0  0  0  0  0  0  0  0  0
  -41.6010  -63.7290   48.3860 C   0  0  0  0  0  0  0  0  0  0  0  0
  -41.6970  -64.0300   49.8070 N   0  0  0  0  0  0  0  0  0  0  0  0
  -42.8210  -64.1110   50.5190 N   0  0  0  0  0  0  0  0  0  0  0  0
  -42.5180  -64.4040   51.7870 C   0  0  0  0  0  0  0  0  0  0  0  0
  -41.1520  -64.5090   51.8600 C   0  0  0  0  0  0  0  0  0  0  0  0
  -40.6290  -64.2680   50.5850 C   0  0  0  0  0  0  0  0  0  0  0  0
  -39.2430  -64.2440   50.0560 C   0  0  0  0  0  0  0  0  0  0  0  0
  -43.4930  -64.5830   52.9080 C   0  0  1  0  0  0  0  0  0  0  0  0
  -44.5280  -63.6510   52.7260 O   0  0  0  0  0  0  0  0  0  0  0  0
  -44.1520  -65.9570   52.8120 C   0  0  0  0  0  0  0  0  0  0  0  0
  -44.1760  -66.5730   54.2020 C   0  0  0  0  0  0  0  0  0  0  0  0
  -37.1480  -69.1530   50.9770 C   0  0  0  0  0  0  0  0  0  0  0  0
  -36.1130  -69.7860   51.6200 C   0  0  0  0  0  0  0  0  0  0  0  0
  -33.5750  -67.7900   50.6210 H   0  0  0  0  0  0  0  0  0  0  0  0
  -36.2960  -64.9710   48.0960 H   0  0  0  0  0  0  0  0  0  0  0  0
  -38.6010  -65.5350   47.0580 H   0  0  0  0  0  0  0  0  0  0  0  0
  -39.7840  -66.3260   48.1130 H   0  0  0  0  0  0  0  0  0  0  0  0
  -39.8870  -62.5520   48.0150 H   0  0  0  0  0  0  0  0  0  0  0  0
  -40.0760  -63.8630   46.8410 H   0  0  0  0  0  0  0  0  0  0  0  0
  -42.1300  -64.4880   47.7820 H   0  0  0  0  0  0  0  0  0  0  0  0
  -42.1620  -62.7670   48.2040 H   0  0  0  0  0  0  0  0  0  0  0  0
  -40.5530  -64.7360   52.7260 H   0  0  0  0  0  0  0  0  0  0  0  0
  -38.7630  -63.2470   50.2840 H   0  0  0  0  0  0  0  0  0  0  0  0
  -38.6160  -65.0420   50.5010 H   0  0  0  0  0  0  0  0  0  0  0  0
  -43.0330  -64.4550   53.8940 H   0  0  0  0  0  0  0  0  0  0  0  0
  -44.2350  -62.7390   53.0160 H   0  0  0  0  0  0  0  0  0  0  0  0
  -43.5130  -66.5760   52.1800 H   0  0  0  0  0  0  0  0  0  0  0  0
  -45.1570  -65.9110   52.3890 H   0  0  0  0  0  0  0  0  0  0  0  0
  -43.8180  -65.8440   54.9480 H   0  0  0  0  0  0  0  0  0  0  0  0
  -45.1890  -66.9640   54.4600 H   0  0  0  0  0  0  0  0  0  0  0  0
  -43.4920  -67.4650   54.2610 H   0  0  0  0  0  0  0  0  0  0  0  0
  -38.1750  -69.4970   51.0450 H   0  0  0  0  0  0  0  0  0  0  0  0
  -36.3270  -70.6610   52.2170 H   0  0  0  0  0  0  0  0  0  0  0  0
  2 26  2  0  0  0  0
  2  1  1  0  0  0  0
  3  2  1  0  0  0  0
  4  5  1  0  0  0  0
  4  3  1  0  0  0  0
  5 25  2  0  0  0  0
  6  5  1  0  0  0  0
  7  6  2  0  0  0  0
  8  7  1  0  0  0  0
  8  9  1  0  0  0  0
  9  4  1  0  0  0  0
 10  9  2  0  0  0  0
 11 12  1  0  0  0  0
 11  7  1  0  0  0  0
 12 20  1  0  0  0  0
 13 31  1  0  0  0  0
 13 14  1  0  0  0  0
 13 12  1  0  0  0  0
 14 15  1  0  0  0  0
 15 16  1  0  0  0  0
 15 19  1  0  0  0  0
 16 17  2  0  0  0  0
 17 18  1  0  0  0  0
 17 21  1  0  0  0  0
 18 35  1  0  0  0  0
 19 18  2  0  0  0  0
 20 36  1  0  0  0  0
 20 37  1  0  0  0  0
 20 19  1  0  0  0  0
 21 38  1  1  0  0  0
 22 21  1  0  0  0  0
 22 39  1  0  0  0  0
 23 21  1  0  0  0  0
 23 24  1  0  0  0  0
 24 44  1  0  0  0  0
 24 43  1  0  0  0  0
 24 42  1  0  0  0  0
 25 45  1  0  0  0  0
 25 26  1  0  0  0  0
 26 46  1  0  0  0  0
 27  3  1  0  0  0  0
 28  8  1  0  0  0  0
 29 11  1  0  0  0  0
 30 11  1  0  0  0  0
 32 13  1  0  0  0  0
 33 14  1  0  0  0  0
 34 14  1  0  0  0  0
 40 23  1  0  0  0  0
 41 23  1  0  0  0  0
M  END
>  <Pose>
1

>  <Score>
-5.86

$$$$
