
 OpenBabel03202209423D

 45 48  0  0  1  0  0  0  0  0999 V2000
  -34.4850  -69.9670   51.5360 Cl  0  0  0  0  0  0  0  0  0  0  0  0
  -36.0770  -69.2180   51.3480 C   0  0  0  0  0  0  0  0  0  0  0  0
  -36.2680  -68.1920   50.4790 C   0  0  0  0  0  0  0  0  0  0  0  0
  -37.5360  -67.6230   50.3540 C   0  0  0  0  0  0  0  0  0  0  0  0
  -38.6390  -68.0340   51.0600 C   0  0  0  0  0  0  0  0  0  0  0  0
  -38.3820  -69.0970   51.9440 C   0  0  0  0  0  0  0  0  0  0  0  0
  -37.1380  -69.6750   52.0850 C   0  0  0  0  0  0  0  0  0  0  0  0
  -39.9790  -67.5260   50.9640 C   0  0  0  0  0  0  0  0  0  0  0  0
  -40.4950  -67.6870   49.7550 O   0  0  0  0  0  0  0  0  0  0  0  0
  -40.8170  -66.9030   51.9030 N   0  0  0  0  0  0  0  0  0  0  0  0
  -41.7750  -67.5760   52.7060 C   0  0  0  0  0  0  0  0  0  0  0  0
  -42.3230  -66.5930   53.7550 C   0  0  1  0  0  0  0  0  0  0  0  0
  -42.8870  -65.5020   53.0030 N   0  0  0  0  0  0  0  0  0  0  0  0
  -42.0100  -64.7630   52.1580 C   0  0  0  0  0  0  0  0  0  0  0  0
  -40.6670  -65.4530   52.0230 C   0  0  0  0  0  0  0  0  0  0  0  0
  -44.2520  -65.1840   53.1030 C   0  0  0  0  0  0  0  0  0  0  0  0
  -44.6310  -64.0470   52.7690 O   0  0  0  0  0  0  0  0  0  0  0  0
  -45.1900  -66.2120   53.6000 C   0  0  1  0  0  0  0  0  0  0  0  0
  -44.5980  -66.7810   54.7740 N   0  0  0  0  0  0  0  0  0  0  0  0
  -43.2550  -67.2240   54.6870 C   0  0  0  0  0  0  0  0  0  0  0  0
  -42.8200  -68.1750   55.4090 O   0  0  0  0  0  0  0  0  0  0  0  0
  -46.5820  -65.7340   53.7640 C   0  0  0  0  0  0  0  0  0  0  0  0
  -47.4920  -66.8760   53.9420 C   0  0  0  0  0  0  0  0  0  0  0  0
  -47.9730  -67.3910   55.0760 N   0  0  0  0  0  0  0  0  0  0  0  0
  -48.7840  -68.4490   54.7820 C   0  0  0  0  0  0  0  0  0  0  0  0
  -48.8170  -68.6060   53.4570 N   0  0  0  0  0  0  0  0  0  0  0  0
  -48.0370  -67.6600   52.9240 C   0  0  0  0  0  0  0  0  0  0  0  0
  -35.4340  -67.8390   49.9060 H   0  0  0  0  0  0  0  0  0  0  0  0
  -37.6180  -66.8070   49.6680 H   0  0  0  0  0  0  0  0  0  0  0  0
  -39.2160  -69.4760   52.5390 H   0  0  0  0  0  0  0  0  0  0  0  0
  -37.0450  -70.4960   52.8000 H   0  0  0  0  0  0  0  0  0  0  0  0
  -41.3580  -68.4560   53.2380 H   0  0  0  0  0  0  0  0  0  0  0  0
  -42.6000  -67.9200   52.0600 H   0  0  0  0  0  0  0  0  0  0  0  0
  -41.4260  -66.2170   54.2910 H   0  0  0  0  0  0  0  0  0  0  0  0
  -41.8510  -63.7620   52.6090 H   0  0  0  0  0  0  0  0  0  0  0  0
  -42.3920  -64.5930   51.1310 H   0  0  0  0  0  0  0  0  0  0  0  0
  -40.1410  -65.0930   51.1290 H   0  0  0  0  0  0  0  0  0  0  0  0
  -40.0660  -65.2250   52.9190 H   0  0  0  0  0  0  0  0  0  0  0  0
  -45.2570  -67.0780   52.8620 H   0  0  0  0  0  0  0  0  0  0  0  0
  -45.1200  -66.8790   55.6800 H   0  0  0  0  0  0  0  0  0  0  0  0
  -46.6420  -65.0070   54.6040 H   0  0  0  0  0  0  0  0  0  0  0  0
  -46.8630  -65.1300   52.8580 H   0  0  0  0  0  0  0  0  0  0  0  0
  -49.2920  -69.0270   55.5550 H   0  0  0  0  0  0  0  0  0  0  0  0
  -49.3390  -69.3180   52.9390 H   0  0  0  0  0  0  0  0  0  0  0  0
  -47.8120  -67.4650   51.8830 H   0  0  0  0  0  0  0  0  0  0  0  0
  2  1  1  0  0  0  0
  2  7  1  0  0  0  0
  3  2  2  0  0  0  0
  4  3  1  0  0  0  0
  4  5  2  0  0  0  0
  5  6  1  0  0  0  0
  6  7  2  0  0  0  0
  6 30  1  0  0  0  0
  7 31  1  0  0  0  0
  8  5  1  0  0  0  0
  8 10  1  0  0  0  0
  9  8  2  0  0  0  0
 10 15  1  0  0  0  0
 10 11  1  0  0  0  0
 11 32  1  0  0  0  0
 11 12  1  0  0  0  0
 12 34  1  1  0  0  0
 12 20  1  0  0  0  0
 13 16  1  0  0  0  0
 13 12  1  0  0  0  0
 14 35  1  0  0  0  0
 14 13  1  0  0  0  0
 15 14  1  0  0  0  0
 15 38  1  0  0  0  0
 16 18  1  0  0  0  0
 17 16  2  0  0  0  0
 18 39  1  6  0  0  0
 18 22  1  0  0  0  0
 18 19  1  0  0  0  0
 19 40  1  0  0  0  0
 20 19  1  0  0  0  0
 20 21  2  0  0  0  0
 22 23  1  0  0  0  0
 22 41  1  0  0  0  0
 23 24  1  0  0  0  0
 25 24  2  0  0  0  0
 25 43  1  0  0  0  0
 26 25  1  0  0  0  0
 27 26  1  0  0  0  0
 27 23  2  0  0  0  0
 28  3  1  0  0  0  0
 29  4  1  0  0  0  0
 33 11  1  0  0  0  0
 36 14  1  0  0  0  0
 37 15  1  0  0  0  0
 42 22  1  0  0  0  0
 44 26  1  0  0  0  0
 45 27  1  0  0  0  0
M  END
>  <Pose>
1

>  <Score>
-6.98

$$$$
