
 OpenBabel03202209423D

 49 52  0  0  0  0  0  0  0  0999 V2000
  -47.0860  -71.7130   60.5600 B   0  0  0  0  0  0  0  0  0  0  0  0
  -48.4190  -71.2160   59.3200 C   0  0  0  0  0  0  0  0  0  0  0  0
  -48.3830  -69.9530   58.7480 C   0  0  0  0  0  0  0  0  0  0  0  0
  -49.3380  -69.5600   57.8490 C   0  0  0  0  0  0  0  0  0  0  0  0
  -50.3620  -70.3760   57.4710 C   0  0  0  0  0  0  0  0  0  0  0  0
  -50.4050  -71.6520   58.0420 C   0  0  0  0  0  0  0  0  0  0  0  0
  -49.4420  -72.0520   58.9500 C   0  0  0  0  0  0  0  0  0  0  0  0
  -49.2910  -68.2050   57.1930 C   0  0  0  0  0  0  0  0  0  0  0  0
  -49.9510  -67.3120   57.8320 O   0  0  0  0  0  0  0  0  0  0  0  0
  -48.6010  -68.0770   56.0720 N   0  0  0  0  0  0  0  0  0  0  0  0
  -47.8790  -67.9430   54.8970 C   0  0  0  0  0  0  0  0  0  0  0  0
  -48.5710  -67.0240   53.9230 C   0  0  0  0  0  0  0  0  0  0  0  0
  -49.6820  -67.4720   53.4680 O   0  0  0  0  0  0  0  0  0  0  0  0
  -48.0680  -65.7780   53.5260 N   0  0  0  0  0  0  0  0  0  0  0  0
  -47.7180  -64.7500   54.4530 C   0  0  0  0  0  0  0  0  0  0  0  0
  -46.5190  -63.9570   54.0160 C   0  0  0  0  0  0  0  0  0  0  0  0
  -45.6200  -64.6600   53.0230 C   0  0  0  0  0  0  0  0  0  0  0  0
  -44.7360  -63.6040   52.5480 N   0  0  0  0  0  0  0  0  0  0  0  0
  -43.6420  -64.0170   51.7540 C   0  0  0  0  0  0  0  0  0  0  0  0
  -43.2480  -65.4470   51.8030 C   0  0  0  0  0  0  0  0  0  0  0  0
  -43.6100  -66.0780   53.1110 C   0  0  0  0  0  0  0  0  0  0  0  0
  -42.9950  -66.9950   53.8560 N   0  0  0  0  0  0  0  0  0  0  0  0
  -43.7840  -67.1810   54.9350 C   0  0  0  0  0  0  0  0  0  0  0  0
  -44.8760  -66.3890   54.8590 N   0  0  0  0  0  0  0  0  0  0  0  0
  -44.7830  -65.6770   53.6990 C   0  0  0  0  0  0  0  0  0  0  0  0
  -46.3570  -65.2870   51.8680 C   0  0  0  0  0  0  0  0  0  0  0  0
  -47.8440  -65.4550   52.1210 C   0  0  0  0  0  0  0  0  0  0  0  0
  -47.6020  -69.2770   59.0100 H   0  0  0  0  0  0  0  0  0  0  0  0
  -51.0940  -70.0430   56.7640 H   0  0  0  0  0  0  0  0  0  0  0  0
  -51.1970  -72.3260   57.7720 H   0  0  0  0  0  0  0  0  0  0  0  0
  -49.4750  -73.0380   59.3890 H   0  0  0  0  0  0  0  0  0  0  0  0
  -47.5210  -68.7220   56.6470 H   0  0  0  0  0  0  0  0  0  0  0  0
  -47.7530  -68.9540   54.3750 H   0  0  0  0  0  0  0  0  0  0  0  0
  -46.8200  -67.6290   55.0700 H   0  0  0  0  0  0  0  0  0  0  0  0
  -48.5900  -64.0280   54.4470 H   0  0  0  0  0  0  0  0  0  0  0  0
  -47.6660  -65.0900   55.5040 H   0  0  0  0  0  0  0  0  0  0  0  0
  -46.8360  -63.0010   53.5840 H   0  0  0  0  0  0  0  0  0  0  0  0
  -45.9030  -63.7920   54.9260 H   0  0  0  0  0  0  0  0  0  0  0  0
  -45.3830  -62.9530   52.0160 H   0  0  0  0  0  0  0  0  0  0  0  0
  -42.7430  -63.4180   52.0910 H   0  0  0  0  0  0  0  0  0  0  0  0
  -43.8160  -63.6830   50.6880 H   0  0  0  0  0  0  0  0  0  0  0  0
  -43.7180  -65.9970   50.9550 H   0  0  0  0  0  0  0  0  0  0  0  0
  -42.1410  -65.5350   51.6090 H   0  0  0  0  0  0  0  0  0  0  0  0
  -43.5410  -67.8720   55.7190 H   0  0  0  0  0  0  0  0  0  0  0  0
  -45.6370  -66.3420   55.5570 H   0  0  0  0  0  0  0  0  0  0  0  0
  -45.9580  -66.3340   51.7090 H   0  0  0  0  0  0  0  0  0  0  0  0
  -46.2520  -64.7340   50.9200 H   0  0  0  0  0  0  0  0  0  0  0  0
  -48.4180  -64.5490   51.8180 H   0  0  0  0  0  0  0  0  0  0  0  0
  -48.1810  -66.3200   51.5190 H   0  0  0  0  0  0  0  0  0  0  0  0
  2  1  1  0  0  0  0
  3 28  1  0  0  0  0
  3  2  2  0  0  0  0
  4  3  1  0  0  0  0
  5  4  2  0  0  0  0
  5  6  1  0  0  0  0
  6  7  2  0  0  0  0
  7  2  1  0  0  0  0
  7 31  1  0  0  0  0
  8  9  2  0  0  0  0
  8  4  1  0  0  0  0
 10 32  1  0  0  0  0
 10  8  1  0  0  0  0
 11 34  1  0  0  0  0
 11 10  1  0  0  0  0
 12 11  1  0  0  0  0
 13 12  2  0  0  0  0
 14 12  1  0  0  0  0
 14 15  1  0  0  0  0
 15 36  1  0  0  0  0
 16 15  1  0  0  0  0
 16 38  1  0  0  0  0
 17 25  1  0  0  0  0
 17 16  1  0  0  0  0
 18 17  1  0  0  0  0
 19 20  1  0  0  0  0
 19 40  1  0  0  0  0
 19 18  1  0  0  0  0
 20 21  1  0  0  0  0
 21 25  2  0  0  0  0
 21 22  1  0  0  0  0
 22 23  2  0  0  0  0
 23 44  1  0  0  0  0
 24 23  1  0  0  0  0
 24 45  1  0  0  0  0
 25 24  1  0  0  0  0
 26 27  1  0  0  0  0
 26 17  1  0  0  0  0
 27 14  1  0  0  0  0
 29  5  1  0  0  0  0
 30  6  1  0  0  0  0
 33 11  1  0  0  0  0
 35 15  1  0  0  0  0
 37 16  1  0  0  0  0
 39 18  1  0  0  0  0
 41 19  1  0  0  0  0
 42 20  1  0  0  0  0
 43 20  1  0  0  0  0
 46 26  1  0  0  0  0
 47 26  1  0  0  0  0
 48 27  1  0  0  0  0
 49 27  1  0  0  0  0
M  END
>  <Pose>
1

>  <Score>
-5.83

$$$$
