
 OpenBabel03202209423D

 45 48  0  0  1  0  0  0  0  0999 V2000
  -47.5580  -67.9470   54.2480 Cl  0  0  0  0  0  0  0  0  0  0  0  0
  -48.3410  -66.9740   53.0000 C   0  0  0  0  0  0  0  0  0  0  0  0
  -47.7370  -65.8230   52.5540 C   0  0  0  0  0  0  0  0  0  0  0  0
  -48.3250  -65.0290   51.5690 C   0  0  0  0  0  0  0  0  0  0  0  0
  -49.5380  -65.4620   51.0730 C   0  0  0  0  0  0  0  0  0  0  0  0
  -50.1380  -66.6220   51.5280 C   0  0  0  0  0  0  0  0  0  0  0  0
  -49.5530  -67.4030   52.5020 C   0  0  0  0  0  0  0  0  0  0  0  0
  -47.6630  -63.7900   51.0990 C   0  0  0  0  0  0  0  0  0  0  0  0
  -46.4440  -64.0770   50.2650 C   0  0  0  0  0  0  0  0  0  0  0  0
  -45.2240  -64.1720   51.0330 N   0  0  0  0  0  0  0  0  0  0  0  0
  -44.8820  -64.9770   52.1750 C   0  0  2  0  0  0  0  0  0  0  0  0
  -43.8390  -64.1110   52.8530 C   0  0  2  0  0  0  0  0  0  0  0  0
  -43.0770  -63.6890   51.7290 O   0  0  0  0  0  0  0  0  0  0  0  0
  -44.0540  -63.4120   50.7520 C   0  0  0  0  0  0  0  0  0  0  0  0
  -43.8660  -62.6010   49.7910 O   0  0  0  0  0  0  0  0  0  0  0  0
  -43.1740  -65.1380   53.6950 C   0  0  0  0  0  0  0  0  0  0  0  0
  -42.8960  -66.1890   52.6900 N   0  0  0  0  0  0  0  0  0  0  0  0
  -43.9850  -66.1590   51.7640 C   0  0  0  0  0  0  0  0  0  0  0  0
  -41.7410  -66.9720   52.7770 C   0  0  0  0  0  0  0  0  0  0  0  0
  -40.8000  -66.8350   51.8920 O   0  0  0  0  0  0  0  0  0  0  0  0
  -41.4530  -67.9700   53.7900 C   0  0  0  0  0  0  0  0  0  0  0  0
  -40.5900  -69.0160   53.6860 N   0  0  0  0  0  0  0  0  0  0  0  0
  -40.6050  -69.6960   54.8310 C   0  0  0  0  0  0  0  0  0  0  0  0
  -41.4600  -69.1090   55.6710 N   0  0  0  0  0  0  0  0  0  0  0  0
  -41.9930  -68.0380   55.0410 C   0  0  0  0  0  0  0  0  0  0  0  0
  -39.8010  -69.3190   52.5210 C   0  0  0  0  0  0  0  0  0  0  0  0
  -46.7750  -65.4740   52.9430 H   0  0  0  0  0  0  0  0  0  0  0  0
  -50.0050  -64.8440   50.3020 H   0  0  0  0  0  0  0  0  0  0  0  0
  -51.0950  -66.9350   51.1150 H   0  0  0  0  0  0  0  0  0  0  0  0
  -50.0090  -68.3120   52.8670 H   0  0  0  0  0  0  0  0  0  0  0  0
  -47.3140  -63.2390   51.9970 H   0  0  0  0  0  0  0  0  0  0  0  0
  -48.3750  -63.0990   50.5810 H   0  0  0  0  0  0  0  0  0  0  0  0
  -46.3870  -63.2420   49.5090 H   0  0  0  0  0  0  0  0  0  0  0  0
  -46.5820  -64.9920   49.6540 H   0  0  0  0  0  0  0  0  0  0  0  0
  -45.7060  -65.2730   52.8100 H   0  0  0  0  0  0  0  0  0  0  0  0
  -44.2720  -63.2660   53.4070 H   0  0  0  0  0  0  0  0  0  0  0  0
  -42.2880  -64.8180   54.2260 H   0  0  0  0  0  0  0  0  0  0  0  0
  -43.9440  -65.5880   54.3560 H   0  0  0  0  0  0  0  0  0  0  0  0
  -44.5850  -67.0730   51.6980 H   0  0  0  0  0  0  0  0  0  0  0  0
  -43.6130  -65.9330   50.7200 H   0  0  0  0  0  0  0  0  0  0  0  0
  -40.0410  -70.5950   55.1140 H   0  0  0  0  0  0  0  0  0  0  0  0
  -42.7320  -67.3890   55.5360 H   0  0  0  0  0  0  0  0  0  0  0  0
  -39.0040  -68.5710   52.3330 H   0  0  0  0  0  0  0  0  0  0  0  0
  -40.4350  -69.3980   51.6050 H   0  0  0  0  0  0  0  0  0  0  0  0
  -39.3130  -70.3080   52.6390 H   0  0  0  0  0  0  0  0  0  0  0  0
  2  1  1  0  0  0  0
  3 27  1  0  0  0  0
  3  2  1  0  0  0  0
  4  3  2  0  0  0  0
  5  6  2  0  0  0  0
  5  4  1  0  0  0  0
  6  7  1  0  0  0  0
  7 30  1  0  0  0  0
  7  2  2  0  0  0  0
  8  4  1  0  0  0  0
  8 31  1  0  0  0  0
  9 10  1  0  0  0  0
  9  8  1  0  0  0  0
 10 11  1  0  0  0  0
 11 35  1  1  0  0  0
 11 12  1  0  0  0  0
 12 36  1  1  0  0  0
 12 16  1  0  0  0  0
 13 12  1  0  0  0  0
 14 10  1  0  0  0  0
 14 13  1  0  0  0  0
 15 14  2  0  0  0  0
 16 37  1  0  0  0  0
 16 38  1  0  0  0  0
 17 19  1  0  0  0  0
 17 16  1  0  0  0  0
 18 11  1  0  0  0  0
 18 17  1  0  0  0  0
 19 21  1  0  0  0  0
 20 19  2  0  0  0  0
 21 25  2  0  0  0  0
 22 21  1  0  0  0  0
 22 23  1  0  0  0  0
 23 41  1  0  0  0  0
 23 24  2  0  0  0  0
 25 42  1  0  0  0  0
 25 24  1  0  0  0  0
 26 45  1  0  0  0  0
 26 22  1  0  0  0  0
 28  5  1  0  0  0  0
 29  6  1  0  0  0  0
 32  8  1  0  0  0  0
 33  9  1  0  0  0  0
 34  9  1  0  0  0  0
 39 18  1  0  0  0  0
 40 18  1  0  0  0  0
 43 26  1  0  0  0  0
 44 26  1  0  0  0  0
M  END
>  <Pose>
1

>  <Score>
-5.76

$$$$
