
 OpenBabel03202209423D

 53 56  0  0  0  0  0  0  0  0999 V2000
  -37.9920  -69.3130   50.9420 Cl  0  0  0  0  0  0  0  0  0  0  0  0
  -39.1740  -69.0910   52.2300 C   0  0  0  0  0  0  0  0  0  0  0  0
  -39.6640  -67.8080   52.4390 C   0  0  0  0  0  0  0  0  0  0  0  0
  -40.5790  -67.6110   53.4340 C   0  0  0  0  0  0  0  0  0  0  0  0
  -40.9920  -68.7110   54.2090 C   0  0  0  0  0  0  0  0  0  0  0  0
  -40.4940  -69.9620   53.9810 C   0  0  0  0  0  0  0  0  0  0  0  0
  -39.5660  -70.1790   52.9780 C   0  0  0  0  0  0  0  0  0  0  0  0
  -41.1860  -66.2840   53.6940 C   0  0  0  0  0  0  0  0  0  0  0  0
  -42.3250  -65.9500   52.8990 N   0  0  0  0  0  0  0  0  0  0  0  0
  -43.5920  -66.1690   53.3080 C   0  0  0  0  0  0  0  0  0  0  0  0
  -44.4180  -65.7820   52.2790 C   0  0  0  0  0  0  0  0  0  0  0  0
  -43.6480  -65.3510   51.2990 N   0  0  0  0  0  0  0  0  0  0  0  0
  -42.3440  -65.4470   51.6610 C   0  0  0  0  0  0  0  0  0  0  0  0
  -41.2400  -65.1260   50.8020 N   0  0  0  0  0  0  0  0  0  0  0  0
  -40.7570  -66.1750   49.8810 C   0  0  0  0  0  0  0  0  0  0  0  0
  -40.7730  -65.7170   48.4590 C   0  0  0  0  0  0  0  0  0  0  0  0
  -40.7170  -64.2760   48.3720 N   0  0  0  0  0  0  0  0  0  0  0  0
  -39.9720  -63.5760   49.3980 C   0  0  0  0  0  0  0  0  0  0  0  0
  -40.5780  -63.8720   50.7580 C   0  0  0  0  0  0  0  0  0  0  0  0
  -41.3640  -63.5830   47.3130 C   0  0  0  0  0  0  0  0  0  0  0  0
  -41.1880  -63.9360   46.1270 O   0  0  0  0  0  0  0  0  0  0  0  0
  -42.2600  -62.4330   47.5800 C   0  0  0  0  0  0  0  0  0  0  0  0
  -43.6300  -63.0010   47.9370 C   0  0  0  0  0  0  0  0  0  0  0  0
  -45.7620  -65.9120   52.4590 N   0  0  0  0  0  0  0  0  0  0  0  0
  -46.2770  -66.3980   53.5940 C   0  0  0  0  0  0  0  0  0  0  0  0
  -47.5300  -66.5000   53.7110 O   0  0  0  0  0  0  0  0  0  0  0  0
  -45.5090  -66.7870   54.6200 N   0  0  0  0  0  0  0  0  0  0  0  0
  -44.1680  -66.6690   54.4700 C   0  0  0  0  0  0  0  0  0  0  0  0
  -43.4460  -67.0320   55.4250 O   0  0  0  0  0  0  0  0  0  0  0  0
  -46.6570  -65.5120   51.3750 C   0  0  0  0  0  0  0  0  0  0  0  0
  -39.2870  -66.9980   51.8120 H   0  0  0  0  0  0  0  0  0  0  0  0
  -41.7280  -68.5450   55.0070 H   0  0  0  0  0  0  0  0  0  0  0  0
  -40.7850  -70.8310   54.5550 H   0  0  0  0  0  0  0  0  0  0  0  0
  -39.1580  -71.1640   52.7780 H   0  0  0  0  0  0  0  0  0  0  0  0
  -40.3860  -65.4970   53.5390 H   0  0  0  0  0  0  0  0  0  0  0  0
  -41.3820  -66.2420   54.7850 H   0  0  0  0  0  0  0  0  0  0  0  0
  -39.7410  -66.4460   50.2280 H   0  0  0  0  0  0  0  0  0  0  0  0
  -41.4510  -67.0490   49.9480 H   0  0  0  0  0  0  0  0  0  0  0  0
  -39.8450  -66.1070   47.9550 H   0  0  0  0  0  0  0  0  0  0  0  0
  -41.6580  -66.0860   47.8990 H   0  0  0  0  0  0  0  0  0  0  0  0
  -38.9270  -64.0060   49.3860 H   0  0  0  0  0  0  0  0  0  0  0  0
  -39.8590  -62.5020   49.2260 H   0  0  0  0  0  0  0  0  0  0  0  0
  -41.2890  -63.0670   51.0140 H   0  0  0  0  0  0  0  0  0  0  0  0
  -39.7390  -63.8130   51.5220 H   0  0  0  0  0  0  0  0  0  0  0  0
  -41.8860  -61.8420   48.4610 H   0  0  0  0  0  0  0  0  0  0  0  0
  -42.2940  -61.7200   46.7480 H   0  0  0  0  0  0  0  0  0  0  0  0
  -43.7990  -63.0480   49.0320 H   0  0  0  0  0  0  0  0  0  0  0  0
  -43.7670  -64.0310   47.5460 H   0  0  0  0  0  0  0  0  0  0  0  0
  -44.4250  -62.3800   47.4590 H   0  0  0  0  0  0  0  0  0  0  0  0
  -45.9520  -67.1610   55.4880 H   0  0  0  0  0  0  0  0  0  0  0  0
  -47.5950  -65.0880   51.7970 H   0  0  0  0  0  0  0  0  0  0  0  0
  -46.9010  -66.4570   50.8110 H   0  0  0  0  0  0  0  0  0  0  0  0
  -46.1520  -64.8320   50.6770 H   0  0  0  0  0  0  0  0  0  0  0  0
  1  2  1  0  0  0  0
  2  3  2  0  0  0  0
  2  7  1  0  0  0  0
  3  4  1  0  0  0  0
  4  8  1  0  0  0  0
  4  5  2  0  0  0  0
  5 32  1  0  0  0  0
  6  5  1  0  0  0  0
  6 33  1  0  0  0  0
  7  6  2  0  0  0  0
  8 36  1  0  0  0  0
  9 10  1  0  0  0  0
  9  8  1  0  0  0  0
 10 28  1  0  0  0  0
 11 24  1  0  0  0  0
 11 10  2  0  0  0  0
 12 13  2  0  0  0  0
 12 11  1  0  0  0  0
 13  9  1  0  0  0  0
 14 13  1  0  0  0  0
 15 38  1  0  0  0  0
 15 37  1  0  0  0  0
 15 14  1  0  0  0  0
 16 15  1  0  0  0  0
 17 16  1  0  0  0  0
 17 18  1  0  0  0  0
 18 19  1  0  0  0  0
 19 14  1  0  0  0  0
 19 43  1  0  0  0  0
 19 44  1  0  0  0  0
 20 22  1  0  0  0  0
 20 17  1  0  0  0  0
 21 20  2  0  0  0  0
 22 23  1  0  0  0  0
 22 45  1  0  0  0  0
 23 47  1  0  0  0  0
 24 25  1  0  0  0  0
 25 26  2  0  0  0  0
 25 27  1  0  0  0  0
 27 50  1  0  0  0  0
 28 27  1  0  0  0  0
 28 29  2  0  0  0  0
 30 51  1  0  0  0  0
 30 24  1  0  0  0  0
 31  3  1  0  0  0  0
 34  7  1  0  0  0  0
 35  8  1  0  0  0  0
 39 16  1  0  0  0  0
 40 16  1  0  0  0  0
 41 18  1  0  0  0  0
 42 18  1  0  0  0  0
 46 22  1  0  0  0  0
 48 23  1  0  0  0  0
 49 23  1  0  0  0  0
 52 30  1  0  0  0  0
 53 30  1  0  0  0  0
M  END
>  <Pose>
1

>  <Score>
-6.34

$$$$
