
 OpenBabel03202209423D

 60 64  0  0  1  0  0  0  0  0999 V2000
  -42.7980  -66.1600   52.8250 Cl  0  0  0  0  0  0  0  0  0  0  0  0
  -41.7640  -65.4180   51.5950 C   0  0  0  0  0  0  0  0  0  0  0  0
  -42.2670  -64.4400   50.7720 C   0  0  0  0  0  0  0  0  0  0  0  0
  -41.4570  -63.8560   49.8060 C   0  0  0  0  0  0  0  0  0  0  0  0
  -40.1470  -64.2030   49.6150 C   0  0  0  0  0  0  0  0  0  0  0  0
  -39.6600  -65.2040   50.4710 C   0  0  0  0  0  0  0  0  0  0  0  0
  -40.4540  -65.7900   51.4320 C   0  0  0  0  0  0  0  0  0  0  0  0
  -39.5890  -63.4110   48.5320 C   0  0  1  0  0  0  0  0  0  0  0  0
  -38.5100  -62.5960   49.0840 N   0  0  0  0  0  0  0  0  0  0  0  0
  -37.3260  -63.2750   48.6350 C   0  0  1  0  0  0  0  0  0  0  0  0
  -37.6690  -63.5870   47.1970 C   0  0  2  0  0  0  0  0  0  0  0  0
  -39.0540  -64.1730   47.3700 C   0  0  1  0  0  0  0  0  0  0  0  0
  -38.8290  -65.5930   47.5490 C   0  0  0  0  0  0  0  0  0  0  0  0
  -39.6440  -66.4300   47.9950 O   0  0  0  0  0  0  0  0  0  0  0  0
  -37.5080  -65.9110   47.1320 N   0  0  0  0  0  0  0  0  0  0  0  0
  -36.8650  -64.7200   46.6750 C   0  0  0  0  0  0  0  0  0  0  0  0
  -35.8320  -64.5850   45.9760 O   0  0  0  0  0  0  0  0  0  0  0  0
  -36.8400  -67.1990   47.1310 C   0  0  0  0  0  0  0  0  0  0  0  0
  -36.1940  -67.4920   48.4230 C   0  0  0  0  0  0  0  0  0  0  0  0
  -34.8360  -67.2810   48.5270 C   0  0  0  0  0  0  0  0  0  0  0  0
  -34.2330  -67.5590   49.7460 C   0  0  0  0  0  0  0  0  0  0  0  0
  -34.9520  -68.0260   50.8100 C   0  0  0  0  0  0  0  0  0  0  0  0
  -36.3050  -68.2230   50.6660 C   0  0  0  0  0  0  0  0  0  0  0  0
  -36.9610  -67.9660   49.4830 C   0  0  0  0  0  0  0  0  0  0  0  0
  -34.1300  -66.8090   47.4400 O   0  0  0  0  0  0  0  0  0  0  0  0
  -33.9740  -67.4890   46.2340 C   0  0  0  0  0  0  0  0  0  0  0  0
  -36.1040  -62.3910   48.7500 C   0  0  0  0  0  0  0  0  0  0  0  0
  -34.8970  -63.3030   48.6710 C   0  0  0  0  0  0  0  0  0  0  0  0
  -33.7040  -62.5940   48.1470 C   0  0  0  0  0  0  0  0  0  0  0  0
  -33.8000  -61.9240   47.0800 O   0  0  0  0  0  0  0  0  0  0  0  0
  -32.4980  -62.7090   48.8900 N   0  0  0  0  0  0  0  0  0  0  0  0
  -40.6970  -62.5340   48.0850 C   0  0  0  0  0  0  0  0  0  0  0  0
  -40.6760  -61.6650   47.1650 O   0  0  0  0  0  0  0  0  0  0  0  0
  -41.8190  -62.8370   48.8830 N   0  0  0  0  0  0  0  0  0  0  0  0
  -43.6880  -64.0280   50.9390 C   0  0  0  0  0  0  0  0  0  0  0  0
  -38.6360  -65.5270   50.3780 H   0  0  0  0  0  0  0  0  0  0  0  0
  -40.0440  -66.5610   52.0760 H   0  0  0  0  0  0  0  0  0  0  0  0
  -38.6110  -62.5360   50.1200 H   0  0  0  0  0  0  0  0  0  0  0  0
  -37.0910  -64.2120   49.1420 H   0  0  0  0  0  0  0  0  0  0  0  0
  -37.6480  -62.7040   46.5480 H   0  0  0  0  0  0  0  0  0  0  0  0
  -39.6390  -64.0240   46.4340 H   0  0  0  0  0  0  0  0  0  0  0  0
  -37.5560  -68.0090   46.8940 H   0  0  0  0  0  0  0  0  0  0  0  0
  -36.1120  -67.1780   46.2830 H   0  0  0  0  0  0  0  0  0  0  0  0
  -33.1710  -67.3960   49.8360 H   0  0  0  0  0  0  0  0  0  0  0  0
  -34.4320  -68.2320   51.7540 H   0  0  0  0  0  0  0  0  0  0  0  0
  -36.8820  -68.5920   51.5020 H   0  0  0  0  0  0  0  0  0  0  0  0
  -38.0430  -68.1250   49.3740 H   0  0  0  0  0  0  0  0  0  0  0  0
  -33.3050  -66.8780   45.5860 H   0  0  0  0  0  0  0  0  0  0  0  0
  -34.9570  -67.5090   45.7160 H   0  0  0  0  0  0  0  0  0  0  0  0
  -33.5400  -68.4860   46.3940 H   0  0  0  0  0  0  0  0  0  0  0  0
  -36.1070  -61.7810   49.6660 H   0  0  0  0  0  0  0  0  0  0  0  0
  -36.0800  -61.7680   47.8230 H   0  0  0  0  0  0  0  0  0  0  0  0
  -34.6790  -63.8030   49.6470 H   0  0  0  0  0  0  0  0  0  0  0  0
  -35.1500  -64.1140   47.9600 H   0  0  0  0  0  0  0  0  0  0  0  0
  -31.8220  -61.9280   48.8490 H   0  0  0  0  0  0  0  0  0  0  0  0
  -32.3600  -63.5930   49.4420 H   0  0  0  0  0  0  0  0  0  0  0  0
  -42.7630  -62.3730   48.7940 H   0  0  0  0  0  0  0  0  0  0  0  0
  -44.3160  -64.4450   50.1400 H   0  0  0  0  0  0  0  0  0  0  0  0
  -44.0730  -64.3420   51.9090 H   0  0  0  0  0  0  0  0  0  0  0  0
  -43.7930  -62.9090   50.8650 H   0  0  0  0  0  0  0  0  0  0  0  0
  2  1  1  0  0  0  0
  3 35  1  0  0  0  0
  3  2  2  0  0  0  0
  4  3  1  0  0  0  0
  5  4  2  0  0  0  0
  5  6  1  0  0  0  0
  6  7  2  0  0  0  0
  7  2  1  0  0  0  0
  7 37  1  0  0  0  0
  8 32  1  6  0  0  0
  8  9  1  0  0  0  0
  8  5  1  0  0  0  0
  9 38  1  0  0  0  0
 10 27  1  0  0  0  0
 10  9  1  0  0  0  0
 10 39  1  1  0  0  0
 11 40  1  6  0  0  0
 11 12  1  0  0  0  0
 11 10  1  0  0  0  0
 12 41  1  6  0  0  0
 12 13  1  0  0  0  0
 12  8  1  0  0  0  0
 13 14  2  0  0  0  0
 15 13  1  0  0  0  0
 16 15  1  0  0  0  0
 16 11  1  0  0  0  0
 17 16  2  0  0  0  0
 18 15  1  0  0  0  0
 18 19  1  0  0  0  0
 19 20  2  0  0  0  0
 19 24  1  0  0  0  0
 20 21  1  0  0  0  0
 21 44  1  0  0  0  0
 21 22  2  0  0  0  0
 22 45  1  0  0  0  0
 23 22  1  0  0  0  0
 23 46  1  0  0  0  0
 24 23  2  0  0  0  0
 25 20  1  0  0  0  0
 26 50  1  0  0  0  0
 26 25  1  0  0  0  0
 27 51  1  0  0  0  0
 28 27  1  0  0  0  0
 28 53  1  0  0  0  0
 29 28  1  0  0  0  0
 29 31  1  0  0  0  0
 30 29  2  0  0  0  0
 31 56  1  0  0  0  0
 32 34  1  0  0  0  0
 33 32  2  0  0  0  0
 34  4  1  0  0  0  0
 35 59  1  0  0  0  0
 36  6  1  0  0  0  0
 42 18  1  0  0  0  0
 43 18  1  0  0  0  0
 47 24  1  0  0  0  0
 48 26  1  0  0  0  0
 49 26  1  0  0  0  0
 52 27  1  0  0  0  0
 54 28  1  0  0  0  0
 55 31  1  0  0  0  0
 57 34  1  0  0  0  0
 58 35  1  0  0  0  0
 60 35  1  0  0  0  0
M  END
>  <Pose>
1

>  <Score>
-6.66

$$$$
