
 OpenBabel03202209423D

 63 66  0  0  0  0  0  0  0  0999 V2000
  -43.2580  -66.6570   54.3120 S   0  0  0  0  0  0  0  0  0  0  0  0
  -43.7980  -67.8190   55.0800 O   0  0  0  0  0  0  0  0  0  0  0  0
  -42.8330  -65.5310   55.2190 O   0  0  0  0  0  0  0  0  0  0  0  0
  -41.8670  -67.1070   53.3460 C   0  0  0  0  0  0  0  0  0  0  0  0
  -40.9400  -68.0350   53.8030 C   0  0  0  0  0  0  0  0  0  0  0  0
  -39.8720  -68.3580   53.0260 N   0  0  0  0  0  0  0  0  0  0  0  0
  -39.6640  -67.8160   51.8180 C   0  0  0  0  0  0  0  0  0  0  0  0
  -40.5580  -66.9180   51.3700 N   0  0  0  0  0  0  0  0  0  0  0  0
  -41.6290  -66.5660   52.1010 C   0  0  0  0  0  0  0  0  0  0  0  0
  -38.5410  -68.1520   51.0070 N   0  0  0  0  0  0  0  0  0  0  0  0
  -38.6070  -69.1680   49.9840 C   0  0  0  0  0  0  0  0  0  0  0  0
  -38.1790  -68.7020   48.6200 C   0  0  0  0  0  0  0  0  0  0  0  0
  -37.2310  -67.5160   48.6890 C   0  0  0  0  0  0  0  0  0  0  0  0
  -36.4290  -67.7720   49.9760 C   0  0  0  0  0  0  0  0  0  0  0  0
  -37.2640  -67.4830   51.1780 C   0  0  0  0  0  0  0  0  0  0  0  0
  -37.8420  -66.2770   48.7770 N   0  0  0  0  0  0  0  0  0  0  0  0
  -38.8200  -65.8570   47.8500 C   0  0  0  0  0  0  0  0  0  0  0  0
  -39.8020  -64.9460   48.6060 C   0  0  0  0  0  0  0  0  0  0  0  0
  -39.0830  -64.3820   49.8020 C   0  0  0  0  0  0  0  0  0  0  0  0
  -37.6530  -64.0160   49.4970 C   0  0  0  0  0  0  0  0  0  0  0  0
  -36.9010  -65.1990   48.9090 C   0  0  0  0  0  0  0  0  0  0  0  0
  -36.2600  -67.6490   47.5790 C   0  0  0  0  0  0  0  0  0  0  0  0
  -35.0330  -67.9110   47.8140 O   0  0  0  0  0  0  0  0  0  0  0  0
  -36.6060  -67.5010   46.2310 N   0  0  0  0  0  0  0  0  0  0  0  0
  -41.1630  -68.6000   55.0710 N   0  0  0  0  0  0  0  0  0  0  0  0
  -44.4920  -66.0220   53.2130 C   0  0  0  0  0  0  0  0  0  0  0  0
  -45.7500  -66.5880   53.1860 C   0  0  0  0  0  0  0  0  0  0  0  0
  -46.6800  -66.0610   52.3150 C   0  0  0  0  0  0  0  0  0  0  0  0
  -46.3740  -64.9910   51.4810 C   0  0  0  0  0  0  0  0  0  0  0  0
  -45.1070  -64.4520   51.5380 C   0  0  0  0  0  0  0  0  0  0  0  0
  -44.1540  -64.9580   52.3990 C   0  0  0  0  0  0  0  0  0  0  0  0
  -44.7010  -63.0910   50.4840 Cl  0  0  0  0  0  0  0  0  0  0  0  0
  -46.0140  -67.6400   54.0200 O   0  0  0  0  0  0  0  0  0  0  0  0
  -47.2900  -68.0970   54.3710 C   0  0  0  0  0  0  0  0  0  0  0  0
  -42.3620  -65.8310   51.7350 H   0  0  0  0  0  0  0  0  0  0  0  0
  -37.9430  -70.0050   50.3600 H   0  0  0  0  0  0  0  0  0  0  0  0
  -39.6180  -69.6420   49.9390 H   0  0  0  0  0  0  0  0  0  0  0  0
  -37.5860  -69.5370   48.1850 H   0  0  0  0  0  0  0  0  0  0  0  0
  -39.0160  -68.5310   47.9230 H   0  0  0  0  0  0  0  0  0  0  0  0
  -35.4300  -67.3400   49.9570 H   0  0  0  0  0  0  0  0  0  0  0  0
  -36.2460  -68.8950   50.0040 H   0  0  0  0  0  0  0  0  0  0  0  0
  -37.4170  -66.4230   51.4160 H   0  0  0  0  0  0  0  0  0  0  0  0
  -36.8110  -67.9850   52.0910 H   0  0  0  0  0  0  0  0  0  0  0  0
  -38.3740  -65.1530   47.0840 H   0  0  0  0  0  0  0  0  0  0  0  0
  -39.4200  -66.6130   47.3670 H   0  0  0  0  0  0  0  0  0  0  0  0
  -40.1920  -64.1420   47.9420 H   0  0  0  0  0  0  0  0  0  0  0  0
  -40.6620  -65.5890   48.9560 H   0  0  0  0  0  0  0  0  0  0  0  0
  -39.0620  -65.1550   50.6180 H   0  0  0  0  0  0  0  0  0  0  0  0
  -39.5690  -63.4510   50.1800 H   0  0  0  0  0  0  0  0  0  0  0  0
  -37.1890  -63.6900   50.4630 H   0  0  0  0  0  0  0  0  0  0  0  0
  -37.6420  -63.1240   48.8480 H   0  0  0  0  0  0  0  0  0  0  0  0
  -35.9720  -65.4090   49.4180 H   0  0  0  0  0  0  0  0  0  0  0  0
  -36.6580  -64.8650   47.8530 H   0  0  0  0  0  0  0  0  0  0  0  0
  -36.8580  -68.3680   45.6830 H   0  0  0  0  0  0  0  0  0  0  0  0
  -36.6510  -66.6120   45.6940 H   0  0  0  0  0  0  0  0  0  0  0  0
  -40.9580  -69.5930   55.3040 H   0  0  0  0  0  0  0  0  0  0  0  0
  -41.5540  -68.0040   55.8300 H   0  0  0  0  0  0  0  0  0  0  0  0
  -47.6830  -66.4780   52.2620 H   0  0  0  0  0  0  0  0  0  0  0  0
  -47.1300  -64.6140   50.8210 H   0  0  0  0  0  0  0  0  0  0  0  0
  -43.1470  -64.5150   52.4310 H   0  0  0  0  0  0  0  0  0  0  0  0
  -47.7040  -68.6900   53.5390 H   0  0  0  0  0  0  0  0  0  0  0  0
  -47.1790  -68.8070   55.2330 H   0  0  0  0  0  0  0  0  0  0  0  0
  -47.9730  -67.3060   54.7190 H   0  0  0  0  0  0  0  0  0  0  0  0
  1  2  2  0  0  0  0
  1  3  2  0  0  0  0
  4  5  2  0  0  0  0
  4  1  1  0  0  0  0
  5 25  1  0  0  0  0
  6  5  1  0  0  0  0
  7  6  2  0  0  0  0
  8  7  1  0  0  0  0
  8  9  2  0  0  0  0
  9  4  1  0  0  0  0
 10 15  1  0  0  0  0
 10  7  1  0  0  0  0
 11 36  1  0  0  0  0
 11 10  1  0  0  0  0
 12 13  1  0  0  0  0
 12 11  1  0  0  0  0
 13 16  1  0  0  0  0
 13 14  1  0  0  0  0
 14 41  1  0  0  0  0
 14 15  1  0  0  0  0
 15 42  1  0  0  0  0
 15 43  1  0  0  0  0
 16 21  1  0  0  0  0
 17 18  1  0  0  0  0
 17 16  1  0  0  0  0
 18 47  1  0  0  0  0
 18 19  1  0  0  0  0
 19 49  1  0  0  0  0
 19 48  1  0  0  0  0
 20 19  1  0  0  0  0
 20 50  1  0  0  0  0
 21 52  1  0  0  0  0
 21 20  1  0  0  0  0
 22 23  2  0  0  0  0
 22 13  1  0  0  0  0
 24 22  1  0  0  0  0
 25 56  1  0  0  0  0
 25 57  1  0  0  0  0
 26  1  1  0  0  0  0
 27 26  1  0  0  0  0
 27 33  1  0  0  0  0
 28 27  2  0  0  0  0
 29 30  2  0  0  0  0
 29 28  1  0  0  0  0
 30 31  1  0  0  0  0
 31 60  1  0  0  0  0
 31 26  2  0  0  0  0
 32 30  1  0  0  0  0
 33 34  1  0  0  0  0
 34 63  1  0  0  0  0
 34 62  1  0  0  0  0
 35  9  1  0  0  0  0
 37 11  1  0  0  0  0
 38 12  1  0  0  0  0
 39 12  1  0  0  0  0
 40 14  1  0  0  0  0
 44 17  1  0  0  0  0
 45 17  1  0  0  0  0
 46 18  1  0  0  0  0
 51 20  1  0  0  0  0
 53 21  1  0  0  0  0
 54 24  1  0  0  0  0
 55 24  1  0  0  0  0
 58 28  1  0  0  0  0
 59 29  1  0  0  0  0
 61 34  1  0  0  0  0
M  END
>  <Pose>
1

>  <Score>
-6.50

$$$$
