
 OpenBabel03202209423D

 32 35  0  0  1  0  0  0  0  0999 V2000
  -35.9850  -67.7550   46.1970 Cl  0  0  0  0  0  0  0  0  0  0  0  0
  -36.4390  -66.6040   47.4570 C   0  0  0  0  0  0  0  0  0  0  0  0
  -37.7510  -66.2820   47.7020 C   0  0  0  0  0  0  0  0  0  0  0  0
  -38.0860  -65.3650   48.7100 C   0  0  0  0  0  0  0  0  0  0  0  0
  -37.1260  -64.7650   49.4750 C   0  0  0  0  0  0  0  0  0  0  0  0
  -35.7790  -65.0900   49.2300 C   0  0  0  0  0  0  0  0  0  0  0  0
  -35.4870  -65.9910   48.2370 C   0  0  0  0  0  0  0  0  0  0  0  0
  -37.6810  -63.8760   50.4310 N   0  0  0  0  0  0  0  0  0  0  0  0
  -39.0860  -63.9210   50.2520 C   0  0  0  0  0  0  0  0  0  0  0  0
  -39.9050  -63.2460   50.9410 O   0  0  0  0  0  0  0  0  0  0  0  0
  -39.4080  -64.8630   49.1580 C   0  0  1  0  0  0  0  0  0  0  0  0
  -40.0920  -64.0560   48.0750 C   0  0  0  0  0  0  0  0  0  0  0  0
  -41.4450  -63.7200   48.6330 C   0  0  0  0  0  0  0  0  0  0  0  0
  -41.8860  -62.5580   48.6990 O   0  0  0  0  0  0  0  0  0  0  0  0
  -42.2270  -64.8250   49.1010 N   0  0  0  0  0  0  0  0  0  0  0  0
  -41.5720  -65.9830   49.6020 C   0  0  0  0  0  0  0  0  0  0  0  0
  -42.0290  -67.1650   50.0970 N   0  0  0  0  0  0  0  0  0  0  0  0
  -40.9940  -67.9030   50.4180 N   0  0  0  0  0  0  0  0  0  0  0  0
  -39.8450  -67.2600   50.1570 C   0  0  0  0  0  0  0  0  0  0  0  0
  -40.2010  -66.0130   49.6290 C   0  0  0  0  0  0  0  0  0  0  0  0
  -36.9290  -63.0760   51.4040 C   0  0  0  0  0  0  0  0  0  0  0  0
  -38.5280  -66.7240   47.1330 H   0  0  0  0  0  0  0  0  0  0  0  0
  -35.0220  -64.6130   49.8390 H   0  0  0  0  0  0  0  0  0  0  0  0
  -34.4380  -66.2360   48.0560 H   0  0  0  0  0  0  0  0  0  0  0  0
  -40.1720  -64.5780   47.1200 H   0  0  0  0  0  0  0  0  0  0  0  0
  -39.5470  -63.0940   48.0060 H   0  0  0  0  0  0  0  0  0  0  0  0
  -43.2700  -64.7950   49.0780 H   0  0  0  0  0  0  0  0  0  0  0  0
  -43.0480  -67.3900   50.1820 H   0  0  0  0  0  0  0  0  0  0  0  0
  -38.8270  -67.5740   50.2990 H   0  0  0  0  0  0  0  0  0  0  0  0
  -37.6570  -62.3990   51.8950 H   0  0  0  0  0  0  0  0  0  0  0  0
  -36.3730  -63.6990   52.1110 H   0  0  0  0  0  0  0  0  0  0  0  0
  -36.1660  -62.4350   50.8800 H   0  0  0  0  0  0  0  0  0  0  0  0
  1  2  1  0  0  0  0
  2  3  2  0  0  0  0
  2  7  1  0  0  0  0
  3  4  1  0  0  0  0
  4  5  2  0  0  0  0
  5  8  1  0  0  0  0
  6  5  1  0  0  0  0
  6 23  1  0  0  0  0
  7  6  2  0  0  0  0
  8 21  1  0  0  0  0
  9  8  1  0  0  0  0
  9 10  2  0  0  0  0
 11  4  1  6  0  0  0
 11 20  1  0  0  0  0
 11  9  1  0  0  0  0
 12 13  1  0  0  0  0
 12 11  1  0  0  0  0
 13 14  2  0  0  0  0
 13 15  1  0  0  0  0
 15 16  1  0  0  0  0
 16 20  2  0  0  0  0
 16 17  1  0  0  0  0
 17 28  1  0  0  0  0
 17 18  1  0  0  0  0
 19 29  1  0  0  0  0
 19 18  2  0  0  0  0
 20 19  1  0  0  0  0
 21 30  1  0  0  0  0
 21 31  1  0  0  0  0
 22  3  1  0  0  0  0
 24  7  1  0  0  0  0
 25 12  1  0  0  0  0
 26 12  1  0  0  0  0
 27 15  1  0  0  0  0
 32 21  1  0  0  0  0
M  END
>  <Pose>
1

>  <Score>
-4.36

$$$$
