
 OpenBabel03202209423D

 61 64  0  0  1  0  0  0  0  0999 V2000
  -34.4450  -66.6470   44.9130 Cl  0  0  0  0  0  0  0  0  0  0  0  0
  -35.4320  -66.2800   46.3340 C   0  0  0  0  0  0  0  0  0  0  0  0
  -35.4840  -64.9950   46.8290 C   0  0  0  0  0  0  0  0  0  0  0  0
  -36.2440  -64.7170   47.9180 C   0  0  0  0  0  0  0  0  0  0  0  0
  -36.9800  -65.7300   48.5470 C   0  0  0  0  0  0  0  0  0  0  0  0
  -36.9140  -67.0040   48.0360 C   0  0  0  0  0  0  0  0  0  0  0  0
  -36.1410  -67.3060   46.9220 C   0  0  0  0  0  0  0  0  0  0  0  0
  -37.7820  -65.4450   49.6890 N   0  0  0  0  0  0  0  0  0  0  0  0
  -38.3000  -64.0970   49.8670 C   0  0  2  0  0  0  0  0  0  0  0  0
  -37.1860  -63.2020   49.6580 N   0  0  0  0  0  0  0  0  0  0  0  0
  -36.3650  -63.3900   48.5180 C   0  0  0  0  0  0  0  0  0  0  0  0
  -35.7160  -62.4580   47.9770 O   0  0  0  0  0  0  0  0  0  0  0  0
  -38.8130  -63.9670   51.2620 C   0  0  0  0  0  0  0  0  0  0  0  0
  -40.2480  -64.4140   51.4180 C   0  0  0  0  0  0  0  0  0  0  0  0
  -40.4890  -65.6970   50.7920 N   0  0  0  0  0  0  0  0  0  0  0  0
  -40.3120  -65.9290   49.3720 C   0  0  0  0  0  0  0  0  0  0  0  0
  -40.4220  -67.1220   49.0090 O   0  0  0  0  0  0  0  0  0  0  0  0
  -40.0220  -64.9780   48.2860 C   0  0  0  0  0  0  0  0  0  0  0  0
  -39.3220  -63.7560   48.8010 C   0  0  0  0  0  0  0  0  0  0  0  0
  -40.8910  -66.8120   51.5490 C   0  0  0  0  0  0  0  0  0  0  0  0
  -41.8190  -66.7020   52.6520 C   0  0  0  0  0  0  0  0  0  0  0  0
  -41.7350  -67.7620   53.4560 O   0  0  0  0  0  0  0  0  0  0  0  0
  -42.7240  -65.7180   52.9800 N   0  0  0  0  0  0  0  0  0  0  0  0
  -43.2270  -64.8290   51.9000 C   0  0  0  0  0  0  0  0  0  0  0  0
  -44.7420  -64.7640   52.1480 C   0  0  0  0  0  0  0  0  0  0  0  0
  -45.1930  -65.8780   52.9130 N   0  0  0  0  0  0  0  0  0  0  0  0
  -44.7530  -65.9190   54.2760 C   0  0  0  0  0  0  0  0  0  0  0  0
  -43.2720  -65.4450   54.2500 C   0  0  0  0  0  0  0  0  0  0  0  0
  -46.5450  -66.2730   52.7100 C   0  0  0  0  0  0  0  0  0  0  0  0
  -46.9470  -67.5020   53.4990 C   0  0  0  0  0  0  0  0  0  0  0  0
  -47.5390  -65.1740   52.9700 C   0  0  0  0  0  0  0  0  0  0  0  0
  -34.9320  -64.1810   46.3770 H   0  0  0  0  0  0  0  0  0  0  0  0
  -37.4950  -67.7890   48.5390 H   0  0  0  0  0  0  0  0  0  0  0  0
  -36.0970  -68.3110   46.5310 H   0  0  0  0  0  0  0  0  0  0  0  0
  -37.9580  -66.2290   50.3510 H   0  0  0  0  0  0  0  0  0  0  0  0
  -36.9540  -62.4210   50.3040 H   0  0  0  0  0  0  0  0  0  0  0  0
  -38.8080  -62.8670   51.5110 H   0  0  0  0  0  0  0  0  0  0  0  0
  -38.1170  -64.4720   51.9390 H   0  0  0  0  0  0  0  0  0  0  0  0
  -40.5290  -64.3880   52.4690 H   0  0  0  0  0  0  0  0  0  0  0  0
  -40.8660  -63.6610   50.8920 H   0  0  0  0  0  0  0  0  0  0  0  0
  -39.3700  -65.4760   47.5250 H   0  0  0  0  0  0  0  0  0  0  0  0
  -40.9720  -64.6390   47.7770 H   0  0  0  0  0  0  0  0  0  0  0  0
  -40.0280  -62.9840   49.1670 H   0  0  0  0  0  0  0  0  0  0  0  0
  -38.8190  -63.2720   47.9100 H   0  0  0  0  0  0  0  0  0  0  0  0
  -39.9800  -67.3740   51.9800 H   0  0  0  0  0  0  0  0  0  0  0  0
  -41.2790  -67.5910   50.8240 H   0  0  0  0  0  0  0  0  0  0  0  0
  -42.7800  -63.8220   52.0240 H   0  0  0  0  0  0  0  0  0  0  0  0
  -42.9700  -65.2310   50.9220 H   0  0  0  0  0  0  0  0  0  0  0  0
  -44.9930  -63.7720   52.5890 H   0  0  0  0  0  0  0  0  0  0  0  0
  -45.2110  -64.8270   51.1450 H   0  0  0  0  0  0  0  0  0  0  0  0
  -44.7030  -66.9760   54.6040 H   0  0  0  0  0  0  0  0  0  0  0  0
  -45.3350  -65.3190   54.9780 H   0  0  0  0  0  0  0  0  0  0  0  0
  -42.7560  -65.7650   55.1410 H   0  0  0  0  0  0  0  0  0  0  0  0
  -43.2990  -64.2990   54.3520 H   0  0  0  0  0  0  0  0  0  0  0  0
  -46.6540  -66.5500   51.6340 H   0  0  0  0  0  0  0  0  0  0  0  0
  -46.2950  -68.3450   53.1720 H   0  0  0  0  0  0  0  0  0  0  0  0
  -46.9140  -67.3200   54.5720 H   0  0  0  0  0  0  0  0  0  0  0  0
  -47.9790  -67.7690   53.1670 H   0  0  0  0  0  0  0  0  0  0  0  0
  -47.6950  -64.9780   54.0430 H   0  0  0  0  0  0  0  0  0  0  0  0
  -47.1720  -64.2540   52.4260 H   0  0  0  0  0  0  0  0  0  0  0  0
  -48.4990  -65.4940   52.5070 H   0  0  0  0  0  0  0  0  0  0  0  0
  1  2  1  0  0  0  0
  2  3  2  0  0  0  0
  2  7  1  0  0  0  0
  3  4  1  0  0  0  0
  4 11  1  0  0  0  0
  4  5  2  0  0  0  0
  5  8  1  0  0  0  0
  6 33  1  0  0  0  0
  6  5  1  0  0  0  0
  7  6  2  0  0  0  0
  8  9  1  0  0  0  0
  8 35  1  0  0  0  0
  9 19  1  6  0  0  0
  9 13  1  0  0  0  0
 10  9  1  0  0  0  0
 10 36  1  0  0  0  0
 11 10  1  0  0  0  0
 12 11  2  0  0  0  0
 13 14  1  0  0  0  0
 13 37  1  0  0  0  0
 13 38  1  0  0  0  0
 14 39  1  0  0  0  0
 15 14  1  0  0  0  0
 15 20  1  0  0  0  0
 16 15  1  0  0  0  0
 17 16  2  0  0  0  0
 18 19  1  0  0  0  0
 18 16  1  0  0  0  0
 19 43  1  0  0  0  0
 20 45  1  0  0  0  0
 20 21  1  0  0  0  0
 21 23  1  0  0  0  0
 21 22  2  0  0  0  0
 23 28  1  0  0  0  0
 24 47  1  0  0  0  0
 24 25  1  0  0  0  0
 24 23  1  0  0  0  0
 25 49  1  0  0  0  0
 25 26  1  0  0  0  0
 26 27  1  0  0  0  0
 27 51  1  0  0  0  0
 27 52  1  0  0  0  0
 28 27  1  0  0  0  0
 28 54  1  0  0  0  0
 28 53  1  0  0  0  0
 29 26  1  0  0  0  0
 29 31  1  0  0  0  0
 29 30  1  0  0  0  0
 30 57  1  0  0  0  0
 31 59  1  0  0  0  0
 32  3  1  0  0  0  0
 34  7  1  0  0  0  0
 40 14  1  0  0  0  0
 41 18  1  0  0  0  0
 42 18  1  0  0  0  0
 44 19  1  0  0  0  0
 46 20  1  0  0  0  0
 48 24  1  0  0  0  0
 50 25  1  0  0  0  0
 55 29  1  0  0  0  0
 56 30  1  0  0  0  0
 58 30  1  0  0  0  0
 60 31  1  0  0  0  0
 61 31  1  0  0  0  0
M  END
>  <Pose>
1

>  <Score>
-5.41

$$$$
