
 OpenBabel03202209423D

 54 58  0  0  1  0  0  0  0  0999 V2000
  -42.6940  -65.5720   52.8250 S   0  0  0  0  0  0  0  0  0  0  0  0
  -43.1390  -64.7920   54.0560 O   0  0  0  0  0  0  0  0  0  0  0  0
  -44.0060  -66.0520   52.2040 O   0  0  0  0  0  0  0  0  0  0  0  0
  -41.9910  -64.4870   51.7530 N   0  0  0  0  0  0  0  0  0  0  0  0
  -40.5670  -64.3070   51.8560 C   0  0  0  0  0  0  0  0  0  0  0  0
  -39.9010  -64.3410   50.4990 C   0  0  0  0  0  0  0  0  0  0  0  0
  -40.2630  -65.5920   49.7870 N   0  0  0  0  0  0  0  0  0  0  0  0
  -41.6980  -65.5560   49.5440 C   0  0  0  0  0  0  0  0  0  0  0  0
  -42.4210  -64.5220   50.3890 C   0  0  0  0  0  0  0  0  0  0  0  0
  -39.5570  -65.4880   48.5290 C   0  0  0  0  0  0  0  0  0  0  0  0
  -38.3060  -66.2440   48.3770 C   0  0  0  0  0  0  0  0  0  0  0  0
  -37.0550  -65.5690   48.4630 N   0  0  0  0  0  0  0  0  0  0  0  0
  -36.5300  -64.4850   47.7050 C   0  0  0  0  0  0  0  0  0  0  0  0
  -36.8640  -64.1920   46.5480 O   0  0  0  0  0  0  0  0  0  0  0  0
  -35.5230  -63.7720   48.5260 C   0  0  1  0  0  0  0  0  0  0  0  0
  -35.0030  -64.9350   49.4010 C   0  0  2  0  0  0  0  0  0  0  0  0
  -33.7460  -65.3850   48.7590 C   0  0  1  0  0  0  0  0  0  0  0  0
  -33.9380  -64.9170   47.3060 C   0  0  0  0  0  0  0  0  0  0  0  0
  -34.3100  -63.4820   47.7160 C   0  0  2  0  0  0  0  0  0  0  0  0
  -33.1950  -63.2190   48.6870 C   0  0  0  0  0  0  0  0  0  0  0  0
  -32.6880  -64.3680   49.1340 C   0  0  0  0  0  0  0  0  0  0  0  0
  -36.0810  -65.9110   49.4730 C   0  0  0  0  0  0  0  0  0  0  0  0
  -36.1230  -66.8700   50.2840 O   0  0  0  0  0  0  0  0  0  0  0  0
  -41.7880  -66.9700   53.2450 C   0  0  0  0  0  0  0  0  0  0  0  0
  -40.7480  -67.3980   52.4560 C   0  0  0  0  0  0  0  0  0  0  0  0
  -40.0340  -68.5220   52.8310 C   0  0  0  0  0  0  0  0  0  0  0  0
  -40.3270  -69.2390   53.9770 C   0  0  0  0  0  0  0  0  0  0  0  0
  -41.3720  -68.8060   54.7660 C   0  0  0  0  0  0  0  0  0  0  0  0
  -42.0880  -67.6760   54.3880 C   0  0  0  0  0  0  0  0  0  0  0  0
  -39.3460  -70.7900   54.4950 B   0  0  0  0  0  0  0  0  0  0  0  0
  -40.3920  -63.2820   52.2590 H   0  0  0  0  0  0  0  0  0  0  0  0
  -40.1260  -65.0190   52.5520 H   0  0  0  0  0  0  0  0  0  0  0  0
  -38.8070  -64.3800   50.6450 H   0  0  0  0  0  0  0  0  0  0  0  0
  -40.1380  -63.4680   49.8630 H   0  0  0  0  0  0  0  0  0  0  0  0
  -42.1280  -66.5220   49.8580 H   0  0  0  0  0  0  0  0  0  0  0  0
  -41.8500  -65.3750   48.4650 H   0  0  0  0  0  0  0  0  0  0  0  0
  -43.5030  -64.6330   50.3410 H   0  0  0  0  0  0  0  0  0  0  0  0
  -42.1750  -63.5280   49.9500 H   0  0  0  0  0  0  0  0  0  0  0  0
  -39.2900  -64.3960   48.3520 H   0  0  0  0  0  0  0  0  0  0  0  0
  -40.2920  -65.6770   47.6830 H   0  0  0  0  0  0  0  0  0  0  0  0
  -38.3120  -67.0320   49.2020 H   0  0  0  0  0  0  0  0  0  0  0  0
  -38.3910  -66.8520   47.4330 H   0  0  0  0  0  0  0  0  0  0  0  0
  -35.9260  -62.9520   49.1130 H   0  0  0  0  0  0  0  0  0  0  0  0
  -34.7310  -64.5280   50.4180 H   0  0  0  0  0  0  0  0  0  0  0  0
  -33.4530  -66.4040   48.8550 H   0  0  0  0  0  0  0  0  0  0  0  0
  -33.0030  -64.9340   46.7350 H   0  0  0  0  0  0  0  0  0  0  0  0
  -34.7920  -65.3740   46.8150 H   0  0  0  0  0  0  0  0  0  0  0  0
  -34.3830  -62.7910   46.9110 H   0  0  0  0  0  0  0  0  0  0  0  0
  -32.8180  -62.2560   49.0120 H   0  0  0  0  0  0  0  0  0  0  0  0
  -31.7550  -64.5310   49.6390 H   0  0  0  0  0  0  0  0  0  0  0  0
  -40.4680  -66.8660   51.5330 H   0  0  0  0  0  0  0  0  0  0  0  0
  -39.2100  -68.8590   52.2040 H   0  0  0  0  0  0  0  0  0  0  0  0
  -41.5900  -69.3750   55.6560 H   0  0  0  0  0  0  0  0  0  0  0  0
  -42.8870  -67.4050   55.0640 H   0  0  0  0  0  0  0  0  0  0  0  0
  1 24  1  0  0  0  0
  1  2  2  0  0  0  0
  3  1  2  0  0  0  0
  4  5  1  0  0  0  0
  4  1  1  0  0  0  0
  5 31  1  0  0  0  0
  5 32  1  0  0  0  0
  6 33  1  0  0  0  0
  6  5  1  0  0  0  0
  7  6  1  0  0  0  0
  8  7  1  0  0  0  0
  8 35  1  0  0  0  0
  8  9  1  0  0  0  0
  9  4  1  0  0  0  0
 10  7  1  0  0  0  0
 11 12  1  0  0  0  0
 11 10  1  0  0  0  0
 11 41  1  0  0  0  0
 12 22  1  0  0  0  0
 13 12  1  0  0  0  0
 13 15  1  0  0  0  0
 14 13  2  0  0  0  0
 15 43  1  1  0  0  0
 15 16  1  0  0  0  0
 16 22  1  0  0  0  0
 16 44  1  1  0  0  0
 17 45  1  1  0  0  0
 17 21  1  0  0  0  0
 17 16  1  0  0  0  0
 18 19  1  0  0  0  0
 18 17  1  0  0  0  0
 19 48  1  6  0  0  0
 19 15  1  0  0  0  0
 19 20  1  0  0  0  0
 20 49  1  0  0  0  0
 20 21  1  0  0  0  0
 21 50  1  0  0  0  0
 22 23  2  0  0  0  0
 24 29  1  0  0  0  0
 25 26  1  0  0  0  0
 25 24  2  0  0  0  0
 26 27  2  0  0  0  0
 27 30  1  0  0  0  0
 27 28  1  0  0  0  0
 28 53  1  0  0  0  0
 29 28  2  0  0  0  0
 29 54  1  0  0  0  0
 34  6  1  0  0  0  0
 36  8  1  0  0  0  0
 37  9  1  0  0  0  0
 38  9  1  0  0  0  0
 39 10  1  0  0  0  0
 40 10  1  0  0  0  0
 42 11  1  0  0  0  0
 46 18  1  0  0  0  0
 47 18  1  0  0  0  0
 51 25  1  0  0  0  0
 52 26  1  0  0  0  0
M  END
>  <Pose>
1

>  <Score>
-6.23

$$$$
