
 OpenBabel03202209423D

 37 40  0  0  0  0  0  0  0  0999 V2000
  -40.5740  -66.8780   49.7260 B   0  0  0  0  0  0  0  0  0  0  0  0
  -41.1080  -67.1860   51.5360 C   0  0  0  0  0  0  0  0  0  0  0  0
  -40.4650  -68.1320   52.3050 C   0  0  0  0  0  0  0  0  0  0  0  0
  -40.8340  -68.3690   53.6090 C   0  0  0  0  0  0  0  0  0  0  0  0
  -40.3960  -69.2110   54.5760 N   0  0  0  0  0  0  0  0  0  0  0  0
  -41.1340  -68.9990   55.6500 N   0  0  0  0  0  0  0  0  0  0  0  0
  -42.0270  -68.0710   55.4420 N   0  0  0  0  0  0  0  0  0  0  0  0
  -41.8660  -67.6490   54.1590 C   0  0  0  0  0  0  0  0  0  0  0  0
  -42.5160  -66.6980   53.3920 C   0  0  0  0  0  0  0  0  0  0  0  0
  -42.1390  -66.4640   52.0780 C   0  0  0  0  0  0  0  0  0  0  0  0
  -43.6090  -65.9470   54.0000 C   0  0  0  0  0  0  0  0  0  0  0  0
  -43.5700  -64.7020   53.9650 O   0  0  0  0  0  0  0  0  0  0  0  0
  -44.7100  -66.5790   54.6310 N   0  0  0  0  0  0  0  0  0  0  0  0
  -45.8960  -66.9330   53.8900 C   0  0  0  0  0  0  0  0  0  0  0  0
  -46.6760  -65.6810   53.5930 C   0  0  0  0  0  0  0  0  0  0  0  0
  -48.0110  -65.5350   53.6140 N   0  0  0  0  0  0  0  0  0  0  0  0
  -48.3570  -64.2690   53.2940 C   0  0  0  0  0  0  0  0  0  0  0  0
  -47.2090  -63.6190   53.0700 N   0  0  0  0  0  0  0  0  0  0  0  0
  -46.1890  -64.4720   53.2500 N   0  0  0  0  0  0  0  0  0  0  0  0
  -49.8150  -63.9670   53.2800 C   0  0  0  0  0  0  0  0  0  0  0  0
  -50.3170  -64.4070   54.6630 C   0  0  0  0  0  0  0  0  0  0  0  0
  -49.9640  -65.8240   54.9770 C   0  0  0  0  0  0  0  0  0  0  0  0
  -49.0970  -66.4440   53.9040 C   0  0  0  0  0  0  0  0  0  0  0  0
  -39.6530  -68.7010   51.8780 H   0  0  0  0  0  0  0  0  0  0  0  0
  -42.7580  -67.6620   56.0600 H   0  0  0  0  0  0  0  0  0  0  0  0
  -42.6810  -65.7070   51.5190 H   0  0  0  0  0  0  0  0  0  0  0  0
  -44.6680  -66.7920   55.6410 H   0  0  0  0  0  0  0  0  0  0  0  0
  -45.6800  -67.5150   52.9950 H   0  0  0  0  0  0  0  0  0  0  0  0
  -46.5340  -67.5490   54.5810 H   0  0  0  0  0  0  0  0  0  0  0  0
  -50.3200  -64.5170   52.4760 H   0  0  0  0  0  0  0  0  0  0  0  0
  -50.0030  -62.8650   53.2470 H   0  0  0  0  0  0  0  0  0  0  0  0
  -49.7920  -63.7460   55.3800 H   0  0  0  0  0  0  0  0  0  0  0  0
  -51.4010  -64.2120   54.7650 H   0  0  0  0  0  0  0  0  0  0  0  0
  -50.8620  -66.4600   55.1700 H   0  0  0  0  0  0  0  0  0  0  0  0
  -49.3770  -65.8650   55.9160 H   0  0  0  0  0  0  0  0  0  0  0  0
  -49.7110  -66.5230   52.9780 H   0  0  0  0  0  0  0  0  0  0  0  0
  -48.7110  -67.4280   54.1950 H   0  0  0  0  0  0  0  0  0  0  0  0
  1  2  1  0  0  0  0
  2 10  2  0  0  0  0
  2  3  1  0  0  0  0
  3  4  2  0  0  0  0
  4  8  1  0  0  0  0
  4  5  1  0  0  0  0
  5  6  2  0  0  0  0
  7  6  1  0  0  0  0
  7 25  1  0  0  0  0
  8  7  1  0  0  0  0
  9 11  1  0  0  0  0
  9  8  2  0  0  0  0
 10  9  1  0  0  0  0
 11 13  1  0  0  0  0
 12 11  2  0  0  0  0
 13 27  1  0  0  0  0
 14 29  1  0  0  0  0
 14 13  1  0  0  0  0
 15 16  1  0  0  0  0
 15 14  1  0  0  0  0
 16 23  1  0  0  0  0
 17 16  1  0  0  0  0
 18 19  1  0  0  0  0
 18 17  2  0  0  0  0
 19 15  2  0  0  0  0
 20 17  1  0  0  0  0
 20 21  1  0  0  0  0
 21 33  1  0  0  0  0
 21 22  1  0  0  0  0
 21 32  1  0  0  0  0
 22 34  1  0  0  0  0
 22 35  1  0  0  0  0
 23 37  1  0  0  0  0
 23 22  1  0  0  0  0
 24  3  1  0  0  0  0
 26 10  1  0  0  0  0
 28 14  1  0  0  0  0
 30 20  1  0  0  0  0
 31 20  1  0  0  0  0
 36 23  1  0  0  0  0
M  END
>  <Pose>
1

>  <Score>
-6.27

$$$$
