
 OpenBabel03202209423D

 40 43  0  0  0  0  0  0  0  0999 V2000
  -34.9510  -62.2060   47.9200 Cl  0  0  0  0  0  0  0  0  0  0  0  0
  -36.5930  -62.7200   48.3040 C   0  0  0  0  0  0  0  0  0  0  0  0
  -37.6870  -62.2670   47.5970 C   0  0  0  0  0  0  0  0  0  0  0  0
  -38.9500  -62.7030   47.9420 C   0  0  0  0  0  0  0  0  0  0  0  0
  -40.1920  -62.4440   47.4500 N   0  0  0  0  0  0  0  0  0  0  0  0
  -41.0970  -63.1410   48.1600 C   0  0  0  0  0  0  0  0  0  0  0  0
  -40.4790  -63.8610   49.1190 N   0  0  0  0  0  0  0  0  0  0  0  0
  -39.1700  -63.5880   48.9790 C   0  0  0  0  0  0  0  0  0  0  0  0
  -38.0850  -64.0470   49.6890 C   0  0  0  0  0  0  0  0  0  0  0  0
  -36.8260  -63.6050   49.3390 C   0  0  0  0  0  0  0  0  0  0  0  0
  -41.1310  -64.7300   50.0760 C   0  0  0  0  0  0  0  0  0  0  0  0
  -40.5590  -64.5650   51.4660 C   0  0  0  0  0  0  0  0  0  0  0  0
  -41.0870  -65.6390   52.3000 N   0  0  0  0  0  0  0  0  0  0  0  0
  -42.2710  -65.4990   52.9390 C   0  0  0  0  0  0  0  0  0  0  0  0
  -42.7980  -66.4930   53.7330 C   0  0  0  0  0  0  0  0  0  0  0  0
  -42.0660  -67.7430   53.9000 C   0  0  0  0  0  0  0  0  0  0  0  0
  -42.8100  -68.5070   54.7120 N   0  0  0  0  0  0  0  0  0  0  0  0
  -43.9290  -67.8580   55.0670 N   0  0  0  0  0  0  0  0  0  0  0  0
  -43.9390  -66.6470   54.4890 C   0  0  0  0  0  0  0  0  0  0  0  0
  -44.8580  -65.8090   54.6320 O   0  0  0  0  0  0  0  0  0  0  0  0
  -40.8590  -67.8530   53.2310 C   0  0  0  0  0  0  0  0  0  0  0  0
  -40.4350  -66.7980   52.4700 C   0  0  0  0  0  0  0  0  0  0  0  0
  -40.0980  -69.0890   53.3740 C   0  0  0  0  0  0  0  0  0  0  0  0
  -39.6160  -69.3830   54.4970 O   0  0  0  0  0  0  0  0  0  0  0  0
  -39.8940  -69.9360   52.3170 O   0  0  0  0  0  0  0  0  0  0  0  0
  -38.6020  -70.1510   51.7750 C   0  0  0  0  0  0  0  0  0  0  0  0
  -37.5240  -61.5740   46.7840 H   0  0  0  0  0  0  0  0  0  0  0  0
  -42.1480  -63.1030   47.9620 H   0  0  0  0  0  0  0  0  0  0  0  0
  -38.2640  -64.7450   50.5090 H   0  0  0  0  0  0  0  0  0  0  0  0
  -35.9670  -63.9600   49.8910 H   0  0  0  0  0  0  0  0  0  0  0  0
  -42.2250  -64.5470   50.1290 H   0  0  0  0  0  0  0  0  0  0  0  0
  -40.9920  -65.7810   49.7650 H   0  0  0  0  0  0  0  0  0  0  0  0
  -40.8480  -63.6180   51.9330 H   0  0  0  0  0  0  0  0  0  0  0  0
  -39.4600  -64.6140   51.4060 H   0  0  0  0  0  0  0  0  0  0  0  0
  -42.8240  -64.5800   52.8260 H   0  0  0  0  0  0  0  0  0  0  0  0
  -44.6500  -68.2860   55.7030 H   0  0  0  0  0  0  0  0  0  0  0  0
  -39.4770  -66.8900   51.9420 H   0  0  0  0  0  0  0  0  0  0  0  0
  -37.8650  -69.6040   52.4090 H   0  0  0  0  0  0  0  0  0  0  0  0
  -38.5520  -69.7730   50.7230 H   0  0  0  0  0  0  0  0  0  0  0  0
  -38.3230  -71.2280   51.8340 H   0  0  0  0  0  0  0  0  0  0  0  0
  1  2  1  0  0  0  0
  2 10  1  0  0  0  0
  3  4  1  0  0  0  0
  3  2  2  0  0  0  0
  4  8  2  0  0  0  0
  5  4  1  0  0  0  0
  5  6  2  0  0  0  0
  6  7  1  0  0  0  0
  7 11  1  0  0  0  0
  8  7  1  0  0  0  0
  8  9  1  0  0  0  0
  9 29  1  0  0  0  0
 10  9  2  0  0  0  0
 10 30  1  0  0  0  0
 11 31  1  0  0  0  0
 11 12  1  0  0  0  0
 12 33  1  0  0  0  0
 12 13  1  0  0  0  0
 13 22  1  0  0  0  0
 13 14  1  0  0  0  0
 14 15  1  0  0  0  0
 15 16  2  0  0  0  0
 15 19  1  0  0  0  0
 16 17  1  0  0  0  0
 17 18  1  0  0  0  0
 18 36  1  0  0  0  0
 19 20  2  0  0  0  0
 19 18  1  0  0  0  0
 21 23  1  0  0  0  0
 21 16  1  0  0  0  0
 22 21  2  0  0  0  0
 23 24  2  0  0  0  0
 25 23  1  0  0  0  0
 26 40  1  0  0  0  0
 26 25  1  0  0  0  0
 26 38  1  0  0  0  0
 27  3  1  0  0  0  0
 28  6  1  0  0  0  0
 32 11  1  0  0  0  0
 34 12  1  0  0  0  0
 35 14  1  0  0  0  0
 37 22  1  0  0  0  0
 39 26  1  0  0  0  0
M  END
>  <Pose>
1

>  <Score>
-6.54

$$$$
