
 OpenBabel03202209423D

 49 52  0  0  1  0  0  0  0  0999 V2000
  -50.5930  -62.2540   51.8610 Cl  0  0  0  0  0  0  0  0  0  0  0  0
  -49.1190  -63.1910   51.8770 C   0  0  0  0  0  0  0  0  0  0  0  0
  -48.7180  -63.8370   53.0390 C   0  0  0  0  0  0  0  0  0  0  0  0
  -47.5530  -64.5850   53.0670 C   0  0  0  0  0  0  0  0  0  0  0  0
  -46.9150  -65.3040   54.0040 N   0  0  0  0  0  0  0  0  0  0  0  0
  -45.7750  -65.8590   53.5090 C   0  0  0  0  0  0  0  0  0  0  0  0
  -45.7340  -65.4500   52.2130 N   0  0  0  0  0  0  0  0  0  0  0  0
  -46.7940  -64.6830   51.9270 C   0  0  0  0  0  0  0  0  0  0  0  0
  -47.1970  -64.0400   50.7760 C   0  0  0  0  0  0  0  0  0  0  0  0
  -48.3610  -63.2860   50.7300 C   0  0  0  0  0  0  0  0  0  0  0  0
  -44.8420  -66.7170   54.2630 C   0  0  0  0  0  0  0  0  0  0  0  0
  -43.5840  -65.9820   54.6140 C   0  0  0  0  0  0  0  0  0  0  0  0
  -42.9330  -65.4610   53.3940 C   0  0  0  0  0  0  0  0  0  0  0  0
  -42.9770  -64.2250   53.1780 O   0  0  0  0  0  0  0  0  0  0  0  0
  -42.2680  -66.2820   52.4590 N   0  0  0  0  0  0  0  0  0  0  0  0
  -42.1040  -66.1430   51.0270 C   0  0  0  0  0  0  0  0  0  0  0  0
  -40.7240  -66.5720   50.7990 C   0  0  2  0  0  0  0  0  0  0  0  0
  -40.2330  -67.2240   52.0930 C   0  0  1  0  0  0  0  0  0  0  0  0
  -41.5830  -67.5050   52.7850 C   0  0  0  0  0  0  0  0  0  0  0  0
  -39.5390  -68.3890   51.8810 O   0  0  0  0  0  0  0  0  0  0  0  0
  -39.7560  -65.6970   50.2610 N   0  0  0  0  0  0  0  0  0  0  0  0
  -38.8520  -66.2210   49.3900 C   0  0  0  0  0  0  0  0  0  0  0  0
  -37.8700  -65.4500   48.8100 C   0  0  0  0  0  0  0  0  0  0  0  0
  -37.7800  -64.1090   49.1000 C   0  0  0  0  0  0  0  0  0  0  0  0
  -36.8860  -63.3760   48.5800 O   0  0  0  0  0  0  0  0  0  0  0  0
  -38.6720  -63.5920   49.9590 N   0  0  0  0  0  0  0  0  0  0  0  0
  -39.6020  -64.3890   50.4910 C   0  0  0  0  0  0  0  0  0  0  0  0
  -40.4070  -63.8550   51.2800 O   0  0  0  0  0  0  0  0  0  0  0  0
  -36.8810  -66.0430   47.8510 C   0  0  0  0  0  0  0  0  0  0  0  0
  -49.3040  -63.7710   53.9500 H   0  0  0  0  0  0  0  0  0  0  0  0
  -47.2940  -65.3910   54.9800 H   0  0  0  0  0  0  0  0  0  0  0  0
  -46.6270  -64.0930   49.8630 H   0  0  0  0  0  0  0  0  0  0  0  0
  -48.6470  -62.7970   49.8160 H   0  0  0  0  0  0  0  0  0  0  0  0
  -44.5690  -67.5830   53.6150 H   0  0  0  0  0  0  0  0  0  0  0  0
  -45.3420  -67.0940   55.2030 H   0  0  0  0  0  0  0  0  0  0  0  0
  -43.8670  -65.0640   55.2100 H   0  0  0  0  0  0  0  0  0  0  0  0
  -42.9170  -66.5580   55.2720 H   0  0  0  0  0  0  0  0  0  0  0  0
  -42.4520  -65.1800   50.6420 H   0  0  0  0  0  0  0  0  0  0  0  0
  -42.8430  -66.8890   50.5970 H   0  0  0  0  0  0  0  0  0  0  0  0
  -40.7490  -67.4530   50.0770 H   0  0  0  0  0  0  0  0  0  0  0  0
  -39.7080  -66.5150   52.7550 H   0  0  0  0  0  0  0  0  0  0  0  0
  -41.4430  -67.6570   53.8760 H   0  0  0  0  0  0  0  0  0  0  0  0
  -42.0160  -68.3950   52.2820 H   0  0  0  0  0  0  0  0  0  0  0  0
  -38.8000  -68.4320   52.5380 H   0  0  0  0  0  0  0  0  0  0  0  0
  -38.8520  -67.2610   49.1040 H   0  0  0  0  0  0  0  0  0  0  0  0
  -38.6230  -62.5550   50.2030 H   0  0  0  0  0  0  0  0  0  0  0  0
  -37.0040  -67.1570   47.8170 H   0  0  0  0  0  0  0  0  0  0  0  0
  -36.9510  -65.5900   46.8670 H   0  0  0  0  0  0  0  0  0  0  0  0
  -35.8470  -65.8580   48.2510 H   0  0  0  0  0  0  0  0  0  0  0  0
  1  2  1  0  0  0  0
  2  3  1  0  0  0  0
  3  4  2  0  0  0  0
  3 30  1  0  0  0  0
  4  5  1  0  0  0  0
  5 31  1  0  0  0  0
  6  5  1  0  0  0  0
  6 11  1  0  0  0  0
  7  6  2  0  0  0  0
  8  7  1  0  0  0  0
  8  4  1  0  0  0  0
  9  8  2  0  0  0  0
 10  9  1  0  0  0  0
 10  2  2  0  0  0  0
 11 12  1  0  0  0  0
 11 35  1  0  0  0  0
 12 36  1  0  0  0  0
 12 37  1  0  0  0  0
 13 12  1  0  0  0  0
 14 13  2  0  0  0  0
 15 19  1  0  0  0  0
 15 13  1  0  0  0  0
 16 15  1  0  0  0  0
 17 40  1  6  0  0  0
 17 16  1  0  0  0  0
 17 18  1  0  0  0  0
 18 41  1  1  0  0  0
 18 19  1  0  0  0  0
 19 42  1  0  0  0  0
 20 18  1  0  0  0  0
 20 44  1  0  0  0  0
 21 27  1  0  0  0  0
 21 17  1  0  0  0  0
 22 21  1  0  0  0  0
 23 24  1  0  0  0  0
 23 22  2  0  0  0  0
 24 26  1  0  0  0  0
 25 24  2  0  0  0  0
 26 46  1  0  0  0  0
 26 27  1  0  0  0  0
 27 28  2  0  0  0  0
 29 49  1  0  0  0  0
 29 23  1  0  0  0  0
 32  9  1  0  0  0  0
 33 10  1  0  0  0  0
 34 11  1  0  0  0  0
 38 16  1  0  0  0  0
 39 16  1  0  0  0  0
 43 19  1  0  0  0  0
 45 22  1  0  0  0  0
 47 29  1  0  0  0  0
 48 29  1  0  0  0  0
M  END
>  <Pose>
1

>  <Score>
-6.71

$$$$
