
 OpenBabel03202209423D

 55 59  0  0  1  0  0  0  0  0999 V2000
  -52.3020  -69.4860   57.6680 Cl  0  0  0  0  0  0  0  0  0  0  0  0
  -51.2220  -69.1570   56.3190 C   0  0  0  0  0  0  0  0  0  0  0  0
  -49.9830  -68.5900   56.5080 C   0  0  0  0  0  0  0  0  0  0  0  0
  -49.1550  -68.3440   55.4120 C   0  0  0  0  0  0  0  0  0  0  0  0
  -47.9260  -67.8170   55.2830 N   0  0  0  0  0  0  0  0  0  0  0  0
  -47.5480  -67.7910   53.9930 C   0  0  0  0  0  0  0  0  0  0  0  0
  -48.5620  -68.3120   53.3040 N   0  0  0  0  0  0  0  0  0  0  0  0
  -49.5650  -68.6640   54.1350 C   0  0  0  0  0  0  0  0  0  0  0  0
  -50.8070  -69.2320   53.9470 C   0  0  0  0  0  0  0  0  0  0  0  0
  -51.6240  -69.4720   55.0510 C   0  0  0  0  0  0  0  0  0  0  0  0
  -46.2320  -67.2630   53.5030 C   0  0  0  0  0  0  0  0  0  0  0  0
  -46.1560  -65.7820   53.7970 C   0  0  0  0  0  0  0  0  0  0  0  0
  -45.9290  -65.0220   52.5580 C   0  0  0  0  0  0  0  0  0  0  0  0
  -46.8290  -64.2770   52.1250 O   0  0  0  0  0  0  0  0  0  0  0  0
  -44.7110  -65.1330   51.8680 N   0  0  0  0  0  0  0  0  0  0  0  0
  -44.1030  -66.2290   51.1840 C   0  0  0  0  0  0  0  0  0  0  0  0
  -42.6070  -66.1430   51.5700 C   0  0  1  0  0  0  0  0  0  0  0  0
  -42.4520  -64.6650   51.6490 C   0  0  2  0  0  0  0  0  0  0  0  0
  -43.7960  -64.0200   51.7070 C   0  0  0  0  0  0  0  0  0  0  0  0
  -41.7880  -64.1200   50.5500 O   0  0  0  0  0  0  0  0  0  0  0  0
  -42.4150  -66.8280   52.8170 N   0  0  0  0  0  0  0  0  0  0  0  0
  -41.5010  -67.7660   53.1150 C   0  0  0  0  0  0  0  0  0  0  0  0
  -41.6790  -68.1580   54.4570 C   0  0  0  0  0  0  0  0  0  0  0  0
  -42.7090  -67.4320   54.9210 N   0  0  0  0  0  0  0  0  0  0  0  0
  -43.1590  -66.6340   53.9560 C   0  0  0  0  0  0  0  0  0  0  0  0
  -40.8740  -69.1140   55.0350 C   0  0  0  0  0  0  0  0  0  0  0  0
  -41.0580  -69.4440   56.2370 O   0  0  0  0  0  0  0  0  0  0  0  0
  -39.9140  -69.6580   54.2780 N   0  0  0  0  0  0  0  0  0  0  0  0
  -39.7520  -69.2810   53.0090 C   0  0  0  0  0  0  0  0  0  0  0  0
  -38.8440  -69.8030   52.3100 O   0  0  0  0  0  0  0  0  0  0  0  0
  -40.5220  -68.3380   52.3850 N   0  0  0  0  0  0  0  0  0  0  0  0
  -40.2920  -67.9840   51.0200 C   0  0  0  0  0  0  0  0  0  0  0  0
  -39.0410  -70.6770   54.8650 C   0  0  0  0  0  0  0  0  0  0  0  0
  -49.6450  -68.3340   57.4970 H   0  0  0  0  0  0  0  0  0  0  0  0
  -47.3610  -67.4780   56.1070 H   0  0  0  0  0  0  0  0  0  0  0  0
  -51.1530  -69.4920   52.9590 H   0  0  0  0  0  0  0  0  0  0  0  0
  -52.6070  -69.9200   54.9090 H   0  0  0  0  0  0  0  0  0  0  0  0
  -46.1740  -67.4590   52.4170 H   0  0  0  0  0  0  0  0  0  0  0  0
  -45.3900  -67.7910   53.9970 H   0  0  0  0  0  0  0  0  0  0  0  0
  -45.4110  -65.5820   54.5800 H   0  0  0  0  0  0  0  0  0  0  0  0
  -47.1510  -65.5180   54.2610 H   0  0  0  0  0  0  0  0  0  0  0  0
  -44.1870  -65.9760   50.0820 H   0  0  0  0  0  0  0  0  0  0  0  0
  -44.5280  -67.2090   51.3120 H   0  0  0  0  0  0  0  0  0  0  0  0
  -42.1450  -66.6320   50.6890 H   0  0  0  0  0  0  0  0  0  0  0  0
  -41.9460  -64.3980   52.6230 H   0  0  0  0  0  0  0  0  0  0  0  0
  -43.8960  -63.2800   52.5280 H   0  0  0  0  0  0  0  0  0  0  0  0
  -44.0140  -63.4900   50.7340 H   0  0  0  0  0  0  0  0  0  0  0  0
  -42.2620  -64.3240   49.6960 H   0  0  0  0  0  0  0  0  0  0  0  0
  -43.9700  -65.9390   54.0150 H   0  0  0  0  0  0  0  0  0  0  0  0
  -39.6190  -67.1160   50.8690 H   0  0  0  0  0  0  0  0  0  0  0  0
  -39.6210  -68.8320   50.6160 H   0  0  0  0  0  0  0  0  0  0  0  0
  -41.1410  -68.0610   50.3360 H   0  0  0  0  0  0  0  0  0  0  0  0
  -38.0090  -70.2770   54.9800 H   0  0  0  0  0  0  0  0  0  0  0  0
  -39.4370  -70.9900   55.8480 H   0  0  0  0  0  0  0  0  0  0  0  0
  -38.9730  -71.5310   54.1640 H   0  0  0  0  0  0  0  0  0  0  0  0
  2  3  1  0  0  0  0
  2  1  1  0  0  0  0
  3 34  1  0  0  0  0
  4  3  2  0  0  0  0
  5  4  1  0  0  0  0
  5 35  1  0  0  0  0
  6  5  1  0  0  0  0
  7  6  2  0  0  0  0
  7  8  1  0  0  0  0
  8  4  1  0  0  0  0
  9  8  2  0  0  0  0
  9 10  1  0  0  0  0
 10  2  2  0  0  0  0
 11 12  1  0  0  0  0
 11  6  1  0  0  0  0
 11 39  1  0  0  0  0
 12 41  1  0  0  0  0
 12 40  1  0  0  0  0
 13 12  1  0  0  0  0
 14 13  2  0  0  0  0
 15 13  1  0  0  0  0
 16 43  1  0  0  0  0
 16 17  1  0  0  0  0
 16 15  1  0  0  0  0
 17 44  1  6  0  0  0
 17 18  1  0  0  0  0
 17 21  1  0  0  0  0
 18 19  1  0  0  0  0
 18 45  1  1  0  0  0
 19 15  1  0  0  0  0
 19 46  1  0  0  0  0
 20 18  1  0  0  0  0
 21 22  1  0  0  0  0
 21 25  1  0  0  0  0
 22 23  2  0  0  0  0
 23 24  1  0  0  0  0
 23 26  1  0  0  0  0
 25 49  1  0  0  0  0
 25 24  2  0  0  0  0
 26 27  2  0  0  0  0
 28 33  1  0  0  0  0
 28 26  1  0  0  0  0
 29 28  1  0  0  0  0
 30 29  2  0  0  0  0
 31 29  1  0  0  0  0
 31 22  1  0  0  0  0
 32 31  1  0  0  0  0
 33 53  1  0  0  0  0
 33 54  1  0  0  0  0
 36  9  1  0  0  0  0
 37 10  1  0  0  0  0
 38 11  1  0  0  0  0
 42 16  1  0  0  0  0
 47 19  1  0  0  0  0
 48 20  1  0  0  0  0
 50 32  1  0  0  0  0
 51 32  1  0  0  0  0
 52 32  1  0  0  0  0
 55 33  1  0  0  0  0
M  END
>  <Pose>
1

>  <Score>
-7.60

$$$$
