
 OpenBabel03202209423D

 50 53  0  0  1  0  0  0  0  0999 V2000
  -49.2520  -66.2650   48.3340 Cl  0  0  0  0  0  0  0  0  0  0  0  0
  -48.4900  -65.4000   49.6290 C   0  0  0  0  0  0  0  0  0  0  0  0
  -47.1180  -65.4730   49.8240 C   0  0  0  0  0  0  0  0  0  0  0  0
  -46.4970  -64.7900   50.8500 C   0  0  0  0  0  0  0  0  0  0  0  0
  -47.2760  -64.0310   51.6790 C   0  0  0  0  0  0  0  0  0  0  0  0
  -48.6610  -63.9300   51.5140 C   0  0  0  0  0  0  0  0  0  0  0  0
  -49.2470  -64.6250   50.4800 C   0  0  0  0  0  0  0  0  0  0  0  0
  -46.4650  -63.4250   52.6770 N   0  0  0  0  0  0  0  0  0  0  0  0
  -45.1220  -63.8300   52.4600 C   0  0  0  0  0  0  0  0  0  0  0  0
  -44.1850  -63.4570   53.2380 O   0  0  0  0  0  0  0  0  0  0  0  0
  -45.1030  -64.6720   51.2710 C   0  0  2  0  0  0  0  0  0  0  0  0
  -44.2600  -64.1090   50.2120 N   0  0  0  0  0  0  0  0  0  0  0  0
  -42.9400  -64.4180   50.7140 C   0  0  1  0  0  0  0  0  0  0  0  0
  -43.0260  -65.7850   51.3100 C   0  0  2  0  0  0  0  0  0  0  0  0
  -44.5010  -66.0230   51.4320 C   0  0  1  0  0  0  0  0  0  0  0  0
  -44.7510  -66.6610   52.7480 C   0  0  0  0  0  0  0  0  0  0  0  0
  -45.8930  -67.0860   53.0620 O   0  0  0  0  0  0  0  0  0  0  0  0
  -43.5260  -66.6650   53.4630 N   0  0  0  0  0  0  0  0  0  0  0  0
  -42.6130  -65.8230   52.7500 C   0  0  0  0  0  0  0  0  0  0  0  0
  -41.6370  -65.2110   53.1960 O   0  0  0  0  0  0  0  0  0  0  0  0
  -43.2460  -67.3710   54.6560 C   0  0  0  0  0  0  0  0  0  0  0  0
  -41.8980  -67.9430   54.8570 C   0  0  0  0  0  0  0  0  0  0  0  0
  -41.6250  -69.2850   54.2980 C   0  0  0  0  0  0  0  0  0  0  0  0
  -40.4400  -69.4220   53.5910 O   0  0  0  0  0  0  0  0  0  0  0  0
  -39.5460  -70.1600   54.4050 C   0  0  0  0  0  0  0  0  0  0  0  0
  -41.8770  -64.3010   49.6510 C   0  0  1  0  0  0  0  0  0  0  0  0
  -41.6310  -65.5760   49.1570 O   0  0  0  0  0  0  0  0  0  0  0  0
  -42.2780  -63.3780   48.5300 C   0  0  0  0  0  0  0  0  0  0  0  0
  -46.5010  -66.0860   49.1540 H   0  0  0  0  0  0  0  0  0  0  0  0
  -49.2720  -63.3230   52.1780 H   0  0  0  0  0  0  0  0  0  0  0  0
  -50.3280  -64.5280   50.3760 H   0  0  0  0  0  0  0  0  0  0  0  0
  -46.7990  -62.7790   53.4520 H   0  0  0  0  0  0  0  0  0  0  0  0
  -44.4290  -64.7130   49.3760 H   0  0  0  0  0  0  0  0  0  0  0  0
  -42.6590  -63.6950   51.5050 H   0  0  0  0  0  0  0  0  0  0  0  0
  -42.4820  -66.5580   50.7630 H   0  0  0  0  0  0  0  0  0  0  0  0
  -44.8830  -66.6690   50.6020 H   0  0  0  0  0  0  0  0  0  0  0  0
  -44.0320  -68.1560   54.8880 H   0  0  0  0  0  0  0  0  0  0  0  0
  -43.4040  -66.6400   55.5150 H   0  0  0  0  0  0  0  0  0  0  0  0
  -41.5440  -67.8830   55.9200 H   0  0  0  0  0  0  0  0  0  0  0  0
  -41.1790  -67.2350   54.3320 H   0  0  0  0  0  0  0  0  0  0  0  0
  -41.5900  -70.0890   55.0940 H   0  0  0  0  0  0  0  0  0  0  0  0
  -42.4790  -69.6070   53.6520 H   0  0  0  0  0  0  0  0  0  0  0  0
  -39.4320  -69.5460   55.3230 H   0  0  0  0  0  0  0  0  0  0  0  0
  -38.5390  -70.2220   53.9550 H   0  0  0  0  0  0  0  0  0  0  0  0
  -39.9520  -71.1400   54.6680 H   0  0  0  0  0  0  0  0  0  0  0  0
  -40.9650  -63.9240   50.1120 H   0  0  0  0  0  0  0  0  0  0  0  0
  -42.4370  -65.9950   48.7600 H   0  0  0  0  0  0  0  0  0  0  0  0
  -42.3130  -62.3320   48.8700 H   0  0  0  0  0  0  0  0  0  0  0  0
  -43.2100  -63.7010   48.0250 H   0  0  0  0  0  0  0  0  0  0  0  0
  -41.4760  -63.4350   47.7620 H   0  0  0  0  0  0  0  0  0  0  0  0
  1  2  1  0  0  0  0
  2  3  2  0  0  0  0
  2  7  1  0  0  0  0
  3  4  1  0  0  0  0
  4  5  2  0  0  0  0
  5  8  1  0  0  0  0
  6  5  1  0  0  0  0
  6 30  1  0  0  0  0
  7  6  2  0  0  0  0
  8 32  1  0  0  0  0
  9  8  1  0  0  0  0
  9 10  2  0  0  0  0
 11  4  1  6  0  0  0
 11 15  1  0  0  0  0
 11  9  1  0  0  0  0
 12 13  1  0  0  0  0
 12 11  1  0  0  0  0
 13 14  1  0  0  0  0
 13 34  1  1  0  0  0
 14 35  1  6  0  0  0
 14 15  1  0  0  0  0
 14 19  1  0  0  0  0
 15 36  1  6  0  0  0
 15 16  1  0  0  0  0
 16 17  2  0  0  0  0
 16 18  1  0  0  0  0
 18 21  1  0  0  0  0
 19 20  2  0  0  0  0
 19 18  1  0  0  0  0
 21 22  1  0  0  0  0
 21 37  1  0  0  0  0
 21 38  1  0  0  0  0
 22 39  1  0  0  0  0
 23 22  1  0  0  0  0
 23 41  1  0  0  0  0
 24 23  1  0  0  0  0
 24 25  1  0  0  0  0
 25 45  1  0  0  0  0
 25 43  1  0  0  0  0
 26 46  1  1  0  0  0
 26 13  1  0  0  0  0
 27 26  1  0  0  0  0
 28 48  1  0  0  0  0
 28 26  1  0  0  0  0
 29  3  1  0  0  0  0
 31  7  1  0  0  0  0
 33 12  1  0  0  0  0
 40 22  1  0  0  0  0
 42 23  1  0  0  0  0
 44 25  1  0  0  0  0
 47 27  1  0  0  0  0
 49 28  1  0  0  0  0
 50 28  1  0  0  0  0
M  END
>  <Pose>
1

>  <Score>
-5.55

$$$$
