
 OpenBabel03202209423D

 30 33  0  0  1  0  0  0  0  0999 V2000
  -41.1020  -66.2510   53.0790 F   0  0  0  0  0  0  0  0  0  0  0  0
  -42.4700  -66.3680   53.1630 C   0  0  0  0  0  0  0  0  0  0  0  0
  -43.2650  -65.4690   52.4410 C   0  0  0  0  0  0  0  0  0  0  0  0
  -44.6210  -65.5680   52.5100 C   0  0  0  0  0  0  0  0  0  0  0  0
  -45.2170  -66.5620   53.2980 C   0  0  0  0  0  0  0  0  0  0  0  0
  -44.4170  -67.4270   53.9920 C   0  0  0  0  0  0  0  0  0  0  0  0
  -43.0470  -67.3450   53.9370 C   0  0  0  0  0  0  0  0  0  0  0  0
  -42.0170  -68.4660   54.8360 Cl  0  0  0  0  0  0  0  0  0  0  0  0
  -45.2190  -64.5060   51.6590 C   0  0  2  0  0  0  0  0  0  0  0  0
  -46.0510  -63.6680   52.4630 N   0  0  0  0  0  0  0  0  0  0  0  0
  -47.4060  -63.9910   52.6910 C   0  0  0  0  0  0  0  0  0  0  0  0
  -48.1240  -63.4210   53.6930 N   0  0  0  0  0  0  0  0  0  0  0  0
  -49.4070  -63.6910   53.9530 C   0  0  0  0  0  0  0  0  0  0  0  0
  -50.0780  -64.6140   53.1580 C   0  0  0  0  0  0  0  0  0  0  0  0
  -49.4280  -65.2330   52.1280 C   0  0  0  0  0  0  0  0  0  0  0  0
  -48.1060  -64.9060   51.9180 C   0  0  0  0  0  0  0  0  0  0  0  0
  -47.3200  -65.5150   50.8400 C   0  0  0  0  0  0  0  0  0  0  0  0
  -47.9240  -66.3650   50.1020 O   0  0  0  0  0  0  0  0  0  0  0  0
  -45.9700  -65.1870   50.6190 N   0  0  0  0  0  0  0  0  0  0  0  0
  -44.0660  -63.7910   51.1000 C   0  0  0  0  0  0  0  0  0  0  0  0
  -44.0890  -62.7850   50.3000 O   0  0  0  0  0  0  0  0  0  0  0  0
  -42.8870  -64.3850   51.5810 N   0  0  0  0  0  0  0  0  0  0  0  0
  -46.3090  -66.6210   53.3350 H   0  0  0  0  0  0  0  0  0  0  0  0
  -44.8650  -68.1990   54.6030 H   0  0  0  0  0  0  0  0  0  0  0  0
  -45.6800  -62.7910   52.9040 H   0  0  0  0  0  0  0  0  0  0  0  0
  -49.9610  -63.2270   54.7550 H   0  0  0  0  0  0  0  0  0  0  0  0
  -51.1100  -64.8510   53.3430 H   0  0  0  0  0  0  0  0  0  0  0  0
  -49.8820  -65.9620   51.4650 H   0  0  0  0  0  0  0  0  0  0  0  0
  -45.5540  -65.4530   49.6960 H   0  0  0  0  0  0  0  0  0  0  0  0
  -41.8830  -64.1300   51.3850 H   0  0  0  0  0  0  0  0  0  0  0  0
  1  2  1  0  0  0  0
  2  7  1  0  0  0  0
  3  4  1  0  0  0  0
  3  2  2  0  0  0  0
  4  5  2  0  0  0  0
  5 23  1  0  0  0  0
  5  6  1  0  0  0  0
  6 24  1  0  0  0  0
  7  6  2  0  0  0  0
  7  8  1  0  0  0  0
  9 20  1  6  0  0  0
  9 10  1  0  0  0  0
  9  4  1  0  0  0  0
 10 11  1  0  0  0  0
 10 25  1  0  0  0  0
 11 12  1  0  0  0  0
 12 13  2  0  0  0  0
 13 26  1  0  0  0  0
 14 27  1  0  0  0  0
 14 13  1  0  0  0  0
 15 14  2  0  0  0  0
 16 15  1  0  0  0  0
 16 11  2  0  0  0  0
 17 16  1  0  0  0  0
 18 17  2  0  0  0  0
 19 17  1  0  0  0  0
 19  9  1  0  0  0  0
 20 22  1  0  0  0  0
 21 20  2  0  0  0  0
 22  3  1  0  0  0  0
 28 15  1  0  0  0  0
 29 19  1  0  0  0  0
 30 22  1  0  0  0  0
M  END
>  <Pose>
1

>  <Score>
-5.78

$$$$
