
 OpenBabel03202209423D

 43 46  0  0  1  0  0  0  0  0999 V2000
  -40.4920  -69.4250   55.0490 Cl  0  0  0  0  0  0  0  0  0  0  0  0
  -41.5840  -68.2320   54.3970 C   0  0  0  0  0  0  0  0  0  0  0  0
  -41.1620  -67.2640   53.5940 N   0  0  0  0  0  4  0  0  0  0  0  0
  -41.9290  -66.3130   53.0520 C   0  0  0  0  0  0  0  0  0  0  0  0
  -41.7260  -65.2660   52.2360 N   0  0  0  0  0  0  0  0  0  0  0  0
  -42.8960  -64.6410   52.0190 C   0  0  0  0  0  0  0  0  0  0  0  0
  -43.8280  -65.3200   52.7140 N   0  0  0  0  0  0  0  0  0  0  0  0
  -43.2850  -66.3570   53.3670 C   0  0  1  0  0  0  0  0  0  0  0  0
  -43.7330  -67.3560   54.1980 C   0  0  0  0  0  0  0  0  0  0  0  0
  -42.9010  -68.2760   54.7030 N   0  0  0  0  0  0  0  0  0  0  0  0
  -45.1480  -67.3670   54.4970 N   0  0  0  0  0  0  0  0  0  0  0  0
  -46.0770  -67.5830   53.4520 C   0  0  0  0  0  0  0  0  0  0  0  0
  -47.4720  -67.3160   53.7650 C   0  0  0  0  0  0  0  0  0  0  0  0
  -47.8960  -68.0050   54.8470 O   0  0  0  0  0  0  0  0  0  0  0  0
  -48.4080  -66.5140   53.1730 N   0  0  0  0  0  0  0  0  0  0  0  0
  -49.3920  -66.8660   52.2080 C   0  0  0  0  0  0  0  0  0  0  0  0
  -49.1620  -66.1540   50.8770 C   0  0  0  0  0  0  0  0  0  0  0  0
  -48.5580  -64.8970   51.2160 N   0  0  0  0  0  0  0  0  0  0  0  0
  -48.9830  -64.2550   52.4250 C   0  0  0  0  0  0  0  0  0  0  0  0
  -48.3780  -65.0580   53.5820 C   0  0  0  0  0  0  0  0  0  0  0  0
  -47.5820  -64.2830   50.4110 C   0  0  0  0  0  0  0  0  0  0  0  0
  -46.7100  -63.3610   50.9140 N   0  0  0  0  0  0  0  0  0  0  0  0
  -45.7720  -62.7480   50.2140 C   0  0  0  0  0  0  0  0  0  0  0  0
  -45.5950  -62.9960   48.8820 C   0  0  0  0  0  0  0  0  0  0  0  0
  -46.4490  -63.9240   48.3060 C   0  0  0  0  0  0  0  0  0  0  0  0
  -47.4250  -64.5560   49.0600 C   0  0  0  0  0  0  0  0  0  0  0  0
  -43.0940  -63.7580   51.4070 H   0  0  0  0  0  0  0  0  0  0  0  0
  -44.8600  -65.1100   52.7740 H   0  0  0  0  0  0  0  0  0  0  0  0
  -45.4620  -67.2080   55.4590 H   0  0  0  0  0  0  0  0  0  0  0  0
  -45.7580  -67.0570   52.4960 H   0  0  0  0  0  0  0  0  0  0  0  0
  -46.0270  -68.7080   53.2200 H   0  0  0  0  0  0  0  0  0  0  0  0
  -49.4560  -67.9220   52.0370 H   0  0  0  0  0  0  0  0  0  0  0  0
  -50.4020  -66.4740   52.6000 H   0  0  0  0  0  0  0  0  0  0  0  0
  -50.1500  -65.9490   50.3980 H   0  0  0  0  0  0  0  0  0  0  0  0
  -48.5880  -66.7940   50.2250 H   0  0  0  0  0  0  0  0  0  0  0  0
  -50.0840  -64.2940   52.5650 H   0  0  0  0  0  0  0  0  0  0  0  0
  -48.5840  -63.2300   52.4940 H   0  0  0  0  0  0  0  0  0  0  0  0
  -48.9740  -64.9300   54.4760 H   0  0  0  0  0  0  0  0  0  0  0  0
  -47.3180  -64.8360   53.7300 H   0  0  0  0  0  0  0  0  0  0  0  0
  -45.1130  -62.0170   50.7030 H   0  0  0  0  0  0  0  0  0  0  0  0
  -44.8360  -62.4960   48.3250 H   0  0  0  0  0  0  0  0  0  0  0  0
  -46.3240  -64.1400   47.2360 H   0  0  0  0  0  0  0  0  0  0  0  0
  -48.0530  -65.2570   48.5750 H   0  0  0  0  0  0  0  0  0  0  0  0
  2 10  1  0  0  0  0
  2  1  1  0  0  0  0
  3  2  2  0  0  0  0
  4  3  2  0  0  0  0
  5  4  1  0  0  0  0
  6  5  2  0  0  0  0
  6  7  1  0  0  0  0
  7 28  1  0  0  0  0
  7  8  1  0  0  0  0
  8  4  1  6  0  0  0
  8  9  1  0  0  0  0
  9 11  1  0  0  0  0
  9 10  2  0  0  0  0
 11 29  1  0  0  0  0
 12 13  1  0  0  0  0
 12 11  1  0  0  0  0
 13 14  2  0  0  0  0
 15 20  1  0  0  0  0
 15 13  1  0  0  0  0
 16 33  1  0  0  0  0
 16 15  1  0  0  0  0
 17 18  1  0  0  0  0
 17 16  1  0  0  0  0
 18 19  1  0  0  0  0
 19 37  1  0  0  0  0
 19 36  1  0  0  0  0
 19 20  1  0  0  0  0
 20 39  1  0  0  0  0
 20 38  1  0  0  0  0
 21 22  1  0  0  0  0
 21 18  1  0  0  0  0
 23 40  1  0  0  0  0
 23 22  2  0  0  0  0
 24 23  1  0  0  0  0
 25 24  2  0  0  0  0
 25 26  1  0  0  0  0
 26 21  2  0  0  0  0
 27  6  1  0  0  0  0
 30 12  1  0  0  0  0
 31 12  1  0  0  0  0
 32 16  1  0  0  0  0
 34 17  1  0  0  0  0
 35 17  1  0  0  0  0
 41 24  1  0  0  0  0
 42 25  1  0  0  0  0
 43 26  1  0  0  0  0
M  END
>  <Pose>
1

>  <Score>
-6.39

$$$$
