
 OpenBabel03202209423D

 39 42  0  0  0  0  0  0  0  0999 V2000
  -45.6050  -64.5300   51.3900 B   0  0  0  0  0  0  0  0  0  0  0  0
  -47.3480  -63.8050   51.5360 C   0  0  0  0  0  0  0  0  0  0  0  0
  -48.0940  -64.1120   52.6740 C   0  0  0  0  0  0  0  0  0  0  0  0
  -49.3560  -63.5500   52.7130 C   0  0  0  0  0  0  0  0  0  0  0  0
  -49.8510  -62.7340   51.6920 C   0  0  0  0  0  0  0  0  0  0  0  0
  -49.0690  -62.4680   50.5960 C   0  0  0  0  0  0  0  0  0  0  0  0
  -47.8050  -63.0080   50.5150 C   0  0  0  0  0  0  0  0  0  0  0  0
  -47.5560  -64.9400   53.6820 N   0  0  0  0  0  0  0  0  0  0  0  0
  -47.0930  -66.2520   53.5810 C   0  0  0  0  0  0  0  0  0  0  0  0
  -47.6040  -67.0670   52.7910 O   0  0  0  0  0  0  0  0  0  0  0  0
  -45.9640  -66.7450   54.4130 C   0  0  0  0  0  0  0  0  0  0  0  0
  -44.6770  -66.2830   53.8690 N   0  0  0  0  0  0  0  0  0  0  0  0
  -44.1260  -65.0900   54.0220 N   0  0  0  0  0  0  0  0  0  0  0  0
  -42.9620  -65.0440   53.3840 N   0  0  0  0  0  0  0  0  0  0  0  0
  -42.7550  -66.2440   52.8020 C   0  0  0  0  0  0  0  0  0  0  0  0
  -43.8330  -66.9770   53.1240 N   0  0  0  0  0  0  0  0  0  0  0  0
  -41.6080  -66.6430   52.0000 C   0  0  0  0  0  0  0  0  0  0  0  0
  -40.7760  -67.6170   52.5020 C   0  0  0  0  0  0  0  0  0  0  0  0
  -39.6840  -67.9960   51.7390 C   0  0  0  0  0  0  0  0  0  0  0  0
  -39.4150  -67.4340   50.5160 C   0  0  0  0  0  0  0  0  0  0  0  0
  -40.2490  -66.4560   50.0110 C   0  0  0  0  0  0  0  0  0  0  0  0
  -41.3400  -66.0790   50.7750 C   0  0  0  0  0  0  0  0  0  0  0  0
  -40.9890  -68.2480   53.7640 N   0  0  0  0  0  0  0  0  0  0  0  0
  -40.4680  -67.8180   54.9060 N   0  0  0  0  0  0  0  0  0  0  0  0
  -40.8560  -68.6170   55.8750 N   0  0  0  0  0  0  0  0  0  0  0  0
  -41.6280  -69.5620   55.3450 N   0  0  0  0  0  0  0  0  0  0  0  0
  -41.7110  -69.3290   54.0180 C   0  0  0  0  0  0  0  0  0  0  0  0
  -50.0140  -63.7140   53.5320 H   0  0  0  0  0  0  0  0  0  0  0  0
  -50.8350  -62.3100   51.7470 H   0  0  0  0  0  0  0  0  0  0  0  0
  -49.4050  -61.8460   49.7850 H   0  0  0  0  0  0  0  0  0  0  0  0
  -47.2160  -62.7790   49.6400 H   0  0  0  0  0  0  0  0  0  0  0  0
  -47.4970  -64.5060   54.6520 H   0  0  0  0  0  0  0  0  0  0  0  0
  -45.9550  -67.8360   54.5270 H   0  0  0  0  0  0  0  0  0  0  0  0
  -46.0000  -66.3140   55.4480 H   0  0  0  0  0  0  0  0  0  0  0  0
  -39.0210  -68.7630   52.1240 H   0  0  0  0  0  0  0  0  0  0  0  0
  -38.5600  -67.7240   49.9060 H   0  0  0  0  0  0  0  0  0  0  0  0
  -40.0520  -66.0000   49.0430 H   0  0  0  0  0  0  0  0  0  0  0  0
  -41.9780  -65.3120   50.3580 H   0  0  0  0  0  0  0  0  0  0  0  0
  -42.2560  -69.9000   53.2800 H   0  0  0  0  0  0  0  0  0  0  0  0
  1  2  1  0  0  0  0
  2  3  1  0  0  0  0
  3  4  2  0  0  0  0
  3  8  1  0  0  0  0
  4 28  1  0  0  0  0
  5 29  1  0  0  0  0
  5  4  1  0  0  0  0
  6  5  2  0  0  0  0
  7  6  1  0  0  0  0
  7  2  2  0  0  0  0
  8 32  1  0  0  0  0
  9  8  1  0  0  0  0
  9 11  1  0  0  0  0
 10  9  2  0  0  0  0
 11 33  1  0  0  0  0
 11 34  1  0  0  0  0
 12 13  1  0  0  0  0
 12 11  1  0  0  0  0
 14 13  1  0  0  0  0
 15 16  1  0  0  0  0
 15 14  2  0  0  0  0
 16 12  1  0  0  0  0
 17 18  1  0  0  0  0
 17 15  1  0  0  0  0
 18 23  1  0  0  0  0
 19 35  1  0  0  0  0
 19 18  2  0  0  0  0
 20 19  1  0  0  0  0
 21 20  2  0  0  0  0
 21 22  1  0  0  0  0
 22 17  2  0  0  0  0
 23 27  1  0  0  0  0
 23 24  1  0  0  0  0
 24 25  2  0  0  0  0
 26 25  1  0  0  0  0
 27 26  2  0  0  0  0
 30  6  1  0  0  0  0
 31  7  1  0  0  0  0
 36 20  1  0  0  0  0
 37 21  1  0  0  0  0
 38 22  1  0  0  0  0
 39 27  1  0  0  0  0
M  END
>  <Pose>
1

>  <Score>
-6.93

$$$$
