
 OpenBabel03202209423D

 54 58  0  0  1  0  0  0  0  0999 V2000
  -51.0320  -63.1740   55.4040 Cl  0  0  0  0  0  0  0  0  0  0  0  0
  -50.3470  -62.9920   53.7810 C   0  0  0  0  0  0  0  0  0  0  0  0
  -49.1690  -63.6090   53.4390 C   0  0  0  0  0  0  0  0  0  0  0  0
  -48.6470  -63.4640   52.1820 C   0  0  0  0  0  0  0  0  0  0  0  0
  -49.3130  -62.6930   51.2620 C   0  0  0  0  0  0  0  0  0  0  0  0
  -50.5110  -62.0550   51.5800 C   0  0  0  0  0  0  0  0  0  0  0  0
  -51.0100  -62.2210   52.8520 C   0  0  0  0  0  0  0  0  0  0  0  0
  -48.6220  -62.6590   50.0270 N   0  0  0  0  0  0  0  0  0  0  0  0
  -47.4590  -63.4560   50.1920 C   0  0  0  0  0  0  0  0  0  0  0  0
  -46.5900  -63.6660   49.3190 O   0  0  0  0  0  0  0  0  0  0  0  0
  -47.4190  -64.0090   51.5600 C   0  0  1  0  0  0  0  0  0  0  0  0
  -46.2260  -63.6290   52.2750 N   0  0  0  0  0  0  0  0  0  0  0  0
  -45.8340  -64.7370   53.0890 C   0  0  1  0  0  0  0  0  0  0  0  0
  -46.2320  -65.9910   52.3450 C   0  0  2  0  0  0  0  0  0  0  0  0
  -47.3820  -65.4930   51.5080 C   0  0  1  0  0  0  0  0  0  0  0  0
  -48.6020  -66.1560   52.0320 C   0  0  0  0  0  0  0  0  0  0  0  0
  -49.8050  -65.8160   51.9050 O   0  0  0  0  0  0  0  0  0  0  0  0
  -48.1380  -67.3190   52.7490 N   0  0  0  0  0  0  0  0  0  0  0  0
  -46.8070  -67.0380   53.2270 C   0  0  0  0  0  0  0  0  0  0  0  0
  -46.2210  -67.5690   54.2060 O   0  0  0  0  0  0  0  0  0  0  0  0
  -48.8620  -68.5540   52.9610 C   0  0  0  0  0  0  0  0  0  0  0  0
  -49.4200  -68.5900   54.3460 C   0  0  0  0  0  0  0  0  0  0  0  0
  -50.0680  -69.7120   54.8180 C   0  0  0  0  0  0  0  0  0  0  0  0
  -50.5760  -69.7200   56.1060 C   0  0  0  0  0  0  0  0  0  0  0  0
  -50.4550  -68.6310   56.9470 C   0  0  0  0  0  0  0  0  0  0  0  0
  -49.8100  -67.5050   56.4850 C   0  0  0  0  0  0  0  0  0  0  0  0
  -49.3090  -67.5100   55.2040 C   0  0  0  0  0  0  0  0  0  0  0  0
  -50.1900  -70.8130   53.9650 O   0  0  0  0  0  0  0  0  0  0  0  0
  -50.8150  -71.9970   54.4710 C   0  0  0  0  0  0  0  0  0  0  0  0
  -44.3520  -64.7150   53.3960 C   0  0  2  0  0  0  0  0  0  0  0  0
  -43.8530  -63.4870   52.9730 O   0  0  0  0  0  0  0  0  0  0  0  0
  -43.7090  -65.7700   52.5020 C   0  0  0  0  0  0  0  0  0  0  0  0
  -48.7040  -64.1990   54.2180 H   0  0  0  0  0  0  0  0  0  0  0  0
  -51.0410  -61.4460   50.8600 H   0  0  0  0  0  0  0  0  0  0  0  0
  -51.9450  -61.7460   53.1630 H   0  0  0  0  0  0  0  0  0  0  0  0
  -48.8820  -62.1530   49.1300 H   0  0  0  0  0  0  0  0  0  0  0  0
  -46.3920  -62.7780   52.8210 H   0  0  0  0  0  0  0  0  0  0  0  0
  -46.3690  -64.7130   54.0370 H   0  0  0  0  0  0  0  0  0  0  0  0
  -45.3970  -66.4000   51.7460 H   0  0  0  0  0  0  0  0  0  0  0  0
  -47.1610  -65.8100   50.4600 H   0  0  0  0  0  0  0  0  0  0  0  0
  -49.7080  -68.6860   52.2530 H   0  0  0  0  0  0  0  0  0  0  0  0
  -48.2110  -69.4450   52.8210 H   0  0  0  0  0  0  0  0  0  0  0  0
  -51.0830  -70.5890   56.4820 H   0  0  0  0  0  0  0  0  0  0  0  0
  -50.8440  -68.6180   57.9550 H   0  0  0  0  0  0  0  0  0  0  0  0
  -49.6830  -66.6190   57.0970 H   0  0  0  0  0  0  0  0  0  0  0  0
  -48.8130  -66.6380   54.8590 H   0  0  0  0  0  0  0  0  0  0  0  0
  -50.2260  -72.3380   55.3390 H   0  0  0  0  0  0  0  0  0  0  0  0
  -50.8300  -72.7550   53.6590 H   0  0  0  0  0  0  0  0  0  0  0  0
  -51.8420  -71.8180   54.7930 H   0  0  0  0  0  0  0  0  0  0  0  0
  -44.1340  -64.8710   54.4570 H   0  0  0  0  0  0  0  0  0  0  0  0
  -44.4400  -62.7650   53.2920 H   0  0  0  0  0  0  0  0  0  0  0  0
  -42.7610  -65.3850   52.0510 H   0  0  0  0  0  0  0  0  0  0  0  0
  -43.5540  -66.7220   53.0460 H   0  0  0  0  0  0  0  0  0  0  0  0
  -44.3680  -66.0070   51.6330 H   0  0  0  0  0  0  0  0  0  0  0  0
  2  1  1  0  0  0  0
  3  2  1  0  0  0  0
  3 33  1  0  0  0  0
  4  3  2  0  0  0  0
  5  6  2  0  0  0  0
  5  4  1  0  0  0  0
  6  7  1  0  0  0  0
  7 35  1  0  0  0  0
  7  2  2  0  0  0  0
  8  9  1  0  0  0  0
  8  5  1  0  0  0  0
 10  9  2  0  0  0  0
 11  9  1  6  0  0  0
 11  4  1  0  0  0  0
 11 12  1  0  0  0  0
 12 37  1  0  0  0  0
 12 13  1  0  0  0  0
 13 30  1  0  0  0  0
 13 38  1  1  0  0  0
 14 39  1  6  0  0  0
 14 13  1  0  0  0  0
 14 19  1  0  0  0  0
 15 40  1  6  0  0  0
 15 11  1  0  0  0  0
 15 16  1  0  0  0  0
 15 14  1  0  0  0  0
 16 18  1  0  0  0  0
 17 16  2  0  0  0  0
 18 21  1  0  0  0  0
 18 19  1  0  0  0  0
 19 20  2  0  0  0  0
 21 22  1  0  0  0  0
 22 23  2  0  0  0  0
 22 27  1  0  0  0  0
 23 24  1  0  0  0  0
 24 43  1  0  0  0  0
 24 25  2  0  0  0  0
 25 44  1  0  0  0  0
 26 25  1  0  0  0  0
 26 45  1  0  0  0  0
 27 26  2  0  0  0  0
 28 29  1  0  0  0  0
 28 23  1  0  0  0  0
 29 49  1  0  0  0  0
 29 47  1  0  0  0  0
 30 50  1  1  0  0  0
 31 51  1  0  0  0  0
 31 30  1  0  0  0  0
 32 53  1  0  0  0  0
 32 30  1  0  0  0  0
 34  6  1  0  0  0  0
 36  8  1  0  0  0  0
 41 21  1  0  0  0  0
 42 21  1  0  0  0  0
 46 27  1  0  0  0  0
 48 29  1  0  0  0  0
 52 32  1  0  0  0  0
 54 32  1  0  0  0  0
M  END
>  <Pose>
1

>  <Score>
-4.66

$$$$
