
 OpenBabel03202209423D

 53 56  0  0  0  0  0  0  0  0999 V2000
  -34.1290  -69.4090   51.7120 B   0  0  0  0  0  0  0  0  0  0  0  0
  -35.1100  -68.1890   50.6030 C   0  0  0  0  0  0  0  0  0  0  0  0
  -34.6790  -66.8670   50.4770 C   0  0  0  0  0  0  0  0  0  0  0  0
  -35.4070  -66.0010   49.6660 C   0  0  0  0  0  0  0  0  0  0  0  0
  -36.5330  -66.4090   48.9910 C   0  0  0  0  0  0  0  0  0  0  0  0
  -37.0550  -65.3740   48.2710 N   0  0  0  0  0  0  0  0  0  0  0  0
  -36.2490  -64.3310   48.5060 C   0  0  0  0  0  0  0  0  0  0  0  0
  -35.2200  -64.6700   49.3610 C   0  0  0  0  0  0  0  0  0  0  0  0
  -38.2410  -65.4450   47.4450 C   0  0  0  0  0  0  0  0  0  0  0  0
  -39.4910  -65.1990   48.2420 C   0  0  0  0  0  0  0  0  0  0  0  0
  -40.4610  -64.6550   47.6790 O   0  0  0  0  0  0  0  0  0  0  0  0
  -39.5720  -65.5720   49.5910 N   0  0  0  0  0  0  0  0  0  0  0  0
  -39.3660  -64.6480   50.6850 C   0  0  0  0  0  0  0  0  0  0  0  0
  -40.5700  -64.7750   51.6030 C   0  0  0  0  0  0  0  0  0  0  0  0
  -41.5640  -65.5960   51.0470 N   0  0  0  0  0  0  0  0  0  0  0  0
  -41.2570  -66.9120   50.6630 C   0  0  0  0  0  0  0  0  0  0  0  0
  -39.8820  -66.9480   50.0070 C   0  0  0  0  0  0  0  0  0  0  0  0
  -42.8130  -65.0490   50.7170 C   0  0  0  0  0  0  0  0  0  0  0  0
  -43.5670  -64.4950   51.8720 C   0  0  0  0  0  0  0  0  0  0  0  0
  -43.7520  -63.2520   51.8770 O   0  0  0  0  0  0  0  0  0  0  0  0
  -44.0660  -65.2740   52.9270 N   0  0  0  0  0  0  0  0  0  0  0  0
  -45.4620  -65.6630   52.9530 C   0  0  0  0  0  0  0  0  0  0  0  0
  -45.5020  -67.1700   53.1010 C   0  0  0  0  0  0  0  0  0  0  0  0
  -44.9660  -67.4350   54.3700 O   0  0  0  0  0  0  0  0  0  0  0  0
  -43.6280  -67.1290   54.4320 C   0  0  0  0  0  0  0  0  0  0  0  0
  -43.2630  -65.7400   54.0390 C   0  0  0  0  0  0  0  0  0  0  0  0
  -36.9620  -67.7100   49.1100 C   0  0  0  0  0  0  0  0  0  0  0  0
  -36.2400  -68.5820   49.9190 C   0  0  0  0  0  0  0  0  0  0  0  0
  -33.8020  -66.5700   51.0120 H   0  0  0  0  0  0  0  0  0  0  0  0
  -36.3900  -63.3440   48.0780 H   0  0  0  0  0  0  0  0  0  0  0  0
  -34.4130  -64.0680   49.7440 H   0  0  0  0  0  0  0  0  0  0  0  0
  -38.2250  -64.6900   46.6280 H   0  0  0  0  0  0  0  0  0  0  0  0
  -38.3730  -66.4570   47.0040 H   0  0  0  0  0  0  0  0  0  0  0  0
  -39.1680  -63.6270   50.3500 H   0  0  0  0  0  0  0  0  0  0  0  0
  -38.4650  -64.9500   51.2910 H   0  0  0  0  0  0  0  0  0  0  0  0
  -40.9950  -63.7310   51.6780 H   0  0  0  0  0  0  0  0  0  0  0  0
  -40.2600  -65.0200   52.6430 H   0  0  0  0  0  0  0  0  0  0  0  0
  -41.3500  -67.6810   51.4360 H   0  0  0  0  0  0  0  0  0  0  0  0
  -41.9710  -67.2210   49.8430 H   0  0  0  0  0  0  0  0  0  0  0  0
  -39.1530  -67.1910   50.8060 H   0  0  0  0  0  0  0  0  0  0  0  0
  -39.8390  -67.6100   49.1440 H   0  0  0  0  0  0  0  0  0  0  0  0
  -42.6700  -64.2810   49.9050 H   0  0  0  0  0  0  0  0  0  0  0  0
  -43.4270  -65.8550   50.2260 H   0  0  0  0  0  0  0  0  0  0  0  0
  -45.9130  -65.2550   53.9050 H   0  0  0  0  0  0  0  0  0  0  0  0
  -46.0220  -65.2910   52.0830 H   0  0  0  0  0  0  0  0  0  0  0  0
  -46.5680  -67.4980   53.1260 H   0  0  0  0  0  0  0  0  0  0  0  0
  -44.9330  -67.6370   52.2880 H   0  0  0  0  0  0  0  0  0  0  0  0
  -43.3000  -67.2820   55.4870 H   0  0  0  0  0  0  0  0  0  0  0  0
  -43.0970  -67.9080   53.8450 H   0  0  0  0  0  0  0  0  0  0  0  0
  -43.4090  -65.0640   54.9060 H   0  0  0  0  0  0  0  0  0  0  0  0
  -42.1790  -65.7180   53.8150 H   0  0  0  0  0  0  0  0  0  0  0  0
  -37.8470  -68.0720   48.5920 H   0  0  0  0  0  0  0  0  0  0  0  0
  -36.5960  -69.6010   49.9980 H   0  0  0  0  0  0  0  0  0  0  0  0
  2  1  1  0  0  0  0
  3  2  1  0  0  0  0
  3 29  1  0  0  0  0
  4  3  2  0  0  0  0
  5 27  2  0  0  0  0
  5  4  1  0  0  0  0
  6  7  1  0  0  0  0
  6  5  1  0  0  0  0
  7  8  2  0  0  0  0
  8  4  1  0  0  0  0
  8 31  1  0  0  0  0
  9 10  1  0  0  0  0
  9  6  1  0  0  0  0
 10 12  1  0  0  0  0
 11 10  2  0  0  0  0
 12 17  1  0  0  0  0
 12 13  1  0  0  0  0
 13 35  1  0  0  0  0
 13 14  1  0  0  0  0
 14 36  1  0  0  0  0
 14 37  1  0  0  0  0
 15 14  1  0  0  0  0
 16 15  1  0  0  0  0
 16 38  1  0  0  0  0
 17 16  1  0  0  0  0
 17 40  1  0  0  0  0
 18 15  1  0  0  0  0
 18 19  1  0  0  0  0
 19 20  2  0  0  0  0
 19 21  1  0  0  0  0
 21 22  1  0  0  0  0
 21 26  1  0  0  0  0
 22 23  1  0  0  0  0
 22 44  1  0  0  0  0
 23 46  1  0  0  0  0
 23 24  1  0  0  0  0
 24 25  1  0  0  0  0
 25 48  1  0  0  0  0
 26 25  1  0  0  0  0
 26 50  1  0  0  0  0
 27 28  1  0  0  0  0
 28 53  1  0  0  0  0
 28  2  2  0  0  0  0
 30  7  1  0  0  0  0
 32  9  1  0  0  0  0
 33  9  1  0  0  0  0
 34 13  1  0  0  0  0
 39 16  1  0  0  0  0
 41 17  1  0  0  0  0
 42 18  1  0  0  0  0
 43 18  1  0  0  0  0
 45 22  1  0  0  0  0
 47 23  1  0  0  0  0
 49 25  1  0  0  0  0
 51 26  1  0  0  0  0
 52 27  1  0  0  0  0
M  END
>  <Pose>
1

>  <Score>
-5.98

$$$$
