
 OpenBabel03202209423D

 47 50  0  0  1  0  0  0  0  0999 V2000
  -50.6810  -61.2670   49.0070 Cl  0  0  0  0  0  0  0  0  0  0  0  0
  -49.1070  -61.7560   49.5740 C   0  0  0  0  0  0  0  0  0  0  0  0
  -48.9640  -62.7790   50.4790 C   0  0  0  0  0  0  0  0  0  0  0  0
  -47.7310  -63.1990   50.9490 C   0  0  0  0  0  0  0  0  0  0  0  0
  -46.6190  -62.5640   50.4860 C   0  0  0  0  0  0  0  0  0  0  0  0
  -46.7090  -61.5210   49.5690 C   0  0  0  0  0  0  0  0  0  0  0  0
  -47.9570  -61.1320   49.1260 C   0  0  0  0  0  0  0  0  0  0  0  0
  -47.6200  -64.2520   51.8980 N   0  0  0  0  0  0  0  0  0  0  0  0
  -48.3930  -64.1400   53.0920 C   0  0  0  0  0  0  0  0  0  0  0  0
  -49.1650  -63.1790   53.3330 O   0  0  0  0  0  0  0  0  0  0  0  0
  -48.2850  -65.1760   54.0660 N   0  0  0  0  0  0  0  0  0  0  0  0
  -47.4110  -66.2870   53.8180 C   0  0  0  0  0  0  0  0  0  0  0  0
  -47.5410  -67.2820   54.6070 O   0  0  0  0  0  0  0  0  0  0  0  0
  -46.4210  -66.2920   52.7250 C   0  0  1  0  0  0  0  0  0  0  0  0
  -46.7530  -65.3470   51.6310 C   0  0  0  0  0  0  0  0  0  0  0  0
  -46.2510  -65.5470   50.4980 O   0  0  0  0  0  0  0  0  0  0  0  0
  -45.0400  -65.9950   53.2600 C   0  0  0  0  0  0  0  0  0  0  0  0
  -44.0230  -65.6080   52.5110 C   0  0  0  0  0  0  0  0  0  0  0  0
  -42.8900  -65.4420   53.4480 C   0  0  1  0  0  0  0  0  0  0  0  0
  -43.5720  -65.1070   54.6860 N   0  0  0  0  0  0  0  0  0  0  0  0
  -44.6250  -66.0540   54.6240 N   0  0  0  0  0  0  0  0  0  0  0  0
  -42.1330  -66.7170   53.5930 C   0  0  0  0  0  0  0  0  0  0  0  0
  -42.1830  -67.5390   54.6820 C   0  0  0  0  0  0  0  0  0  0  0  0
  -41.4900  -68.7320   54.7500 C   0  0  0  0  0  0  0  0  0  0  0  0
  -40.7030  -69.1430   53.6900 C   0  0  0  0  0  0  0  0  0  0  0  0
  -40.6560  -68.2930   52.5730 C   0  0  0  0  0  0  0  0  0  0  0  0
  -41.3520  -67.1080   52.5230 C   0  0  0  0  0  0  0  0  0  0  0  0
  -40.0040  -70.3260   53.7200 O   0  0  0  0  0  0  0  0  0  0  0  0
  -38.6410  -70.3770   54.0850 C   0  0  0  0  0  0  0  0  0  0  0  0
  -41.5740  -69.5420   55.8960 O   0  0  0  0  0  0  0  0  0  0  0  0
  -49.8420  -63.3090   50.8650 H   0  0  0  0  0  0  0  0  0  0  0  0
  -45.6310  -62.8680   50.8350 H   0  0  0  0  0  0  0  0  0  0  0  0
  -45.7960  -61.0660   49.2510 H   0  0  0  0  0  0  0  0  0  0  0  0
  -48.0080  -60.3270   48.4210 H   0  0  0  0  0  0  0  0  0  0  0  0
  -48.8260  -65.1560   54.9690 H   0  0  0  0  0  0  0  0  0  0  0  0
  -46.4620  -67.3100   52.2720 H   0  0  0  0  0  0  0  0  0  0  0  0
  -44.0510  -65.4550   51.4460 H   0  0  0  0  0  0  0  0  0  0  0  0
  -42.1970  -64.6280   53.1570 H   0  0  0  0  0  0  0  0  0  0  0  0
  -43.0010  -65.1720   55.5320 H   0  0  0  0  0  0  0  0  0  0  0  0
  -45.0420  -66.6630   55.3270 H   0  0  0  0  0  0  0  0  0  0  0  0
  -42.7760  -67.2620   55.5170 H   0  0  0  0  0  0  0  0  0  0  0  0
  -40.0290  -68.6460   51.7640 H   0  0  0  0  0  0  0  0  0  0  0  0
  -41.2570  -66.5080   51.6110 H   0  0  0  0  0  0  0  0  0  0  0  0
  -38.0470  -69.6260   53.4970 H   0  0  0  0  0  0  0  0  0  0  0  0
  -38.1840  -71.3670   53.7980 H   0  0  0  0  0  0  0  0  0  0  0  0
  -38.4620  -70.1760   55.1530 H   0  0  0  0  0  0  0  0  0  0  0  0
  -41.0530  -70.4130   55.9030 H   0  0  0  0  0  0  0  0  0  0  0  0
  1  2  1  0  0  0  0
  2  3  1  0  0  0  0
  3 31  1  0  0  0  0
  3  4  2  0  0  0  0
  4  8  1  0  0  0  0
  5 32  1  0  0  0  0
  5  4  1  0  0  0  0
  6  5  2  0  0  0  0
  7  6  1  0  0  0  0
  7  2  2  0  0  0  0
  8  9  1  0  0  0  0
  9 10  2  0  0  0  0
  9 11  1  0  0  0  0
 11 35  1  0  0  0  0
 12 11  1  0  0  0  0
 12 13  2  0  0  0  0
 14 36  1  6  0  0  0
 14 17  1  0  0  0  0
 14 12  1  0  0  0  0
 15  8  1  0  0  0  0
 15 14  1  0  0  0  0
 16 15  2  0  0  0  0
 17 21  1  0  0  0  0
 18 17  2  0  0  0  0
 18 19  1  0  0  0  0
 19 38  1  6  0  0  0
 19 22  1  0  0  0  0
 19 20  1  0  0  0  0
 20 39  1  0  0  0  0
 21 20  1  0  0  0  0
 21 40  1  0  0  0  0
 22 23  1  0  0  0  0
 23 24  2  0  0  0  0
 23 41  1  0  0  0  0
 24 30  1  0  0  0  0
 25 28  1  0  0  0  0
 25 24  1  0  0  0  0
 26 25  2  0  0  0  0
 27 26  1  0  0  0  0
 27 22  2  0  0  0  0
 28 29  1  0  0  0  0
 29 46  1  0  0  0  0
 30 47  1  0  0  0  0
 33  6  1  0  0  0  0
 34  7  1  0  0  0  0
 37 18  1  0  0  0  0
 42 26  1  0  0  0  0
 43 27  1  0  0  0  0
 44 29  1  0  0  0  0
 45 29  1  0  0  0  0
M  END
>  <Pose>
1

>  <Score>
-6.68

$$$$
