
 OpenBabel03202209423D

 47 50  0  0  0  0  0  0  0  0999 V2000
  -43.8930  -64.5670   52.1770 S   0  0  0  0  0  0  0  0  0  0  0  0
  -43.6470  -63.1150   52.4290 O   0  0  0  0  0  0  0  0  0  0  0  0
  -42.6490  -65.1620   51.5770 O   0  0  0  0  0  0  0  0  0  0  0  0
  -44.2210  -65.3590   53.6330 N   0  0  0  0  0  0  0  0  0  0  0  0
  -43.2410  -65.1930   54.6620 C   0  0  0  0  0  0  0  0  0  0  0  0
  -42.1190  -66.2090   54.5680 C   0  0  0  0  0  0  0  0  0  0  0  0
  -42.6880  -67.5200   54.4070 N   0  0  0  0  0  0  0  0  0  0  0  0
  -44.1280  -67.6540   54.4920 C   0  0  0  0  0  0  0  0  0  0  0  0
  -44.7300  -66.6810   53.5020 C   0  0  0  0  0  0  0  0  0  0  0  0
  -41.8990  -68.6820   54.1680 C   0  0  0  0  0  0  0  0  0  0  0  0
  -42.1290  -69.7650   54.7530 O   0  0  0  0  0  0  0  0  0  0  0  0
  -40.7820  -68.6420   53.2200 C   0  0  0  0  0  0  0  0  0  0  0  0
  -39.8200  -69.5930   53.0670 N   0  0  0  0  0  0  0  0  0  0  0  0
  -38.9710  -69.2020   52.1040 C   0  0  0  0  0  0  0  0  0  0  0  0
  -39.3960  -68.0190   51.6600 N   0  0  0  0  0  0  0  0  0  0  0  0
  -40.5000  -67.6550   52.3250 C   0  0  0  0  0  0  0  0  0  0  0  0
  -38.7040  -67.4080   50.6790 C   0  0  0  0  0  0  0  0  0  0  0  0
  -37.5790  -67.9260   50.0990 C   0  0  0  0  0  0  0  0  0  0  0  0
  -37.1190  -69.1580   50.5490 C   0  0  0  0  0  0  0  0  0  0  0  0
  -37.8340  -69.7730   51.5520 C   0  0  0  0  0  0  0  0  0  0  0  0
  -36.6990  -67.0980   48.8180 Cl  0  0  0  0  0  0  0  0  0  0  0  0
  -45.1440  -64.7120   51.0080 N   0  0  0  0  0  0  0  0  0  0  0  0
  -44.8560  -63.9660   49.7970 C   0  0  0  0  0  0  0  0  0  0  0  0
  -46.1780  -63.6790   49.1250 C   0  0  0  0  0  0  0  0  0  0  0  0
  -47.0920  -64.7090   49.3250 O   0  0  0  0  0  0  0  0  0  0  0  0
  -47.5000  -64.8140   50.6530 C   0  0  0  0  0  0  0  0  0  0  0  0
  -46.4080  -64.2060   51.5100 C   0  0  0  0  0  0  0  0  0  0  0  0
  -43.7460  -65.3810   55.6420 H   0  0  0  0  0  0  0  0  0  0  0  0
  -42.8900  -64.1590   54.6740 H   0  0  0  0  0  0  0  0  0  0  0  0
  -41.4480  -65.9200   53.7130 H   0  0  0  0  0  0  0  0  0  0  0  0
  -41.4800  -66.1750   55.4740 H   0  0  0  0  0  0  0  0  0  0  0  0
  -44.4030  -67.3470   55.5380 H   0  0  0  0  0  0  0  0  0  0  0  0
  -44.4530  -68.6770   54.2900 H   0  0  0  0  0  0  0  0  0  0  0  0
  -45.8400  -66.6400   53.6940 H   0  0  0  0  0  0  0  0  0  0  0  0
  -44.5670  -67.0760   52.4950 H   0  0  0  0  0  0  0  0  0  0  0  0
  -41.0360  -66.7220   52.1400 H   0  0  0  0  0  0  0  0  0  0  0  0
  -39.0390  -66.4340   50.2980 H   0  0  0  0  0  0  0  0  0  0  0  0
  -36.2350  -69.6340   50.1400 H   0  0  0  0  0  0  0  0  0  0  0  0
  -37.5120  -70.7420   51.9370 H   0  0  0  0  0  0  0  0  0  0  0  0
  -44.1730  -64.5200   49.1220 H   0  0  0  0  0  0  0  0  0  0  0  0
  -44.3940  -63.0050   50.1080 H   0  0  0  0  0  0  0  0  0  0  0  0
  -46.0200  -63.6100   48.0280 H   0  0  0  0  0  0  0  0  0  0  0  0
  -46.6520  -62.7470   49.4690 H   0  0  0  0  0  0  0  0  0  0  0  0
  -47.5190  -65.9070   50.9200 H   0  0  0  0  0  0  0  0  0  0  0  0
  -48.4840  -64.3490   50.8370 H   0  0  0  0  0  0  0  0  0  0  0  0
  -46.4630  -63.0980   51.4680 H   0  0  0  0  0  0  0  0  0  0  0  0
  -46.5150  -64.4800   52.5770 H   0  0  0  0  0  0  0  0  0  0  0  0
  1  2  2  0  0  0  0
  1  4  1  0  0  0  0
  3  1  2  0  0  0  0
  4  5  1  0  0  0  0
  5 29  1  0  0  0  0
  5 28  1  0  0  0  0
  6  5  1  0  0  0  0
  6 31  1  0  0  0  0
  7  8  1  0  0  0  0
  7  6  1  0  0  0  0
  8 32  1  0  0  0  0
  9  4  1  0  0  0  0
  9 34  1  0  0  0  0
  9  8  1  0  0  0  0
 10  7  1  0  0  0  0
 10 11  2  0  0  0  0
 12 10  1  0  0  0  0
 13 12  1  0  0  0  0
 14 13  2  0  0  0  0
 15 14  1  0  0  0  0
 15 16  1  0  0  0  0
 16 12  2  0  0  0  0
 17 15  1  0  0  0  0
 18 19  1  0  0  0  0
 18 17  2  0  0  0  0
 19 20  2  0  0  0  0
 20 39  1  0  0  0  0
 20 14  1  0  0  0  0
 21 18  1  0  0  0  0
 22 27  1  0  0  0  0
 22  1  1  0  0  0  0
 23 41  1  0  0  0  0
 23 22  1  0  0  0  0
 24 25  1  0  0  0  0
 24 43  1  0  0  0  0
 24 23  1  0  0  0  0
 25 26  1  0  0  0  0
 26 45  1  0  0  0  0
 26 44  1  0  0  0  0
 26 27  1  0  0  0  0
 27 47  1  0  0  0  0
 30  6  1  0  0  0  0
 33  8  1  0  0  0  0
 35  9  1  0  0  0  0
 36 16  1  0  0  0  0
 37 17  1  0  0  0  0
 38 19  1  0  0  0  0
 40 23  1  0  0  0  0
 42 24  1  0  0  0  0
 46 27  1  0  0  0  0
M  END
>  <Pose>
1

>  <Score>
-5.79

$$$$
