
 OpenBabel03202209423D

 47 51  0  0  1  0  0  0  0  0999 V2000
  -47.2940  -60.6960   49.1620 I   0  0  0  0  0  0  0  0  0  0  0  0
  -45.6280  -61.9600   49.4110 C   0  0  0  0  0  0  0  0  0  0  0  0
  -45.5460  -62.8520   50.4610 C   0  0  0  0  0  0  0  0  0  0  0  0
  -44.4430  -63.6900   50.6290 C   0  0  0  0  0  0  0  0  0  0  0  0
  -43.4220  -63.6280   49.7350 C   0  0  0  0  0  0  0  0  0  0  0  0
  -43.5160  -62.7300   48.6870 C   0  0  0  0  0  0  0  0  0  0  0  0
  -44.5960  -61.8940   48.5030 C   0  0  0  0  0  0  0  0  0  0  0  0
  -42.2420  -64.4500   49.8190 N   0  0  0  0  0  0  0  0  0  0  0  0
  -42.2020  -65.7620   49.9620 N   0  0  0  0  0  0  0  0  0  0  0  0
  -40.9360  -66.2230   50.0070 C   0  0  0  0  0  0  0  0  0  0  0  0
  -40.5060  -67.4550   50.1390 C   0  0  0  0  0  0  0  0  0  0  0  0
  -40.1150  -65.1190   49.8830 C   0  0  2  0  0  0  0  0  0  0  0  0
  -38.7740  -65.1250   49.8800 C   0  0  0  0  0  0  0  0  0  0  0  0
  -38.1360  -63.8630   49.7400 N   0  0  0  0  0  4  0  0  0  0  0  0
  -37.1480  -63.6940   48.6860 C   0  0  1  0  0  0  0  0  0  0  0  0
  -36.3830  -62.3960   48.8960 C   0  0  0  0  0  0  0  0  0  0  0  0
  -35.3720  -62.2760   47.8820 N   0  0  2  0  0  0  0  0  0  0  0  0
  -36.0510  -62.2500   46.5910 C   0  0  0  0  0  0  0  0  0  0  0  0
  -36.7500  -63.4790   46.3370 N   0  0  1  0  0  0  0  0  0  0  0  0
  -35.8490  -64.6060   46.4310 C   0  0  0  0  0  0  0  0  0  0  0  0
  -35.1840  -64.6630   47.7050 N   0  0  1  0  0  0  0  0  0  0  0  0
  -34.4840  -63.4130   47.9800 C   0  0  0  0  0  0  0  0  0  0  0  0
  -36.1700  -64.8470   48.7450 C   0  0  0  0  0  0  0  0  0  0  0  0
  -37.7840  -63.6320   47.3300 C   0  0  0  0  0  0  0  0  0  0  0  0
  -40.9630  -64.0390   49.7700 C   0  0  0  0  0  0  0  0  0  0  0  0
  -40.6030  -62.8420   49.6380 O   0  0  0  0  0  0  0  0  0  0  0  0
  -46.3840  -62.8670   51.1500 H   0  0  0  0  0  0  0  0  0  0  0  0
  -44.3940  -64.3830   51.4550 H   0  0  0  0  0  0  0  0  0  0  0  0
  -42.6930  -62.6890   47.9770 H   0  0  0  0  0  0  0  0  0  0  0  0
  -44.6420  -61.1920   47.6610 H   0  0  0  0  0  0  0  0  0  0  0  0
  -43.0390  -66.3890   50.0330 H   0  0  0  0  0  0  0  0  0  0  0  0
  -39.4520  -67.6650   50.1570 H   0  0  0  0  0  0  0  0  0  0  0  0
  -41.1910  -68.2810   50.2310 H   0  0  0  0  0  0  0  0  0  0  0  0
  -38.2180  -66.0500   49.9770 H   0  0  0  0  0  0  0  0  0  0  0  0
  -38.3300  -63.0420   50.3460 H   0  0  0  0  0  0  0  0  0  0  0  0
  -37.1400  -61.5810   48.8410 H   0  0  0  0  0  0  0  0  0  0  0  0
  -35.9960  -62.3910   49.9250 H   0  0  0  0  0  0  0  0  0  0  0  0
  -35.3730  -61.9490   45.7690 H   0  0  0  0  0  0  0  0  0  0  0  0
  -36.8240  -61.4330   46.6770 H   0  0  0  0  0  0  0  0  0  0  0  0
  -35.0560  -64.5240   45.6430 H   0  0  0  0  0  0  0  0  0  0  0  0
  -36.4190  -65.5450   46.2930 H   0  0  0  0  0  0  0  0  0  0  0  0
  -34.1430  -63.4710   49.0420 H   0  0  0  0  0  0  0  0  0  0  0  0
  -33.5790  -63.2940   47.3480 H   0  0  0  0  0  0  0  0  0  0  0  0
  -36.7190  -65.7900   48.5220 H   0  0  0  0  0  0  0  0  0  0  0  0
  -35.7200  -64.8610   49.7540 H   0  0  0  0  0  0  0  0  0  0  0  0
  -38.5040  -62.7900   47.3190 H   0  0  0  0  0  0  0  0  0  0  0  0
  -38.3620  -64.5600   47.1020 H   0  0  0  0  0  0  0  0  0  0  0  0
  1  2  1  0  0  0  0
  2  3  1  0  0  0  0
  3  4  2  0  0  0  0
  3 27  1  0  0  0  0
  4 28  1  0  0  0  0
  5  8  1  0  0  0  0
  5  4  1  0  0  0  0
  6  5  2  0  0  0  0
  7  6  1  0  0  0  0
  7  2  2  0  0  0  0
  8  9  1  0  0  0  0
  9 10  1  0  0  0  0
  9 31  1  0  0  0  0
 10 11  2  0  0  0  0
 11 32  1  0  0  0  0
 11 33  1  0  0  0  0
 12 13  1  1  0  0  0
 12 10  1  0  0  0  0
 13 34  1  0  0  0  0
 14 13  2  0  0  0  0
 14 35  1  0  0  0  0
 15 23  1  0  0  0  0
 15 16  1  0  0  0  0
 15 14  1  1  0  0  0
 16 37  1  0  0  0  0
 17 18  1  6  0  0  0
 17 22  1  0  0  0  0
 17 16  1  0  0  0  0
 18 39  1  0  0  0  0
 19 20  1  1  0  0  0
 19 18  1  0  0  0  0
 19 24  1  0  0  0  0
 21 20  1  6  0  0  0
 21 22  1  0  0  0  0
 21 23  1  0  0  0  0
 22 42  1  0  0  0  0
 23 45  1  0  0  0  0
 24 15  1  0  0  0  0
 25  8  1  0  0  0  0
 25 12  1  0  0  0  0
 26 25  2  0  0  0  0
 29  6  1  0  0  0  0
 30  7  1  0  0  0  0
 36 16  1  0  0  0  0
 38 18  1  0  0  0  0
 40 20  1  0  0  0  0
 41 20  1  0  0  0  0
 43 22  1  0  0  0  0
 44 23  1  0  0  0  0
 46 24  1  0  0  0  0
 47 24  1  0  0  0  0
M  END
>  <Pose>
1

>  <Score>
-5.46

$$$$
