
 OpenBabel03202209423D

 61 64  0  0  1  0  0  0  0  0999 V2000
  -42.0900  -65.4770   51.5960 S   0  0  0  0  0  0  0  0  0  0  0  0
  -43.4160  -65.8280   50.9240 O   0  0  0  0  0  0  0  0  0  0  0  0
  -42.4180  -64.2130   52.3940 O   0  0  0  0  0  0  0  0  0  0  0  0
  -40.8960  -65.1100   50.5030 N   0  0  0  0  0  0  0  0  0  0  0  0
  -41.0780  -64.9020   49.1500 C   0  0  1  0  0  0  0  0  0  0  0  0
  -40.8010  -63.4100   48.9210 C   0  0  0  0  0  0  0  0  0  0  0  0
  -39.6700  -63.1590   49.8950 C   0  0  0  0  0  0  0  0  0  0  0  0
  -39.9050  -64.1600   51.0010 C   0  0  0  0  0  0  0  0  0  0  0  0
  -40.0290  -65.7010   48.3940 C   0  0  0  0  0  0  0  0  0  0  0  0
  -39.8260  -65.3500   47.2250 O   0  0  0  0  0  0  0  0  0  0  0  0
  -39.3670  -66.7600   49.0390 N   0  0  0  0  0  0  0  0  0  0  0  0
  -37.9910  -66.6140   49.4470 C   0  0  0  0  0  0  0  0  0  0  0  0
  -36.9770  -67.0370   48.4550 C   0  0  0  0  0  0  0  0  0  0  0  0
  -35.6700  -66.5040   48.6160 N   0  0  0  0  0  0  0  0  0  0  0  0
  -34.9710  -66.9200   49.7880 C   0  0  0  0  0  0  0  0  0  0  0  0
  -33.5200  -67.1380   49.4090 C   0  0  0  0  0  0  0  0  0  0  0  0
  -33.0090  -65.8990   48.7010 C   0  0  0  0  0  0  0  0  0  0  0  0
  -33.4320  -64.6920   49.4940 C   0  0  0  0  0  0  0  0  0  0  0  0
  -34.8380  -64.2720   49.2800 C   0  0  0  0  0  0  0  0  0  0  0  0
  -35.6330  -65.1050   48.3450 C   0  0  0  0  0  0  0  0  0  0  0  0
  -41.6910  -66.7170   52.7470 C   0  0  0  0  0  0  0  0  0  0  0  0
  -40.6510  -67.6110   52.4430 C   0  0  0  0  0  0  0  0  0  0  0  0
  -40.2920  -68.6590   53.2420 C   0  0  0  0  0  0  0  0  0  0  0  0
  -41.0050  -68.8320   54.4150 C   0  0  0  0  0  0  0  0  0  0  0  0
  -42.0240  -68.0010   54.7720 C   0  0  0  0  0  0  0  0  0  0  0  0
  -42.3480  -66.9500   53.9220 C   0  0  0  0  0  0  0  0  0  0  0  0
  -43.5960  -65.8690   54.5000 Cl  0  0  0  0  0  0  0  0  0  0  0  0
  -40.6340  -69.9260   55.2670 N   0  0  0  0  0  0  0  0  0  0  0  0
  -39.5610  -70.7830   54.8840 C   0  0  0  0  0  0  0  0  0  0  0  0
  -39.5030  -71.9440   55.3240 O   0  0  0  0  0  0  0  0  0  0  0  0
  -38.5450  -70.2260   53.9560 C   0  0  0  0  0  0  0  0  0  0  0  0
  -39.2650  -69.5380   52.9370 O   0  0  0  0  0  0  0  0  0  0  0  0
  -42.0550  -65.0690   48.6920 H   0  0  0  0  0  0  0  0  0  0  0  0
  -40.5790  -63.1690   47.8880 H   0  0  0  0  0  0  0  0  0  0  0  0
  -41.7060  -62.8610   49.2370 H   0  0  0  0  0  0  0  0  0  0  0  0
  -38.7260  -63.3590   49.3340 H   0  0  0  0  0  0  0  0  0  0  0  0
  -39.6890  -62.1480   50.3200 H   0  0  0  0  0  0  0  0  0  0  0  0
  -40.2640  -63.6680   51.9330 H   0  0  0  0  0  0  0  0  0  0  0  0
  -38.9760  -64.7250   51.1890 H   0  0  0  0  0  0  0  0  0  0  0  0
  -39.8240  -67.6720   49.2390 H   0  0  0  0  0  0  0  0  0  0  0  0
  -37.8290  -65.5120   49.6350 H   0  0  0  0  0  0  0  0  0  0  0  0
  -37.7900  -67.1070   50.4120 H   0  0  0  0  0  0  0  0  0  0  0  0
  -37.3360  -66.7910   47.4470 H   0  0  0  0  0  0  0  0  0  0  0  0
  -36.8870  -68.1570   48.4970 H   0  0  0  0  0  0  0  0  0  0  0  0
  -35.4110  -67.8070   50.2760 H   0  0  0  0  0  0  0  0  0  0  0  0
  -34.9980  -66.1000   50.5330 H   0  0  0  0  0  0  0  0  0  0  0  0
  -32.8760  -67.2540   50.3270 H   0  0  0  0  0  0  0  0  0  0  0  0
  -33.3620  -68.0600   48.8210 H   0  0  0  0  0  0  0  0  0  0  0  0
  -31.9390  -65.8990   48.5300 H   0  0  0  0  0  0  0  0  0  0  0  0
  -33.5170  -65.8420   47.7160 H   0  0  0  0  0  0  0  0  0  0  0  0
  -32.6740  -63.8830   49.2780 H   0  0  0  0  0  0  0  0  0  0  0  0
  -33.2970  -64.9150   50.5820 H   0  0  0  0  0  0  0  0  0  0  0  0
  -35.3830  -64.1170   50.2560 H   0  0  0  0  0  0  0  0  0  0  0  0
  -34.8110  -63.2310   48.8400 H   0  0  0  0  0  0  0  0  0  0  0  0
  -35.2980  -64.9560   47.2980 H   0  0  0  0  0  0  0  0  0  0  0  0
  -36.6830  -64.7100   48.3670 H   0  0  0  0  0  0  0  0  0  0  0  0
  -40.1000  -67.4580   51.5130 H   0  0  0  0  0  0  0  0  0  0  0  0
  -42.5610  -68.1700   55.7010 H   0  0  0  0  0  0  0  0  0  0  0  0
  -41.1670  -70.0700   56.1600 H   0  0  0  0  0  0  0  0  0  0  0  0
  -37.8870  -70.9750   53.5130 H   0  0  0  0  0  0  0  0  0  0  0  0
  -37.9600  -69.4350   54.5010 H   0  0  0  0  0  0  0  0  0  0  0  0
  1  3  2  0  0  0  0
  1 21  1  0  0  0  0
  2  1  2  0  0  0  0
  4  8  1  0  0  0  0
  4  1  1  0  0  0  0
  5 33  1  6  0  0  0
  5  4  1  0  0  0  0
  6  5  1  0  0  0  0
  6 35  1  0  0  0  0
  6  7  1  0  0  0  0
  7 37  1  0  0  0  0
  7  8  1  0  0  0  0
  8 39  1  0  0  0  0
  8 38  1  0  0  0  0
  9 11  1  0  0  0  0
  9  5  1  0  0  0  0
 10  9  2  0  0  0  0
 11 40  1  0  0  0  0
 11 12  1  0  0  0  0
 12 41  1  0  0  0  0
 12 42  1  0  0  0  0
 13 44  1  0  0  0  0
 13 14  1  0  0  0  0
 13 12  1  0  0  0  0
 14 15  1  0  0  0  0
 15 45  1  0  0  0  0
 15 46  1  0  0  0  0
 16 15  1  0  0  0  0
 16 47  1  0  0  0  0
 17 16  1  0  0  0  0
 17 18  1  0  0  0  0
 18 52  1  0  0  0  0
 19 18  1  0  0  0  0
 19 53  1  0  0  0  0
 20 56  1  0  0  0  0
 20 14  1  0  0  0  0
 20 19  1  0  0  0  0
 21 26  1  0  0  0  0
 22 21  2  0  0  0  0
 22 23  1  0  0  0  0
 23 24  2  0  0  0  0
 24 25  1  0  0  0  0
 24 28  1  0  0  0  0
 25 58  1  0  0  0  0
 26 27  1  0  0  0  0
 26 25  2  0  0  0  0
 28 59  1  0  0  0  0
 29 28  1  0  0  0  0
 29 30  2  0  0  0  0
 31 61  1  0  0  0  0
 31 29  1  0  0  0  0
 32 23  1  0  0  0  0
 32 31  1  0  0  0  0
 34  6  1  0  0  0  0
 36  7  1  0  0  0  0
 43 13  1  0  0  0  0
 48 16  1  0  0  0  0
 49 17  1  0  0  0  0
 50 17  1  0  0  0  0
 51 18  1  0  0  0  0
 54 19  1  0  0  0  0
 55 20  1  0  0  0  0
 57 22  1  0  0  0  0
 60 31  1  0  0  0  0
M  END
>  <Pose>
1

>  <Score>
-7.51

$$$$
