
 OpenBabel03202209423D

 39 42  0  0  0  0  0  0  0  0999 V2000
  -51.4450  -66.3200   54.3220 Cl  0  0  0  0  0  0  0  0  0  0  0  0
  -49.6860  -66.3870   54.1480 C   0  0  0  0  0  0  0  0  0  0  0  0
  -48.9770  -67.4890   54.5590 C   0  0  0  0  0  0  0  0  0  0  0  0
  -47.6090  -67.5370   54.4230 C   0  0  0  0  0  0  0  0  0  0  0  0
  -46.8510  -66.4980   53.8700 C   0  0  0  0  0  0  0  0  0  0  0  0
  -47.5870  -65.4070   53.4670 C   0  0  0  0  0  0  0  0  0  0  0  0
  -48.9860  -65.3440   53.6010 C   0  0  0  0  0  0  0  0  0  0  0  0
  -45.4320  -66.6530   53.7280 C   0  0  0  0  0  0  0  0  0  0  0  0
  -45.0280  -67.8960   53.8150 O   0  0  0  0  0  0  0  0  0  0  0  0
  -44.4220  -65.7280   53.5140 N   0  0  0  0  0  0  0  0  0  0  0  0
  -44.0010  -65.0470   52.3350 C   0  0  0  0  0  0  0  0  0  0  0  0
  -42.7500  -65.8110   51.8580 C   0  0  0  0  0  0  0  0  0  0  0  0
  -41.9590  -66.1360   53.0600 N   0  0  0  0  0  0  0  0  0  0  0  0
  -42.1190  -65.2970   54.2140 C   0  0  0  0  0  0  0  0  0  0  0  0
  -43.5550  -65.3930   54.6940 C   0  0  0  0  0  0  0  0  0  0  0  0
  -41.0730  -67.2520   53.0350 C   0  0  0  0  0  0  0  0  0  0  0  0
  -41.0080  -68.1160   54.0710 N   0  0  0  0  0  0  0  0  0  0  0  0
  -40.1970  -69.1600   54.0840 N   0  0  0  0  0  0  0  0  0  0  0  0
  -39.3740  -69.4420   53.0640 C   0  0  0  0  0  0  0  0  0  0  0  0
  -38.6570  -70.5610   53.3360 N   0  0  0  0  0  0  0  0  0  0  0  0
  -39.0360  -70.9790   54.5290 N   0  0  0  0  0  0  0  0  0  0  0  0
  -39.9730  -70.1390   55.0040 C   0  0  0  0  0  0  0  0  0  0  0  0
  -39.3820  -68.6020   51.9640 C   0  0  0  0  0  0  0  0  0  0  0  0
  -40.2350  -67.5230   51.9770 C   0  0  0  0  0  0  0  0  0  0  0  0
  -49.5350  -68.3090   54.9900 H   0  0  0  0  0  0  0  0  0  0  0  0
  -47.0880  -68.4170   54.7580 H   0  0  0  0  0  0  0  0  0  0  0  0
  -47.0880  -64.5760   53.0080 H   0  0  0  0  0  0  0  0  0  0  0  0
  -49.5340  -64.4640   53.2710 H   0  0  0  0  0  0  0  0  0  0  0  0
  -44.7080  -64.8030   51.5740 H   0  0  0  0  0  0  0  0  0  0  0  0
  -43.5300  -64.0430   52.6670 H   0  0  0  0  0  0  0  0  0  0  0  0
  -42.1520  -65.2010   51.1570 H   0  0  0  0  0  0  0  0  0  0  0  0
  -43.1350  -66.7220   51.3830 H   0  0  0  0  0  0  0  0  0  0  0  0
  -41.9410  -64.2210   53.9920 H   0  0  0  0  0  0  0  0  0  0  0  0
  -41.4870  -65.6580   55.0510 H   0  0  0  0  0  0  0  0  0  0  0  0
  -43.9260  -64.4450   55.1220 H   0  0  0  0  0  0  0  0  0  0  0  0
  -43.6860  -66.1850   55.4490 H   0  0  0  0  0  0  0  0  0  0  0  0
  -40.4790  -70.2180   55.9640 H   0  0  0  0  0  0  0  0  0  0  0  0
  -38.7310  -68.7930   51.1150 H   0  0  0  0  0  0  0  0  0  0  0  0
  -40.2740  -66.8270   51.1250 H   0  0  0  0  0  0  0  0  0  0  0  0
  2  1  1  0  0  0  0
  2  3  1  0  0  0  0
  3 25  1  0  0  0  0
  4  3  2  0  0  0  0
  4 26  1  0  0  0  0
  5  4  1  0  0  0  0
  6  7  1  0  0  0  0
  6  5  2  0  0  0  0
  7  2  2  0  0  0  0
  8  9  2  0  0  0  0
  8  5  1  0  0  0  0
 10  8  1  0  0  0  0
 10 15  1  0  0  0  0
 11 30  1  0  0  0  0
 11 10  1  0  0  0  0
 12 11  1  0  0  0  0
 12 13  1  0  0  0  0
 13 14  1  0  0  0  0
 14 15  1  0  0  0  0
 14 34  1  0  0  0  0
 15 35  1  0  0  0  0
 15 36  1  0  0  0  0
 16 13  1  0  0  0  0
 16 17  2  0  0  0  0
 17 18  1  0  0  0  0
 18 22  1  0  0  0  0
 19 20  2  0  0  0  0
 19 18  1  0  0  0  0
 20 21  1  0  0  0  0
 21 22  2  0  0  0  0
 22 37  1  0  0  0  0
 23 24  2  0  0  0  0
 23 19  1  0  0  0  0
 24 16  1  0  0  0  0
 27  6  1  0  0  0  0
 28  7  1  0  0  0  0
 29 11  1  0  0  0  0
 31 12  1  0  0  0  0
 32 12  1  0  0  0  0
 33 14  1  0  0  0  0
 38 23  1  0  0  0  0
 39 24  1  0  0  0  0
M  END
>  <Pose>
1

>  <Score>
-5.32

$$$$
