
 OpenBabel03202209423D

 47 50  0  0  0  0  0  0  0  0999 V2000
  -33.9550  -65.4160   45.9350 Cl  0  0  0  0  0  0  0  0  0  0  0  0
  -35.2830  -65.8700   46.9870 C   0  0  0  0  0  0  0  0  0  0  0  0
  -36.0240  -67.0220   46.7990 C   0  0  0  0  0  0  0  0  0  0  0  0
  -37.0690  -67.3730   47.6360 C   0  0  0  0  0  0  0  0  0  0  0  0
  -37.4190  -66.5760   48.7080 C   0  0  0  0  0  0  0  0  0  0  0  0
  -36.6870  -65.4240   48.9060 C   0  0  0  0  0  0  0  0  0  0  0  0
  -35.6350  -65.0720   48.0630 C   0  0  0  0  0  0  0  0  0  0  0  0
  -38.4970  -66.9540   49.5580 N   0  0  0  0  0  0  0  0  0  0  0  0
  -38.4000  -67.6790   50.6150 N   0  0  0  0  0  0  0  0  0  0  0  0
  -39.6330  -67.8640   51.2200 C   0  0  0  0  0  0  0  0  0  0  0  0
  -40.5040  -67.2080   50.4770 N   0  0  0  0  0  0  0  0  0  0  0  0
  -39.7910  -66.6470   49.4430 C   0  0  0  0  0  0  0  0  0  0  0  0
  -40.3180  -65.9540   48.5460 O   0  0  0  0  0  0  0  0  0  0  0  0
  -41.8990  -66.9840   50.6970 C   0  0  0  0  0  0  0  0  0  0  0  0
  -42.2240  -65.9050   51.6490 C   0  0  0  0  0  0  0  0  0  0  0  0
  -41.6310  -64.7810   51.3700 O   0  0  0  0  0  0  0  0  0  0  0  0
  -43.0350  -65.8870   52.7610 N   0  0  0  0  0  0  0  0  0  0  0  0
  -42.6890  -66.4040   54.0580 C   0  0  0  0  0  0  0  0  0  0  0  0
  -43.8040  -66.1740   55.0940 C   0  0  0  0  0  0  0  0  0  0  0  0
  -45.0620  -66.7130   54.5670 N   0  0  0  0  0  0  0  0  0  0  0  0
  -45.3180  -66.3260   53.1990 C   0  0  0  0  0  0  0  0  0  0  0  0
  -46.2650  -66.8420   52.5630 O   0  0  0  0  0  0  0  0  0  0  0  0
  -44.3860  -65.3080   52.6560 C   0  0  0  0  0  0  0  0  0  0  0  0
  -39.7350  -68.6400   52.4540 C   0  0  0  0  0  0  0  0  0  0  0  0
  -38.6900  -69.5180   52.7680 C   0  0  0  0  0  0  0  0  0  0  0  0
  -38.6880  -70.3450   53.8570 C   0  0  0  0  0  0  0  0  0  0  0  0
  -39.7620  -70.3550   54.7370 C   0  0  0  0  0  0  0  0  0  0  0  0
  -40.7890  -69.5040   54.4400 C   0  0  0  0  0  0  0  0  0  0  0  0
  -40.7860  -68.6610   53.3250 C   0  0  0  0  0  0  0  0  0  0  0  0
  -35.7520  -67.6490   45.9620 H   0  0  0  0  0  0  0  0  0  0  0  0
  -37.6460  -68.2690   47.4920 H   0  0  0  0  0  0  0  0  0  0  0  0
  -36.9610  -64.8040   49.7390 H   0  0  0  0  0  0  0  0  0  0  0  0
  -35.0670  -64.1680   48.2230 H   0  0  0  0  0  0  0  0  0  0  0  0
  -42.4790  -67.8440   50.9430 H   0  0  0  0  0  0  0  0  0  0  0  0
  -42.3240  -66.6420   49.6720 H   0  0  0  0  0  0  0  0  0  0  0  0
  -41.8320  -65.7740   54.4200 H   0  0  0  0  0  0  0  0  0  0  0  0
  -42.4190  -67.4530   54.0610 H   0  0  0  0  0  0  0  0  0  0  0  0
  -43.9450  -65.0970   55.2730 H   0  0  0  0  0  0  0  0  0  0  0  0
  -43.5210  -66.6490   56.0450 H   0  0  0  0  0  0  0  0  0  0  0  0
  -45.6980  -67.3030   55.1080 H   0  0  0  0  0  0  0  0  0  0  0  0
  -44.6040  -65.1050   51.5810 H   0  0  0  0  0  0  0  0  0  0  0  0
  -44.3920  -64.3710   53.2570 H   0  0  0  0  0  0  0  0  0  0  0  0
  -37.8330  -69.5160   52.0840 H   0  0  0  0  0  0  0  0  0  0  0  0
  -37.8710  -71.0140   54.0780 H   0  0  0  0  0  0  0  0  0  0  0  0
  -39.7810  -70.9960   55.6020 H   0  0  0  0  0  0  0  0  0  0  0  0
  -41.6560  -69.4870   55.1120 H   0  0  0  0  0  0  0  0  0  0  0  0
  -41.6400  -68.0610   53.1690 H   0  0  0  0  0  0  0  0  0  0  0  0
  1  2  1  0  0  0  0
  2  7  1  0  0  0  0
  3  2  2  0  0  0  0
  3  4  1  0  0  0  0
  4  5  2  0  0  0  0
  5  6  1  0  0  0  0
  5  8  1  0  0  0  0
  6 32  1  0  0  0  0
  7 33  1  0  0  0  0
  7  6  2  0  0  0  0
  8  9  1  0  0  0  0
  9 10  2  0  0  0  0
 10 24  1  0  0  0  0
 11 14  1  0  0  0  0
 11 10  1  0  0  0  0
 12  8  1  0  0  0  0
 12 11  1  0  0  0  0
 13 12  2  0  0  0  0
 14 34  1  0  0  0  0
 14 15  1  0  0  0  0
 15 17  1  0  0  0  0
 16 15  2  0  0  0  0
 17 18  1  0  0  0  0
 18 37  1  0  0  0  0
 18 36  1  0  0  0  0
 18 19  1  0  0  0  0
 19 38  1  0  0  0  0
 19 39  1  0  0  0  0
 20 19  1  0  0  0  0
 20 40  1  0  0  0  0
 21 20  1  0  0  0  0
 22 21  2  0  0  0  0
 23 17  1  0  0  0  0
 23 21  1  0  0  0  0
 23 42  1  0  0  0  0
 24 25  2  0  0  0  0
 24 29  1  0  0  0  0
 25 26  1  0  0  0  0
 26 44  1  0  0  0  0
 26 27  2  0  0  0  0
 27 45  1  0  0  0  0
 28 27  1  0  0  0  0
 28 46  1  0  0  0  0
 29 28  2  0  0  0  0
 30  3  1  0  0  0  0
 31  4  1  0  0  0  0
 35 14  1  0  0  0  0
 41 23  1  0  0  0  0
 43 25  1  0  0  0  0
 47 29  1  0  0  0  0
M  END
>  <Pose>
1

>  <Score>
-6.57

$$$$
