
 OpenBabel03202209423D

 42 45  0  0  0  0  0  0  0  0999 V2000
  -39.2410  -69.8720   53.9990 Cl  0  0  0  0  0  0  0  0  0  0  0  0
  -40.4620  -68.6170   53.7500 C   0  0  0  0  0  0  0  0  0  0  0  0
  -41.4740  -68.4470   54.6720 C   0  0  0  0  0  0  0  0  0  0  0  0
  -42.4400  -67.4870   54.5190 C   0  0  0  0  0  0  0  0  0  0  0  0
  -42.4340  -66.6440   53.4180 C   0  0  0  0  0  0  0  0  0  0  0  0
  -41.4110  -66.8290   52.5030 C   0  0  0  0  0  0  0  0  0  0  0  0
  -40.4380  -67.7940   52.6540 C   0  0  0  0  0  0  0  0  0  0  0  0
  -43.4170  -65.6400   53.2260 N   0  0  0  0  0  0  0  0  0  0  0  0
  -43.1810  -64.3800   52.9180 N   0  0  0  0  0  0  0  0  0  0  0  0
  -44.3700  -63.7960   52.8340 N   0  0  0  0  0  0  0  0  0  0  0  0
  -45.3640  -64.6660   53.0830 C   0  0  0  0  0  0  0  0  0  0  0  0
  -44.7470  -65.8330   53.3310 C   0  0  0  0  0  0  0  0  0  0  0  0
  -45.7710  -66.7250   53.5870 C   0  0  0  0  0  0  0  0  0  0  0  0
  -45.5560  -67.9420   53.8650 O   0  0  0  0  0  0  0  0  0  0  0  0
  -46.9770  -66.1410   53.5030 N   0  0  0  0  0  0  0  0  0  0  0  0
  -46.7260  -64.8590   53.1900 C   0  0  0  0  0  0  0  0  0  0  0  0
  -47.6220  -63.9790   53.0220 O   0  0  0  0  0  0  0  0  0  0  0  0
  -48.2280  -66.7930   53.7140 C   0  0  0  0  0  0  0  0  0  0  0  0
  -48.5360  -68.0030   53.1270 C   0  0  0  0  0  0  0  0  0  0  0  0
  -49.7380  -68.6530   53.3170 C   0  0  0  0  0  0  0  0  0  0  0  0
  -50.6790  -68.0620   54.1330 C   0  0  0  0  0  0  0  0  0  0  0  0
  -50.4260  -66.8520   54.7450 C   0  0  0  0  0  0  0  0  0  0  0  0
  -49.1990  -66.2350   54.5230 C   0  0  0  0  0  0  0  0  0  0  0  0
  -51.3990  -66.2880   55.5600 O   0  0  0  0  0  0  0  0  0  0  0  0
  -51.2310  -66.1740   56.9470 C   0  0  0  0  0  0  0  0  0  0  0  0
  -50.0030  -69.8880   52.6940 O   0  0  0  0  0  0  0  0  0  0  0  0
  -50.3770  -69.9020   51.3360 C   0  0  0  0  0  0  0  0  0  0  0  0
  -41.4760  -69.1160   55.5430 H   0  0  0  0  0  0  0  0  0  0  0  0
  -43.2300  -67.3600   55.2460 H   0  0  0  0  0  0  0  0  0  0  0  0
  -41.4080  -66.1590   51.6300 H   0  0  0  0  0  0  0  0  0  0  0  0
  -39.6660  -67.9050   51.9280 H   0  0  0  0  0  0  0  0  0  0  0  0
  -42.2370  -63.9500   52.7740 H   0  0  0  0  0  0  0  0  0  0  0  0
  -44.5180  -62.7900   52.6020 H   0  0  0  0  0  0  0  0  0  0  0  0
  -47.7600  -68.4350   52.4880 H   0  0  0  0  0  0  0  0  0  0  0  0
  -51.6300  -68.5740   54.2840 H   0  0  0  0  0  0  0  0  0  0  0  0
  -48.9970  -65.2690   55.0130 H   0  0  0  0  0  0  0  0  0  0  0  0
  -51.3500  -67.2000   57.3780 H   0  0  0  0  0  0  0  0  0  0  0  0
  -50.2760  -65.7070   57.2370 H   0  0  0  0  0  0  0  0  0  0  0  0
  -52.0530  -65.4980   57.3230 H   0  0  0  0  0  0  0  0  0  0  0  0
  -49.7330  -69.2700   50.7060 H   0  0  0  0  0  0  0  0  0  0  0  0
  -50.3370  -70.9360   50.9440 H   0  0  0  0  0  0  0  0  0  0  0  0
  -51.4240  -69.5390   51.1890 H   0  0  0  0  0  0  0  0  0  0  0  0
  2  1  1  0  0  0  0
  2  3  1  0  0  0  0
  3 28  1  0  0  0  0
  4  3  2  0  0  0  0
  4 29  1  0  0  0  0
  5  4  1  0  0  0  0
  6  7  1  0  0  0  0
  6  5  2  0  0  0  0
  7  2  2  0  0  0  0
  8 12  1  0  0  0  0
  8  5  1  0  0  0  0
  9  8  1  0  0  0  0
 10  9  1  0  0  0  0
 10 11  1  0  0  0  0
 11 16  1  0  0  0  0
 11 12  2  0  0  0  0
 12 13  1  0  0  0  0
 13 14  2  0  0  0  0
 15 13  1  0  0  0  0
 15 18  1  0  0  0  0
 16 15  1  0  0  0  0
 17 16  2  0  0  0  0
 18 23  1  0  0  0  0
 19 20  1  0  0  0  0
 19 18  2  0  0  0  0
 20 21  2  0  0  0  0
 21 35  1  0  0  0  0
 21 22  1  0  0  0  0
 22 24  1  0  0  0  0
 23 22  2  0  0  0  0
 23 36  1  0  0  0  0
 24 25  1  0  0  0  0
 25 38  1  0  0  0  0
 25 39  1  0  0  0  0
 25 37  1  0  0  0  0
 26 20  1  0  0  0  0
 27 26  1  0  0  0  0
 30  6  1  0  0  0  0
 31  7  1  0  0  0  0
 32  9  1  0  0  0  0
 33 10  1  0  0  0  0
 34 19  1  0  0  0  0
 40 27  1  0  0  0  0
 41 27  1  0  0  0  0
 42 27  1  0  0  0  0
M  END
>  <Pose>
1

>  <Score>
-6.43

$$$$
