
 OpenBabel03202209423D

 43 46  0  0  0  0  0  0  0  0999 V2000
  -39.9140  -65.1270   48.5410 Cl  0  0  0  0  0  0  0  0  0  0  0  0
  -39.7900  -66.2870   49.8670 C   0  0  0  0  0  0  0  0  0  0  0  0
  -40.7810  -66.2730   50.8510 C   0  0  0  0  0  0  0  0  0  0  0  0
  -40.7500  -67.1580   51.9100 C   0  0  0  0  0  0  0  0  0  0  0  0
  -39.6940  -68.0470   51.9440 C   0  0  0  0  0  0  0  0  0  0  0  0
  -38.7120  -68.0930   51.0110 C   0  0  0  0  0  0  0  0  0  0  0  0
  -38.7530  -67.1910   49.9370 C   0  0  0  0  0  0  0  0  0  0  0  0
  -39.6800  -68.9930   53.0880 C   0  0  0  0  0  0  0  0  0  0  0  0
  -38.8480  -69.9350   53.4130 N   0  0  0  0  0  0  0  0  0  0  0  0
  -39.2690  -70.5880   54.6310 C   0  0  0  0  0  0  0  0  0  0  0  0
  -40.5510  -69.9200   55.0630 C   0  0  0  0  0  0  0  0  0  0  0  0
  -40.7190  -68.9110   54.0300 N   0  0  0  0  0  0  0  0  0  0  0  0
  -41.7770  -67.9610   53.9230 C   0  0  0  0  0  0  0  0  0  0  0  0
  -42.8560  -67.7230   54.6980 N   0  0  0  0  0  0  0  0  0  0  0  0
  -43.5600  -66.7260   54.1670 N   0  0  0  0  0  0  0  0  0  0  0  0
  -42.8960  -66.3700   53.0700 C   0  0  0  0  0  0  0  0  0  0  0  0
  -43.2450  -65.4510   52.2780 O   0  0  0  0  0  0  0  0  0  0  0  0
  -41.7750  -67.1230   52.8910 N   0  0  0  0  0  0  0  0  0  0  0  0
  -44.8110  -66.1670   54.6890 C   0  0  0  0  0  0  0  0  0  0  0  0
  -45.8950  -67.0320   53.9740 C   0  0  0  0  0  0  0  0  0  0  0  0
  -45.3680  -67.5260   52.9160 O   0  0  0  0  0  0  0  0  0  0  0  0
  -47.1280  -67.1460   54.4850 N   0  0  0  0  0  0  0  0  0  0  0  0
  -48.3960  -67.2630   55.0110 C   0  0  0  0  0  0  0  0  0  0  0  0
  -49.1070  -68.5410   54.5500 C   0  0  0  0  0  0  0  0  0  0  0  0
  -49.5660  -68.4230   53.2600 O   0  0  0  0  0  0  0  0  0  0  0  0
  -49.6700  -69.5920   52.5630 C   0  0  0  0  0  0  0  0  0  0  0  0
  -41.5640  -65.5450   50.7410 H   0  0  0  0  0  0  0  0  0  0  0  0
  -37.9010  -68.7880   51.0710 H   0  0  0  0  0  0  0  0  0  0  0  0
  -37.9990  -67.1920   49.1720 H   0  0  0  0  0  0  0  0  0  0  0  0
  -38.4630  -70.4570   55.3860 H   0  0  0  0  0  0  0  0  0  0  0  0
  -39.4580  -71.6780   54.4500 H   0  0  0  0  0  0  0  0  0  0  0  0
  -40.4530  -69.4310   56.0380 H   0  0  0  0  0  0  0  0  0  0  0  0
  -41.3930  -70.6610   55.0660 H   0  0  0  0  0  0  0  0  0  0  0  0
  -44.9060  -66.3150   55.7470 H   0  0  0  0  0  0  0  0  0  0  0  0
  -44.8940  -65.1450   54.3490 H   0  0  0  0  0  0  0  0  0  0  0  0
  -46.6520  -66.8160   55.7130 H   0  0  0  0  0  0  0  0  0  0  0  0
  -48.4870  -67.1420   56.1120 H   0  0  0  0  0  0  0  0  0  0  0  0
  -49.0860  -66.4100   54.6340 H   0  0  0  0  0  0  0  0  0  0  0  0
  -48.4990  -69.4460   54.7050 H   0  0  0  0  0  0  0  0  0  0  0  0
  -49.9990  -68.6160   55.2190 H   0  0  0  0  0  0  0  0  0  0  0  0
  -50.4310  -70.2840   53.0420 H   0  0  0  0  0  0  0  0  0  0  0  0
  -48.7340  -70.2070   52.6400 H   0  0  0  0  0  0  0  0  0  0  0  0
  -49.9590  -69.4300   51.5120 H   0  0  0  0  0  0  0  0  0  0  0  0
  1  2  1  0  0  0  0
  2  7  2  0  0  0  0
  2  3  1  0  0  0  0
  3  4  2  0  0  0  0
  4  5  1  0  0  0  0
  4 18  1  0  0  0  0
  5  8  2  0  0  0  0
  6 28  1  0  0  0  0
  6  5  1  0  0  0  0
  7  6  1  0  0  0  0
  8  9  1  0  0  0  0
  8 12  1  0  0  0  0
  9 10  1  0  0  0  0
 10 11  1  0  0  0  0
 10 30  1  0  0  0  0
 11 33  1  0  0  0  0
 11 32  1  0  0  0  0
 12 11  1  0  0  0  0
 13 12  1  0  0  0  0
 13 14  2  0  0  0  0
 15 19  1  0  0  0  0
 15 14  1  0  0  0  0
 16 15  1  0  0  0  0
 17 16  2  0  0  0  0
 18 16  1  0  0  0  0
 18 13  1  0  0  0  0
 19 34  1  0  0  0  0
 20 22  1  0  0  0  0
 20 19  1  0  0  0  0
 21 20  2  0  0  0  0
 22 23  1  0  0  0  0
 22 36  1  0  0  0  0
 23 37  1  0  0  0  0
 24 39  1  0  0  0  0
 24 23  1  0  0  0  0
 24 40  1  0  0  0  0
 25 24  1  0  0  0  0
 26 42  1  0  0  0  0
 26 41  1  0  0  0  0
 26 25  1  0  0  0  0
 27  3  1  0  0  0  0
 29  7  1  0  0  0  0
 31 10  1  0  0  0  0
 35 19  1  0  0  0  0
 38 23  1  0  0  0  0
 43 26  1  0  0  0  0
M  END
>  <Pose>
1

>  <Score>
-6.46

$$$$
