
 OpenBabel03202209423D

 43 47  0  0  1  0  0  0  0  0999 V2000
  -45.0660  -64.1910   52.6880 Cl  0  0  0  0  0  0  0  0  0  0  0  0
  -43.9370  -65.4830   53.0330 C   0  0  0  0  0  0  0  0  0  0  0  0
  -42.8270  -65.7440   52.2460 C   0  0  0  0  0  0  0  0  0  0  0  0
  -41.9470  -66.7620   52.5290 C   0  0  1  0  0  0  0  0  0  0  0  0
  -42.2190  -67.5210   53.6410 C   0  0  0  0  0  0  0  0  0  0  0  0
  -43.3050  -67.3070   54.4570 C   0  0  0  0  0  0  0  0  0  0  0  0
  -44.1800  -66.2650   54.1420 C   0  0  0  0  0  0  0  0  0  0  0  0
  -41.2960  -68.6240   53.9750 C   0  0  0  0  0  0  0  0  0  0  0  0
  -41.3020  -69.4770   54.9330 N   0  0  0  0  0  0  0  0  0  0  0  0
  -40.1850  -70.3810   54.8590 C   0  0  0  0  0  0  0  0  0  0  0  0
  -39.4340  -69.9440   53.6420 C   0  0  0  0  0  0  0  0  0  0  0  0
  -40.1860  -68.8300   53.1270 N   0  0  0  0  0  0  0  0  0  0  0  0
  -39.9500  -68.0000   51.9710 C   0  0  0  0  0  0  0  0  0  0  0  0
  -38.9810  -68.0060   51.0360 N   0  0  0  0  0  0  0  0  0  0  0  0
  -39.2040  -67.0340   50.1680 N   0  0  0  0  0  0  0  0  0  0  0  0
  -40.3280  -66.4290   50.5850 C   0  0  0  0  0  0  0  0  0  0  0  0
  -40.8400  -65.4440   49.9810 O   0  0  0  0  0  0  0  0  0  0  0  0
  -40.8160  -67.0080   51.7040 N   0  0  0  0  0  0  0  0  0  0  0  0
  -38.3990  -66.6800   48.9890 C   0  0  0  0  0  0  0  0  0  0  0  0
  -37.0810  -67.3560   49.1100 C   0  0  0  0  0  0  0  0  0  0  0  0
  -37.0250  -68.5530   48.7300 O   0  0  0  0  0  0  0  0  0  0  0  0
  -35.9380  -66.6930   49.6320 N   0  0  0  0  0  0  0  0  0  0  0  0
  -35.6030  -65.3050   49.3720 C   0  0  0  0  0  0  0  0  0  0  0  0
  -34.2320  -65.0840   49.9520 C   0  0  0  0  0  0  0  0  0  0  0  0
  -33.6850  -66.4950   50.0130 C   0  0  0  0  0  0  0  0  0  0  0  0
  -34.9260  -67.2560   50.4940 C   0  0  0  0  0  0  0  0  0  0  0  0
  -42.6580  -65.1290   51.3960 H   0  0  0  0  0  0  0  0  0  0  0  0
  -43.4910  -67.9140   55.3150 H   0  0  0  0  0  0  0  0  0  0  0  0
  -45.0220  -66.1180   54.7960 H   0  0  0  0  0  0  0  0  0  0  0  0
  -40.5210  -71.4390   54.7030 H   0  0  0  0  0  0  0  0  0  0  0  0
  -39.5410  -70.3160   55.7680 H   0  0  0  0  0  0  0  0  0  0  0  0
  -39.3280  -70.7640   52.8980 H   0  0  0  0  0  0  0  0  0  0  0  0
  -38.4380  -69.5480   53.9550 H   0  0  0  0  0  0  0  0  0  0  0  0
  -38.2750  -65.5780   48.9490 H   0  0  0  0  0  0  0  0  0  0  0  0
  -38.9410  -67.0570   48.1100 H   0  0  0  0  0  0  0  0  0  0  0  0
  -36.3710  -64.6940   49.8870 H   0  0  0  0  0  0  0  0  0  0  0  0
  -35.6100  -65.1490   48.2710 H   0  0  0  0  0  0  0  0  0  0  0  0
  -34.3150  -64.7290   51.0050 H   0  0  0  0  0  0  0  0  0  0  0  0
  -33.5950  -64.4170   49.3370 H   0  0  0  0  0  0  0  0  0  0  0  0
  -32.8490  -66.5790   50.7100 H   0  0  0  0  0  0  0  0  0  0  0  0
  -33.4210  -66.8330   48.9740 H   0  0  0  0  0  0  0  0  0  0  0  0
  -34.8130  -68.3350   50.4240 H   0  0  0  0  0  0  0  0  0  0  0  0
  -35.1390  -66.8870   51.5190 H   0  0  0  0  0  0  0  0  0  0  0  0
  1  2  1  0  0  0  0
  2  7  1  0  0  0  0
  3  2  2  0  0  0  0
  4  3  1  6  0  0  0
  4  5  1  0  0  0  0
  5  8  2  0  0  0  0
  5  6  1  0  0  0  0
  6 28  1  0  0  0  0
  7  6  2  0  0  0  0
  7 29  1  0  0  0  0
  8  9  1  0  0  0  0
 10  9  1  0  0  0  0
 10 31  1  0  0  0  0
 11 33  1  0  0  0  0
 11 10  1  0  0  0  0
 12 11  1  0  0  0  0
 12  8  1  0  0  0  0
 13 12  1  0  0  0  0
 14 13  2  0  0  0  0
 15 16  1  0  0  0  0
 15 14  1  0  0  0  0
 16 18  1  0  0  0  0
 17 16  2  0  0  0  0
 18 13  1  0  0  0  0
 18  4  1  0  0  0  0
 19 20  1  0  0  0  0
 19 15  1  0  0  0  0
 20 22  1  0  0  0  0
 21 20  2  0  0  0  0
 22 26  1  0  0  0  0
 23 22  1  0  0  0  0
 23 36  1  0  0  0  0
 23 24  1  0  0  0  0
 24 25  1  0  0  0  0
 24 38  1  0  0  0  0
 25 26  1  0  0  0  0
 25 40  1  0  0  0  0
 26 43  1  0  0  0  0
 27  3  1  0  0  0  0
 30 10  1  0  0  0  0
 32 11  1  0  0  0  0
 34 19  1  0  0  0  0
 35 19  1  0  0  0  0
 37 23  1  0  0  0  0
 39 24  1  0  0  0  0
 41 25  1  0  0  0  0
 42 26  1  0  0  0  0
M  END
>  <Pose>
1

>  <Score>
-6.02

$$$$
