
 OpenBabel03202209423D

 47 50  0  0  0  0  0  0  0  0999 V2000
  -50.2060  -67.6240   55.2130 Cl  0  0  0  0  0  0  0  0  0  0  0  0
  -48.6920  -67.0740   54.4980 C   0  0  0  0  0  0  0  0  0  0  0  0
  -48.5110  -65.8010   54.0520 C   0  0  0  0  0  0  0  0  0  0  0  0
  -47.3070  -65.4150   53.4970 C   0  0  0  0  0  0  0  0  0  0  0  0
  -46.2700  -66.3070   53.3870 C   0  0  0  0  0  0  0  0  0  0  0  0
  -46.4550  -67.5880   53.8370 C   0  0  0  0  0  0  0  0  0  0  0  0
  -47.6600  -67.9790   54.3930 C   0  0  0  0  0  0  0  0  0  0  0  0
  -44.9960  -65.9380   52.8120 N   0  0  0  0  0  0  0  0  0  0  0  0
  -44.7630  -64.6270   52.3350 C   0  0  0  0  0  0  0  0  0  0  0  0
  -43.6210  -64.2550   51.8070 C   0  0  0  0  0  0  0  0  0  0  0  0
  -42.4620  -65.0570   51.6250 N   0  0  0  0  0  0  0  0  0  0  0  0
  -42.4710  -66.3210   50.9180 C   0  0  0  0  0  0  0  0  0  0  0  0
  -41.2550  -66.3250   49.9770 C   0  0  0  0  0  0  0  0  0  0  0  0
  -40.6010  -65.0620   49.9450 N   0  0  0  0  0  0  0  0  0  0  0  0
  -40.0450  -64.6370   51.2290 C   0  0  0  0  0  0  0  0  0  0  0  0
  -41.2040  -64.6160   52.1960 C   0  0  0  0  0  0  0  0  0  0  0  0
  -40.4330  -64.1670   48.8590 C   0  0  0  0  0  0  0  0  0  0  0  0
  -41.0430  -62.9270   48.9380 N   0  0  0  0  0  0  0  0  0  0  0  0
  -40.9750  -62.0030   47.9810 C   0  0  0  0  0  0  0  0  0  0  0  0
  -40.2600  -62.2940   46.8520 C   0  0  0  0  0  0  0  0  0  0  0  0
  -39.6440  -63.5090   46.7400 C   0  0  0  0  0  0  0  0  0  0  0  0
  -39.7120  -64.4900   47.7490 C   0  0  0  0  0  0  0  0  0  0  0  0
  -39.0280  -65.7400   47.6110 C   0  0  0  0  0  0  0  0  0  0  0  0
  -39.4340  -66.8280   48.0120 O   0  0  0  0  0  0  0  0  0  0  0  0
  -37.7660  -65.7520   46.9560 N   0  0  0  0  0  0  0  0  0  0  0  0
  -45.8410  -63.6710   52.4420 N   0  0  0  0  0  0  0  0  0  0  0  0
  -47.0780  -64.0620   53.0090 C   0  0  0  0  0  0  0  0  0  0  0  0
  -48.0470  -63.2340   53.1140 O   0  0  0  0  0  0  0  0  0  0  0  0
  -49.2930  -65.0800   54.1190 H   0  0  0  0  0  0  0  0  0  0  0  0
  -45.6260  -68.2800   53.7420 H   0  0  0  0  0  0  0  0  0  0  0  0
  -47.7970  -68.9790   54.7420 H   0  0  0  0  0  0  0  0  0  0  0  0
  -44.2500  -66.6530   52.7540 H   0  0  0  0  0  0  0  0  0  0  0  0
  -43.5600  -63.2070   51.4710 H   0  0  0  0  0  0  0  0  0  0  0  0
  -43.3610  -66.4960   50.3150 H   0  0  0  0  0  0  0  0  0  0  0  0
  -42.3760  -67.1460   51.6830 H   0  0  0  0  0  0  0  0  0  0  0  0
  -41.6300  -66.6000   48.9990 H   0  0  0  0  0  0  0  0  0  0  0  0
  -40.5940  -67.0920   50.4530 H   0  0  0  0  0  0  0  0  0  0  0  0
  -39.6090  -63.6370   51.1960 H   0  0  0  0  0  0  0  0  0  0  0  0
  -39.2870  -65.3590   51.5950 H   0  0  0  0  0  0  0  0  0  0  0  0
  -41.0180  -65.2980   53.0620 H   0  0  0  0  0  0  0  0  0  0  0  0
  -41.3280  -63.5950   52.6310 H   0  0  0  0  0  0  0  0  0  0  0  0
  -41.4850  -61.0470   48.1190 H   0  0  0  0  0  0  0  0  0  0  0  0
  -40.1910  -61.5710   46.0700 H   0  0  0  0  0  0  0  0  0  0  0  0
  -39.0570  -63.7910   45.8510 H   0  0  0  0  0  0  0  0  0  0  0  0
  -37.6170  -66.3240   46.0940 H   0  0  0  0  0  0  0  0  0  0  0  0
  -36.9380  -65.2080   47.2870 H   0  0  0  0  0  0  0  0  0  0  0  0
  -45.7050  -62.6990   52.1010 H   0  0  0  0  0  0  0  0  0  0  0  0
  2  1  1  0  0  0  0
  3 29  1  0  0  0  0
  3  2  2  0  0  0  0
  4  3  1  0  0  0  0
  5  4  2  0  0  0  0
  5  6  1  0  0  0  0
  6  7  2  0  0  0  0
  7  2  1  0  0  0  0
  7 31  1  0  0  0  0
  8  5  1  0  0  0  0
  9 26  1  0  0  0  0
  9  8  1  0  0  0  0
 10  9  2  0  0  0  0
 11 10  1  0  0  0  0
 11 16  1  0  0  0  0
 12 11  1  0  0  0  0
 12 35  1  0  0  0  0
 13 37  1  0  0  0  0
 13 12  1  0  0  0  0
 14 13  1  0  0  0  0
 14 15  1  0  0  0  0
 15 39  1  0  0  0  0
 15 16  1  0  0  0  0
 16 41  1  0  0  0  0
 16 40  1  0  0  0  0
 17 18  1  0  0  0  0
 17 14  1  0  0  0  0
 19 42  1  0  0  0  0
 19 18  2  0  0  0  0
 20 19  1  0  0  0  0
 21 20  2  0  0  0  0
 21 22  1  0  0  0  0
 22 17  2  0  0  0  0
 23 22  1  0  0  0  0
 23 24  2  0  0  0  0
 25 46  1  0  0  0  0
 25 23  1  0  0  0  0
 26 27  1  0  0  0  0
 27 28  2  0  0  0  0
 27  4  1  0  0  0  0
 30  6  1  0  0  0  0
 32  8  1  0  0  0  0
 33 10  1  0  0  0  0
 34 12  1  0  0  0  0
 36 13  1  0  0  0  0
 38 15  1  0  0  0  0
 43 20  1  0  0  0  0
 44 21  1  0  0  0  0
 45 25  1  0  0  0  0
 47 26  1  0  0  0  0
M  END
>  <Pose>
1

>  <Score>
-6.29

$$$$
