
 OpenBabel03202209423D

 38 42  0  0  1  0  0  0  0  0999 V2000
  -37.9470  -69.7850   50.9010 B   0  0  0  0  0  0  0  0  0  0  0  0
  -39.3290  -68.7640   51.7050 C   0  0  0  0  0  0  0  0  0  0  0  0
  -39.7070  -69.0370   52.9980 C   0  0  0  0  0  0  0  0  0  0  0  0
  -40.7120  -68.2800   53.5570 C   0  0  0  0  0  0  0  0  0  0  0  0
  -41.3430  -67.2700   52.8650 C   0  0  0  0  0  0  0  0  0  0  0  0
  -40.9610  -66.9920   51.5590 C   0  0  0  0  0  0  0  0  0  0  0  0
  -39.9410  -67.7620   50.9960 C   0  0  0  0  0  0  0  0  0  0  0  0
  -42.3860  -66.4870   53.4590 N   0  0  0  0  0  0  0  0  0  0  0  0
  -43.3610  -67.0400   54.3300 C   0  0  0  0  0  0  0  0  0  0  0  0
  -43.2290  -68.1330   54.9310 O   0  0  0  0  0  0  0  0  0  0  0  0
  -44.5290  -66.1210   54.3980 C   0  0  2  0  0  0  0  0  0  0  0  0
  -45.6030  -66.4970   53.4250 C   0  0  1  0  0  0  0  0  0  0  0  0
  -46.1380  -65.2230   53.1310 O   0  0  0  0  0  0  0  0  0  0  0  0
  -44.9460  -64.6520   52.6190 C   0  0  1  0  0  0  0  0  0  0  0  0
  -44.0280  -64.8140   53.7810 C   0  0  2  0  0  0  0  0  0  0  0  0
  -42.6440  -65.0920   53.3110 C   0  0  0  0  0  0  0  0  0  0  0  0
  -41.8670  -64.2410   52.8710 O   0  0  0  0  0  0  0  0  0  0  0  0
  -44.6040  -65.6790   51.6010 C   0  0  0  0  0  0  0  0  0  0  0  0
  -44.9620  -66.8380   52.1450 C   0  0  0  0  0  0  0  0  0  0  0  0
  -46.6110  -67.4400   53.9250 C   0  0  0  0  0  0  0  0  0  0  0  0
  -47.4180  -67.9610   52.9510 O   0  0  0  0  0  0  0  0  0  0  0  0
  -48.6840  -67.4540   53.1080 C   0  0  0  0  0  0  0  0  0  0  0  0
  -48.6320  -66.5500   54.2960 C   0  0  0  0  0  0  0  0  0  0  0  0
  -47.4170  -66.8690   54.8920 O   0  0  0  0  0  0  0  0  0  0  0  0
  -39.2400  -69.8280   53.5910 H   0  0  0  0  0  0  0  0  0  0  0  0
  -41.0390  -68.4720   54.5900 H   0  0  0  0  0  0  0  0  0  0  0  0
  -41.4620  -66.2000   51.0300 H   0  0  0  0  0  0  0  0  0  0  0  0
  -39.6440  -67.5460   49.9790 H   0  0  0  0  0  0  0  0  0  0  0  0
  -44.8720  -66.0080   55.4260 H   0  0  0  0  0  0  0  0  0  0  0  0
  -45.0790  -63.6540   52.2400 H   0  0  0  0  0  0  0  0  0  0  0  0
  -44.0520  -64.0000   54.5050 H   0  0  0  0  0  0  0  0  0  0  0  0
  -44.1590  -65.4480   50.6420 H   0  0  0  0  0  0  0  0  0  0  0  0
  -44.7680  -67.7860   51.6530 H   0  0  0  0  0  0  0  0  0  0  0  0
  -46.0680  -68.2880   54.4230 H   0  0  0  0  0  0  0  0  0  0  0  0
  -49.4570  -68.2330   53.2600 H   0  0  0  0  0  0  0  0  0  0  0  0
  -48.9160  -66.8310   52.2060 H   0  0  0  0  0  0  0  0  0  0  0  0
  -49.4900  -66.7630   54.9970 H   0  0  0  0  0  0  0  0  0  0  0  0
  -48.6280  -65.4630   54.0250 H   0  0  0  0  0  0  0  0  0  0  0  0
  1  2  1  0  0  0  0
  2  3  1  0  0  0  0
  3  4  2  0  0  0  0
  3 25  1  0  0  0  0
  4 26  1  0  0  0  0
  5  8  1  0  0  0  0
  5  4  1  0  0  0  0
  6  5  2  0  0  0  0
  7  6  1  0  0  0  0
  7  2  2  0  0  0  0
  8  9  1  0  0  0  0
  9 11  1  0  0  0  0
  9 10  2  0  0  0  0
 11 29  1  1  0  0  0
 12 20  1  1  0  0  0
 12 11  1  0  0  0  0
 13 12  1  0  0  0  0
 14 30  1  6  0  0  0
 14 13  1  0  0  0  0
 14 15  1  0  0  0  0
 15 11  1  0  0  0  0
 15 31  1  1  0  0  0
 16  8  1  0  0  0  0
 16 15  1  0  0  0  0
 17 16  2  0  0  0  0
 18 19  2  0  0  0  0
 18 14  1  0  0  0  0
 19 12  1  0  0  0  0
 20 34  1  0  0  0  0
 20 24  1  0  0  0  0
 21 22  1  0  0  0  0
 21 20  1  0  0  0  0
 22 35  1  0  0  0  0
 22 23  1  0  0  0  0
 23 24  1  0  0  0  0
 23 37  1  0  0  0  0
 27  6  1  0  0  0  0
 28  7  1  0  0  0  0
 32 18  1  0  0  0  0
 33 19  1  0  0  0  0
 36 22  1  0  0  0  0
 38 23  1  0  0  0  0
M  END
>  <Pose>
1

>  <Score>
-4.68

$$$$
