
 OpenBabel03162216053D

 38 42  0  0  1  0  0  0  0  0999 V2000
  -37.9720  -69.4760   50.9970 B   0  0  0  0  0  0  0  0  0  0  0  0
  -39.4100  -68.5010   51.7580 C   0  0  0  0  0  0  0  0  0  0  0  0
  -40.1590  -67.6670   50.9630 C   0  0  0  0  0  0  0  0  0  0  0  0
  -41.1970  -66.9720   51.5420 C   0  0  0  0  0  0  0  0  0  0  0  0
  -41.5010  -67.0870   52.8810 C   0  0  0  0  0  0  0  0  0  0  0  0
  -40.7450  -67.9290   53.6850 C   0  0  0  0  0  0  0  0  0  0  0  0
  -39.6940  -68.6330   53.0940 C   0  0  0  0  0  0  0  0  0  0  0  0
  -42.5860  -66.3600   53.4710 N   0  0  0  0  0  0  0  0  0  0  0  0
  -43.5060  -66.9500   54.3760 C   0  0  0  0  0  0  0  0  0  0  0  0
  -43.2880  -68.0110   55.0090 O   0  0  0  0  0  0  0  0  0  0  0  0
  -44.7330  -66.1130   54.4380 C   0  0  2  0  0  0  0  0  0  0  0  0
  -45.7950  -66.5940   53.4980 C   0  0  1  0  0  0  0  0  0  0  0  0
  -46.4230  -65.3700   53.1740 O   0  0  0  0  0  0  0  0  0  0  0  0
  -45.2820  -64.7350   52.6220 C   0  0  1  0  0  0  0  0  0  0  0  0
  -44.3360  -64.7950   53.7710 C   0  0  2  0  0  0  0  0  0  0  0  0
  -42.9440  -64.9910   53.2840 C   0  0  0  0  0  0  0  0  0  0  0  0
  -42.2350  -64.1030   52.8020 O   0  0  0  0  0  0  0  0  0  0  0  0
  -44.8860  -65.7680   51.6300 C   0  0  0  0  0  0  0  0  0  0  0  0
  -45.1540  -66.9310   52.2170 C   0  0  0  0  0  0  0  0  0  0  0  0
  -46.7260  -67.5880   54.0460 C   0  0  0  0  0  0  0  0  0  0  0  0
  -47.5490  -68.1550   53.1120 O   0  0  0  0  0  0  0  0  0  0  0  0
  -48.8310  -67.7150   53.3290 C   0  0  0  0  0  0  0  0  0  0  0  0
  -48.7720  -66.8050   54.5110 C   0  0  0  0  0  0  0  0  0  0  0  0
  -47.5150  -67.0560   55.0500 O   0  0  0  0  0  0  0  0  0  0  0  0
  -39.9590  -67.5390   49.8960 H   0  0  0  0  0  0  0  0  0  0  0  0
  -41.8170  -66.2960   50.9340 H   0  0  0  0  0  0  0  0  0  0  0  0
  -40.9950  -68.0090   54.7290 H   0  0  0  0  0  0  0  0  0  0  0  0
  -39.1060  -69.2880   53.7210 H   0  0  0  0  0  0  0  0  0  0  0  0
  -45.0660  -65.9900   55.4680 H   0  0  0  0  0  0  0  0  0  0  0  0
  -45.4910  -63.7610   52.2140 H   0  0  0  0  0  0  0  0  0  0  0  0
  -44.4050  -63.9610   54.4690 H   0  0  0  0  0  0  0  0  0  0  0  0
  -44.4740  -65.5380   50.6560 H   0  0  0  0  0  0  0  0  0  0  0  0
  -44.9020  -67.8790   51.7520 H   0  0  0  0  0  0  0  0  0  0  0  0
  -46.1150  -68.4030   54.5180 H   0  0  0  0  0  0  0  0  0  0  0  0
  -49.5530  -68.5340   53.5180 H   0  0  0  0  0  0  0  0  0  0  0  0
  -49.1390  -67.1090   52.4370 H   0  0  0  0  0  0  0  0  0  0  0  0
  -49.5840  -67.0610   55.2530 H   0  0  0  0  0  0  0  0  0  0  0  0
  -48.8400  -65.7210   54.2390 H   0  0  0  0  0  0  0  0  0  0  0  0
  1  2  1  0  0  0  0
  2  7  1  0  0  0  0
  3  4  1  0  0  0  0
  3  2  2  0  0  0  0
  4  5  2  0  0  0  0
  5  8  1  0  0  0  0
  5  6  1  0  0  0  0
  6 27  1  0  0  0  0
  7  6  2  0  0  0  0
  7 28  1  0  0  0  0
  8  9  1  0  0  0  0
  9 11  1  0  0  0  0
  9 10  2  0  0  0  0
 11 29  1  1  0  0  0
 12 20  1  1  0  0  0
 12 11  1  0  0  0  0
 13 12  1  0  0  0  0
 14 30  1  6  0  0  0
 14 13  1  0  0  0  0
 14 15  1  0  0  0  0
 15 11  1  0  0  0  0
 15 31  1  1  0  0  0
 16  8  1  0  0  0  0
 16 15  1  0  0  0  0
 17 16  2  0  0  0  0
 18 19  2  0  0  0  0
 18 14  1  0  0  0  0
 19 12  1  0  0  0  0
 20 34  1  0  0  0  0
 20 24  1  0  0  0  0
 21 22  1  0  0  0  0
 21 20  1  0  0  0  0
 22 35  1  0  0  0  0
 22 23  1  0  0  0  0
 23 24  1  0  0  0  0
 23 37  1  0  0  0  0
 25  3  1  0  0  0  0
 26  4  1  0  0  0  0
 32 18  1  0  0  0  0
 33 19  1  0  0  0  0
 36 22  1  0  0  0  0
 38 23  1  0  0  0  0
M  END
>  <Pose>
1

>  <Score>
-4.55

$$$$
