
 OpenBabel03202209423D

 58 61  0  0  0  0  0  0  0  0999 V2000
  -45.6690  -63.8570   50.5560 Cl  0  0  0  0  0  0  0  0  0  0  0  0
  -44.4160  -63.3900   49.4290 C   0  0  0  0  0  0  0  0  0  0  0  0
  -43.0660  -63.6030   49.6930 C   0  0  0  0  0  0  0  0  0  0  0  0
  -42.0840  -63.2320   48.8070 C   0  0  0  0  0  0  0  0  0  0  0  0
  -42.4550  -62.6340   47.6250 C   0  0  0  0  0  0  0  0  0  0  0  0
  -43.8150  -62.4220   47.3630 C   0  0  0  0  0  0  0  0  0  0  0  0
  -44.7990  -62.7920   48.2510 C   0  0  0  0  0  0  0  0  0  0  0  0
  -46.1630  -62.5740   47.9790 O   0  0  0  0  0  0  0  0  0  0  0  0
  -47.0010  -63.6010   47.5100 C   0  0  0  0  0  0  0  0  0  0  0  0
  -41.5290  -62.2770   46.7690 O   0  0  0  0  0  0  0  0  0  0  0  0
  -40.2500  -62.4620   46.9890 C   0  0  0  0  0  0  0  0  0  0  0  0
  -39.3770  -62.1000   46.1310 O   0  0  0  0  0  0  0  0  0  0  0  0
  -39.7640  -63.0570   48.1510 C   0  0  0  0  0  0  0  0  0  0  0  0
  -40.7240  -63.4400   49.0600 C   0  0  0  0  0  0  0  0  0  0  0  0
  -40.3410  -64.0780   50.3150 C   0  0  0  0  0  0  0  0  0  0  0  0
  -38.3060  -63.2390   48.3380 C   0  0  0  0  0  0  0  0  0  0  0  0
  -37.8380  -64.5210   47.7420 C   0  0  0  0  0  0  0  0  0  0  0  0
  -37.2370  -64.4580   46.6150 O   0  0  0  0  0  0  0  0  0  0  0  0
  -38.0040  -65.7700   48.3130 N   0  0  0  0  0  0  0  0  0  0  0  0
  -39.0240  -66.6880   47.9120 C   0  0  0  0  0  0  0  0  0  0  0  0
  -39.8990  -66.9810   49.1330 C   0  0  0  0  0  0  0  0  0  0  0  0
  -39.0820  -67.4520   50.2000 N   0  0  0  0  0  0  0  0  0  0  0  0
  -37.6290  -67.5250   49.9360 C   0  0  0  0  0  0  0  0  0  0  0  0
  -37.1270  -66.2150   49.3710 C   0  0  0  0  0  0  0  0  0  0  0  0
  -39.5390  -67.8430   51.4760 C   0  0  0  0  0  0  0  0  0  0  0  0
  -38.8020  -68.8000   52.0300 O   0  0  0  0  0  0  0  0  0  0  0  0
  -40.6420  -67.4000   52.2740 C   0  0  0  0  0  0  0  0  0  0  0  0
  -41.1180  -68.2270   53.3230 C   0  0  0  0  0  0  0  0  0  0  0  0
  -42.1740  -67.8420   54.1050 C   0  0  0  0  0  0  0  0  0  0  0  0
  -42.5760  -68.5960   55.0300 O   0  0  0  0  0  0  0  0  0  0  0  0
  -42.8160  -66.6800   53.9320 N   0  0  0  0  0  0  0  0  0  0  0  0
  -42.3690  -65.9010   52.9460 C   0  0  0  0  0  0  0  0  0  0  0  0
  -42.9460  -64.7840   52.7390 O   0  0  0  0  0  0  0  0  0  0  0  0
  -41.3080  -66.2590   52.1400 N   0  0  0  0  0  0  0  0  0  0  0  0
  -43.9290  -66.2920   54.7670 C   0  0  0  0  0  0  0  0  0  0  0  0
  -42.7580  -64.0710   50.6170 H   0  0  0  0  0  0  0  0  0  0  0  0
  -44.0860  -61.9510   46.4300 H   0  0  0  0  0  0  0  0  0  0  0  0
  -46.8190  -64.5760   47.9990 H   0  0  0  0  0  0  0  0  0  0  0  0
  -48.0450  -63.2530   47.5840 H   0  0  0  0  0  0  0  0  0  0  0  0
  -46.7150  -63.7660   46.4300 H   0  0  0  0  0  0  0  0  0  0  0  0
  -40.7860  -63.4460   51.1410 H   0  0  0  0  0  0  0  0  0  0  0  0
  -39.2780  -64.1220   50.5080 H   0  0  0  0  0  0  0  0  0  0  0  0
  -40.8330  -65.0680   50.4460 H   0  0  0  0  0  0  0  0  0  0  0  0
  -37.9170  -63.0170   49.3230 H   0  0  0  0  0  0  0  0  0  0  0  0
  -37.8410  -62.4490   47.6650 H   0  0  0  0  0  0  0  0  0  0  0  0
  -38.6160  -67.6700   47.5860 H   0  0  0  0  0  0  0  0  0  0  0  0
  -39.6380  -66.3250   47.0640 H   0  0  0  0  0  0  0  0  0  0  0  0
  -40.3870  -66.0300   49.4590 H   0  0  0  0  0  0  0  0  0  0  0  0
  -40.7070  -67.6790   48.8190 H   0  0  0  0  0  0  0  0  0  0  0  0
  -37.1400  -67.8350   50.8630 H   0  0  0  0  0  0  0  0  0  0  0  0
  -37.5010  -68.2930   49.1600 H   0  0  0  0  0  0  0  0  0  0  0  0
  -37.1570  -65.4670   50.1810 H   0  0  0  0  0  0  0  0  0  0  0  0
  -36.0970  -66.2820   48.9940 H   0  0  0  0  0  0  0  0  0  0  0  0
  -40.6010  -69.1670   53.4630 H   0  0  0  0  0  0  0  0  0  0  0  0
  -41.0360  -65.5800   51.4030 H   0  0  0  0  0  0  0  0  0  0  0  0
  -44.4250  -65.4150   54.2990 H   0  0  0  0  0  0  0  0  0  0  0  0
  -43.5700  -65.9220   55.7680 H   0  0  0  0  0  0  0  0  0  0  0  0
  -44.6630  -67.1060   54.9170 H   0  0  0  0  0  0  0  0  0  0  0  0
  2  3  1  0  0  0  0
  2  1  1  0  0  0  0
  3 36  1  0  0  0  0
  4 14  1  0  0  0  0
  4  3  2  0  0  0  0
  5  4  1  0  0  0  0
  6  5  2  0  0  0  0
  6  7  1  0  0  0  0
  7  2  2  0  0  0  0
  8  7  1  0  0  0  0
  9 39  1  0  0  0  0
  9  8  1  0  0  0  0
  9 38  1  0  0  0  0
 10 11  1  0  0  0  0
 10  5  1  0  0  0  0
 11 13  1  0  0  0  0
 12 11  2  0  0  0  0
 13 16  1  0  0  0  0
 13 14  2  0  0  0  0
 14 15  1  0  0  0  0
 15 43  1  0  0  0  0
 15 42  1  0  0  0  0
 15 41  1  0  0  0  0
 16 44  1  0  0  0  0
 17 19  1  0  0  0  0
 17 16  1  0  0  0  0
 18 17  2  0  0  0  0
 19 24  1  0  0  0  0
 20 19  1  0  0  0  0
 20 21  1  0  0  0  0
 21 48  1  0  0  0  0
 21 22  1  0  0  0  0
 22 25  1  0  0  0  0
 23 22  1  0  0  0  0
 23 50  1  0  0  0  0
 24 23  1  0  0  0  0
 24 52  1  0  0  0  0
 25 26  2  0  0  0  0
 25 27  1  0  0  0  0
 27 28  2  0  0  0  0
 28 54  1  0  0  0  0
 28 29  1  0  0  0  0
 29 30  2  0  0  0  0
 31 29  1  0  0  0  0
 31 35  1  0  0  0  0
 32 31  1  0  0  0  0
 33 32  2  0  0  0  0
 34 27  1  0  0  0  0
 34 32  1  0  0  0  0
 35 58  1  0  0  0  0
 35 57  1  0  0  0  0
 37  6  1  0  0  0  0
 40  9  1  0  0  0  0
 45 16  1  0  0  0  0
 46 20  1  0  0  0  0
 47 20  1  0  0  0  0
 49 21  1  0  0  0  0
 51 23  1  0  0  0  0
 53 24  1  0  0  0  0
 55 34  1  0  0  0  0
 56 35  1  0  0  0  0
M  END
>  <Pose>
1

>  <Score>
-6.39

$$$$
