
 OpenBabel03202209423D

 51 54  0  0  1  0  0  0  0  0999 V2000
  -50.8500  -68.8380   54.2300 Cl  0  0  0  0  0  0  0  0  0  0  0  0
  -49.5680  -67.8460   53.5700 C   0  0  0  0  0  0  0  0  0  0  0  0
  -48.4080  -67.5990   54.2690 C   0  0  0  0  0  0  0  0  0  0  0  0
  -47.3830  -66.7940   53.7270 C   0  0  0  0  0  0  0  0  0  0  0  0
  -47.6150  -66.2860   52.4830 C   0  0  0  0  0  0  0  0  0  0  0  0
  -48.8010  -66.5360   51.7630 C   0  0  0  0  0  0  0  0  0  0  0  0
  -49.7800  -67.3210   52.3160 C   0  0  0  0  0  0  0  0  0  0  0  0
  -46.2210  -66.5890   54.4970 N   0  0  0  0  0  0  0  0  0  0  0  0
  -45.0370  -66.0190   54.0570 C   0  0  0  0  0  0  0  0  0  0  0  0
  -44.9480  -65.3490   53.0230 O   0  0  0  0  0  0  0  0  0  0  0  0
  -43.7410  -66.1840   54.8250 C   0  0  0  0  0  0  0  0  0  0  0  0
  -42.6810  -66.5380   53.8710 N   0  0  0  0  0  0  0  0  0  0  0  0
  -41.8370  -67.6050   54.0020 C   0  0  1  0  0  0  0  0  0  0  0  0
  -41.0100  -67.6440   52.9440 N   0  0  0  0  0  0  0  0  0  0  0  0
  -41.2730  -66.6320   52.1080 C   0  0  0  0  0  0  0  0  0  0  0  0
  -42.3340  -65.9510   52.7230 C   0  0  0  0  0  0  0  0  0  0  0  0
  -40.6860  -66.2300   50.8410 C   0  0  0  0  0  0  0  0  0  0  0  0
  -39.6400  -66.8970   50.2650 C   0  0  0  0  0  0  0  0  0  0  0  0
  -39.0850  -66.5380   49.0510 C   0  0  0  0  0  0  0  0  0  0  0  0
  -39.5750  -65.4530   48.3410 C   0  0  0  0  0  0  0  0  0  0  0  0
  -40.6260  -64.7820   48.9170 C   0  0  0  0  0  0  0  0  0  0  0  0
  -41.1810  -65.1400   50.1300 C   0  0  0  0  0  0  0  0  0  0  0  0
  -39.0440  -65.0640   47.1230 O   0  0  0  0  0  0  0  0  0  0  0  0
  -38.4700  -63.7870   46.9080 C   0  0  0  0  0  0  0  0  0  0  0  0
  -40.1190  -68.7950   53.0910 C   0  0  0  0  0  0  0  0  0  0  0  0
  -40.7700  -69.6690   54.1460 C   0  0  0  0  0  0  0  0  0  0  0  0
  -41.5580  -68.7050   54.9590 C   0  0  0  0  0  0  0  0  0  0  0  0
  -48.2380  -68.1930   55.6070 C   0  0  0  0  0  0  0  0  0  0  0  0
  -46.8820  -65.6610   52.0020 H   0  0  0  0  0  0  0  0  0  0  0  0
  -48.9660  -66.1250   50.7760 H   0  0  0  0  0  0  0  0  0  0  0  0
  -50.7060  -67.5210   51.7560 H   0  0  0  0  0  0  0  0  0  0  0  0
  -46.2460  -66.9010   55.5160 H   0  0  0  0  0  0  0  0  0  0  0  0
  -43.5010  -65.1920   55.2360 H   0  0  0  0  0  0  0  0  0  0  0  0
  -43.8170  -66.9880   55.5640 H   0  0  0  0  0  0  0  0  0  0  0  0
  -42.8170  -65.0540   52.3280 H   0  0  0  0  0  0  0  0  0  0  0  0
  -39.2450  -67.7560   50.8320 H   0  0  0  0  0  0  0  0  0  0  0  0
  -38.2510  -67.1160   48.6560 H   0  0  0  0  0  0  0  0  0  0  0  0
  -41.0230  -63.9220   48.3660 H   0  0  0  0  0  0  0  0  0  0  0  0
  -42.0130  -64.5850   50.5660 H   0  0  0  0  0  0  0  0  0  0  0  0
  -39.2570  -63.0130   46.7450 H   0  0  0  0  0  0  0  0  0  0  0  0
  -37.8010  -63.4590   47.7160 H   0  0  0  0  0  0  0  0  0  0  0  0
  -37.8630  -63.8390   45.9820 H   0  0  0  0  0  0  0  0  0  0  0  0
  -39.0930  -68.5130   53.3310 H   0  0  0  0  0  0  0  0  0  0  0  0
  -40.1070  -69.4320   52.1760 H   0  0  0  0  0  0  0  0  0  0  0  0
  -40.0300  -70.2580   54.7020 H   0  0  0  0  0  0  0  0  0  0  0  0
  -41.5270  -70.3450   53.6430 H   0  0  0  0  0  0  0  0  0  0  0  0
  -42.5050  -69.1260   55.3590 H   0  0  0  0  0  0  0  0  0  0  0  0
  -40.9200  -68.3150   55.8000 H   0  0  0  0  0  0  0  0  0  0  0  0
  -49.1640  -68.7220   55.8960 H   0  0  0  0  0  0  0  0  0  0  0  0
  -47.4330  -68.9840   55.5950 H   0  0  0  0  0  0  0  0  0  0  0  0
  -47.9580  -67.4700   56.3940 H   0  0  0  0  0  0  0  0  0  0  0  0
  2  1  1  0  0  0  0
  2  3  1  0  0  0  0
  3 28  1  0  0  0  0
  4  3  2  0  0  0  0
  4  8  1  0  0  0  0
  5  4  1  0  0  0  0
  6  7  1  0  0  0  0
  6  5  2  0  0  0  0
  7  2  2  0  0  0  0
  8 32  1  0  0  0  0
  9  8  1  0  0  0  0
  9 11  1  0  0  0  0
 10  9  2  0  0  0  0
 11 33  1  0  0  0  0
 11 34  1  0  0  0  0
 12 13  1  0  0  0  0
 12 11  1  0  0  0  0
 13 14  1  1  0  0  0
 13 27  1  0  0  0  0
 14 25  1  0  0  0  0
 15 16  2  0  0  0  0
 15 14  1  0  0  0  0
 16 12  1  0  0  0  0
 17 15  1  0  0  0  0
 18 36  1  0  0  0  0
 18 17  1  0  0  0  0
 19 18  2  0  0  0  0
 20 21  2  0  0  0  0
 20 19  1  0  0  0  0
 21 22  1  0  0  0  0
 22 39  1  0  0  0  0
 22 17  2  0  0  0  0
 23 20  1  0  0  0  0
 24 23  1  0  0  0  0
 24 41  1  0  0  0  0
 25 43  1  0  0  0  0
 25 26  1  0  0  0  0
 26 45  1  0  0  0  0
 26 27  1  0  0  0  0
 27 47  1  0  0  0  0
 27 48  1  0  0  0  0
 28 49  1  0  0  0  0
 28 51  1  0  0  0  0
 29  5  1  0  0  0  0
 30  6  1  0  0  0  0
 31  7  1  0  0  0  0
 35 16  1  0  0  0  0
 37 19  1  0  0  0  0
 38 21  1  0  0  0  0
 40 24  1  0  0  0  0
 42 24  1  0  0  0  0
 44 25  1  0  0  0  0
 46 26  1  0  0  0  0
 50 28  1  0  0  0  0
M  END
>  <Pose>
1

>  <Score>
-5.80

$$$$
