
 OpenBabel03202209423D

 47 50  0  0  1  0  0  0  0  0999 V2000
  -48.3400  -68.3740   53.9590 Cl  0  0  0  0  0  0  0  0  0  0  0  0
  -47.9620  -66.9560   53.0090 C   0  0  0  0  0  0  0  0  0  0  0  0
  -46.7090  -66.3990   53.1440 C   0  0  0  0  0  0  0  0  0  0  0  0
  -46.4150  -65.2820   52.3930 C   0  0  0  0  0  0  0  0  0  0  0  0
  -47.3430  -64.7240   51.5250 C   0  0  0  0  0  0  0  0  0  0  0  0
  -48.6000  -65.2750   51.3830 C   0  0  0  0  0  0  0  0  0  0  0  0
  -48.8940  -66.3930   52.1350 C   0  0  0  0  0  0  0  0  0  0  0  0
  -44.8160  -64.5660   52.5610 Cl  0  0  0  0  0  0  0  0  0  0  0  0
  -45.7140  -66.9720   54.0550 C   0  0  0  0  0  0  0  0  0  0  0  0
  -44.4540  -66.8880   53.8320 N   0  0  0  0  0  0  0  0  0  0  0  0
  -43.5730  -67.4620   54.7520 N   0  0  0  0  0  0  0  0  0  0  0  0
  -42.3650  -68.0940   54.3520 C   0  0  0  0  0  0  0  0  0  0  0  0
  -41.5790  -67.7040   53.3370 N   0  0  0  0  0  0  0  0  0  0  0  0
  -40.5520  -68.5710   53.3090 C   0  0  0  0  0  0  0  0  0  0  0  0
  -39.4600  -68.6820   52.5140 N   0  0  0  0  0  0  0  0  0  0  0  0
  -38.5520  -69.6620   52.6870 C   0  0  0  0  0  0  0  0  0  0  0  0
  -38.7150  -70.5700   53.6740 N   0  0  0  0  0  0  0  0  0  0  0  0
  -39.7740  -70.5260   54.5050 C   0  0  0  0  0  0  0  0  0  0  0  0
  -40.6910  -69.5120   54.3070 C   0  0  0  0  0  0  0  0  0  0  0  0
  -41.8380  -69.1900   54.9480 N   0  0  0  0  0  0  0  0  0  0  0  0
  -39.9160  -71.4900   55.5290 N   0  0  0  0  0  0  0  0  0  0  0  0
  -41.7210  -66.6080   52.4240 C   0  0  1  0  0  0  0  0  0  0  0  0
  -40.7460  -65.6300   52.6020 O   0  0  0  0  0  0  0  0  0  0  0  0
  -40.8870  -64.8850   51.4320 C   0  0  2  0  0  0  0  0  0  0  0  0
  -40.7380  -65.9720   50.3780 C   0  0  1  0  0  0  0  0  0  0  0  0
  -41.5870  -67.0710   50.9840 C   0  0  2  0  0  0  0  0  0  0  0  0
  -42.8170  -67.0470   50.3240 O   0  0  0  0  0  0  0  0  0  0  0  0
  -41.2220  -65.5640   49.1430 O   0  0  0  0  0  0  0  0  0  0  0  0
  -39.8340  -63.8200   51.2910 C   0  0  0  0  0  0  0  0  0  0  0  0
  -40.0320  -63.0050   50.2030 O   0  0  0  0  0  0  0  0  0  0  0  0
  -47.1200  -63.8470   50.9320 H   0  0  0  0  0  0  0  0  0  0  0  0
  -49.3550  -64.8760   50.7200 H   0  0  0  0  0  0  0  0  0  0  0  0
  -49.8840  -66.8480   52.0400 H   0  0  0  0  0  0  0  0  0  0  0  0
  -46.0410  -67.4830   54.9460 H   0  0  0  0  0  0  0  0  0  0  0  0
  -43.8480  -67.4050   55.7610 H   0  0  0  0  0  0  0  0  0  0  0  0
  -37.6780  -69.7580   52.0570 H   0  0  0  0  0  0  0  0  0  0  0  0
  -39.2770  -71.5230   56.3420 H   0  0  0  0  0  0  0  0  0  0  0  0
  -40.6820  -72.1840   55.4630 H   0  0  0  0  0  0  0  0  0  0  0  0
  -42.7040  -66.0930   52.5140 H   0  0  0  0  0  0  0  0  0  0  0  0
  -41.9060  -64.5070   51.3870 H   0  0  0  0  0  0  0  0  0  0  0  0
  -39.6630  -66.2950   50.3230 H   0  0  0  0  0  0  0  0  0  0  0  0
  -41.1030  -68.0650   50.9170 H   0  0  0  0  0  0  0  0  0  0  0  0
  -42.7810  -66.5300   49.4950 H   0  0  0  0  0  0  0  0  0  0  0  0
  -42.0480  -66.0880   48.9600 H   0  0  0  0  0  0  0  0  0  0  0  0
  -38.8580  -64.3420   51.1900 H   0  0  0  0  0  0  0  0  0  0  0  0
  -39.7890  -63.2790   52.2590 H   0  0  0  0  0  0  0  0  0  0  0  0
  -39.6030  -62.1290   50.3140 H   0  0  0  0  0  0  0  0  0  0  0  0
  2  3  1  0  0  0  0
  2  1  1  0  0  0  0
  3  9  1  0  0  0  0
  4  8  1  0  0  0  0
  4  3  2  0  0  0  0
  5  4  1  0  0  0  0
  6  5  2  0  0  0  0
  6  7  1  0  0  0  0
  7  2  2  0  0  0  0
  9 34  1  0  0  0  0
 10  9  2  0  0  0  0
 10 11  1  0  0  0  0
 11 35  1  0  0  0  0
 12 11  1  0  0  0  0
 12 20  2  0  0  0  0
 13 12  1  0  0  0  0
 14 13  1  0  0  0  0
 14 19  2  0  0  0  0
 15 16  2  0  0  0  0
 15 14  1  0  0  0  0
 16 17  1  0  0  0  0
 17 18  2  0  0  0  0
 18 21  1  0  0  0  0
 19 18  1  0  0  0  0
 19 20  1  0  0  0  0
 21 37  1  0  0  0  0
 22 39  1  1  0  0  0
 22 23  1  0  0  0  0
 22 13  1  0  0  0  0
 24 40  1  6  0  0  0
 24 23  1  0  0  0  0
 25 41  1  6  0  0  0
 25 26  1  0  0  0  0
 25 24  1  0  0  0  0
 26 42  1  6  0  0  0
 26 22  1  0  0  0  0
 27 26  1  0  0  0  0
 28 25  1  0  0  0  0
 29 24  1  0  0  0  0
 29 46  1  0  0  0  0
 30 47  1  0  0  0  0
 30 29  1  0  0  0  0
 31  5  1  0  0  0  0
 32  6  1  0  0  0  0
 33  7  1  0  0  0  0
 36 16  1  0  0  0  0
 38 21  1  0  0  0  0
 43 27  1  0  0  0  0
 44 28  1  0  0  0  0
 45 29  1  0  0  0  0
M  END
>  <Pose>
1

>  <Score>
-9.57

$$$$
