
 OpenBabel03202209423D

 49 52  0  0  1  0  0  0  0  0999 V2000
  -44.2730  -63.3320   45.6660 Cl  0  0  0  0  0  0  0  0  0  0  0  0
  -44.6820  -63.2960   47.3680 C   0  0  0  0  0  0  0  0  0  0  0  0
  -43.7100  -63.1150   48.3420 C   0  0  0  0  0  0  0  0  0  0  0  0
  -44.0570  -63.0920   49.6670 C   0  0  0  0  0  0  0  0  0  0  0  0
  -45.3810  -63.2450   50.1070 C   0  0  0  0  0  0  0  0  0  0  0  0
  -46.3200  -63.4230   49.1290 C   0  0  0  0  0  0  0  0  0  0  0  0
  -45.9820  -63.4480   47.7820 C   0  0  0  0  0  0  0  0  0  0  0  0
  -45.6800  -63.2230   51.4850 N   0  0  0  0  0  0  0  0  0  0  0  0
  -46.6960  -63.9040   52.1620 C   0  0  0  0  0  0  0  0  0  0  0  0
  -47.4930  -63.2690   52.8990 O   0  0  0  0  0  0  0  0  0  0  0  0
  -46.8740  -65.4000   52.0420 C   0  0  0  0  0  0  0  0  0  0  0  0
  -45.8290  -66.0020   52.8500 N   0  0  0  0  0  0  0  0  0  0  0  0
  -45.8180  -65.4160   54.2060 C   0  0  0  0  0  0  0  0  0  0  0  0
  -44.3640  -65.6680   54.6570 C   0  0  0  0  0  0  0  0  0  0  0  0
  -44.0570  -66.9780   54.0630 N   0  0  0  0  0  0  0  0  0  0  0  0
  -45.1300  -67.9210   54.0940 C   0  0  0  0  0  0  0  0  0  0  0  0
  -46.1550  -67.4330   53.0570 C   0  0  0  0  0  0  0  0  0  0  0  0
  -42.7840  -67.1870   53.5130 C   0  0  2  0  0  0  0  0  0  0  0  0
  -42.3640  -66.4470   52.4410 N   0  0  0  0  0  0  0  0  0  0  0  0
  -41.1760  -66.5960   51.8570 C   0  0  0  0  0  0  0  0  0  0  0  0
  -40.3230  -67.5150   52.3230 N   0  0  0  0  0  0  0  0  0  0  0  0
  -40.6170  -68.2940   53.3590 C   0  0  0  0  0  0  0  0  0  0  0  0
  -39.9620  -69.2750   54.0120 N   0  0  0  0  0  0  0  0  0  0  0  0
  -40.7600  -69.6870   54.9630 N   0  0  0  0  0  0  0  0  0  0  0  0
  -41.8980  -69.0100   54.9440 N   0  0  0  0  0  0  0  0  0  0  0  0
  -41.8670  -68.1270   53.9630 C   0  0  0  0  0  0  0  0  0  0  0  0
  -38.6380  -69.8070   53.7520 C   0  0  0  0  0  0  0  0  0  0  0  0
  -38.4370  -70.0900   52.2790 C   0  0  0  0  0  0  0  0  0  0  0  0
  -42.6920  -62.9950   48.0060 H   0  0  0  0  0  0  0  0  0  0  0  0
  -43.2880  -62.9510   50.4090 H   0  0  0  0  0  0  0  0  0  0  0  0
  -47.3630  -63.5590   49.3470 H   0  0  0  0  0  0  0  0  0  0  0  0
  -46.7780  -63.5930   47.0480 H   0  0  0  0  0  0  0  0  0  0  0  0
  -45.0660  -62.5840   52.0810 H   0  0  0  0  0  0  0  0  0  0  0  0
  -47.8900  -65.6360   52.3630 H   0  0  0  0  0  0  0  0  0  0  0  0
  -46.7540  -65.6030   50.9580 H   0  0  0  0  0  0  0  0  0  0  0  0
  -46.4550  -65.9680   54.9080 H   0  0  0  0  0  0  0  0  0  0  0  0
  -46.0890  -64.3700   54.2010 H   0  0  0  0  0  0  0  0  0  0  0  0
  -43.7830  -64.8520   54.1950 H   0  0  0  0  0  0  0  0  0  0  0  0
  -44.2750  -65.6820   55.7400 H   0  0  0  0  0  0  0  0  0  0  0  0
  -45.6170  -67.9360   55.1050 H   0  0  0  0  0  0  0  0  0  0  0  0
  -44.8500  -68.9340   53.7920 H   0  0  0  0  0  0  0  0  0  0  0  0
  -46.0900  -68.0100   52.1470 H   0  0  0  0  0  0  0  0  0  0  0  0
  -47.1710  -67.5540   53.4910 H   0  0  0  0  0  0  0  0  0  0  0  0
  -40.9170  -65.9580   50.9980 H   0  0  0  0  0  0  0  0  0  0  0  0
  -37.8910  -69.0620   54.0950 H   0  0  0  0  0  0  0  0  0  0  0  0
  -38.4290  -70.7450   54.3010 H   0  0  0  0  0  0  0  0  0  0  0  0
  -38.0540  -69.1520   51.8200 H   0  0  0  0  0  0  0  0  0  0  0  0
  -37.7140  -70.9240   52.2000 H   0  0  0  0  0  0  0  0  0  0  0  0
  -39.3900  -70.4280   51.8040 H   0  0  0  0  0  0  0  0  0  0  0  0
  1  2  1  0  0  0  0
  2  7  2  0  0  0  0
  2  3  1  0  0  0  0
  3  4  2  0  0  0  0
  4  5  1  0  0  0  0
  4 30  1  0  0  0  0
  5  8  1  0  0  0  0
  6 31  1  0  0  0  0
  6  5  2  0  0  0  0
  7  6  1  0  0  0  0
  8 33  1  0  0  0  0
  8  9  1  0  0  0  0
  9 10  2  0  0  0  0
 11  9  1  0  0  0  0
 11 34  1  0  0  0  0
 11 12  1  0  0  0  0
 12 17  1  0  0  0  0
 12 13  1  0  0  0  0
 13 14  1  0  0  0  0
 13 36  1  0  0  0  0
 14 39  1  0  0  0  0
 15 16  1  0  0  0  0
 15 14  1  0  0  0  0
 16 40  1  0  0  0  0
 17 43  1  0  0  0  0
 17 16  1  0  0  0  0
 18 26  1  0  0  0  0
 18 15  1  6  0  0  0
 19 18  1  0  0  0  0
 20 21  1  0  0  0  0
 20 19  2  0  0  0  0
 21 22  1  0  0  0  0
 22 26  2  0  0  0  0
 22 23  1  0  0  0  0
 23 24  1  0  0  0  0
 25 24  2  0  0  0  0
 26 25  1  0  0  0  0
 27 23  1  0  0  0  0
 27 45  1  0  0  0  0
 27 46  1  0  0  0  0
 28 27  1  0  0  0  0
 29  3  1  0  0  0  0
 32  7  1  0  0  0  0
 35 11  1  0  0  0  0
 37 13  1  0  0  0  0
 38 14  1  0  0  0  0
 41 16  1  0  0  0  0
 42 17  1  0  0  0  0
 44 20  1  0  0  0  0
 47 28  1  0  0  0  0
 48 28  1  0  0  0  0
 49 28  1  0  0  0  0
M  END
>  <Pose>
1

>  <Score>
-6.01

$$$$
