
 OpenBabel03202209423D

 49 52  0  0  1  0  0  0  0  0999 V2000
  -40.1180  -66.1910   49.6860 Cl  0  0  0  0  0  0  0  0  0  0  0  0
  -39.6790  -67.4990   50.7640 C   0  0  0  0  0  0  0  0  0  0  0  0
  -38.4110  -68.0270   50.7340 C   0  0  0  0  0  0  0  0  0  0  0  0
  -38.1500  -69.0510   51.6110 C   0  0  0  0  0  0  0  0  0  0  0  0
  -39.0970  -69.5560   52.5040 C   0  0  0  0  0  0  0  0  0  0  0  0
  -40.3640  -69.0360   52.5430 C   0  0  0  0  0  0  0  0  0  0  0  0
  -40.6180  -67.9880   51.6380 C   0  0  0  0  0  0  0  0  0  0  0  0
  -41.4000  -69.4510   53.4080 N   0  0  0  0  0  0  0  0  0  0  0  0
  -41.7480  -68.7700   54.5850 C   0  0  0  0  0  0  0  0  0  0  0  0
  -41.8320  -69.3330   55.6880 O   0  0  0  0  0  0  0  0  0  0  0  0
  -42.0430  -67.2960   54.5730 C   0  0  0  0  0  0  0  0  0  0  0  0
  -43.3920  -67.0120   54.1960 N   0  0  0  0  0  0  0  0  0  0  0  0
  -44.4080  -67.8960   54.3030 C   0  0  0  0  0  0  0  0  0  0  0  0
  -45.6570  -67.5510   53.9260 N   0  0  0  0  0  0  0  0  0  0  0  0
  -45.9600  -66.3450   53.4330 C   0  0  0  0  0  0  0  0  0  0  0  0
  -47.2000  -65.9920   53.0550 N   0  0  0  0  0  0  0  0  0  0  0  0
  -47.5310  -64.7890   52.5580 C   0  0  0  0  0  0  0  0  0  0  0  0
  -46.5220  -63.8840   52.4420 N   0  0  0  0  0  0  0  0  0  0  0  0
  -45.2680  -64.1940   52.8080 C   0  0  0  0  0  0  0  0  0  0  0  0
  -44.9390  -65.4330   53.3170 C   0  0  2  0  0  0  0  0  0  0  0  0
  -43.6570  -65.7710   53.6990 C   0  0  0  0  0  0  0  0  0  0  0  0
  -42.7670  -64.8950   53.5680 O   0  0  0  0  0  0  0  0  0  0  0  0
  -48.8510  -64.4560   52.1720 N   0  0  0  0  0  0  0  0  0  0  0  0
  -49.7540  -63.9420   53.1750 C   0  0  0  0  0  0  0  0  0  0  0  0
  -50.5940  -62.8260   52.5560 C   0  0  0  0  0  0  0  0  0  0  0  0
  -51.1460  -63.2110   51.3360 O   0  0  0  0  0  0  0  0  0  0  0  0
  -50.0850  -63.3270   50.4370 C   0  0  0  0  0  0  0  0  0  0  0  0
  -49.3410  -64.6070   50.8210 C   0  0  0  0  0  0  0  0  0  0  0  0
  -37.4350  -67.5470   49.8500 O   0  0  0  0  0  0  0  0  0  0  0  0
  -36.1060  -68.0050   49.9560 C   0  0  0  0  0  0  0  0  0  0  0  0
  -37.1430  -69.4880   51.6020 H   0  0  0  0  0  0  0  0  0  0  0  0
  -38.8040  -70.3530   53.1370 H   0  0  0  0  0  0  0  0  0  0  0  0
  -41.6330  -67.5780   51.6770 H   0  0  0  0  0  0  0  0  0  0  0  0
  -41.9490  -70.3390   53.1540 H   0  0  0  0  0  0  0  0  0  0  0  0
  -41.8460  -66.8300   55.5460 H   0  0  0  0  0  0  0  0  0  0  0  0
  -41.3690  -66.8270   53.8300 H   0  0  0  0  0  0  0  0  0  0  0  0
  -44.1600  -68.8700   54.7020 H   0  0  0  0  0  0  0  0  0  0  0  0
  -44.4440  -63.4770   52.7200 H   0  0  0  0  0  0  0  0  0  0  0  0
  -50.4470  -64.7260   53.5530 H   0  0  0  0  0  0  0  0  0  0  0  0
  -49.1490  -63.4790   53.9760 H   0  0  0  0  0  0  0  0  0  0  0  0
  -51.4380  -62.6120   53.2400 H   0  0  0  0  0  0  0  0  0  0  0  0
  -49.9560  -61.9380   52.3640 H   0  0  0  0  0  0  0  0  0  0  0  0
  -49.4140  -62.4670   50.5750 H   0  0  0  0  0  0  0  0  0  0  0  0
  -50.4000  -63.3760   49.3920 H   0  0  0  0  0  0  0  0  0  0  0  0
  -50.0150  -65.4800   50.7080 H   0  0  0  0  0  0  0  0  0  0  0  0
  -48.4560  -64.6640   50.1530 H   0  0  0  0  0  0  0  0  0  0  0  0
  -36.1360  -69.1180   49.9820 H   0  0  0  0  0  0  0  0  0  0  0  0
  -35.6080  -67.6710   50.8750 H   0  0  0  0  0  0  0  0  0  0  0  0
  -35.5460  -67.7430   49.0350 H   0  0  0  0  0  0  0  0  0  0  0  0
  1  2  1  0  0  0  0
  2  7  1  0  0  0  0
  3  2  2  0  0  0  0
  3  4  1  0  0  0  0
  4  5  2  0  0  0  0
  5  6  1  0  0  0  0
  5 32  1  0  0  0  0
  6  8  1  0  0  0  0
  7 33  1  0  0  0  0
  7  6  2  0  0  0  0
  8  9  1  0  0  0  0
  9 10  2  0  0  0  0
 11  9  1  0  0  0  0
 11 35  1  0  0  0  0
 12 13  1  0  0  0  0
 12 11  1  0  0  0  0
 13 37  1  0  0  0  0
 14 13  1  0  0  0  0
 15 14  2  0  0  0  0
 16 15  1  0  0  0  0
 17 16  2  0  0  0  0
 18 17  1  0  0  0  0
 18 19  2  0  0  0  0
 20 19  1  6  0  0  0
 20 15  1  0  0  0  0
 20 21  1  0  0  0  0
 21 12  1  0  0  0  0
 22 21  2  0  0  0  0
 23 17  1  0  0  0  0
 23 24  1  0  0  0  0
 24 39  1  0  0  0  0
 24 40  1  0  0  0  0
 25 24  1  0  0  0  0
 25 41  1  0  0  0  0
 26 25  1  0  0  0  0
 27 43  1  0  0  0  0
 27 28  1  0  0  0  0
 27 26  1  0  0  0  0
 28 23  1  0  0  0  0
 29 30  1  0  0  0  0
 29  3  1  0  0  0  0
 30 47  1  0  0  0  0
 30 48  1  0  0  0  0
 31  4  1  0  0  0  0
 34  8  1  0  0  0  0
 36 11  1  0  0  0  0
 38 19  1  0  0  0  0
 42 25  1  0  0  0  0
 44 27  1  0  0  0  0
 45 28  1  0  0  0  0
 46 28  1  0  0  0  0
 49 30  1  0  0  0  0
M  END
>  <Pose>
1

>  <Score>
-6.45

$$$$
