
 OpenBabel03202209423D

 38 41  0  0  0  0  0  0  0  0999 V2000
  -48.3320  -65.3910   49.4570 Cl  0  0  0  0  0  0  0  0  0  0  0  0
  -46.8960  -64.5040   49.9480 C   0  0  0  0  0  0  0  0  0  0  0  0
  -46.3200  -64.7310   51.1820 C   0  0  0  0  0  0  0  0  0  0  0  0
  -45.2040  -64.0410   51.5650 C   0  0  0  0  0  0  0  0  0  0  0  0
  -44.6730  -63.1200   50.6910 C   0  0  0  0  0  0  0  0  0  0  0  0
  -45.2310  -62.8780   49.4550 C   0  0  0  0  0  0  0  0  0  0  0  0
  -46.3580  -63.5790   49.0780 C   0  0  0  0  0  0  0  0  0  0  0  0
  -44.5290  -64.2290   52.8710 C   0  0  0  0  0  0  0  0  0  0  0  0
  -45.1480  -65.3640   53.5110 N   0  0  0  0  0  0  0  0  0  0  0  0
  -46.5910  -65.4140   53.4930 C   0  0  0  0  0  0  0  0  0  0  0  0
  -46.9790  -65.7500   52.0490 C   0  0  0  0  0  0  0  0  0  0  0  0
  -44.4020  -66.3930   54.1320 C   0  0  0  0  0  0  0  0  0  0  0  0
  -45.0030  -67.3690   54.6530 O   0  0  0  0  0  0  0  0  0  0  0  0
  -42.9220  -66.3930   54.2110 C   0  0  0  0  0  0  0  0  0  0  0  0
  -42.4330  -67.4700   54.9480 O   0  0  0  0  0  0  0  0  0  0  0  0
  -41.3850  -68.2830   54.5380 C   0  0  0  0  0  0  0  0  0  0  0  0
  -40.7970  -68.0490   53.3490 N   0  0  0  0  0  0  0  0  0  0  0  0
  -39.7890  -68.7920   52.8990 N   0  0  0  0  0  0  0  0  0  0  0  0
  -39.2920  -69.8210   53.5970 C   0  0  0  0  0  0  0  0  0  0  0  0
  -38.2860  -70.3830   52.8980 N   0  0  0  0  0  0  0  0  0  0  0  0
  -38.1720  -69.7020   51.7840 N   0  0  0  0  0  0  0  0  0  0  0  0
  -39.0840  -68.7150   51.7560 C   0  0  0  0  0  0  0  0  0  0  0  0
  -39.8750  -70.0940   54.8290 C   0  0  0  0  0  0  0  0  0  0  0  0
  -40.9150  -69.3270   55.2950 C   0  0  0  0  0  0  0  0  0  0  0  0
  -43.7860  -62.5440   50.9440 H   0  0  0  0  0  0  0  0  0  0  0  0
  -44.7890  -62.1370   48.7740 H   0  0  0  0  0  0  0  0  0  0  0  0
  -46.8390  -63.4320   48.1220 H   0  0  0  0  0  0  0  0  0  0  0  0
  -44.6590  -63.3630   53.5520 H   0  0  0  0  0  0  0  0  0  0  0  0
  -43.4410  -64.4140   52.7680 H   0  0  0  0  0  0  0  0  0  0  0  0
  -47.0110  -66.1600   54.1920 H   0  0  0  0  0  0  0  0  0  0  0  0
  -47.0400  -64.4280   53.7240 H   0  0  0  0  0  0  0  0  0  0  0  0
  -48.0570  -65.7180   51.8900 H   0  0  0  0  0  0  0  0  0  0  0  0
  -46.5620  -66.7300   51.7670 H   0  0  0  0  0  0  0  0  0  0  0  0
  -42.5110  -65.4610   54.6490 H   0  0  0  0  0  0  0  0  0  0  0  0
  -42.5310  -66.4440   53.1650 H   0  0  0  0  0  0  0  0  0  0  0  0
  -39.2540  -67.9680   50.9710 H   0  0  0  0  0  0  0  0  0  0  0  0
  -39.4830  -70.9100   55.3870 H   0  0  0  0  0  0  0  0  0  0  0  0
  -41.3920  -69.5080   56.2480 H   0  0  0  0  0  0  0  0  0  0  0  0
  1  2  1  0  0  0  0
  2  3  1  0  0  0  0
  3  4  2  0  0  0  0
  3 11  1  0  0  0  0
  4  8  1  0  0  0  0
  5 25  1  0  0  0  0
  5  4  1  0  0  0  0
  6  5  2  0  0  0  0
  7  6  1  0  0  0  0
  7  2  2  0  0  0  0
  8  9  1  0  0  0  0
  8 28  1  0  0  0  0
  9 12  1  0  0  0  0
 10  9  1  0  0  0  0
 10 31  1  0  0  0  0
 10 30  1  0  0  0  0
 11 10  1  0  0  0  0
 12 14  1  0  0  0  0
 12 13  2  0  0  0  0
 14 34  1  0  0  0  0
 14 15  1  0  0  0  0
 16 15  1  0  0  0  0
 16 24  1  0  0  0  0
 17 16  2  0  0  0  0
 18 17  1  0  0  0  0
 18 19  1  0  0  0  0
 19 23  1  0  0  0  0
 20 19  2  0  0  0  0
 21 20  1  0  0  0  0
 22 21  2  0  0  0  0
 22 18  1  0  0  0  0
 23 24  2  0  0  0  0
 23 37  1  0  0  0  0
 24 38  1  0  0  0  0
 26  6  1  0  0  0  0
 27  7  1  0  0  0  0
 29  8  1  0  0  0  0
 32 11  1  0  0  0  0
 33 11  1  0  0  0  0
 35 14  1  0  0  0  0
 36 22  1  0  0  0  0
M  END
>  <Pose>
1

>  <Score>
-5.90

$$$$
