
 OpenBabel03202209423D

 42 45  0  0  1  0  0  0  0  0999 V2000
  -43.6690  -64.5910   51.5360 S   0  0  0  0  0  0  0  0  0  0  0  0
  -43.9030  -63.2200   50.9960 O   0  0  0  0  0  0  0  0  0  0  0  0
  -44.8130  -65.4780   51.1210 O   0  0  0  0  0  0  0  0  0  0  0  0
  -43.6400  -64.5520   53.2570 N   0  0  0  0  0  0  0  0  0  0  0  0
  -42.9140  -65.6470   53.8190 C   0  0  0  0  0  0  0  0  0  0  0  0
  -43.7850  -66.2700   54.8960 C   0  0  1  0  0  0  0  0  0  0  0  0
  -45.1760  -65.9310   54.4020 C   0  0  0  0  0  0  0  0  0  0  0  0
  -44.9450  -64.5240   53.8390 C   0  0  0  0  0  0  0  0  0  0  0  0
  -43.6190  -67.6760   54.8230 O   0  0  0  0  0  0  0  0  0  0  0  0
  -42.3860  -68.2590   54.5780 C   0  0  0  0  0  0  0  0  0  0  0  0
  -41.9700  -69.1790   55.4950 N   0  0  0  0  0  0  0  0  0  0  0  0
  -40.7780  -69.7620   55.2840 C   0  0  0  0  0  0  0  0  0  0  0  0
  -39.9870  -69.4590   54.1940 C   0  0  0  0  0  0  0  0  0  0  0  0
  -40.4590  -68.5190   53.2980 C   0  0  0  0  0  0  0  0  0  0  0  0
  -41.6580  -67.9350   53.5110 N   0  0  0  0  0  0  0  0  0  0  0  0
  -38.4340  -70.2260   53.9320 Cl  0  0  0  0  0  0  0  0  0  0  0  0
  -42.1850  -65.2400   50.8780 C   0  0  0  0  0  0  0  0  0  0  0  0
  -41.1070  -64.4130   50.6330 C   0  0  0  0  0  0  0  0  0  0  0  0
  -39.9110  -64.8770   50.1130 C   0  0  0  0  0  0  0  0  0  0  0  0
  -39.7640  -66.2200   49.8200 C   0  0  0  0  0  0  0  0  0  0  0  0
  -40.8380  -67.0360   50.0680 C   0  0  0  0  0  0  0  0  0  0  0  0
  -42.0310  -66.5780   50.5850 C   0  0  0  0  0  0  0  0  0  0  0  0
  -38.5500  -66.6420   49.3030 O   0  0  0  0  0  0  0  0  0  0  0  0
  -37.6660  -65.7920   48.5920 C   0  0  0  0  0  0  0  0  0  0  0  0
  -37.7490  -64.3540   49.0290 C   0  0  0  0  0  0  0  0  0  0  0  0
  -38.8310  -64.0620   49.8640 O   0  0  0  0  0  0  0  0  0  0  0  0
  -42.0220  -65.2340   54.3450 H   0  0  0  0  0  0  0  0  0  0  0  0
  -42.5540  -66.3770   53.0960 H   0  0  0  0  0  0  0  0  0  0  0  0
  -43.5650  -65.8570   55.8870 H   0  0  0  0  0  0  0  0  0  0  0  0
  -45.5070  -66.6240   53.6330 H   0  0  0  0  0  0  0  0  0  0  0  0
  -45.8620  -65.8220   55.2640 H   0  0  0  0  0  0  0  0  0  0  0  0
  -45.7500  -64.3060   53.0990 H   0  0  0  0  0  0  0  0  0  0  0  0
  -44.9890  -63.8170   54.6720 H   0  0  0  0  0  0  0  0  0  0  0  0
  -40.3890  -70.4980   55.9710 H   0  0  0  0  0  0  0  0  0  0  0  0
  -39.8510  -68.2590   52.4200 H   0  0  0  0  0  0  0  0  0  0  0  0
  -41.2150  -63.3530   50.8590 H   0  0  0  0  0  0  0  0  0  0  0  0
  -40.7020  -68.0980   49.8290 H   0  0  0  0  0  0  0  0  0  0  0  0
  -42.8580  -67.2350   50.7700 H   0  0  0  0  0  0  0  0  0  0  0  0
  -36.6440  -66.1940   48.7030 H   0  0  0  0  0  0  0  0  0  0  0  0
  -37.9460  -65.9000   47.5060 H   0  0  0  0  0  0  0  0  0  0  0  0
  -36.7650  -64.0980   49.5010 H   0  0  0  0  0  0  0  0  0  0  0  0
  -37.8400  -63.7330   48.1130 H   0  0  0  0  0  0  0  0  0  0  0  0
  1  4  1  0  0  0  0
  2  1  2  0  0  0  0
  3  1  2  0  0  0  0
  4  5  1  0  0  0  0
  4  8  1  0  0  0  0
  5 27  1  0  0  0  0
  5  6  1  0  0  0  0
  6 29  1  1  0  0  0
  7  6  1  0  0  0  0
  7 31  1  0  0  0  0
  8  7  1  0  0  0  0
  8 33  1  0  0  0  0
  9  6  1  0  0  0  0
 10  9  1  0  0  0  0
 10 11  2  0  0  0  0
 12 11  1  0  0  0  0
 12 34  1  0  0  0  0
 13 12  2  0  0  0  0
 14 15  1  0  0  0  0
 14 13  1  0  0  0  0
 15 10  2  0  0  0  0
 16 13  1  0  0  0  0
 17  1  1  0  0  0  0
 18 36  1  0  0  0  0
 18 17  1  0  0  0  0
 19 18  2  0  0  0  0
 20 21  2  0  0  0  0
 20 19  1  0  0  0  0
 21 22  1  0  0  0  0
 22 38  1  0  0  0  0
 22 17  2  0  0  0  0
 23 20  1  0  0  0  0
 24 39  1  0  0  0  0
 24 25  1  0  0  0  0
 24 23  1  0  0  0  0
 25 41  1  0  0  0  0
 25 26  1  0  0  0  0
 26 19  1  0  0  0  0
 28  5  1  0  0  0  0
 30  7  1  0  0  0  0
 32  8  1  0  0  0  0
 35 14  1  0  0  0  0
 37 21  1  0  0  0  0
 40 24  1  0  0  0  0
 42 25  1  0  0  0  0
M  END
>  <Pose>
1

>  <Score>
-6.36

$$$$
