
 OpenBabel03202209423D

 51 54  0  0  0  0  0  0  0  0999 V2000
  -38.6180  -68.1140   50.7410 B   0  0  0  0  0  0  0  0  0  0  0  0
  -39.4910  -68.5960   52.3670 C   0  0  0  0  0  0  0  0  0  0  0  0
  -40.5630  -67.8820   52.8120 C   0  0  0  0  0  0  0  0  0  0  0  0
  -41.2030  -68.2410   54.0090 C   0  0  0  0  0  0  0  0  0  0  0  0
  -40.7270  -69.3150   54.7110 C   0  0  0  0  0  0  0  0  0  0  0  0
  -39.6220  -70.0460   54.2460 C   0  0  0  0  0  0  0  0  0  0  0  0
  -39.0130  -69.6770   53.0740 C   0  0  0  0  0  0  0  0  0  0  0  0
  -41.3170  -69.7130   55.8940 O   0  0  0  0  0  0  0  0  0  0  0  0
  -42.3460  -67.4670   54.4670 C   0  0  0  0  0  0  0  0  0  0  0  0
  -43.5610  -67.8560   54.1480 N   0  0  0  0  0  0  0  0  0  0  0  0
  -44.6290  -67.0850   54.6080 N   0  0  0  0  0  0  0  0  0  0  0  0
  -45.3960  -66.2850   53.7200 C   0  0  0  0  0  0  0  0  0  0  0  0
  -46.7330  -66.2170   53.8070 N   0  0  0  0  0  4  0  0  0  0  0  0
  -47.5100  -65.4670   52.9810 C   0  0  0  0  0  0  0  0  0  0  0  0
  -46.8310  -64.7680   52.0330 N   0  0  0  0  0  0  0  0  0  0  0  0
  -45.4960  -64.7960   51.8980 C   0  0  0  0  0  0  0  0  0  0  0  0
  -44.8080  -65.5530   52.7420 N   0  0  0  0  0  0  0  0  0  0  0  0
  -44.8550  -64.0420   50.8870 N   0  0  0  0  0  0  0  0  0  0  0  0
  -43.4170  -64.0020   50.7190 C   0  0  0  0  0  0  0  0  0  0  0  0
  -43.0780  -63.7850   49.2610 C   0  0  0  0  0  0  0  0  0  0  0  0
  -43.6420  -62.6570   48.7260 O   0  0  0  0  0  0  0  0  0  0  0  0
  -44.6670  -62.1240   49.4960 C   0  0  0  0  0  0  0  0  0  0  0  0
  -45.6170  -63.2390   49.9250 C   0  0  0  0  0  0  0  0  0  0  0  0
  -48.9120  -65.4180   53.1000 N   0  0  0  0  0  0  0  0  0  0  0  0
  -49.6660  -66.6160   53.3170 C   0  0  0  0  0  0  0  0  0  0  0  0
  -50.5320  -66.3830   54.5440 C   0  0  0  0  0  0  0  0  0  0  0  0
  -51.3390  -65.2690   54.2670 O   0  0  0  0  0  0  0  0  0  0  0  0
  -50.5600  -64.1130   54.2130 C   0  0  0  0  0  0  0  0  0  0  0  0
  -49.6160  -64.1760   53.0060 C   0  0  0  0  0  0  0  0  0  0  0  0
  -40.9600  -67.0260   52.2740 H   0  0  0  0  0  0  0  0  0  0  0  0
  -39.2720  -70.8900   54.8250 H   0  0  0  0  0  0  0  0  0  0  0  0
  -38.1500  -70.2270   52.6870 H   0  0  0  0  0  0  0  0  0  0  0  0
  -40.8330  -70.1440   56.6540 H   0  0  0  0  0  0  0  0  0  0  0  0
  -42.2290  -66.5810   55.0640 H   0  0  0  0  0  0  0  0  0  0  0  0
  -44.8430  -67.1180   55.6240 H   0  0  0  0  0  0  0  0  0  0  0  0
  -42.9770  -64.9680   51.0300 H   0  0  0  0  0  0  0  0  0  0  0  0
  -43.0290  -63.1420   51.2880 H   0  0  0  0  0  0  0  0  0  0  0  0
  -43.2740  -64.7060   48.6730 H   0  0  0  0  0  0  0  0  0  0  0  0
  -41.9570  -63.6440   49.2310 H   0  0  0  0  0  0  0  0  0  0  0  0
  -45.1840  -61.3340   48.9440 H   0  0  0  0  0  0  0  0  0  0  0  0
  -44.2050  -61.7190   50.4210 H   0  0  0  0  0  0  0  0  0  0  0  0
  -46.5450  -62.8600   50.3440 H   0  0  0  0  0  0  0  0  0  0  0  0
  -45.7520  -63.8890   49.0330 H   0  0  0  0  0  0  0  0  0  0  0  0
  -50.3600  -66.7730   52.4660 H   0  0  0  0  0  0  0  0  0  0  0  0
  -48.9850  -67.4790   53.4670 H   0  0  0  0  0  0  0  0  0  0  0  0
  -49.9270  -66.1590   55.4440 H   0  0  0  0  0  0  0  0  0  0  0  0
  -51.1910  -67.2510   54.7440 H   0  0  0  0  0  0  0  0  0  0  0  0
  -49.9170  -64.1260   55.1170 H   0  0  0  0  0  0  0  0  0  0  0  0
  -51.2130  -63.2340   54.1600 H   0  0  0  0  0  0  0  0  0  0  0  0
  -50.1810  -64.0560   52.0620 H   0  0  0  0  0  0  0  0  0  0  0  0
  -48.8970  -63.3320   53.1110 H   0  0  0  0  0  0  0  0  0  0  0  0
  1  2  1  0  0  0  0
  2  3  2  0  0  0  0
  2  7  1  0  0  0  0
  3  4  1  0  0  0  0
  4  9  1  0  0  0  0
  4  5  2  0  0  0  0
  5  8  1  0  0  0  0
  6  5  1  0  0  0  0
  6 31  1  0  0  0  0
  7  6  2  0  0  0  0
  8 33  1  0  0  0  0
  9 34  1  0  0  0  0
 10  9  2  0  0  0  0
 10 11  1  0  0  0  0
 11 35  1  0  0  0  0
 12 13  2  0  0  0  0
 12 11  1  0  0  0  0
 14 24  1  0  0  0  0
 14 13  2  0  0  0  0
 15 14  1  0  0  0  0
 16 15  2  0  0  0  0
 16 17  1  0  0  0  0
 17 12  1  0  0  0  0
 18 16  1  0  0  0  0
 19 18  1  0  0  0  0
 19 36  1  0  0  0  0
 19 37  1  0  0  0  0
 20 19  1  0  0  0  0
 21 20  1  0  0  0  0
 21 22  1  0  0  0  0
 22 23  1  0  0  0  0
 22 41  1  0  0  0  0
 23 42  1  0  0  0  0
 23 18  1  0  0  0  0
 24 25  1  0  0  0  0
 25 45  1  0  0  0  0
 25 26  1  0  0  0  0
 26 47  1  0  0  0  0
 26 46  1  0  0  0  0
 27 26  1  0  0  0  0
 28 27  1  0  0  0  0
 28 48  1  0  0  0  0
 29 24  1  0  0  0  0
 29 51  1  0  0  0  0
 29 28  1  0  0  0  0
 30  3  1  0  0  0  0
 32  7  1  0  0  0  0
 38 20  1  0  0  0  0
 39 20  1  0  0  0  0
 40 22  1  0  0  0  0
 43 23  1  0  0  0  0
 44 25  1  0  0  0  0
 49 28  1  0  0  0  0
 50 29  1  0  0  0  0
M  END
>  <Pose>
1

>  <Score>
-7.01

$$$$
