
 OpenBabel03202209423D

 52 55  0  0  0  0  0  0  0  0999 V2000
  -37.7970  -69.6070   50.7280 Cl  0  0  0  0  0  0  0  0  0  0  0  0
  -38.9290  -69.4010   52.0610 C   0  0  0  0  0  0  0  0  0  0  0  0
  -39.4540  -68.1930   52.4240 C   0  0  0  0  0  0  0  0  0  0  0  0
  -40.3500  -68.0360   53.4920 C   0  0  0  0  0  0  0  0  0  0  0  0
  -40.7000  -69.1560   54.1830 C   0  0  0  0  0  0  0  0  0  0  0  0
  -40.1720  -70.3850   53.8180 C   0  0  0  0  0  0  0  0  0  0  0  0
  -39.2900  -70.5290   52.7660 C   0  0  0  0  0  0  0  0  0  0  0  0
  -40.8560  -66.6690   53.7840 C   0  0  0  0  0  0  0  0  0  0  0  0
  -41.9340  -66.2230   52.9660 N   0  0  0  0  0  0  0  0  0  0  0  0
  -43.2410  -66.3180   53.3350 C   0  0  0  0  0  0  0  0  0  0  0  0
  -43.9990  -65.8260   52.3050 C   0  0  0  0  0  0  0  0  0  0  0  0
  -43.1390  -65.4540   51.3580 N   0  0  0  0  0  0  0  0  0  0  0  0
  -41.8560  -65.6880   51.7450 C   0  0  0  0  0  0  0  0  0  0  0  0
  -40.6950  -65.3540   50.9570 N   0  0  0  0  0  0  0  0  0  0  0  0
  -40.4000  -66.2660   49.8750 C   0  0  0  0  0  0  0  0  0  0  0  0
  -39.2330  -65.8390   49.0230 C   0  0  0  0  0  0  0  0  0  0  0  0
  -39.3940  -64.4630   48.7200 N   0  0  0  0  0  0  0  0  0  0  0  0
  -39.3170  -63.6420   49.8820 C   0  0  0  0  0  0  0  0  0  0  0  0
  -39.8400  -64.2340   51.1570 C   0  0  0  0  0  0  0  0  0  0  0  0
  -40.5590  -64.2490   47.9210 C   0  0  0  0  0  0  0  0  0  0  0  0
  -40.3520  -63.3040   46.7840 C   0  0  0  0  0  0  0  0  0  0  0  0
  -40.4560  -63.6180   45.5880 O   0  0  0  0  0  0  0  0  0  0  0  0
  -40.0110  -61.9640   47.1650 N   0  0  0  0  0  0  0  0  0  0  0  0
  -45.3350  -65.8020   52.4490 N   0  0  0  0  0  0  0  0  0  0  0  0
  -45.9400  -66.2500   53.5830 C   0  0  0  0  0  0  0  0  0  0  0  0
  -47.2030  -66.2310   53.7280 O   0  0  0  0  0  0  0  0  0  0  0  0
  -45.2220  -66.7360   54.6090 N   0  0  0  0  0  0  0  0  0  0  0  0
  -43.8880  -66.7680   54.4830 C   0  0  0  0  0  0  0  0  0  0  0  0
  -43.2490  -67.2250   55.4570 O   0  0  0  0  0  0  0  0  0  0  0  0
  -46.1750  -65.2910   51.3970 C   0  0  0  0  0  0  0  0  0  0  0  0
  -39.1460  -67.3260   51.8530 H   0  0  0  0  0  0  0  0  0  0  0  0
  -41.3940  -69.0960   55.0090 H   0  0  0  0  0  0  0  0  0  0  0  0
  -40.4590  -71.2780   54.3770 H   0  0  0  0  0  0  0  0  0  0  0  0
  -38.8990  -71.5240   52.5120 H   0  0  0  0  0  0  0  0  0  0  0  0
  -41.1310  -66.6730   54.8580 H   0  0  0  0  0  0  0  0  0  0  0  0
  -39.9940  -65.9590   53.7240 H   0  0  0  0  0  0  0  0  0  0  0  0
  -40.0810  -67.2520   50.3460 H   0  0  0  0  0  0  0  0  0  0  0  0
  -41.3140  -66.5150   49.3140 H   0  0  0  0  0  0  0  0  0  0  0  0
  -39.2370  -66.4550   48.1130 H   0  0  0  0  0  0  0  0  0  0  0  0
  -38.2620  -66.0550   49.5300 H   0  0  0  0  0  0  0  0  0  0  0  0
  -39.8640  -62.6860   49.6240 H   0  0  0  0  0  0  0  0  0  0  0  0
  -38.2360  -63.3550   50.0010 H   0  0  0  0  0  0  0  0  0  0  0  0
  -40.3210  -63.4050   51.7220 H   0  0  0  0  0  0  0  0  0  0  0  0
  -38.9470  -64.4990   51.8090 H   0  0  0  0  0  0  0  0  0  0  0  0
  -40.9410  -65.1920   47.4410 H   0  0  0  0  0  0  0  0  0  0  0  0
  -41.3420  -63.7820   48.5770 H   0  0  0  0  0  0  0  0  0  0  0  0
  -40.6030  -61.1470   46.8910 H   0  0  0  0  0  0  0  0  0  0  0  0
  -39.1680  -61.8130   47.7150 H   0  0  0  0  0  0  0  0  0  0  0  0
  -45.6990  -67.0860   55.4950 H   0  0  0  0  0  0  0  0  0  0  0  0
  -45.5850  -64.5380   50.8260 H   0  0  0  0  0  0  0  0  0  0  0  0
  -47.0760  -64.8030   51.8010 H   0  0  0  0  0  0  0  0  0  0  0  0
  -46.5150  -66.1310   50.7500 H   0  0  0  0  0  0  0  0  0  0  0  0
  1  2  1  0  0  0  0
  2  3  2  0  0  0  0
  2  7  1  0  0  0  0
  3  4  1  0  0  0  0
  4  8  1  0  0  0  0
  4  5  2  0  0  0  0
  5 32  1  0  0  0  0
  6  5  1  0  0  0  0
  6 33  1  0  0  0  0
  7  6  2  0  0  0  0
  8 35  1  0  0  0  0
  9 10  1  0  0  0  0
  9  8  1  0  0  0  0
 10 28  1  0  0  0  0
 11 24  1  0  0  0  0
 11 10  2  0  0  0  0
 12 13  2  0  0  0  0
 12 11  1  0  0  0  0
 13  9  1  0  0  0  0
 14 19  1  0  0  0  0
 14 13  1  0  0  0  0
 15 37  1  0  0  0  0
 15 14  1  0  0  0  0
 16 40  1  0  0  0  0
 16 15  1  0  0  0  0
 17 16  1  0  0  0  0
 17 18  1  0  0  0  0
 18 42  1  0  0  0  0
 18 19  1  0  0  0  0
 19 43  1  0  0  0  0
 19 44  1  0  0  0  0
 20 46  1  0  0  0  0
 20 17  1  0  0  0  0
 21 23  1  0  0  0  0
 21 20  1  0  0  0  0
 22 21  2  0  0  0  0
 23 48  1  0  0  0  0
 24 25  1  0  0  0  0
 25 26  2  0  0  0  0
 25 27  1  0  0  0  0
 27 49  1  0  0  0  0
 28 27  1  0  0  0  0
 28 29  2  0  0  0  0
 30 51  1  0  0  0  0
 30 24  1  0  0  0  0
 31  3  1  0  0  0  0
 34  7  1  0  0  0  0
 36  8  1  0  0  0  0
 38 15  1  0  0  0  0
 39 16  1  0  0  0  0
 41 18  1  0  0  0  0
 45 20  1  0  0  0  0
 47 23  1  0  0  0  0
 50 30  1  0  0  0  0
 52 30  1  0  0  0  0
M  END
>  <Pose>
1

>  <Score>
-6.90

$$$$
