
 OpenBabel03202209423D

 50 53  0  0  1  0  0  0  0  0999 V2000
  -50.9950  -72.7760   53.7040 Cl  0  0  0  0  0  0  0  0  0  0  0  0
  -50.7940  -71.5020   54.8920 C   0  0  0  0  0  0  0  0  0  0  0  0
  -50.4470  -70.2090   54.5270 C   0  0  0  0  0  0  0  0  0  0  0  0
  -50.3090  -69.2530   55.5320 C   0  0  0  0  0  0  0  0  0  0  0  0
  -50.5040  -69.5550   56.8540 C   0  0  0  0  0  0  0  0  0  0  0  0
  -50.8490  -70.8430   57.2230 C   0  0  0  0  0  0  0  0  0  0  0  0
  -50.9870  -71.7910   56.2290 C   0  0  0  0  0  0  0  0  0  0  0  0
  -50.3660  -68.5090   57.8650 C   0  0  2  0  0  0  0  0  0  0  0  0
  -50.3800  -68.8750   59.2280 N   0  0  0  0  0  4  0  0  0  0  0  0
  -51.6880  -68.8490   59.7320 C   0  0  0  0  0  0  0  0  0  0  0  0
  -52.3570  -68.9740   60.8520 C   0  0  0  0  0  0  0  0  0  0  0  0
  -53.8200  -68.8640   60.8910 C   0  0  0  0  0  0  0  0  0  0  0  0
  -54.5990  -68.9630   59.6640 C   0  0  0  0  0  0  0  0  0  0  0  0
  -53.7940  -69.0430   58.3910 C   0  0  0  0  0  0  0  0  0  0  0  0
  -52.4920  -68.5070   58.5680 N   0  0  0  0  0  0  0  0  0  0  0  0
  -51.6100  -67.6040   57.8390 C   0  0  2  0  0  0  0  0  0  0  0  0
  -52.1510  -67.2990   56.5060 C   0  0  0  0  0  0  0  0  0  0  0  0
  -49.4330  -69.7930   59.6680 C   0  0  0  0  0  0  0  0  0  0  0  0
  -48.3700  -70.0600   58.8200 C   0  0  0  0  0  0  0  0  0  0  0  0
  -47.3740  -70.9550   59.1300 C   0  0  0  0  0  0  0  0  0  0  0  0
  -47.3670  -71.6620   60.3370 C   0  0  0  0  0  0  0  0  0  0  0  0
  -48.4320  -71.3790   61.1570 C   0  0  0  0  0  0  0  0  0  0  0  0
  -49.4230  -70.4840   60.8400 C   0  0  0  0  0  0  0  0  0  0  0  0
  -46.3590  -72.5560   60.6400 O   0  0  0  0  0  0  0  0  0  0  0  0
  -46.6030  -73.9360   60.5440 C   0  0  0  0  0  0  0  0  0  0  0  0
  -49.3020  -67.6740   57.6140 O   0  0  0  0  0  0  0  0  0  0  0  0
  -50.2950  -69.9670   53.4910 H   0  0  0  0  0  0  0  0  0  0  0  0
  -50.0410  -68.2740   55.1430 H   0  0  0  0  0  0  0  0  0  0  0  0
  -51.0060  -71.0460   58.2690 H   0  0  0  0  0  0  0  0  0  0  0  0
  -51.2550  -72.7800   56.5730 H   0  0  0  0  0  0  0  0  0  0  0  0
  -49.9790  -67.9470   59.7060 H   0  0  0  0  0  0  0  0  0  0  0  0
  -51.8220  -69.1410   61.8110 H   0  0  0  0  0  0  0  0  0  0  0  0
  -54.0650  -67.9150   61.4450 H   0  0  0  0  0  0  0  0  0  0  0  0
  -54.1530  -69.6810   61.6120 H   0  0  0  0  0  0  0  0  0  0  0  0
  -55.3350  -68.0950   59.6110 H   0  0  0  0  0  0  0  0  0  0  0  0
  -55.2560  -69.8670   59.6890 H   0  0  0  0  0  0  0  0  0  0  0  0
  -54.3290  -68.4500   57.6260 H   0  0  0  0  0  0  0  0  0  0  0  0
  -53.7810  -70.0780   57.9910 H   0  0  0  0  0  0  0  0  0  0  0  0
  -51.4470  -66.7020   58.4140 H   0  0  0  0  0  0  0  0  0  0  0  0
  -51.4380  -66.6950   55.9180 H   0  0  0  0  0  0  0  0  0  0  0  0
  -52.6570  -68.1050   55.9660 H   0  0  0  0  0  0  0  0  0  0  0  0
  -52.9790  -66.5490   56.7120 H   0  0  0  0  0  0  0  0  0  0  0  0
  -48.2470  -69.5560   57.8450 H   0  0  0  0  0  0  0  0  0  0  0  0
  -46.5390  -71.1670   58.4600 H   0  0  0  0  0  0  0  0  0  0  0  0
  -48.4620  -71.9190   62.1170 H   0  0  0  0  0  0  0  0  0  0  0  0
  -50.1850  -70.3680   61.5660 H   0  0  0  0  0  0  0  0  0  0  0  0
  -46.4920  -74.3080   59.4880 H   0  0  0  0  0  0  0  0  0  0  0  0
  -47.5930  -74.2600   60.8840 H   0  0  0  0  0  0  0  0  0  0  0  0
  -45.8420  -74.5300   61.1250 H   0  0  0  0  0  0  0  0  0  0  0  0
  -49.0110  -67.0960   58.3430 H   0  0  0  0  0  0  0  0  0  0  0  0
  1  2  1  0  0  0  0
  2  7  1  0  0  0  0
  3  2  2  0  0  0  0
  3  4  1  0  0  0  0
  4  5  2  0  0  0  0
  5  6  1  0  0  0  0
  5  8  1  0  0  0  0
  6 29  1  0  0  0  0
  7 30  1  0  0  0  0
  7  6  2  0  0  0  0
  8 26  1  6  0  0  0
  8  9  1  0  0  0  0
  9 18  1  0  0  0  0
  9 31  1  0  0  0  0
  9 10  1  0  0  0  0
 10 11  2  0  0  0  0
 11 12  1  0  0  0  0
 11 32  1  0  0  0  0
 12 33  1  0  0  0  0
 12 34  1  0  0  0  0
 13 36  1  0  0  0  0
 13 12  1  0  0  0  0
 14 15  1  0  0  0  0
 14 13  1  0  0  0  0
 15 10  1  0  0  0  0
 16  8  1  0  0  0  0
 16 39  1  1  0  0  0
 16 15  1  0  0  0  0
 17 42  1  0  0  0  0
 17 16  1  0  0  0  0
 18 23  1  0  0  0  0
 19 20  1  0  0  0  0
 19 18  2  0  0  0  0
 20 21  2  0  0  0  0
 21 24  1  0  0  0  0
 21 22  1  0  0  0  0
 22 45  1  0  0  0  0
 23 22  2  0  0  0  0
 23 46  1  0  0  0  0
 25 24  1  0  0  0  0
 25 48  1  0  0  0  0
 25 49  1  0  0  0  0
 26 50  1  0  0  0  0
 27  3  1  0  0  0  0
 28  4  1  0  0  0  0
 35 13  1  0  0  0  0
 37 14  1  0  0  0  0
 38 14  1  0  0  0  0
 40 17  1  0  0  0  0
 41 17  1  0  0  0  0
 43 19  1  0  0  0  0
 44 20  1  0  0  0  0
 47 25  1  0  0  0  0
M  END
>  <Pose>
1

>  <Score>
-3.80

$$$$
