
 OpenBabel03202209423D

 37 40  0  0  0  0  0  0  0  0999 V2000
  -38.6590  -70.5460   54.2300 Cl  0  0  0  0  0  0  0  0  0  0  0  0
  -39.9240  -69.3460   53.9840 C   0  0  0  0  0  0  0  0  0  0  0  0
  -40.8700  -69.0980   54.9560 C   0  0  0  0  0  0  0  0  0  0  0  0
  -41.8640  -68.1560   54.7660 C   0  0  0  0  0  0  0  0  0  0  0  0
  -41.9560  -67.4240   53.6020 C   0  0  0  0  0  0  0  0  0  0  0  0
  -41.0020  -67.6780   52.6330 C   0  0  0  0  0  0  0  0  0  0  0  0
  -40.0060  -68.6180   52.8150 C   0  0  0  0  0  0  0  0  0  0  0  0
  -42.9850  -66.4540   53.4140 N   0  0  0  0  0  0  0  0  0  0  0  0
  -44.3000  -66.5830   53.7000 C   0  0  0  0  0  0  0  0  0  0  0  0
  -44.8120  -67.6120   54.1890 O   0  0  0  0  0  0  0  0  0  0  0  0
  -44.9930  -65.4280   53.3790 C   0  0  0  0  0  0  0  0  0  0  0  0
  -44.0790  -64.5780   52.8880 C   0  0  0  0  0  0  0  0  0  0  0  0
  -44.7610  -63.4610   52.5820 N   0  0  0  0  0  0  0  0  0  0  0  0
  -46.0380  -63.6260   52.8760 N   0  0  0  0  0  0  0  0  0  0  0  0
  -46.1980  -64.8350   53.3690 N   0  0  0  0  0  0  0  0  0  0  0  0
  -47.4320  -65.4370   53.8170 C   0  0  0  0  0  0  0  0  0  0  0  0
  -48.5030  -65.4310   52.7970 C   0  0  0  0  0  0  0  0  0  0  0  0
  -48.8080  -66.5890   52.1250 C   0  0  0  0  0  0  0  0  0  0  0  0
  -49.8060  -66.5600   51.1780 C   0  0  0  0  0  0  0  0  0  0  0  0
  -50.4990  -65.3970   50.8940 C   0  0  0  0  0  0  0  0  0  0  0  0
  -50.1930  -64.2350   51.5660 C   0  0  0  0  0  0  0  0  0  0  0  0
  -49.1990  -64.2810   52.5050 C   0  0  0  0  0  0  0  0  0  0  0  0
  -42.8580  -65.2180   52.9150 C   0  0  0  0  0  0  0  0  0  0  0  0
  -41.7720  -64.7080   52.5230 O   0  0  0  0  0  0  0  0  0  0  0  0
  -40.7890  -69.6790   55.8660 H   0  0  0  0  0  0  0  0  0  0  0  0
  -42.6060  -67.9660   55.5350 H   0  0  0  0  0  0  0  0  0  0  0  0
  -41.0550  -67.1190   51.7180 H   0  0  0  0  0  0  0  0  0  0  0  0
  -39.2510  -68.8170   52.0430 H   0  0  0  0  0  0  0  0  0  0  0  0
  -44.3760  -62.5830   52.1760 H   0  0  0  0  0  0  0  0  0  0  0  0
  -46.8120  -62.9100   52.7410 H   0  0  0  0  0  0  0  0  0  0  0  0
  -47.2310  -66.5060   54.1050 H   0  0  0  0  0  0  0  0  0  0  0  0
  -47.7950  -64.9570   54.7670 H   0  0  0  0  0  0  0  0  0  0  0  0
  -48.2770  -67.5310   52.3270 H   0  0  0  0  0  0  0  0  0  0  0  0
  -50.0440  -67.4890   50.6460 H   0  0  0  0  0  0  0  0  0  0  0  0
  -51.2950  -65.3620   50.1410 H   0  0  0  0  0  0  0  0  0  0  0  0
  -50.7150  -63.3150   51.3660 H   0  0  0  0  0  0  0  0  0  0  0  0
  -48.9790  -63.3380   53.0220 H   0  0  0  0  0  0  0  0  0  0  0  0
  2  1  1  0  0  0  0
  2  3  1  0  0  0  0
  3 25  1  0  0  0  0
  4  3  2  0  0  0  0
  4 26  1  0  0  0  0
  5  4  1  0  0  0  0
  6  7  1  0  0  0  0
  6  5  2  0  0  0  0
  7  2  2  0  0  0  0
  8  5  1  0  0  0  0
  8  9  1  0  0  0  0
  9 10  2  0  0  0  0
 11  9  1  0  0  0  0
 12 23  1  0  0  0  0
 12 11  2  0  0  0  0
 13 14  1  0  0  0  0
 13 12  1  0  0  0  0
 14 15  1  0  0  0  0
 15 11  1  0  0  0  0
 15 16  1  0  0  0  0
 16 31  1  0  0  0  0
 16 32  1  0  0  0  0
 17 16  1  0  0  0  0
 18 33  1  0  0  0  0
 18 17  2  0  0  0  0
 19 18  1  0  0  0  0
 20 19  2  0  0  0  0
 20 21  1  0  0  0  0
 21 22  2  0  0  0  0
 22 17  1  0  0  0  0
 22 37  1  0  0  0  0
 23  8  1  0  0  0  0
 24 23  2  0  0  0  0
 27  6  1  0  0  0  0
 28  7  1  0  0  0  0
 29 13  1  0  0  0  0
 30 14  1  0  0  0  0
 34 19  1  0  0  0  0
 35 20  1  0  0  0  0
 36 21  1  0  0  0  0
M  END
>  <Pose>
1

>  <Score>
-6.17

$$$$
