
 OpenBabel03202209423D

 56 59  0  0  1  0  0  0  0  0999 V2000
  -36.1630  -62.9410   48.0120 S   0  0  0  0  0  0  0  0  0  0  0  0
  -36.0230  -62.3560   46.6620 O   0  0  0  0  0  0  0  0  0  0  0  0
  -36.1920  -61.8200   49.0230 O   0  0  0  0  0  0  0  0  0  0  0  0
  -37.5670  -63.8880   48.2310 N   0  0  0  0  0  0  0  0  0  0  0  0
  -38.7630  -63.2860   47.7840 C   0  0  0  0  0  0  0  0  0  0  0  0
  -39.8670  -64.3630   47.8380 C   0  0  0  0  0  0  0  0  0  0  0  0
  -40.0590  -64.5710   49.2500 N   0  0  0  0  0  0  0  0  0  0  0  0
  -38.8760  -65.1820   49.8930 C   0  0  0  0  0  0  0  0  0  0  0  0
  -37.5860  -64.6770   49.3900 C   0  0  0  0  0  0  0  0  0  0  0  0
  -41.1670  -64.2810   50.0450 C   0  0  0  0  0  0  0  0  0  0  0  0
  -40.8390  -63.9240   51.2720 O   0  0  0  0  0  0  0  0  0  0  0  0
  -42.5910  -64.2790   49.8360 C   0  0  0  0  0  0  0  0  0  0  0  0
  -43.4490  -64.3240   50.9820 N   0  0  0  0  0  0  0  0  0  0  0  0
  -44.3330  -63.2840   51.4020 C   0  0  0  0  0  0  0  0  0  0  0  0
  -44.4440  -62.1640   50.7960 O   0  0  0  0  0  0  0  0  0  0  0  0
  -45.0160  -63.7250   52.5550 N   0  0  0  0  0  0  0  0  0  0  0  0
  -44.8730  -65.1700   52.6430 C   0  0  1  0  0  0  0  0  0  0  0  0
  -44.7250  -65.6860   54.0310 C   0  0  1  0  0  0  0  0  0  0  0  0
  -45.3900  -67.0660   54.0840 C   0  0  0  0  0  0  0  0  0  0  0  0
  -46.8840  -66.8120   54.0440 C   0  0  0  0  0  0  0  0  0  0  0  0
  -47.1930  -65.8460   52.9270 C   0  0  0  0  0  0  0  0  0  0  0  0
  -46.0550  -65.7720   51.9190 C   0  0  0  0  0  0  0  0  0  0  0  0
  -43.2920  -65.8950   54.4640 C   0  0  0  0  0  0  0  0  0  0  0  0
  -43.6010  -65.4100   51.8980 C   0  0  0  0  0  0  0  0  0  0  0  0
  -42.8200  -66.3710   52.0430 O   0  0  0  0  0  0  0  0  0  0  0  0
  -34.7700  -63.9780   48.3670 C   0  0  0  0  0  0  0  0  0  0  0  0
  -34.5780  -65.6570   48.1580 S   0  0  0  0  0  0  0  0  0  0  0  0
  -32.9850  -65.8240   48.7350 C   0  0  0  0  0  0  0  0  0  0  0  0
  -32.6420  -64.5440   49.0810 C   0  0  0  0  0  0  0  0  0  0  0  0
  -33.5710  -63.5910   48.8870 C   0  0  0  0  0  0  0  0  0  0  0  0
  -32.0090  -67.2960   48.8600 Cl  0  0  0  0  0  0  0  0  0  0  0  0
  -39.0660  -62.4200   48.4090 H   0  0  0  0  0  0  0  0  0  0  0  0
  -38.6350  -62.9100   46.7580 H   0  0  0  0  0  0  0  0  0  0  0  0
  -40.7140  -64.0960   47.2420 H   0  0  0  0  0  0  0  0  0  0  0  0
  -39.3260  -65.2780   47.4240 H   0  0  0  0  0  0  0  0  0  0  0  0
  -38.9660  -66.2720   49.6710 H   0  0  0  0  0  0  0  0  0  0  0  0
  -38.9530  -65.0950   50.9950 H   0  0  0  0  0  0  0  0  0  0  0  0
  -37.0910  -64.0900   50.2210 H   0  0  0  0  0  0  0  0  0  0  0  0
  -36.8730  -65.5410   49.2350 H   0  0  0  0  0  0  0  0  0  0  0  0
  -42.9180  -63.4010   49.1700 H   0  0  0  0  0  0  0  0  0  0  0  0
  -42.9060  -65.1510   49.1620 H   0  0  0  0  0  0  0  0  0  0  0  0
  -45.5340  -63.1450   53.2330 H   0  0  0  0  0  0  0  0  0  0  0  0
  -45.2420  -65.0220   54.7620 H   0  0  0  0  0  0  0  0  0  0  0  0
  -45.0930  -67.6020   53.1760 H   0  0  0  0  0  0  0  0  0  0  0  0
  -45.0990  -67.6220   54.9950 H   0  0  0  0  0  0  0  0  0  0  0  0
  -47.1530  -66.3770   55.0470 H   0  0  0  0  0  0  0  0  0  0  0  0
  -47.4680  -67.7330   53.9110 H   0  0  0  0  0  0  0  0  0  0  0  0
  -47.3400  -64.8390   53.3710 H   0  0  0  0  0  0  0  0  0  0  0  0
  -48.1550  -66.1230   52.4310 H   0  0  0  0  0  0  0  0  0  0  0  0
  -46.4090  -65.0450   51.1320 H   0  0  0  0  0  0  0  0  0  0  0  0
  -45.8520  -66.7550   51.4820 H   0  0  0  0  0  0  0  0  0  0  0  0
  -42.5840  -65.1800   54.0350 H   0  0  0  0  0  0  0  0  0  0  0  0
  -43.2550  -65.7840   55.5870 H   0  0  0  0  0  0  0  0  0  0  0  0
  -42.9540  -66.9580   54.2960 H   0  0  0  0  0  0  0  0  0  0  0  0
  -31.6220  -64.3590   49.4990 H   0  0  0  0  0  0  0  0  0  0  0  0
  -33.3860  -62.5260   49.1360 H   0  0  0  0  0  0  0  0  0  0  0  0
  1  4  1  0  0  0  0
  1 26  1  0  0  0  0
  1  3  2  0  0  0  0
  2  1  2  0  0  0  0
  4  9  1  0  0  0  0
  5  6  1  0  0  0  0
  5  4  1  0  0  0  0
  5 32  1  0  0  0  0
  6  7  1  0  0  0  0
  7  8  1  0  0  0  0
  7 10  1  0  0  0  0
  8 37  1  0  0  0  0
  9  8  1  0  0  0  0
  9 38  1  0  0  0  0
 10 11  2  0  0  0  0
 12 10  1  0  0  0  0
 12 13  1  0  0  0  0
 13 14  1  0  0  0  0
 13 24  1  0  0  0  0
 14 16  1  0  0  0  0
 15 14  2  0  0  0  0
 16 17  1  0  0  0  0
 16 42  1  0  0  0  0
 17 24  1  6  0  0  0
 17 18  1  0  0  0  0
 18 19  1  0  0  0  0
 18 23  1  0  0  0  0
 18 43  1  1  0  0  0
 19 45  1  0  0  0  0
 20 19  1  0  0  0  0
 20 46  1  0  0  0  0
 21 48  1  0  0  0  0
 21 20  1  0  0  0  0
 22 17  1  0  0  0  0
 22 21  1  0  0  0  0
 23 53  1  0  0  0  0
 24 25  2  0  0  0  0
 26 30  2  0  0  0  0
 27 26  1  0  0  0  0
 27 28  1  0  0  0  0
 28 31  1  0  0  0  0
 28 29  2  0  0  0  0
 29 55  1  0  0  0  0
 30 29  1  0  0  0  0
 30 56  1  0  0  0  0
 33  5  1  0  0  0  0
 34  6  1  0  0  0  0
 35  6  1  0  0  0  0
 36  8  1  0  0  0  0
 39  9  1  0  0  0  0
 40 12  1  0  0  0  0
 41 12  1  0  0  0  0
 44 19  1  0  0  0  0
 47 20  1  0  0  0  0
 49 21  1  0  0  0  0
 50 22  1  0  0  0  0
 51 22  1  0  0  0  0
 52 23  1  0  0  0  0
 54 23  1  0  0  0  0
M  END
>  <Pose>
1

>  <Score>
-6.46

$$$$
