
 OpenBabel03202209423D

 60 63  0  0  1  0  0  0  0  0999 V2000
  -48.2290  -68.3790   54.4740 Cl  0  0  0  0  0  0  0  0  0  0  0  0
  -47.8990  -66.7940   53.7750 C   0  0  0  0  0  0  0  0  0  0  0  0
  -46.7120  -66.5770   53.1300 C   0  0  0  0  0  0  0  0  0  0  0  0
  -46.4290  -65.3540   52.5770 C   0  0  0  0  0  0  0  0  0  0  0  0
  -47.4020  -64.3430   52.7040 C   0  0  0  0  0  0  0  0  0  0  0  0
  -48.5730  -64.5760   53.3470 C   0  0  0  0  0  0  0  0  0  0  0  0
  -48.8530  -65.8000   53.8970 C   0  0  0  0  0  0  0  0  0  0  0  0
  -45.3350  -65.0500   51.9440 O   0  0  0  0  0  0  0  0  0  0  0  0
  -44.1530  -65.3570   51.4590 C   0  0  0  0  0  0  0  0  0  0  0  0
  -43.0080  -65.7130   52.3630 C   0  0  1  0  0  0  0  0  0  0  0  0
  -43.2260  -65.0040   53.5530 O   0  0  0  0  0  0  0  0  0  0  0  0
  -44.0700  -65.6200   54.4360 C   0  0  0  0  0  0  0  0  0  0  0  0
  -43.4870  -66.8580   55.0880 C   0  0  0  0  0  0  0  0  0  0  0  0
  -42.7260  -67.5120   53.9930 N   0  0  0  0  0  0  0  0  0  0  0  0
  -43.1860  -67.2060   52.6940 C   0  0  0  0  0  0  0  0  0  0  0  0
  -41.6720  -68.3330   54.3340 C   0  0  0  0  0  0  0  0  0  0  0  0
  -41.6360  -68.9010   55.5030 O   0  0  0  0  0  0  0  0  0  0  0  0
  -40.5590  -68.6380   53.4880 C   0  0  0  0  0  0  0  0  0  0  0  0
  -40.3750  -68.0990   52.2820 N   0  0  0  0  0  0  0  0  0  0  0  0
  -39.3290  -68.3810   51.4800 C   0  0  0  0  0  0  0  0  0  0  0  0
  -38.3680  -69.2820   51.9080 C   0  0  0  0  0  0  0  0  0  0  0  0
  -38.5160  -69.8360   53.1000 N   0  0  0  0  0  0  0  0  0  0  0  0
  -39.5670  -69.5420   53.8830 C   0  0  0  0  0  0  0  0  0  0  0  0
  -37.2390  -69.5550   50.9840 C   0  0  0  0  0  0  0  0  0  0  0  0
  -41.6640  -65.4030   51.8810 C   0  0  0  0  0  0  0  0  0  0  0  0
  -41.2930  -65.8140   50.5260 C   0  0  0  0  0  0  0  0  0  0  0  0
  -41.9270  -66.7050   49.9300 O   0  0  0  0  0  0  0  0  0  0  0  0
  -40.1980  -65.2130   49.8420 N   0  0  0  0  0  0  0  0  0  0  0  0
  -39.6460  -63.9310   50.2660 C   0  0  0  0  0  0  0  0  0  0  0  0
  -39.5040  -63.0750   49.0250 C   0  0  0  0  0  0  0  0  0  0  0  0
  -38.6830  -63.7420   48.1100 O   0  0  0  0  0  0  0  0  0  0  0  0
  -39.3790  -64.8400   47.6070 C   0  0  0  0  0  0  0  0  0  0  0  0
  -39.5780  -65.8440   48.6960 C   0  0  0  0  0  0  0  0  0  0  0  0
  -45.9750  -67.3630   53.0600 H   0  0  0  0  0  0  0  0  0  0  0  0
  -47.2290  -63.3510   52.2830 H   0  0  0  0  0  0  0  0  0  0  0  0
  -49.3380  -63.8090   53.4550 H   0  0  0  0  0  0  0  0  0  0  0  0
  -49.7580  -66.0350   54.4130 H   0  0  0  0  0  0  0  0  0  0  0  0
  -44.2240  -66.1810   50.6420 H   0  0  0  0  0  0  0  0  0  0  0  0
  -43.7680  -64.4810   50.8040 H   0  0  0  0  0  0  0  0  0  0  0  0
  -44.2910  -64.9090   55.2480 H   0  0  0  0  0  0  0  0  0  0  0  0
  -45.0300  -65.8420   53.9370 H   0  0  0  0  0  0  0  0  0  0  0  0
  -44.3160  -67.4830   55.4240 H   0  0  0  0  0  0  0  0  0  0  0  0
  -42.7480  -66.5880   55.8430 H   0  0  0  0  0  0  0  0  0  0  0  0
  -44.3240  -67.3300   52.7390 H   0  0  0  0  0  0  0  0  0  0  0  0
  -42.8850  -67.8170   51.8630 H   0  0  0  0  0  0  0  0  0  0  0  0
  -39.2680  -67.8910   50.5160 H   0  0  0  0  0  0  0  0  0  0  0  0
  -39.6620  -70.0090   54.8510 H   0  0  0  0  0  0  0  0  0  0  0  0
  -36.3780  -70.0200   51.5180 H   0  0  0  0  0  0  0  0  0  0  0  0
  -37.6310  -70.2240   50.1920 H   0  0  0  0  0  0  0  0  0  0  0  0
  -36.8630  -68.6420   50.4840 H   0  0  0  0  0  0  0  0  0  0  0  0
  -40.8860  -65.8530   52.6140 H   0  0  0  0  0  0  0  0  0  0  0  0
  -41.4450  -64.3030   52.0250 H   0  0  0  0  0  0  0  0  0  0  0  0
  -40.2990  -63.4330   51.0080 H   0  0  0  0  0  0  0  0  0  0  0  0
  -38.6130  -64.0720   50.6750 H   0  0  0  0  0  0  0  0  0  0  0  0
  -40.5060  -62.8830   48.6180 H   0  0  0  0  0  0  0  0  0  0  0  0
  -38.9890  -62.1120   49.2480 H   0  0  0  0  0  0  0  0  0  0  0  0
  -40.3700  -64.5660   47.2010 H   0  0  0  0  0  0  0  0  0  0  0  0
  -38.7290  -65.3130   46.8330 H   0  0  0  0  0  0  0  0  0  0  0  0
  -40.1910  -66.6730   48.2900 H   0  0  0  0  0  0  0  0  0  0  0  0
  -38.6300  -66.3080   49.0430 H   0  0  0  0  0  0  0  0  0  0  0  0
  2  7  1  0  0  0  0
  2  1  1  0  0  0  0
  3  2  2  0  0  0  0
  4  5  2  0  0  0  0
  4  3  1  0  0  0  0
  5  6  1  0  0  0  0
  6 36  1  0  0  0  0
  6  7  2  0  0  0  0
  7 37  1  0  0  0  0
  8  4  1  0  0  0  0
  9  8  1  0  0  0  0
 10  9  1  6  0  0  0
 10 15  1  0  0  0  0
 10 11  1  0  0  0  0
 11 12  1  0  0  0  0
 12 13  1  0  0  0  0
 12 40  1  0  0  0  0
 13 42  1  0  0  0  0
 13 43  1  0  0  0  0
 14 16  1  0  0  0  0
 14 13  1  0  0  0  0
 15 44  1  0  0  0  0
 15 14  1  0  0  0  0
 16 17  2  0  0  0  0
 18 23  1  0  0  0  0
 18 16  1  0  0  0  0
 19 18  2  0  0  0  0
 20 21  2  0  0  0  0
 20 19  1  0  0  0  0
 21 22  1  0  0  0  0
 22 23  2  0  0  0  0
 23 47  1  0  0  0  0
 24 48  1  0  0  0  0
 24 21  1  0  0  0  0
 25 52  1  0  0  0  0
 25 10  1  0  0  0  0
 25 51  1  0  0  0  0
 26 25  1  0  0  0  0
 27 26  2  0  0  0  0
 28 29  1  0  0  0  0
 28 26  1  0  0  0  0
 29 54  1  0  0  0  0
 29 53  1  0  0  0  0
 30 56  1  0  0  0  0
 30 29  1  0  0  0  0
 31 30  1  0  0  0  0
 32 31  1  0  0  0  0
 32 33  1  0  0  0  0
 33 60  1  0  0  0  0
 33 28  1  0  0  0  0
 34  3  1  0  0  0  0
 35  5  1  0  0  0  0
 38  9  1  0  0  0  0
 39  9  1  0  0  0  0
 41 12  1  0  0  0  0
 45 15  1  0  0  0  0
 46 20  1  0  0  0  0
 49 24  1  0  0  0  0
 50 24  1  0  0  0  0
 55 30  1  0  0  0  0
 57 32  1  0  0  0  0
 58 32  1  0  0  0  0
 59 33  1  0  0  0  0
M  END
>  <Pose>
1

>  <Score>
-6.60

$$$$
