
 OpenBabel03202209423D

 51 54  0  0  1  0  0  0  0  0999 V2000
  -41.2310  -69.5890   54.9860 Cl  0  0  0  0  0  0  0  0  0  0  0  0
  -42.1710  -68.2550   54.4010 C   0  0  0  0  0  0  0  0  0  0  0  0
  -43.3840  -68.0220   54.9080 N   0  0  0  0  0  4  0  0  0  0  0  0
  -44.1500  -67.0090   54.4940 C   0  0  0  0  0  0  0  0  0  0  0  0
  -45.3580  -66.5880   54.8490 N   0  0  0  0  0  0  0  0  0  0  0  0
  -45.6000  -65.5150   54.0860 C   0  0  0  0  0  0  0  0  0  0  0  0
  -44.5800  -65.2460   53.2610 N   0  0  0  0  0  0  0  0  0  0  0  0
  -43.6380  -66.1750   53.4890 C   0  0  0  0  0  0  0  0  0  0  0  0
  -42.3950  -66.4040   52.9620 C   0  0  0  0  0  0  0  0  0  0  0  0
  -41.6800  -67.4630   53.4440 N   0  0  0  0  0  0  0  0  0  0  0  0
  -41.8860  -65.5800   51.9370 N   0  0  0  0  0  0  0  0  0  0  0  0
  -40.4570  -65.3730   51.8830 C   0  0  0  0  0  0  0  0  0  0  0  0
  -40.0350  -64.3820   50.8310 C   0  0  0  0  0  0  0  0  0  0  0  0
  -40.7610  -64.6660   49.5620 C   0  0  2  0  0  0  0  0  0  0  0  0
  -42.2230  -64.4550   49.7570 C   0  0  0  0  0  0  0  0  0  0  0  0
  -42.8060  -64.9970   51.0090 C   0  0  0  0  0  0  0  0  0  0  0  0
  -40.3960  -65.9570   48.9760 C   0  0  0  0  0  0  0  0  0  0  0  0
  -40.8750  -67.0010   49.4820 O   0  0  0  0  0  0  0  0  0  0  0  0
  -39.5310  -66.0860   47.8700 N   0  0  0  0  0  0  0  0  0  0  0  0
  -38.1590  -66.5280   47.9700 C   0  0  0  0  0  0  0  0  0  0  0  0
  -37.2030  -65.4410   48.3660 C   0  0  0  0  0  0  0  0  0  0  0  0
  -36.4240  -65.8280   49.5280 N   0  0  0  0  0  0  0  0  0  0  0  0
  -35.4040  -64.8900   49.8550 C   0  0  0  0  0  0  0  0  0  0  0  0
  -34.0360  -65.4630   49.5420 C   0  0  0  0  0  0  0  0  0  0  0  0
  -33.8440  -66.5540   50.3510 O   0  0  0  0  0  0  0  0  0  0  0  0
  -34.8130  -67.5210   50.3040 C   0  0  0  0  0  0  0  0  0  0  0  0
  -36.0320  -67.1910   49.5150 C   0  0  0  0  0  0  0  0  0  0  0  0
  -46.5050  -64.9320   54.1270 H   0  0  0  0  0  0  0  0  0  0  0  0
  -44.4870  -64.4710   52.5630 H   0  0  0  0  0  0  0  0  0  0  0  0
  -39.8650  -66.2980   51.8480 H   0  0  0  0  0  0  0  0  0  0  0  0
  -40.1500  -64.8950   52.8680 H   0  0  0  0  0  0  0  0  0  0  0  0
  -40.2410  -63.3490   51.1540 H   0  0  0  0  0  0  0  0  0  0  0  0
  -38.9430  -64.5030   50.6920 H   0  0  0  0  0  0  0  0  0  0  0  0
  -40.4160  -63.8840   48.8230 H   0  0  0  0  0  0  0  0  0  0  0  0
  -42.3900  -63.3370   49.7710 H   0  0  0  0  0  0  0  0  0  0  0  0
  -42.7490  -64.7990   48.8420 H   0  0  0  0  0  0  0  0  0  0  0  0
  -43.5870  -65.7540   50.7120 H   0  0  0  0  0  0  0  0  0  0  0  0
  -43.3980  -64.2250   51.5840 H   0  0  0  0  0  0  0  0  0  0  0  0
  -39.9060  -65.8460   46.9060 H   0  0  0  0  0  0  0  0  0  0  0  0
  -38.0670  -67.4170   48.5880 H   0  0  0  0  0  0  0  0  0  0  0  0
  -37.8640  -66.8410   46.9280 H   0  0  0  0  0  0  0  0  0  0  0  0
  -36.4780  -65.3300   47.5300 H   0  0  0  0  0  0  0  0  0  0  0  0
  -37.6890  -64.4710   48.5380 H   0  0  0  0  0  0  0  0  0  0  0  0
  -35.4170  -64.5710   50.9230 H   0  0  0  0  0  0  0  0  0  0  0  0
  -35.5620  -63.9680   49.2570 H   0  0  0  0  0  0  0  0  0  0  0  0
  -33.9730  -65.7060   48.4630 H   0  0  0  0  0  0  0  0  0  0  0  0
  -33.2830  -64.6970   49.8110 H   0  0  0  0  0  0  0  0  0  0  0  0
  -34.3830  -68.5180   50.0050 H   0  0  0  0  0  0  0  0  0  0  0  0
  -35.1510  -67.6920   51.3690 H   0  0  0  0  0  0  0  0  0  0  0  0
  -36.8940  -67.8130   49.8130 H   0  0  0  0  0  0  0  0  0  0  0  0
  -35.8160  -67.4720   48.4430 H   0  0  0  0  0  0  0  0  0  0  0  0
  2  3  2  0  0  0  0
  2  1  1  0  0  0  0
  4  5  1  0  0  0  0
  4  3  2  0  0  0  0
  6 28  1  0  0  0  0
  6  5  2  0  0  0  0
  7  8  1  0  0  0  0
  7  6  1  0  0  0  0
  8  4  1  0  0  0  0
  9 10  1  0  0  0  0
  9  8  2  0  0  0  0
 10  2  1  0  0  0  0
 11  9  1  0  0  0  0
 12 11  1  0  0  0  0
 12 31  1  0  0  0  0
 13 32  1  0  0  0  0
 13 12  1  0  0  0  0
 14 34  1  6  0  0  0
 14 15  1  0  0  0  0
 14 13  1  0  0  0  0
 15 35  1  0  0  0  0
 15 16  1  0  0  0  0
 16 38  1  0  0  0  0
 16 11  1  0  0  0  0
 17 18  2  0  0  0  0
 17 14  1  0  0  0  0
 19 20  1  0  0  0  0
 19 17  1  0  0  0  0
 20 21  1  0  0  0  0
 20 40  1  0  0  0  0
 21 43  1  0  0  0  0
 21 22  1  0  0  0  0
 22 23  1  0  0  0  0
 23 44  1  0  0  0  0
 24 47  1  0  0  0  0
 24 23  1  0  0  0  0
 24 25  1  0  0  0  0
 26 25  1  0  0  0  0
 26 49  1  0  0  0  0
 27 22  1  0  0  0  0
 27 50  1  0  0  0  0
 27 26  1  0  0  0  0
 29  7  1  0  0  0  0
 30 12  1  0  0  0  0
 33 13  1  0  0  0  0
 36 15  1  0  0  0  0
 37 16  1  0  0  0  0
 39 19  1  0  0  0  0
 41 20  1  0  0  0  0
 42 21  1  0  0  0  0
 45 23  1  0  0  0  0
 46 24  1  0  0  0  0
 48 26  1  0  0  0  0
 51 27  1  0  0  0  0
M  END
>  <Pose>
1

>  <Score>
-5.87

$$$$
