
 OpenBabel03202209423D

 55 58  0  0  1  0  0  0  0  0999 V2000
  -38.3800  -64.0430   49.6850 Cl  0  0  0  0  0  0  0  0  0  0  0  0
  -40.0300  -64.2280   50.3350 C   0  0  0  0  0  0  0  0  0  0  0  0
  -40.2400  -64.5380   51.6570 C   0  0  0  0  0  0  0  0  0  0  0  0
  -41.5320  -64.6740   52.1640 C   0  0  0  0  0  0  0  0  0  0  0  0
  -42.6670  -64.5010   51.3620 C   0  0  0  0  0  0  0  0  0  0  0  0
  -42.4190  -64.1910   50.0470 C   0  0  0  0  0  0  0  0  0  0  0  0
  -41.1440  -64.0550   49.5310 C   0  0  0  0  0  0  0  0  0  0  0  0
  -43.9650  -64.6290   52.0010 C   0  0  2  0  0  0  0  0  0  0  0  0
  -44.0010  -65.8700   52.8900 C   0  0  0  0  0  0  0  0  0  0  0  0
  -45.2640  -65.6930   53.7070 C   0  0  0  0  0  0  0  0  0  0  0  0
  -46.4100  -65.8090   52.8750 N   0  0  0  0  0  0  0  0  0  0  0  0
  -46.4790  -64.8590   51.7330 C   0  0  0  0  0  0  0  0  0  0  0  0
  -45.1550  -64.5560   51.1190 C   0  0  0  0  0  0  0  0  0  0  0  0
  -47.4440  -66.7230   53.0220 C   0  0  0  0  0  0  0  0  0  0  0  0
  -48.4660  -66.5650   52.2200 O   0  0  0  0  0  0  0  0  0  0  0  0
  -47.6130  -67.8590   53.9410 C   0  0  0  0  0  0  0  0  0  0  0  0
  -47.9050  -67.5810   55.2790 N   0  0  0  0  0  0  0  0  0  0  0  0
  -49.1960  -67.6960   55.8780 C   0  0  0  0  0  0  0  0  0  0  0  0
  -49.9500  -66.7010   55.7100 O   0  0  0  0  0  0  0  0  0  0  0  0
  -49.5770  -68.8740   56.6090 C   0  0  0  0  0  0  0  0  0  0  0  0
  -48.9940  -69.4980   57.5780 C   0  0  0  0  0  0  0  0  0  0  0  0
  -47.7440  -69.0890   58.1380 N   0  0  0  0  0  0  0  0  0  0  0  0
  -47.1420  -69.7770   59.2120 N   0  0  0  0  0  0  0  0  0  0  0  0
  -47.7560  -70.9090   59.7840 C   0  0  0  0  0  0  0  0  0  0  0  0
  -47.1830  -71.4950   60.7480 O   0  0  0  0  0  0  0  0  0  0  0  0
  -49.0260  -71.3590   59.2480 C   0  0  0  0  0  0  0  0  0  0  0  0
  -49.6190  -70.6930   58.2000 C   0  0  0  0  0  0  0  0  0  0  0  0
  -50.8280  -71.1620   57.7700 C   0  0  0  0  0  0  0  0  0  0  0  0
  -51.4630  -72.2670   58.3470 C   0  0  0  0  0  0  0  0  0  0  0  0
  -50.8320  -72.8950   59.3860 C   0  0  0  0  0  0  0  0  0  0  0  0
  -49.5990  -72.4550   59.8600 C   0  0  0  0  0  0  0  0  0  0  0  0
  -44.0830  -63.5540   52.9400 O   0  0  0  0  0  0  0  0  0  0  0  0
  -39.3650  -64.6730   52.2940 H   0  0  0  0  0  0  0  0  0  0  0  0
  -41.6250  -64.9190   53.2050 H   0  0  0  0  0  0  0  0  0  0  0  0
  -43.2910  -64.0530   49.4160 H   0  0  0  0  0  0  0  0  0  0  0  0
  -40.9930  -63.8040   48.4780 H   0  0  0  0  0  0  0  0  0  0  0  0
  -43.9740  -66.7960   52.3220 H   0  0  0  0  0  0  0  0  0  0  0  0
  -43.1260  -65.8530   53.5440 H   0  0  0  0  0  0  0  0  0  0  0  0
  -45.2430  -64.5590   53.9740 H   0  0  0  0  0  0  0  0  0  0  0  0
  -45.2010  -66.1930   54.6460 H   0  0  0  0  0  0  0  0  0  0  0  0
  -47.2290  -65.2180   50.9800 H   0  0  0  0  0  0  0  0  0  0  0  0
  -46.9060  -63.9290   52.1620 H   0  0  0  0  0  0  0  0  0  0  0  0
  -45.0730  -65.1570   50.1810 H   0  0  0  0  0  0  0  0  0  0  0  0
  -45.2410  -63.4940   50.7100 H   0  0  0  0  0  0  0  0  0  0  0  0
  -48.4130  -68.5130   53.4460 H   0  0  0  0  0  0  0  0  0  0  0  0
  -46.6950  -68.5510   53.8750 H   0  0  0  0  0  0  0  0  0  0  0  0
  -47.1440  -67.3300   55.9660 H   0  0  0  0  0  0  0  0  0  0  0  0
  -50.5460  -69.3080   56.2590 H   0  0  0  0  0  0  0  0  0  0  0  0
  -47.2330  -68.2560   57.7600 H   0  0  0  0  0  0  0  0  0  0  0  0
  -46.2280  -69.4490   59.6030 H   0  0  0  0  0  0  0  0  0  0  0  0
  -51.3470  -70.7020   56.9710 H   0  0  0  0  0  0  0  0  0  0  0  0
  -52.4250  -72.5940   57.9610 H   0  0  0  0  0  0  0  0  0  0  0  0
  -51.3470  -73.7510   59.8310 H   0  0  0  0  0  0  0  0  0  0  0  0
  -49.1490  -72.9920   60.6850 H   0  0  0  0  0  0  0  0  0  0  0  0
  -44.4350  -62.7810   52.4330 H   0  0  0  0  0  0  0  0  0  0  0  0
  1  2  1  0  0  0  0
  2  3  1  0  0  0  0
  3  4  2  0  0  0  0
  3 33  1  0  0  0  0
  4 34  1  0  0  0  0
  5  8  1  0  0  0  0
  5  4  1  0  0  0  0
  6  5  2  0  0  0  0
  7  6  1  0  0  0  0
  7  2  2  0  0  0  0
  8  9  1  0  0  0  0
  8 32  1  1  0  0  0
  9 38  1  0  0  0  0
  9 10  1  0  0  0  0
 10 39  1  0  0  0  0
 10 40  1  0  0  0  0
 11 14  1  0  0  0  0
 11 10  1  0  0  0  0
 12 42  1  0  0  0  0
 12 11  1  0  0  0  0
 13 12  1  0  0  0  0
 13  8  1  0  0  0  0
 14 16  1  0  0  0  0
 15 14  2  0  0  0  0
 16 17  1  0  0  0  0
 17 18  1  0  0  0  0
 17 47  1  0  0  0  0
 18 20  1  0  0  0  0
 19 18  2  0  0  0  0
 20 21  2  0  0  0  0
 21 22  1  0  0  0  0
 21 27  1  0  0  0  0
 22 23  1  0  0  0  0
 23 50  1  0  0  0  0
 23 24  1  0  0  0  0
 24 25  2  0  0  0  0
 26 24  1  0  0  0  0
 26 31  1  0  0  0  0
 27 26  2  0  0  0  0
 28 27  1  0  0  0  0
 28 29  2  0  0  0  0
 29 30  1  0  0  0  0
 30 53  1  0  0  0  0
 30 31  2  0  0  0  0
 31 54  1  0  0  0  0
 35  6  1  0  0  0  0
 36  7  1  0  0  0  0
 37  9  1  0  0  0  0
 41 12  1  0  0  0  0
 43 13  1  0  0  0  0
 44 13  1  0  0  0  0
 45 16  1  0  0  0  0
 46 16  1  0  0  0  0
 48 20  1  0  0  0  0
 49 22  1  0  0  0  0
 51 28  1  0  0  0  0
 52 29  1  0  0  0  0
 55 32  1  0  0  0  0
M  END
>  <Pose>
1

>  <Score>
-7.82

$$$$
