
 OpenBabel03202209423D

 45 48  0  0  0  0  0  0  0  0999 V2000
  -48.3270  -66.8030   52.6160 Cl  0  0  0  0  0  0  0  0  0  0  0  0
  -46.6240  -66.5640   52.9380 C   0  0  0  0  0  0  0  0  0  0  0  0
  -45.9760  -65.5450   52.3060 C   0  0  0  0  0  0  0  0  0  0  0  0
  -44.6150  -65.3210   52.5370 C   0  0  0  0  0  0  0  0  0  0  0  0
  -43.8820  -66.0880   53.3820 C   0  0  0  0  0  0  0  0  0  0  0  0
  -44.5800  -67.1270   54.0160 C   0  0  0  0  0  0  0  0  0  0  0  0
  -45.9170  -67.3660   53.8040 C   0  0  0  0  0  0  0  0  0  0  0  0
  -42.4740  -65.8630   53.6970 C   0  0  0  0  0  0  0  0  0  0  0  0
  -41.5190  -66.7500   53.0850 N   0  0  0  0  0  0  0  0  0  0  0  0
  -41.1050  -67.9100   53.6790 C   0  0  0  0  0  0  0  0  0  0  0  0
  -40.2030  -68.5490   52.8740 C   0  0  0  0  0  0  0  0  0  0  0  0
  -40.0910  -67.7620   51.8120 N   0  0  0  0  0  0  0  0  0  0  0  0
  -40.8890  -66.6500   51.9140 C   0  0  0  0  0  0  0  0  0  0  0  0
  -40.9530  -65.6670   50.9020 N   0  0  0  0  0  0  0  0  0  0  0  0
  -40.7790  -64.2760   51.2970 C   0  0  0  0  0  0  0  0  0  0  0  0
  -40.0120  -63.6620   50.1120 C   0  0  0  0  0  0  0  0  0  0  0  0
  -39.1160  -64.6210   49.5040 N   0  0  0  0  0  0  0  0  0  0  0  0
  -39.7900  -65.7220   48.8500 C   0  0  0  0  0  0  0  0  0  0  0  0
  -41.1560  -65.8350   49.5100 C   0  0  0  0  0  0  0  0  0  0  0  0
  -39.6460  -69.7220   53.2280 N   0  0  0  0  0  0  0  0  0  0  0  0
  -39.9830  -70.2980   54.4120 C   0  0  0  0  0  0  0  0  0  0  0  0
  -39.4400  -71.3880   54.6990 O   0  0  0  0  0  0  0  0  0  0  0  0
  -40.8650  -69.7080   55.2370 N   0  0  0  0  0  0  0  0  0  0  0  0
  -41.4140  -68.5390   54.8740 C   0  0  0  0  0  0  0  0  0  0  0  0
  -42.2300  -68.0320   55.6750 O   0  0  0  0  0  0  0  0  0  0  0  0
  -38.6960  -70.3310   52.3140 C   0  0  0  0  0  0  0  0  0  0  0  0
  -46.4840  -64.8880   51.6190 H   0  0  0  0  0  0  0  0  0  0  0  0
  -44.1620  -64.5040   51.9960 H   0  0  0  0  0  0  0  0  0  0  0  0
  -44.0100  -67.7620   54.7050 H   0  0  0  0  0  0  0  0  0  0  0  0
  -46.4550  -68.1670   54.2930 H   0  0  0  0  0  0  0  0  0  0  0  0
  -42.2920  -65.7660   54.8120 H   0  0  0  0  0  0  0  0  0  0  0  0
  -42.2450  -64.8110   53.3650 H   0  0  0  0  0  0  0  0  0  0  0  0
  -40.2200  -64.1640   52.2290 H   0  0  0  0  0  0  0  0  0  0  0  0
  -41.7320  -63.7290   51.3550 H   0  0  0  0  0  0  0  0  0  0  0  0
  -40.7050  -63.1780   49.3980 H   0  0  0  0  0  0  0  0  0  0  0  0
  -39.3560  -62.8650   50.5410 H   0  0  0  0  0  0  0  0  0  0  0  0
  -38.5800  -64.1100   48.7830 H   0  0  0  0  0  0  0  0  0  0  0  0
  -39.2230  -66.6730   48.9140 H   0  0  0  0  0  0  0  0  0  0  0  0
  -39.9430  -65.5210   47.7630 H   0  0  0  0  0  0  0  0  0  0  0  0
  -41.7060  -64.9180   49.0800 H   0  0  0  0  0  0  0  0  0  0  0  0
  -41.7720  -66.6410   49.1570 H   0  0  0  0  0  0  0  0  0  0  0  0
  -41.0890  -70.1910   56.1320 H   0  0  0  0  0  0  0  0  0  0  0  0
  -37.7590  -69.7250   52.2650 H   0  0  0  0  0  0  0  0  0  0  0  0
  -39.1080  -70.3950   51.2690 H   0  0  0  0  0  0  0  0  0  0  0  0
  -38.4060  -71.3440   52.6110 H   0  0  0  0  0  0  0  0  0  0  0  0
  1  2  1  0  0  0  0
  2  7  1  0  0  0  0
  3  4  1  0  0  0  0
  3  2  2  0  0  0  0
  4  5  2  0  0  0  0
  5  8  1  0  0  0  0
  5  6  1  0  0  0  0
  6 29  1  0  0  0  0
  7  6  2  0  0  0  0
  7 30  1  0  0  0  0
  8 31  1  0  0  0  0
  9 10  1  0  0  0  0
  9  8  1  0  0  0  0
 10 24  1  0  0  0  0
 11 20  1  0  0  0  0
 11 10  2  0  0  0  0
 12 13  2  0  0  0  0
 12 11  1  0  0  0  0
 13  9  1  0  0  0  0
 14 15  1  0  0  0  0
 14 13  1  0  0  0  0
 15 34  1  0  0  0  0
 15 33  1  0  0  0  0
 16 36  1  0  0  0  0
 16 15  1  0  0  0  0
 17 16  1  0  0  0  0
 18 38  1  0  0  0  0
 18 17  1  0  0  0  0
 18 19  1  0  0  0  0
 19 14  1  0  0  0  0
 20 21  1  0  0  0  0
 21 22  2  0  0  0  0
 21 23  1  0  0  0  0
 23 42  1  0  0  0  0
 24 23  1  0  0  0  0
 24 25  2  0  0  0  0
 26 45  1  0  0  0  0
 26 20  1  0  0  0  0
 27  3  1  0  0  0  0
 28  4  1  0  0  0  0
 32  8  1  0  0  0  0
 35 16  1  0  0  0  0
 37 17  1  0  0  0  0
 39 18  1  0  0  0  0
 40 19  1  0  0  0  0
 41 19  1  0  0  0  0
 43 26  1  0  0  0  0
 44 26  1  0  0  0  0
M  END
>  <Pose>
1

>  <Score>
-7.36

$$$$
