
 OpenBabel03202209423D

 34 37  0  0  1  0  0  0  0  0999 V2000
  -45.1870  -66.4580   54.4610 Cl  0  0  0  0  0  0  0  0  0  0  0  0
  -43.8720  -66.1490   53.3330 C   0  0  0  0  0  0  0  0  0  0  0  0
  -42.6340  -66.7180   53.5050 C   0  0  0  0  0  0  0  0  0  0  0  0
  -41.6110  -66.4700   52.6180 C   0  0  0  0  0  0  0  0  0  0  0  0
  -41.7710  -65.6460   51.5200 C   0  0  0  0  0  0  0  0  0  0  0  0
  -43.0190  -65.0860   51.3640 C   0  0  0  0  0  0  0  0  0  0  0  0
  -44.0550  -65.3190   52.2390 C   0  0  0  0  0  0  0  0  0  0  0  0
  -40.6810  -65.4210   50.6330 N   0  0  0  0  0  0  0  0  0  0  0  0
  -39.7470  -64.3320   50.6450 C   0  0  0  0  0  0  0  0  0  0  0  0
  -40.0410  -63.1960   51.1560 O   0  0  0  0  0  0  0  0  0  0  0  0
  -38.4910  -64.7550   50.0040 C   0  0  1  0  0  0  0  0  0  0  0  0
  -38.9160  -65.9500   49.1850 C   0  0  2  0  0  0  0  0  0  0  0  0
  -38.7060  -65.6410   47.7180 C   0  0  2  0  0  0  0  0  0  0  0  0
  -37.1840  -65.5450   47.5360 C   0  0  0  0  0  0  0  0  0  0  0  0
  -36.7610  -64.3620   48.3590 C   0  0  0  0  0  0  0  0  0  0  0  0
  -35.6200  -63.9870   48.3460 O   0  0  0  0  0  0  0  0  0  0  0  0
  -37.8370  -63.7020   49.1770 C   0  0  1  0  0  0  0  0  0  0  0  0
  -38.8290  -63.1280   48.1590 C   0  0  0  0  0  0  0  0  0  0  0  0
  -39.2810  -64.3050   47.3380 C   0  0  0  0  0  0  0  0  0  0  0  0
  -40.0570  -64.1450   46.4360 O   0  0  0  0  0  0  0  0  0  0  0  0
  -40.3000  -66.2510   49.5450 C   0  0  0  0  0  0  0  0  0  0  0  0
  -41.0300  -67.1010   48.9860 O   0  0  0  0  0  0  0  0  0  0  0  0
  -42.4860  -67.3610   54.3520 H   0  0  0  0  0  0  0  0  0  0  0  0
  -40.6190  -66.9210   52.7480 H   0  0  0  0  0  0  0  0  0  0  0  0
  -43.2030  -64.4330   50.5250 H   0  0  0  0  0  0  0  0  0  0  0  0
  -45.0480  -64.8710   52.1120 H   0  0  0  0  0  0  0  0  0  0  0  0
  -37.7570  -65.0520   50.8030 H   0  0  0  0  0  0  0  0  0  0  0  0
  -38.2360  -66.7950   49.4350 H   0  0  0  0  0  0  0  0  0  0  0  0
  -39.1440  -66.4210   47.0720 H   0  0  0  0  0  0  0  0  0  0  0  0
  -36.7680  -66.4420   48.0710 H   0  0  0  0  0  0  0  0  0  0  0  0
  -36.8930  -65.4690   46.4920 H   0  0  0  0  0  0  0  0  0  0  0  0
  -37.3890  -62.9370   49.8090 H   0  0  0  0  0  0  0  0  0  0  0  0
  -38.2340  -62.4040   47.5410 H   0  0  0  0  0  0  0  0  0  0  0  0
  -39.6710  -62.6260   48.6450 H   0  0  0  0  0  0  0  0  0  0  0  0
  2  3  1  0  0  0  0
  2  1  1  0  0  0  0
  3 23  1  0  0  0  0
  4 24  1  0  0  0  0
  4  3  2  0  0  0  0
  5  4  1  0  0  0  0
  6  5  2  0  0  0  0
  6  7  1  0  0  0  0
  7  2  2  0  0  0  0
  8  9  1  0  0  0  0
  8  5  1  0  0  0  0
  9 10  2  0  0  0  0
 11  9  1  0  0  0  0
 11 27  1  1  0  0  0
 12 28  1  1  0  0  0
 12 21  1  0  0  0  0
 12 11  1  0  0  0  0
 13 29  1  6  0  0  0
 13 12  1  0  0  0  0
 14 13  1  0  0  0  0
 14 30  1  0  0  0  0
 14 15  1  0  0  0  0
 15 17  1  0  0  0  0
 16 15  2  0  0  0  0
 17 32  1  1  0  0  0
 17 11  1  0  0  0  0
 18 34  1  0  0  0  0
 18 17  1  0  0  0  0
 19 13  1  0  0  0  0
 19 18  1  0  0  0  0
 20 19  2  0  0  0  0
 21  8  1  0  0  0  0
 22 21  2  0  0  0  0
 25  6  1  0  0  0  0
 26  7  1  0  0  0  0
 31 14  1  0  0  0  0
 33 18  1  0  0  0  0
M  END
>  <Pose>
1

>  <Score>
-5.01

$$$$
