
 OpenBabel03202209423D

 40 43  0  0  0  0  0  0  0  0999 V2000
  -41.6850  -64.0130   49.2750 Cl  0  0  0  0  0  0  0  0  0  0  0  0
  -41.2910  -65.3550   50.3300 C   0  0  0  0  0  0  0  0  0  0  0  0
  -41.9500  -65.5600   51.5210 C   0  0  0  0  0  0  0  0  0  0  0  0
  -41.6260  -66.6340   52.3540 C   0  0  0  0  0  0  0  0  0  0  0  0
  -40.6170  -67.4970   51.9490 C   0  0  0  0  0  0  0  0  0  0  0  0
  -39.9510  -67.3050   50.7620 C   0  0  0  0  0  0  0  0  0  0  0  0
  -40.2780  -66.2460   49.9550 C   0  0  0  0  0  0  0  0  0  0  0  0
  -40.2410  -68.6440   52.7940 C   0  0  0  0  0  0  0  0  0  0  0  0
  -39.3620  -69.5780   52.6590 N   0  0  0  0  0  0  0  0  0  0  0  0
  -39.3610  -70.4970   53.7650 C   0  0  0  0  0  0  0  0  0  0  0  0
  -40.4320  -69.9790   54.6740 C   0  0  0  0  0  0  0  0  0  0  0  0
  -40.9470  -68.8140   54.0080 N   0  0  0  0  0  0  0  0  0  0  0  0
  -41.9770  -67.9120   54.3950 C   0  0  0  0  0  0  0  0  0  0  0  0
  -42.6200  -68.0460   55.4740 O   0  0  0  0  0  0  0  0  0  0  0  0
  -42.3460  -66.7910   53.5710 N   0  0  0  0  0  0  0  0  0  0  0  0
  -43.4040  -65.8810   53.9880 C   0  0  0  0  0  0  0  0  0  0  0  0
  -44.7290  -66.3570   53.5300 C   0  0  0  0  0  0  0  0  0  0  0  0
  -45.0790  -66.0930   52.3540 O   0  0  0  0  0  0  0  0  0  0  0  0
  -45.6140  -67.0930   54.3540 N   0  0  0  0  0  0  0  0  0  0  0  0
  -46.8950  -67.5560   53.8790 C   0  0  0  0  0  0  0  0  0  0  0  0
  -47.9820  -67.1390   54.8350 C   0  0  0  0  0  0  0  0  0  0  0  0
  -48.6350  -68.1630   55.6920 C   0  0  0  0  0  0  0  0  0  0  0  0
  -49.3730  -67.6110   54.5330 C   0  0  0  0  0  0  0  0  0  0  0  0
  -42.7430  -64.8830   51.8370 H   0  0  0  0  0  0  0  0  0  0  0  0
  -39.1750  -67.9760   50.4610 H   0  0  0  0  0  0  0  0  0  0  0  0
  -39.7830  -66.0420   49.0000 H   0  0  0  0  0  0  0  0  0  0  0  0
  -38.3740  -70.5600   54.2690 H   0  0  0  0  0  0  0  0  0  0  0  0
  -39.6760  -71.5210   53.4230 H   0  0  0  0  0  0  0  0  0  0  0  0
  -41.2320  -70.7410   54.8630 H   0  0  0  0  0  0  0  0  0  0  0  0
  -39.9400  -69.6970   55.6350 H   0  0  0  0  0  0  0  0  0  0  0  0
  -43.1960  -64.8300   53.7730 H   0  0  0  0  0  0  0  0  0  0  0  0
  -43.4280  -65.9590   55.1170 H   0  0  0  0  0  0  0  0  0  0  0  0
  -45.3130  -67.2960   55.3290 H   0  0  0  0  0  0  0  0  0  0  0  0
  -46.8670  -68.6750   53.7590 H   0  0  0  0  0  0  0  0  0  0  0  0
  -47.0770  -67.1260   52.8810 H   0  0  0  0  0  0  0  0  0  0  0  0
  -47.9260  -66.0760   55.1480 H   0  0  0  0  0  0  0  0  0  0  0  0
  -48.2360  -69.2030   55.6600 H   0  0  0  0  0  0  0  0  0  0  0  0
  -48.9010  -67.8490   56.7280 H   0  0  0  0  0  0  0  0  0  0  0  0
  -49.4740  -68.2860   53.6520 H   0  0  0  0  0  0  0  0  0  0  0  0
  -50.2260  -66.9260   54.7350 H   0  0  0  0  0  0  0  0  0  0  0  0
  1  2  1  0  0  0  0
  2  3  1  0  0  0  0
  3 24  1  0  0  0  0
  3  4  2  0  0  0  0
  4 15  1  0  0  0  0
  5  4  1  0  0  0  0
  5  8  1  0  0  0  0
  6  5  2  0  0  0  0
  7  2  2  0  0  0  0
  7  6  1  0  0  0  0
  8 12  1  0  0  0  0
  9  8  2  0  0  0  0
  9 10  1  0  0  0  0
 10 27  1  0  0  0  0
 10 11  1  0  0  0  0
 11 29  1  0  0  0  0
 11 30  1  0  0  0  0
 12 13  1  0  0  0  0
 12 11  1  0  0  0  0
 13 14  2  0  0  0  0
 15 16  1  0  0  0  0
 15 13  1  0  0  0  0
 16 32  1  0  0  0  0
 17 16  1  0  0  0  0
 17 19  1  0  0  0  0
 18 17  2  0  0  0  0
 19 33  1  0  0  0  0
 20 19  1  0  0  0  0
 20 21  1  0  0  0  0
 21 36  1  0  0  0  0
 21 22  1  0  0  0  0
 22 38  1  0  0  0  0
 23 40  1  0  0  0  0
 23 21  1  0  0  0  0
 23 22  1  0  0  0  0
 25  6  1  0  0  0  0
 26  7  1  0  0  0  0
 28 10  1  0  0  0  0
 31 16  1  0  0  0  0
 34 20  1  0  0  0  0
 35 20  1  0  0  0  0
 37 22  1  0  0  0  0
 39 23  1  0  0  0  0
M  END
>  <Pose>
1

>  <Score>
-6.79

$$$$
