
 OpenBabel03202209423D

 63 66  0  0  1  0  0  0  0  0999 V2000
  -36.0980  -61.6760   44.1060 Cl  0  0  0  0  0  0  0  0  0  0  0  0
  -37.0910  -62.0940   45.4840 C   0  0  0  0  0  0  0  0  0  0  0  0
  -38.4520  -62.2620   45.4010 C   0  0  0  0  0  0  0  0  0  0  0  0
  -39.1900  -62.5920   46.5190 C   0  0  0  0  0  0  0  0  0  0  0  0
  -38.6070  -62.7700   47.7820 C   0  0  0  0  0  0  0  0  0  0  0  0
  -37.2440  -62.5980   47.8330 C   0  0  0  0  0  0  0  0  0  0  0  0
  -36.4920  -62.2630   46.7000 C   0  0  0  0  0  0  0  0  0  0  0  0
  -39.4350  -63.1590   48.9010 C   0  0  0  0  0  0  0  0  0  0  0  0
  -39.8940  -64.3890   49.0650 C   0  0  0  0  0  0  0  0  0  0  0  0
  -40.7660  -64.8500   50.2060 C   0  0  2  0  0  0  0  0  0  0  0  0
  -40.7450  -66.2830   50.1490 N   0  0  0  0  0  0  0  0  0  0  0  0
  -40.1700  -66.7290   48.9300 C   0  0  0  0  0  0  0  0  0  0  0  0
  -40.1230  -67.8930   48.5080 O   0  0  0  0  0  0  0  0  0  0  0  0
  -39.6310  -65.5290   48.2470 C   0  0  0  0  0  0  0  0  0  0  0  0
  -39.0450  -65.5510   47.1390 O   0  0  0  0  0  0  0  0  0  0  0  0
  -41.2310  -67.1740   51.1980 C   0  0  0  0  0  0  0  0  0  0  0  0
  -40.1390  -68.0940   51.6220 C   0  0  0  0  0  0  0  0  0  0  0  0
  -40.1020  -68.2490   53.0860 N   0  0  0  0  0  4  0  0  0  0  0  0
  -39.7790  -69.6120   53.3770 C   0  0  0  0  0  0  0  0  0  0  0  0
  -40.0980  -69.9750   54.8260 C   0  0  0  0  0  0  0  0  0  0  0  0
  -41.4690  -69.7130   55.0010 O   0  0  0  0  0  0  0  0  0  0  0  0
  -41.6270  -68.3430   54.9830 C   0  0  0  0  0  0  0  0  0  0  0  0
  -41.4010  -67.8390   53.5720 C   0  0  0  0  0  0  0  0  0  0  0  0
  -42.1120  -64.2600   49.9730 C   0  0  0  0  0  0  0  0  0  0  0  0
  -43.0430  -64.2660   50.9720 C   0  0  0  0  0  0  0  0  0  0  0  0
  -44.2720  -63.7110   50.7530 C   0  0  0  0  0  0  0  0  0  0  0  0
  -44.6060  -63.1400   49.5440 C   0  0  0  0  0  0  0  0  0  0  0  0
  -43.6640  -63.1330   48.5320 C   0  0  0  0  0  0  0  0  0  0  0  0
  -42.4180  -63.6980   48.7590 C   0  0  0  0  0  0  0  0  0  0  0  0
  -45.8590  -62.5770   49.3290 O   0  0  0  0  0  0  0  0  0  0  0  0
  -46.1160  -61.2720   49.8680 C   0  0  0  0  0  0  0  0  0  0  0  0
  -45.4950  -60.2300   48.9410 C   0  0  0  0  0  0  0  0  0  0  0  0
  -44.5860  -59.3610   49.7980 C   0  0  0  0  0  0  0  0  0  0  0  0
  -39.8030  -62.2220   49.8960 O   0  0  0  0  0  0  0  0  0  0  0  0
  -38.9150  -62.1260   44.4350 H   0  0  0  0  0  0  0  0  0  0  0  0
  -40.2620  -62.7200   46.4360 H   0  0  0  0  0  0  0  0  0  0  0  0
  -36.7300  -62.7520   48.7730 H   0  0  0  0  0  0  0  0  0  0  0  0
  -35.4130  -62.1350   46.7930 H   0  0  0  0  0  0  0  0  0  0  0  0
  -40.3510  -64.4630   51.1610 H   0  0  0  0  0  0  0  0  0  0  0  0
  -42.0740  -67.7680   50.7790 H   0  0  0  0  0  0  0  0  0  0  0  0
  -41.6010  -66.5620   52.0370 H   0  0  0  0  0  0  0  0  0  0  0  0
  -39.1450  -67.7210   51.3280 H   0  0  0  0  0  0  0  0  0  0  0  0
  -40.3200  -69.1180   51.2040 H   0  0  0  0  0  0  0  0  0  0  0  0
  -39.3660  -67.6220   53.5020 H   0  0  0  0  0  0  0  0  0  0  0  0
  -38.6680  -69.7200   53.2450 H   0  0  0  0  0  0  0  0  0  0  0  0
  -40.3360  -70.3250   52.7360 H   0  0  0  0  0  0  0  0  0  0  0  0
  -39.4720  -69.3160   55.4520 H   0  0  0  0  0  0  0  0  0  0  0  0
  -39.9060  -71.0400   54.9640 H   0  0  0  0  0  0  0  0  0  0  0  0
  -42.6620  -68.0740   55.2540 H   0  0  0  0  0  0  0  0  0  0  0  0
  -40.9160  -67.8170   55.6360 H   0  0  0  0  0  0  0  0  0  0  0  0
  -41.4070  -66.7290   53.5910 H   0  0  0  0  0  0  0  0  0  0  0  0
  -42.1660  -68.2240   52.8700 H   0  0  0  0  0  0  0  0  0  0  0  0
  -42.8310  -64.7020   51.9390 H   0  0  0  0  0  0  0  0  0  0  0  0
  -45.0220  -63.7090   51.5370 H   0  0  0  0  0  0  0  0  0  0  0  0
  -43.9440  -62.6810   47.5920 H   0  0  0  0  0  0  0  0  0  0  0  0
  -41.7180  -63.6630   47.9210 H   0  0  0  0  0  0  0  0  0  0  0  0
  -47.2010  -61.0890   49.9090 H   0  0  0  0  0  0  0  0  0  0  0  0
  -45.6960  -61.1960   50.8870 H   0  0  0  0  0  0  0  0  0  0  0  0
  -44.8610  -60.7680   48.2080 H   0  0  0  0  0  0  0  0  0  0  0  0
  -46.2820  -59.6320   48.4430 H   0  0  0  0  0  0  0  0  0  0  0  0
  -43.7130  -59.0360   49.2190 H   0  0  0  0  0  0  0  0  0  0  0  0
  -44.2000  -59.9200   50.6830 H   0  0  0  0  0  0  0  0  0  0  0  0
  -45.1750  -58.4800   50.1250 H   0  0  0  0  0  0  0  0  0  0  0  0
  1  2  1  0  0  0  0
  2  7  1  0  0  0  0
  3  2  2  0  0  0  0
  3  4  1  0  0  0  0
  4  5  2  0  0  0  0
  5  6  1  0  0  0  0
  5  8  1  0  0  0  0
  6 37  1  0  0  0  0
  7 38  1  0  0  0  0
  7  6  2  0  0  0  0
  8  9  2  0  0  0  0
  8 34  1  0  0  0  0
  9 10  1  0  0  0  0
 10 39  1  1  0  0  0
 11 10  1  0  0  0  0
 11 16  1  0  0  0  0
 12 11  1  0  0  0  0
 13 12  2  0  0  0  0
 14 12  1  0  0  0  0
 14  9  1  0  0  0  0
 15 14  2  0  0  0  0
 16 17  1  0  0  0  0
 16 41  1  0  0  0  0
 17 18  1  0  0  0  0
 18 19  1  0  0  0  0
 18 44  1  0  0  0  0
 18 23  1  0  0  0  0
 19 20  1  0  0  0  0
 20 48  1  0  0  0  0
 20 21  1  0  0  0  0
 20 47  1  0  0  0  0
 22 21  1  0  0  0  0
 22 49  1  0  0  0  0
 22 50  1  0  0  0  0
 23 51  1  0  0  0  0
 23 22  1  0  0  0  0
 24 10  1  0  0  0  0
 24 25  1  0  0  0  0
 25 53  1  0  0  0  0
 26 25  2  0  0  0  0
 26 54  1  0  0  0  0
 27 26  1  0  0  0  0
 28 29  1  0  0  0  0
 28 27  2  0  0  0  0
 29 24  2  0  0  0  0
 30 27  1  0  0  0  0
 30 31  1  0  0  0  0
 31 57  1  0  0  0  0
 31 58  1  0  0  0  0
 32 33  1  0  0  0  0
 32 31  1  0  0  0  0
 33 63  1  0  0  0  0
 33 62  1  0  0  0  0
 35  3  1  0  0  0  0
 36  4  1  0  0  0  0
 40 16  1  0  0  0  0
 42 17  1  0  0  0  0
 43 17  1  0  0  0  0
 45 19  1  0  0  0  0
 46 19  1  0  0  0  0
 52 23  1  0  0  0  0
 55 28  1  0  0  0  0
 56 29  1  0  0  0  0
 59 32  1  0  0  0  0
 60 32  1  0  0  0  0
 61 33  1  0  0  0  0
M  END
>  <Pose>
1

>  <Score>
-5.31

$$$$
