
 OpenBabel03202209423D

 57 61  0  0  1  0  0  0  0  0999 V2000
  -39.3350  -66.0680   49.3650 Cl  0  0  0  0  0  0  0  0  0  0  0  0
  -40.5770  -65.9700   50.6020 C   0  0  0  0  0  0  0  0  0  0  0  0
  -40.9670  -67.0720   51.3390 C   0  0  0  0  0  0  0  0  0  0  0  0
  -41.9370  -66.9850   52.3030 C   0  0  0  0  0  0  0  0  0  0  0  0
  -42.5770  -65.7790   52.5860 C   0  0  0  0  0  0  0  0  0  0  0  0
  -42.1980  -64.6770   51.8600 C   0  0  0  0  0  0  0  0  0  0  0  0
  -41.2220  -64.7910   50.8990 C   0  0  0  0  0  0  0  0  0  0  0  0
  -43.6140  -65.7080   53.6540 C   0  0  1  0  0  0  0  0  0  0  0  0
  -43.0420  -65.2190   54.8000 O   0  0  0  0  0  0  0  0  0  0  0  0
  -44.8540  -64.9720   53.2250 C   0  0  2  0  0  0  0  0  0  0  0  0
  -45.9380  -65.5160   54.0330 N   0  0  0  0  0  0  0  0  0  0  0  0
  -47.0970  -65.6090   53.1680 C   0  0  1  0  0  0  0  0  0  0  0  0
  -46.4830  -65.9200   51.8330 C   0  0  2  0  0  0  0  0  0  0  0  0
  -45.2070  -65.1410   51.7950 C   0  0  1  0  0  0  0  0  0  0  0  0
  -45.5320  -63.8590   51.1120 C   0  0  0  0  0  0  0  0  0  0  0  0
  -44.8270  -62.8210   51.0950 O   0  0  0  0  0  0  0  0  0  0  0  0
  -46.8140  -64.0500   50.4750 N   0  0  0  0  0  0  0  0  0  0  0  0
  -47.2290  -65.3850   50.6810 C   0  0  0  0  0  0  0  0  0  0  0  0
  -48.0800  -66.0250   50.0170 O   0  0  0  0  0  0  0  0  0  0  0  0
  -47.5420  -63.0400   49.7640 C   0  0  0  0  0  0  0  0  0  0  0  0
  -47.9540  -63.3860   48.3830 C   0  0  0  0  0  0  0  0  0  0  0  0
  -46.8650  -63.6410   47.4010 C   0  0  0  0  0  0  0  0  0  0  0  0
  -46.6430  -64.9900   47.1630 O   0  0  0  0  0  0  0  0  0  0  0  0
  -47.4220  -65.4030   46.0610 C   0  0  0  0  0  0  0  0  0  0  0  0
  -48.0310  -66.6750   53.6030 C   0  0  0  0  0  0  0  0  0  0  0  0
  -49.2200  -66.0570   53.9120 C   0  0  0  0  0  0  0  0  0  0  0  0
  -50.2850  -66.8320   54.3500 C   0  0  0  0  0  0  0  0  0  0  0  0
  -50.1250  -68.1920   54.4620 C   0  0  0  0  0  0  0  0  0  0  0  0
  -48.9330  -68.8250   54.1520 C   0  0  0  0  0  0  0  0  0  0  0  0
  -47.8820  -68.0430   53.7190 C   0  0  0  0  0  0  0  0  0  0  0  0
  -49.1270  -64.6340   53.7160 N   0  0  0  0  0  0  0  0  0  0  0  0
  -47.8160  -64.3510   53.2610 C   0  0  0  0  0  0  0  0  0  0  0  0
  -47.4040  -63.2080   53.0040 O   0  0  0  0  0  0  0  0  0  0  0  0
  -40.4830  -68.0330   51.1410 H   0  0  0  0  0  0  0  0  0  0  0  0
  -42.2420  -67.8690   52.8860 H   0  0  0  0  0  0  0  0  0  0  0  0
  -42.6360  -63.7020   52.0240 H   0  0  0  0  0  0  0  0  0  0  0  0
  -40.9070  -63.9220   50.3100 H   0  0  0  0  0  0  0  0  0  0  0  0
  -43.9210  -66.8070   53.8180 H   0  0  0  0  0  0  0  0  0  0  0  0
  -43.4070  -64.3110   54.9620 H   0  0  0  0  0  0  0  0  0  0  0  0
  -44.7600  -63.8870   53.5230 H   0  0  0  0  0  0  0  0  0  0  0  0
  -46.1140  -64.9200   54.8500 H   0  0  0  0  0  0  0  0  0  0  0  0
  -46.3160  -67.0110   51.7400 H   0  0  0  0  0  0  0  0  0  0  0  0
  -44.4270  -65.6410   51.1970 H   0  0  0  0  0  0  0  0  0  0  0  0
  -46.9400  -62.1110   49.7600 H   0  0  0  0  0  0  0  0  0  0  0  0
  -48.4820  -62.7580   50.3220 H   0  0  0  0  0  0  0  0  0  0  0  0
  -48.5380  -64.3530   48.4540 H   0  0  0  0  0  0  0  0  0  0  0  0
  -48.7070  -62.6730   47.9530 H   0  0  0  0  0  0  0  0  0  0  0  0
  -45.8920  -63.2010   47.6780 H   0  0  0  0  0  0  0  0  0  0  0  0
  -47.1770  -63.1730   46.4350 H   0  0  0  0  0  0  0  0  0  0  0  0
  -48.4980  -65.2500   46.2520 H   0  0  0  0  0  0  0  0  0  0  0  0
  -47.1520  -64.7550   45.1980 H   0  0  0  0  0  0  0  0  0  0  0  0
  -47.1860  -66.4480   45.7830 H   0  0  0  0  0  0  0  0  0  0  0  0
  -51.2380  -66.3410   54.5980 H   0  0  0  0  0  0  0  0  0  0  0  0
  -50.9700  -68.7860   54.8050 H   0  0  0  0  0  0  0  0  0  0  0  0
  -48.8780  -69.8990   54.2650 H   0  0  0  0  0  0  0  0  0  0  0  0
  -46.9300  -68.5360   53.4710 H   0  0  0  0  0  0  0  0  0  0  0  0
  -49.9230  -63.9800   53.8940 H   0  0  0  0  0  0  0  0  0  0  0  0
  1  2  1  0  0  0  0
  2  7  2  0  0  0  0
  2  3  1  0  0  0  0
  3  4  2  0  0  0  0
  4  5  1  0  0  0  0
  4 35  1  0  0  0  0
  5  8  1  0  0  0  0
  6 36  1  0  0  0  0
  6  5  2  0  0  0  0
  7  6  1  0  0  0  0
  8 38  1  1  0  0  0
  8  9  1  0  0  0  0
  9 39  1  0  0  0  0
 10 40  1  1  0  0  0
 10  8  1  0  0  0  0
 10 11  1  0  0  0  0
 11 41  1  0  0  0  0
 12 32  1  6  0  0  0
 12 25  1  0  0  0  0
 12 11  1  0  0  0  0
 13 42  1  6  0  0  0
 13 12  1  0  0  0  0
 14 43  1  6  0  0  0
 14 13  1  0  0  0  0
 14 10  1  0  0  0  0
 15 14  1  0  0  0  0
 16 15  2  0  0  0  0
 17 18  1  0  0  0  0
 17 15  1  0  0  0  0
 18 13  1  0  0  0  0
 19 18  2  0  0  0  0
 20 45  1  0  0  0  0
 20 17  1  0  0  0  0
 21 46  1  0  0  0  0
 21 20  1  0  0  0  0
 22 48  1  0  0  0  0
 22 21  1  0  0  0  0
 23 22  1  0  0  0  0
 24 50  1  0  0  0  0
 24 23  1  0  0  0  0
 25 30  2  0  0  0  0
 25 26  1  0  0  0  0
 26 27  2  0  0  0  0
 27 28  1  0  0  0  0
 27 53  1  0  0  0  0
 28 54  1  0  0  0  0
 29 55  1  0  0  0  0
 29 28  2  0  0  0  0
 30 29  1  0  0  0  0
 31 57  1  0  0  0  0
 31 26  1  0  0  0  0
 32 31  1  0  0  0  0
 33 32  2  0  0  0  0
 34  3  1  0  0  0  0
 37  7  1  0  0  0  0
 44 20  1  0  0  0  0
 47 21  1  0  0  0  0
 49 22  1  0  0  0  0
 51 24  1  0  0  0  0
 52 24  1  0  0  0  0
 56 30  1  0  0  0  0
M  END
>  <Pose>
1

>  <Score>
-5.81

$$$$
