
 OpenBabel03202209423D

 52 55  0  0  0  0  0  0  0  0999 V2000
  -51.2090  -70.7270   53.0920 Cl  0  0  0  0  0  0  0  0  0  0  0  0
  -50.1870  -69.3230   53.0880 C   0  0  0  0  0  0  0  0  0  0  0  0
  -49.4320  -68.9850   54.2120 C   0  0  0  0  0  0  0  0  0  0  0  0
  -48.6210  -67.8660   54.2020 C   0  0  0  0  0  0  0  0  0  0  0  0
  -48.5360  -67.0520   53.0750 C   0  0  0  0  0  0  0  0  0  0  0  0
  -49.2740  -67.3780   51.9720 C   0  0  0  0  0  0  0  0  0  0  0  0
  -50.0920  -68.5080   51.9840 C   0  0  0  0  0  0  0  0  0  0  0  0
  -47.6530  -65.8560   53.1080 C   0  0  0  0  0  0  0  0  0  0  0  0
  -46.2270  -66.2360   53.0870 C   0  0  0  0  0  0  0  0  0  0  0  0
  -45.9480  -67.4240   52.7770 O   0  0  0  0  0  0  0  0  0  0  0  0
  -45.1770  -65.3550   53.3900 N   0  0  0  0  0  0  0  0  0  0  0  0
  -44.2270  -65.6500   54.4770 C   0  0  0  0  0  0  0  0  0  0  0  0
  -42.8450  -65.1970   54.0320 C   0  0  0  0  0  0  0  0  0  0  0  0
  -42.8300  -65.2690   52.5850 N   0  0  0  0  0  0  0  0  0  0  0  0
  -43.6020  -64.2440   51.9040 C   0  0  0  0  0  0  0  0  0  0  0  0
  -44.9170  -64.1060   52.6890 C   0  0  0  0  0  0  0  0  0  0  0  0
  -42.1210  -66.2820   51.8880 C   0  0  0  0  0  0  0  0  0  0  0  0
  -42.2960  -66.4370   50.5260 C   0  0  0  0  0  0  0  0  0  0  0  0
  -41.6120  -67.4270   49.8820 N   0  0  0  0  0  0  0  0  0  0  0  0
  -40.7880  -68.2500   50.5020 N   0  0  0  0  0  0  0  0  0  0  0  0
  -40.5680  -68.1530   51.8490 C   0  0  0  0  0  0  0  0  0  0  0  0
  -41.2520  -67.1630   52.4870 C   0  0  0  0  0  0  0  0  0  0  0  0
  -39.6740  -69.0680   52.4490 N   0  0  0  0  0  0  0  0  0  0  0  0
  -40.1580  -70.1120   53.3330 C   0  0  0  0  0  0  0  0  0  0  0  0
  -39.2750  -70.2090   54.5780 C   0  0  0  0  0  0  0  0  0  0  0  0
  -37.9330  -70.2150   54.2520 O   0  0  0  0  0  0  0  0  0  0  0  0
  -37.6340  -69.0060   53.6430 C   0  0  0  0  0  0  0  0  0  0  0  0
  -38.2510  -69.0230   52.2330 C   0  0  0  0  0  0  0  0  0  0  0  0
  -49.4990  -69.6120   55.0760 H   0  0  0  0  0  0  0  0  0  0  0  0
  -48.0200  -67.5730   55.0620 H   0  0  0  0  0  0  0  0  0  0  0  0
  -49.2440  -66.7730   51.0610 H   0  0  0  0  0  0  0  0  0  0  0  0
  -50.6610  -68.7390   51.1000 H   0  0  0  0  0  0  0  0  0  0  0  0
  -47.8770  -65.3380   54.0850 H   0  0  0  0  0  0  0  0  0  0  0  0
  -47.9040  -65.1630   52.2800 H   0  0  0  0  0  0  0  0  0  0  0  0
  -44.2810  -66.7370   54.6360 H   0  0  0  0  0  0  0  0  0  0  0  0
  -44.5490  -65.1520   55.4150 H   0  0  0  0  0  0  0  0  0  0  0  0
  -42.0320  -65.7730   54.4970 H   0  0  0  0  0  0  0  0  0  0  0  0
  -42.7020  -64.1300   54.3140 H   0  0  0  0  0  0  0  0  0  0  0  0
  -43.8130  -64.4520   50.8550 H   0  0  0  0  0  0  0  0  0  0  0  0
  -43.0570  -63.2880   52.0400 H   0  0  0  0  0  0  0  0  0  0  0  0
  -45.7390  -63.7730   52.0570 H   0  0  0  0  0  0  0  0  0  0  0  0
  -44.7880  -63.3360   53.4870 H   0  0  0  0  0  0  0  0  0  0  0  0
  -42.9360  -65.8260   49.9370 H   0  0  0  0  0  0  0  0  0  0  0  0
  -41.1150  -67.0480   53.5480 H   0  0  0  0  0  0  0  0  0  0  0  0
  -41.1930  -69.9270   53.6850 H   0  0  0  0  0  0  0  0  0  0  0  0
  -40.0600  -71.0840   52.8170 H   0  0  0  0  0  0  0  0  0  0  0  0
  -39.5290  -71.1430   55.0960 H   0  0  0  0  0  0  0  0  0  0  0  0
  -39.4820  -69.3840   55.2820 H   0  0  0  0  0  0  0  0  0  0  0  0
  -36.5650  -68.7860   53.6050 H   0  0  0  0  0  0  0  0  0  0  0  0
  -38.2050  -68.2030   54.1870 H   0  0  0  0  0  0  0  0  0  0  0  0
  -37.8750  -68.1890   51.6540 H   0  0  0  0  0  0  0  0  0  0  0  0
  -37.9580  -70.0110   51.7790 H   0  0  0  0  0  0  0  0  0  0  0  0
  2  1  1  0  0  0  0
  2  3  1  0  0  0  0
  3 29  1  0  0  0  0
  4  3  2  0  0  0  0
  4 30  1  0  0  0  0
  5  8  1  0  0  0  0
  5  4  1  0  0  0  0
  6  7  1  0  0  0  0
  6  5  2  0  0  0  0
  7  2  2  0  0  0  0
  8 33  1  0  0  0  0
  9  8  1  0  0  0  0
  9 11  1  0  0  0  0
 10  9  2  0  0  0  0
 11 12  1  0  0  0  0
 12 35  1  0  0  0  0
 12 36  1  0  0  0  0
 13 38  1  0  0  0  0
 13 12  1  0  0  0  0
 13 37  1  0  0  0  0
 14 13  1  0  0  0  0
 15 40  1  0  0  0  0
 15 14  1  0  0  0  0
 15 16  1  0  0  0  0
 16 11  1  0  0  0  0
 16 42  1  0  0  0  0
 17 22  1  0  0  0  0
 17 14  1  0  0  0  0
 18 17  2  0  0  0  0
 19 20  2  0  0  0  0
 19 18  1  0  0  0  0
 20 21  1  0  0  0  0
 21 23  1  0  0  0  0
 21 22  2  0  0  0  0
 22 44  1  0  0  0  0
 23 24  1  0  0  0  0
 24 45  1  0  0  0  0
 24 25  1  0  0  0  0
 25 47  1  0  0  0  0
 25 48  1  0  0  0  0
 26 25  1  0  0  0  0
 27 50  1  0  0  0  0
 27 26  1  0  0  0  0
 28 23  1  0  0  0  0
 28 27  1  0  0  0  0
 31  6  1  0  0  0  0
 32  7  1  0  0  0  0
 34  8  1  0  0  0  0
 39 15  1  0  0  0  0
 41 16  1  0  0  0  0
 43 18  1  0  0  0  0
 46 24  1  0  0  0  0
 49 27  1  0  0  0  0
 51 28  1  0  0  0  0
 52 28  1  0  0  0  0
M  END
>  <Pose>
1

>  <Score>
-5.30

$$$$
