
 OpenBabel03202209423D

 42 45  0  0  0  0  0  0  0  0999 V2000
  -37.1850  -67.0460   48.2840 Cl  0  0  0  0  0  0  0  0  0  0  0  0
  -37.2090  -67.9490   49.7670 C   0  0  0  0  0  0  0  0  0  0  0  0
  -38.3400  -68.1250   50.5530 C   0  0  0  0  0  0  0  0  0  0  0  0
  -38.2980  -68.8480   51.6950 C   0  0  0  0  0  0  0  0  0  0  0  0
  -37.0780  -69.3970   52.0350 C   0  0  0  0  0  0  0  0  0  0  0  0
  -35.9430  -69.2600   51.3090 C   0  0  0  0  0  0  0  0  0  0  0  0
  -35.9670  -68.5440   50.1630 C   0  0  0  0  0  0  0  0  0  0  0  0
  -39.4240  -69.0720   52.5740 N   0  0  0  0  0  0  0  0  0  0  0  0
  -39.6210  -70.2460   53.1340 N   0  0  0  0  0  0  0  0  0  0  0  0
  -40.6020  -70.1180   53.7870 N   0  0  0  0  0  0  0  0  0  0  0  0
  -41.3870  -69.2190   54.0130 C   0  0  0  0  0  0  0  0  0  0  0  0
  -40.4060  -68.3120   52.9800 C   0  0  0  0  0  0  0  0  0  0  0  0
  -42.3250  -68.1450   54.2840 C   0  0  0  0  0  0  0  0  0  0  0  0
  -42.2050  -67.9920   55.6620 O   0  0  0  0  0  0  0  0  0  0  0  0
  -43.2250  -67.2700   53.7740 N   0  0  0  0  0  0  0  0  0  0  0  0
  -44.0550  -67.3220   52.6070 C   0  0  0  0  0  0  0  0  0  0  0  0
  -44.3820  -65.8850   52.1510 C   0  0  0  0  0  0  0  0  0  0  0  0
  -43.1810  -65.1200   52.5160 N   0  0  0  0  0  0  0  0  0  0  0  0
  -42.9260  -64.8600   53.8940 C   0  0  0  0  0  0  0  0  0  0  0  0
  -43.4610  -66.0540   54.6160 C   0  0  0  0  0  0  0  0  0  0  0  0
  -42.2660  -64.7700   51.5300 C   0  0  0  0  0  0  0  0  0  0  0  0
  -40.9620  -64.3860   51.8620 N   0  0  0  0  0  0  0  0  0  0  0  0
  -40.0330  -64.0690   51.0300 C   0  0  0  0  0  0  0  0  0  0  0  0
  -40.2410  -64.0900   49.6420 C   0  0  0  0  0  0  0  0  0  0  0  0
  -41.5350  -64.4630   49.3030 C   0  0  0  0  0  0  0  0  0  0  0  0
  -42.4180  -64.7630   50.1800 N   0  0  0  0  0  0  0  0  0  0  0  0
  -39.2570  -67.6240   50.2570 H   0  0  0  0  0  0  0  0  0  0  0  0
  -37.0900  -69.9810   53.0020 H   0  0  0  0  0  0  0  0  0  0  0  0
  -35.0200  -69.7280   51.6400 H   0  0  0  0  0  0  0  0  0  0  0  0
  -35.1510  -68.3830   49.5310 H   0  0  0  0  0  0  0  0  0  0  0  0
  -40.6220  -67.3510   52.7640 H   0  0  0  0  0  0  0  0  0  0  0  0
  -45.0670  -67.7200   52.8680 H   0  0  0  0  0  0  0  0  0  0  0  0
  -43.6080  -67.7920   51.7420 H   0  0  0  0  0  0  0  0  0  0  0  0
  -44.5620  -65.8070   51.0810 H   0  0  0  0  0  0  0  0  0  0  0  0
  -45.2630  -65.5290   52.7330 H   0  0  0  0  0  0  0  0  0  0  0  0
  -43.4730  -63.9700   54.2500 H   0  0  0  0  0  0  0  0  0  0  0  0
  -41.8120  -64.6750   54.0570 H   0  0  0  0  0  0  0  0  0  0  0  0
  -44.5300  -66.0340   54.9090 H   0  0  0  0  0  0  0  0  0  0  0  0
  -42.8550  -66.1810   55.5250 H   0  0  0  0  0  0  0  0  0  0  0  0
  -39.0260  -63.7240   51.3200 H   0  0  0  0  0  0  0  0  0  0  0  0
  -39.5050  -63.8330   48.9080 H   0  0  0  0  0  0  0  0  0  0  0  0
  -41.7890  -64.4760   48.2140 H   0  0  0  0  0  0  0  0  0  0  0  0
  1  2  1  0  0  0  0
  2  7  2  0  0  0  0
  2  3  1  0  0  0  0
  3  4  2  0  0  0  0
  4  5  1  0  0  0  0
  4  8  1  0  0  0  0
  5 28  1  0  0  0  0
  6 29  1  0  0  0  0
  6  5  2  0  0  0  0
  7  6  1  0  0  0  0
  8 12  1  0  0  0  0
  8  9  1  0  0  0  0
  9 10  2  0  0  0  0
 10 11  1  0  0  0  0
 11 13  1  0  0  0  0
 12 11  2  0  0  0  0
 13 14  2  0  0  0  0
 15 13  1  0  0  0  0
 15 20  1  0  0  0  0
 16 32  1  0  0  0  0
 16 15  1  0  0  0  0
 17 18  1  0  0  0  0
 17 16  1  0  0  0  0
 17 35  1  0  0  0  0
 18 19  1  0  0  0  0
 19 37  1  0  0  0  0
 19 36  1  0  0  0  0
 19 20  1  0  0  0  0
 20 38  1  0  0  0  0
 20 39  1  0  0  0  0
 21 22  2  0  0  0  0
 21 18  1  0  0  0  0
 23 40  1  0  0  0  0
 23 22  1  0  0  0  0
 24 23  2  0  0  0  0
 25 24  1  0  0  0  0
 25 26  2  0  0  0  0
 26 21  1  0  0  0  0
 27  3  1  0  0  0  0
 30  7  1  0  0  0  0
 31 12  1  0  0  0  0
 33 16  1  0  0  0  0
 34 17  1  0  0  0  0
 41 24  1  0  0  0  0
 42 25  1  0  0  0  0
M  END
>  <Pose>
1

>  <Score>
-6.09

$$$$
