
 OpenBabel03202209423D

 33 36  0  0  1  0  0  0  0  0999 V2000
  -38.1920  -69.5840   51.1530 Cl  0  0  0  0  0  0  0  0  0  0  0  0
  -39.2320  -69.3670   52.5430 C   0  0  0  0  0  0  0  0  0  0  0  0
  -40.1690  -68.3570   52.5950 C   0  0  0  0  0  0  0  0  0  0  0  0
  -40.9990  -68.1760   53.6890 C   0  0  0  0  0  0  0  0  0  0  0  0
  -40.8480  -69.0580   54.7410 C   0  0  0  0  0  0  0  0  0  0  0  0
  -39.9050  -70.0760   54.6900 C   0  0  0  0  0  0  0  0  0  0  0  0
  -39.0830  -70.2490   53.5940 C   0  0  0  0  0  0  0  0  0  0  0  0
  -41.9650  -67.1330   53.7450 N   0  0  0  0  0  0  0  0  0  0  0  0
  -43.2180  -67.1160   54.4550 C   0  0  0  0  0  0  0  0  0  0  0  0
  -43.6980  -68.0930   55.0770 O   0  0  0  0  0  0  0  0  0  0  0  0
  -43.8320  -65.7960   54.3370 C   0  0  2  0  0  0  0  0  0  0  0  0
  -45.0290  -65.7260   53.4460 C   0  0  1  0  0  0  0  0  0  0  0  0
  -44.9690  -64.3640   53.0550 O   0  0  0  0  0  0  0  0  0  0  0  0
  -43.7010  -64.4340   52.4220 C   0  0  1  0  0  0  0  0  0  0  0  0
  -42.8360  -64.9230   53.5570 C   0  0  2  0  0  0  0  0  0  0  0  0
  -41.8440  -65.8850   53.0720 C   0  0  0  0  0  0  0  0  0  0  0  0
  -40.9880  -65.6600   52.1820 O   0  0  0  0  0  0  0  0  0  0  0  0
  -43.9210  -65.5690   51.5000 C   0  0  0  0  0  0  0  0  0  0  0  0
  -44.7970  -66.3780   52.1380 C   0  0  0  0  0  0  0  0  0  0  0  0
  -46.3250  -66.0620   54.0950 C   0  0  0  0  0  0  0  0  0  0  0  0
  -46.4790  -67.4420   54.1310 O   0  0  0  0  0  0  0  0  0  0  0  0
  -40.2950  -67.6580   51.7690 H   0  0  0  0  0  0  0  0  0  0  0  0
  -41.4910  -68.9330   55.6100 H   0  0  0  0  0  0  0  0  0  0  0  0
  -39.7990  -70.7640   55.5250 H   0  0  0  0  0  0  0  0  0  0  0  0
  -38.3510  -71.0510   53.5750 H   0  0  0  0  0  0  0  0  0  0  0  0
  -44.0870  -65.3250   55.3010 H   0  0  0  0  0  0  0  0  0  0  0  0
  -43.3960  -63.5050   51.9730 H   0  0  0  0  0  0  0  0  0  0  0  0
  -42.4210  -64.1250   54.1750 H   0  0  0  0  0  0  0  0  0  0  0  0
  -43.4990  -65.7440   50.5340 H   0  0  0  0  0  0  0  0  0  0  0  0
  -45.2210  -67.2940   51.7510 H   0  0  0  0  0  0  0  0  0  0  0  0
  -47.1340  -65.6470   53.4390 H   0  0  0  0  0  0  0  0  0  0  0  0
  -46.4590  -65.6020   55.0850 H   0  0  0  0  0  0  0  0  0  0  0  0
  -46.1970  -67.7950   55.0060 H   0  0  0  0  0  0  0  0  0  0  0  0
  1  2  1  0  0  0  0
  2  3  2  0  0  0  0
  2  7  1  0  0  0  0
  3  4  1  0  0  0  0
  4  8  1  0  0  0  0
  4  5  2  0  0  0  0
  5 23  1  0  0  0  0
  6  5  1  0  0  0  0
  6 24  1  0  0  0  0
  7  6  2  0  0  0  0
  8  9  1  0  0  0  0
  9 10  2  0  0  0  0
 11  9  1  0  0  0  0
 11 26  1  1  0  0  0
 12 20  1  1  0  0  0
 12 11  1  0  0  0  0
 13 12  1  0  0  0  0
 14 27  1  6  0  0  0
 14 13  1  0  0  0  0
 14 15  1  0  0  0  0
 15 28  1  1  0  0  0
 15 11  1  0  0  0  0
 16 15  1  0  0  0  0
 16  8  1  0  0  0  0
 17 16  2  0  0  0  0
 18 19  2  0  0  0  0
 18 14  1  0  0  0  0
 19 12  1  0  0  0  0
 20 21  1  0  0  0  0
 20 32  1  0  0  0  0
 21 33  1  0  0  0  0
 22  3  1  0  0  0  0
 25  7  1  0  0  0  0
 29 18  1  0  0  0  0
 30 19  1  0  0  0  0
 31 20  1  0  0  0  0
M  END
>  <Pose>
1

>  <Score>
-5.78

$$$$
