
 OpenBabel03202209423D

 42 45  0  0  1  0  0  0  0  0999 V2000
  -38.6530  -70.5150   53.8210 Cl  0  0  0  0  0  0  0  0  0  0  0  0
  -39.6930  -69.2130   53.2460 C   0  0  0  0  0  0  0  0  0  0  0  0
  -40.8330  -68.8330   53.9250 C   0  0  0  0  0  0  0  0  0  0  0  0
  -41.6440  -67.8350   53.5000 N   0  0  0  0  0  0  0  0  0  0  0  0
  -41.3840  -67.1460   52.3730 C   0  0  0  0  0  0  0  0  0  0  0  0
  -42.1860  -66.1420   51.9300 N   0  0  0  0  0  0  0  0  0  0  0  0
  -43.2980  -65.7660   52.5860 C   0  0  0  0  0  0  0  0  0  0  0  0
  -43.5820  -66.4680   53.7530 C   0  0  1  0  0  0  0  0  0  0  0  0
  -44.8110  -66.0540   54.4790 C   0  0  0  0  0  0  0  0  0  0  0  0
  -45.8410  -65.9170   53.4440 N   0  0  0  0  0  0  0  0  0  0  0  0
  -45.6300  -64.9310   52.4220 C   0  0  0  0  0  0  0  0  0  0  0  0
  -44.1820  -64.6690   52.1150 C   0  0  0  0  0  0  0  0  0  0  0  0
  -46.9910  -66.7370   53.4600 C   0  0  0  0  0  0  0  0  0  0  0  0
  -47.1570  -67.4800   54.4860 O   0  0  0  0  0  0  0  0  0  0  0  0
  -47.9790  -66.7590   52.3590 C   0  0  0  0  0  0  0  0  0  0  0  0
  -48.5950  -65.3990   52.1150 C   0  0  0  0  0  0  0  0  0  0  0  0
  -48.8680  -64.8150   53.4950 C   0  0  0  0  0  0  0  0  0  0  0  0
  -49.3070  -65.8150   54.3610 O   0  0  0  0  0  0  0  0  0  0  0  0
  -50.0290  -66.8030   53.6790 C   0  0  0  0  0  0  0  0  0  0  0  0
  -49.1430  -67.6610   52.7960 C   0  0  0  0  0  0  0  0  0  0  0  0
  -42.7500  -67.4810   54.1780 C   0  0  0  0  0  0  0  0  0  0  0  0
  -43.0320  -68.1090   55.2490 O   0  0  0  0  0  0  0  0  0  0  0  0
  -40.2440  -67.5120   51.6750 C   0  0  0  0  0  0  0  0  0  0  0  0
  -39.4020  -68.5240   52.0880 C   0  0  0  0  0  0  0  0  0  0  0  0
  -41.0820  -69.3620   54.8420 H   0  0  0  0  0  0  0  0  0  0  0  0
  -44.6120  -65.1120   54.9990 H   0  0  0  0  0  0  0  0  0  0  0  0
  -45.1370  -66.8000   55.2180 H   0  0  0  0  0  0  0  0  0  0  0  0
  -46.0990  -65.2420   51.4600 H   0  0  0  0  0  0  0  0  0  0  0  0
  -46.1350  -63.9890   52.7870 H   0  0  0  0  0  0  0  0  0  0  0  0
  -43.8370  -63.7260   52.6310 H   0  0  0  0  0  0  0  0  0  0  0  0
  -43.9930  -64.5360   51.0290 H   0  0  0  0  0  0  0  0  0  0  0  0
  -47.5040  -67.1670   51.4390 H   0  0  0  0  0  0  0  0  0  0  0  0
  -49.6160  -65.5840   51.6750 H   0  0  0  0  0  0  0  0  0  0  0  0
  -48.0240  -64.7410   51.4680 H   0  0  0  0  0  0  0  0  0  0  0  0
  -47.9060  -64.4480   53.8910 H   0  0  0  0  0  0  0  0  0  0  0  0
  -49.5610  -63.9570   53.4550 H   0  0  0  0  0  0  0  0  0  0  0  0
  -50.4560  -67.4740   54.4530 H   0  0  0  0  0  0  0  0  0  0  0  0
  -50.8830  -66.3750   53.1220 H   0  0  0  0  0  0  0  0  0  0  0  0
  -48.7830  -68.5660   53.2950 H   0  0  0  0  0  0  0  0  0  0  0  0
  -49.7290  -67.8560   51.8680 H   0  0  0  0  0  0  0  0  0  0  0  0
  -40.0280  -66.9580   50.7610 H   0  0  0  0  0  0  0  0  0  0  0  0
  -38.5110  -68.8050   51.5360 H   0  0  0  0  0  0  0  0  0  0  0  0
  2  1  1  0  0  0  0
  2  3  1  0  0  0  0
  3 25  1  0  0  0  0
  4  3  1  0  0  0  0
  4 21  1  0  0  0  0
  5  4  1  0  0  0  0
  6  5  1  0  0  0  0
  6  7  2  0  0  0  0
  8  7  1  6  0  0  0
  8 21  1  0  0  0  0
  8  9  1  0  0  0  0
  9 26  1  0  0  0  0
  9 27  1  0  0  0  0
 10 13  1  0  0  0  0
 10  9  1  0  0  0  0
 11 29  1  0  0  0  0
 11 10  1  0  0  0  0
 12 11  1  0  0  0  0
 12  7  1  0  0  0  0
 12 30  1  0  0  0  0
 13 14  2  0  0  0  0
 15 20  1  0  0  0  0
 15 13  1  0  0  0  0
 16 15  1  0  0  0  0
 16 17  1  0  0  0  0
 17 35  1  0  0  0  0
 17 18  1  0  0  0  0
 19 18  1  0  0  0  0
 19 37  1  0  0  0  0
 20 39  1  0  0  0  0
 20 19  1  0  0  0  0
 21 22  2  0  0  0  0
 23 24  1  0  0  0  0
 23  5  2  0  0  0  0
 24  2  2  0  0  0  0
 28 11  1  0  0  0  0
 31 12  1  0  0  0  0
 32 15  1  0  0  0  0
 33 16  1  0  0  0  0
 34 16  1  0  0  0  0
 36 17  1  0  0  0  0
 38 19  1  0  0  0  0
 40 20  1  0  0  0  0
 41 23  1  0  0  0  0
 42 24  1  0  0  0  0
M  END
>  <Pose>
1

>  <Score>
-5.75

$$$$
