
 OpenBabel03202209423D

 57 60  0  0  0  0  0  0  0  0999 V2000
  -39.3700  -70.6290   53.9060 Cl  0  0  0  0  0  0  0  0  0  0  0  0
  -40.4010  -69.2240   53.7820 C   0  0  0  0  0  0  0  0  0  0  0  0
  -40.5910  -68.5880   52.5760 C   0  0  0  0  0  0  0  0  0  0  0  0
  -41.4030  -67.4870   52.4980 C   0  0  0  0  0  0  0  0  0  0  0  0
  -42.0400  -67.0140   53.6520 C   0  0  0  0  0  0  0  0  0  0  0  0
  -41.8540  -67.6470   54.8700 C   0  0  0  0  0  0  0  0  0  0  0  0
  -41.0360  -68.7430   54.9060 C   0  0  0  0  0  0  0  0  0  0  0  0
  -42.8860  -65.9190   53.7400 O   0  0  0  0  0  0  0  0  0  0  0  0
  -43.6480  -65.3320   52.7110 C   0  0  0  0  0  0  0  0  0  0  0  0
  -42.7940  -64.7240   51.6460 C   0  0  0  0  0  0  0  0  0  0  0  0
  -41.6390  -65.4850   51.2770 N   0  0  0  0  0  0  0  0  0  0  0  0
  -41.5090  -66.9120   51.1330 C   0  0  0  0  0  0  0  0  0  0  0  0
  -40.4240  -64.7660   51.0080 C   0  0  0  0  0  0  0  0  0  0  0  0
  -40.2500  -63.6920   51.6340 O   0  0  0  0  0  0  0  0  0  0  0  0
  -39.4350  -65.2600   50.0510 C   0  0  0  0  0  0  0  0  0  0  0  0
  -39.7970  -65.2850   48.6820 N   0  0  0  0  0  0  0  0  0  0  0  0
  -38.9080  -66.1450   47.8970 C   0  0  0  0  0  0  0  0  0  0  0  0
  -37.5310  -65.6060   47.9980 C   0  0  0  0  0  0  0  0  0  0  0  0
  -37.3730  -64.1360   47.7980 C   0  0  0  0  0  0  0  0  0  0  0  0
  -38.6010  -63.3140   47.8190 C   0  0  0  0  0  0  0  0  0  0  0  0
  -39.8950  -64.0070   48.0220 C   0  0  0  0  0  0  0  0  0  0  0  0
  -36.3410  -63.5690   48.7010 C   0  0  0  0  0  0  0  0  0  0  0  0
  -35.2530  -63.1880   48.2230 O   0  0  0  0  0  0  0  0  0  0  0  0
  -36.5930  -63.4680   50.0860 N   0  0  0  0  0  0  0  0  0  0  0  0
  -44.6320  -66.3530   52.1620 C   0  0  0  0  0  0  0  0  0  0  0  0
  -45.9520  -66.2630   52.9060 C   0  0  0  0  0  0  0  0  0  0  0  0
  -46.6110  -65.0720   52.6730 O   0  0  0  0  0  0  0  0  0  0  0  0
  -45.7090  -64.0550   52.3810 C   0  0  0  0  0  0  0  0  0  0  0  0
  -44.5050  -64.2040   53.2910 C   0  0  0  0  0  0  0  0  0  0  0  0
  -40.1060  -68.9440   51.6790 H   0  0  0  0  0  0  0  0  0  0  0  0
  -42.3630  -67.2480   55.7340 H   0  0  0  0  0  0  0  0  0  0  0  0
  -40.8640  -69.2670   55.8420 H   0  0  0  0  0  0  0  0  0  0  0  0
  -43.4290  -64.5670   50.7360 H   0  0  0  0  0  0  0  0  0  0  0  0
  -42.5100  -63.6990   52.0000 H   0  0  0  0  0  0  0  0  0  0  0  0
  -42.3270  -67.3740   50.5470 H   0  0  0  0  0  0  0  0  0  0  0  0
  -40.5660  -67.1780   50.5980 H   0  0  0  0  0  0  0  0  0  0  0  0
  -39.2190  -66.3310   50.3450 H   0  0  0  0  0  0  0  0  0  0  0  0
  -38.4650  -64.7350   50.2610 H   0  0  0  0  0  0  0  0  0  0  0  0
  -38.9390  -67.1590   48.2940 H   0  0  0  0  0  0  0  0  0  0  0  0
  -39.2480  -66.0660   46.8390 H   0  0  0  0  0  0  0  0  0  0  0  0
  -37.0790  -65.8540   49.0010 H   0  0  0  0  0  0  0  0  0  0  0  0
  -36.8970  -66.2170   47.2870 H   0  0  0  0  0  0  0  0  0  0  0  0
  -36.9160  -64.0290   46.7630 H   0  0  0  0  0  0  0  0  0  0  0  0
  -38.6450  -62.6290   46.9180 H   0  0  0  0  0  0  0  0  0  0  0  0
  -38.5070  -62.5710   48.6690 H   0  0  0  0  0  0  0  0  0  0  0  0
  -40.6970  -63.4230   48.4840 H   0  0  0  0  0  0  0  0  0  0  0  0
  -40.2920  -64.2470   46.9880 H   0  0  0  0  0  0  0  0  0  0  0  0
  -35.8650  -63.9140   50.7190 H   0  0  0  0  0  0  0  0  0  0  0  0
  -37.3980  -63.0110   50.5290 H   0  0  0  0  0  0  0  0  0  0  0  0
  -44.2410  -67.3810   52.3670 H   0  0  0  0  0  0  0  0  0  0  0  0
  -44.8410  -66.1920   51.0920 H   0  0  0  0  0  0  0  0  0  0  0  0
  -46.6010  -67.0850   52.5330 H   0  0  0  0  0  0  0  0  0  0  0  0
  -45.7910  -66.3890   53.9920 H   0  0  0  0  0  0  0  0  0  0  0  0
  -45.4240  -64.1800   51.3100 H   0  0  0  0  0  0  0  0  0  0  0  0
  -46.1830  -63.0610   52.4740 H   0  0  0  0  0  0  0  0  0  0  0  0
  -44.8970  -64.5280   54.2790 H   0  0  0  0  0  0  0  0  0  0  0  0
  -43.9310  -63.2740   53.3960 H   0  0  0  0  0  0  0  0  0  0  0  0
  2  1  1  0  0  0  0
  2  7  1  0  0  0  0
  3  2  2  0  0  0  0
  4  3  1  0  0  0  0
  4  5  2  0  0  0  0
  5  8  1  0  0  0  0
  5  6  1  0  0  0  0
  6  7  2  0  0  0  0
  6 31  1  0  0  0  0
  7 32  1  0  0  0  0
  9 29  1  0  0  0  0
  9  8  1  0  0  0  0
 10 34  1  0  0  0  0
 10  9  1  0  0  0  0
 11 10  1  0  0  0  0
 12 11  1  0  0  0  0
 12  4  1  0  0  0  0
 13 11  1  0  0  0  0
 13 14  2  0  0  0  0
 15 38  1  0  0  0  0
 15 37  1  0  0  0  0
 15 13  1  0  0  0  0
 16 15  1  0  0  0  0
 17 18  1  0  0  0  0
 17 39  1  0  0  0  0
 17 16  1  0  0  0  0
 18 41  1  0  0  0  0
 19 20  1  0  0  0  0
 19 18  1  0  0  0  0
 19 22  1  0  0  0  0
 20 21  1  0  0  0  0
 20 45  1  0  0  0  0
 21 46  1  0  0  0  0
 21 16  1  0  0  0  0
 22 24  1  0  0  0  0
 23 22  2  0  0  0  0
 24 49  1  0  0  0  0
 24 48  1  0  0  0  0
 25 50  1  0  0  0  0
 25  9  1  0  0  0  0
 25 26  1  0  0  0  0
 26 53  1  0  0  0  0
 27 26  1  0  0  0  0
 28 55  1  0  0  0  0
 28 27  1  0  0  0  0
 28 29  1  0  0  0  0
 29 57  1  0  0  0  0
 29 56  1  0  0  0  0
 30  3  1  0  0  0  0
 33 10  1  0  0  0  0
 35 12  1  0  0  0  0
 36 12  1  0  0  0  0
 40 17  1  0  0  0  0
 42 18  1  0  0  0  0
 43 19  1  0  0  0  0
 44 20  1  0  0  0  0
 47 21  1  0  0  0  0
 51 25  1  0  0  0  0
 52 26  1  0  0  0  0
 54 28  1  0  0  0  0
M  END
>  <Pose>
1

>  <Score>
-6.07

$$$$
