
 OpenBabel03202209423D

 43 46  0  0  1  0  0  0  0  0999 V2000
  -48.4920  -64.3660   51.9200 S   0  0  0  0  0  0  0  0  0  0  0  0
  -49.6150  -64.9620   52.6780 O   0  0  0  0  0  0  0  0  0  0  0  0
  -48.5910  -62.8570   51.9600 O   0  0  0  0  0  0  0  0  0  0  0  0
  -46.9980  -64.8290   52.5690 N   0  0  0  0  0  0  0  0  0  0  0  0
  -45.8610  -64.2500   51.9220 C   0  0  0  0  0  0  0  0  0  0  0  0
  -44.5850  -64.4050   52.7070 C   0  0  0  0  0  0  0  0  0  0  0  0
  -44.5170  -65.6690   53.4030 N   0  0  0  0  0  0  0  0  0  0  0  0
  -45.5410  -66.6770   53.3220 C   0  0  0  0  0  0  0  0  0  0  0  0
  -46.8810  -66.2030   52.9060 C   0  0  0  0  0  0  0  0  0  0  0  0
  -43.3760  -65.9310   54.2090 C   0  0  0  0  0  0  0  0  0  0  0  0
  -43.3010  -65.4980   55.4070 O   0  0  0  0  0  0  0  0  0  0  0  0
  -42.2500  -66.7050   53.6890 C   0  0  1  0  0  0  0  0  0  0  0  0
  -41.5100  -66.3190   52.5890 C   0  0  0  0  0  0  0  0  0  0  0  0
  -40.4850  -67.0810   52.1670 N   0  0  0  0  0  0  0  0  0  0  0  0
  -40.1220  -68.2310   52.7650 C   0  0  2  0  0  0  0  0  0  0  0  0
  -40.8330  -68.6210   53.8390 N   0  0  0  0  0  0  0  0  0  0  0  0
  -40.4840  -69.7700   54.4520 C   0  0  0  0  0  0  0  0  0  0  0  0
  -39.4320  -70.5480   54.0130 C   0  0  0  0  0  0  0  0  0  0  0  0
  -38.6830  -70.1740   52.9140 C   0  0  0  0  0  0  0  0  0  0  0  0
  -39.0570  -68.9920   52.3000 C   0  0  0  0  0  0  0  0  0  0  0  0
  -41.8660  -67.8860   54.2920 C   0  0  0  0  0  0  0  0  0  0  0  0
  -42.5290  -68.2500   55.2940 O   0  0  0  0  0  0  0  0  0  0  0  0
  -48.5630  -64.8870   50.2280 C   0  0  0  0  0  0  0  0  0  0  0  0
  -47.6050  -64.4030   48.9040 S   0  0  0  0  0  0  0  0  0  0  0  0
  -48.3190  -65.3620   47.6880 C   0  0  0  0  0  0  0  0  0  0  0  0
  -49.2960  -66.0400   48.3630 C   0  0  0  0  0  0  0  0  0  0  0  0
  -49.4250  -65.7970   49.6710 C   0  0  0  0  0  0  0  0  0  0  0  0
  -47.9240  -65.4840   45.9620 Cl  0  0  0  0  0  0  0  0  0  0  0  0
  -45.7150  -64.7600   50.9470 H   0  0  0  0  0  0  0  0  0  0  0  0
  -46.0860  -63.1850   51.7210 H   0  0  0  0  0  0  0  0  0  0  0  0
  -43.6830  -64.2700   52.0820 H   0  0  0  0  0  0  0  0  0  0  0  0
  -44.5790  -63.6030   53.4720 H   0  0  0  0  0  0  0  0  0  0  0  0
  -45.6320  -67.1080   54.3630 H   0  0  0  0  0  0  0  0  0  0  0  0
  -45.1840  -67.5430   52.7060 H   0  0  0  0  0  0  0  0  0  0  0  0
  -47.1880  -66.7960   51.9960 H   0  0  0  0  0  0  0  0  0  0  0  0
  -47.6770  -66.4330   53.6750 H   0  0  0  0  0  0  0  0  0  0  0  0
  -41.7920  -65.3950   52.0980 H   0  0  0  0  0  0  0  0  0  0  0  0
  -41.0630  -70.0800   55.3190 H   0  0  0  0  0  0  0  0  0  0  0  0
  -39.1530  -71.4750   54.5110 H   0  0  0  0  0  0  0  0  0  0  0  0
  -37.8510  -70.7590   52.5430 H   0  0  0  0  0  0  0  0  0  0  0  0
  -38.4840  -68.6800   51.4370 H   0  0  0  0  0  0  0  0  0  0  0  0
  -49.9440  -66.7580   47.8180 H   0  0  0  0  0  0  0  0  0  0  0  0
  -50.1820  -66.2860   50.3290 H   0  0  0  0  0  0  0  0  0  0  0  0
  1  3  2  0  0  0  0
  1  4  1  0  0  0  0
  1  2  2  0  0  0  0
  4  9  1  0  0  0  0
  5  4  1  0  0  0  0
  5  6  1  0  0  0  0
  6  7  1  0  0  0  0
  6 32  1  0  0  0  0
  7 10  1  0  0  0  0
  8  7  1  0  0  0  0
  8 33  1  0  0  0  0
  9  8  1  0  0  0  0
  9 36  1  0  0  0  0
 10 11  2  0  0  0  0
 12 10  1  1  0  0  0
 12 21  1  0  0  0  0
 13 12  1  0  0  0  0
 14 13  2  0  0  0  0
 15 14  1  1  0  0  0
 15 16  1  0  0  0  0
 16 21  1  0  0  0  0
 16 17  1  0  0  0  0
 17 38  1  0  0  0  0
 18 17  2  0  0  0  0
 18 39  1  0  0  0  0
 19 18  1  0  0  0  0
 20 15  1  0  0  0  0
 20 19  2  0  0  0  0
 21 22  2  0  0  0  0
 23  1  1  0  0  0  0
 24 23  1  0  0  0  0
 25 26  2  0  0  0  0
 25 24  1  0  0  0  0
 26 27  1  0  0  0  0
 27 23  2  0  0  0  0
 27 43  1  0  0  0  0
 28 25  1  0  0  0  0
 29  5  1  0  0  0  0
 30  5  1  0  0  0  0
 31  6  1  0  0  0  0
 34  8  1  0  0  0  0
 35  9  1  0  0  0  0
 37 13  1  0  0  0  0
 40 19  1  0  0  0  0
 41 20  1  0  0  0  0
 42 26  1  0  0  0  0
M  END
>  <Pose>
1

>  <Score>
-6.72

$$$$
