
 OpenBabel03202209423D

 50 53  0  0  1  0  0  0  0  0999 V2000
  -41.7480  -68.4870   54.5500 S   0  0  0  0  0  0  0  0  0  0  0  0
  -42.0320  -69.9640   54.7760 O   0  0  0  0  0  0  0  0  0  0  0  0
  -41.0390  -68.0480   55.8290 O   0  0  0  0  0  0  0  0  0  0  0  0
  -43.1620  -67.6090   54.3770 N   0  0  0  0  0  0  0  0  0  0  0  0
  -44.2190  -68.1870   53.6700 C   0  0  0  0  0  0  0  0  0  0  0  0
  -45.5330  -67.4050   53.8160 C   0  0  0  0  0  0  0  0  0  0  0  0
  -45.3070  -65.9910   53.8190 N   0  0  0  0  0  0  0  0  0  0  0  0
  -44.2140  -65.4780   54.6170 C   0  0  0  0  0  0  0  0  0  0  0  0
  -42.9640  -66.1970   54.1500 C   0  0  0  0  0  0  0  0  0  0  0  0
  -46.1250  -65.1390   53.0670 C   0  0  0  0  0  0  0  0  0  0  0  0
  -46.8540  -64.2910   53.6400 O   0  0  0  0  0  0  0  0  0  0  0  0
  -46.1760  -65.1890   51.5720 C   0  0  0  0  0  0  0  0  0  0  0  0
  -45.0940  -64.3750   50.9010 C   0  0  0  0  0  0  0  0  0  0  0  0
  -46.0730  -63.2040   50.8940 C   0  0  0  0  0  0  0  0  0  0  0  0
  -47.2000  -64.2330   51.0150 C   0  0  0  0  0  0  0  0  0  0  0  0
  -40.5760  -68.3500   53.2580 C   0  0  0  0  0  0  0  0  0  0  0  0
  -40.7280  -67.3160   52.3130 C   0  0  0  0  0  0  0  0  0  0  0  0
  -39.8740  -67.1920   51.2410 C   0  0  0  0  0  0  0  0  0  0  0  0
  -38.8280  -68.0600   51.0240 C   0  0  0  0  0  0  0  0  0  0  0  0
  -38.6740  -69.0680   51.9430 C   0  0  0  0  0  0  0  0  0  0  0  0
  -39.5330  -69.2110   53.0420 C   0  0  0  0  0  0  0  0  0  0  0  0
  -39.2240  -70.4760   54.2080 Cl  0  0  0  0  0  0  0  0  0  0  0  0
  -37.9870  -67.8790   49.9000 N   0  0  0  0  0  0  0  0  0  0  0  0
  -38.1790  -66.8220   48.9690 C   0  0  0  0  0  0  0  0  0  0  0  0
  -37.3410  -66.4560   48.1210 O   0  0  0  0  0  0  0  0  0  0  0  0
  -39.4880  -66.1200   49.0360 C   0  0  2  0  0  0  0  0  0  0  0  0
  -40.0460  -66.1580   50.3200 O   0  0  0  0  0  0  0  0  0  0  0  0
  -40.4760  -66.7350   48.0710 C   0  0  0  0  0  0  0  0  0  0  0  0
  -44.4640  -69.1760   54.1070 H   0  0  0  0  0  0  0  0  0  0  0  0
  -44.0160  -68.2910   52.5960 H   0  0  0  0  0  0  0  0  0  0  0  0
  -46.1790  -67.6810   52.9690 H   0  0  0  0  0  0  0  0  0  0  0  0
  -45.9880  -67.6700   54.7900 H   0  0  0  0  0  0  0  0  0  0  0  0
  -44.1170  -64.3840   54.5600 H   0  0  0  0  0  0  0  0  0  0  0  0
  -44.4000  -65.7920   55.6820 H   0  0  0  0  0  0  0  0  0  0  0  0
  -42.8200  -66.0110   53.0650 H   0  0  0  0  0  0  0  0  0  0  0  0
  -42.0980  -65.8700   54.7300 H   0  0  0  0  0  0  0  0  0  0  0  0
  -46.2530  -66.2360   51.1890 H   0  0  0  0  0  0  0  0  0  0  0  0
  -44.8320  -64.7130   49.8900 H   0  0  0  0  0  0  0  0  0  0  0  0
  -44.1950  -64.1770   51.5420 H   0  0  0  0  0  0  0  0  0  0  0  0
  -45.9840  -62.5620   51.7860 H   0  0  0  0  0  0  0  0  0  0  0  0
  -46.0750  -62.6220   49.9690 H   0  0  0  0  0  0  0  0  0  0  0  0
  -47.6110  -64.5590   50.0350 H   0  0  0  0  0  0  0  0  0  0  0  0
  -47.9980  -63.9380   51.7070 H   0  0  0  0  0  0  0  0  0  0  0  0
  -41.5420  -66.6310   52.4700 H   0  0  0  0  0  0  0  0  0  0  0  0
  -37.8700  -69.7730   51.8160 H   0  0  0  0  0  0  0  0  0  0  0  0
  -37.1930  -68.5420   49.7410 H   0  0  0  0  0  0  0  0  0  0  0  0
  -39.3220  -65.0710   48.7500 H   0  0  0  0  0  0  0  0  0  0  0  0
  -39.9020  -67.3770   47.3430 H   0  0  0  0  0  0  0  0  0  0  0  0
  -41.0150  -65.9350   47.5360 H   0  0  0  0  0  0  0  0  0  0  0  0
  -41.1720  -67.4000   48.6160 H   0  0  0  0  0  0  0  0  0  0  0  0
  1  2  2  0  0  0  0
  1  3  2  0  0  0  0
  4  1  1  0  0  0  0
  5  6  1  0  0  0  0
  5 29  1  0  0  0  0
  5  4  1  0  0  0  0
  6  7  1  0  0  0  0
  6 32  1  0  0  0  0
  7  8  1  0  0  0  0
  8 34  1  0  0  0  0
  9  4  1  0  0  0  0
  9  8  1  0  0  0  0
  9 36  1  0  0  0  0
 10 11  2  0  0  0  0
 10  7  1  0  0  0  0
 12 10  1  0  0  0  0
 13 39  1  0  0  0  0
 13 12  1  0  0  0  0
 14 13  1  0  0  0  0
 14 15  1  0  0  0  0
 14 40  1  0  0  0  0
 15 12  1  0  0  0  0
 15 43  1  0  0  0  0
 16  1  1  0  0  0  0
 17 44  1  0  0  0  0
 17 16  2  0  0  0  0
 18 17  1  0  0  0  0
 19 18  2  0  0  0  0
 19 20  1  0  0  0  0
 20 21  2  0  0  0  0
 21 16  1  0  0  0  0
 21 22  1  0  0  0  0
 23 19  1  0  0  0  0
 24 26  1  0  0  0  0
 24 23  1  0  0  0  0
 25 24  2  0  0  0  0
 26 47  1  6  0  0  0
 26 27  1  0  0  0  0
 27 18  1  0  0  0  0
 28 50  1  0  0  0  0
 28 26  1  0  0  0  0
 30  5  1  0  0  0  0
 31  6  1  0  0  0  0
 33  8  1  0  0  0  0
 35  9  1  0  0  0  0
 37 12  1  0  0  0  0
 38 13  1  0  0  0  0
 41 14  1  0  0  0  0
 42 15  1  0  0  0  0
 45 20  1  0  0  0  0
 46 23  1  0  0  0  0
 48 28  1  0  0  0  0
 49 28  1  0  0  0  0
M  END
>  <Pose>
1

>  <Score>
-5.75

$$$$
