
 OpenBabel03202209423D

 35 37  0  0  1  0  0  0  0  0999 V2000
  -37.9270  -64.4000   47.3220 B   0  0  0  0  0  0  0  0  0  0  0  0
  -38.6600  -65.5600   48.6390 C   0  0  0  0  0  0  0  0  0  0  0  0
  -39.9840  -65.3970   49.0550 C   0  0  0  0  0  0  0  0  0  0  0  0
  -40.5510  -66.2420   50.0170 C   0  0  0  0  0  0  0  0  0  0  0  0
  -39.7220  -67.2300   50.5180 C   0  0  0  0  0  0  0  0  0  0  0  0
  -38.4130  -67.3750   50.0920 C   0  0  0  0  0  0  0  0  0  0  0  0
  -37.8740  -66.5410   49.1530 C   0  0  0  0  0  0  0  0  0  0  0  0
  -40.2870  -68.0390   51.4620 O   0  0  0  0  0  0  0  0  0  0  0  0
  -39.4710  -68.7950   52.3150 C   0  0  0  0  0  0  0  0  0  0  0  0
  -41.9670  -66.0480   50.3100 C   0  0  2  0  0  0  0  0  0  0  0  0
  -42.0920  -64.5010   50.3830 C   0  0  2  0  0  0  0  0  0  0  0  0
  -40.9000  -64.2440   51.3250 C   0  0  0  0  0  0  0  0  0  0  0  0
  -40.0420  -63.4050   51.1200 O   0  0  0  0  0  0  0  0  0  0  0  0
  -40.9540  -65.1310   52.4650 N   0  0  0  0  0  0  0  0  0  0  0  0
  -42.2870  -65.7120   52.7100 C   0  0  1  0  0  0  0  0  0  0  0  0
  -43.1830  -64.5530   52.5950 N   0  0  0  0  0  0  0  0  0  0  0  0
  -43.2360  -64.0620   51.2410 C   0  0  0  0  0  0  0  0  0  0  0  0
  -44.1460  -63.3330   50.8070 O   0  0  0  0  0  0  0  0  0  0  0  0
  -42.6100  -66.5910   51.4710 C   0  0  0  0  0  0  0  0  0  0  0  0
  -42.4360  -66.4560   53.9630 C   0  0  0  0  0  0  0  0  0  0  0  0
  -40.5120  -64.5920   48.5760 H   0  0  0  0  0  0  0  0  0  0  0  0
  -37.8540  -68.1720   50.5410 H   0  0  0  0  0  0  0  0  0  0  0  0
  -36.8210  -66.7240   48.8750 H   0  0  0  0  0  0  0  0  0  0  0  0
  -38.6900  -69.3260   51.7500 H   0  0  0  0  0  0  0  0  0  0  0  0
  -38.9240  -68.0130   52.9430 H   0  0  0  0  0  0  0  0  0  0  0  0
  -40.0290  -69.4350   53.0100 H   0  0  0  0  0  0  0  0  0  0  0  0
  -42.5220  -66.2870   49.3650 H   0  0  0  0  0  0  0  0  0  0  0  0
  -42.0300  -63.9830   49.4670 H   0  0  0  0  0  0  0  0  0  0  0  0
  -40.1450  -65.3610   53.0490 H   0  0  0  0  0  0  0  0  0  0  0  0
  -43.6950  -64.1550   53.3900 H   0  0  0  0  0  0  0  0  0  0  0  0
  -43.7300  -66.4400   51.3350 H   0  0  0  0  0  0  0  0  0  0  0  0
  -42.5610  -67.6550   51.6790 H   0  0  0  0  0  0  0  0  0  0  0  0
  -43.4800  -66.2190   54.3660 H   0  0  0  0  0  0  0  0  0  0  0  0
  -42.3670  -67.5540   53.8780 H   0  0  0  0  0  0  0  0  0  0  0  0
  -41.7290  -66.1330   54.7230 H   0  0  0  0  0  0  0  0  0  0  0  0
  1  2  1  0  0  0  0
  2  3  2  0  0  0  0
  2  7  1  0  0  0  0
  3  4  1  0  0  0  0
  4 10  1  0  0  0  0
  4  5  2  0  0  0  0
  5  8  1  0  0  0  0
  6  5  1  0  0  0  0
  6 22  1  0  0  0  0
  7  6  2  0  0  0  0
  8  9  1  0  0  0  0
  9 25  1  0  0  0  0
  9 26  1  0  0  0  0
 10 27  1  6  0  0  0
 10 11  1  0  0  0  0
 10 19  1  0  0  0  0
 11 28  1  6  0  0  0
 11 17  1  0  0  0  0
 11 12  1  0  0  0  0
 12 14  1  0  0  0  0
 13 12  2  0  0  0  0
 14 15  1  0  0  0  0
 14 29  1  0  0  0  0
 15 20  1  1  0  0  0
 16 15  1  0  0  0  0
 16 30  1  0  0  0  0
 17 16  1  0  0  0  0
 18 17  2  0  0  0  0
 19 32  1  0  0  0  0
 19 15  1  0  0  0  0
 20 33  1  0  0  0  0
 20 35  1  0  0  0  0
 21  3  1  0  0  0  0
 23  7  1  0  0  0  0
 24  9  1  0  0  0  0
 31 19  1  0  0  0  0
 34 20  1  0  0  0  0
M  END
>  <Pose>
1

>  <Score>
-4.14

$$$$
