
 OpenBabel03202209423D

 48 51  0  0  0  0  0  0  0  0999 V2000
  -48.0200  -65.3620   52.9860 B   0  0  0  0  0  0  0  0  0  0  0  0
  -46.1190  -65.3750   53.1020 C   0  0  0  0  0  0  0  0  0  0  0  0
  -45.3850  -66.2760   53.8180 C   0  0  0  0  0  0  0  0  0  0  0  0
  -44.0090  -66.2650   53.8860 C   0  0  0  0  0  0  0  0  0  0  0  0
  -43.3490  -65.2620   53.1700 C   0  0  0  0  0  0  0  0  0  0  0  0
  -44.0320  -64.3320   52.4360 C   0  0  0  0  0  0  0  0  0  0  0  0
  -45.4200  -64.3930   52.4060 C   0  0  0  0  0  0  0  0  0  0  0  0
  -41.9690  -65.2310   53.2180 O   0  0  0  0  0  0  0  0  0  0  0  0
  -41.2360  -64.6440   52.1740 C   0  0  0  0  0  0  0  0  0  0  0  0
  -43.2480  -67.2450   54.6430 C   0  0  0  0  0  0  0  0  0  0  0  0
  -42.1720  -67.8650   54.2440 C   0  0  0  0  0  0  0  0  0  0  0  0
  -41.5720  -67.6800   53.0090 O   0  0  0  0  0  0  0  0  0  0  0  0
  -40.4480  -68.4700   52.8590 C   0  0  0  0  0  0  0  0  0  0  0  0
  -40.2360  -69.2290   53.9880 C   0  0  0  0  0  0  0  0  0  0  0  0
  -39.1630  -70.0930   54.0510 C   0  0  0  0  0  0  0  0  0  0  0  0
  -38.3080  -70.1900   52.9740 C   0  0  0  0  0  0  0  0  0  0  0  0
  -38.5470  -69.4030   51.8300 C   0  0  0  0  0  0  0  0  0  0  0  0
  -39.5980  -68.5430   51.7460 C   0  0  0  0  0  0  0  0  0  0  0  0
  -39.8800  -67.7030   50.6140 C   0  0  0  0  0  0  0  0  0  0  0  0
  -39.1100  -66.5720   50.2920 N   0  0  0  0  0  4  0  0  0  0  0  0
  -37.9020  -66.8260   49.5540 C   0  0  0  0  0  0  0  0  0  0  0  0
  -38.1090  -66.9840   48.0680 C   0  0  0  0  0  0  0  0  0  0  0  0
  -39.4450  -66.9800   47.6910 O   0  0  0  0  0  0  0  0  0  0  0  0
  -39.9670  -65.7620   48.1130 C   0  0  0  0  0  0  0  0  0  0  0  0
  -39.8930  -65.5410   49.5880 C   0  0  0  0  0  0  0  0  0  0  0  0
  -37.5980  -69.6090   50.8160 O   0  0  0  0  0  0  0  0  0  0  0  0
  -41.3250  -68.8650   54.9010 C   0  0  0  0  0  0  0  0  0  0  0  0
  -41.5130  -69.3230   56.0490 O   0  0  0  0  0  0  0  0  0  0  0  0
  -45.9370  -67.0470   54.3640 H   0  0  0  0  0  0  0  0  0  0  0  0
  -43.5630  -63.5250   51.8610 H   0  0  0  0  0  0  0  0  0  0  0  0
  -45.9810  -63.6510   51.8190 H   0  0  0  0  0  0  0  0  0  0  0  0
  -40.1850  -65.0720   52.1580 H   0  0  0  0  0  0  0  0  0  0  0  0
  -41.1170  -63.5500   52.3780 H   0  0  0  0  0  0  0  0  0  0  0  0
  -41.6430  -64.8600   51.1650 H   0  0  0  0  0  0  0  0  0  0  0  0
  -43.6050  -67.4980   55.6540 H   0  0  0  0  0  0  0  0  0  0  0  0
  -39.0040  -70.6870   54.9500 H   0  0  0  0  0  0  0  0  0  0  0  0
  -37.4530  -70.8470   52.9640 H   0  0  0  0  0  0  0  0  0  0  0  0
  -39.9500  -68.3080   49.6410 H   0  0  0  0  0  0  0  0  0  0  0  0
  -40.9680  -67.3140   50.6590 H   0  0  0  0  0  0  0  0  0  0  0  0
  -38.8400  -66.0830   51.1700 H   0  0  0  0  0  0  0  0  0  0  0  0
  -37.2700  -65.8960   49.6810 H   0  0  0  0  0  0  0  0  0  0  0  0
  -37.3250  -67.6440   49.9850 H   0  0  0  0  0  0  0  0  0  0  0  0
  -37.6170  -66.1620   47.4730 H   0  0  0  0  0  0  0  0  0  0  0  0
  -37.6120  -67.9120   47.7210 H   0  0  0  0  0  0  0  0  0  0  0  0
  -41.0670  -65.7910   47.8530 H   0  0  0  0  0  0  0  0  0  0  0  0
  -39.5120  -64.9240   47.5100 H   0  0  0  0  0  0  0  0  0  0  0  0
  -40.8880  -65.4620   50.0720 H   0  0  0  0  0  0  0  0  0  0  0  0
  -39.4080  -64.5560   49.7560 H   0  0  0  0  0  0  0  0  0  0  0  0
  1  2  1  0  0  0  0
  2  3  1  0  0  0  0
  3  4  2  0  0  0  0
  3 29  1  0  0  0  0
  4 10  1  0  0  0  0
  5  8  1  0  0  0  0
  5  4  1  0  0  0  0
  6  5  2  0  0  0  0
  7  6  1  0  0  0  0
  7  2  2  0  0  0  0
  9 33  1  0  0  0  0
  9  8  1  0  0  0  0
 10 35  1  0  0  0  0
 11 10  2  0  0  0  0
 11 27  1  0  0  0  0
 12 11  1  0  0  0  0
 13 12  1  0  0  0  0
 13 14  1  0  0  0  0
 14 15  2  0  0  0  0
 14 27  1  0  0  0  0
 15 36  1  0  0  0  0
 16 15  1  0  0  0  0
 17 16  2  0  0  0  0
 18 17  1  0  0  0  0
 18 13  2  0  0  0  0
 19 39  1  0  0  0  0
 19 18  1  0  0  0  0
 20 19  1  0  0  0  0
 20 40  1  0  0  0  0
 21 41  1  0  0  0  0
 21 42  1  0  0  0  0
 21 20  1  0  0  0  0
 22 21  1  0  0  0  0
 23 22  1  0  0  0  0
 23 24  1  0  0  0  0
 24 25  1  0  0  0  0
 25 48  1  0  0  0  0
 25 47  1  0  0  0  0
 25 20  1  0  0  0  0
 26 17  1  0  0  0  0
 27 28  2  0  0  0  0
 30  6  1  0  0  0  0
 31  7  1  0  0  0  0
 32  9  1  0  0  0  0
 34  9  1  0  0  0  0
 37 16  1  0  0  0  0
 38 19  1  0  0  0  0
 43 22  1  0  0  0  0
 44 22  1  0  0  0  0
 45 24  1  0  0  0  0
 46 24  1  0  0  0  0
M  END
>  <Pose>
1

>  <Score>
-7.02

$$$$
