
 OpenBabel03202209423D

 49 52  0  0  1  0  0  0  0  0999 V2000
  -38.0290  -69.2080   51.1220 S   0  0  0  0  0  0  0  0  0  0  0  0
  -37.2470  -69.1500   52.4140 O   0  0  0  0  0  0  0  0  0  0  0  0
  -37.8600  -70.5830   50.5710 O   0  0  0  0  0  0  0  0  0  0  0  0
  -39.6670  -68.8620   51.5160 N   0  0  0  0  0  0  0  0  0  0  0  0
  -39.8350  -67.4390   51.7330 C   0  0  0  0  0  0  0  0  0  0  0  0
  -41.2140  -67.1510   52.3130 C   0  0  0  0  0  0  0  0  0  0  0  0
  -41.3140  -67.8540   53.5910 N   0  0  0  0  0  0  0  0  0  0  0  0
  -40.2660  -68.7960   53.8480 C   0  0  0  0  0  0  0  0  0  0  0  0
  -40.1080  -69.6560   52.6220 C   0  0  0  0  0  0  0  0  0  0  0  0
  -42.3770  -67.5600   54.4510 C   0  0  0  0  0  0  0  0  0  0  0  0
  -42.8000  -68.4850   55.2580 O   0  0  0  0  0  0  0  0  0  0  0  0
  -43.1260  -66.3070   54.5830 C   0  0  0  0  0  0  0  0  0  0  0  0
  -44.1590  -65.9080   53.1790 S   0  0  0  0  0  0  0  0  0  0  0  0
  -45.8960  -66.2200   53.4380 C   0  0  1  0  0  0  0  0  0  0  0  0
  -46.3330  -67.4130   53.8190 N   0  0  0  0  0  0  0  0  0  0  0  0
  -47.6200  -67.6930   54.0430 C   0  0  0  0  0  0  0  0  0  0  0  0
  -48.5380  -66.6930   53.8680 N   0  0  0  0  0  0  0  0  0  0  0  0
  -48.1310  -65.4790   53.4840 C   0  0  0  0  0  0  0  0  0  0  0  0
  -48.8270  -64.3280   53.2510 N   0  0  0  0  0  0  0  0  0  0  0  0
  -47.9710  -63.3910   52.8980 N   0  0  0  0  0  0  0  0  0  0  0  0
  -46.7280  -63.8760   52.8870 C   0  0  0  0  0  0  0  0  0  0  0  0
  -46.7980  -65.1940   53.2530 C   0  0  0  0  0  0  0  0  0  0  0  0
  -50.2460  -64.1720   53.3820 C   0  0  0  0  0  0  0  0  0  0  0  0
  -37.4280  -68.0050   50.0030 C   0  0  0  0  0  0  0  0  0  0  0  0
  -38.1820  -66.9680   49.5030 C   0  0  0  0  0  0  0  0  0  0  0  0
  -37.6540  -66.0590   48.6190 C   0  0  0  0  0  0  0  0  0  0  0  0
  -36.3270  -66.1730   48.2070 C   0  0  0  0  0  0  0  0  0  0  0  0
  -35.5490  -67.2240   48.7060 C   0  0  0  0  0  0  0  0  0  0  0  0
  -36.1000  -68.1220   49.5930 C   0  0  0  0  0  0  0  0  0  0  0  0
  -35.6710  -65.0110   47.0840 Cl  0  0  0  0  0  0  0  0  0  0  0  0
  -39.7830  -66.9380   50.7570 H   0  0  0  0  0  0  0  0  0  0  0  0
  -39.0690  -67.0200   52.3900 H   0  0  0  0  0  0  0  0  0  0  0  0
  -41.2650  -66.0560   52.4820 H   0  0  0  0  0  0  0  0  0  0  0  0
  -41.9520  -67.5090   51.5900 H   0  0  0  0  0  0  0  0  0  0  0  0
  -40.4020  -69.3880   54.7730 H   0  0  0  0  0  0  0  0  0  0  0  0
  -39.3270  -68.2090   54.0360 H   0  0  0  0  0  0  0  0  0  0  0  0
  -39.5100  -70.5560   52.8150 H   0  0  0  0  0  0  0  0  0  0  0  0
  -41.1500  -70.0440   52.4020 H   0  0  0  0  0  0  0  0  0  0  0  0
  -42.3900  -65.4850   54.6950 H   0  0  0  0  0  0  0  0  0  0  0  0
  -43.7660  -66.2470   55.4890 H   0  0  0  0  0  0  0  0  0  0  0  0
  -47.9280  -68.6760   54.3540 H   0  0  0  0  0  0  0  0  0  0  0  0
  -45.8400  -63.3370   52.6430 H   0  0  0  0  0  0  0  0  0  0  0  0
  -50.6650  -64.7350   54.2610 H   0  0  0  0  0  0  0  0  0  0  0  0
  -50.4790  -63.0750   53.4890 H   0  0  0  0  0  0  0  0  0  0  0  0
  -50.7200  -64.5550   52.4590 H   0  0  0  0  0  0  0  0  0  0  0  0
  -39.2040  -66.8790   49.8230 H   0  0  0  0  0  0  0  0  0  0  0  0
  -38.2160  -65.2330   48.2130 H   0  0  0  0  0  0  0  0  0  0  0  0
  -34.5170  -67.2890   48.3640 H   0  0  0  0  0  0  0  0  0  0  0  0
  -35.5130  -68.9240   49.9760 H   0  0  0  0  0  0  0  0  0  0  0  0
  1  4  1  0  0  0  0
  1  2  2  0  0  0  0
  3  1  2  0  0  0  0
  4  5  1  0  0  0  0
  4  9  1  0  0  0  0
  5  6  1  0  0  0  0
  5 32  1  0  0  0  0
  6 33  1  0  0  0  0
  6  7  1  0  0  0  0
  7  8  1  0  0  0  0
  7 10  1  0  0  0  0
  8 36  1  0  0  0  0
  8 35  1  0  0  0  0
  9 37  1  0  0  0  0
  9  8  1  0  0  0  0
 10 12  1  0  0  0  0
 10 11  2  0  0  0  0
 12 39  1  0  0  0  0
 12 40  1  0  0  0  0
 13 12  1  0  0  0  0
 14 13  1  1  0  0  0
 14 15  1  0  0  0  0
 15 16  2  0  0  0  0
 16 41  1  0  0  0  0
 17 16  1  0  0  0  0
 18 17  1  0  0  0  0
 19 23  1  0  0  0  0
 19 18  1  0  0  0  0
 20 19  1  0  0  0  0
 21 20  2  0  0  0  0
 21 22  1  0  0  0  0
 22 14  1  0  0  0  0
 22 18  2  0  0  0  0
 23 44  1  0  0  0  0
 23 43  1  0  0  0  0
 24  1  1  0  0  0  0
 25 46  1  0  0  0  0
 25 24  2  0  0  0  0
 26 25  1  0  0  0  0
 27 26  2  0  0  0  0
 27 28  1  0  0  0  0
 28 29  2  0  0  0  0
 29 49  1  0  0  0  0
 29 24  1  0  0  0  0
 30 27  1  0  0  0  0
 31  5  1  0  0  0  0
 34  6  1  0  0  0  0
 38  9  1  0  0  0  0
 42 21  1  0  0  0  0
 45 23  1  0  0  0  0
 47 26  1  0  0  0  0
 48 28  1  0  0  0  0
M  END
>  <Pose>
1

>  <Score>
-7.21

$$$$
