
 OpenBabel03202209423D

 49 52  0  0  0  0  0  0  0  0999 V2000
  -43.3540  -64.3410   51.6440 S   0  0  0  0  0  0  0  0  0  0  0  0
  -41.9500  -63.8010   51.8810 O   0  0  0  0  0  0  0  0  0  0  0  0
  -43.1560  -65.8350   51.4120 O   0  0  0  0  0  0  0  0  0  0  0  0
  -44.2260  -64.1440   53.0660 N   0  0  0  0  0  0  0  0  0  0  0  0
  -43.4360  -63.9230   54.2530 C   0  0  0  0  0  0  0  0  0  0  0  0
  -43.7910  -65.0150   55.2600 C   0  0  0  0  0  0  0  0  0  0  0  0
  -43.9110  -66.2550   54.5910 N   0  0  0  0  0  0  0  0  0  0  0  0
  -45.2200  -66.3020   53.7990 C   0  0  0  0  0  0  0  0  0  0  0  0
  -45.3870  -64.9360   53.2360 C   0  0  0  0  0  0  0  0  0  0  0  0
  -43.0810  -67.3340   54.4930 C   0  0  0  0  0  0  0  0  0  0  0  0
  -43.5750  -68.3670   55.2570 O   0  0  0  0  0  0  0  0  0  0  0  0
  -41.8840  -67.7480   53.8730 C   0  0  0  0  0  0  0  0  0  0  0  0
  -40.9000  -68.5700   54.0300 C   0  0  0  0  0  0  0  0  0  0  0  0
  -40.7710  -69.4380   55.1240 N   0  0  0  0  0  0  0  0  0  0  0  0
  -39.7360  -70.3860   55.2840 N   0  0  0  0  0  0  0  0  0  0  0  0
  -38.7530  -70.4870   54.2940 C   0  0  0  0  0  0  0  0  0  0  0  0
  -37.8250  -71.3270   54.4240 O   0  0  0  0  0  0  0  0  0  0  0  0
  -38.8340  -69.6000   53.1200 C   0  0  0  0  0  0  0  0  0  0  0  0
  -39.8510  -68.6750   52.9710 C   0  0  0  0  0  0  0  0  0  0  0  0
  -39.8510  -67.8980   51.8580 C   0  0  0  0  0  0  0  0  0  0  0  0
  -38.8400  -68.0460   50.9020 C   0  0  0  0  0  0  0  0  0  0  0  0
  -37.8290  -68.9610   51.0450 C   0  0  0  0  0  0  0  0  0  0  0  0
  -37.8330  -69.7480   52.1770 C   0  0  0  0  0  0  0  0  0  0  0  0
  -44.0690  -63.6760   50.2290 C   0  0  0  0  0  0  0  0  0  0  0  0
  -45.4040  -63.3640   50.1800 C   0  0  0  0  0  0  0  0  0  0  0  0
  -45.9560  -62.8290   49.0300 C   0  0  0  0  0  0  0  0  0  0  0  0
  -45.2030  -62.5930   47.9020 C   0  0  0  0  0  0  0  0  0  0  0  0
  -43.8540  -62.9070   47.9440 C   0  0  0  0  0  0  0  0  0  0  0  0
  -43.3110  -63.4440   49.1100 C   0  0  0  0  0  0  0  0  0  0  0  0
  -45.9510  -61.9150   46.4690 Cl  0  0  0  0  0  0  0  0  0  0  0  0
  -42.3570  -63.8540   54.0750 H   0  0  0  0  0  0  0  0  0  0  0  0
  -43.7650  -62.9660   54.7020 H   0  0  0  0  0  0  0  0  0  0  0  0
  -44.8610  -64.7080   55.5900 H   0  0  0  0  0  0  0  0  0  0  0  0
  -43.2340  -64.9970   56.1770 H   0  0  0  0  0  0  0  0  0  0  0  0
  -45.9630  -66.5200   54.5860 H   0  0  0  0  0  0  0  0  0  0  0  0
  -45.1640  -67.1240   53.0730 H   0  0  0  0  0  0  0  0  0  0  0  0
  -46.0800  -64.3700   53.9270 H   0  0  0  0  0  0  0  0  0  0  0  0
  -45.9280  -64.9510   52.2630 H   0  0  0  0  0  0  0  0  0  0  0  0
  -41.7370  -67.1390   52.8930 H   0  0  0  0  0  0  0  0  0  0  0  0
  -41.4270  -69.3940   55.9080 H   0  0  0  0  0  0  0  0  0  0  0  0
  -39.7460  -70.9900   56.1590 H   0  0  0  0  0  0  0  0  0  0  0  0
  -40.6110  -67.1570   51.6770 H   0  0  0  0  0  0  0  0  0  0  0  0
  -38.8810  -67.4100   50.0380 H   0  0  0  0  0  0  0  0  0  0  0  0
  -37.0370  -69.0880   50.3120 H   0  0  0  0  0  0  0  0  0  0  0  0
  -37.0510  -70.4980   52.3460 H   0  0  0  0  0  0  0  0  0  0  0  0
  -46.0810  -63.5110   51.0120 H   0  0  0  0  0  0  0  0  0  0  0  0
  -47.0210  -62.5730   48.9710 H   0  0  0  0  0  0  0  0  0  0  0  0
  -43.2480  -62.7250   47.0600 H   0  0  0  0  0  0  0  0  0  0  0  0
  -42.2360  -63.6620   49.0550 H   0  0  0  0  0  0  0  0  0  0  0  0
  1  2  2  0  0  0  0
  1  4  1  0  0  0  0
  3  1  2  0  0  0  0
  4  9  1  0  0  0  0
  4  5  1  0  0  0  0
  5 32  1  0  0  0  0
  5  6  1  0  0  0  0
  6 33  1  0  0  0  0
  6 34  1  0  0  0  0
  7  6  1  0  0  0  0
  8 35  1  0  0  0  0
  8  7  1  0  0  0  0
  9  8  1  0  0  0  0
  9 37  1  0  0  0  0
 10  7  1  0  0  0  0
 10 11  2  0  0  0  0
 12 13  2  0  0  0  0
 12 10  1  0  0  0  0
 13 14  1  0  0  0  0
 14 15  1  0  0  0  0
 14 40  1  0  0  0  0
 15 41  1  0  0  0  0
 16 17  2  0  0  0  0
 16 15  1  0  0  0  0
 18 16  1  0  0  0  0
 19 18  1  0  0  0  0
 19 13  1  0  0  0  0
 20 19  2  0  0  0  0
 21 22  2  0  0  0  0
 21 20  1  0  0  0  0
 22 23  1  0  0  0  0
 23 45  1  0  0  0  0
 23 18  2  0  0  0  0
 24  1  1  0  0  0  0
 25 24  1  0  0  0  0
 25 46  1  0  0  0  0
 26 25  2  0  0  0  0
 27 28  2  0  0  0  0
 27 26  1  0  0  0  0
 28 29  1  0  0  0  0
 29 24  2  0  0  0  0
 30 27  1  0  0  0  0
 31  5  1  0  0  0  0
 36  8  1  0  0  0  0
 38  9  1  0  0  0  0
 39 12  1  0  0  0  0
 42 20  1  0  0  0  0
 43 21  1  0  0  0  0
 44 22  1  0  0  0  0
 47 26  1  0  0  0  0
 48 28  1  0  0  0  0
 49 29  1  0  0  0  0
M  END
>  <Pose>
1

>  <Score>
-6.40

$$$$
