
 OpenBabel03202209423D

 49 52  0  0  1  0  0  0  0  0999 V2000
  -49.0960  -66.7920   55.1680 B   0  0  0  0  0  0  0  0  0  0  0  0
  -47.4430  -66.4280   54.2770 C   0  0  0  0  0  0  0  0  0  0  0  0
  -47.2060  -65.2240   53.6570 C   0  0  0  0  0  0  0  0  0  0  0  0
  -46.0090  -64.9490   53.0070 C   0  0  0  0  0  0  0  0  0  0  0  0
  -45.0060  -65.8950   52.9650 C   0  0  0  0  0  0  0  0  0  0  0  0
  -45.2470  -67.1070   53.5910 C   0  0  0  0  0  0  0  0  0  0  0  0
  -46.4350  -67.3810   54.2370 C   0  0  0  0  0  0  0  0  0  0  0  0
  -43.7360  -65.6760   52.3060 C   0  0  0  0  0  0  0  0  0  0  0  0
  -42.5470  -66.1760   52.8300 C   0  0  0  0  0  0  0  0  0  0  0  0
  -41.3860  -65.9890   52.2490 O   0  0  0  0  0  0  0  0  0  0  0  0
  -41.2500  -65.3190   51.1290 C   0  0  0  0  0  0  0  0  0  0  0  0
  -42.3700  -64.7860   50.5350 C   0  0  0  0  0  0  0  0  0  0  0  0
  -42.1820  -64.0920   49.3650 C   0  0  0  0  0  0  0  0  0  0  0  0
  -40.9530  -63.9160   48.7820 C   0  0  0  0  0  0  0  0  0  0  0  0
  -39.7910  -64.4520   49.3750 C   0  0  0  0  0  0  0  0  0  0  0  0
  -39.9880  -65.1460   50.5450 C   0  0  0  0  0  0  0  0  0  0  0  0
  -38.5740  -64.2520   48.7570 O   0  0  0  0  0  0  0  0  0  0  0  0
  -37.5500  -65.1490   48.6660 C   0  0  2  0  0  0  0  0  0  0  0  0
  -36.2680  -64.5470   48.7760 O   0  0  0  0  0  0  0  0  0  0  0  0
  -35.4240  -65.5550   49.1900 C   0  0  1  0  0  0  0  0  0  0  0  0
  -35.2630  -66.6730   48.2080 C   0  0  2  0  0  0  0  0  0  0  0  0
  -36.5750  -67.0890   47.5880 C   0  0  1  0  0  0  0  0  0  0  0  0
  -37.4890  -65.9050   47.3520 C   0  0  1  0  0  0  0  0  0  0  0  0
  -38.7360  -66.3920   46.9800 O   0  0  0  0  0  0  0  0  0  0  0  0
  -36.3320  -67.8110   46.4260 O   0  0  0  0  0  0  0  0  0  0  0  0
  -34.7880  -67.7860   48.9220 O   0  0  0  0  0  0  0  0  0  0  0  0
  -34.0690  -65.0510   49.6170 C   0  0  0  0  0  0  0  0  0  0  0  0
  -33.8560  -65.2150   50.9840 O   0  0  0  0  0  0  0  0  0  0  0  0
  -43.6060  -64.9640   51.1200 C   0  0  0  0  0  0  0  0  0  0  0  0
  -44.6330  -64.4770   50.5770 O   0  0  0  0  0  0  0  0  0  0  0  0
  -47.9850  -64.4640   53.6780 H   0  0  0  0  0  0  0  0  0  0  0  0
  -45.8210  -64.0100   52.5210 H   0  0  0  0  0  0  0  0  0  0  0  0
  -44.4540  -67.8570   53.5590 H   0  0  0  0  0  0  0  0  0  0  0  0
  -46.6240  -68.3300   54.7260 H   0  0  0  0  0  0  0  0  0  0  0  0
  -42.6520  -66.7360   53.7640 H   0  0  0  0  0  0  0  0  0  0  0  0
  -43.0810  -63.6770   48.9060 H   0  0  0  0  0  0  0  0  0  0  0  0
  -40.8130  -63.3670   47.8600 H   0  0  0  0  0  0  0  0  0  0  0  0
  -39.1430  -65.5790   51.0460 H   0  0  0  0  0  0  0  0  0  0  0  0
  -37.6120  -65.9190   49.4530 H   0  0  0  0  0  0  0  0  0  0  0  0
  -35.8910  -66.0020   50.1130 H   0  0  0  0  0  0  0  0  0  0  0  0
  -34.5000  -66.4500   47.4200 H   0  0  0  0  0  0  0  0  0  0  0  0
  -37.1000  -67.7530   48.3050 H   0  0  0  0  0  0  0  0  0  0  0  0
  -37.0860  -65.2010   46.5930 H   0  0  0  0  0  0  0  0  0  0  0  0
  -38.7110  -66.7630   46.0670 H   0  0  0  0  0  0  0  0  0  0  0  0
  -36.8930  -67.4900   45.6560 H   0  0  0  0  0  0  0  0  0  0  0  0
  -34.6180  -67.5480   49.8670 H   0  0  0  0  0  0  0  0  0  0  0  0
  -33.9060  -64.0010   49.3000 H   0  0  0  0  0  0  0  0  0  0  0  0
  -33.2550  -65.6390   49.1130 H   0  0  0  0  0  0  0  0  0  0  0  0
  -33.0060  -64.7110   51.1830 H   0  0  0  0  0  0  0  0  0  0  0  0
  2  1  1  0  0  0  0
  3 31  1  0  0  0  0
  3  2  2  0  0  0  0
  4  3  1  0  0  0  0
  5  4  2  0  0  0  0
  5  6  1  0  0  0  0
  6  7  2  0  0  0  0
  7  2  1  0  0  0  0
  7 34  1  0  0  0  0
  8  9  2  0  0  0  0
  8  5  1  0  0  0  0
  9 35  1  0  0  0  0
 10  9  1  0  0  0  0
 11 10  1  0  0  0  0
 12 29  1  0  0  0  0
 12 11  2  0  0  0  0
 13 12  1  0  0  0  0
 14 13  2  0  0  0  0
 14 15  1  0  0  0  0
 15 16  2  0  0  0  0
 16 38  1  0  0  0  0
 16 11  1  0  0  0  0
 17 15  1  0  0  0  0
 18 17  1  0  0  0  0
 18 19  1  0  0  0  0
 18 39  1  1  0  0  0
 19 20  1  0  0  0  0
 20 27  1  0  0  0  0
 20 40  1  1  0  0  0
 21 41  1  6  0  0  0
 21 26  1  0  0  0  0
 21 20  1  0  0  0  0
 22 21  1  0  0  0  0
 22 42  1  1  0  0  0
 23 43  1  6  0  0  0
 23 22  1  0  0  0  0
 23 18  1  0  0  0  0
 24 23  1  0  0  0  0
 25 22  1  0  0  0  0
 26 46  1  0  0  0  0
 27 28  1  0  0  0  0
 28 49  1  0  0  0  0
 29  8  1  0  0  0  0
 30 29  2  0  0  0  0
 32  4  1  0  0  0  0
 33  6  1  0  0  0  0
 36 13  1  0  0  0  0
 37 14  1  0  0  0  0
 44 24  1  0  0  0  0
 45 25  1  0  0  0  0
 47 27  1  0  0  0  0
 48 27  1  0  0  0  0
M  END
>  <Pose>
1

>  <Score>
-6.39

$$$$
