
 OpenBabel03202209423D

 52 55  0  0  0  0  0  0  0  0999 V2000
  -39.0920  -70.7660   54.8970 Cl  0  0  0  0  0  0  0  0  0  0  0  0
  -40.0140  -69.4060   54.2120 C   0  0  0  0  0  0  0  0  0  0  0  0
  -41.0840  -68.8150   54.8740 C   0  0  0  0  0  0  0  0  0  0  0  0
  -41.8370  -67.8070   54.2990 C   0  0  0  0  0  0  0  0  0  0  0  0
  -41.5300  -67.3530   53.0020 C   0  0  0  0  0  0  0  0  0  0  0  0
  -40.4830  -67.9400   52.3870 C   0  0  0  0  0  0  0  0  0  0  0  0
  -39.7170  -68.9500   52.9400 C   0  0  0  0  0  0  0  0  0  0  0  0
  -42.4150  -66.3150   52.4350 C   0  0  0  0  0  0  0  0  0  0  0  0
  -43.7000  -66.1330   52.8940 C   0  0  0  0  0  0  0  0  0  0  0  0
  -44.5250  -65.2110   52.2360 C   0  0  0  0  0  0  0  0  0  0  0  0
  -44.0740  -64.4880   51.1530 C   0  0  0  0  0  0  0  0  0  0  0  0
  -44.8200  -63.5520   50.4350 C   0  0  0  0  0  0  0  0  0  0  0  0
  -46.1440  -63.4000   50.9170 C   0  0  0  0  0  0  0  0  0  0  0  0
  -46.6390  -64.1140   52.0040 C   0  0  0  0  0  0  0  0  0  0  0  0
  -45.8180  -65.0210   52.6540 C   0  0  0  0  0  0  0  0  0  0  0  0
  -47.0520  -62.5290   50.3470 O   0  0  0  0  0  0  0  0  0  0  0  0
  -44.4800  -62.8940   49.2220 C   0  0  0  0  0  0  0  0  0  0  0  0
  -44.8580  -63.3470   47.9080 N   0  0  0  0  0  4  0  0  0  0  0  0
  -45.8900  -62.4620   47.2990 C   0  0  0  0  0  0  0  0  0  0  0  0
  -45.5820  -61.0400   47.6060 C   0  0  0  0  0  0  0  0  0  0  0  0
  -44.3110  -60.5620   47.1120 N   0  0  0  0  0  0  0  0  0  0  0  0
  -43.3300  -61.5880   47.0100 C   0  0  0  0  0  0  0  0  0  0  0  0
  -43.7250  -62.9890   46.9950 C   0  0  0  0  0  0  0  0  0  0  0  0
  -43.8160  -59.4650   47.9580 C   0  0  0  0  0  0  0  0  0  0  0  0
  -44.6960  -59.2370   49.1660 C   0  0  0  0  0  0  0  0  0  0  0  0
  -44.2730  -59.9500   50.2790 O   0  0  0  0  0  0  0  0  0  0  0  0
  -42.8800  -64.6880   50.7650 O   0  0  0  0  0  0  0  0  0  0  0  0
  -42.0210  -65.5450   51.3220 C   0  0  0  0  0  0  0  0  0  0  0  0
  -40.8690  -65.6830   50.8940 O   0  0  0  0  0  0  0  0  0  0  0  0
  -41.3100  -69.1870   55.8570 H   0  0  0  0  0  0  0  0  0  0  0  0
  -42.6710  -67.3630   54.8290 H   0  0  0  0  0  0  0  0  0  0  0  0
  -40.1770  -67.6410   51.3900 H   0  0  0  0  0  0  0  0  0  0  0  0
  -38.8840  -69.3860   52.4090 H   0  0  0  0  0  0  0  0  0  0  0  0
  -44.0940  -66.6690   53.7390 H   0  0  0  0  0  0  0  0  0  0  0  0
  -47.6160  -63.9690   52.3990 H   0  0  0  0  0  0  0  0  0  0  0  0
  -46.2190  -65.6270   53.4900 H   0  0  0  0  0  0  0  0  0  0  0  0
  -43.3030  -63.2160   49.1270 H   0  0  0  0  0  0  0  0  0  0  0  0
  -44.3070  -61.8490   49.3190 H   0  0  0  0  0  0  0  0  0  0  0  0
  -45.0310  -64.3110   47.7350 H   0  0  0  0  0  0  0  0  0  0  0  0
  -46.9030  -62.7660   47.4790 H   0  0  0  0  0  0  0  0  0  0  0  0
  -45.7430  -62.5970   46.1650 H   0  0  0  0  0  0  0  0  0  0  0  0
  -45.6930  -60.8200   48.6750 H   0  0  0  0  0  0  0  0  0  0  0  0
  -46.3700  -60.4390   47.0690 H   0  0  0  0  0  0  0  0  0  0  0  0
  -42.5450  -61.3920   47.7760 H   0  0  0  0  0  0  0  0  0  0  0  0
  -42.7680  -61.4100   46.0190 H   0  0  0  0  0  0  0  0  0  0  0  0
  -42.8870  -63.6700   47.2710 H   0  0  0  0  0  0  0  0  0  0  0  0
  -44.0940  -63.2390   45.9510 H   0  0  0  0  0  0  0  0  0  0  0  0
  -43.7960  -58.5710   47.3320 H   0  0  0  0  0  0  0  0  0  0  0  0
  -42.7920  -59.6450   48.3450 H   0  0  0  0  0  0  0  0  0  0  0  0
  -45.7610  -59.2970   48.9780 H   0  0  0  0  0  0  0  0  0  0  0  0
  -44.5280  -58.1280   49.4030 H   0  0  0  0  0  0  0  0  0  0  0  0
  -43.6080  -59.3810   50.7810 H   0  0  0  0  0  0  0  0  0  0  0  0
  2  3  1  0  0  0  0
  2  1  1  0  0  0  0
  3 30  1  0  0  0  0
  4 31  1  0  0  0  0
  4  3  2  0  0  0  0
  5  4  1  0  0  0  0
  6  7  1  0  0  0  0
  6  5  2  0  0  0  0
  7  2  2  0  0  0  0
  8  9  2  0  0  0  0
  8  5  1  0  0  0  0
  9 34  1  0  0  0  0
 10 15  1  0  0  0  0
 10  9  1  0  0  0  0
 11 10  2  0  0  0  0
 12 13  2  0  0  0  0
 12 11  1  0  0  0  0
 13 14  1  0  0  0  0
 14 35  1  0  0  0  0
 14 15  2  0  0  0  0
 15 36  1  0  0  0  0
 16 13  1  0  0  0  0
 17 38  1  0  0  0  0
 17 12  1  0  0  0  0
 18 17  1  0  0  0  0
 19 40  1  0  0  0  0
 19 20  1  0  0  0  0
 19 18  1  0  0  0  0
 20 42  1  0  0  0  0
 21 20  1  0  0  0  0
 21 24  1  0  0  0  0
 22 21  1  0  0  0  0
 22 44  1  0  0  0  0
 23 22  1  0  0  0  0
 23 46  1  0  0  0  0
 23 18  1  0  0  0  0
 24 49  1  0  0  0  0
 24 25  1  0  0  0  0
 25 51  1  0  0  0  0
 25 26  1  0  0  0  0
 26 52  1  0  0  0  0
 27 11  1  0  0  0  0
 27 28  1  0  0  0  0
 28  8  1  0  0  0  0
 29 28  2  0  0  0  0
 32  6  1  0  0  0  0
 33  7  1  0  0  0  0
 37 17  1  0  0  0  0
 39 18  1  0  0  0  0
 41 19  1  0  0  0  0
 43 20  1  0  0  0  0
 45 22  1  0  0  0  0
 47 23  1  0  0  0  0
 48 24  1  0  0  0  0
 50 25  1  0  0  0  0
M  END
>  <Pose>
1

>  <Score>
-5.79

$$$$
