
 OpenBabel03202209423D

 54 57  0  0  0  0  0  0  0  0999 V2000
  -48.6560  -66.7200   52.1360 B   0  0  0  0  0  0  0  0  0  0  0  0
  -46.8740  -66.4440   52.7580 C   0  0  0  0  0  0  0  0  0  0  0  0
  -46.2230  -67.4050   53.4980 C   0  0  0  0  0  0  0  0  0  0  0  0
  -44.9200  -67.1860   53.9460 C   0  0  0  0  0  0  0  0  0  0  0  0
  -44.3050  -66.0080   53.6390 C   0  0  0  0  0  0  0  0  0  0  0  0
  -44.9360  -65.0440   52.9070 C   0  0  0  0  0  0  0  0  0  0  0  0
  -46.2190  -65.2600   52.4650 C   0  0  0  0  0  0  0  0  0  0  0  0
  -42.9020  -65.7990   54.1800 C   0  0  0  0  0  0  0  0  0  0  0  0
  -41.9180  -66.4160   53.3280 N   0  0  0  0  0  0  0  0  0  0  0  0
  -41.3610  -67.6480   53.5660 C   0  0  0  0  0  0  0  0  0  0  0  0
  -40.4330  -67.9330   52.5850 C   0  0  0  0  0  0  0  0  0  0  0  0
  -40.4450  -66.8730   51.7710 N   0  0  0  0  0  0  0  0  0  0  0  0
  -41.3510  -65.9450   52.2170 C   0  0  0  0  0  0  0  0  0  0  0  0
  -41.6310  -64.7780   51.4880 N   0  0  0  0  0  0  0  0  0  0  0  0
  -42.8350  -64.3600   50.8640 C   0  0  0  0  0  0  0  0  0  0  0  0
  -42.5770  -63.4450   49.6610 C   0  0  0  0  0  0  0  0  0  0  0  0
  -41.3200  -63.5850   49.0490 N   0  0  0  0  0  0  0  0  0  0  0  0
  -40.1880  -63.6150   49.8890 C   0  0  0  0  0  0  0  0  0  0  0  0
  -40.5160  -63.8020   51.3530 C   0  0  0  0  0  0  0  0  0  0  0  0
  -41.2200  -64.1050   47.7490 C   0  0  0  0  0  0  0  0  0  0  0  0
  -41.1800  -63.1450   46.6350 C   0  0  0  0  0  0  0  0  0  0  0  0
  -40.7850  -63.4580   45.4810 O   0  0  0  0  0  0  0  0  0  0  0  0
  -41.5870  -61.8440   46.8390 O   0  0  0  0  0  0  0  0  0  0  0  0
  -40.8010  -60.9030   47.5190 C   0  0  0  0  0  0  0  0  0  0  0  0
  -39.7500  -69.0940   52.5910 N   0  0  0  0  0  0  0  0  0  0  0  0
  -39.9960  -69.9690   53.5750 C   0  0  0  0  0  0  0  0  0  0  0  0
  -39.3530  -71.0490   53.5710 O   0  0  0  0  0  0  0  0  0  0  0  0
  -40.8890  -69.7310   54.5420 N   0  0  0  0  0  0  0  0  0  0  0  0
  -41.6000  -68.5630   54.5700 C   0  0  0  0  0  0  0  0  0  0  0  0
  -42.4320  -68.3710   55.4880 O   0  0  0  0  0  0  0  0  0  0  0  0
  -38.7790  -69.3500   51.5430 C   0  0  0  0  0  0  0  0  0  0  0  0
  -46.7010  -68.3560   53.7540 H   0  0  0  0  0  0  0  0  0  0  0  0
  -44.4440  -67.9860   54.5270 H   0  0  0  0  0  0  0  0  0  0  0  0
  -44.4510  -64.1130   52.6800 H   0  0  0  0  0  0  0  0  0  0  0  0
  -46.7110  -64.4930   51.8870 H   0  0  0  0  0  0  0  0  0  0  0  0
  -42.9730  -66.1980   55.1900 H   0  0  0  0  0  0  0  0  0  0  0  0
  -42.7410  -64.6880   54.2010 H   0  0  0  0  0  0  0  0  0  0  0  0
  -43.4380  -65.1970   50.4240 H   0  0  0  0  0  0  0  0  0  0  0  0
  -43.4120  -63.7280   51.5660 H   0  0  0  0  0  0  0  0  0  0  0  0
  -43.3740  -63.5740   48.8830 H   0  0  0  0  0  0  0  0  0  0  0  0
  -42.6750  -62.3560   49.9550 H   0  0  0  0  0  0  0  0  0  0  0  0
  -39.6780  -62.6200   49.8110 H   0  0  0  0  0  0  0  0  0  0  0  0
  -39.4600  -64.3600   49.5310 H   0  0  0  0  0  0  0  0  0  0  0  0
  -40.8980  -62.8730   51.8220 H   0  0  0  0  0  0  0  0  0  0  0  0
  -39.6130  -64.1570   51.8640 H   0  0  0  0  0  0  0  0  0  0  0  0
  -41.9680  -64.9180   47.5810 H   0  0  0  0  0  0  0  0  0  0  0  0
  -40.2310  -64.6600   47.6930 H   0  0  0  0  0  0  0  0  0  0  0  0
  -41.1470  -60.7770   48.5720 H   0  0  0  0  0  0  0  0  0  0  0  0
  -40.9910  -59.9140   47.0120 H   0  0  0  0  0  0  0  0  0  0  0  0
  -39.7210  -61.1430   47.5530 H   0  0  0  0  0  0  0  0  0  0  0  0
  -41.0710  -70.4300   55.3060 H   0  0  0  0  0  0  0  0  0  0  0  0
  -39.3310  -69.3530   50.5800 H   0  0  0  0  0  0  0  0  0  0  0  0
  -38.0340  -68.5170   51.4750 H   0  0  0  0  0  0  0  0  0  0  0  0
  -38.2420  -70.2800   51.7640 H   0  0  0  0  0  0  0  0  0  0  0  0
  1  2  1  0  0  0  0
  2  3  1  0  0  0  0
  3 32  1  0  0  0  0
  3  4  2  0  0  0  0
  4 33  1  0  0  0  0
  5  4  1  0  0  0  0
  5  8  1  0  0  0  0
  6  5  2  0  0  0  0
  7  2  2  0  0  0  0
  7  6  1  0  0  0  0
  8 37  1  0  0  0  0
  8 36  1  0  0  0  0
  9 10  1  0  0  0  0
  9  8  1  0  0  0  0
 10 29  1  0  0  0  0
 11 25  1  0  0  0  0
 11 10  2  0  0  0  0
 12 13  2  0  0  0  0
 12 11  1  0  0  0  0
 13  9  1  0  0  0  0
 14 13  1  0  0  0  0
 15 14  1  0  0  0  0
 15 39  1  0  0  0  0
 16 41  1  0  0  0  0
 16 15  1  0  0  0  0
 17 16  1  0  0  0  0
 17 18  1  0  0  0  0
 18 19  1  0  0  0  0
 19 14  1  0  0  0  0
 19 44  1  0  0  0  0
 19 45  1  0  0  0  0
 20 17  1  0  0  0  0
 21 23  1  0  0  0  0
 21 20  1  0  0  0  0
 22 21  2  0  0  0  0
 23 24  1  0  0  0  0
 24 50  1  0  0  0  0
 24 48  1  0  0  0  0
 25 26  1  0  0  0  0
 26 28  1  0  0  0  0
 27 26  2  0  0  0  0
 28 29  1  0  0  0  0
 28 51  1  0  0  0  0
 29 30  2  0  0  0  0
 31 54  1  0  0  0  0
 31 25  1  0  0  0  0
 34  6  1  0  0  0  0
 35  7  1  0  0  0  0
 38 15  1  0  0  0  0
 40 16  1  0  0  0  0
 42 18  1  0  0  0  0
 43 18  1  0  0  0  0
 46 20  1  0  0  0  0
 47 20  1  0  0  0  0
 49 24  1  0  0  0  0
 52 31  1  0  0  0  0
 53 31  1  0  0  0  0
M  END
>  <Pose>
1

>  <Score>
-7.22

$$$$
