
 OpenBabel03202209423D

 48 51  0  0  0  0  0  0  0  0999 V2000
  -36.2320  -62.6800   48.7810 B   0  0  0  0  0  0  0  0  0  0  0  0
  -37.4510  -64.1050   49.1240 C   0  0  0  0  0  0  0  0  0  0  0  0
  -37.0710  -65.4390   49.0160 C   0  0  0  0  0  0  0  0  0  0  0  0
  -38.0130  -66.4350   49.2700 C   0  0  0  0  0  0  0  0  0  0  0  0
  -39.3010  -66.1770   49.6220 C   0  0  0  0  0  0  0  0  0  0  0  0
  -39.6390  -64.8140   49.7190 C   0  0  0  0  0  0  0  0  0  0  0  0
  -38.7440  -63.7970   49.4770 C   0  0  0  0  0  0  0  0  0  0  0  0
  -40.3420  -67.1570   49.8600 C   0  0  0  0  0  0  0  0  0  0  0  0
  -40.6030  -67.5490   51.2240 N   0  0  0  0  0  0  0  0  0  0  0  0
  -39.8820  -68.4040   51.9650 C   0  0  0  0  0  0  0  0  0  0  0  0
  -40.4520  -68.5020   53.2140 C   0  0  0  0  0  0  0  0  0  0  0  0
  -41.5060  -67.7010   53.1950 N   0  0  0  0  0  0  0  0  0  0  0  0
  -41.6250  -67.1090   51.9990 C   0  0  0  0  0  0  0  0  0  0  0  0
  -42.6370  -66.1760   51.5970 N   0  0  0  0  0  0  0  0  0  0  0  0
  -42.3560  -64.7670   51.7570 C   0  0  0  0  0  0  0  0  0  0  0  0
  -43.3310  -64.2120   52.7860 C   0  0  0  0  0  0  0  0  0  0  0  0
  -44.5200  -64.9900   52.9000 N   0  0  0  0  0  0  0  0  0  0  0  0
  -44.9530  -65.6510   51.7140 C   0  0  0  0  0  0  0  0  0  0  0  0
  -43.9220  -66.5350   51.0590 C   0  0  0  0  0  0  0  0  0  0  0  0
  -44.7580  -65.6470   54.1280 C   0  0  0  0  0  0  0  0  0  0  0  0
  -39.9660  -69.2970   54.2010 N   0  0  0  0  0  0  0  0  0  0  0  0
  -38.8700  -70.0180   53.9150 C   0  0  0  0  0  0  0  0  0  0  0  0
  -38.4330  -70.7470   54.8400 O   0  0  0  0  0  0  0  0  0  0  0  0
  -38.2700  -69.9680   52.7130 N   0  0  0  0  0  0  0  0  0  0  0  0
  -38.7430  -69.1820   51.7270 C   0  0  0  0  0  0  0  0  0  0  0  0
  -38.2160  -69.1150   50.6090 O   0  0  0  0  0  0  0  0  0  0  0  0
  -40.6310  -69.3320   55.4860 C   0  0  0  0  0  0  0  0  0  0  0  0
  -36.0560  -65.6950   48.7440 H   0  0  0  0  0  0  0  0  0  0  0  0
  -37.6600  -67.4260   49.1650 H   0  0  0  0  0  0  0  0  0  0  0  0
  -40.6440  -64.5080   49.9910 H   0  0  0  0  0  0  0  0  0  0  0  0
  -39.0710  -62.7560   49.5700 H   0  0  0  0  0  0  0  0  0  0  0  0
  -41.3210  -66.7380   49.4740 H   0  0  0  0  0  0  0  0  0  0  0  0
  -40.0880  -68.0860   49.2940 H   0  0  0  0  0  0  0  0  0  0  0  0
  -42.5780  -64.2730   50.7640 H   0  0  0  0  0  0  0  0  0  0  0  0
  -41.3090  -64.5320   51.9910 H   0  0  0  0  0  0  0  0  0  0  0  0
  -42.8010  -64.2240   53.7590 H   0  0  0  0  0  0  0  0  0  0  0  0
  -43.5760  -63.1600   52.5520 H   0  0  0  0  0  0  0  0  0  0  0  0
  -45.2980  -64.8710   50.9750 H   0  0  0  0  0  0  0  0  0  0  0  0
  -45.8470  -66.2620   51.9470 H   0  0  0  0  0  0  0  0  0  0  0  0
  -43.9250  -66.3060   49.9550 H   0  0  0  0  0  0  0  0  0  0  0  0
  -44.1920  -67.5960   51.2250 H   0  0  0  0  0  0  0  0  0  0  0  0
  -43.8830  -65.7440   54.7990 H   0  0  0  0  0  0  0  0  0  0  0  0
  -45.0990  -66.6870   53.9040 H   0  0  0  0  0  0  0  0  0  0  0  0
  -45.5920  -65.1870   54.7240 H   0  0  0  0  0  0  0  0  0  0  0  0
  -37.4210  -70.5340   52.4990 H   0  0  0  0  0  0  0  0  0  0  0  0
  -40.5020  -70.3200   55.9880 H   0  0  0  0  0  0  0  0  0  0  0  0
  -41.6620  -68.9980   55.3890 H   0  0  0  0  0  0  0  0  0  0  0  0
  -40.0990  -68.6110   56.1470 H   0  0  0  0  0  0  0  0  0  0  0  0
  1  2  1  0  0  0  0
  2  7  1  0  0  0  0
  3  2  2  0  0  0  0
  3  4  1  0  0  0  0
  4  5  2  0  0  0  0
  5  6  1  0  0  0  0
  5  8  1  0  0  0  0
  6 30  1  0  0  0  0
  7 31  1  0  0  0  0
  7  6  2  0  0  0  0
  8  9  1  0  0  0  0
  9 10  1  0  0  0  0
  9 13  1  0  0  0  0
 10 11  2  0  0  0  0
 11 21  1  0  0  0  0
 12 11  1  0  0  0  0
 13 12  2  0  0  0  0
 14 15  1  0  0  0  0
 14 13  1  0  0  0  0
 15 35  1  0  0  0  0
 15 16  1  0  0  0  0
 16 17  1  0  0  0  0
 16 36  1  0  0  0  0
 17 20  1  0  0  0  0
 18 39  1  0  0  0  0
 18 17  1  0  0  0  0
 19 41  1  0  0  0  0
 19 14  1  0  0  0  0
 19 18  1  0  0  0  0
 20 44  1  0  0  0  0
 20 42  1  0  0  0  0
 21 27  1  0  0  0  0
 22 21  1  0  0  0  0
 22 23  2  0  0  0  0
 24 22  1  0  0  0  0
 25 10  1  0  0  0  0
 25 24  1  0  0  0  0
 26 25  2  0  0  0  0
 27 46  1  0  0  0  0
 27 48  1  0  0  0  0
 28  3  1  0  0  0  0
 29  4  1  0  0  0  0
 32  8  1  0  0  0  0
 33  8  1  0  0  0  0
 34 15  1  0  0  0  0
 37 16  1  0  0  0  0
 38 18  1  0  0  0  0
 40 19  1  0  0  0  0
 43 20  1  0  0  0  0
 45 24  1  0  0  0  0
 47 27  1  0  0  0  0
M  END
>  <Pose>
1

>  <Score>
-5.85

$$$$
