
 OpenBabel03202209423D

 43 46  0  0  0  0  0  0  0  0999 V2000
  -36.3830  -67.1920   47.2920 B   0  0  0  0  0  0  0  0  0  0  0  0
  -37.3150  -65.8180   48.2380 C   0  0  0  0  0  0  0  0  0  0  0  0
  -36.6410  -64.9500   49.0370 C   0  0  0  0  0  0  0  0  0  0  0  0
  -37.2770  -63.9870   49.7020 N   0  0  0  0  0  0  0  0  0  0  0  0
  -38.6080  -63.8670   49.5860 C   0  0  0  0  0  0  0  0  0  0  0  0
  -39.3480  -64.7270   48.7820 C   0  0  0  0  0  0  0  0  0  0  0  0
  -38.6980  -65.7240   48.0920 C   0  0  0  0  0  0  0  0  0  0  0  0
  -40.7750  -64.5210   48.7110 C   0  0  0  0  0  0  0  0  0  0  0  0
  -41.2600  -63.6880   47.9270 O   0  0  0  0  0  0  0  0  0  0  0  0
  -41.6940  -65.2960   49.5690 N   0  0  0  0  0  0  0  0  0  0  0  0
  -41.0920  -66.2680   50.3730 C   0  0  0  0  0  0  0  0  0  0  0  0
  -41.5710  -66.7100   51.6650 C   0  0  0  0  0  0  0  0  0  0  0  0
  -42.7010  -65.9300   52.1010 C   0  0  0  0  0  0  0  0  0  0  0  0
  -43.2770  -66.1900   53.2900 C   0  0  0  0  0  0  0  0  0  0  0  0
  -42.7940  -67.2150   54.1240 C   0  0  0  0  0  0  0  0  0  0  0  0
  -41.7190  -67.9700   53.7230 C   0  0  0  0  0  0  0  0  0  0  0  0
  -41.1120  -67.7110   52.4830 C   0  0  0  0  0  0  0  0  0  0  0  0
  -40.0100  -68.5780   51.9920 C   0  0  0  0  0  0  0  0  0  0  0  0
  -39.9230  -69.9210   52.7080 C   0  0  0  0  0  0  0  0  0  0  0  0
  -40.0240  -69.7700   54.1410 N   0  0  0  0  0  0  0  0  0  0  0  0
  -41.1680  -69.0200   54.5740 C   0  0  0  0  0  0  0  0  0  0  0  0
  -41.6390  -69.3200   55.6900 O   0  0  0  0  0  0  0  0  0  0  0  0
  -39.0530  -70.3270   55.0580 C   0  0  0  0  0  0  0  0  0  0  0  0
  -43.4230  -67.4110   55.2970 O   0  0  0  0  0  0  0  0  0  0  0  0
  -44.3370  -65.2840   53.4430 O   0  0  0  0  0  0  0  0  0  0  0  0
  -44.2620  -64.2850   52.4470 C   0  0  0  0  0  0  0  0  0  0  0  0
  -43.3860  -64.8690   51.5030 O   0  0  0  0  0  0  0  0  0  0  0  0
  -35.5480  -64.9950   49.1760 H   0  0  0  0  0  0  0  0  0  0  0  0
  -39.1610  -63.0930   50.1130 H   0  0  0  0  0  0  0  0  0  0  0  0
  -39.2420  -66.4040   47.4590 H   0  0  0  0  0  0  0  0  0  0  0  0
  -42.6740  -65.0190   49.4130 H   0  0  0  0  0  0  0  0  0  0  0  0
  -40.9660  -67.2140   49.6930 H   0  0  0  0  0  0  0  0  0  0  0  0
  -39.9540  -66.0080   50.4530 H   0  0  0  0  0  0  0  0  0  0  0  0
  -39.0170  -68.1260   52.0810 H   0  0  0  0  0  0  0  0  0  0  0  0
  -40.1930  -68.8840   50.9340 H   0  0  0  0  0  0  0  0  0  0  0  0
  -38.9340  -70.3490   52.4080 H   0  0  0  0  0  0  0  0  0  0  0  0
  -40.7610  -70.5400   52.3170 H   0  0  0  0  0  0  0  0  0  0  0  0
  -38.1570  -69.6610   55.0120 H   0  0  0  0  0  0  0  0  0  0  0  0
  -38.7420  -71.3320   54.7200 H   0  0  0  0  0  0  0  0  0  0  0  0
  -39.4470  -70.2920   56.0820 H   0  0  0  0  0  0  0  0  0  0  0  0
  -44.2700  -67.8130   55.5090 H   0  0  0  0  0  0  0  0  0  0  0  0
  -45.2560  -64.0590   52.0090 H   0  0  0  0  0  0  0  0  0  0  0  0
  -43.8430  -63.3820   52.9190 H   0  0  0  0  0  0  0  0  0  0  0  0
  1  2  1  0  0  0  0
  2  3  1  0  0  0  0
  3 28  1  0  0  0  0
  3  4  2  0  0  0  0
  5  4  1  0  0  0  0
  5 29  1  0  0  0  0
  6  5  2  0  0  0  0
  7  2  2  0  0  0  0
  7  6  1  0  0  0  0
  8  6  1  0  0  0  0
  8 10  1  0  0  0  0
  9  8  2  0  0  0  0
 10 11  1  0  0  0  0
 11 33  1  0  0  0  0
 11 12  1  0  0  0  0
 12 13  2  0  0  0  0
 12 17  1  0  0  0  0
 13 14  1  0  0  0  0
 14 25  1  0  0  0  0
 14 15  2  0  0  0  0
 15 24  1  0  0  0  0
 16 15  1  0  0  0  0
 16 21  1  0  0  0  0
 17 16  2  0  0  0  0
 18 34  1  0  0  0  0
 18 17  1  0  0  0  0
 18 19  1  0  0  0  0
 19 20  1  0  0  0  0
 20 21  1  0  0  0  0
 20 23  1  0  0  0  0
 21 22  2  0  0  0  0
 23 40  1  0  0  0  0
 24 41  1  0  0  0  0
 26 43  1  0  0  0  0
 26 25  1  0  0  0  0
 27 13  1  0  0  0  0
 27 26  1  0  0  0  0
 30  7  1  0  0  0  0
 31 10  1  0  0  0  0
 32 11  1  0  0  0  0
 35 18  1  0  0  0  0
 36 19  1  0  0  0  0
 37 19  1  0  0  0  0
 38 23  1  0  0  0  0
 39 23  1  0  0  0  0
 42 26  1  0  0  0  0
M  END
>  <Pose>
1

>  <Score>
-6.89

$$$$
