
 OpenBabel03202209423D

 36 39  0  0  1  0  0  0  0  0999 V2000
  -38.8920  -70.5190   53.9010 Cl  0  0  0  0  0  0  0  0  0  0  0  0
  -40.0980  -69.2530   53.7530 C   0  0  0  0  0  0  0  0  0  0  0  0
  -41.0590  -69.0810   54.7270 C   0  0  0  0  0  0  0  0  0  0  0  0
  -42.0070  -68.0790   54.6020 C   0  0  0  0  0  0  0  0  0  0  0  0
  -42.0460  -67.2160   53.5280 C   0  0  0  0  0  0  0  0  0  0  0  0
  -41.0740  -67.3970   52.5530 C   0  0  0  0  0  0  0  0  0  0  0  0
  -40.1260  -68.3960   52.6740 C   0  0  0  0  0  0  0  0  0  0  0  0
  -43.0190  -66.1800   53.3890 N   0  0  0  0  0  0  0  0  0  0  0  0
  -43.5180  -65.5910   52.1790 C   0  0  0  0  0  0  0  0  0  0  0  0
  -43.1470  -65.8670   51.0120 O   0  0  0  0  0  0  0  0  0  0  0  0
  -44.5560  -64.5840   52.5000 C   0  0  1  0  0  0  0  0  0  0  0  0
  -45.7280  -64.7750   51.7770 O   0  0  0  0  0  0  0  0  0  0  0  0
  -46.2730  -65.9130   52.1740 N   0  0  1  0  0  0  0  0  0  0  0  0
  -45.8640  -66.2490   53.4660 C   0  0  1  0  0  0  0  0  0  0  0  0
  -44.9960  -65.0600   53.8800 C   0  0  1  0  0  0  0  0  0  0  0  0
  -43.7030  -65.5100   54.4480 C   0  0  0  0  0  0  0  0  0  0  0  0
  -43.2390  -65.3660   55.6190 O   0  0  0  0  0  0  0  0  0  0  0  0
  -46.8720  -66.6000   54.4760 C   0  0  0  0  0  0  0  0  0  0  0  0
  -48.2890  -66.6480   54.0570 C   0  0  0  0  0  0  0  0  0  0  0  0
  -48.3570  -67.1270   52.6240 C   0  0  0  0  0  0  0  0  0  0  0  0
  -47.6120  -66.1100   51.7980 C   0  0  0  0  0  0  0  0  0  0  0  0
  -41.0730  -69.7410   55.6050 H   0  0  0  0  0  0  0  0  0  0  0  0
  -42.7620  -67.9390   55.3600 H   0  0  0  0  0  0  0  0  0  0  0  0
  -41.0980  -66.7210   51.7030 H   0  0  0  0  0  0  0  0  0  0  0  0
  -39.3720  -68.5380   51.9180 H   0  0  0  0  0  0  0  0  0  0  0  0
  -44.2060  -63.5560   52.4970 H   0  0  0  0  0  0  0  0  0  0  0  0
  -45.1360  -67.1130   53.3800 H   0  0  0  0  0  0  0  0  0  0  0  0
  -45.5160  -64.3110   54.4580 H   0  0  0  0  0  0  0  0  0  0  0  0
  -46.7990  -65.8480   55.3180 H   0  0  0  0  0  0  0  0  0  0  0  0
  -46.6330  -67.5770   54.9930 H   0  0  0  0  0  0  0  0  0  0  0  0
  -48.8520  -67.3950   54.6670 H   0  0  0  0  0  0  0  0  0  0  0  0
  -48.8240  -65.6790   54.1010 H   0  0  0  0  0  0  0  0  0  0  0  0
  -49.4210  -67.0990   52.3180 H   0  0  0  0  0  0  0  0  0  0  0  0
  -47.9860  -68.1470   52.4960 H   0  0  0  0  0  0  0  0  0  0  0  0
  -48.2170  -65.1690   51.8000 H   0  0  0  0  0  0  0  0  0  0  0  0
  -47.6470  -66.4760   50.7340 H   0  0  0  0  0  0  0  0  0  0  0  0
  2  1  1  0  0  0  0
  2  3  1  0  0  0  0
  3 22  1  0  0  0  0
  4  3  2  0  0  0  0
  4 23  1  0  0  0  0
  5  4  1  0  0  0  0
  6  7  1  0  0  0  0
  6  5  2  0  0  0  0
  7  2  2  0  0  0  0
  8  5  1  0  0  0  0
  8 16  1  0  0  0  0
  9 11  1  0  0  0  0
  9  8  1  0  0  0  0
 10  9  2  0  0  0  0
 11 26  1  6  0  0  0
 11 15  1  0  0  0  0
 12 11  1  0  0  0  0
 13 12  1  1  0  0  0
 13 14  1  0  0  0  0
 14 27  1  6  0  0  0
 14 15  1  0  0  0  0
 14 18  1  0  0  0  0
 15 16  1  0  0  0  0
 15 28  1  1  0  0  0
 16 17  2  0  0  0  0
 18 30  1  0  0  0  0
 18 29  1  0  0  0  0
 19 32  1  0  0  0  0
 19 18  1  0  0  0  0
 19 31  1  0  0  0  0
 20 19  1  0  0  0  0
 21 35  1  0  0  0  0
 21 13  1  0  0  0  0
 21 20  1  0  0  0  0
 24  6  1  0  0  0  0
 25  7  1  0  0  0  0
 33 20  1  0  0  0  0
 34 20  1  0  0  0  0
 36 21  1  0  0  0  0
M  END
>  <Pose>
1

>  <Score>
-5.05

$$$$
