
 OpenBabel03202209423D

 56 59  0  0  1  0  0  0  0  0999 V2000
  -52.2120  -69.9010   55.2840 Cl  0  0  0  0  0  0  0  0  0  0  0  0
  -50.9750  -68.6510   55.1250 C   0  0  0  0  0  0  0  0  0  0  0  0
  -49.7430  -69.0130   54.6830 C   0  0  0  0  0  0  0  0  0  0  0  0
  -48.7840  -68.0010   54.5700 C   0  0  0  0  0  0  0  0  0  0  0  0
  -49.0500  -66.7130   54.8810 C   0  0  0  0  0  0  0  0  0  0  0  0
  -47.9030  -66.0010   54.6630 N   0  0  0  0  0  0  0  0  0  0  0  0
  -46.9240  -66.7980   54.2260 C   0  0  0  0  0  0  0  0  0  0  0  0
  -47.4670  -68.0800   54.1600 C   0  0  0  0  0  0  0  0  0  0  0  0
  -45.5560  -66.5040   53.9000 C   0  0  0  0  0  0  0  0  0  0  0  0
  -44.7610  -67.5810   53.9590 O   0  0  0  0  0  0  0  0  0  0  0  0
  -44.8870  -65.3540   53.5390 N   0  0  0  0  0  0  0  0  0  0  0  0
  -43.6040  -65.2150   54.2850 C   0  0  0  0  0  0  0  0  0  0  0  0
  -42.4990  -65.8920   53.4970 C   0  0  0  0  0  0  0  0  0  0  0  0
  -42.9350  -65.9760   52.0840 C   0  0  1  0  0  0  0  0  0  0  0  0
  -43.2060  -64.6200   51.5190 C   0  0  2  0  0  0  0  0  0  0  0  0
  -44.7120  -64.5850   51.2050 C   0  0  0  0  0  0  0  0  0  0  0  0
  -45.3680  -64.4120   52.5880 C   0  0  0  0  0  0  0  0  0  0  0  0
  -42.4500  -64.3160   50.3890 O   0  0  0  0  0  0  0  0  0  0  0  0
  -42.1400  -66.7430   51.1780 N   0  0  0  0  0  0  0  0  0  0  0  0
  -42.5260  -68.1250   51.0500 C   0  0  0  0  0  0  0  0  0  0  0  0
  -42.3490  -68.8700   52.3180 C   0  0  0  0  0  0  0  0  0  0  0  0
  -40.9470  -68.6960   52.7120 N   0  0  0  0  0  0  0  0  0  0  0  0
  -40.1330  -67.9230   51.8110 C   0  0  0  0  0  0  0  0  0  0  0  0
  -40.7250  -66.6090   51.3960 C   0  0  0  0  0  0  0  0  0  0  0  0
  -40.4640  -69.2950   53.9160 C   0  0  0  0  0  0  0  0  0  0  0  0
  -39.6290  -70.2070   53.8500 O   0  0  0  0  0  0  0  0  0  0  0  0
  -40.9920  -68.7930   55.2230 C   0  0  0  0  0  0  0  0  0  0  0  0
  -50.2970  -66.3640   55.3250 C   0  0  0  0  0  0  0  0  0  0  0  0
  -51.2710  -67.3430   55.4490 C   0  0  0  0  0  0  0  0  0  0  0  0
  -49.5010  -70.0240   54.4300 H   0  0  0  0  0  0  0  0  0  0  0  0
  -47.8790  -64.9850   54.8210 H   0  0  0  0  0  0  0  0  0  0  0  0
  -46.9330  -68.9510   53.8400 H   0  0  0  0  0  0  0  0  0  0  0  0
  -43.6710  -65.7020   55.2600 H   0  0  0  0  0  0  0  0  0  0  0  0
  -43.4460  -64.1390   54.4530 H   0  0  0  0  0  0  0  0  0  0  0  0
  -42.1940  -66.8470   53.9510 H   0  0  0  0  0  0  0  0  0  0  0  0
  -41.6190  -65.1830   53.6220 H   0  0  0  0  0  0  0  0  0  0  0  0
  -43.9170  -66.5820   52.1370 H   0  0  0  0  0  0  0  0  0  0  0  0
  -43.0510  -63.7750   52.2410 H   0  0  0  0  0  0  0  0  0  0  0  0
  -44.9870  -63.7650   50.5560 H   0  0  0  0  0  0  0  0  0  0  0  0
  -44.9550  -65.6030   50.8230 H   0  0  0  0  0  0  0  0  0  0  0  0
  -46.4230  -64.3060   52.4550 H   0  0  0  0  0  0  0  0  0  0  0  0
  -45.0140  -63.3550   52.8960 H   0  0  0  0  0  0  0  0  0  0  0  0
  -42.8350  -64.8830   49.6450 H   0  0  0  0  0  0  0  0  0  0  0  0
  -41.8670  -68.5660   50.2540 H   0  0  0  0  0  0  0  0  0  0  0  0
  -43.5780  -68.1620   50.6650 H   0  0  0  0  0  0  0  0  0  0  0  0
  -43.0520  -68.5590   53.0920 H   0  0  0  0  0  0  0  0  0  0  0  0
  -42.4880  -69.9570   52.0790 H   0  0  0  0  0  0  0  0  0  0  0  0
  -39.9450  -68.5800   50.9200 H   0  0  0  0  0  0  0  0  0  0  0  0
  -39.1070  -67.7500   52.2660 H   0  0  0  0  0  0  0  0  0  0  0  0
  -40.2560  -66.3310   50.4180 H   0  0  0  0  0  0  0  0  0  0  0  0
  -40.4490  -65.7920   52.0880 H   0  0  0  0  0  0  0  0  0  0  0  0
  -41.6490  -67.9260   55.0580 H   0  0  0  0  0  0  0  0  0  0  0  0
  -41.5560  -69.6340   55.7100 H   0  0  0  0  0  0  0  0  0  0  0  0
  -40.1470  -68.5300   55.8590 H   0  0  0  0  0  0  0  0  0  0  0  0
  -50.5460  -65.3420   55.5790 H   0  0  0  0  0  0  0  0  0  0  0  0
  -52.2670  -67.1290   55.7920 H   0  0  0  0  0  0  0  0  0  0  0  0
  2  1  1  0  0  0  0
  2 29  1  0  0  0  0
  3  2  2  0  0  0  0
  4  3  1  0  0  0  0
  4  5  2  0  0  0  0
  5 28  1  0  0  0  0
  6 31  1  0  0  0  0
  6  5  1  0  0  0  0
  7  6  1  0  0  0  0
  8  7  2  0  0  0  0
  8  4  1  0  0  0  0
  9 10  2  0  0  0  0
  9  7  1  0  0  0  0
 11  9  1  0  0  0  0
 11 12  1  0  0  0  0
 12 34  1  0  0  0  0
 12 33  1  0  0  0  0
 13 36  1  0  0  0  0
 13 35  1  0  0  0  0
 13 12  1  0  0  0  0
 14 37  1  1  0  0  0
 14 13  1  0  0  0  0
 15 14  1  0  0  0  0
 15 38  1  1  0  0  0
 16 15  1  0  0  0  0
 16 17  1  0  0  0  0
 17 42  1  0  0  0  0
 17 11  1  0  0  0  0
 18 15  1  0  0  0  0
 19 24  1  0  0  0  0
 19 14  1  0  0  0  0
 20 19  1  0  0  0  0
 20 21  1  0  0  0  0
 21 22  1  0  0  0  0
 21 46  1  0  0  0  0
 22 25  1  0  0  0  0
 23 49  1  0  0  0  0
 23 22  1  0  0  0  0
 24 23  1  0  0  0  0
 24 51  1  0  0  0  0
 25 27  1  0  0  0  0
 26 25  2  0  0  0  0
 27 53  1  0  0  0  0
 27 54  1  0  0  0  0
 28 29  2  0  0  0  0
 28 55  1  0  0  0  0
 29 56  1  0  0  0  0
 30  3  1  0  0  0  0
 32  8  1  0  0  0  0
 39 16  1  0  0  0  0
 40 16  1  0  0  0  0
 41 17  1  0  0  0  0
 43 18  1  0  0  0  0
 44 20  1  0  0  0  0
 45 20  1  0  0  0  0
 47 21  1  0  0  0  0
 48 23  1  0  0  0  0
 50 24  1  0  0  0  0
 52 27  1  0  0  0  0
M  END
>  <Pose>
1

>  <Score>
-5.23

$$$$
