
 OpenBabel03202209423D

 46 49  0  0  0  0  0  0  0  0999 V2000
  -47.0090  -66.0690   44.9950 Cl  0  0  0  0  0  0  0  0  0  0  0  0
  -47.7040  -65.3300   46.4300 C   0  0  0  0  0  0  0  0  0  0  0  0
  -46.8450  -64.7890   47.3820 C   0  0  0  0  0  0  0  0  0  0  0  0
  -47.3990  -64.2050   48.5130 C   0  0  0  0  0  0  0  0  0  0  0  0
  -48.7900  -64.1910   48.6370 C   0  0  0  0  0  0  0  0  0  0  0  0
  -49.6180  -64.7270   47.6940 C   0  0  0  0  0  0  0  0  0  0  0  0
  -49.0780  -65.3010   46.5840 C   0  0  0  0  0  0  0  0  0  0  0  0
  -49.0040  -63.5960   49.7700 O   0  0  0  0  0  0  0  0  0  0  0  0
  -47.8880  -63.2440   50.3560 C   0  0  0  0  0  0  0  0  0  0  0  0
  -47.8370  -62.6510   51.4670 O   0  0  0  0  0  0  0  0  0  0  0  0
  -46.8540  -63.6170   49.5810 N   0  0  0  0  0  0  0  0  0  0  0  0
  -45.4770  -63.3900   49.9120 C   0  0  0  0  0  0  0  0  0  0  0  0
  -45.1150  -64.1190   51.1590 C   0  0  0  0  0  0  0  0  0  0  0  0
  -44.0590  -63.8430   51.9430 N   0  0  0  0  0  0  0  0  0  0  0  0
  -44.0000  -64.6800   52.9400 O   0  0  0  0  0  0  0  0  0  0  0  0
  -45.0190  -65.5060   52.8140 C   0  0  0  0  0  0  0  0  0  0  0  0
  -45.7160  -65.1750   51.7230 N   0  0  0  0  0  0  0  0  0  0  0  0
  -45.2560  -66.6120   53.8010 C   0  0  0  0  0  0  0  0  0  0  0  0
  -46.4920  -66.6670   54.1260 O   0  0  0  0  0  0  0  0  0  0  0  0
  -44.2360  -67.3840   54.2180 N   0  0  0  0  0  0  0  0  0  0  0  0
  -43.1930  -68.1730   54.6640 C   0  0  0  0  0  0  0  0  0  0  0  0
  -41.8400  -67.4510   54.6700 C   0  0  0  0  0  0  0  0  0  0  0  0
  -40.7280  -68.2690   54.3910 N   0  0  0  0  0  0  0  0  0  0  0  0
  -40.3770  -68.2120   53.0260 C   0  0  0  0  0  0  0  0  0  0  0  0
  -39.6820  -69.4390   52.5430 C   0  0  0  0  0  0  0  0  0  0  0  0
  -38.7910  -69.8540   53.4990 O   0  0  0  0  0  0  0  0  0  0  0  0
  -39.3840  -70.3020   54.6630 C   0  0  0  0  0  0  0  0  0  0  0  0
  -40.5560  -69.4730   55.0960 C   0  0  0  0  0  0  0  0  0  0  0  0
  -45.7830  -64.7880   47.2980 H   0  0  0  0  0  0  0  0  0  0  0  0
  -50.6990  -64.6870   47.8360 H   0  0  0  0  0  0  0  0  0  0  0  0
  -49.7410  -65.7300   45.8310 H   0  0  0  0  0  0  0  0  0  0  0  0
  -45.3120  -62.3020   50.0060 H   0  0  0  0  0  0  0  0  0  0  0  0
  -44.7830  -63.7260   49.1090 H   0  0  0  0  0  0  0  0  0  0  0  0
  -44.6490  -67.2140   55.5150 H   0  0  0  0  0  0  0  0  0  0  0  0
  -43.0100  -69.0410   53.9600 H   0  0  0  0  0  0  0  0  0  0  0  0
  -43.2950  -68.6090   55.6720 H   0  0  0  0  0  0  0  0  0  0  0  0
  -41.6490  -66.9290   55.6320 H   0  0  0  0  0  0  0  0  0  0  0  0
  -41.9180  -66.6650   53.8970 H   0  0  0  0  0  0  0  0  0  0  0  0
  -41.2560  -67.9680   52.3920 H   0  0  0  0  0  0  0  0  0  0  0  0
  -39.6530  -67.3590   52.8510 H   0  0  0  0  0  0  0  0  0  0  0  0
  -40.3860  -70.2480   52.2640 H   0  0  0  0  0  0  0  0  0  0  0  0
  -39.0560  -69.2000   51.6290 H   0  0  0  0  0  0  0  0  0  0  0  0
  -38.5890  -70.3600   55.4480 H   0  0  0  0  0  0  0  0  0  0  0  0
  -39.7330  -71.3370   54.4890 H   0  0  0  0  0  0  0  0  0  0  0  0
  -40.4110  -69.3030   56.2070 H   0  0  0  0  0  0  0  0  0  0  0  0
  -41.4920  -70.0590   55.0180 H   0  0  0  0  0  0  0  0  0  0  0  0
  1  2  1  0  0  0  0
  2  7  2  0  0  0  0
  2  3  1  0  0  0  0
  3  4  2  0  0  0  0
  4  5  1  0  0  0  0
  4 11  1  0  0  0  0
  5  8  1  0  0  0  0
  6 30  1  0  0  0  0
  6  5  2  0  0  0  0
  7  6  1  0  0  0  0
  8  9  1  0  0  0  0
  9 10  2  0  0  0  0
 11 12  1  0  0  0  0
 11  9  1  0  0  0  0
 12 32  1  0  0  0  0
 12 13  1  0  0  0  0
 13 17  1  0  0  0  0
 13 14  2  0  0  0  0
 14 15  1  0  0  0  0
 16 15  1  0  0  0  0
 16 18  1  0  0  0  0
 17 16  2  0  0  0  0
 18 19  2  0  0  0  0
 18 20  1  0  0  0  0
 20 21  1  0  0  0  0
 20 34  1  0  0  0  0
 21 22  1  0  0  0  0
 21 36  1  0  0  0  0
 22 37  1  0  0  0  0
 23 22  1  0  0  0  0
 23 28  1  0  0  0  0
 24 23  1  0  0  0  0
 25 24  1  0  0  0  0
 25 26  1  0  0  0  0
 26 27  1  0  0  0  0
 27 28  1  0  0  0  0
 27 43  1  0  0  0  0
 28 45  1  0  0  0  0
 29  3  1  0  0  0  0
 31  7  1  0  0  0  0
 33 12  1  0  0  0  0
 35 21  1  0  0  0  0
 38 22  1  0  0  0  0
 39 24  1  0  0  0  0
 40 24  1  0  0  0  0
 41 25  1  0  0  0  0
 42 25  1  0  0  0  0
 44 27  1  0  0  0  0
 46 28  1  0  0  0  0
M  END
>  <Pose>
1

>  <Score>
-5.82

$$$$
