
 OpenBabel03202209423D

 41 45  0  0  1  0  0  0  0  0999 V2000
  -34.4250  -70.1400   51.5110 Cl  0  0  0  0  0  0  0  0  0  0  0  0
  -35.9420  -69.2820   51.2190 C   0  0  0  0  0  0  0  0  0  0  0  0
  -35.9810  -68.1160   50.4950 C   0  0  0  0  0  0  0  0  0  0  0  0
  -37.1870  -67.4720   50.2820 C   0  0  0  0  0  0  0  0  0  0  0  0
  -38.3800  -67.9500   50.7700 C   0  0  0  0  0  0  0  0  0  0  0  0
  -38.3430  -69.1240   51.4980 C   0  0  0  0  0  0  0  0  0  0  0  0
  -37.1290  -69.7740   51.7130 C   0  0  0  0  0  0  0  0  0  0  0  0
  -39.6330  -67.2950   50.5550 N   0  0  0  0  0  0  0  0  0  0  0  0
  -40.7340  -67.1330   51.4370 C   0  0  0  0  0  0  0  0  0  0  0  0
  -40.7450  -67.4600   52.6530 O   0  0  0  0  0  0  0  0  0  0  0  0
  -41.8960  -66.5140   50.7180 C   0  0  1  0  0  0  0  0  0  0  0  0
  -42.3340  -65.2540   51.3880 C   0  0  2  0  0  0  0  0  0  0  0  0
  -42.3870  -64.2950   50.3460 O   0  0  0  0  0  0  0  0  0  0  0  0
  -41.0660  -64.5060   49.8730 C   0  0  2  0  0  0  0  0  0  0  0  0
  -41.2180  -65.9650   49.4540 C   0  0  1  0  0  0  0  0  0  0  0  0
  -39.9530  -66.6730   49.3170 C   0  0  0  0  0  0  0  0  0  0  0  0
  -39.2730  -66.7120   48.2590 O   0  0  0  0  0  0  0  0  0  0  0  0
  -40.3030  -64.3630   51.1360 C   0  0  0  0  0  0  0  0  0  0  0  0
  -41.1470  -64.7180   52.1270 C   0  0  0  0  0  0  0  0  0  0  0  0
  -40.6610  -63.6000   48.7880 C   0  0  0  0  0  0  0  0  0  0  0  0
  -43.5670  -65.3130   52.1840 C   0  0  0  0  0  0  0  0  0  0  0  0
  -43.8670  -64.0240   52.6310 O   0  0  0  0  0  0  0  0  0  0  0  0
  -44.6280  -63.4050   51.6710 C   0  0  0  0  0  0  0  0  0  0  0  0
  -45.3110  -64.5610   50.9910 C   0  0  0  0  0  0  0  0  0  0  0  0
  -44.6320  -65.6970   51.3700 O   0  0  0  0  0  0  0  0  0  0  0  0
  -35.0700  -67.7170   50.1010 H   0  0  0  0  0  0  0  0  0  0  0  0
  -37.2440  -66.5410   49.7070 H   0  0  0  0  0  0  0  0  0  0  0  0
  -39.2600  -69.5360   51.9030 H   0  0  0  0  0  0  0  0  0  0  0  0
  -37.0860  -70.6900   52.2760 H   0  0  0  0  0  0  0  0  0  0  0  0
  -42.6860  -67.2290   50.4910 H   0  0  0  0  0  0  0  0  0  0  0  0
  -41.8770  -66.0030   48.5900 H   0  0  0  0  0  0  0  0  0  0  0  0
  -39.2860  -64.0490   51.3270 H   0  0  0  0  0  0  0  0  0  0  0  0
  -41.0250  -64.6500   53.1950 H   0  0  0  0  0  0  0  0  0  0  0  0
  -40.7630  -64.0250   47.7620 H   0  0  0  0  0  0  0  0  0  0  0  0
  -39.5870  -63.2710   48.8820 H   0  0  0  0  0  0  0  0  0  0  0  0
  -41.2360  -62.6370   48.7620 H   0  0  0  0  0  0  0  0  0  0  0  0
  -43.4860  -66.0340   52.9980 H   0  0  0  0  0  0  0  0  0  0  0  0
  -45.3620  -62.7400   52.2110 H   0  0  0  0  0  0  0  0  0  0  0  0
  -44.0770  -62.7470   50.9880 H   0  0  0  0  0  0  0  0  0  0  0  0
  -45.2530  -64.3610   49.8900 H   0  0  0  0  0  0  0  0  0  0  0  0
  -46.3750  -64.5520   51.3430 H   0  0  0  0  0  0  0  0  0  0  0  0
  2  1  1  0  0  0  0
  2  7  1  0  0  0  0
  3  2  2  0  0  0  0
  4  3  1  0  0  0  0
  4  5  2  0  0  0  0
  5  6  1  0  0  0  0
  6  7  2  0  0  0  0
  6 28  1  0  0  0  0
  7 29  1  0  0  0  0
  8  5  1  0  0  0  0
  8  9  1  0  0  0  0
  9 10  2  0  0  0  0
 11 30  1  6  0  0  0
 11 12  1  0  0  0  0
 11  9  1  0  0  0  0
 12 19  1  0  0  0  0
 12 21  1  1  0  0  0
 13 12  1  0  0  0  0
 14 20  1  6  0  0  0
 14 13  1  0  0  0  0
 14 18  1  0  0  0  0
 15 31  1  6  0  0  0
 15 14  1  0  0  0  0
 15 11  1  0  0  0  0
 16 15  1  0  0  0  0
 16  8  1  0  0  0  0
 17 16  2  0  0  0  0
 18 32  1  0  0  0  0
 18 19  2  0  0  0  0
 19 33  1  0  0  0  0
 20 35  1  0  0  0  0
 21 22  1  0  0  0  0
 21 37  1  0  0  0  0
 23 38  1  0  0  0  0
 23 22  1  0  0  0  0
 24 41  1  0  0  0  0
 24 25  1  0  0  0  0
 24 23  1  0  0  0  0
 25 21  1  0  0  0  0
 26  3  1  0  0  0  0
 27  4  1  0  0  0  0
 34 20  1  0  0  0  0
 36 20  1  0  0  0  0
 39 23  1  0  0  0  0
 40 24  1  0  0  0  0
M  END
>  <Pose>
1

>  <Score>
-4.92

$$$$
