
 OpenBabel03202209423D

 49 52  0  0  0  0  0  0  0  0999 V2000
  -49.5420  -61.8710   48.9600 Cl  0  0  0  0  0  0  0  0  0  0  0  0
  -48.7980  -62.6790   50.3460 C   0  0  0  0  0  0  0  0  0  0  0  0
  -47.4580  -62.9680   50.3470 C   0  0  0  0  0  0  0  0  0  0  0  0
  -46.9550  -63.6020   51.4620 C   0  0  0  0  0  0  0  0  0  0  0  0
  -47.7610  -63.9390   52.5460 C   0  0  0  0  0  0  0  0  0  0  0  0
  -49.1120  -63.6250   52.4980 C   0  0  0  0  0  0  0  0  0  0  0  0
  -49.6270  -62.9920   51.3890 C   0  0  0  0  0  0  0  0  0  0  0  0
  -47.2130  -64.5940   53.6860 N   0  0  0  0  0  0  0  0  0  0  0  0
  -46.5980  -65.8570   53.6840 C   0  0  0  0  0  0  0  0  0  0  0  0
  -46.9260  -66.6670   52.7750 O   0  0  0  0  0  0  0  0  0  0  0  0
  -45.6440  -66.2690   54.6350 N   0  0  0  0  0  0  0  0  0  0  0  0
  -44.2710  -66.0530   54.5870 N   0  0  0  0  0  0  0  0  0  0  0  0
  -43.4140  -67.1750   54.4970 C   0  0  0  0  0  0  0  0  0  0  0  0
  -43.5940  -68.1600   55.2820 O   0  0  0  0  0  0  0  0  0  0  0  0
  -42.3430  -67.1760   53.5190 C   0  0  0  0  0  0  0  0  0  0  0  0
  -42.2360  -66.3210   52.5320 N   0  0  0  0  0  0  0  0  0  0  0  0
  -41.1270  -66.5480   51.7560 N   0  0  0  0  0  0  0  0  0  0  0  0
  -40.4750  -67.6790   52.3330 C   0  0  0  0  0  0  0  0  0  0  0  0
  -39.3950  -68.3310   52.0200 N   0  0  0  0  0  0  0  0  0  0  0  0
  -38.9480  -69.4480   52.7740 N   0  0  0  0  0  0  0  0  0  0  0  0
  -39.6470  -69.9120   53.9030 C   0  0  0  0  0  0  0  0  0  0  0  0
  -39.2370  -70.9480   54.6220 C   0  0  0  0  0  0  0  0  0  0  0  0
  -40.8630  -69.1960   54.2710 C   0  0  0  0  0  0  0  0  0  0  0  0
  -41.4940  -69.5880   55.2580 O   0  0  0  0  0  0  0  0  0  0  0  0
  -41.2490  -68.0840   53.4620 N   0  0  0  0  0  0  0  0  0  0  0  0
  -40.7020  -65.7700   50.6410 C   0  0  0  0  0  0  0  0  0  0  0  0
  -39.9960  -66.3290   49.6040 C   0  0  0  0  0  0  0  0  0  0  0  0
  -39.5940  -65.6270   48.4760 C   0  0  0  0  0  0  0  0  0  0  0  0
  -39.9040  -64.2870   48.3540 C   0  0  0  0  0  0  0  0  0  0  0  0
  -40.6100  -63.7020   49.3840 C   0  0  0  0  0  0  0  0  0  0  0  0
  -41.0000  -64.4330   50.5050 C   0  0  0  0  0  0  0  0  0  0  0  0
  -39.5240  -63.5030   47.1400 C   0  0  0  0  0  0  0  0  0  0  0  0
  -46.8160  -62.7080   49.5030 H   0  0  0  0  0  0  0  0  0  0  0  0
  -45.8910  -63.8560   51.5110 H   0  0  0  0  0  0  0  0  0  0  0  0
  -49.7100  -63.9000   53.3650 H   0  0  0  0  0  0  0  0  0  0  0  0
  -50.6970  -62.7470   51.3770 H   0  0  0  0  0  0  0  0  0  0  0  0
  -47.2960  -64.0610   54.5870 H   0  0  0  0  0  0  0  0  0  0  0  0
  -45.9660  -66.7990   55.5090 H   0  0  0  0  0  0  0  0  0  0  0  0
  -43.9220  -65.0830   54.6110 H   0  0  0  0  0  0  0  0  0  0  0  0
  -38.0680  -69.8990   52.4360 H   0  0  0  0  0  0  0  0  0  0  0  0
  -38.3450  -71.5080   54.3990 H   0  0  0  0  0  0  0  0  0  0  0  0
  -39.8000  -71.2710   55.4910 H   0  0  0  0  0  0  0  0  0  0  0  0
  -39.7460  -67.3960   49.6930 H   0  0  0  0  0  0  0  0  0  0  0  0
  -39.0400  -66.0980   47.6840 H   0  0  0  0  0  0  0  0  0  0  0  0
  -40.8430  -62.6440   49.2770 H   0  0  0  0  0  0  0  0  0  0  0  0
  -41.5540  -63.9410   51.3030 H   0  0  0  0  0  0  0  0  0  0  0  0
  -38.4730  -63.2040   47.1150 H   0  0  0  0  0  0  0  0  0  0  0  0
  -40.1510  -62.6130   47.0050 H   0  0  0  0  0  0  0  0  0  0  0  0
  -39.7210  -64.1290   46.2140 H   0  0  0  0  0  0  0  0  0  0  0  0
  1  2  1  0  0  0  0
  2  3  2  0  0  0  0
  2  7  1  0  0  0  0
  3  4  1  0  0  0  0
  4 34  1  0  0  0  0
  4  5  2  0  0  0  0
  5  8  1  0  0  0  0
  6  5  1  0  0  0  0
  6 35  1  0  0  0  0
  7  6  2  0  0  0  0
  8 37  1  0  0  0  0
  9  8  1  0  0  0  0
  9 11  1  0  0  0  0
 10  9  2  0  0  0  0
 11 38  1  0  0  0  0
 12 39  1  0  0  0  0
 12 11  1  0  0  0  0
 13 12  1  0  0  0  0
 13 14  2  0  0  0  0
 15 13  1  0  0  0  0
 16 15  2  0  0  0  0
 17 18  1  0  0  0  0
 17 16  1  0  0  0  0
 18 25  1  0  0  0  0
 19 18  2  0  0  0  0
 19 20  1  0  0  0  0
 20 21  1  0  0  0  0
 21 23  1  0  0  0  0
 21 22  2  0  0  0  0
 22 42  1  0  0  0  0
 23 24  2  0  0  0  0
 25 15  1  0  0  0  0
 25 23  1  0  0  0  0
 26 17  1  0  0  0  0
 27 43  1  0  0  0  0
 27 26  2  0  0  0  0
 28 27  1  0  0  0  0
 29 28  2  0  0  0  0
 29 30  1  0  0  0  0
 30 31  2  0  0  0  0
 31 26  1  0  0  0  0
 31 46  1  0  0  0  0
 32 29  1  0  0  0  0
 33  3  1  0  0  0  0
 36  7  1  0  0  0  0
 40 20  1  0  0  0  0
 41 22  1  0  0  0  0
 44 28  1  0  0  0  0
 45 30  1  0  0  0  0
 47 32  1  0  0  0  0
 48 32  1  0  0  0  0
 49 32  1  0  0  0  0
M  END
>  <Pose>
1

>  <Score>
-8.77

$$$$
