
 OpenBabel03202209423D

 53 57  0  0  1  0  0  0  0  0999 V2000
  -35.0580  -62.2770   48.3030 Cl  0  0  0  0  0  0  0  0  0  0  0  0
  -35.8170  -63.8360   48.0600 C   0  0  0  0  0  0  0  0  0  0  0  0
  -36.9640  -64.2190   48.7240 C   0  0  0  0  0  0  0  0  0  0  0  0
  -37.5400  -65.4670   48.5080 C   0  0  0  0  0  0  0  0  0  0  0  0
  -36.9130  -66.2840   47.6080 C   0  0  0  0  0  0  0  0  0  0  0  0
  -35.7700  -65.9200   46.9360 C   0  0  0  0  0  0  0  0  0  0  0  0
  -35.2090  -64.6970   47.1510 C   0  0  0  0  0  0  0  0  0  0  0  0
  -38.7340  -65.5690   49.3540 C   0  0  2  0  0  0  0  0  0  0  0  0
  -38.6700  -66.6920   50.2730 N   0  0  0  0  0  0  0  0  0  0  0  0
  -40.0650  -66.8090   50.7040 C   0  0  1  0  0  0  0  0  0  0  0  0
  -40.9060  -66.4740   49.5320 C   0  0  2  0  0  0  0  0  0  0  0  0
  -39.9520  -65.9010   48.5330 C   0  0  1  0  0  0  0  0  0  0  0  0
  -40.5710  -64.7240   47.9180 C   0  0  0  0  0  0  0  0  0  0  0  0
  -40.1490  -64.1770   46.8690 O   0  0  0  0  0  0  0  0  0  0  0  0
  -41.6830  -64.3730   48.7320 N   0  0  0  0  0  0  0  0  0  0  0  0
  -41.8080  -65.2950   49.8070 C   0  0  0  0  0  0  0  0  0  0  0  0
  -42.5260  -65.2120   50.8400 O   0  0  0  0  0  0  0  0  0  0  0  0
  -42.5600  -63.2310   48.4870 C   0  0  0  0  0  0  0  0  0  0  0  0
  -41.6820  -62.0070   48.2690 C   0  0  0  0  0  0  0  0  0  0  0  0
  -42.4390  -60.8460   48.2890 O   0  0  0  0  0  0  0  0  0  0  0  0
  -41.6100  -59.7530   48.1320 C   0  0  0  0  0  0  0  0  0  0  0  0
  -40.3610  -68.1870   51.2150 C   0  0  0  0  0  0  0  0  0  0  0  0
  -40.8260  -68.2370   52.6110 C   0  0  0  0  0  0  0  0  0  0  0  0
  -40.2370  -69.1760   53.4550 C   0  0  0  0  0  0  0  0  0  0  0  0
  -40.6330  -69.2340   54.7660 C   0  0  0  0  0  0  0  0  0  0  0  0
  -41.5920  -68.4020   55.2930 C   0  0  0  0  0  0  0  0  0  0  0  0
  -42.1510  -67.4870   54.4270 C   0  0  0  0  0  0  0  0  0  0  0  0
  -41.7890  -67.3860   53.1000 C   0  0  0  0  0  0  0  0  0  0  0  0
  -38.8340  -64.3030   50.0970 C   0  0  0  0  0  0  0  0  0  0  0  0
  -39.6870  -63.9540   50.9260 O   0  0  0  0  0  0  0  0  0  0  0  0
  -37.7340  -63.5070   49.6810 N   0  0  0  0  0  0  0  0  0  0  0  0
  -37.3680  -67.2740   47.4330 H   0  0  0  0  0  0  0  0  0  0  0  0
  -35.3270  -66.6010   46.2450 H   0  0  0  0  0  0  0  0  0  0  0  0
  -34.3130  -64.3910   46.6350 H   0  0  0  0  0  0  0  0  0  0  0  0
  -38.0360  -66.4920   51.0940 H   0  0  0  0  0  0  0  0  0  0  0  0
  -40.2340  -66.1190   51.5750 H   0  0  0  0  0  0  0  0  0  0  0  0
  -41.5070  -67.2990   49.1060 H   0  0  0  0  0  0  0  0  0  0  0  0
  -39.6140  -66.6540   47.7820 H   0  0  0  0  0  0  0  0  0  0  0  0
  -43.1860  -63.0320   49.3610 H   0  0  0  0  0  0  0  0  0  0  0  0
  -43.2130  -63.4000   47.6120 H   0  0  0  0  0  0  0  0  0  0  0  0
  -40.9000  -62.0200   49.0580 H   0  0  0  0  0  0  0  0  0  0  0  0
  -41.1970  -62.0580   47.2730 H   0  0  0  0  0  0  0  0  0  0  0  0
  -41.0590  -59.7940   47.1760 H   0  0  0  0  0  0  0  0  0  0  0  0
  -40.8560  -59.6510   48.9410 H   0  0  0  0  0  0  0  0  0  0  0  0
  -42.2430  -58.8390   48.1770 H   0  0  0  0  0  0  0  0  0  0  0  0
  -41.0450  -68.7150   50.5170 H   0  0  0  0  0  0  0  0  0  0  0  0
  -39.3840  -68.7530   51.1580 H   0  0  0  0  0  0  0  0  0  0  0  0
  -39.4670  -69.8510   53.0510 H   0  0  0  0  0  0  0  0  0  0  0  0
  -40.1740  -69.9630   55.4180 H   0  0  0  0  0  0  0  0  0  0  0  0
  -41.9160  -68.4340   56.3230 H   0  0  0  0  0  0  0  0  0  0  0  0
  -42.9110  -66.8060   54.7860 H   0  0  0  0  0  0  0  0  0  0  0  0
  -42.2620  -66.6230   52.4600 H   0  0  0  0  0  0  0  0  0  0  0  0
  -37.5000  -62.5330   50.0130 H   0  0  0  0  0  0  0  0  0  0  0  0
  2  1  1  0  0  0  0
  2  3  1  0  0  0  0
  3 31  1  0  0  0  0
  4  3  2  0  0  0  0
  5  4  1  0  0  0  0
  6  7  1  0  0  0  0
  6  5  2  0  0  0  0
  7  2  2  0  0  0  0
  8  4  1  6  0  0  0
  8 29  1  0  0  0  0
  8  9  1  0  0  0  0
  9 10  1  0  0  0  0
  9 35  1  0  0  0  0
 10 22  1  0  0  0  0
 10 36  1  1  0  0  0
 11 37  1  6  0  0  0
 11 16  1  0  0  0  0
 11 10  1  0  0  0  0
 12 38  1  6  0  0  0
 12  8  1  0  0  0  0
 12 11  1  0  0  0  0
 13 12  1  0  0  0  0
 13 15  1  0  0  0  0
 14 13  2  0  0  0  0
 15 16  1  0  0  0  0
 16 17  2  0  0  0  0
 18 15  1  0  0  0  0
 18 39  1  0  0  0  0
 19 20  1  0  0  0  0
 19 18  1  0  0  0  0
 19 41  1  0  0  0  0
 21 45  1  0  0  0  0
 21 20  1  0  0  0  0
 21 44  1  0  0  0  0
 22 23  1  0  0  0  0
 23 28  2  0  0  0  0
 23 24  1  0  0  0  0
 24 25  2  0  0  0  0
 25 26  1  0  0  0  0
 25 49  1  0  0  0  0
 26 50  1  0  0  0  0
 27 51  1  0  0  0  0
 27 26  2  0  0  0  0
 28 27  1  0  0  0  0
 29 30  2  0  0  0  0
 31 53  1  0  0  0  0
 31 29  1  0  0  0  0
 32  5  1  0  0  0  0
 33  6  1  0  0  0  0
 34  7  1  0  0  0  0
 40 18  1  0  0  0  0
 42 19  1  0  0  0  0
 43 21  1  0  0  0  0
 46 22  1  0  0  0  0
 47 22  1  0  0  0  0
 48 24  1  0  0  0  0
 52 28  1  0  0  0  0
M  END
>  <Pose>
1

>  <Score>
-6.48

$$$$
