
 OpenBabel03202209423D

 42 45  0  0  0  0  0  0  0  0999 V2000
  -34.8780  -62.0050   47.2150 Cl  0  0  0  0  0  0  0  0  0  0  0  0
  -36.0880  -62.8370   48.1710 C   0  0  0  0  0  0  0  0  0  0  0  0
  -35.7190  -63.9080   48.9580 C   0  0  0  0  0  0  0  0  0  0  0  0
  -36.7230  -64.5270   49.6950 C   0  0  0  0  0  0  0  0  0  0  0  0
  -38.0360  -64.1280   49.6750 C   0  0  0  0  0  0  0  0  0  0  0  0
  -38.3800  -63.0590   48.8870 C   0  0  0  0  0  0  0  0  0  0  0  0
  -37.4030  -62.4340   48.1510 C   0  0  0  0  0  0  0  0  0  0  0  0
  -39.0400  -64.8250   50.4760 C   0  0  0  0  0  0  0  0  0  0  0  0
  -40.0100  -65.5640   49.7640 N   0  0  0  0  0  0  0  0  0  0  0  0
  -39.7680  -66.9340   49.5450 C   0  0  0  0  0  0  0  0  0  0  0  0
  -40.3400  -67.8870   50.5600 C   0  0  0  0  0  0  0  0  0  0  0  0
  -41.4590  -67.1610   51.2160 N   0  0  0  0  0  0  0  0  0  0  0  0
  -42.2200  -66.3650   50.3290 C   0  0  0  0  0  0  0  0  0  0  0  0
  -41.3760  -65.1660   49.9540 C   0  0  0  0  0  0  0  0  0  0  0  0
  -41.6290  -67.3820   52.5990 C   0  0  0  0  0  0  0  0  0  0  0  0
  -40.8140  -68.2770   53.2350 N   0  0  0  0  0  0  0  0  0  0  0  0
  -40.8930  -68.6020   54.5190 C   0  0  0  0  0  0  0  0  0  0  0  0
  -41.8400  -68.0160   55.2710 N   0  0  0  0  0  0  0  0  0  0  0  0
  -42.6760  -67.1220   54.6960 C   0  0  0  0  0  0  0  0  0  0  0  0
  -43.6890  -66.3860   55.1890 N   0  0  0  0  0  0  0  0  0  0  0  0
  -44.2020  -65.6350   54.2140 C   0  0  0  0  0  0  0  0  0  0  0  0
  -43.5400  -65.8620   53.0650 N   0  0  0  0  0  0  0  0  0  0  0  0
  -42.5980  -66.7770   53.3460 C   0  0  0  0  0  0  0  0  0  0  0  0
  -39.9970  -69.5560   55.1280 N   0  0  0  0  0  0  0  0  0  0  0  0
  -34.6900  -64.2510   48.9970 H   0  0  0  0  0  0  0  0  0  0  0  0
  -36.3730  -65.3680   50.2970 H   0  0  0  0  0  0  0  0  0  0  0  0
  -39.4240  -62.6970   48.8340 H   0  0  0  0  0  0  0  0  0  0  0  0
  -37.6810  -61.5790   47.5200 H   0  0  0  0  0  0  0  0  0  0  0  0
  -38.5840  -65.4930   51.2480 H   0  0  0  0  0  0  0  0  0  0  0  0
  -39.5790  -64.0380   51.0820 H   0  0  0  0  0  0  0  0  0  0  0  0
  -38.6990  -67.1180   49.4710 H   0  0  0  0  0  0  0  0  0  0  0  0
  -40.2020  -67.2070   48.5390 H   0  0  0  0  0  0  0  0  0  0  0  0
  -39.6280  -68.2700   51.2870 H   0  0  0  0  0  0  0  0  0  0  0  0
  -40.8280  -68.7490   50.0600 H   0  0  0  0  0  0  0  0  0  0  0  0
  -42.2920  -66.9700   49.3520 H   0  0  0  0  0  0  0  0  0  0  0  0
  -43.2520  -66.1520   50.5620 H   0  0  0  0  0  0  0  0  0  0  0  0
  -41.4250  -64.3350   50.6770 H   0  0  0  0  0  0  0  0  0  0  0  0
  -41.7620  -64.7900   48.9780 H   0  0  0  0  0  0  0  0  0  0  0  0
  -45.0400  -64.9450   54.3590 H   0  0  0  0  0  0  0  0  0  0  0  0
  -43.7530  -65.3840   52.1640 H   0  0  0  0  0  0  0  0  0  0  0  0
  -38.9950  -69.5880   54.8980 H   0  0  0  0  0  0  0  0  0  0  0  0
  -40.3650  -70.2350   55.8230 H   0  0  0  0  0  0  0  0  0  0  0  0
  1  2  1  0  0  0  0
  2  3  1  0  0  0  0
  3 25  1  0  0  0  0
  3  4  2  0  0  0  0
  4 26  1  0  0  0  0
  5  4  1  0  0  0  0
  5  8  1  0  0  0  0
  6  5  2  0  0  0  0
  7  2  2  0  0  0  0
  7  6  1  0  0  0  0
  8 30  1  0  0  0  0
  8 29  1  0  0  0  0
  9 14  1  0  0  0  0
  9  8  1  0  0  0  0
 10  9  1  0  0  0  0
 10 11  1  0  0  0  0
 11 12  1  0  0  0  0
 11 33  1  0  0  0  0
 12 15  1  0  0  0  0
 13 36  1  0  0  0  0
 13 12  1  0  0  0  0
 14 13  1  0  0  0  0
 14 37  1  0  0  0  0
 15 16  1  0  0  0  0
 15 23  2  0  0  0  0
 16 17  2  0  0  0  0
 17 24  1  0  0  0  0
 17 18  1  0  0  0  0
 19 20  1  0  0  0  0
 19 18  2  0  0  0  0
 21 39  1  0  0  0  0
 21 20  2  0  0  0  0
 22 23  1  0  0  0  0
 22 21  1  0  0  0  0
 23 19  1  0  0  0  0
 24 42  1  0  0  0  0
 27  6  1  0  0  0  0
 28  7  1  0  0  0  0
 31 10  1  0  0  0  0
 32 10  1  0  0  0  0
 34 11  1  0  0  0  0
 35 13  1  0  0  0  0
 38 14  1  0  0  0  0
 40 22  1  0  0  0  0
 41 24  1  0  0  0  0
M  END
>  <Pose>
1

>  <Score>
-6.09

$$$$
