
 OpenBabel03202209423D

 54 57  0  0  0  0  0  0  0  0999 V2000
  -41.6560  -62.7890   44.5790 B   0  0  0  0  0  0  0  0  0  0  0  0
  -40.1340  -62.5400   45.7000 C   0  0  0  0  0  0  0  0  0  0  0  0
  -40.0850  -63.0880   46.9630 C   0  0  0  0  0  0  0  0  0  0  0  0
  -38.9890  -62.9100   47.7710 C   0  0  0  0  0  0  0  0  0  0  0  0
  -37.9370  -62.1670   47.2820 C   0  0  0  0  0  0  0  0  0  0  0  0
  -37.9740  -61.6050   46.0040 C   0  0  0  0  0  0  0  0  0  0  0  0
  -39.0820  -61.7880   45.1930 C   0  0  0  0  0  0  0  0  0  0  0  0
  -36.8400  -62.0020   48.1210 O   0  0  0  0  0  0  0  0  0  0  0  0
  -35.8430  -62.9790   48.3090 C   0  0  0  0  0  0  0  0  0  0  0  0
  -38.9250  -63.4860   49.1100 C   0  0  0  0  0  0  0  0  0  0  0  0
  -39.7460  -63.1830   50.0430 N   0  0  0  0  0  0  0  0  0  0  0  0
  -39.7000  -63.7240   51.3290 N   0  0  0  0  0  0  0  0  0  0  0  0
  -40.6480  -64.6740   51.7980 C   0  0  0  0  0  0  0  0  0  0  0  0
  -41.9300  -64.3590   52.0810 N   0  0  0  0  0  4  0  0  0  0  0  0
  -42.7980  -65.2770   52.5220 C   0  0  0  0  0  0  0  0  0  0  0  0
  -42.3680  -66.5390   52.6810 N   0  0  0  0  0  0  0  0  0  0  0  0
  -41.0920  -66.9270   52.4150 C   0  0  0  0  0  0  0  0  0  0  0  0
  -40.2660  -65.9400   51.9710 N   0  0  0  0  0  0  0  0  0  0  0  0
  -40.6480  -68.2500   52.5840 N   0  0  0  0  0  0  0  0  0  0  0  0
  -41.2070  -69.1030   53.5900 C   0  0  0  0  0  0  0  0  0  0  0  0
  -40.0400  -69.6500   54.4100 C   0  0  0  0  0  0  0  0  0  0  0  0
  -39.1810  -70.2740   53.5230 O   0  0  0  0  0  0  0  0  0  0  0  0
  -38.5660  -69.3970   52.6610 C   0  0  0  0  0  0  0  0  0  0  0  0
  -39.6130  -68.7720   51.7390 C   0  0  0  0  0  0  0  0  0  0  0  0
  -44.1470  -64.9460   52.8190 N   0  0  0  0  0  0  0  0  0  0  0  0
  -44.8080  -65.3950   54.0250 C   0  0  0  0  0  0  0  0  0  0  0  0
  -46.2310  -65.8510   53.7360 C   0  0  0  0  0  0  0  0  0  0  0  0
  -46.8790  -64.9340   52.9010 O   0  0  0  0  0  0  0  0  0  0  0  0
  -46.2480  -64.8180   51.6850 C   0  0  0  0  0  0  0  0  0  0  0  0
  -44.9170  -64.1320   51.9050 C   0  0  0  0  0  0  0  0  0  0  0  0
  -40.9140  -63.6820   47.3670 H   0  0  0  0  0  0  0  0  0  0  0  0
  -37.1280  -61.0190   45.6350 H   0  0  0  0  0  0  0  0  0  0  0  0
  -39.0880  -61.3470   44.2110 H   0  0  0  0  0  0  0  0  0  0  0  0
  -36.1690  -63.6110   49.1730 H   0  0  0  0  0  0  0  0  0  0  0  0
  -35.6260  -63.5650   47.4030 H   0  0  0  0  0  0  0  0  0  0  0  0
  -34.9070  -62.4710   48.6320 H   0  0  0  0  0  0  0  0  0  0  0  0
  -38.1540  -64.2060   49.3440 H   0  0  0  0  0  0  0  0  0  0  0  0
  -38.9130  -63.3890   51.9490 H   0  0  0  0  0  0  0  0  0  0  0  0
  -41.9290  -68.5510   54.2470 H   0  0  0  0  0  0  0  0  0  0  0  0
  -41.6990  -69.9750   53.1030 H   0  0  0  0  0  0  0  0  0  0  0  0
  -40.4770  -70.4230   55.0740 H   0  0  0  0  0  0  0  0  0  0  0  0
  -39.5680  -68.8640   55.0030 H   0  0  0  0  0  0  0  0  0  0  0  0
  -38.0860  -68.5450   53.2000 H   0  0  0  0  0  0  0  0  0  0  0  0
  -37.8390  -69.9420   52.0500 H   0  0  0  0  0  0  0  0  0  0  0  0
  -39.1590  -68.0080   51.0840 H   0  0  0  0  0  0  0  0  0  0  0  0
  -40.0270  -69.6230   51.1480 H   0  0  0  0  0  0  0  0  0  0  0  0
  -44.9210  -64.4770   54.6690 H   0  0  0  0  0  0  0  0  0  0  0  0
  -44.2700  -66.1950   54.5400 H   0  0  0  0  0  0  0  0  0  0  0  0
  -46.1780  -66.8580   53.3020 H   0  0  0  0  0  0  0  0  0  0  0  0
  -46.7910  -65.8160   54.7050 H   0  0  0  0  0  0  0  0  0  0  0  0
  -46.1240  -65.8330   51.2550 H   0  0  0  0  0  0  0  0  0  0  0  0
  -46.8970  -64.2550   51.0080 H   0  0  0  0  0  0  0  0  0  0  0  0
  -45.1190  -63.1700   52.3870 H   0  0  0  0  0  0  0  0  0  0  0  0
  -44.3740  -63.9660   50.9610 H   0  0  0  0  0  0  0  0  0  0  0  0
  1  2  1  0  0  0  0
  2  3  1  0  0  0  0
  3 31  1  0  0  0  0
  3  4  2  0  0  0  0
  4 10  1  0  0  0  0
  5  4  1  0  0  0  0
  5  8  1  0  0  0  0
  6  5  2  0  0  0  0
  7  2  2  0  0  0  0
  7  6  1  0  0  0  0
  8  9  1  0  0  0  0
  9 36  1  0  0  0  0
  9 34  1  0  0  0  0
 10 37  1  0  0  0  0
 10 11  2  0  0  0  0
 11 12  1  0  0  0  0
 12 13  1  0  0  0  0
 12 38  1  0  0  0  0
 13 18  1  0  0  0  0
 13 14  2  0  0  0  0
 14 15  2  0  0  0  0
 15 16  1  0  0  0  0
 15 25  1  0  0  0  0
 17 19  1  0  0  0  0
 17 16  2  0  0  0  0
 18 17  1  0  0  0  0
 19 20  1  0  0  0  0
 20 39  1  0  0  0  0
 20 21  1  0  0  0  0
 21 42  1  0  0  0  0
 21 41  1  0  0  0  0
 22 21  1  0  0  0  0
 23 43  1  0  0  0  0
 23 22  1  0  0  0  0
 24 19  1  0  0  0  0
 24 23  1  0  0  0  0
 25 26  1  0  0  0  0
 26 48  1  0  0  0  0
 26 47  1  0  0  0  0
 27 26  1  0  0  0  0
 27 50  1  0  0  0  0
 28 27  1  0  0  0  0
 29 30  1  0  0  0  0
 29 28  1  0  0  0  0
 30 53  1  0  0  0  0
 30 25  1  0  0  0  0
 32  6  1  0  0  0  0
 33  7  1  0  0  0  0
 35  9  1  0  0  0  0
 40 20  1  0  0  0  0
 44 23  1  0  0  0  0
 45 24  1  0  0  0  0
 46 24  1  0  0  0  0
 49 27  1  0  0  0  0
 51 29  1  0  0  0  0
 52 29  1  0  0  0  0
 54 30  1  0  0  0  0
M  END
>  <Pose>
1

>  <Score>
-6.90

$$$$
