
 OpenBabel03202209423D

 38 41  0  0  1  0  0  0  0  0999 V2000
  -45.0500  -61.9010   49.6230 B   0  0  0  0  0  0  0  0  0  0  0  0
  -46.3450  -63.0890   50.3580 C   0  0  0  0  0  0  0  0  0  0  0  0
  -45.9740  -64.2350   51.0220 C   0  0  0  0  0  0  0  0  0  0  0  0
  -46.9020  -65.1300   51.5750 C   0  0  0  0  0  0  0  0  0  0  0  0
  -48.2200  -64.8030   51.4200 C   0  0  0  0  0  0  0  0  0  0  0  0
  -48.5870  -63.6360   50.7460 C   0  0  0  0  0  0  0  0  0  0  0  0
  -47.6670  -62.7870   50.2200 C   0  0  0  0  0  0  0  0  0  0  0  0
  -46.4340  -66.2810   52.2380 N   0  0  0  0  0  0  0  0  0  0  0  0
  -45.8280  -66.2980   53.5040 C   0  0  0  0  0  0  0  0  0  0  0  0
  -46.2170  -66.9500   54.4840 O   0  0  0  0  0  0  0  0  0  0  0  0
  -44.5960  -65.4670   53.7380 C   0  0  2  0  0  0  0  0  0  0  0  0
  -43.4100  -65.8880   52.9100 C   0  0  0  0  0  0  0  0  0  0  0  0
  -42.8840  -66.6940   54.0220 N   0  0  2  0  0  0  0  0  0  0  0  0
  -43.7490  -65.9180   54.8910 C   0  0  0  0  0  0  0  0  0  0  0  0
  -41.9370  -67.7520   54.1080 C   0  0  1  0  0  0  0  0  0  0  0  0
  -41.8710  -68.5750   55.1860 N   0  0  0  0  0  0  0  0  0  0  0  0
  -40.9530  -69.5840   55.2440 C   0  0  0  0  0  0  0  0  0  0  0  0
  -40.0910  -69.7950   54.2440 N   0  0  0  0  0  0  0  0  0  0  0  0
  -40.1010  -69.0240   53.1550 C   0  0  0  0  0  0  0  0  0  0  0  0
  -39.3520  -69.0300   52.0340 N   0  0  0  0  0  0  0  0  0  0  0  0
  -39.7940  -68.0410   51.2880 N   0  0  0  0  0  0  0  0  0  0  0  0
  -40.8010  -67.4060   51.8990 N   0  0  0  0  0  0  0  0  0  0  0  0
  -41.0290  -68.0040   53.0990 C   0  0  0  0  0  0  0  0  0  0  0  0
  -38.2620  -69.9360   51.6830 C   0  0  0  0  0  0  0  0  0  0  0  0
  -44.9170  -64.4540   51.1200 H   0  0  0  0  0  0  0  0  0  0  0  0
  -49.0100  -65.4440   51.8200 H   0  0  0  0  0  0  0  0  0  0  0  0
  -49.6610  -63.4240   50.6520 H   0  0  0  0  0  0  0  0  0  0  0  0
  -47.9780  -61.8830   49.6980 H   0  0  0  0  0  0  0  0  0  0  0  0
  -46.5610  -67.2210   51.7100 H   0  0  0  0  0  0  0  0  0  0  0  0
  -44.7770  -64.3820   53.6480 H   0  0  0  0  0  0  0  0  0  0  0  0
  -43.6270  -66.5790   52.0690 H   0  0  0  0  0  0  0  0  0  0  0  0
  -42.6910  -65.1000   52.6650 H   0  0  0  0  0  0  0  0  0  0  0  0
  -44.3230  -66.5200   55.6270 H   0  0  0  0  0  0  0  0  0  0  0  0
  -43.1690  -65.1240   55.3830 H   0  0  0  0  0  0  0  0  0  0  0  0
  -40.9580  -70.1980   56.1310 H   0  0  0  0  0  0  0  0  0  0  0  0
  -38.1780  -70.0660   50.5920 H   0  0  0  0  0  0  0  0  0  0  0  0
  -38.4630  -70.9700   52.0920 H   0  0  0  0  0  0  0  0  0  0  0  0
  -37.3060  -69.6250   52.1080 H   0  0  0  0  0  0  0  0  0  0  0  0
  1  2  1  0  0  0  0
  2  3  1  0  0  0  0
  3 25  1  0  0  0  0
  3  4  2  0  0  0  0
  4  8  1  0  0  0  0
  5  4  1  0  0  0  0
  5 26  1  0  0  0  0
  6  5  2  0  0  0  0
  7  2  2  0  0  0  0
  7  6  1  0  0  0  0
  8  9  1  0  0  0  0
  9 11  1  0  0  0  0
  9 10  2  0  0  0  0
 11 30  1  6  0  0  0
 11 14  1  0  0  0  0
 12 11  1  0  0  0  0
 13 12  1  1  0  0  0
 13 15  1  0  0  0  0
 13 14  1  0  0  0  0
 14 34  1  0  0  0  0
 14 33  1  0  0  0  0
 15 23  1  6  0  0  0
 15 16  1  0  0  0  0
 16 17  2  0  0  0  0
 17 35  1  0  0  0  0
 18 17  1  0  0  0  0
 19 18  1  0  0  0  0
 20 19  1  0  0  0  0
 21 22  2  0  0  0  0
 21 20  1  0  0  0  0
 22 23  1  0  0  0  0
 23 19  2  0  0  0  0
 24 20  1  0  0  0  0
 24 37  1  0  0  0  0
 24 38  1  0  0  0  0
 27  6  1  0  0  0  0
 28  7  1  0  0  0  0
 29  8  1  0  0  0  0
 31 12  1  0  0  0  0
 32 12  1  0  0  0  0
 36 24  1  0  0  0  0
M  END
>  <Pose>
1

>  <Score>
-6.68

$$$$
