
 OpenBabel03202209423D

 48 52  0  0  1  0  0  0  0  0999 V2000
  -37.8730  -69.9780   52.3320 Cl  0  0  0  0  0  0  0  0  0  0  0  0
  -39.3060  -68.9510   52.4560 C   0  0  0  0  0  0  0  0  0  0  0  0
  -40.1470  -69.0860   53.5380 C   0  0  0  0  0  0  0  0  0  0  0  0
  -41.2690  -68.3040   53.6640 C   0  0  0  0  0  0  0  0  0  0  0  0
  -41.5900  -67.3570   52.7130 C   0  0  0  0  0  0  0  0  0  0  0  0
  -40.7370  -67.2360   51.6370 C   0  0  0  0  0  0  0  0  0  0  0  0
  -39.6100  -68.0120   51.4970 C   0  0  0  0  0  0  0  0  0  0  0  0
  -42.7630  -66.5780   52.8980 N   0  0  0  0  0  0  0  0  0  0  0  0
  -43.6420  -66.7070   54.0110 C   0  0  0  0  0  0  0  0  0  0  0  0
  -44.7190  -65.9700   54.1530 C   0  0  0  0  0  0  0  0  0  0  0  0
  -45.1500  -64.9690   53.2420 N   0  0  0  0  0  0  0  0  0  0  0  0
  -44.2090  -63.9340   52.8810 C   0  0  0  0  0  0  0  0  0  0  0  0
  -44.1530  -63.8540   51.3770 C   0  0  0  0  0  0  0  0  0  0  0  0
  -45.4600  -63.8880   50.7520 N   0  0  2  0  0  0  0  0  0  0  0  0
  -46.4010  -64.9120   51.1580 C   0  0  0  0  0  0  0  0  0  0  0  0
  -46.4730  -64.9230   52.6630 C   0  0  0  0  0  0  0  0  0  0  0  0
  -45.7990  -62.9230   49.7540 C   0  0  2  0  0  0  0  0  0  0  0  0
  -46.5440  -63.3110   48.7010 N   0  0  0  0  0  0  0  0  0  0  0  0
  -46.8900  -62.4240   47.7260 C   0  0  0  0  0  0  0  0  0  0  0  0
  -46.4920  -61.1340   47.7950 N   0  0  0  0  0  0  0  0  0  0  0  0
  -45.7510  -60.6890   48.8160 C   0  0  0  0  0  0  0  0  0  0  0  0
  -45.2310  -59.4880   49.1260 N   0  0  0  0  0  0  0  0  0  0  0  0
  -44.5780  -59.6240   50.2670 N   0  0  0  0  0  0  0  0  0  0  0  0
  -44.6670  -60.9110   50.7060 C   0  0  0  0  0  0  0  0  0  0  0  0
  -45.4060  -61.6110   49.8050 C   0  0  0  0  0  0  0  0  0  0  0  0
  -45.3480  -58.2410   48.3640 C   0  0  0  0  0  0  0  0  0  0  0  0
  -43.3190  -67.6780   54.9950 N   0  0  0  0  0  0  0  0  0  0  0  0
  -42.1600  -68.4610   54.8310 C   0  0  0  0  0  0  0  0  0  0  0  0
  -41.8080  -69.3510   55.6720 O   0  0  0  0  0  0  0  0  0  0  0  0
  -39.9010  -69.8320   54.2960 H   0  0  0  0  0  0  0  0  0  0  0  0
  -40.9680  -66.5030   50.8810 H   0  0  0  0  0  0  0  0  0  0  0  0
  -38.9440  -67.9180   50.6580 H   0  0  0  0  0  0  0  0  0  0  0  0
  -43.0130  -65.8610   52.1850 H   0  0  0  0  0  0  0  0  0  0  0  0
  -45.3480  -66.1200   55.0280 H   0  0  0  0  0  0  0  0  0  0  0  0
  -44.5180  -62.9340   53.2480 H   0  0  0  0  0  0  0  0  0  0  0  0
  -43.1840  -64.1710   53.2320 H   0  0  0  0  0  0  0  0  0  0  0  0
  -43.6840  -62.8480   51.1550 H   0  0  0  0  0  0  0  0  0  0  0  0
  -43.4390  -64.5780   50.9240 H   0  0  0  0  0  0  0  0  0  0  0  0
  -47.4150  -64.6060   50.7640 H   0  0  0  0  0  0  0  0  0  0  0  0
  -46.1340  -65.9220   50.8010 H   0  0  0  0  0  0  0  0  0  0  0  0
  -47.1330  -65.7200   53.0520 H   0  0  0  0  0  0  0  0  0  0  0  0
  -46.9180  -63.9280   52.9570 H   0  0  0  0  0  0  0  0  0  0  0  0
  -47.4920  -62.7830   46.8950 H   0  0  0  0  0  0  0  0  0  0  0  0
  -44.2360  -61.3260   51.6050 H   0  0  0  0  0  0  0  0  0  0  0  0
  -45.4280  -57.3680   49.0490 H   0  0  0  0  0  0  0  0  0  0  0  0
  -46.3040  -58.2540   47.7820 H   0  0  0  0  0  0  0  0  0  0  0  0
  -44.4620  -58.0840   47.7230 H   0  0  0  0  0  0  0  0  0  0  0  0
  -43.9140  -67.8310   55.8400 H   0  0  0  0  0  0  0  0  0  0  0  0
  1  2  1  0  0  0  0
  2  3  1  0  0  0  0
  3  4  2  0  0  0  0
  3 30  1  0  0  0  0
  4 28  1  0  0  0  0
  5  8  1  0  0  0  0
  5  4  1  0  0  0  0
  6  5  2  0  0  0  0
  7  6  1  0  0  0  0
  7  2  2  0  0  0  0
  8  9  1  0  0  0  0
  9 10  2  0  0  0  0
  9 27  1  0  0  0  0
 10 34  1  0  0  0  0
 11 10  1  0  0  0  0
 12 36  1  0  0  0  0
 12 11  1  0  0  0  0
 12 35  1  0  0  0  0
 13 12  1  0  0  0  0
 14 15  1  6  0  0  0
 14 13  1  0  0  0  0
 15 16  1  0  0  0  0
 16 42  1  0  0  0  0
 16 41  1  0  0  0  0
 16 11  1  0  0  0  0
 17 18  1  6  0  0  0
 17 25  1  0  0  0  0
 17 14  1  0  0  0  0
 19 20  1  0  0  0  0
 19 18  2  0  0  0  0
 20 21  1  0  0  0  0
 21 22  1  0  0  0  0
 21 25  2  0  0  0  0
 22 23  1  0  0  0  0
 23 24  2  0  0  0  0
 24 44  1  0  0  0  0
 25 24  1  0  0  0  0
 26 45  1  0  0  0  0
 26 22  1  0  0  0  0
 27 48  1  0  0  0  0
 28 27  1  0  0  0  0
 28 29  2  0  0  0  0
 31  6  1  0  0  0  0
 32  7  1  0  0  0  0
 33  8  1  0  0  0  0
 37 13  1  0  0  0  0
 38 13  1  0  0  0  0
 39 15  1  0  0  0  0
 40 15  1  0  0  0  0
 43 19  1  0  0  0  0
 46 26  1  0  0  0  0
 47 26  1  0  0  0  0
M  END
>  <Pose>
1

>  <Score>
-6.70

$$$$
