
 OpenBabel03202209423D

 49 52  0  0  0  0  0  0  0  0999 V2000
  -41.0890  -69.7900   54.8800 Cl  0  0  0  0  0  0  0  0  0  0  0  0
  -40.1270  -69.3240   53.4740 C   0  0  0  0  0  0  0  0  0  0  0  0
  -40.5130  -68.3710   52.5700 C   0  0  0  0  0  0  0  0  0  0  0  0
  -39.7120  -68.0200   51.5400 C   0  0  0  0  0  0  0  0  0  0  0  0
  -38.4890  -68.6050   51.3660 C   0  0  0  0  0  0  0  0  0  0  0  0
  -38.0870  -69.5930   52.2960 C   0  0  0  0  0  0  0  0  0  0  0  0
  -38.8880  -69.9610   53.3400 C   0  0  0  0  0  0  0  0  0  0  0  0
  -38.4680  -70.9690   54.2370 O   0  0  0  0  0  0  0  0  0  0  0  0
  -37.6790  -68.2750   50.4000 O   0  0  0  0  0  0  0  0  0  0  0  0
  -38.0280  -67.3320   49.5320 C   0  0  0  0  0  0  0  0  0  0  0  0
  -37.2430  -67.0340   48.6230 O   0  0  0  0  0  0  0  0  0  0  0  0
  -39.2720  -66.6780   49.6420 C   0  0  0  0  0  0  0  0  0  0  0  0
  -40.1360  -67.0000   50.6310 C   0  0  0  0  0  0  0  0  0  0  0  0
  -41.5110  -66.5420   50.8890 C   0  0  0  0  0  0  0  0  0  0  0  0
  -41.8440  -65.7450   51.9870 N   0  0  0  0  0  4  0  0  0  0  0  0
  -42.5850  -66.1500   53.0810 C   0  0  0  0  0  0  0  0  0  0  0  0
  -43.5780  -65.0190   53.5200 C   0  0  0  0  0  0  0  0  0  0  0  0
  -44.5560  -65.1250   52.3340 N   0  0  0  0  0  0  0  0  0  0  0  0
  -43.9790  -64.6970   51.1550 C   0  0  0  0  0  0  0  0  0  0  0  0
  -42.4750  -64.5040   51.4500 C   0  0  0  0  0  0  0  0  0  0  0  0
  -45.7920  -65.7000   52.7040 C   0  0  0  0  0  0  0  0  0  0  0  0
  -46.9560  -65.6130   52.0240 C   0  0  0  0  0  0  0  0  0  0  0  0
  -48.0770  -66.4310   52.3480 C   0  0  0  0  0  0  0  0  0  0  0  0
  -48.0270  -67.3450   53.3650 C   0  0  0  0  0  0  0  0  0  0  0  0
  -46.8350  -67.4370   54.0770 C   0  0  0  0  0  0  0  0  0  0  0  0
  -45.7500  -66.6340   53.7570 C   0  0  0  0  0  0  0  0  0  0  0  0
  -49.1470  -68.1190   53.6440 O   0  0  0  0  0  0  0  0  0  0  0  0
  -49.4280  -68.5540   54.9830 C   0  0  0  0  0  0  0  0  0  0  0  0
  -41.4580  -67.9280   52.7310 H   0  0  0  0  0  0  0  0  0  0  0  0
  -37.1220  -70.0700   52.1710 H   0  0  0  0  0  0  0  0  0  0  0  0
  -39.5140  -65.9630   48.8770 H   0  0  0  0  0  0  0  0  0  0  0  0
  -42.3340  -67.0220   50.3490 H   0  0  0  0  0  0  0  0  0  0  0  0
  -41.4670  -65.5970   50.0690 H   0  0  0  0  0  0  0  0  0  0  0  0
  -40.9160  -65.3580   52.3570 H   0  0  0  0  0  0  0  0  0  0  0  0
  -43.3170  -66.9980   52.9460 H   0  0  0  0  0  0  0  0  0  0  0  0
  -42.0520  -66.4170   54.0250 H   0  0  0  0  0  0  0  0  0  0  0  0
  -43.2460  -64.0610   53.5910 H   0  0  0  0  0  0  0  0  0  0  0  0
  -44.0700  -65.4640   54.3880 H   0  0  0  0  0  0  0  0  0  0  0  0
  -44.0950  -65.4890   50.3680 H   0  0  0  0  0  0  0  0  0  0  0  0
  -44.3280  -63.7400   50.6890 H   0  0  0  0  0  0  0  0  0  0  0  0
  -42.3460  -63.7240   52.1640 H   0  0  0  0  0  0  0  0  0  0  0  0
  -41.9190  -64.1920   50.5400 H   0  0  0  0  0  0  0  0  0  0  0  0
  -47.0190  -64.8780   51.2130 H   0  0  0  0  0  0  0  0  0  0  0  0
  -48.9590  -66.3130   51.7590 H   0  0  0  0  0  0  0  0  0  0  0  0
  -46.7490  -68.1510   54.8900 H   0  0  0  0  0  0  0  0  0  0  0  0
  -44.8720  -66.7080   54.3480 H   0  0  0  0  0  0  0  0  0  0  0  0
  -49.2430  -69.6850   55.0260 H   0  0  0  0  0  0  0  0  0  0  0  0
  -50.4130  -68.2830   55.3510 H   0  0  0  0  0  0  0  0  0  0  0  0
  -48.6930  -68.1780   55.7250 H   0  0  0  0  0  0  0  0  0  0  0  0
  2  1  1  0  0  0  0
  3 29  1  0  0  0  0
  3  2  2  0  0  0  0
  4  3  1  0  0  0  0
  5  4  2  0  0  0  0
  5  6  1  0  0  0  0
  6  7  2  0  0  0  0
  7  2  1  0  0  0  0
  7  8  1  0  0  0  0
  9  5  1  0  0  0  0
 10 12  1  0  0  0  0
 10  9  1  0  0  0  0
 11 10  2  0  0  0  0
 12 13  2  0  0  0  0
 13 14  1  0  0  0  0
 13  4  1  0  0  0  0
 14 15  1  0  0  0  0
 15 34  1  0  0  0  0
 15 16  1  0  0  0  0
 16 17  1  0  0  0  0
 16 36  1  0  0  0  0
 17 37  1  0  0  0  0
 17 38  1  0  0  0  0
 18 21  1  0  0  0  0
 18 17  1  0  0  0  0
 19 20  1  0  0  0  0
 19 18  1  0  0  0  0
 20 15  1  0  0  0  0
 20 41  1  0  0  0  0
 21 26  1  0  0  0  0
 22 23  1  0  0  0  0
 22 21  2  0  0  0  0
 23 24  2  0  0  0  0
 24 27  1  0  0  0  0
 24 25  1  0  0  0  0
 25 45  1  0  0  0  0
 26 25  2  0  0  0  0
 26 46  1  0  0  0  0
 27 28  1  0  0  0  0
 28 47  1  0  0  0  0
 28 48  1  0  0  0  0
 28 49  1  0  0  0  0
 30  6  1  0  0  0  0
 31 12  1  0  0  0  0
 32 14  1  0  0  0  0
 33 14  1  0  0  0  0
 35 16  1  0  0  0  0
 39 19  1  0  0  0  0
 40 19  1  0  0  0  0
 42 20  1  0  0  0  0
 43 22  1  0  0  0  0
 44 23  1  0  0  0  0
M  END
>  <Pose>
1

>  <Score>
-6.12

$$$$
