
 OpenBabel03202209423D

 54 57  0  0  1  0  0  0  0  0999 V2000
  -47.9760  -67.7750   53.4590 S   0  0  0  0  0  0  0  0  0  0  0  0
  -48.7020  -68.9530   52.7940 O   0  0  0  0  0  0  0  0  0  0  0  0
  -47.3210  -68.3890   54.6720 O   0  0  0  0  0  0  0  0  0  0  0  0
  -46.8780  -67.1660   52.3380 N   0  0  0  0  0  0  0  0  0  0  0  0
  -45.4970  -67.5890   52.6450 C   0  0  0  0  0  0  0  0  0  0  0  0
  -45.1140  -66.9440   53.9250 C   0  0  2  0  0  0  0  0  0  0  0  0
  -45.3550  -65.6300   54.0890 O   0  0  0  0  0  0  0  0  0  0  0  0
  -46.2140  -64.9930   53.2790 C   0  0  0  0  0  0  0  0  0  0  0  0
  -46.7880  -65.7660   52.1420 C   0  0  0  0  0  0  0  0  0  0  0  0
  -43.6570  -67.2000   54.1250 C   0  0  0  0  0  0  0  0  0  0  0  0
  -43.3390  -68.0720   54.9770 O   0  0  0  0  0  0  0  0  0  0  0  0
  -42.6230  -66.5420   53.4340 N   0  0  0  0  0  0  0  0  0  0  0  0
  -42.6770  -65.1550   53.0120 C   0  0  0  0  0  0  0  0  0  0  0  0
  -41.3240  -64.8140   52.4180 C   0  0  0  0  0  0  0  0  0  0  0  0
  -41.0010  -65.6270   51.2600 N   0  0  0  0  0  0  0  0  0  0  0  0
  -41.2220  -67.0040   51.5680 C   0  0  0  0  0  0  0  0  0  0  0  0
  -41.3740  -67.2320   53.0780 C   0  0  0  0  0  0  0  0  0  0  0  0
  -41.7330  -65.1260   50.1420 C   0  0  0  0  0  0  0  0  0  0  0  0
  -41.0360  -64.0160   49.4050 C   0  0  0  0  0  0  0  0  0  0  0  0
  -41.8290  -63.5010   48.2050 C   0  0  0  0  0  0  0  0  0  0  0  0
  -40.5040  -64.1790   48.0500 C   0  0  0  0  0  0  0  0  0  0  0  0
  -49.2220  -66.6530   53.9040 C   0  0  0  0  0  0  0  0  0  0  0  0
  -49.9280  -65.9380   52.9610 C   0  0  0  0  0  0  0  0  0  0  0  0
  -50.8810  -65.0000   53.3090 C   0  0  0  0  0  0  0  0  0  0  0  0
  -51.1470  -64.7650   54.6340 C   0  0  0  0  0  0  0  0  0  0  0  0
  -50.4480  -65.4770   55.5980 C   0  0  0  0  0  0  0  0  0  0  0  0
  -49.5050  -66.4020   55.2480 C   0  0  0  0  0  0  0  0  0  0  0  0
  -49.7020  -66.2550   51.2300 Cl  0  0  0  0  0  0  0  0  0  0  0  0
  -44.8660  -67.2150   51.8390 H   0  0  0  0  0  0  0  0  0  0  0  0
  -45.4100  -68.6710   52.7360 H   0  0  0  0  0  0  0  0  0  0  0  0
  -45.6080  -67.4760   54.7990 H   0  0  0  0  0  0  0  0  0  0  0  0
  -45.6810  -64.0930   52.8450 H   0  0  0  0  0  0  0  0  0  0  0  0
  -47.0390  -64.5570   53.8690 H   0  0  0  0  0  0  0  0  0  0  0  0
  -47.7110  -65.3560   51.7400 H   0  0  0  0  0  0  0  0  0  0  0  0
  -46.0540  -65.6470   51.2630 H   0  0  0  0  0  0  0  0  0  0  0  0
  -43.4990  -64.9940   52.3110 H   0  0  0  0  0  0  0  0  0  0  0  0
  -42.7950  -64.4810   53.8850 H   0  0  0  0  0  0  0  0  0  0  0  0
  -41.3600  -63.7310   52.1030 H   0  0  0  0  0  0  0  0  0  0  0  0
  -40.5820  -64.8690   53.2170 H   0  0  0  0  0  0  0  0  0  0  0  0
  -40.3530  -67.5970   51.2600 H   0  0  0  0  0  0  0  0  0  0  0  0
  -42.1740  -67.3560   51.1200 H   0  0  0  0  0  0  0  0  0  0  0  0
  -41.5700  -68.3160   53.1970 H   0  0  0  0  0  0  0  0  0  0  0  0
  -40.5180  -66.8630   53.6420 H   0  0  0  0  0  0  0  0  0  0  0  0
  -42.0280  -65.9600   49.4820 H   0  0  0  0  0  0  0  0  0  0  0  0
  -42.6910  -64.7020   50.5400 H   0  0  0  0  0  0  0  0  0  0  0  0
  -40.5990  -63.2190   50.0400 H   0  0  0  0  0  0  0  0  0  0  0  0
  -42.7410  -64.0410   47.8980 H   0  0  0  0  0  0  0  0  0  0  0  0
  -41.8890  -62.4110   48.0410 H   0  0  0  0  0  0  0  0  0  0  0  0
  -39.6810  -63.5220   47.7260 H   0  0  0  0  0  0  0  0  0  0  0  0
  -40.5450  -65.1360   47.4950 H   0  0  0  0  0  0  0  0  0  0  0  0
  -51.4360  -64.4360   52.5690 H   0  0  0  0  0  0  0  0  0  0  0  0
  -51.8920  -64.0310   54.8940 H   0  0  0  0  0  0  0  0  0  0  0  0
  -50.6910  -65.2590   56.6260 H   0  0  0  0  0  0  0  0  0  0  0  0
  -48.9500  -66.9670   55.9890 H   0  0  0  0  0  0  0  0  0  0  0  0
  1 22  1  0  0  0  0
  1  3  2  0  0  0  0
  2  1  2  0  0  0  0
  4  5  1  0  0  0  0
  4  1  1  0  0  0  0
  5 30  1  0  0  0  0
  5  6  1  0  0  0  0
  6  7  1  0  0  0  0
  6 10  1  0  0  0  0
  6 31  1  1  0  0  0
  8 33  1  0  0  0  0
  8  7  1  0  0  0  0
  9  4  1  0  0  0  0
  9  8  1  0  0  0  0
 10 11  2  0  0  0  0
 12 10  1  0  0  0  0
 13 12  1  0  0  0  0
 13 37  1  0  0  0  0
 14 13  1  0  0  0  0
 14 39  1  0  0  0  0
 15 16  1  0  0  0  0
 15 14  1  0  0  0  0
 16 17  1  0  0  0  0
 17 42  1  0  0  0  0
 17 12  1  0  0  0  0
 17 43  1  0  0  0  0
 18 45  1  0  0  0  0
 18 15  1  0  0  0  0
 19 46  1  0  0  0  0
 19 18  1  0  0  0  0
 20 19  1  0  0  0  0
 21 20  1  0  0  0  0
 21 19  1  0  0  0  0
 22 27  1  0  0  0  0
 23 24  1  0  0  0  0
 23 22  2  0  0  0  0
 24 25  2  0  0  0  0
 25 52  1  0  0  0  0
 25 26  1  0  0  0  0
 26 53  1  0  0  0  0
 27 26  2  0  0  0  0
 27 54  1  0  0  0  0
 28 23  1  0  0  0  0
 29  5  1  0  0  0  0
 32  8  1  0  0  0  0
 34  9  1  0  0  0  0
 35  9  1  0  0  0  0
 36 13  1  0  0  0  0
 38 14  1  0  0  0  0
 40 16  1  0  0  0  0
 41 16  1  0  0  0  0
 44 18  1  0  0  0  0
 47 20  1  0  0  0  0
 48 20  1  0  0  0  0
 49 21  1  0  0  0  0
 50 21  1  0  0  0  0
 51 24  1  0  0  0  0
M  END
>  <Pose>
1

>  <Score>
-4.64

$$$$
