
 OpenBabel03202209423D

 56 59  0  0  0  0  0  0  0  0999 V2000
  -37.9040  -69.7830   51.6120 B   0  0  0  0  0  0  0  0  0  0  0  0
  -39.3540  -69.2320   52.7180 C   0  0  0  0  0  0  0  0  0  0  0  0
  -39.9900  -68.0030   52.4700 C   0  0  0  0  0  0  0  0  0  0  0  0
  -41.0140  -67.6320   53.2660 C   0  0  0  0  0  0  0  0  0  0  0  0
  -41.4510  -68.4240   54.3040 C   0  0  0  0  0  0  0  0  0  0  0  0
  -40.8040  -69.6480   54.5310 C   0  0  0  0  0  0  0  0  0  0  0  0
  -39.7490  -70.0580   53.7400 C   0  0  0  0  0  0  0  0  0  0  0  0
  -42.5120  -68.0110   55.0970 O   0  0  0  0  0  0  0  0  0  0  0  0
  -43.8090  -67.7710   54.6770 C   0  0  0  0  0  0  0  0  0  0  0  0
  -41.7550  -66.3950   52.9610 C   0  0  0  0  0  0  0  0  0  0  0  0
  -41.4490  -65.8270   51.7870 C   0  0  0  0  0  0  0  0  0  0  0  0
  -40.5020  -66.3300   50.9030 O   0  0  0  0  0  0  0  0  0  0  0  0
  -40.4640  -65.5060   49.7690 C   0  0  0  0  0  0  0  0  0  0  0  0
  -41.3390  -64.4670   49.8530 C   0  0  0  0  0  0  0  0  0  0  0  0
  -41.4800  -63.5500   48.8370 C   0  0  0  0  0  0  0  0  0  0  0  0
  -40.7130  -63.6720   47.6840 C   0  0  0  0  0  0  0  0  0  0  0  0
  -39.8150  -64.7390   47.6060 C   0  0  0  0  0  0  0  0  0  0  0  0
  -39.6780  -65.6400   48.6120 C   0  0  0  0  0  0  0  0  0  0  0  0
  -38.6220  -66.6720   48.6800 C   0  0  0  0  0  0  0  0  0  0  0  0
  -37.3330  -66.1600   48.6630 N   0  0  0  0  0  4  0  0  0  0  0  0
  -36.5900  -66.5470   47.4220 C   0  0  0  0  0  0  0  0  0  0  0  0
  -35.9830  -65.2130   46.9190 C   0  0  0  0  0  0  0  0  0  0  0  0
  -36.0380  -64.2440   47.9680 N   0  0  0  0  0  0  0  0  0  0  0  0
  -35.5800  -64.6820   49.2280 C   0  0  0  0  0  0  0  0  0  0  0  0
  -36.4040  -65.9680   49.6740 C   0  0  0  0  0  0  0  0  0  0  0  0
  -36.5340  -62.9880   47.6990 C   0  0  0  0  0  0  0  0  0  0  0  0
  -35.6350  -61.7930   47.7350 C   0  0  0  0  0  0  0  0  0  0  0  0
  -35.2730  -61.4750   49.0540 O   0  0  0  0  0  0  0  0  0  0  0  0
  -39.0840  -64.7910   46.4200 O   0  0  0  0  0  0  0  0  0  0  0  0
  -42.0080  -64.6400   51.1760 C   0  0  0  0  0  0  0  0  0  0  0  0
  -42.8750  -63.9040   51.6660 O   0  0  0  0  0  0  0  0  0  0  0  0
  -39.6060  -67.4410   51.6340 H   0  0  0  0  0  0  0  0  0  0  0  0
  -41.1120  -70.2980   55.3360 H   0  0  0  0  0  0  0  0  0  0  0  0
  -39.2640  -71.0270   53.9620 H   0  0  0  0  0  0  0  0  0  0  0  0
  -44.3230  -68.6060   54.2010 H   0  0  0  0  0  0  0  0  0  0  0  0
  -44.4180  -67.4820   55.5740 H   0  0  0  0  0  0  0  0  0  0  0  0
  -43.8490  -66.8880   53.9700 H   0  0  0  0  0  0  0  0  0  0  0  0
  -42.4670  -65.9630   53.6170 H   0  0  0  0  0  0  0  0  0  0  0  0
  -42.1950  -62.7350   48.9520 H   0  0  0  0  0  0  0  0  0  0  0  0
  -40.8350  -62.9380   46.9000 H   0  0  0  0  0  0  0  0  0  0  0  0
  -38.8220  -67.2830   49.6320 H   0  0  0  0  0  0  0  0  0  0  0  0
  -38.8290  -67.4370   47.8850 H   0  0  0  0  0  0  0  0  0  0  0  0
  -37.6010  -65.0960   48.3300 H   0  0  0  0  0  0  0  0  0  0  0  0
  -37.2950  -66.9640   46.6890 H   0  0  0  0  0  0  0  0  0  0  0  0
  -35.7870  -67.2360   47.7240 H   0  0  0  0  0  0  0  0  0  0  0  0
  -34.9520  -65.4200   46.5990 H   0  0  0  0  0  0  0  0  0  0  0  0
  -36.5870  -64.9030   46.0730 H   0  0  0  0  0  0  0  0  0  0  0  0
  -34.5550  -65.0630   49.1080 H   0  0  0  0  0  0  0  0  0  0  0  0
  -35.6090  -63.9320   49.9900 H   0  0  0  0  0  0  0  0  0  0  0  0
  -35.6870  -66.8480   49.6770 H   0  0  0  0  0  0  0  0  0  0  0  0
  -36.7040  -65.7920   50.7000 H   0  0  0  0  0  0  0  0  0  0  0  0
  -36.9960  -62.9630   46.6360 H   0  0  0  0  0  0  0  0  0  0  0  0
  -37.4430  -62.7600   48.3340 H   0  0  0  0  0  0  0  0  0  0  0  0
  -35.9930  -60.8960   47.2370 H   0  0  0  0  0  0  0  0  0  0  0  0
  -34.6670  -62.0670   47.2130 H   0  0  0  0  0  0  0  0  0  0  0  0
  -36.0820  -61.0940   49.5300 H   0  0  0  0  0  0  0  0  0  0  0  0
  1  2  1  0  0  0  0
  2  7  1  0  0  0  0
  3  2  2  0  0  0  0
  3  4  1  0  0  0  0
  4  5  2  0  0  0  0
  5  6  1  0  0  0  0
  5  8  1  0  0  0  0
  6 33  1  0  0  0  0
  7 34  1  0  0  0  0
  7  6  2  0  0  0  0
  9  8  1  0  0  0  0
  9 36  1  0  0  0  0
 10  4  1  0  0  0  0
 10 38  1  0  0  0  0
 11 10  2  0  0  0  0
 12 11  1  0  0  0  0
 13 14  1  0  0  0  0
 13 12  1  0  0  0  0
 14 30  1  0  0  0  0
 15 39  1  0  0  0  0
 15 14  2  0  0  0  0
 16 15  1  0  0  0  0
 17 16  2  0  0  0  0
 17 18  1  0  0  0  0
 18 19  1  0  0  0  0
 18 13  2  0  0  0  0
 19 41  1  0  0  0  0
 20 19  1  0  0  0  0
 20 25  1  0  0  0  0
 21 45  1  0  0  0  0
 21 20  1  0  0  0  0
 22 21  1  0  0  0  0
 22 23  1  0  0  0  0
 23 24  1  0  0  0  0
 24 25  1  0  0  0  0
 24 49  1  0  0  0  0
 25 50  1  0  0  0  0
 25 51  1  0  0  0  0
 26 27  1  0  0  0  0
 26 23  1  0  0  0  0
 26 53  1  0  0  0  0
 27 28  1  0  0  0  0
 28 56  1  0  0  0  0
 29 17  1  0  0  0  0
 30 31  2  0  0  0  0
 30 11  1  0  0  0  0
 32  3  1  0  0  0  0
 35  9  1  0  0  0  0
 37  9  1  0  0  0  0
 40 16  1  0  0  0  0
 42 19  1  0  0  0  0
 43 20  1  0  0  0  0
 44 21  1  0  0  0  0
 46 22  1  0  0  0  0
 47 22  1  0  0  0  0
 48 24  1  0  0  0  0
 52 26  1  0  0  0  0
 54 27  1  0  0  0  0
 55 27  1  0  0  0  0
M  END
>  <Pose>
1

>  <Score>
-6.39

$$$$
