
 OpenBabel03202209423D

 46 49  0  0  1  0  0  0  0  0999 V2000
  -38.5270  -67.0800   49.7280 Cl  0  0  0  0  0  0  0  0  0  0  0  0
  -39.8420  -65.9450   49.9380 C   0  0  0  0  0  0  0  0  0  0  0  0
  -40.7030  -66.1260   51.0310 C   0  0  0  0  0  0  0  0  0  0  0  0
  -41.7430  -65.2540   51.2220 C   0  0  0  0  0  0  0  0  0  0  0  0
  -41.8840  -64.2150   50.2960 C   0  0  0  0  0  0  0  0  0  0  0  0
  -41.0330  -64.0480   49.2270 C   0  0  0  0  0  0  0  0  0  0  0  0
  -39.9820  -64.9250   49.0300 C   0  0  0  0  0  0  0  0  0  0  0  0
  -41.2320  -62.7320   48.0760 Cl  0  0  0  0  0  0  0  0  0  0  0  0
  -42.6930  -65.3670   52.3390 C   0  0  2  0  0  0  0  0  0  0  0  0
  -42.3700  -66.5210   53.1950 C   0  0  0  0  0  0  0  0  0  0  0  0
  -41.3330  -67.3750   52.9870 C   0  0  0  0  0  0  0  0  0  0  0  0
  -41.0770  -68.4310   53.8130 N   0  0  0  0  0  0  0  0  0  0  0  0
  -41.8880  -68.6110   54.8520 C   0  0  0  0  0  0  0  0  0  0  0  0
  -41.6900  -69.5820   55.6490 O   0  0  0  0  0  0  0  0  0  0  0  0
  -42.9290  -67.7880   55.0960 N   0  0  0  0  0  0  0  0  0  0  0  0
  -43.1880  -66.7500   54.2940 C   0  0  0  0  0  0  0  0  0  0  0  0
  -44.1580  -65.9820   54.5210 O   0  0  0  0  0  0  0  0  0  0  0  0
  -43.7790  -68.0370   56.2520 C   0  0  0  0  0  0  0  0  0  0  0  0
  -39.9640  -69.3220   53.5620 C   0  0  0  0  0  0  0  0  0  0  0  0
  -40.5100  -67.1730   51.9130 O   0  0  0  0  0  0  0  0  0  0  0  0
  -44.1100  -65.4260   51.8480 C   0  0  0  0  0  0  0  0  0  0  0  0
  -44.5840  -66.4920   51.1220 C   0  0  0  0  0  0  0  0  0  0  0  0
  -45.8420  -66.5680   50.6610 N   0  0  0  0  0  0  0  0  0  0  0  0
  -46.6780  -65.5450   50.9240 C   0  0  0  0  0  0  0  0  0  0  0  0
  -47.8610  -65.6270   50.4830 O   0  0  0  0  0  0  0  0  0  0  0  0
  -46.2560  -64.4820   51.6300 N   0  0  0  0  0  0  0  0  0  0  0  0
  -45.0040  -64.3870   52.1010 C   0  0  0  0  0  0  0  0  0  0  0  0
  -44.5820  -63.4090   52.7620 O   0  0  0  0  0  0  0  0  0  0  0  0
  -47.1900  -63.4090   51.8850 C   0  0  0  0  0  0  0  0  0  0  0  0
  -46.3140  -67.7100   49.9000 C   0  0  0  0  0  0  0  0  0  0  0  0
  -43.7270  -67.5390   50.8530 O   0  0  0  0  0  0  0  0  0  0  0  0
  -42.7050  -63.5210   50.4430 H   0  0  0  0  0  0  0  0  0  0  0  0
  -39.2980  -64.8220   48.2040 H   0  0  0  0  0  0  0  0  0  0  0  0
  -42.6380  -64.4550   53.0000 H   0  0  0  0  0  0  0  0  0  0  0  0
  -43.4560  -68.9850   56.7590 H   0  0  0  0  0  0  0  0  0  0  0  0
  -44.8490  -68.0860   55.9990 H   0  0  0  0  0  0  0  0  0  0  0  0
  -43.6680  -67.2520   57.0330 H   0  0  0  0  0  0  0  0  0  0  0  0
  -39.4910  -69.0970   52.5730 H   0  0  0  0  0  0  0  0  0  0  0  0
  -40.2830  -70.3830   53.5030 H   0  0  0  0  0  0  0  0  0  0  0  0
  -39.1980  -69.1540   54.3410 H   0  0  0  0  0  0  0  0  0  0  0  0
  -47.0290  -63.0000   52.8920 H   0  0  0  0  0  0  0  0  0  0  0  0
  -48.2440  -63.7500   51.8190 H   0  0  0  0  0  0  0  0  0  0  0  0
  -47.1050  -62.6060   51.0950 H   0  0  0  0  0  0  0  0  0  0  0  0
  -47.1560  -68.1590   50.5060 H   0  0  0  0  0  0  0  0  0  0  0  0
  -46.7880  -67.4140   48.9370 H   0  0  0  0  0  0  0  0  0  0  0  0
  -45.5550  -68.4870   49.8060 H   0  0  0  0  0  0  0  0  0  0  0  0
  1  2  1  0  0  0  0
  2  3  1  0  0  0  0
  3  4  2  0  0  0  0
  3 20  1  0  0  0  0
  4  9  1  0  0  0  0
  5 32  1  0  0  0  0
  5  4  1  0  0  0  0
  6  5  2  0  0  0  0
  7  6  1  0  0  0  0
  7  2  2  0  0  0  0
  8  6  1  0  0  0  0
  9 34  1  1  0  0  0
  9 10  1  0  0  0  0
 10 16  1  0  0  0  0
 11 10  2  0  0  0  0
 11 12  1  0  0  0  0
 12 13  1  0  0  0  0
 13 15  1  0  0  0  0
 13 14  2  0  0  0  0
 15 18  1  0  0  0  0
 16 17  2  0  0  0  0
 16 15  1  0  0  0  0
 18 35  1  0  0  0  0
 18 37  1  0  0  0  0
 19 12  1  0  0  0  0
 19 40  1  0  0  0  0
 20 11  1  0  0  0  0
 21 27  1  0  0  0  0
 21  9  1  0  0  0  0
 22 21  1  0  0  0  0
 23 24  1  0  0  0  0
 23 22  1  0  0  0  0
 24 26  1  0  0  0  0
 25 24  2  0  0  0  0
 26 29  1  0  0  0  0
 26 27  1  0  0  0  0
 27 28  2  0  0  0  0
 29 41  1  0  0  0  0
 30 44  1  0  0  0  0
 30 23  1  0  0  0  0
 31 22  2  0  0  0  0
 33  7  1  0  0  0  0
 36 18  1  0  0  0  0
 38 19  1  0  0  0  0
 39 19  1  0  0  0  0
 42 29  1  0  0  0  0
 43 29  1  0  0  0  0
 45 30  1  0  0  0  0
 46 30  1  0  0  0  0
M  END
>  <Pose>
1

>  <Score>
-4.51

$$$$
