
 OpenBabel03202209423D

 51 55  0  0  1  0  0  0  0  0999 V2000
  -42.9970  -62.9670   45.7670 Cl  0  0  0  0  0  0  0  0  0  0  0  0
  -41.9920  -63.1090   47.1930 C   0  0  0  0  0  0  0  0  0  0  0  0
  -42.4120  -63.7580   48.3220 C   0  0  0  0  0  0  0  0  0  0  0  0
  -41.5770  -63.8480   49.4380 C   0  0  0  0  0  0  0  0  0  0  0  0
  -40.3440  -63.2720   49.3630 C   0  0  0  0  0  0  0  0  0  0  0  0
  -39.9100  -62.6050   48.2050 C   0  0  0  0  0  0  0  0  0  0  0  0
  -40.7270  -62.5170   47.1140 C   0  0  0  0  0  0  0  0  0  0  0  0
  -39.6680  -63.4780   50.5990 N   0  0  0  0  0  0  0  0  0  0  0  0
  -40.4980  -64.2030   51.4740 C   0  0  0  0  0  0  0  0  0  0  0  0
  -40.1680  -64.5370   52.6560 O   0  0  0  0  0  0  0  0  0  0  0  0
  -41.7520  -64.4700   50.7610 C   0  0  1  0  0  0  0  0  0  0  0  0
  -42.8880  -63.8230   51.3790 N   0  0  0  0  0  0  0  0  0  0  0  0
  -43.8050  -64.8040   51.8660 C   0  0  2  0  0  0  0  0  0  0  0  0
  -43.1040  -66.0990   51.7420 C   0  0  1  0  0  0  0  0  0  0  0  0
  -42.0650  -65.9440   50.6660 C   0  0  2  0  0  0  0  0  0  0  0  0
  -40.9610  -66.7970   51.1590 C   0  0  0  0  0  0  0  0  0  0  0  0
  -40.0010  -67.2830   50.5100 O   0  0  0  0  0  0  0  0  0  0  0  0
  -41.1170  -67.0280   52.5750 N   0  0  0  0  0  0  0  0  0  0  0  0
  -42.2740  -66.3060   52.9810 C   0  0  0  0  0  0  0  0  0  0  0  0
  -42.5160  -65.9350   54.1530 O   0  0  0  0  0  0  0  0  0  0  0  0
  -40.2490  -67.8380   53.4030 C   0  0  0  0  0  0  0  0  0  0  0  0
  -40.7000  -69.2700   53.5090 C   0  0  1  0  0  0  0  0  0  0  0  0
  -39.9130  -70.0690   52.6830 O   0  0  0  0  0  0  0  0  0  0  0  0
  -38.8590  -70.5250   53.4420 C   0  0  0  0  0  0  0  0  0  0  0  0
  -39.3110  -70.5870   54.8850 C   0  0  0  0  0  0  0  0  0  0  0  0
  -40.6310  -69.8410   54.8810 C   0  0  0  0  0  0  0  0  0  0  0  0
  -45.1420  -64.7490   51.1770 C   0  0  0  0  0  0  0  0  0  0  0  0
  -46.2630  -64.4290   52.0400 C   0  0  0  0  0  0  0  0  0  0  0  0
  -46.6040  -65.2190   52.9460 O   0  0  0  0  0  0  0  0  0  0  0  0
  -46.9880  -63.2280   51.8770 N   0  0  0  0  0  0  0  0  0  0  0  0
  -43.3720  -64.2060   48.3780 H   0  0  0  0  0  0  0  0  0  0  0  0
  -38.9330  -62.1740   48.2060 H   0  0  0  0  0  0  0  0  0  0  0  0
  -40.3770  -62.0020   46.2330 H   0  0  0  0  0  0  0  0  0  0  0  0
  -38.6870  -63.1470   50.8460 H   0  0  0  0  0  0  0  0  0  0  0  0
  -43.4080  -63.1990   50.7230 H   0  0  0  0  0  0  0  0  0  0  0  0
  -43.9380  -64.5840   52.9660 H   0  0  0  0  0  0  0  0  0  0  0  0
  -43.7520  -66.9840   51.5810 H   0  0  0  0  0  0  0  0  0  0  0  0
  -42.4200  -66.2490   49.6650 H   0  0  0  0  0  0  0  0  0  0  0  0
  -39.2160  -67.8090   53.0000 H   0  0  0  0  0  0  0  0  0  0  0  0
  -40.1860  -67.3830   54.4290 H   0  0  0  0  0  0  0  0  0  0  0  0
  -41.7420  -69.3460   53.1370 H   0  0  0  0  0  0  0  0  0  0  0  0
  -38.6170  -71.5530   53.0890 H   0  0  0  0  0  0  0  0  0  0  0  0
  -37.9330  -69.9250   53.3200 H   0  0  0  0  0  0  0  0  0  0  0  0
  -39.5020  -71.6360   55.1680 H   0  0  0  0  0  0  0  0  0  0  0  0
  -38.5910  -70.0820   55.5580 H   0  0  0  0  0  0  0  0  0  0  0  0
  -40.7030  -69.1000   55.6820 H   0  0  0  0  0  0  0  0  0  0  0  0
  -41.4800  -70.5630   55.0700 H   0  0  0  0  0  0  0  0  0  0  0  0
  -45.0600  -63.9390   50.3980 H   0  0  0  0  0  0  0  0  0  0  0  0
  -45.2710  -65.6840   50.5890 H   0  0  0  0  0  0  0  0  0  0  0  0
  -48.0220  -63.2700   51.7220 H   0  0  0  0  0  0  0  0  0  0  0  0
  -46.5640  -62.2820   51.8990 H   0  0  0  0  0  0  0  0  0  0  0  0
  1  2  1  0  0  0  0
  2  3  1  0  0  0  0
  3 31  1  0  0  0  0
  3  4  2  0  0  0  0
  5  4  1  0  0  0  0
  5  8  1  0  0  0  0
  6 32  1  0  0  0  0
  6  5  2  0  0  0  0
  7  2  2  0  0  0  0
  7  6  1  0  0  0  0
  8 34  1  0  0  0  0
  8  9  1  0  0  0  0
  9 10  2  0  0  0  0
 11  4  1  6  0  0  0
 11 12  1  0  0  0  0
 11  9  1  0  0  0  0
 12 13  1  0  0  0  0
 13 36  1  1  0  0  0
 14 37  1  6  0  0  0
 14 13  1  0  0  0  0
 14 19  1  0  0  0  0
 15 38  1  6  0  0  0
 15 11  1  0  0  0  0
 15 16  1  0  0  0  0
 15 14  1  0  0  0  0
 16 18  1  0  0  0  0
 17 16  2  0  0  0  0
 18 19  1  0  0  0  0
 18 21  1  0  0  0  0
 19 20  2  0  0  0  0
 21 22  1  0  0  0  0
 21 40  1  0  0  0  0
 22 41  1  6  0  0  0
 22 26  1  0  0  0  0
 23 24  1  0  0  0  0
 23 22  1  0  0  0  0
 24 25  1  0  0  0  0
 25 44  1  0  0  0  0
 25 45  1  0  0  0  0
 26 25  1  0  0  0  0
 26 47  1  0  0  0  0
 26 46  1  0  0  0  0
 27 13  1  0  0  0  0
 27 28  1  0  0  0  0
 28 29  2  0  0  0  0
 30 51  1  0  0  0  0
 30 28  1  0  0  0  0
 33  7  1  0  0  0  0
 35 12  1  0  0  0  0
 39 21  1  0  0  0  0
 42 24  1  0  0  0  0
 43 24  1  0  0  0  0
 48 27  1  0  0  0  0
 49 27  1  0  0  0  0
 50 30  1  0  0  0  0
M  END
>  <Pose>
1

>  <Score>
-6.74

$$$$
