
 OpenBabel03202209423D

 53 56  0  0  0  0  0  0  0  0999 V2000
  -34.8440  -67.4760   46.2870 Cl  0  0  0  0  0  0  0  0  0  0  0  0
  -36.1810  -67.3440   47.4020 C   0  0  0  0  0  0  0  0  0  0  0  0
  -37.3010  -66.6030   47.1040 C   0  0  0  0  0  0  0  0  0  0  0  0
  -38.3510  -66.4930   47.9640 C   0  0  0  0  0  0  0  0  0  0  0  0
  -38.3510  -67.1360   49.2210 C   0  0  0  0  0  0  0  0  0  0  0  0
  -37.1940  -67.8910   49.5080 C   0  0  0  0  0  0  0  0  0  0  0  0
  -36.1620  -67.9800   48.6220 C   0  0  0  0  0  0  0  0  0  0  0  0
  -39.3170  -67.0680   50.0790 O   0  0  0  0  0  0  0  0  0  0  0  0
  -40.2710  -67.0390   50.9390 C   0  0  0  0  0  0  0  0  0  0  0  0
  -40.3480  -67.9060   52.1300 C   0  0  0  0  0  0  0  0  0  0  0  0
  -40.0230  -69.1480   51.9010 O   0  0  0  0  0  0  0  0  0  0  0  0
  -40.7060  -67.6070   53.4350 N   0  0  0  0  0  0  0  0  0  0  0  0
  -41.6730  -68.5230   54.1150 C   0  0  0  0  0  0  0  0  0  0  0  0
  -42.6120  -67.6310   54.8870 C   0  0  0  0  0  0  0  0  0  0  0  0
  -42.6340  -66.2650   54.3960 N   0  0  0  0  0  0  0  0  0  0  0  0
  -41.4030  -65.5230   54.4600 C   0  0  0  0  0  0  0  0  0  0  0  0
  -40.2730  -66.5230   54.2770 C   0  0  0  0  0  0  0  0  0  0  0  0
  -43.8270  -65.7160   53.8800 C   0  0  0  0  0  0  0  0  0  0  0  0
  -45.0260  -66.3370   54.0610 N   0  0  0  0  0  0  0  0  0  0  0  0
  -46.1730  -65.8600   53.5980 C   0  0  0  0  0  0  0  0  0  0  0  0
  -46.1300  -64.6900   52.9100 N   0  0  0  0  0  0  0  0  0  0  0  0
  -45.0060  -64.0300   52.6940 C   0  0  0  0  0  0  0  0  0  0  0  0
  -43.8060  -64.5360   53.1820 C   0  0  0  0  0  0  0  0  0  0  0  0
  -47.4270  -66.4930   53.7770 N   0  0  0  0  0  0  0  0  0  0  0  0
  -47.5020  -67.7760   54.4670 C   0  0  0  0  0  0  0  0  0  0  0  0
  -48.2710  -68.6980   53.5140 C   0  0  0  0  0  0  0  0  0  0  0  0
  -49.5230  -68.1950   53.2820 O   0  0  0  0  0  0  0  0  0  0  0  0
  -49.5490  -66.9770   52.6460 C   0  0  0  0  0  0  0  0  0  0  0  0
  -48.6720  -65.9370   53.3060 C   0  0  0  0  0  0  0  0  0  0  0  0
  -37.2950  -66.1080   46.1310 H   0  0  0  0  0  0  0  0  0  0  0  0
  -39.2090  -65.9230   47.7150 H   0  0  0  0  0  0  0  0  0  0  0  0
  -37.1820  -68.3920   50.4710 H   0  0  0  0  0  0  0  0  0  0  0  0
  -35.2840  -68.5680   48.8690 H   0  0  0  0  0  0  0  0  0  0  0  0
  -41.3000  -67.2270   50.4190 H   0  0  0  0  0  0  0  0  0  0  0  0
  -40.5160  -65.9820   51.3630 H   0  0  0  0  0  0  0  0  0  0  0  0
  -41.0420  -69.1240   54.8010 H   0  0  0  0  0  0  0  0  0  0  0  0
  -42.1980  -69.1380   53.3530 H   0  0  0  0  0  0  0  0  0  0  0  0
  -42.2180  -67.5490   55.9440 H   0  0  0  0  0  0  0  0  0  0  0  0
  -43.6600  -68.0300   54.9080 H   0  0  0  0  0  0  0  0  0  0  0  0
  -41.3290  -64.6840   53.7640 H   0  0  0  0  0  0  0  0  0  0  0  0
  -41.3190  -65.0590   55.4870 H   0  0  0  0  0  0  0  0  0  0  0  0
  -40.1420  -66.9690   55.3200 H   0  0  0  0  0  0  0  0  0  0  0  0
  -39.3090  -66.0870   54.0520 H   0  0  0  0  0  0  0  0  0  0  0  0
  -44.9940  -63.0880   52.1360 H   0  0  0  0  0  0  0  0  0  0  0  0
  -42.8840  -63.9840   53.0030 H   0  0  0  0  0  0  0  0  0  0  0  0
  -46.4990  -68.1960   54.6680 H   0  0  0  0  0  0  0  0  0  0  0  0
  -48.1100  -67.6330   55.3590 H   0  0  0  0  0  0  0  0  0  0  0  0
  -47.6550  -68.8010   52.5900 H   0  0  0  0  0  0  0  0  0  0  0  0
  -48.3450  -69.6730   53.9980 H   0  0  0  0  0  0  0  0  0  0  0  0
  -49.2690  -67.0360   51.5710 H   0  0  0  0  0  0  0  0  0  0  0  0
  -50.5900  -66.5940   52.6810 H   0  0  0  0  0  0  0  0  0  0  0  0
  -48.4880  -65.1470   52.5480 H   0  0  0  0  0  0  0  0  0  0  0  0
  -49.2230  -65.4720   54.1400 H   0  0  0  0  0  0  0  0  0  0  0  0
  1  2  1  0  0  0  0
  2  7  1  0  0  0  0
  3  2  2  0  0  0  0
  3  4  1  0  0  0  0
  4  5  2  0  0  0  0
  5  6  1  0  0  0  0
  5  8  1  0  0  0  0
  6 32  1  0  0  0  0
  7 33  1  0  0  0  0
  7  6  2  0  0  0  0
  8  9  1  0  0  0  0
  9 35  1  0  0  0  0
  9 10  1  0  0  0  0
 10 12  1  0  0  0  0
 11 10  2  0  0  0  0
 12 13  1  0  0  0  0
 12 17  1  0  0  0  0
 13 36  1  0  0  0  0
 13 14  1  0  0  0  0
 14 39  1  0  0  0  0
 14 38  1  0  0  0  0
 15 16  1  0  0  0  0
 15 14  1  0  0  0  0
 16 41  1  0  0  0  0
 17 16  1  0  0  0  0
 17 42  1  0  0  0  0
 18 19  1  0  0  0  0
 18 15  1  0  0  0  0
 20 24  1  0  0  0  0
 20 19  2  0  0  0  0
 21 20  1  0  0  0  0
 22 21  2  0  0  0  0
 22 23  1  0  0  0  0
 23 18  2  0  0  0  0
 24 25  1  0  0  0  0
 25 46  1  0  0  0  0
 25 47  1  0  0  0  0
 26 49  1  0  0  0  0
 26 25  1  0  0  0  0
 27 26  1  0  0  0  0
 28 51  1  0  0  0  0
 28 27  1  0  0  0  0
 28 29  1  0  0  0  0
 29 24  1  0  0  0  0
 29 53  1  0  0  0  0
 30  3  1  0  0  0  0
 31  4  1  0  0  0  0
 34  9  1  0  0  0  0
 37 13  1  0  0  0  0
 40 16  1  0  0  0  0
 43 17  1  0  0  0  0
 44 22  1  0  0  0  0
 45 23  1  0  0  0  0
 48 26  1  0  0  0  0
 50 28  1  0  0  0  0
 52 29  1  0  0  0  0
M  END
>  <Pose>
1

>  <Score>
-4.83

$$$$
