
 OpenBabel03202209423D

 41 44  0  0  1  0  0  0  0  0999 V2000
  -46.3100  -66.7090   53.5090 S   0  0  0  0  0  0  0  0  0  0  0  0
  -46.3570  -68.1830   53.1350 O   0  0  0  0  0  0  0  0  0  0  0  0
  -47.0120  -66.6420   54.8620 O   0  0  0  0  0  0  0  0  0  0  0  0
  -44.7370  -66.1650   53.7190 N   0  0  0  0  0  0  0  0  0  0  0  0
  -44.0420  -65.6970   52.5880 C   0  0  0  0  0  0  0  0  0  0  0  0
  -42.5620  -65.4740   52.8240 C   0  0  0  0  0  0  0  0  0  0  0  0
  -42.0410  -66.7490   53.4030 C   0  0  2  0  0  0  0  0  0  0  0  0
  -42.7790  -67.3090   54.4260 C   0  0  0  0  0  0  0  0  0  0  0  0
  -42.3680  -68.4470   54.9850 N   0  0  0  0  0  0  0  0  0  0  0  0
  -41.2340  -69.0130   54.5250 C   0  0  2  0  0  0  0  0  0  0  0  0
  -40.4970  -68.4880   53.5310 N   0  0  0  0  0  0  0  0  0  0  0  0
  -39.4260  -69.2670   53.2870 N   0  0  0  0  0  0  0  0  0  0  0  0
  -39.4300  -70.3240   54.1130 C   0  0  0  0  0  0  0  0  0  0  0  0
  -40.5520  -70.1820   54.8930 C   0  0  0  0  0  0  0  0  0  0  0  0
  -40.8840  -67.3360   52.9410 C   0  0  0  0  0  0  0  0  0  0  0  0
  -40.2370  -66.7960   52.0070 O   0  0  0  0  0  0  0  0  0  0  0  0
  -44.0060  -66.5890   54.8410 C   0  0  0  0  0  0  0  0  0  0  0  0
  -47.2740  -65.8630   52.3610 C   0  0  0  0  0  0  0  0  0  0  0  0
  -48.6020  -66.2220   52.1420 C   0  0  0  0  0  0  0  0  0  0  0  0
  -49.3440  -65.5260   51.2130 C   0  0  0  0  0  0  0  0  0  0  0  0
  -48.8270  -64.4950   50.4980 C   0  0  0  0  0  0  0  0  0  0  0  0
  -47.5270  -64.1190   50.6890 C   0  0  0  0  0  0  0  0  0  0  0  0
  -46.7830  -64.8150   51.6180 C   0  0  0  0  0  0  0  0  0  0  0  0
  -46.8290  -62.7800   49.7710 Cl  0  0  0  0  0  0  0  0  0  0  0  0
  -49.2020  -67.2530   52.8240 O   0  0  0  0  0  0  0  0  0  0  0  0
  -49.8890  -68.2480   52.0990 C   0  0  0  0  0  0  0  0  0  0  0  0
  -44.5000  -64.7360   52.2440 H   0  0  0  0  0  0  0  0  0  0  0  0
  -44.1770  -66.4170   51.7370 H   0  0  0  0  0  0  0  0  0  0  0  0
  -42.4420  -64.6190   53.5260 H   0  0  0  0  0  0  0  0  0  0  0  0
  -42.1100  -65.2520   51.8420 H   0  0  0  0  0  0  0  0  0  0  0  0
  -38.7130  -69.0540   52.5540 H   0  0  0  0  0  0  0  0  0  0  0  0
  -38.7130  -71.1420   54.1810 H   0  0  0  0  0  0  0  0  0  0  0  0
  -40.9180  -70.8400   55.6960 H   0  0  0  0  0  0  0  0  0  0  0  0
  -43.6450  -65.6720   55.3950 H   0  0  0  0  0  0  0  0  0  0  0  0
  -44.6190  -67.1430   55.5490 H   0  0  0  0  0  0  0  0  0  0  0  0
  -50.3960  -65.7840   51.0150 H   0  0  0  0  0  0  0  0  0  0  0  0
  -49.4240  -63.9440   49.7580 H   0  0  0  0  0  0  0  0  0  0  0  0
  -45.7440  -64.4660   51.7280 H   0  0  0  0  0  0  0  0  0  0  0  0
  -50.6560  -67.8040   51.4290 H   0  0  0  0  0  0  0  0  0  0  0  0
  -49.1950  -68.8350   51.4450 H   0  0  0  0  0  0  0  0  0  0  0  0
  -50.3400  -69.0020   52.7890 H   0  0  0  0  0  0  0  0  0  0  0  0
  1  4  1  0  0  0  0
  1  3  2  0  0  0  0
  2  1  2  0  0  0  0
  4 17  1  0  0  0  0
  5  6  1  0  0  0  0
  5  4  1  0  0  0  0
  6  7  1  0  0  0  0
  6 29  1  0  0  0  0
  7 15  1  1  0  0  0
  7  8  1  0  0  0  0
  8 17  1  0  0  0  0
  8  9  2  0  0  0  0
 10 14  1  6  0  0  0
 10  9  1  0  0  0  0
 11 10  1  0  0  0  0
 12 11  1  0  0  0  0
 12 13  1  0  0  0  0
 13 32  1  0  0  0  0
 13 14  2  0  0  0  0
 14 33  1  0  0  0  0
 15 11  1  0  0  0  0
 16 15  2  0  0  0  0
 17 34  1  0  0  0  0
 17 35  1  0  0  0  0
 18  1  1  0  0  0  0
 19 18  1  0  0  0  0
 19 25  1  0  0  0  0
 20 19  2  0  0  0  0
 21 22  2  0  0  0  0
 21 20  1  0  0  0  0
 22 23  1  0  0  0  0
 23 38  1  0  0  0  0
 23 18  2  0  0  0  0
 24 22  1  0  0  0  0
 26 41  1  0  0  0  0
 26 25  1  0  0  0  0
 27  5  1  0  0  0  0
 28  5  1  0  0  0  0
 30  6  1  0  0  0  0
 31 12  1  0  0  0  0
 36 20  1  0  0  0  0
 37 21  1  0  0  0  0
 39 26  1  0  0  0  0
 40 26  1  0  0  0  0
M  END
>  <Pose>
1

>  <Score>
-6.25

$$$$
