
 OpenBabel03202209423D

 41 43  0  0  1  0  0  0  0  0999 V2000
  -47.4720  -66.9380   54.6320 Cl  0  0  0  0  0  0  0  0  0  0  0  0
  -46.0260  -66.4540   53.7500 C   0  0  0  0  0  0  0  0  0  0  0  0
  -46.1560  -65.7420   52.5760 C   0  0  0  0  0  0  0  0  0  0  0  0
  -45.0140  -65.3730   51.9020 C   0  0  0  0  0  0  0  0  0  0  0  0
  -43.7270  -65.6850   52.3500 C   0  0  0  0  0  0  0  0  0  0  0  0
  -43.6080  -66.3900   53.5130 C   0  0  0  0  0  0  0  0  0  0  0  0
  -44.7580  -66.7740   54.2130 C   0  0  0  0  0  0  0  0  0  0  0  0
  -42.6140  -65.2370   51.5520 C   0  0  0  0  0  0  0  0  0  0  0  0
  -42.0930  -64.1130   51.8020 O   0  0  0  0  0  0  0  0  0  0  0  0
  -42.1230  -66.0670   50.4980 N   0  0  0  0  0  0  0  0  0  0  0  0
  -40.8060  -66.6160   50.6350 C   0  0  0  0  0  0  0  0  0  0  0  0
  -39.7310  -66.0030   49.8290 C   0  0  2  0  0  0  0  0  0  0  0  0
  -39.5480  -64.5890   49.9420 N   0  0  1  0  0  0  0  0  0  0  0  0
  -38.0810  -64.3830   49.8720 C   0  0  0  0  0  0  0  0  0  0  0  0
  -37.6470  -65.2420   48.6780 C   0  0  0  0  0  0  0  0  0  0  0  0
  -38.7360  -65.4820   47.7530 N   0  0  1  0  0  0  0  0  0  0  0  0
  -39.7830  -66.3190   48.3430 C   0  0  0  0  0  0  0  0  0  0  0  0
  -39.3690  -64.1970   47.5100 C   0  0  0  0  0  0  0  0  0  0  0  0
  -40.0450  -63.8170   48.8220 C   0  0  0  0  0  0  0  0  0  0  0  0
  -47.4210  -65.4170   52.1060 O   0  0  0  0  0  0  0  0  0  0  0  0
  -47.7290  -65.4660   50.7270 C   0  0  0  0  0  0  0  0  0  0  0  0
  -45.1590  -64.8110   50.9780 H   0  0  0  0  0  0  0  0  0  0  0  0
  -42.6590  -66.6630   53.9170 H   0  0  0  0  0  0  0  0  0  0  0  0
  -44.6390  -67.3320   55.1310 H   0  0  0  0  0  0  0  0  0  0  0  0
  -42.7250  -66.2370   49.6930 H   0  0  0  0  0  0  0  0  0  0  0  0
  -40.5040  -66.6160   51.6920 H   0  0  0  0  0  0  0  0  0  0  0  0
  -40.8800  -67.6940   50.3100 H   0  0  0  0  0  0  0  0  0  0  0  0
  -38.7710  -66.5210   50.1690 H   0  0  0  0  0  0  0  0  0  0  0  0
  -37.6880  -64.8040   50.8150 H   0  0  0  0  0  0  0  0  0  0  0  0
  -37.8630  -63.3240   49.7200 H   0  0  0  0  0  0  0  0  0  0  0  0
  -36.9100  -64.6150   48.1330 H   0  0  0  0  0  0  0  0  0  0  0  0
  -37.1390  -66.1510   49.0180 H   0  0  0  0  0  0  0  0  0  0  0  0
  -40.7260  -66.0470   47.8680 H   0  0  0  0  0  0  0  0  0  0  0  0
  -39.5370  -67.3920   48.1830 H   0  0  0  0  0  0  0  0  0  0  0  0
  -40.1360  -64.3650   46.7290 H   0  0  0  0  0  0  0  0  0  0  0  0
  -38.5760  -63.5040   47.2090 H   0  0  0  0  0  0  0  0  0  0  0  0
  -41.1220  -63.7450   48.7340 H   0  0  0  0  0  0  0  0  0  0  0  0
  -39.6740  -62.7600   49.0150 H   0  0  0  0  0  0  0  0  0  0  0  0
  -47.6100  -66.5250   50.4130 H   0  0  0  0  0  0  0  0  0  0  0  0
  -46.9830  -64.8770   50.1320 H   0  0  0  0  0  0  0  0  0  0  0  0
  -48.7560  -65.1340   50.5740 H   0  0  0  0  0  0  0  0  0  0  0  0
  2  7  1  0  0  0  0
  2  1  1  0  0  0  0
  3  2  2  0  0  0  0
  4  5  2  0  0  0  0
  4  3  1  0  0  0  0
  5  6  1  0  0  0  0
  6 23  1  0  0  0  0
  6  7  2  0  0  0  0
  7 24  1  0  0  0  0
  8  9  2  0  0  0  0
  8  5  1  0  0  0  0
 10 11  1  0  0  0  0
 10  8  1  0  0  0  0
 11 26  1  0  0  0  0
 12 13  1  0  0  0  0
 12 28  1  1  0  0  0
 12 11  1  0  0  0  0
 13 19  1  6  0  0  0
 14 13  1  0  0  0  0
 14 29  1  0  0  0  0
 15 32  1  0  0  0  0
 15 14  1  0  0  0  0
 16 18  1  1  0  0  0
 16 17  1  0  0  0  0
 16 15  1  0  0  0  0
 17 12  1  0  0  0  0
 18 19  1  0  0  0  0
 19 38  1  0  0  0  0
 20  3  1  0  0  0  0
 21 20  1  0  0  0  0
 22  4  1  0  0  0  0
 25 10  1  0  0  0  0
 27 11  1  0  0  0  0
 30 14  1  0  0  0  0
 31 15  1  0  0  0  0
 33 17  1  0  0  0  0
 34 17  1  0  0  0  0
 35 18  1  0  0  0  0
 36 18  1  0  0  0  0
 37 19  1  0  0  0  0
 39 21  1  0  0  0  0
 40 21  1  0  0  0  0
 41 21  1  0  0  0  0
M  END
>  <Pose>
1

>  <Score>
-5.04

$$$$
