
 OpenBabel03202209423D

 51 54  0  0  0  0  0  0  0  0999 V2000
  -39.3550  -70.2630   54.3460 Cl  0  0  0  0  0  0  0  0  0  0  0  0
  -40.5310  -69.0120   54.0260 C   0  0  0  0  0  0  0  0  0  0  0  0
  -41.7110  -68.9760   54.7150 C   0  0  0  0  0  0  0  0  0  0  0  0
  -42.6310  -67.9540   54.4460 C   0  0  0  0  0  0  0  0  0  0  0  0
  -42.3880  -66.9790   53.5080 C   0  0  0  0  0  0  0  0  0  0  0  0
  -41.1770  -67.0030   52.7930 C   0  0  0  0  0  0  0  0  0  0  0  0
  -40.2920  -68.0270   53.0850 C   0  0  0  0  0  0  0  0  0  0  0  0
  -43.4080  -66.1260   53.4570 N   0  0  0  0  0  0  0  0  0  0  0  0
  -44.3070  -66.5890   54.3890 C   0  0  0  0  0  0  0  0  0  0  0  0
  -45.4240  -66.0560   54.6510 O   0  0  0  0  0  0  0  0  0  0  0  0
  -43.8040  -67.6640   54.9430 O   0  0  0  0  0  0  0  0  0  0  0  0
  -43.6720  -64.9850   52.5970 C   0  0  0  0  0  0  0  0  0  0  0  0
  -43.4890  -65.1690   51.1610 C   0  0  0  0  0  0  0  0  0  0  0  0
  -42.7870  -64.2080   50.3450 C   0  0  0  0  0  0  0  0  0  0  0  0
  -43.5430  -63.3330   49.7710 O   0  0  0  0  0  0  0  0  0  0  0  0
  -41.4180  -64.0720   50.1060 N   0  0  0  0  0  0  0  0  0  0  0  0
  -40.3610  -64.4990   51.0410 C   0  0  0  0  0  0  0  0  0  0  0  0
  -39.8130  -65.7160   50.2320 C   0  0  0  0  0  0  0  0  0  0  0  0
  -39.1870  -65.1940   49.0250 N   0  0  0  0  0  0  0  0  0  0  0  0
  -39.5630  -63.9970   48.5050 C   0  0  0  0  0  0  0  0  0  0  0  0
  -40.8950  -63.4430   48.9250 C   0  0  0  0  0  0  0  0  0  0  0  0
  -38.5770  -66.2510   48.3700 C   0  0  0  0  0  0  0  0  0  0  0  0
  -37.1350  -65.9250   47.9800 C   0  0  0  0  0  0  0  0  0  0  0  0
  -36.6560  -64.8980   48.5970 O   0  0  0  0  0  0  0  0  0  0  0  0
  -36.4810  -66.6520   47.0820 N   0  0  0  0  0  0  0  0  0  0  0  0
  -35.7840  -67.4260   46.1260 C   0  0  0  0  0  0  0  0  0  0  0  0
  -34.2400  -67.5790   46.4040 C   0  0  0  0  0  0  0  0  0  0  0  0
  -34.7040  -66.7470   45.3100 C   0  0  0  0  0  0  0  0  0  0  0  0
  -41.9400  -69.7310   55.4610 H   0  0  0  0  0  0  0  0  0  0  0  0
  -41.0180  -66.2450   52.0750 H   0  0  0  0  0  0  0  0  0  0  0  0
  -39.3670  -68.0450   52.5310 H   0  0  0  0  0  0  0  0  0  0  0  0
  -43.0020  -64.1510   52.9690 H   0  0  0  0  0  0  0  0  0  0  0  0
  -44.7420  -64.7030   52.8730 H   0  0  0  0  0  0  0  0  0  0  0  0
  -44.5170  -65.3010   50.6500 H   0  0  0  0  0  0  0  0  0  0  0  0
  -42.9390  -66.1660   51.0120 H   0  0  0  0  0  0  0  0  0  0  0  0
  -40.6980  -64.7730   52.0130 H   0  0  0  0  0  0  0  0  0  0  0  0
  -39.5550  -63.7460   51.1110 H   0  0  0  0  0  0  0  0  0  0  0  0
  -39.0810  -66.2590   50.8270 H   0  0  0  0  0  0  0  0  0  0  0  0
  -40.6010  -66.4080   49.9380 H   0  0  0  0  0  0  0  0  0  0  0  0
  -39.5410  -64.0100   47.3700 H   0  0  0  0  0  0  0  0  0  0  0  0
  -38.7470  -63.2020   48.7370 H   0  0  0  0  0  0  0  0  0  0  0  0
  -41.6000  -63.4050   48.1000 H   0  0  0  0  0  0  0  0  0  0  0  0
  -40.6810  -62.3370   49.1690 H   0  0  0  0  0  0  0  0  0  0  0  0
  -39.1320  -66.4870   47.4310 H   0  0  0  0  0  0  0  0  0  0  0  0
  -38.5630  -67.2260   48.9460 H   0  0  0  0  0  0  0  0  0  0  0  0
  -37.3070  -66.2380   46.0870 H   0  0  0  0  0  0  0  0  0  0  0  0
  -36.1440  -68.4500   45.8750 H   0  0  0  0  0  0  0  0  0  0  0  0
  -33.9840  -67.2920   47.4090 H   0  0  0  0  0  0  0  0  0  0  0  0
  -33.7960  -68.5760   46.1060 H   0  0  0  0  0  0  0  0  0  0  0  0
  -34.6370  -65.6230   45.3380 H   0  0  0  0  0  0  0  0  0  0  0  0
  -34.5000  -67.1070   44.2620 H   0  0  0  0  0  0  0  0  0  0  0  0
  2  1  1  0  0  0  0
  2  3  1  0  0  0  0
  3 29  1  0  0  0  0
  4  3  2  0  0  0  0
  4 11  1  0  0  0  0
  5  4  1  0  0  0  0
  6  7  1  0  0  0  0
  6  5  2  0  0  0  0
  7  2  2  0  0  0  0
  8  5  1  0  0  0  0
  8  9  1  0  0  0  0
  9 10  2  0  0  0  0
  9 11  1  0  0  0  0
 12 33  1  0  0  0  0
 12 32  1  0  0  0  0
 12  8  1  0  0  0  0
 13 12  1  0  0  0  0
 14 13  1  0  0  0  0
 15 14  2  0  0  0  0
 16 14  1  0  0  0  0
 16 17  1  0  0  0  0
 17 37  1  0  0  0  0
 17 36  1  0  0  0  0
 18 38  1  0  0  0  0
 18 17  1  0  0  0  0
 19 18  1  0  0  0  0
 20 41  1  0  0  0  0
 20 21  1  0  0  0  0
 20 19  1  0  0  0  0
 21 43  1  0  0  0  0
 21 16  1  0  0  0  0
 22 45  1  0  0  0  0
 22 19  1  0  0  0  0
 23 22  1  0  0  0  0
 23 24  2  0  0  0  0
 25 23  1  0  0  0  0
 26 27  1  0  0  0  0
 26 25  1  0  0  0  0
 27 48  1  0  0  0  0
 28 50  1  0  0  0  0
 28 26  1  0  0  0  0
 28 27  1  0  0  0  0
 30  6  1  0  0  0  0
 31  7  1  0  0  0  0
 34 13  1  0  0  0  0
 35 13  1  0  0  0  0
 39 18  1  0  0  0  0
 40 20  1  0  0  0  0
 42 21  1  0  0  0  0
 44 22  1  0  0  0  0
 46 25  1  0  0  0  0
 47 26  1  0  0  0  0
 49 27  1  0  0  0  0
 51 28  1  0  0  0  0
M  END
>  <Pose>
1

>  <Score>
-6.32

$$$$
