
 OpenBabel03202209423D

 38 39  0  0  1  0  0  0  0  0999 V2000
  -38.8140  -68.8230   51.8070 Cl  0  0  0  0  0  0  0  0  0  0  0  0
  -40.2350  -68.3060   52.6880 C   0  0  0  0  0  0  0  0  0  0  0  0
  -40.6450  -69.0000   53.8070 C   0  0  0  0  0  0  0  0  0  0  0  0
  -41.7680  -68.5340   54.4530 C   0  0  0  0  0  0  0  0  0  0  0  0
  -42.2320  -69.0970   55.4910 O   0  0  0  0  0  0  0  0  0  0  0  0
  -42.4090  -67.4510   53.9870 N   0  0  0  0  0  0  0  0  0  0  0  0
  -42.0530  -66.7580   52.9240 N   0  0  0  0  0  0  0  0  0  0  0  0
  -42.7760  -65.5890   52.4540 C   0  0  1  0  0  0  0  0  0  0  0  0
  -44.1030  -65.9480   51.8180 C   0  0  0  0  0  0  0  0  0  0  0  0
  -45.1630  -66.1610   52.8840 C   0  0  0  0  0  0  0  0  0  0  0  0
  -44.7880  -67.2910   53.8150 C   0  0  0  0  0  0  0  0  0  0  0  0
  -43.6070  -66.9720   54.6930 C   0  0  2  0  0  0  0  0  0  0  0  0
  -43.4750  -65.4930   54.7720 C   0  0  0  0  0  0  0  0  0  0  0  0
  -43.1180  -64.8010   53.6970 C   0  0  0  0  0  0  0  0  0  0  0  0
  -40.9410  -67.2000   52.2640 C   0  0  0  0  0  0  0  0  0  0  0  0
  -40.5720  -66.5490   51.2300 O   0  0  0  0  0  0  0  0  0  0  0  0
  -39.9680  -70.1530   54.2990 N   0  0  0  0  0  0  0  0  0  0  0  0
  -38.6420  -70.5490   53.9080 C   0  0  0  0  0  0  0  0  0  0  0  0
  -37.6200  -70.2600   54.9940 C   0  0  0  0  0  0  0  0  0  0  0  0
  -38.5140  -71.9860   53.5250 C   0  0  0  0  0  0  0  0  0  0  0  0
  -42.1810  -64.9740   51.7790 H   0  0  0  0  0  0  0  0  0  0  0  0
  -44.0350  -66.7940   51.1220 H   0  0  0  0  0  0  0  0  0  0  0  0
  -44.4250  -65.0660   51.2240 H   0  0  0  0  0  0  0  0  0  0  0  0
  -46.0890  -66.4710   52.3630 H   0  0  0  0  0  0  0  0  0  0  0  0
  -45.2880  -65.2240   53.4500 H   0  0  0  0  0  0  0  0  0  0  0  0
  -44.5610  -68.1720   53.1470 H   0  0  0  0  0  0  0  0  0  0  0  0
  -45.6850  -67.5910   54.3920 H   0  0  0  0  0  0  0  0  0  0  0  0
  -43.6830  -67.4390   55.6940 H   0  0  0  0  0  0  0  0  0  0  0  0
  -43.6690  -64.9650   55.7090 H   0  0  0  0  0  0  0  0  0  0  0  0
  -43.0670  -63.7190   53.6900 H   0  0  0  0  0  0  0  0  0  0  0  0
  -40.5320  -70.7210   55.0010 H   0  0  0  0  0  0  0  0  0  0  0  0
  -38.3420  -69.9380   53.0350 H   0  0  0  0  0  0  0  0  0  0  0  0
  -37.8490  -70.8380   55.9180 H   0  0  0  0  0  0  0  0  0  0  0  0
  -36.6480  -70.6260   54.6190 H   0  0  0  0  0  0  0  0  0  0  0  0
  -37.5210  -69.1740   55.1980 H   0  0  0  0  0  0  0  0  0  0  0  0
  -37.4270  -72.1760   53.3530 H   0  0  0  0  0  0  0  0  0  0  0  0
  -39.0560  -72.2460   52.5830 H   0  0  0  0  0  0  0  0  0  0  0  0
  -38.8040  -72.6410   54.3580 H   0  0  0  0  0  0  0  0  0  0  0  0
  2  3  2  0  0  0  0
  3 17  1  0  0  0  0
  3  4  1  0  0  0  0
  4  5  2  0  0  0  0
  6  4  1  0  0  0  0
  6 12  1  0  0  0  0
  7  6  1  0  0  0  0
  8 21  1  6  0  0  0
  8  7  1  0  0  0  0
  8 14  1  0  0  0  0
  9  8  1  0  0  0  0
  9 10  1  0  0  0  0
 10 25  1  0  0  0  0
 10 11  1  0  0  0  0
 11 27  1  0  0  0  0
 11 12  1  0  0  0  0
 12 13  1  0  0  0  0
 12 28  1  1  0  0  0
 13 29  1  0  0  0  0
 14 13  2  0  0  0  0
 15  2  1  0  0  0  0
 15  7  1  0  0  0  0
 16 15  2  0  0  0  0
 17 31  1  0  0  0  0
 18 17  1  0  0  0  0
 18 19  1  0  0  0  0
 19 35  1  0  0  0  0
 19 33  1  0  0  0  0
 20 18  1  0  0  0  0
 20 38  1  0  0  0  0
 22  9  1  0  0  0  0
 23  9  1  0  0  0  0
 24 10  1  0  0  0  0
 26 11  1  0  0  0  0
 30 14  1  0  0  0  0
 32 18  1  0  0  0  0
 34 19  1  0  0  0  0
 36 20  1  0  0  0  0
 37 20  1  0  0  0  0
M  END
>  <Pose>
1

>  <Score>
-4.74

$$$$
