
 OpenBabel03202209423D

 36 39  0  0  1  0  0  0  0  0999 V2000
  -42.6780  -64.4110   52.1620 Cl  0  0  0  0  0  0  0  0  0  0  0  0
  -42.3850  -66.0090   52.8210 C   0  0  0  0  0  0  0  0  0  0  0  0
  -43.2010  -66.4460   53.8430 C   0  0  0  0  0  0  0  0  0  0  0  0
  -42.9070  -67.7280   54.3240 C   0  0  0  0  0  0  0  0  0  0  0  0
  -43.6140  -68.1740   55.2490 O   0  0  0  0  0  0  0  0  0  0  0  0
  -41.9050  -68.4510   53.8110 N   0  0  0  0  0  0  0  0  0  0  0  0
  -41.1250  -68.0240   52.8300 N   0  0  0  0  0  0  0  0  0  0  0  0
  -40.0840  -68.9400   52.3840 C   0  0  1  0  0  0  0  0  0  0  0  0
  -39.2470  -69.2680   53.6070 C   0  0  1  0  0  0  0  0  0  0  0  0
  -40.1000  -69.6970   54.7220 C   0  0  1  0  0  0  0  0  0  0  0  0
  -41.5740  -69.7900   54.3030 C   0  0  2  0  0  0  0  0  0  0  0  0
  -41.5940  -70.6500   53.0700 C   0  0  0  0  0  0  0  0  0  0  0  0
  -40.8310  -70.2180   52.0810 C   0  0  0  0  0  0  0  0  0  0  0  0
  -39.1170  -70.6730   54.0620 C   0  0  0  0  0  0  0  0  0  0  0  0
  -41.3590  -66.8130   52.3350 C   0  0  0  0  0  0  0  0  0  0  0  0
  -40.6240  -66.3990   51.4020 O   0  0  0  0  0  0  0  0  0  0  0  0
  -44.2750  -65.6900   54.3960 N   0  0  0  0  0  0  0  0  0  0  0  0
  -45.5990  -65.6520   53.8910 C   0  0  0  0  0  0  0  0  0  0  0  0
  -45.7410  -64.9840   52.5480 C   0  0  0  0  0  0  0  0  0  0  0  0
  -46.2290  -67.0310   53.7560 C   0  0  0  0  0  0  0  0  0  0  0  0
  -39.5090  -68.5780   51.5390 H   0  0  0  0  0  0  0  0  0  0  0  0
  -38.3520  -68.6360   53.7300 H   0  0  0  0  0  0  0  0  0  0  0  0
  -39.8980  -69.4280   55.7750 H   0  0  0  0  0  0  0  0  0  0  0  0
  -42.2220  -70.1400   55.0920 H   0  0  0  0  0  0  0  0  0  0  0  0
  -42.2090  -71.5310   53.0710 H   0  0  0  0  0  0  0  0  0  0  0  0
  -40.6920  -70.6700   51.1180 H   0  0  0  0  0  0  0  0  0  0  0  0
  -38.2250  -70.9630   54.6210 H   0  0  0  0  0  0  0  0  0  0  0  0
  -39.6350  -71.4440   53.4230 H   0  0  0  0  0  0  0  0  0  0  0  0
  -44.0340  -65.1300   55.2410 H   0  0  0  0  0  0  0  0  0  0  0  0
  -46.2550  -65.0940   54.5890 H   0  0  0  0  0  0  0  0  0  0  0  0
  -45.5820  -63.8870   52.5810 H   0  0  0  0  0  0  0  0  0  0  0  0
  -46.8010  -65.0970   52.1710 H   0  0  0  0  0  0  0  0  0  0  0  0
  -45.1120  -65.3960   51.7640 H   0  0  0  0  0  0  0  0  0  0  0  0
  -47.2940  -66.8330   53.4400 H   0  0  0  0  0  0  0  0  0  0  0  0
  -46.3070  -67.5270   54.7390 H   0  0  0  0  0  0  0  0  0  0  0  0
  -45.7850  -67.6320   52.9650 H   0  0  0  0  0  0  0  0  0  0  0  0
  1  2  1  0  0  0  0
  2  3  2  0  0  0  0
  3  4  1  0  0  0  0
  3 17  1  0  0  0  0
  4  5  2  0  0  0  0
  6 11  1  0  0  0  0
  6  4  1  0  0  0  0
  7  6  1  0  0  0  0
  8 21  1  6  0  0  0
  8  7  1  0  0  0  0
  8  9  1  0  0  0  0
  9 22  1  1  0  0  0
  9 14  1  0  0  0  0
  9 10  1  0  0  0  0
 10 23  1  1  0  0  0
 11 10  1  0  0  0  0
 11 24  1  1  0  0  0
 12 25  1  0  0  0  0
 12 11  1  0  0  0  0
 13  8  1  0  0  0  0
 13 12  2  0  0  0  0
 14 27  1  0  0  0  0
 14 10  1  0  0  0  0
 15  2  1  0  0  0  0
 15  7  1  0  0  0  0
 16 15  2  0  0  0  0
 17 29  1  0  0  0  0
 18 17  1  0  0  0  0
 18 30  1  0  0  0  0
 19 31  1  0  0  0  0
 19 18  1  0  0  0  0
 20 18  1  0  0  0  0
 20 35  1  0  0  0  0
 26 13  1  0  0  0  0
 28 14  1  0  0  0  0
 32 19  1  0  0  0  0
 33 19  1  0  0  0  0
 34 20  1  0  0  0  0
 36 20  1  0  0  0  0
M  END
>  <Pose>
1

>  <Score>
-4.39

$$$$
