
 OpenBabel03202209423D

 59 62  0  0  1  0  0  0  0  0999 V2000
  -40.9040  -69.1060   53.3630 Cl  0  0  0  0  0  0  0  0  0  0  0  0
  -40.5170  -67.8640   52.1040 C   0  0  2  0  0  0  0  0  0  0  0  0
  -41.2840  -66.7830   52.0630 C   0  0  2  0  0  0  0  0  0  0  0  0
  -40.9530  -65.8250   50.9800 C   0  0  0  0  0  0  0  0  0  0  0  0
  -39.9630  -66.1070   50.2190 N   0  0  0  0  0  0  0  0  0  0  0  0
  -39.1900  -67.2210   50.3070 N   0  0  0  0  0  0  0  0  0  0  0  0
  -39.4530  -68.1010   51.2330 C   0  0  0  0  0  0  0  0  0  0  0  0
  -38.7810  -69.1740   51.4090 O   0  0  0  0  0  0  0  0  0  0  0  0
  -37.9520  -67.2250   49.5290 C   0  0  0  0  0  0  0  0  0  0  0  0
  -36.7320  -67.4230   50.0900 C   0  0  0  0  0  0  0  0  0  0  0  0
  -35.5980  -67.5430   49.3170 C   0  0  0  0  0  0  0  0  0  0  0  0
  -35.6730  -67.4660   47.9270 C   0  0  0  0  0  0  0  0  0  0  0  0
  -36.9380  -67.2550   47.3800 C   0  0  0  0  0  0  0  0  0  0  0  0
  -38.0290  -67.1400   48.1510 C   0  0  0  0  0  0  0  0  0  0  0  0
  -42.1100  -66.3040   53.0680 N   0  0  0  0  0  0  0  0  0  0  0  0
  -42.7310  -66.8640   54.1930 C   0  0  0  0  0  0  0  0  0  0  0  0
  -44.2780  -66.6370   54.0250 C   0  0  0  0  0  0  0  0  0  0  0  0
  -44.7240  -66.2060   52.7950 N   0  0  0  0  0  0  0  0  0  0  0  0
  -43.8440  -65.4430   51.9520 C   0  0  0  0  0  0  0  0  0  0  0  0
  -42.6410  -64.9020   52.7920 C   0  0  0  0  0  0  0  0  0  0  0  0
  -45.9500  -65.3410   52.8300 C   0  0  0  0  0  0  0  0  0  0  0  0
  -46.5290  -65.2550   51.4980 C   0  0  0  0  0  0  0  0  0  0  0  0
  -47.4250  -65.6830   50.9870 O   0  0  0  0  0  0  0  0  0  0  0  0
  -45.5720  -64.2350   50.5160 N   0  0  0  0  0  0  0  0  0  0  0  0
  -46.6960  -63.8840   49.5780 C   0  0  0  0  0  0  0  0  0  0  0  0
  -47.6180  -63.1580   49.8310 O   0  0  0  0  0  0  0  0  0  0  0  0
  -46.5040  -64.5360   48.3040 N   0  0  0  0  0  0  0  0  0  0  0  0
  -47.1200  -64.2210   47.0710 C   0  0  0  0  0  0  0  0  0  0  0  0
  -46.3740  -64.4010   45.8130 C   0  0  0  0  0  0  0  0  0  0  0  0
  -46.6780  -65.8110   45.2960 C   0  0  0  0  0  0  0  0  0  0  0  0
  -48.1090  -65.9860   45.7470 C   0  0  0  0  0  0  0  0  0  0  0  0
  -48.3120  -65.1950   46.9630 C   0  0  0  0  0  0  0  0  0  0  0  0
  -41.6330  -65.0030   51.0000 H   0  0  0  0  0  0  0  0  0  0  0  0
  -36.6400  -67.4640   51.1750 H   0  0  0  0  0  0  0  0  0  0  0  0
  -34.6560  -67.7330   49.7320 H   0  0  0  0  0  0  0  0  0  0  0  0
  -34.7730  -67.5790   47.3660 H   0  0  0  0  0  0  0  0  0  0  0  0
  -36.9640  -67.2250   46.2890 H   0  0  0  0  0  0  0  0  0  0  0  0
  -38.9960  -66.9810   47.6900 H   0  0  0  0  0  0  0  0  0  0  0  0
  -42.5140  -67.8880   54.4650 H   0  0  0  0  0  0  0  0  0  0  0  0
  -42.3940  -66.2570   55.0810 H   0  0  0  0  0  0  0  0  0  0  0  0
  -44.5190  -65.9270   54.8750 H   0  0  0  0  0  0  0  0  0  0  0  0
  -44.7330  -67.6030   54.4060 H   0  0  0  0  0  0  0  0  0  0  0  0
  -43.3230  -66.0350   51.1600 H   0  0  0  0  0  0  0  0  0  0  0  0
  -44.3280  -64.5300   51.6130 H   0  0  0  0  0  0  0  0  0  0  0  0
  -41.9840  -64.2960   52.2440 H   0  0  0  0  0  0  0  0  0  0  0  0
  -43.1050  -64.5130   53.7320 H   0  0  0  0  0  0  0  0  0  0  0  0
  -46.5660  -65.8260   53.5760 H   0  0  0  0  0  0  0  0  0  0  0  0
  -45.6320  -64.3520   53.1760 H   0  0  0  0  0  0  0  0  0  0  0  0
  -44.9980  -64.4200   51.0000 H   0  0  0  0  0  0  0  0  0  0  0  0
  -45.8240  -65.3680   48.3160 H   0  0  0  0  0  0  0  0  0  0  0  0
  -47.4830  -63.1240   47.0820 H   0  0  0  0  0  0  0  0  0  0  0  0
  -46.8100  -63.7110   45.0510 H   0  0  0  0  0  0  0  0  0  0  0  0
  -45.2790  -64.2300   45.8760 H   0  0  0  0  0  0  0  0  0  0  0  0
  -46.0260  -66.5640   45.7880 H   0  0  0  0  0  0  0  0  0  0  0  0
  -46.5930  -65.8630   44.1790 H   0  0  0  0  0  0  0  0  0  0  0  0
  -48.1960  -67.0960   46.0330 H   0  0  0  0  0  0  0  0  0  0  0  0
  -48.8580  -65.7870   44.9540 H   0  0  0  0  0  0  0  0  0  0  0  0
  -49.2910  -64.6920   47.0900 H   0  0  0  0  0  0  0  0  0  0  0  0
  -48.1880  -65.9360   47.8510 H   0  0  0  0  0  0  0  0  0  0  0  0
  2  1  1  6  0  0  0
  3  2  1  0  0  0  0
  3 15  1  1  0  0  0
  4 33  1  0  0  0  0
  4  3  1  0  0  0  0
  5  6  1  0  0  0  0
  5  4  2  0  0  0  0
  6  7  1  0  0  0  0
  7  8  2  0  0  0  0
  7  2  1  0  0  0  0
  9 10  1  0  0  0  0
  9  6  1  0  0  0  0
 10 34  1  0  0  0  0
 11 35  1  0  0  0  0
 11 10  2  0  0  0  0
 12 11  1  0  0  0  0
 13 12  2  0  0  0  0
 13 14  1  0  0  0  0
 14  9  2  0  0  0  0
 15 16  1  0  0  0  0
 16 39  1  0  0  0  0
 16 40  1  0  0  0  0
 17 16  1  0  0  0  0
 17 42  1  0  0  0  0
 17 41  1  0  0  0  0
 18 21  1  0  0  0  0
 18 17  1  0  0  0  0
 19 20  1  0  0  0  0
 19 18  1  0  0  0  0
 20 15  1  0  0  0  0
 20 46  1  0  0  0  0
 21 48  1  0  0  0  0
 21 47  1  0  0  0  0
 22 21  1  0  0  0  0
 23 22  2  0  0  0  0
 24 49  1  0  0  0  0
 24 22  1  0  0  0  0
 25 26  2  0  0  0  0
 25 24  1  0  0  0  0
 27 50  1  0  0  0  0
 27 25  1  0  0  0  0
 28 51  1  0  0  0  0
 28 27  1  0  0  0  0
 29 53  1  0  0  0  0
 29 28  1  0  0  0  0
 30 31  1  0  0  0  0
 30 54  1  0  0  0  0
 30 29  1  0  0  0  0
 31 56  1  0  0  0  0
 31 32  1  0  0  0  0
 32 28  1  0  0  0  0
 32 58  1  0  0  0  0
 32 59  1  0  0  0  0
 36 12  1  0  0  0  0
 37 13  1  0  0  0  0
 38 14  1  0  0  0  0
 43 19  1  0  0  0  0
 44 19  1  0  0  0  0
 45 20  1  0  0  0  0
 52 29  1  0  0  0  0
 55 30  1  0  0  0  0
 57 31  1  0  0  0  0
M  END
>  <Pose>
1

>  <Score>
-6.51

$$$$
