
 OpenBabel03202209423D

 50 54  0  0  0  0  0  0  0  0999 V2000
  -39.6050  -65.4100   48.1000 S   0  0  0  0  0  0  0  0  0  0  0  0
  -40.0420  -64.4460   47.0010 O   0  0  0  0  0  0  0  0  0  0  0  0
  -39.1860  -66.7210   47.4860 O   0  0  0  0  0  0  0  0  0  0  0  0
  -40.8520  -65.5800   49.1810 N   0  0  0  0  0  0  0  0  0  0  0  0
  -41.9500  -64.7160   49.1700 C   0  0  0  0  0  0  0  0  0  0  0  0
  -42.5830  -64.6230   50.5620 C   0  0  0  0  0  0  0  0  0  0  0  0
  -41.5700  -64.3430   51.5000 N   0  0  0  0  0  0  0  0  0  0  0  0
  -40.5180  -65.2860   51.5310 C   0  0  0  0  0  0  0  0  0  0  0  0
  -40.6660  -66.2670   50.3900 C   0  0  0  0  0  0  0  0  0  0  0  0
  -41.9910  -63.8410   52.7690 C   0  0  0  0  0  0  0  0  0  0  0  0
  -43.1150  -64.6730   53.2610 C   0  0  0  0  0  0  0  0  0  0  0  0
  -42.9210  -65.7910   54.0480 C   0  0  0  0  0  0  0  0  0  0  0  0
  -43.9270  -66.5910   54.5290 C   0  0  0  0  0  0  0  0  0  0  0  0
  -43.6230  -67.5990   55.2470 O   0  0  0  0  0  0  0  0  0  0  0  0
  -45.2260  -66.2920   54.2270 N   0  0  0  0  0  0  0  0  0  0  0  0
  -46.2470  -66.9500   54.6080 N   0  0  0  0  0  0  0  0  0  0  0  0
  -47.4600  -66.6100   54.2830 C   0  0  0  0  0  0  0  0  0  0  0  0
  -47.1220  -65.2060   53.3360 S   0  0  0  0  0  0  0  0  0  0  0  0
  -45.4100  -65.2120   53.4660 C   0  0  0  0  0  0  0  0  0  0  0  0
  -44.4160  -64.4260   52.9960 N   0  0  0  0  0  0  0  0  0  0  0  0
  -48.7640  -67.2050   54.5990 C   0  0  0  0  0  0  0  0  0  0  0  0
  -49.0140  -68.5010   54.2030 C   0  0  0  0  0  0  0  0  0  0  0  0
  -50.2270  -69.1200   54.4720 C   0  0  0  0  0  0  0  0  0  0  0  0
  -51.2110  -68.4320   55.1510 C   0  0  0  0  0  0  0  0  0  0  0  0
  -50.9830  -67.1290   55.5590 C   0  0  0  0  0  0  0  0  0  0  0  0
  -49.7650  -66.5580   55.2690 C   0  0  0  0  0  0  0  0  0  0  0  0
  -52.7310  -69.1920   55.4940 Cl  0  0  0  0  0  0  0  0  0  0  0  0
  -38.2140  -64.6580   48.8500 C   0  0  0  0  0  0  0  0  0  0  0  0
  -36.9900  -65.2210   49.0460 N   0  0  0  0  0  0  0  0  0  0  0  0
  -36.1750  -64.3560   49.6510 C   0  0  0  0  0  0  0  0  0  0  0  0
  -36.8270  -63.2060   49.8700 N   0  0  0  0  0  0  0  0  0  0  0  0
  -38.0810  -63.3960   49.3760 C   0  0  0  0  0  0  0  0  0  0  0  0
  -42.7190  -65.1540   48.4570 H   0  0  0  0  0  0  0  0  0  0  0  0
  -41.7620  -63.6650   48.8480 H   0  0  0  0  0  0  0  0  0  0  0  0
  -43.0170  -65.6240   50.7660 H   0  0  0  0  0  0  0  0  0  0  0  0
  -43.4000  -63.8680   50.5640 H   0  0  0  0  0  0  0  0  0  0  0  0
  -39.5570  -64.7520   51.3520 H   0  0  0  0  0  0  0  0  0  0  0  0
  -40.4780  -65.8770   52.4820 H   0  0  0  0  0  0  0  0  0  0  0  0
  -39.7490  -66.9270   50.3240 H   0  0  0  0  0  0  0  0  0  0  0  0
  -41.5150  -66.9620   50.5720 H   0  0  0  0  0  0  0  0  0  0  0  0
  -42.3610  -62.8060   52.6230 H   0  0  0  0  0  0  0  0  0  0  0  0
  -41.1630  -63.9160   53.4780 H   0  0  0  0  0  0  0  0  0  0  0  0
  -41.8610  -66.0180   54.2830 H   0  0  0  0  0  0  0  0  0  0  0  0
  -48.2800  -69.0860   53.6700 H   0  0  0  0  0  0  0  0  0  0  0  0
  -50.4520  -70.1340   54.1750 H   0  0  0  0  0  0  0  0  0  0  0  0
  -51.7540  -66.5890   56.0910 H   0  0  0  0  0  0  0  0  0  0  0  0
  -49.5980  -65.5460   55.5900 H   0  0  0  0  0  0  0  0  0  0  0  0
  -35.1460  -64.5550   49.9200 H   0  0  0  0  0  0  0  0  0  0  0  0
  -36.4520  -62.3550   50.3220 H   0  0  0  0  0  0  0  0  0  0  0  0
  -38.8340  -62.6320   49.4160 H   0  0  0  0  0  0  0  0  0  0  0  0
  1 28  1  0  0  0  0
  1  4  1  0  0  0  0
  2  1  2  0  0  0  0
  3  1  2  0  0  0  0
  4  9  1  0  0  0  0
  5  4  1  0  0  0  0
  5  6  1  0  0  0  0
  6 36  1  0  0  0  0
  6 35  1  0  0  0  0
  6  7  1  0  0  0  0
  7  8  1  0  0  0  0
  7 10  1  0  0  0  0
  8 38  1  0  0  0  0
  9 40  1  0  0  0  0
  9  8  1  0  0  0  0
 10 11  1  0  0  0  0
 10 42  1  0  0  0  0
 11 12  2  0  0  0  0
 12 43  1  0  0  0  0
 12 13  1  0  0  0  0
 13 14  2  0  0  0  0
 15 13  1  0  0  0  0
 15 16  1  0  0  0  0
 17 21  1  0  0  0  0
 17 16  2  0  0  0  0
 18 19  1  0  0  0  0
 18 17  1  0  0  0  0
 19 15  1  0  0  0  0
 20 11  1  0  0  0  0
 20 19  2  0  0  0  0
 21 26  1  0  0  0  0
 22 23  1  0  0  0  0
 22 21  2  0  0  0  0
 23 24  2  0  0  0  0
 24 27  1  0  0  0  0
 24 25  1  0  0  0  0
 25 46  1  0  0  0  0
 26 25  2  0  0  0  0
 26 47  1  0  0  0  0
 28 29  1  0  0  0  0
 28 32  2  0  0  0  0
 29 30  2  0  0  0  0
 30 31  1  0  0  0  0
 30 48  1  0  0  0  0
 31 49  1  0  0  0  0
 32 50  1  0  0  0  0
 32 31  1  0  0  0  0
 33  5  1  0  0  0  0
 34  5  1  0  0  0  0
 37  8  1  0  0  0  0
 39  9  1  0  0  0  0
 41 10  1  0  0  0  0
 44 22  1  0  0  0  0
 45 23  1  0  0  0  0
M  END
>  <Pose>
1

>  <Score>
-6.79

$$$$
