
 OpenBabel03202209423D

 55 58  0  0  0  0  0  0  0  0999 V2000
  -41.8210  -69.1500   54.4980 S   0  0  0  0  0  0  0  0  0  0  0  0
  -41.3800  -69.5390   55.8970 O   0  0  0  0  0  0  0  0  0  0  0  0
  -43.0200  -69.9410   54.1110 O   0  0  0  0  0  0  0  0  0  0  0  0
  -42.2750  -67.4310   54.5580 N   0  0  0  0  0  0  0  0  0  0  0  0
  -41.6410  -66.8280   53.4230 C   0  0  0  0  0  0  0  0  0  0  0  0
  -42.3180  -65.5310   52.9420 C   0  0  0  0  0  0  0  0  0  0  0  0
  -43.6870  -65.8550   52.6920 N   0  0  0  0  0  0  0  0  0  0  0  0
  -44.3090  -66.1440   53.9540 C   0  0  0  0  0  0  0  0  0  0  0  0
  -43.7620  -67.4910   54.3370 C   0  0  0  0  0  0  0  0  0  0  0  0
  -44.3510  -65.2410   51.6450 C   0  0  0  0  0  0  0  0  0  0  0  0
  -44.7710  -63.8500   51.8310 C   0  0  0  0  0  0  0  0  0  0  0  0
  -44.5330  -63.4090   53.0400 O   0  0  0  0  0  0  0  0  0  0  0  0
  -45.3460  -62.9450   50.9860 N   0  0  0  0  0  0  0  0  0  0  0  0
  -46.0210  -63.2810   49.7300 C   0  0  0  0  0  0  0  0  0  0  0  0
  -47.3320  -63.8870   50.0370 C   0  0  0  0  0  0  0  0  0  0  0  0
  -48.4590  -63.0810   50.3170 C   0  0  0  0  0  0  0  0  0  0  0  0
  -49.6310  -63.5850   50.7340 C   0  0  0  0  0  0  0  0  0  0  0  0
  -49.7890  -64.9950   50.9120 C   0  0  0  0  0  0  0  0  0  0  0  0
  -48.7300  -65.7720   50.6600 C   0  0  0  0  0  0  0  0  0  0  0  0
  -47.4960  -65.2710   50.2290 C   0  0  0  0  0  0  0  0  0  0  0  0
  -48.3040  -61.3220   50.0810 Cl  0  0  0  0  0  0  0  0  0  0  0  0
  -40.5250  -69.4380   53.4060 C   0  0  0  0  0  0  0  0  0  0  0  0
  -40.4490  -68.5490   52.3250 C   0  0  0  0  0  0  0  0  0  0  0  0
  -39.4130  -68.5640   51.3880 C   0  0  0  0  0  0  0  0  0  0  0  0
  -38.4050  -69.5110   51.5400 C   0  0  0  0  0  0  0  0  0  0  0  0
  -38.4970  -70.3850   52.6080 C   0  0  0  0  0  0  0  0  0  0  0  0
  -39.5310  -70.3590   53.5360 C   0  0  0  0  0  0  0  0  0  0  0  0
  -37.4090  -69.4650   50.5820 O   0  0  0  0  0  0  0  0  0  0  0  0
  -36.9790  -68.1530   50.1300 C   0  0  0  0  0  0  0  0  0  0  0  0
  -38.1150  -67.2110   49.9060 C   0  0  0  0  0  0  0  0  0  0  0  0
  -39.3750  -67.6730   50.3290 O   0  0  0  0  0  0  0  0  0  0  0  0
  -40.6170  -66.4800   53.8000 H   0  0  0  0  0  0  0  0  0  0  0  0
  -41.4090  -67.4560   52.5530 H   0  0  0  0  0  0  0  0  0  0  0  0
  -42.2390  -64.7850   53.7340 H   0  0  0  0  0  0  0  0  0  0  0  0
  -41.8770  -65.1490   52.0320 H   0  0  0  0  0  0  0  0  0  0  0  0
  -44.0180  -65.4270   54.7150 H   0  0  0  0  0  0  0  0  0  0  0  0
  -45.4130  -66.2930   53.8140 H   0  0  0  0  0  0  0  0  0  0  0  0
  -43.8600  -68.1730   53.4280 H   0  0  0  0  0  0  0  0  0  0  0  0
  -44.1990  -67.8420   55.2500 H   0  0  0  0  0  0  0  0  0  0  0  0
  -45.3230  -65.8870   51.5180 H   0  0  0  0  0  0  0  0  0  0  0  0
  -43.8940  -65.3900   50.6290 H   0  0  0  0  0  0  0  0  0  0  0  0
  -45.3960  -61.8880   51.1710 H   0  0  0  0  0  0  0  0  0  0  0  0
  -46.2670  -62.2390   49.3080 H   0  0  0  0  0  0  0  0  0  0  0  0
  -45.3820  -63.8500   49.0940 H   0  0  0  0  0  0  0  0  0  0  0  0
  -50.4520  -62.9510   50.9310 H   0  0  0  0  0  0  0  0  0  0  0  0
  -50.7270  -65.3730   51.2400 H   0  0  0  0  0  0  0  0  0  0  0  0
  -48.7900  -66.8570   50.7920 H   0  0  0  0  0  0  0  0  0  0  0  0
  -46.6850  -65.9420   50.0760 H   0  0  0  0  0  0  0  0  0  0  0  0
  -41.2740  -67.8170   52.2140 H   0  0  0  0  0  0  0  0  0  0  0  0
  -37.7210  -71.1010   52.6740 H   0  0  0  0  0  0  0  0  0  0  0  0
  -39.5400  -71.0510   54.3530 H   0  0  0  0  0  0  0  0  0  0  0  0
  -36.2670  -67.7950   50.9460 H   0  0  0  0  0  0  0  0  0  0  0  0
  -36.4140  -68.2710   49.2060 H   0  0  0  0  0  0  0  0  0  0  0  0
  -38.1960  -66.9570   48.8430 H   0  0  0  0  0  0  0  0  0  0  0  0
  -37.8560  -66.2740   50.4740 H   0  0  0  0  0  0  0  0  0  0  0  0
  1  4  1  0  0  0  0
  1  2  2  0  0  0  0
  3  1  2  0  0  0  0
  5 32  1  0  0  0  0
  5  4  1  0  0  0  0
  6  5  1  0  0  0  0
  6 34  1  0  0  0  0
  7  6  1  0  0  0  0
  7  8  1  0  0  0  0
  8  9  1  0  0  0  0
  8 36  1  0  0  0  0
  9  4  1  0  0  0  0
  9 39  1  0  0  0  0
 10 11  1  0  0  0  0
 10  7  1  0  0  0  0
 11 12  2  0  0  0  0
 13 42  1  0  0  0  0
 13 11  1  0  0  0  0
 14 15  1  0  0  0  0
 14 13  1  0  0  0  0
 15 20  2  0  0  0  0
 15 16  1  0  0  0  0
 16 17  2  0  0  0  0
 17 18  1  0  0  0  0
 17 45  1  0  0  0  0
 18 46  1  0  0  0  0
 19 47  1  0  0  0  0
 19 18  2  0  0  0  0
 20 19  1  0  0  0  0
 21 16  1  0  0  0  0
 22 27  1  0  0  0  0
 22  1  1  0  0  0  0
 23 22  2  0  0  0  0
 24 25  2  0  0  0  0
 24 23  1  0  0  0  0
 25 26  1  0  0  0  0
 26 50  1  0  0  0  0
 26 27  2  0  0  0  0
 27 51  1  0  0  0  0
 28 25  1  0  0  0  0
 29 28  1  0  0  0  0
 29 52  1  0  0  0  0
 30 29  1  0  0  0  0
 30 31  1  0  0  0  0
 30 55  1  0  0  0  0
 31 24  1  0  0  0  0
 33  5  1  0  0  0  0
 35  6  1  0  0  0  0
 37  8  1  0  0  0  0
 38  9  1  0  0  0  0
 40 10  1  0  0  0  0
 41 10  1  0  0  0  0
 43 14  1  0  0  0  0
 44 14  1  0  0  0  0
 48 20  1  0  0  0  0
 49 23  1  0  0  0  0
 53 29  1  0  0  0  0
 54 30  1  0  0  0  0
M  END
>  <Pose>
1

>  <Score>
-6.13

$$$$
