
 OpenBabel03202209423D

 68 71  0  0  0  0  0  0  0  0999 V2000
  -38.6340  -64.3300   47.6950 S   0  0  0  0  0  0  0  0  0  0  0  0
  -39.6700  -64.5610   46.6220 O   0  0  0  0  0  0  0  0  0  0  0  0
  -38.2420  -62.8750   47.5710 O   0  0  0  0  0  0  0  0  0  0  0  0
  -39.1370  -64.7730   49.2160 N   0  0  0  0  0  0  0  0  0  0  0  0
  -38.7270  -65.9290   49.8470 C   0  0  0  0  0  0  0  0  0  0  0  0
  -39.9090  -66.6870   50.3890 C   0  0  0  0  0  0  0  0  0  0  0  0
  -40.8930  -65.9080   51.0500 N   0  0  0  0  0  0  0  0  0  0  0  0
  -40.4530  -64.5630   51.2450 C   0  0  0  0  0  0  0  0  0  0  0  0
  -40.0250  -63.9500   49.9150 C   0  0  0  0  0  0  0  0  0  0  0  0
  -42.1950  -65.9750   50.4530 C   0  0  0  0  0  0  0  0  0  0  0  0
  -43.2730  -65.9350   51.4980 C   0  0  0  0  0  0  0  0  0  0  0  0
  -42.9450  -66.2560   52.6610 O   0  0  0  0  0  0  0  0  0  0  0  0
  -44.5980  -65.5500   51.1750 N   0  0  0  0  0  0  0  0  0  0  0  0
  -45.4310  -65.0780   52.2440 C   0  0  0  0  0  0  0  0  0  0  0  0
  -46.7950  -64.6350   51.8780 C   0  0  0  0  0  0  0  0  0  0  0  0
  -47.4590  -64.0080   53.0790 C   0  0  0  0  0  0  0  0  0  0  0  0
  -48.2570  -65.0280   53.8970 C   0  0  0  0  0  0  0  0  0  0  0  0
  -49.4580  -65.5080   53.1060 C   0  0  0  0  0  0  0  0  0  0  0  0
  -49.0680  -65.4940   51.6400 C   0  0  0  0  0  0  0  0  0  0  0  0
  -47.6130  -65.9090   51.5900 C   0  0  0  0  0  0  0  0  0  0  0  0
  -46.9440  -63.8060   50.7440 N   0  0  0  0  0  0  0  0  0  0  0  0
  -45.9520  -62.8220   50.4920 C   0  0  0  0  0  0  0  0  0  0  0  0
  -46.5880  -61.8250   49.5050 C   0  0  0  0  0  0  0  0  0  0  0  0
  -46.8790  -62.4560   48.3200 O   0  0  0  0  0  0  0  0  0  0  0  0
  -46.5880  -63.7970   48.3030 C   0  0  0  0  0  0  0  0  0  0  0  0
  -47.1760  -64.5270   49.5110 C   0  0  0  0  0  0  0  0  0  0  0  0
  -37.2370  -65.2930   47.2230 C   0  0  0  0  0  0  0  0  0  0  0  0
  -36.0830  -64.7030   46.7870 C   0  0  0  0  0  0  0  0  0  0  0  0
  -34.9930  -65.4470   46.4190 C   0  0  0  0  0  0  0  0  0  0  0  0
  -35.0690  -66.8210   46.4910 C   0  0  0  0  0  0  0  0  0  0  0  0
  -36.2340  -67.4210   46.9310 C   0  0  0  0  0  0  0  0  0  0  0  0
  -37.3180  -66.6650   47.2980 C   0  0  0  0  0  0  0  0  0  0  0  0
  -33.6560  -67.7460   46.0130 Cl  0  0  0  0  0  0  0  0  0  0  0  0
  -38.0400  -65.7860   50.7310 H   0  0  0  0  0  0  0  0  0  0  0  0
  -38.1620  -66.6380   49.1870 H   0  0  0  0  0  0  0  0  0  0  0  0
  -39.5230  -67.4430   51.1240 H   0  0  0  0  0  0  0  0  0  0  0  0
  -40.3140  -67.2900   49.5480 H   0  0  0  0  0  0  0  0  0  0  0  0
  -39.5510  -64.5520   51.9210 H   0  0  0  0  0  0  0  0  0  0  0  0
  -41.2780  -63.9570   51.6350 H   0  0  0  0  0  0  0  0  0  0  0  0
  -40.9670  -63.7100   49.3420 H   0  0  0  0  0  0  0  0  0  0  0  0
  -39.5560  -62.9500   50.1530 H   0  0  0  0  0  0  0  0  0  0  0  0
  -42.3230  -66.8300   49.7590 H   0  0  0  0  0  0  0  0  0  0  0  0
  -42.3450  -65.0570   49.8470 H   0  0  0  0  0  0  0  0  0  0  0  0
  -44.9040  -65.6280   50.1690 H   0  0  0  0  0  0  0  0  0  0  0  0
  -45.4650  -65.8920   53.0030 H   0  0  0  0  0  0  0  0  0  0  0  0
  -44.9330  -64.1820   52.7270 H   0  0  0  0  0  0  0  0  0  0  0  0
  -48.2070  -63.2290   52.7820 H   0  0  0  0  0  0  0  0  0  0  0  0
  -46.7110  -63.5920   53.7910 H   0  0  0  0  0  0  0  0  0  0  0  0
  -48.6310  -64.4930   54.7900 H   0  0  0  0  0  0  0  0  0  0  0  0
  -47.6230  -65.8590   54.2510 H   0  0  0  0  0  0  0  0  0  0  0  0
  -49.6870  -66.5490   53.4150 H   0  0  0  0  0  0  0  0  0  0  0  0
  -50.3050  -64.8530   53.3220 H   0  0  0  0  0  0  0  0  0  0  0  0
  -49.6950  -66.1940   51.0360 H   0  0  0  0  0  0  0  0  0  0  0  0
  -49.1430  -64.4630   51.2380 H   0  0  0  0  0  0  0  0  0  0  0  0
  -47.4050  -66.3190   50.6050 H   0  0  0  0  0  0  0  0  0  0  0  0
  -47.3650  -66.6900   52.3400 H   0  0  0  0  0  0  0  0  0  0  0  0
  -45.6950  -62.1990   51.3740 H   0  0  0  0  0  0  0  0  0  0  0  0
  -45.0320  -63.1780   49.9880 H   0  0  0  0  0  0  0  0  0  0  0  0
  -47.5700  -61.5410   49.9770 H   0  0  0  0  0  0  0  0  0  0  0  0
  -45.9600  -60.9370   49.4030 H   0  0  0  0  0  0  0  0  0  0  0  0
  -45.4950  -64.0260   48.1970 H   0  0  0  0  0  0  0  0  0  0  0  0
  -47.0680  -64.2660   47.4080 H   0  0  0  0  0  0  0  0  0  0  0  0
  -48.2680  -64.6010   49.3460 H   0  0  0  0  0  0  0  0  0  0  0  0
  -46.7380  -65.5410   49.4910 H   0  0  0  0  0  0  0  0  0  0  0  0
  -36.0050  -63.6070   46.7230 H   0  0  0  0  0  0  0  0  0  0  0  0
  -34.0780  -64.9640   46.0720 H   0  0  0  0  0  0  0  0  0  0  0  0
  -36.2790  -68.5100   46.9840 H   0  0  0  0  0  0  0  0  0  0  0  0
  -38.2280  -67.1630   47.6410 H   0  0  0  0  0  0  0  0  0  0  0  0
  1  4  1  0  0  0  0
  2  1  2  0  0  0  0
  3  1  2  0  0  0  0
  4  5  1  0  0  0  0
  4  9  1  0  0  0  0
  5  6  1  0  0  0  0
  5 34  1  0  0  0  0
  6  7  1  0  0  0  0
  6 36  1  0  0  0  0
  7  8  1  0  0  0  0
  8 39  1  0  0  0  0
  8 38  1  0  0  0  0
  9 41  1  0  0  0  0
  9  8  1  0  0  0  0
 10  7  1  0  0  0  0
 10 11  1  0  0  0  0
 11 12  2  0  0  0  0
 13 11  1  0  0  0  0
 13 14  1  0  0  0  0
 14 46  1  0  0  0  0
 14 45  1  0  0  0  0
 15 14  1  0  0  0  0
 15 16  1  0  0  0  0
 16 48  1  0  0  0  0
 16 17  1  0  0  0  0
 17 50  1  0  0  0  0
 17 49  1  0  0  0  0
 18 52  1  0  0  0  0
 18 51  1  0  0  0  0
 18 17  1  0  0  0  0
 19 18  1  0  0  0  0
 20 19  1  0  0  0  0
 20 15  1  0  0  0  0
 20 56  1  0  0  0  0
 21 15  1  0  0  0  0
 22 21  1  0  0  0  0
 22 57  1  0  0  0  0
 23 59  1  0  0  0  0
 23 22  1  0  0  0  0
 24 23  1  0  0  0  0
 25 24  1  0  0  0  0
 25 26  1  0  0  0  0
 26 21  1  0  0  0  0
 27 32  1  0  0  0  0
 27  1  1  0  0  0  0
 28 27  2  0  0  0  0
 29 30  2  0  0  0  0
 29 28  1  0  0  0  0
 30 31  1  0  0  0  0
 31 67  1  0  0  0  0
 31 32  2  0  0  0  0
 32 68  1  0  0  0  0
 33 30  1  0  0  0  0
 35  5  1  0  0  0  0
 37  6  1  0  0  0  0
 40  9  1  0  0  0  0
 42 10  1  0  0  0  0
 43 10  1  0  0  0  0
 44 13  1  0  0  0  0
 47 16  1  0  0  0  0
 53 19  1  0  0  0  0
 54 19  1  0  0  0  0
 55 20  1  0  0  0  0
 58 22  1  0  0  0  0
 60 23  1  0  0  0  0
 61 25  1  0  0  0  0
 62 25  1  0  0  0  0
 63 26  1  0  0  0  0
 64 26  1  0  0  0  0
 65 28  1  0  0  0  0
 66 29  1  0  0  0  0
M  END
>  <Pose>
1

>  <Score>
-5.05

$$$$
