
 OpenBabel03202209423D

 50 53  0  0  1  0  0  0  0  0999 V2000
  -44.2150  -64.2820   51.9250 S   0  0  0  0  0  0  0  0  0  0  0  0
  -43.7480  -64.1480   50.5100 O   0  0  0  0  0  0  0  0  0  0  0  0
  -43.8460  -62.9980   52.6260 O   0  0  0  0  0  0  0  0  0  0  0  0
  -45.9010  -64.4630   51.9940 N   0  0  0  0  0  0  0  0  0  0  0  0
  -46.4710  -64.4290   53.2880 C   0  0  0  0  0  0  0  0  0  0  0  0
  -47.7900  -65.1430   53.4200 C   0  0  0  0  0  0  0  0  0  0  0  0
  -47.8210  -66.4040   52.7330 N   0  0  0  0  0  0  0  0  0  0  0  0
  -46.7390  -66.6790   51.8210 C   0  0  0  0  0  0  0  0  0  0  0  0
  -46.4620  -65.3820   51.0670 C   0  0  0  0  0  0  0  0  0  0  0  0
  -48.8760  -67.3040   52.9590 C   0  0  0  0  0  0  0  0  0  0  0  0
  -50.0040  -67.0050   52.4740 O   0  0  0  0  0  0  0  0  0  0  0  0
  -48.7460  -68.5730   53.7260 C   0  0  2  0  0  0  0  0  0  0  0  0
  -49.9510  -69.3170   53.7230 N   0  0  0  0  0  0  0  0  0  0  0  0
  -50.8690  -69.0480   54.7810 C   0  0  2  0  0  0  0  0  0  0  0  0
  -49.7820  -68.5910   56.1470 S   0  0  0  0  0  0  0  0  0  0  0  0
  -48.2710  -68.3460   55.1310 C   0  0  0  0  0  0  0  0  0  0  0  0
  -51.4290  -70.4220   55.0960 C   0  0  0  0  0  0  0  0  0  0  0  0
  -51.7270  -70.8920   53.6660 C   0  0  0  0  0  0  0  0  0  0  0  0
  -50.5960  -70.3370   52.9260 C   0  0  0  0  0  0  0  0  0  0  0  0
  -50.2640  -70.7190   51.7630 O   0  0  0  0  0  0  0  0  0  0  0  0
  -51.9280  -68.0580   54.4960 C   0  0  0  0  0  0  0  0  0  0  0  0
  -43.3500  -65.5730   52.7540 C   0  0  0  0  0  0  0  0  0  0  0  0
  -43.8520  -66.1190   53.9140 C   0  0  0  0  0  0  0  0  0  0  0  0
  -43.2010  -67.1270   54.5860 C   0  0  0  0  0  0  0  0  0  0  0  0
  -42.0040  -67.6420   54.1240 C   0  0  0  0  0  0  0  0  0  0  0  0
  -41.5240  -67.0730   52.9560 C   0  0  0  0  0  0  0  0  0  0  0  0
  -42.1640  -66.0670   52.2740 C   0  0  0  0  0  0  0  0  0  0  0  0
  -41.1480  -68.9240   54.9550 Cl  0  0  0  0  0  0  0  0  0  0  0  0
  -46.5360  -63.3850   53.6540 H   0  0  0  0  0  0  0  0  0  0  0  0
  -45.7620  -64.9520   53.9880 H   0  0  0  0  0  0  0  0  0  0  0  0
  -48.5810  -64.4360   53.0840 H   0  0  0  0  0  0  0  0  0  0  0  0
  -48.0040  -65.2950   54.5180 H   0  0  0  0  0  0  0  0  0  0  0  0
  -46.9610  -67.5050   51.1210 H   0  0  0  0  0  0  0  0  0  0  0  0
  -45.8440  -66.9160   52.4430 H   0  0  0  0  0  0  0  0  0  0  0  0
  -47.3610  -65.0170   50.5670 H   0  0  0  0  0  0  0  0  0  0  0  0
  -45.7030  -65.5690   50.2630 H   0  0  0  0  0  0  0  0  0  0  0  0
  -47.9300  -69.1440   53.2320 H   0  0  0  0  0  0  0  0  0  0  0  0
  -47.5300  -69.0810   55.4840 H   0  0  0  0  0  0  0  0  0  0  0  0
  -47.8490  -67.3370   55.3110 H   0  0  0  0  0  0  0  0  0  0  0  0
  -50.5920  -71.0050   55.5410 H   0  0  0  0  0  0  0  0  0  0  0  0
  -52.3260  -70.3890   55.7120 H   0  0  0  0  0  0  0  0  0  0  0  0
  -51.7260  -72.0100   53.6680 H   0  0  0  0  0  0  0  0  0  0  0  0
  -52.6800  -70.4520   53.3580 H   0  0  0  0  0  0  0  0  0  0  0  0
  -52.8170  -68.3030   55.1500 H   0  0  0  0  0  0  0  0  0  0  0  0
  -51.6540  -67.0130   54.8020 H   0  0  0  0  0  0  0  0  0  0  0  0
  -52.3180  -68.1040   53.4620 H   0  0  0  0  0  0  0  0  0  0  0  0
  -44.8010  -65.7220   54.2950 H   0  0  0  0  0  0  0  0  0  0  0  0
  -43.6120  -67.5490   55.5040 H   0  0  0  0  0  0  0  0  0  0  0  0
  -40.5750  -67.4980   52.6120 H   0  0  0  0  0  0  0  0  0  0  0  0
  -41.7290  -65.6780   51.3760 H   0  0  0  0  0  0  0  0  0  0  0  0
  1  4  1  0  0  0  0
  1  3  2  0  0  0  0
  1 22  1  0  0  0  0
  2  1  2  0  0  0  0
  4  5  1  0  0  0  0
  5  6  1  0  0  0  0
  5 29  1  0  0  0  0
  5 30  1  0  0  0  0
  6 32  1  0  0  0  0
  7 10  1  0  0  0  0
  7  6  1  0  0  0  0
  8 34  1  0  0  0  0
  8  7  1  0  0  0  0
  9  8  1  0  0  0  0
  9  4  1  0  0  0  0
 10 12  1  0  0  0  0
 11 10  2  0  0  0  0
 12 37  1  6  0  0  0
 12 16  1  0  0  0  0
 13 12  1  0  0  0  0
 13 14  1  0  0  0  0
 14 21  1  6  0  0  0
 14 17  1  0  0  0  0
 14 15  1  0  0  0  0
 16 39  1  0  0  0  0
 16 38  1  0  0  0  0
 16 15  1  0  0  0  0
 17 40  1  0  0  0  0
 17 41  1  0  0  0  0
 18 42  1  0  0  0  0
 18 17  1  0  0  0  0
 19 18  1  0  0  0  0
 19 13  1  0  0  0  0
 20 19  2  0  0  0  0
 21 45  1  0  0  0  0
 21 44  1  0  0  0  0
 22 23  1  0  0  0  0
 23 47  1  0  0  0  0
 23 24  2  0  0  0  0
 24 48  1  0  0  0  0
 25 24  1  0  0  0  0
 25 28  1  0  0  0  0
 26 25  2  0  0  0  0
 27 22  2  0  0  0  0
 27 26  1  0  0  0  0
 31  6  1  0  0  0  0
 33  8  1  0  0  0  0
 35  9  1  0  0  0  0
 36  9  1  0  0  0  0
 43 18  1  0  0  0  0
 46 21  1  0  0  0  0
 49 26  1  0  0  0  0
 50 27  1  0  0  0  0
M  END
>  <Pose>
1

>  <Score>
-5.51

$$$$
