
 OpenBabel03202209423D

 44 47  0  0  1  0  0  0  0  0999 V2000
  -48.2330  -67.0530   54.7820 B   0  0  0  0  0  0  0  0  0  0  0  0
  -46.8340  -66.2620   53.7410 C   0  0  0  0  0  0  0  0  0  0  0  0
  -45.5240  -66.6810   53.8500 C   0  0  0  0  0  0  0  0  0  0  0  0
  -44.5050  -66.1180   53.1010 C   0  0  0  0  0  0  0  0  0  0  0  0
  -44.8650  -65.1090   52.2340 C   0  0  0  0  0  0  0  0  0  0  0  0
  -46.1600  -64.6630   52.1000 C   0  0  0  0  0  0  0  0  0  0  0  0
  -47.1690  -65.2370   52.8560 C   0  0  0  0  0  0  0  0  0  0  0  0
  -46.5920  -63.2580   50.8770 B   0  0  0  0  0  0  0  0  0  0  0  0
  -43.2260  -66.7430   53.4040 C   0  0  0  0  0  0  0  0  0  0  0  0
  -42.0600  -66.5110   52.9300 N   0  0  0  0  0  0  0  0  0  0  0  0
  -40.9230  -67.2150   53.3380 N   0  0  0  0  0  0  0  0  0  0  0  0
  -40.1180  -67.8100   52.3400 C   0  0  0  0  0  0  0  0  0  0  0  0
  -40.0030  -69.0520   52.2780 O   0  0  0  0  0  0  0  0  0  0  0  0
  -39.3740  -67.0020   51.3240 C   0  0  0  0  0  0  0  0  0  0  0  0
  -40.2420  -66.5060   50.2910 N   0  0  0  0  0  0  0  0  0  0  0  0
  -40.1190  -65.2020   49.7400 C   0  0  0  0  0  0  0  0  0  0  0  0
  -40.9050  -64.3140   50.1360 O   0  0  0  0  0  0  0  0  0  0  0  0
  -39.1030  -64.8340   48.7090 C   0  0  2  0  0  0  0  0  0  0  0  0
  -38.2000  -65.8740   48.4720 O   0  0  0  0  0  0  0  0  0  0  0  0
  -36.8580  -65.8640   48.8450 C   0  0  0  0  0  0  0  0  0  0  0  0
  -36.3000  -64.6450   49.1230 C   0  0  0  0  0  0  0  0  0  0  0  0
  -34.9570  -64.6050   49.4980 C   0  0  0  0  0  0  0  0  0  0  0  0
  -34.1820  -65.7380   49.5950 C   0  0  0  0  0  0  0  0  0  0  0  0
  -34.7800  -66.9500   49.3060 C   0  0  0  0  0  0  0  0  0  0  0  0
  -36.1040  -66.9950   48.9370 C   0  0  0  0  0  0  0  0  0  0  0  0
  -37.0600  -63.5120   49.0290 O   0  0  0  0  0  0  0  0  0  0  0  0
  -38.4610  -63.5190   48.9830 C   0  0  0  0  0  0  0  0  0  0  0  0
  -43.5150  -67.7630   54.4180 C   0  0  0  0  0  0  0  0  0  0  0  0
  -42.6400  -68.5140   54.9270 O   0  0  0  0  0  0  0  0  0  0  0  0
  -44.9070  -67.6840   54.6500 N   0  0  0  0  0  0  0  0  0  0  0  0
  -44.1060  -64.6400   51.6310 H   0  0  0  0  0  0  0  0  0  0  0  0
  -48.1780  -64.9090   52.7670 H   0  0  0  0  0  0  0  0  0  0  0  0
  -40.7300  -67.2640   54.3610 H   0  0  0  0  0  0  0  0  0  0  0  0
  -38.9580  -66.1340   51.8810 H   0  0  0  0  0  0  0  0  0  0  0  0
  -38.5080  -67.5690   50.9160 H   0  0  0  0  0  0  0  0  0  0  0  0
  -41.0100  -67.0980   49.8970 H   0  0  0  0  0  0  0  0  0  0  0  0
  -39.7030  -64.7330   47.7570 H   0  0  0  0  0  0  0  0  0  0  0  0
  -34.5370  -63.6300   49.7130 H   0  0  0  0  0  0  0  0  0  0  0  0
  -33.1470  -65.6630   49.8890 H   0  0  0  0  0  0  0  0  0  0  0  0
  -34.1540  -67.8550   49.3870 H   0  0  0  0  0  0  0  0  0  0  0  0
  -36.5460  -67.9570   48.7150 H   0  0  0  0  0  0  0  0  0  0  0  0
  -38.7910  -62.7530   48.2150 H   0  0  0  0  0  0  0  0  0  0  0  0
  -38.8210  -63.1300   49.9630 H   0  0  0  0  0  0  0  0  0  0  0  0
  -45.4190  -68.2820   55.3200 H   0  0  0  0  0  0  0  0  0  0  0  0
  2  3  1  0  0  0  0
  2  1  1  0  0  0  0
  3 30  1  0  0  0  0
  4  9  1  0  0  0  0
  4  3  2  0  0  0  0
  5  4  1  0  0  0  0
  6  5  2  0  0  0  0
  6  7  1  0  0  0  0
  7  2  2  0  0  0  0
  8  6  1  0  0  0  0
  9 28  1  0  0  0  0
 10 11  1  0  0  0  0
 10  9  2  0  0  0  0
 11 33  1  0  0  0  0
 12 11  1  0  0  0  0
 13 12  2  0  0  0  0
 14 34  1  0  0  0  0
 14 12  1  0  0  0  0
 15 14  1  0  0  0  0
 16 17  2  0  0  0  0
 16 15  1  0  0  0  0
 18 37  1  6  0  0  0
 18 27  1  0  0  0  0
 18 16  1  0  0  0  0
 19 18  1  0  0  0  0
 19 20  1  0  0  0  0
 20 25  2  0  0  0  0
 20 21  1  0  0  0  0
 21 22  2  0  0  0  0
 22 23  1  0  0  0  0
 22 38  1  0  0  0  0
 23 39  1  0  0  0  0
 24 40  1  0  0  0  0
 24 23  2  0  0  0  0
 25 24  1  0  0  0  0
 26 21  1  0  0  0  0
 27 26  1  0  0  0  0
 27 43  1  0  0  0  0
 28 30  1  0  0  0  0
 28 29  2  0  0  0  0
 30 44  1  0  0  0  0
 31  5  1  0  0  0  0
 32  7  1  0  0  0  0
 35 14  1  0  0  0  0
 36 15  1  0  0  0  0
 41 25  1  0  0  0  0
 42 27  1  0  0  0  0
M  END
>  <Pose>
1

>  <Score>
-6.97

$$$$
