
 OpenBabel03202209423D

 39 42  0  0  0  0  0  0  0  0999 V2000
  -40.0270  -65.6090   48.7500 Cl  0  0  0  0  0  0  0  0  0  0  0  0
  -40.1950  -66.4640   50.2750 C   0  0  0  0  0  0  0  0  0  0  0  0
  -41.0580  -65.9340   51.2120 C   0  0  0  0  0  0  0  0  0  0  0  0
  -41.1760  -66.6200   52.4020 C   0  0  0  0  0  0  0  0  0  0  0  0
  -40.4980  -67.7740   52.6990 C   0  0  0  0  0  0  0  0  0  0  0  0
  -39.6360  -68.2710   51.7160 C   0  0  0  0  0  0  0  0  0  0  0  0
  -39.4770  -67.6330   50.5140 C   0  0  0  0  0  0  0  0  0  0  0  0
  -40.6390  -68.4830   53.9630 C   0  0  0  0  0  0  0  0  0  0  0  0
  -39.8350  -69.3940   54.5200 N   0  0  0  0  0  0  0  0  0  0  0  0
  -40.3600  -69.7780   55.6950 N   0  0  0  0  0  0  0  0  0  0  0  0
  -41.4880  -69.1150   55.8790 N   0  0  0  0  0  0  0  0  0  0  0  0
  -41.6590  -68.3210   54.8200 N   0  0  0  0  0  0  0  0  0  0  0  0
  -41.8190  -64.6970   50.9600 C   0  0  0  0  0  0  0  0  0  0  0  0
  -41.1660  -63.6330   50.8630 O   0  0  0  0  0  0  0  0  0  0  0  0
  -43.2080  -64.6610   50.8270 N   0  0  0  0  0  0  0  0  0  0  0  0
  -44.2230  -64.4050   51.7660 C   0  0  0  0  0  0  0  0  0  0  0  0
  -45.5360  -63.8980   51.3450 C   0  0  0  0  0  0  0  0  0  0  0  0
  -46.7210  -64.2150   52.1370 C   0  0  0  0  0  0  0  0  0  0  0  0
  -46.9680  -65.3330   52.8280 N   0  0  0  0  0  0  0  0  0  0  0  0
  -48.1350  -65.1960   53.4370 C   0  0  0  0  0  0  0  0  0  0  0  0
  -48.6180  -63.9870   53.1250 N   0  0  0  0  0  0  0  0  0  0  0  0
  -47.7600  -63.3970   52.3380 N   0  0  0  0  0  0  0  0  0  0  0  0
  -48.6750  -66.1830   54.2340 C   0  0  0  0  0  0  0  0  0  0  0  0
  -47.9460  -67.3490   54.3830 C   0  0  0  0  0  0  0  0  0  0  0  0
  -46.7410  -67.4810   53.7480 C   0  0  0  0  0  0  0  0  0  0  0  0
  -46.2570  -66.4690   52.9730 C   0  0  0  0  0  0  0  0  0  0  0  0
  -41.8520  -66.2080   53.1380 H   0  0  0  0  0  0  0  0  0  0  0  0
  -39.1040  -69.1910   51.9680 H   0  0  0  0  0  0  0  0  0  0  0  0
  -38.8050  -68.0350   49.7680 H   0  0  0  0  0  0  0  0  0  0  0  0
  -39.9630  -70.4790   56.3620 H   0  0  0  0  0  0  0  0  0  0  0  0
  -43.5480  -64.8690   49.8210 H   0  0  0  0  0  0  0  0  0  0  0  0
  -44.4070  -65.3600   52.3750 H   0  0  0  0  0  0  0  0  0  0  0  0
  -43.8380  -63.7210   52.5890 H   0  0  0  0  0  0  0  0  0  0  0  0
  -45.7100  -64.1560   50.2470 H   0  0  0  0  0  0  0  0  0  0  0  0
  -45.4960  -62.7590   51.2810 H   0  0  0  0  0  0  0  0  0  0  0  0
  -49.6180  -66.0370   54.7090 H   0  0  0  0  0  0  0  0  0  0  0  0
  -48.3130  -68.1490   54.9880 H   0  0  0  0  0  0  0  0  0  0  0  0
  -46.1490  -68.3770   53.8440 H   0  0  0  0  0  0  0  0  0  0  0  0
  -45.3050  -66.5410   52.4550 H   0  0  0  0  0  0  0  0  0  0  0  0
  1  2  1  0  0  0  0
  2  7  2  0  0  0  0
  2  3  1  0  0  0  0
  3  4  2  0  0  0  0
  4  5  1  0  0  0  0
  4 27  1  0  0  0  0
  5  8  1  0  0  0  0
  6 28  1  0  0  0  0
  6  5  2  0  0  0  0
  7  6  1  0  0  0  0
  8  9  2  0  0  0  0
  8 12  1  0  0  0  0
  9 10  1  0  0  0  0
 10 11  1  0  0  0  0
 10 30  1  0  0  0  0
 12 11  2  0  0  0  0
 13  3  1  0  0  0  0
 14 13  2  0  0  0  0
 15 13  1  0  0  0  0
 15 16  1  0  0  0  0
 16 32  1  0  0  0  0
 16 33  1  0  0  0  0
 17 16  1  0  0  0  0
 17 18  1  0  0  0  0
 18 22  2  0  0  0  0
 18 19  1  0  0  0  0
 19 26  1  0  0  0  0
 19 20  1  0  0  0  0
 20 23  1  0  0  0  0
 21 20  2  0  0  0  0
 22 21  1  0  0  0  0
 23 24  2  0  0  0  0
 23 36  1  0  0  0  0
 24 37  1  0  0  0  0
 25 38  1  0  0  0  0
 25 24  1  0  0  0  0
 26 25  2  0  0  0  0
 29  7  1  0  0  0  0
 31 15  1  0  0  0  0
 34 17  1  0  0  0  0
 35 17  1  0  0  0  0
 39 26  1  0  0  0  0
M  END
>  <Pose>
1

>  <Score>
-7.68

$$$$
