
 OpenBabel03202209423D

 35 38  0  0  1  0  0  0  0  0999 V2000
  -37.8260  -69.5480   50.9130 Cl  0  0  0  0  0  0  0  0  0  0  0  0
  -39.1660  -68.6930   51.6740 C   0  0  0  0  0  0  0  0  0  0  0  0
  -39.9090  -67.7750   50.9560 C   0  0  0  0  0  0  0  0  0  0  0  0
  -40.9600  -67.0990   51.5290 C   0  0  0  0  0  0  0  0  0  0  0  0
  -41.3140  -67.3230   52.8650 C   0  0  0  0  0  0  0  0  0  0  0  0
  -40.5520  -68.2430   53.5470 C   0  0  0  0  0  0  0  0  0  0  0  0
  -39.4970  -68.9330   53.0000 C   0  0  0  0  0  0  0  0  0  0  0  0
  -42.4070  -66.6280   53.4490 N   0  0  0  0  0  0  0  0  0  0  0  0
  -42.7910  -65.2540   53.2840 C   0  0  0  0  0  0  0  0  0  0  0  0
  -42.0540  -64.3910   52.7420 O   0  0  0  0  0  0  0  0  0  0  0  0
  -44.1490  -65.0170   53.8340 C   0  0  1  0  0  0  0  0  0  0  0  0
  -45.1550  -64.6190   52.8040 C   0  0  1  0  0  0  0  0  0  0  0  0
  -44.7480  -65.2710   51.4990 C   0  0  1  0  0  0  0  0  0  0  0  0
  -44.9280  -66.7510   51.8300 C   0  0  1  0  0  0  0  0  0  0  0  0
  -45.5430  -66.7980   53.2090 C   0  0  1  0  0  0  0  0  0  0  0  0
  -44.5910  -66.4120   54.2970 C   0  0  1  0  0  0  0  0  0  0  0  0
  -43.3470  -67.2180   54.3330 C   0  0  0  0  0  0  0  0  0  0  0  0
  -43.1890  -68.2440   55.0390 O   0  0  0  0  0  0  0  0  0  0  0  0
  -46.3740  -65.4970   53.1340 C   0  0  0  0  0  0  0  0  0  0  0  0
  -45.8540  -67.3440   50.9750 O   0  0  0  0  0  0  0  0  0  0  0  0
  -45.6900  -64.9390   50.5490 O   0  0  0  0  0  0  0  0  0  0  0  0
  -39.6280  -67.6060   49.9190 H   0  0  0  0  0  0  0  0  0  0  0  0
  -41.5500  -66.3820   50.9940 H   0  0  0  0  0  0  0  0  0  0  0  0
  -40.7970  -68.4470   54.5920 H   0  0  0  0  0  0  0  0  0  0  0  0
  -38.9040  -69.6620   53.5600 H   0  0  0  0  0  0  0  0  0  0  0  0
  -44.1290  -64.3420   54.7140 H   0  0  0  0  0  0  0  0  0  0  0  0
  -45.3960  -63.5740   52.7400 H   0  0  0  0  0  0  0  0  0  0  0  0
  -43.7150  -65.0380   51.2150 H   0  0  0  0  0  0  0  0  0  0  0  0
  -43.9930  -67.2960   51.7510 H   0  0  0  0  0  0  0  0  0  0  0  0
  -46.1610  -67.6690   53.4090 H   0  0  0  0  0  0  0  0  0  0  0  0
  -45.1270  -66.3810   55.2590 H   0  0  0  0  0  0  0  0  0  0  0  0
  -46.8290  -65.2470   54.0840 H   0  0  0  0  0  0  0  0  0  0  0  0
  -47.0490  -65.5510   52.2580 H   0  0  0  0  0  0  0  0  0  0  0  0
  -46.7640  -67.1860   51.3690 H   0  0  0  0  0  0  0  0  0  0  0  0
  -45.5900  -65.3980   49.6830 H   0  0  0  0  0  0  0  0  0  0  0  0
  1  2  1  0  0  0  0
  2  7  1  0  0  0  0
  3  4  1  0  0  0  0
  3  2  2  0  0  0  0
  4  5  2  0  0  0  0
  5  8  1  0  0  0  0
  5  6  1  0  0  0  0
  6 24  1  0  0  0  0
  7  6  2  0  0  0  0
  7 25  1  0  0  0  0
  8 17  1  0  0  0  0
  9  8  1  0  0  0  0
  9 11  1  0  0  0  0
 10  9  2  0  0  0  0
 11 16  1  0  0  0  0
 11 26  1  1  0  0  0
 12 27  1  6  0  0  0
 12 19  1  0  0  0  0
 12 11  1  0  0  0  0
 13 28  1  6  0  0  0
 13 14  1  0  0  0  0
 13 12  1  0  0  0  0
 14 29  1  6  0  0  0
 14 15  1  0  0  0  0
 15 30  1  1  0  0  0
 15 16  1  0  0  0  0
 16 17  1  0  0  0  0
 16 31  1  1  0  0  0
 17 18  2  0  0  0  0
 19 15  1  0  0  0  0
 19 32  1  0  0  0  0
 20 34  1  0  0  0  0
 20 14  1  0  0  0  0
 21 13  1  0  0  0  0
 22  3  1  0  0  0  0
 23  4  1  0  0  0  0
 33 19  1  0  0  0  0
 35 21  1  0  0  0  0
M  END
>  <Pose>
1

>  <Score>
-4.79

$$$$
