
 OpenBabel03202209423D

 47 50  0  0  1  0  0  0  0  0999 V2000
  -50.1550  -60.7700   47.5110 Cl  0  0  0  0  0  0  0  0  0  0  0  0
  -49.5240  -61.8310   48.7560 C   0  0  0  0  0  0  0  0  0  0  0  0
  -48.2640  -61.6250   49.2990 C   0  0  0  0  0  0  0  0  0  0  0  0
  -47.8010  -62.4680   50.2650 C   0  0  0  0  0  0  0  0  0  0  0  0
  -48.5490  -63.5400   50.7350 C   0  0  0  0  0  0  0  0  0  0  0  0
  -49.7990  -63.7410   50.1930 C   0  0  0  0  0  0  0  0  0  0  0  0
  -50.2960  -62.8910   49.2020 C   0  0  0  0  0  0  0  0  0  0  0  0
  -48.0610  -64.4170   51.7420 N   0  0  0  0  0  0  0  0  0  0  0  0
  -48.4320  -64.3030   53.1090 C   0  0  0  0  0  0  0  0  0  0  0  0
  -49.2310  -63.3770   53.4370 O   0  0  0  0  0  0  0  0  0  0  0  0
  -47.9330  -65.1920   54.0880 N   0  0  0  0  0  0  0  0  0  0  0  0
  -47.0410  -66.2290   53.7290 C   0  0  0  0  0  0  0  0  0  0  0  0
  -46.7190  -67.1490   54.5600 O   0  0  0  0  0  0  0  0  0  0  0  0
  -46.4460  -66.2990   52.3950 C   0  0  1  0  0  0  0  0  0  0  0  0
  -47.1630  -65.4690   51.4190 C   0  0  0  0  0  0  0  0  0  0  0  0
  -46.9900  -65.6840   50.1700 O   0  0  0  0  0  0  0  0  0  0  0  0
  -44.9920  -65.9650   52.4590 C   0  0  0  0  0  0  0  0  0  0  0  0
  -44.2840  -65.6350   53.5060 C   0  0  0  0  0  0  0  0  0  0  0  0
  -42.8940  -65.4040   53.0400 C   0  0  2  0  0  0  0  0  0  0  0  0
  -43.0320  -65.2120   51.6120 N   0  0  0  0  0  0  0  0  0  0  0  0
  -44.1640  -65.9740   51.3010 N   0  0  0  0  0  0  0  0  0  0  0  0
  -42.0410  -66.5910   53.3210 C   0  0  0  0  0  0  0  0  0  0  0  0
  -42.3930  -67.5470   54.2470 C   0  0  0  0  0  0  0  0  0  0  0  0
  -41.6080  -68.6530   54.5160 C   0  0  0  0  0  0  0  0  0  0  0  0
  -40.4190  -68.8310   53.8460 C   0  0  0  0  0  0  0  0  0  0  0  0
  -40.0510  -67.8890   52.9180 C   0  0  0  0  0  0  0  0  0  0  0  0
  -40.8400  -66.7910   52.6570 C   0  0  0  0  0  0  0  0  0  0  0  0
  -39.6200  -69.9280   54.0990 O   0  0  0  0  0  0  0  0  0  0  0  0
  -38.6590  -70.3240   53.1480 C   0  0  0  0  0  0  0  0  0  0  0  0
  -42.0150  -69.5790   55.4580 O   0  0  0  0  0  0  0  0  0  0  0  0
  -47.6700  -60.8080   48.9550 H   0  0  0  0  0  0  0  0  0  0  0  0
  -46.8040  -62.2990   50.6900 H   0  0  0  0  0  0  0  0  0  0  0  0
  -50.3730  -64.5790   50.5660 H   0  0  0  0  0  0  0  0  0  0  0  0
  -51.2880  -63.0900   48.8050 H   0  0  0  0  0  0  0  0  0  0  0  0
  -48.2210  -65.0900   55.0960 H   0  0  0  0  0  0  0  0  0  0  0  0
  -46.5380  -67.3750   52.0640 H   0  0  0  0  0  0  0  0  0  0  0  0
  -44.6870  -65.5570   54.5140 H   0  0  0  0  0  0  0  0  0  0  0  0
  -42.4630  -64.4990   53.5310 H   0  0  0  0  0  0  0  0  0  0  0  0
  -43.1690  -64.2020   51.3730 H   0  0  0  0  0  0  0  0  0  0  0  0
  -44.3180  -66.4400   50.3700 H   0  0  0  0  0  0  0  0  0  0  0  0
  -43.3420  -67.3830   54.7680 H   0  0  0  0  0  0  0  0  0  0  0  0
  -39.1050  -68.0240   52.3770 H   0  0  0  0  0  0  0  0  0  0  0  0
  -40.5540  -66.0340   51.9180 H   0  0  0  0  0  0  0  0  0  0  0  0
  -37.8780  -69.5580   52.9840 H   0  0  0  0  0  0  0  0  0  0  0  0
  -38.2190  -71.2860   53.4720 H   0  0  0  0  0  0  0  0  0  0  0  0
  -39.2000  -70.5300   52.2000 H   0  0  0  0  0  0  0  0  0  0  0  0
  -41.4190  -70.3320   55.7370 H   0  0  0  0  0  0  0  0  0  0  0  0
  1  2  1  0  0  0  0
  2  7  2  0  0  0  0
  2  3  1  0  0  0  0
  3  4  2  0  0  0  0
  4 32  1  0  0  0  0
  4  5  1  0  0  0  0
  5  8  1  0  0  0  0
  6 33  1  0  0  0  0
  6  5  2  0  0  0  0
  7  6  1  0  0  0  0
  8  9  1  0  0  0  0
  9 10  2  0  0  0  0
  9 11  1  0  0  0  0
 11 35  1  0  0  0  0
 12 11  1  0  0  0  0
 12 13  2  0  0  0  0
 14 36  1  6  0  0  0
 14 17  1  0  0  0  0
 14 12  1  0  0  0  0
 15  8  1  0  0  0  0
 15 14  1  0  0  0  0
 16 15  2  0  0  0  0
 17 18  2  0  0  0  0
 18 37  1  0  0  0  0
 19 22  1  0  0  0  0
 19 18  1  0  0  0  0
 19 38  1  1  0  0  0
 20 19  1  0  0  0  0
 21 20  1  0  0  0  0
 21 17  1  0  0  0  0
 22 23  1  0  0  0  0
 23 24  2  0  0  0  0
 23 41  1  0  0  0  0
 24 30  1  0  0  0  0
 25 28  1  0  0  0  0
 25 24  1  0  0  0  0
 26 25  2  0  0  0  0
 27 26  1  0  0  0  0
 27 22  2  0  0  0  0
 29 45  1  0  0  0  0
 29 28  1  0  0  0  0
 30 47  1  0  0  0  0
 31  3  1  0  0  0  0
 34  7  1  0  0  0  0
 39 20  1  0  0  0  0
 40 21  1  0  0  0  0
 42 26  1  0  0  0  0
 43 27  1  0  0  0  0
 44 29  1  0  0  0  0
 46 29  1  0  0  0  0
M  END
>  <Pose>
1

>  <Score>
-6.79

$$$$
