
 OpenBabel03202209423D

 43 46  0  0  1  0  0  0  0  0999 V2000
  -38.6990  -69.0600   52.0570 Cl  0  0  0  0  0  0  0  0  0  0  0  0
  -40.1380  -68.0930   52.1920 C   0  0  0  0  0  0  0  0  0  0  0  0
  -40.8680  -68.1650   53.3710 C   0  0  0  0  0  0  0  0  0  0  0  0
  -42.0160  -67.4050   53.5020 C   0  0  0  0  0  0  0  0  0  0  0  0
  -42.4800  -66.5660   52.5070 C   0  0  0  0  0  0  0  0  0  0  0  0
  -41.7400  -66.5080   51.3420 C   0  0  0  0  0  0  0  0  0  0  0  0
  -40.5870  -67.2540   51.1750 C   0  0  0  0  0  0  0  0  0  0  0  0
  -43.6820  -65.7830   52.6780 N   0  0  0  0  0  0  0  0  0  0  0  0
  -43.5700  -64.3640   52.4780 C   0  0  0  0  0  0  0  0  0  0  0  0
  -42.4630  -63.8260   52.1660 O   0  0  0  0  0  0  0  0  0  0  0  0
  -44.7540  -63.6000   52.6480 N   0  0  0  0  0  0  0  0  0  0  0  0
  -46.0000  -64.2400   53.0040 C   0  0  0  0  0  0  0  0  0  0  0  0
  -47.0400  -63.6390   52.7030 O   0  0  0  0  0  0  0  0  0  0  0  0
  -45.9740  -65.5220   53.6800 C   0  0  2  0  0  0  0  0  0  0  0  0
  -44.9290  -66.3650   53.0250 C   0  0  0  0  0  0  0  0  0  0  0  0
  -45.0800  -67.5830   52.7550 O   0  0  0  0  0  0  0  0  0  0  0  0
  -47.2270  -66.2180   53.8630 C   0  0  0  0  0  0  0  0  0  0  0  0
  -48.4180  -65.9230   53.3930 C   0  0  0  0  0  0  0  0  0  0  0  0
  -49.4310  -66.9150   53.8300 C   0  0  2  0  0  0  0  0  0  0  0  0
  -48.6200  -67.9710   54.3910 N   0  0  0  0  0  0  0  0  0  0  0  0
  -47.3680  -67.4180   54.6520 N   0  0  0  0  0  0  0  0  0  0  0  0
  -50.2000  -67.4830   52.7160 C   0  0  0  0  0  0  0  0  0  0  0  0
  -49.7940  -67.1890   51.4240 C   0  0  0  0  0  0  0  0  0  0  0  0
  -50.4920  -67.7060   50.3580 C   0  0  0  0  0  0  0  0  0  0  0  0
  -51.5900  -68.5140   50.5370 C   0  0  0  0  0  0  0  0  0  0  0  0
  -52.0070  -68.8140   51.8130 C   0  0  0  0  0  0  0  0  0  0  0  0
  -51.2960  -68.2870   52.8920 C   0  0  0  0  0  0  0  0  0  0  0  0
  -50.0910  -67.4170   49.0470 O   0  0  0  0  0  0  0  0  0  0  0  0
  -40.5270  -68.8230   54.1820 H   0  0  0  0  0  0  0  0  0  0  0  0
  -42.5800  -67.4600   54.4100 H   0  0  0  0  0  0  0  0  0  0  0  0
  -42.0470  -65.8770   50.5370 H   0  0  0  0  0  0  0  0  0  0  0  0
  -39.9820  -67.2310   50.2750 H   0  0  0  0  0  0  0  0  0  0  0  0
  -44.6940  -62.5760   52.5090 H   0  0  0  0  0  0  0  0  0  0  0  0
  -45.5740  -65.3040   54.7340 H   0  0  0  0  0  0  0  0  0  0  0  0
  -48.7230  -65.0840   52.7640 H   0  0  0  0  0  0  0  0  0  0  0  0
  -50.1010  -66.4590   54.6020 H   0  0  0  0  0  0  0  0  0  0  0  0
  -48.5790  -68.8180   53.7840 H   0  0  0  0  0  0  0  0  0  0  0  0
  -46.6920  -67.8460   55.3180 H   0  0  0  0  0  0  0  0  0  0  0  0
  -48.9260  -66.5520   51.2700 H   0  0  0  0  0  0  0  0  0  0  0  0
  -52.1430  -68.9240   49.6910 H   0  0  0  0  0  0  0  0  0  0  0  0
  -52.8680  -69.4470   52.0250 H   0  0  0  0  0  0  0  0  0  0  0  0
  -51.6130  -68.5170   53.9000 H   0  0  0  0  0  0  0  0  0  0  0  0
  -49.4200  -68.0150   48.5970 H   0  0  0  0  0  0  0  0  0  0  0  0
  1  2  1  0  0  0  0
  2  3  1  0  0  0  0
  3  4  2  0  0  0  0
  3 29  1  0  0  0  0
  4 30  1  0  0  0  0
  5  8  1  0  0  0  0
  5  4  1  0  0  0  0
  6  5  2  0  0  0  0
  7  6  1  0  0  0  0
  7  2  2  0  0  0  0
  8 15  1  0  0  0  0
  9 11  1  0  0  0  0
  9  8  1  0  0  0  0
 10  9  2  0  0  0  0
 11 12  1  0  0  0  0
 12 14  1  0  0  0  0
 13 12  2  0  0  0  0
 14 17  1  0  0  0  0
 14 34  1  1  0  0  0
 15 14  1  0  0  0  0
 16 15  2  0  0  0  0
 17 21  1  0  0  0  0
 18 19  1  0  0  0  0
 18 17  2  0  0  0  0
 19 20  1  0  0  0  0
 19 36  1  1  0  0  0
 20 21  1  0  0  0  0
 21 38  1  0  0  0  0
 22 27  1  0  0  0  0
 22 19  1  0  0  0  0
 23 22  2  0  0  0  0
 24 25  2  0  0  0  0
 24 23  1  0  0  0  0
 25 26  1  0  0  0  0
 26 41  1  0  0  0  0
 26 27  2  0  0  0  0
 27 42  1  0  0  0  0
 28 24  1  0  0  0  0
 31  6  1  0  0  0  0
 32  7  1  0  0  0  0
 33 11  1  0  0  0  0
 35 18  1  0  0  0  0
 37 20  1  0  0  0  0
 39 23  1  0  0  0  0
 40 25  1  0  0  0  0
 43 28  1  0  0  0  0
M  END
>  <Pose>
1

>  <Score>
-6.39

$$$$
