
 OpenBabel03202209423D

 53 56  0  0  1  0  0  0  0  0999 V2000
  -47.1730  -64.1030   53.0890 Cl  0  0  0  0  0  0  0  0  0  0  0  0
  -45.6940  -65.0680   53.1670 C   0  0  0  0  0  0  0  0  0  0  0  0
  -44.4760  -64.4330   53.0720 C   0  0  0  0  0  0  0  0  0  0  0  0
  -43.3070  -65.1870   53.1320 C   0  0  0  0  0  0  0  0  0  0  0  0
  -43.3530  -66.5470   53.2850 C   0  0  0  0  0  0  0  0  0  0  0  0
  -44.5870  -67.1530   53.3760 C   0  0  0  0  0  0  0  0  0  0  0  0
  -45.7680  -66.4350   53.3200 C   0  0  0  0  0  0  0  0  0  0  0  0
  -42.1280  -67.3550   53.3490 N   0  0  0  0  0  0  0  0  0  0  0  0
  -41.1810  -67.2740   52.2960 C   0  0  2  0  0  0  0  0  0  0  0  0
  -40.0640  -68.2010   52.4090 C   0  0  0  0  0  0  0  0  0  0  0  0
  -39.8880  -69.0140   53.4870 C   0  0  0  0  0  0  0  0  0  0  0  0
  -38.7720  -69.8700   53.5390 C   0  0  0  0  0  0  0  0  0  0  0  0
  -37.8330  -69.9310   52.5410 C   0  0  0  0  0  0  0  0  0  0  0  0
  -38.0290  -69.0970   51.4520 C   0  0  0  0  0  0  0  0  0  0  0  0
  -39.1030  -68.2690   51.3950 C   0  0  0  0  0  0  0  0  0  0  0  0
  -40.8230  -69.0510   54.5770 N   0  0  0  0  0  0  0  0  0  0  0  0
  -41.9390  -68.1910   54.4600 C   0  0  0  0  0  0  0  0  0  0  0  0
  -42.8130  -68.1630   55.3860 O   0  0  0  0  0  0  0  0  0  0  0  0
  -40.6340  -65.9470   52.4140 O   0  0  0  0  0  0  0  0  0  0  0  0
  -41.8190  -67.3130   50.9550 C   0  0  0  0  0  0  0  0  0  0  0  0
  -42.1780  -68.3880   50.4720 O   0  0  0  0  0  0  0  0  0  0  0  0
  -41.9960  -66.0940   50.2730 N   0  0  0  0  0  0  0  0  0  0  0  0
  -41.0020  -65.0200   50.3100 C   0  0  0  0  0  0  0  0  0  0  0  0
  -40.5830  -64.5840   48.9590 C   0  0  0  0  0  0  0  0  0  0  0  0
  -39.2380  -64.8000   48.5920 N   0  0  0  0  0  0  0  0  0  0  0  0
  -38.2220  -64.1870   49.3430 C   0  0  0  0  0  0  0  0  0  0  0  0
  -36.8760  -64.7890   48.9270 C   0  0  0  0  0  0  0  0  0  0  0  0
  -36.8880  -65.1070   47.5570 O   0  0  0  0  0  0  0  0  0  0  0  0
  -37.7030  -66.2070   47.3010 C   0  0  0  0  0  0  0  0  0  0  0  0
  -38.9040  -66.1290   48.2030 C   0  0  0  0  0  0  0  0  0  0  0  0
  -44.4650  -63.3660   52.9530 H   0  0  0  0  0  0  0  0  0  0  0  0
  -42.3730  -64.6710   53.0570 H   0  0  0  0  0  0  0  0  0  0  0  0
  -44.6480  -68.2180   53.4960 H   0  0  0  0  0  0  0  0  0  0  0  0
  -46.7400  -66.8840   53.3900 H   0  0  0  0  0  0  0  0  0  0  0  0
  -38.6730  -70.4950   54.4090 H   0  0  0  0  0  0  0  0  0  0  0  0
  -36.9740  -70.5780   52.5620 H   0  0  0  0  0  0  0  0  0  0  0  0
  -37.2860  -69.1310   50.6360 H   0  0  0  0  0  0  0  0  0  0  0  0
  -39.2440  -67.6290   50.5490 H   0  0  0  0  0  0  0  0  0  0  0  0
  -40.6540  -69.6800   55.3820 H   0  0  0  0  0  0  0  0  0  0  0  0
  -40.1240  -65.8750   53.2620 H   0  0  0  0  0  0  0  0  0  0  0  0
  -42.8570  -65.8870   49.6950 H   0  0  0  0  0  0  0  0  0  0  0  0
  -41.4130  -64.2430   50.9580 H   0  0  0  0  0  0  0  0  0  0  0  0
  -40.1200  -65.4490   50.8300 H   0  0  0  0  0  0  0  0  0  0  0  0
  -40.7800  -63.4780   48.8880 H   0  0  0  0  0  0  0  0  0  0  0  0
  -41.2400  -65.0380   48.1890 H   0  0  0  0  0  0  0  0  0  0  0  0
  -38.1980  -63.0830   49.3140 H   0  0  0  0  0  0  0  0  0  0  0  0
  -38.3500  -64.4570   50.4150 H   0  0  0  0  0  0  0  0  0  0  0  0
  -36.0380  -64.1230   49.1450 H   0  0  0  0  0  0  0  0  0  0  0  0
  -36.6860  -65.7550   49.4520 H   0  0  0  0  0  0  0  0  0  0  0  0
  -37.1730  -67.1720   47.4220 H   0  0  0  0  0  0  0  0  0  0  0  0
  -38.0480  -66.1640   46.2550 H   0  0  0  0  0  0  0  0  0  0  0  0
  -39.7860  -66.6500   47.7770 H   0  0  0  0  0  0  0  0  0  0  0  0
  -38.6290  -66.6990   49.1350 H   0  0  0  0  0  0  0  0  0  0  0  0
  1  2  1  0  0  0  0
  2  7  1  0  0  0  0
  3  4  1  0  0  0  0
  3  2  2  0  0  0  0
  4  5  2  0  0  0  0
  5  8  1  0  0  0  0
  5  6  1  0  0  0  0
  6 33  1  0  0  0  0
  7  6  2  0  0  0  0
  7 34  1  0  0  0  0
  8 17  1  0  0  0  0
  9 20  1  6  0  0  0
  9 10  1  0  0  0  0
  9 19  1  0  0  0  0
  9  8  1  0  0  0  0
 10 11  1  0  0  0  0
 11 12  2  0  0  0  0
 11 16  1  0  0  0  0
 12 35  1  0  0  0  0
 13 36  1  0  0  0  0
 13 12  1  0  0  0  0
 14 13  2  0  0  0  0
 15 14  1  0  0  0  0
 15 10  2  0  0  0  0
 16 39  1  0  0  0  0
 17 16  1  0  0  0  0
 17 18  2  0  0  0  0
 19 40  1  0  0  0  0
 21 20  2  0  0  0  0
 22 23  1  0  0  0  0
 22 20  1  0  0  0  0
 23 43  1  0  0  0  0
 23 42  1  0  0  0  0
 24 23  1  0  0  0  0
 25 24  1  0  0  0  0
 25 26  1  0  0  0  0
 26 47  1  0  0  0  0
 27 48  1  0  0  0  0
 27 26  1  0  0  0  0
 27 49  1  0  0  0  0
 28 27  1  0  0  0  0
 29 50  1  0  0  0  0
 29 28  1  0  0  0  0
 29 30  1  0  0  0  0
 30 25  1  0  0  0  0
 30 53  1  0  0  0  0
 31  3  1  0  0  0  0
 32  4  1  0  0  0  0
 37 14  1  0  0  0  0
 38 15  1  0  0  0  0
 41 22  1  0  0  0  0
 44 24  1  0  0  0  0
 45 24  1  0  0  0  0
 46 26  1  0  0  0  0
 51 29  1  0  0  0  0
 52 30  1  0  0  0  0
M  END
>  <Pose>
1

>  <Score>
-6.30

$$$$
