
 OpenBabel03202209423D

 58 62  0  0  1  0  0  0  0  0999 V2000
  -31.9430  -64.1570   48.8030 Cl  0  0  0  0  0  0  0  0  0  0  0  0
  -33.5270  -64.5400   48.1660 C   0  0  0  0  0  0  0  0  0  0  0  0
  -34.5170  -63.5800   48.1100 C   0  0  0  0  0  0  0  0  0  0  0  0
  -35.7720  -63.8530   47.6140 C   0  0  0  0  0  0  0  0  0  0  0  0
  -36.0250  -65.1300   47.1640 C   0  0  0  0  0  0  0  0  0  0  0  0
  -35.0410  -66.0660   47.2250 C   0  0  0  0  0  0  0  0  0  0  0  0
  -33.7810  -65.8140   47.7160 C   0  0  0  0  0  0  0  0  0  0  0  0
  -36.8320  -62.7880   47.5650 C   0  0  0  0  0  0  0  0  0  0  0  0
  -38.1300  -63.3690   47.8590 N   0  0  0  0  0  0  0  0  0  0  0  0
  -39.2080  -63.3250   46.9320 C   0  0  0  0  0  0  0  0  0  0  0  0
  -39.0660  -62.6880   45.8400 O   0  0  0  0  0  0  0  0  0  0  0  0
  -40.4970  -63.9830   47.1630 C   0  0  1  0  0  0  0  0  0  0  0  0
  -40.6920  -64.4800   48.4850 N   0  0  1  0  0  0  0  0  0  0  0  0
  -39.5290  -64.9470   49.1670 C   0  0  0  0  0  0  0  0  0  0  0  0
  -39.1670  -66.3950   48.9420 C   0  0  0  0  0  0  0  0  0  0  0  0
  -39.5120  -66.6870   50.2960 N   0  0  0  0  0  0  0  0  0  0  0  0
  -39.9020  -65.3630   50.5810 C   0  0  0  0  0  0  0  0  0  0  0  0
  -40.3720  -67.7790   50.5750 C   0  0  0  0  0  0  0  0  0  0  0  0
  -40.3190  -68.3100   51.9420 C   0  0  0  0  0  0  0  0  0  0  0  0
  -41.1820  -67.8350   52.8980 C   0  0  0  0  0  0  0  0  0  0  0  0
  -41.1530  -68.3230   54.2070 C   0  0  0  0  0  0  0  0  0  0  0  0
  -40.2410  -69.2990   54.5370 C   0  0  0  0  0  0  0  0  0  0  0  0
  -39.3660  -69.7930   53.5990 C   0  0  0  0  0  0  0  0  0  0  0  0
  -39.4220  -69.2840   52.3030 C   0  0  0  0  0  0  0  0  0  0  0  0
  -42.0190  -67.8470   55.1720 O   0  0  0  0  0  0  0  0  0  0  0  0
  -43.2530  -67.2920   54.7580 C   0  0  0  0  0  0  0  0  0  0  0  0
  -38.3760  -64.0110   49.1050 C   0  0  0  0  0  0  0  0  0  0  0  0
  -37.6290  -63.7700   50.0870 O   0  0  0  0  0  0  0  0  0  0  0  0
  -41.3240  -63.4540   49.2630 C   0  0  0  0  0  0  0  0  0  0  0  0
  -41.5950  -62.2850   48.3580 C   0  0  1  0  0  0  0  0  0  0  0  0
  -41.5780  -62.9070   46.9920 C   0  0  0  0  0  0  0  0  0  0  0  0
  -42.7960  -61.6490   48.6410 O   0  0  0  0  0  0  0  0  0  0  0  0
  -34.3020  -62.5630   48.4730 H   0  0  0  0  0  0  0  0  0  0  0  0
  -36.9960  -65.3490   46.7770 H   0  0  0  0  0  0  0  0  0  0  0  0
  -35.2540  -67.0710   46.8650 H   0  0  0  0  0  0  0  0  0  0  0  0
  -33.0060  -66.5900   47.7530 H   0  0  0  0  0  0  0  0  0  0  0  0
  -36.8300  -62.3870   46.5290 H   0  0  0  0  0  0  0  0  0  0  0  0
  -36.5590  -62.0230   48.3170 H   0  0  0  0  0  0  0  0  0  0  0  0
  -40.7040  -64.7740   46.4040 H   0  0  0  0  0  0  0  0  0  0  0  0
  -39.6940  -66.9040   48.1380 H   0  0  0  0  0  0  0  0  0  0  0  0
  -38.0510  -66.5170   48.8210 H   0  0  0  0  0  0  0  0  0  0  0  0
  -40.9330  -65.1470   50.8710 H   0  0  0  0  0  0  0  0  0  0  0  0
  -39.2050  -64.8560   51.3110 H   0  0  0  0  0  0  0  0  0  0  0  0
  -41.4170  -67.4400   50.2990 H   0  0  0  0  0  0  0  0  0  0  0  0
  -40.1670  -68.5810   49.8050 H   0  0  0  0  0  0  0  0  0  0  0  0
  -41.9230  -67.0680   52.7080 H   0  0  0  0  0  0  0  0  0  0  0  0
  -40.2440  -69.6590   55.5700 H   0  0  0  0  0  0  0  0  0  0  0  0
  -38.6730  -70.5580   53.9150 H   0  0  0  0  0  0  0  0  0  0  0  0
  -38.7110  -69.7090   51.6090 H   0  0  0  0  0  0  0  0  0  0  0  0
  -43.7560  -66.9210   55.6790 H   0  0  0  0  0  0  0  0  0  0  0  0
  -43.1000  -66.4560   54.0350 H   0  0  0  0  0  0  0  0  0  0  0  0
  -43.9040  -68.0440   54.2680 H   0  0  0  0  0  0  0  0  0  0  0  0
  -40.6890  -63.0830   50.1070 H   0  0  0  0  0  0  0  0  0  0  0  0
  -42.2950  -63.8500   49.6800 H   0  0  0  0  0  0  0  0  0  0  0  0
  -40.7230  -61.5740   48.4130 H   0  0  0  0  0  0  0  0  0  0  0  0
  -41.3120  -62.1970   46.1930 H   0  0  0  0  0  0  0  0  0  0  0  0
  -42.5290  -63.4220   46.8200 H   0  0  0  0  0  0  0  0  0  0  0  0
  -43.4840  -62.3510   48.7390 H   0  0  0  0  0  0  0  0  0  0  0  0
  2  1  1  0  0  0  0
  3  2  1  0  0  0  0
  3 33  1  0  0  0  0
  4  3  2  0  0  0  0
  5  6  2  0  0  0  0
  5  4  1  0  0  0  0
  6  7  1  0  0  0  0
  7 36  1  0  0  0  0
  7  2  2  0  0  0  0
  8  4  1  0  0  0  0
  8  9  1  0  0  0  0
  8 38  1  0  0  0  0
  9 27  1  0  0  0  0
 10 12  1  0  0  0  0
 10  9  1  0  0  0  0
 11 10  2  0  0  0  0
 12 39  1  6  0  0  0
 12 13  1  0  0  0  0
 13 14  1  1  0  0  0
 13 29  1  0  0  0  0
 14 17  1  0  0  0  0
 15 14  1  0  0  0  0
 15 16  1  0  0  0  0
 16 18  1  0  0  0  0
 16 17  1  0  0  0  0
 17 42  1  0  0  0  0
 17 43  1  0  0  0  0
 18 19  1  0  0  0  0
 19 24  2  0  0  0  0
 19 20  1  0  0  0  0
 20 21  2  0  0  0  0
 21 22  1  0  0  0  0
 21 25  1  0  0  0  0
 22 47  1  0  0  0  0
 23 48  1  0  0  0  0
 23 22  2  0  0  0  0
 24 23  1  0  0  0  0
 26 25  1  0  0  0  0
 26 50  1  0  0  0  0
 27 14  1  0  0  0  0
 27 28  2  0  0  0  0
 29 54  1  0  0  0  0
 29 53  1  0  0  0  0
 30 55  1  1  0  0  0
 30 32  1  0  0  0  0
 30 29  1  0  0  0  0
 31 12  1  0  0  0  0
 31 30  1  0  0  0  0
 32 58  1  0  0  0  0
 34  5  1  0  0  0  0
 35  6  1  0  0  0  0
 37  8  1  0  0  0  0
 40 15  1  0  0  0  0
 41 15  1  0  0  0  0
 44 18  1  0  0  0  0
 45 18  1  0  0  0  0
 46 20  1  0  0  0  0
 49 24  1  0  0  0  0
 51 26  1  0  0  0  0
 52 26  1  0  0  0  0
 56 31  1  0  0  0  0
 57 31  1  0  0  0  0
M  END
>  <Pose>
1

>  <Score>
-5.67

$$$$
