
 OpenBabel03202209423D

 55 59  0  0  1  0  0  0  0  0999 V2000
  -38.8330  -70.2460   53.8980 B   0  0  0  0  0  0  0  0  0  0  0  0
  -40.4790  -69.3070   54.1000 C   0  0  0  0  0  0  0  0  0  0  0  0
  -41.0290  -68.3260   53.2990 C   0  0  0  0  0  0  0  0  0  0  0  0
  -42.2200  -67.9300   53.8170 N   0  0  0  0  0  0  0  0  0  0  0  0
  -42.4170  -68.6310   54.9000 N   0  0  0  0  0  0  0  0  0  0  0  0
  -41.4030  -69.4850   55.1320 C   0  0  0  0  0  0  0  0  0  0  0  0
  -43.1250  -66.9300   53.3020 C   0  0  0  0  0  0  0  0  0  0  0  0
  -42.4150  -65.6630   52.8840 C   0  0  2  0  0  0  0  0  0  0  0  0
  -43.0820  -64.4480   53.4330 C   0  0  0  0  0  0  0  0  0  0  0  0
  -42.3070  -65.6320   51.3960 C   0  0  0  0  0  0  0  0  0  0  0  0
  -41.7210  -66.6020   50.8530 O   0  0  0  0  0  0  0  0  0  0  0  0
  -42.8310  -64.5680   50.6240 N   0  0  0  0  0  0  0  0  0  0  0  0
  -42.5580  -64.3560   49.2910 N   0  0  0  0  0  0  0  0  0  0  0  0
  -41.4950  -63.5360   48.8830 C   0  0  0  0  0  0  0  0  0  0  0  0
  -41.7400  -62.3200   48.6210 O   0  0  0  0  0  0  0  0  0  0  0  0
  -40.0940  -63.9960   48.7350 C   0  0  1  0  0  0  0  0  0  0  0  0
  -39.3990  -63.2430   47.6190 C   0  0  0  0  0  0  0  0  0  0  0  0
  -37.9820  -63.7140   47.4560 C   0  0  1  0  0  0  0  0  0  0  0  0
  -37.2480  -63.3850   48.7580 C   0  0  0  0  0  0  0  0  0  0  0  0
  -37.9070  -64.0950   49.8970 C   0  0  1  0  0  0  0  0  0  0  0  0
  -39.3550  -63.6770   50.0170 C   0  0  0  0  0  0  0  0  0  0  0  0
  -37.8330  -65.5850   49.6600 C   0  0  0  0  0  0  0  0  0  0  0  0
  -38.5680  -65.8880   48.3750 C   0  0  2  0  0  0  0  0  0  0  0  0
  -37.8760  -65.1900   47.2320 C   0  0  0  0  0  0  0  0  0  0  0  0
  -40.0140  -65.4870   48.4920 C   0  0  0  0  0  0  0  0  0  0  0  0
  -37.3940  -62.9460   46.3760 N   0  0  1  0  0  0  0  0  0  0  0  0
  -37.3740  -63.1860   45.0770 N   0  0  0  0  0  0  0  0  0  0  0  0
  -36.7440  -62.2570   44.4200 N   0  0  0  0  0  0  0  0  0  0  0  0
  -36.3220  -61.3590   45.2920 C   0  0  0  0  0  0  0  0  0  0  0  0
  -36.7290  -61.7880   46.5200 N   0  0  0  0  0  0  0  0  0  0  0  0
  -40.5890  -67.9320   52.4060 H   0  0  0  0  0  0  0  0  0  0  0  0
  -41.2650  -70.1940   55.9350 H   0  0  0  0  0  0  0  0  0  0  0  0
  -43.8330  -66.6610   54.1030 H   0  0  0  0  0  0  0  0  0  0  0  0
  -43.7210  -67.3040   52.4420 H   0  0  0  0  0  0  0  0  0  0  0  0
  -41.3750  -65.6950   53.2720 H   0  0  0  0  0  0  0  0  0  0  0  0
  -43.2010  -64.6190   54.5400 H   0  0  0  0  0  0  0  0  0  0  0  0
  -42.4020  -63.5680   53.3630 H   0  0  0  0  0  0  0  0  0  0  0  0
  -44.0860  -64.2650   53.0360 H   0  0  0  0  0  0  0  0  0  0  0  0
  -43.4800  -63.8950   51.1210 H   0  0  0  0  0  0  0  0  0  0  0  0
  -43.1550  -64.8180   48.5640 H   0  0  0  0  0  0  0  0  0  0  0  0
  -39.9810  -63.3300   46.6650 H   0  0  0  0  0  0  0  0  0  0  0  0
  -39.3350  -62.1760   47.9590 H   0  0  0  0  0  0  0  0  0  0  0  0
  -36.1890  -63.6480   48.7000 H   0  0  0  0  0  0  0  0  0  0  0  0
  -37.4130  -62.2890   48.9070 H   0  0  0  0  0  0  0  0  0  0  0  0
  -37.4080  -63.8310   50.8440 H   0  0  0  0  0  0  0  0  0  0  0  0
  -39.8050  -64.1760   50.9010 H   0  0  0  0  0  0  0  0  0  0  0  0
  -39.3740  -62.5710   50.1410 H   0  0  0  0  0  0  0  0  0  0  0  0
  -36.7510  -65.8360   49.5230 H   0  0  0  0  0  0  0  0  0  0  0  0
  -38.2710  -66.0980   50.5220 H   0  0  0  0  0  0  0  0  0  0  0  0
  -38.5280  -67.0080   48.2460 H   0  0  0  0  0  0  0  0  0  0  0  0
  -38.3180  -65.5020   46.2710 H   0  0  0  0  0  0  0  0  0  0  0  0
  -36.7970  -65.4480   47.2810 H   0  0  0  0  0  0  0  0  0  0  0  0
  -40.4670  -65.9830   49.3540 H   0  0  0  0  0  0  0  0  0  0  0  0
  -40.5080  -65.7170   47.5310 H   0  0  0  0  0  0  0  0  0  0  0  0
  -35.7650  -60.4660   45.0570 H   0  0  0  0  0  0  0  0  0  0  0  0
  1  2  1  0  0  0  0
  2  6  1  0  0  0  0
  3  4  1  0  0  0  0
  3  2  2  0  0  0  0
  4  5  1  0  0  0  0
  5  6  2  0  0  0  0
  6 32  1  0  0  0  0
  7  4  1  0  0  0  0
  7 33  1  0  0  0  0
  8 35  1  1  0  0  0
  8  7  1  0  0  0  0
  8  9  1  0  0  0  0
  9 36  1  0  0  0  0
 10  8  1  0  0  0  0
 11 10  2  0  0  0  0
 12 39  1  0  0  0  0
 12 10  1  0  0  0  0
 13 12  1  0  0  0  0
 14 13  1  0  0  0  0
 15 14  2  0  0  0  0
 16 14  1  1  0  0  0
 16 21  1  0  0  0  0
 17 42  1  0  0  0  0
 17 16  1  0  0  0  0
 18 24  1  6  0  0  0
 18 17  1  0  0  0  0
 18 19  1  0  0  0  0
 19 44  1  0  0  0  0
 19 20  1  0  0  0  0
 20 21  1  0  0  0  0
 20 45  1  1  0  0  0
 21 47  1  0  0  0  0
 21 46  1  0  0  0  0
 22 20  1  0  0  0  0
 22 49  1  0  0  0  0
 23 50  1  6  0  0  0
 23 25  1  0  0  0  0
 23 22  1  0  0  0  0
 24 52  1  0  0  0  0
 24 23  1  0  0  0  0
 25 16  1  0  0  0  0
 25 53  1  0  0  0  0
 26 27  1  6  0  0  0
 26 30  1  0  0  0  0
 26 18  1  0  0  0  0
 28 27  1  0  0  0  0
 28 29  2  0  0  0  0
 29 30  1  0  0  0  0
 31  3  1  0  0  0  0
 34  7  1  0  0  0  0
 37  9  1  0  0  0  0
 38  9  1  0  0  0  0
 40 13  1  0  0  0  0
 41 17  1  0  0  0  0
 43 19  1  0  0  0  0
 48 22  1  0  0  0  0
 51 24  1  0  0  0  0
 54 25  1  0  0  0  0
 55 29  1  0  0  0  0
M  END
>  <Pose>
1

>  <Score>
-6.64

$$$$
