
 OpenBabel03202209423D

 48 50  0  0  1  0  0  0  0  0999 V2000
  -45.7540  -66.3360   54.0660 Cl  0  0  0  0  0  0  0  0  0  0  0  0
  -44.1480  -66.4570   53.3550 C   0  0  0  0  0  0  0  0  0  0  0  0
  -43.8320  -65.5880   52.3370 C   0  0  0  0  0  0  0  0  0  0  0  0
  -42.5610  -65.7110   51.7990 C   0  0  0  0  0  0  0  0  0  0  0  0
  -41.7140  -66.6400   52.2740 N   0  0  0  0  0  0  0  0  0  0  0  0
  -42.0050  -67.4820   53.2520 N   0  0  0  0  0  0  0  0  0  0  0  0
  -43.2310  -67.3900   53.7970 C   0  0  0  0  0  0  0  0  0  0  0  0
  -43.5800  -68.1600   54.7360 O   0  0  0  0  0  0  0  0  0  0  0  0
  -41.0560  -68.4530   53.7160 C   0  0  0  0  0  0  0  0  0  0  0  0
  -40.1810  -69.0480   52.8300 C   0  0  0  0  0  0  0  0  0  0  0  0
  -39.2510  -69.9960   53.2670 C   0  0  0  0  0  0  0  0  0  0  0  0
  -39.1940  -70.3500   54.5910 C   0  0  0  0  0  0  0  0  0  0  0  0
  -40.0580  -69.7670   55.4830 C   0  0  0  0  0  0  0  0  0  0  0  0
  -40.9660  -68.8370   55.0380 C   0  0  0  0  0  0  0  0  0  0  0  0
  -44.7840  -64.6430   51.8990 N   0  0  0  0  0  0  0  0  0  0  0  0
  -46.2160  -64.8660   52.0580 C   0  0  0  0  0  0  0  0  0  0  0  0
  -46.7510  -65.0400   50.6230 C   0  0  0  0  0  0  0  0  0  0  0  0
  -46.3440  -63.9420   49.8040 N   0  0  0  0  0  0  0  0  0  0  0  0
  -45.6130  -62.8430   50.4700 C   0  0  0  0  0  0  0  0  0  0  0  0
  -44.4400  -63.3840   51.2620 C   0  0  0  0  0  0  0  0  0  0  0  0
  -46.6070  -63.8590   48.4120 C   0  0  0  0  0  0  0  0  0  0  0  0
  -46.0680  -62.9670   47.6900 O   0  0  0  0  0  0  0  0  0  0  0  0
  -47.5130  -64.7880   47.7140 C   0  0  1  0  0  0  0  0  0  0  0  0
  -48.0760  -65.6710   48.5830 O   0  0  0  0  0  0  0  0  0  0  0  0
  -49.3440  -65.9950   48.1170 C   0  0  0  0  0  0  0  0  0  0  0  0
  -49.8560  -64.6280   47.6850 C   0  0  0  0  0  0  0  0  0  0  0  0
  -48.6300  -64.0680   46.9940 C   0  0  0  0  0  0  0  0  0  0  0  0
  -42.3030  -65.0310   50.9960 H   0  0  0  0  0  0  0  0  0  0  0  0
  -40.1690  -68.8190   51.7790 H   0  0  0  0  0  0  0  0  0  0  0  0
  -38.5540  -70.4760   52.5890 H   0  0  0  0  0  0  0  0  0  0  0  0
  -38.4840  -71.0800   54.9560 H   0  0  0  0  0  0  0  0  0  0  0  0
  -40.0500  -70.0130   56.5260 H   0  0  0  0  0  0  0  0  0  0  0  0
  -41.6390  -68.3850   55.7390 H   0  0  0  0  0  0  0  0  0  0  0  0
  -46.6770  -63.9610   52.4860 H   0  0  0  0  0  0  0  0  0  0  0  0
  -46.4500  -65.7870   52.5860 H   0  0  0  0  0  0  0  0  0  0  0  0
  -46.2390  -65.9630   50.2670 H   0  0  0  0  0  0  0  0  0  0  0  0
  -47.8450  -65.2090   50.6780 H   0  0  0  0  0  0  0  0  0  0  0  0
  -46.3300  -62.4130   51.1970 H   0  0  0  0  0  0  0  0  0  0  0  0
  -45.3160  -62.0940   49.7380 H   0  0  0  0  0  0  0  0  0  0  0  0
  -44.1600  -62.6280   52.0310 H   0  0  0  0  0  0  0  0  0  0  0  0
  -43.5690  -63.4820   50.5850 H   0  0  0  0  0  0  0  0  0  0  0  0
  -46.8950  -65.2730   46.9220 H   0  0  0  0  0  0  0  0  0  0  0  0
  -49.3170  -66.7040   47.2700 H   0  0  0  0  0  0  0  0  0  0  0  0
  -49.9860  -66.3920   48.9130 H   0  0  0  0  0  0  0  0  0  0  0  0
  -50.0590  -64.0180   48.5740 H   0  0  0  0  0  0  0  0  0  0  0  0
  -50.7130  -64.7240   46.9950 H   0  0  0  0  0  0  0  0  0  0  0  0
  -48.5660  -62.9660   47.0880 H   0  0  0  0  0  0  0  0  0  0  0  0
  -48.6990  -64.3920   45.9360 H   0  0  0  0  0  0  0  0  0  0  0  0
  2  7  1  0  0  0  0
  3  2  2  0  0  0  0
  4  5  2  0  0  0  0
  4  3  1  0  0  0  0
  5  6  1  0  0  0  0
  6  9  1  0  0  0  0
  6  7  1  0  0  0  0
  7  8  2  0  0  0  0
  9 14  1  0  0  0  0
 10 11  1  0  0  0  0
 10  9  2  0  0  0  0
 11 12  2  0  0  0  0
 12 31  1  0  0  0  0
 12 13  1  0  0  0  0
 13 32  1  0  0  0  0
 14 13  2  0  0  0  0
 14 33  1  0  0  0  0
 15 16  1  0  0  0  0
 15  3  1  0  0  0  0
 16 34  1  0  0  0  0
 16 35  1  0  0  0  0
 17 37  1  0  0  0  0
 17 16  1  0  0  0  0
 18 19  1  0  0  0  0
 18 17  1  0  0  0  0
 19 38  1  0  0  0  0
 19 20  1  0  0  0  0
 20 15  1  0  0  0  0
 20 40  1  0  0  0  0
 21 18  1  0  0  0  0
 22 21  2  0  0  0  0
 23 42  1  6  0  0  0
 23 21  1  0  0  0  0
 23 24  1  0  0  0  0
 25 24  1  0  0  0  0
 25 44  1  0  0  0  0
 26 25  1  0  0  0  0
 26 45  1  0  0  0  0
 27 47  1  0  0  0  0
 27 26  1  0  0  0  0
 27 23  1  0  0  0  0
 28  4  1  0  0  0  0
 29 10  1  0  0  0  0
 30 11  1  0  0  0  0
 36 17  1  0  0  0  0
 39 19  1  0  0  0  0
 41 20  1  0  0  0  0
 43 25  1  0  0  0  0
 46 26  1  0  0  0  0
 48 27  1  0  0  0  0
M  END
>  <Pose>
1

>  <Score>
-5.13

$$$$
