
 OpenBabel03202209423D

 50 53  0  0  0  0  0  0  0  0999 V2000
  -46.8330  -65.1360   49.7080 Cl  0  0  0  0  0  0  0  0  0  0  0  0
  -48.4540  -65.7370   49.9720 C   0  0  0  0  0  0  0  0  0  0  0  0
  -48.8500  -66.0530   51.2560 C   0  0  0  0  0  0  0  0  0  0  0  0
  -50.1430  -66.5250   51.3950 C   0  0  0  0  0  0  0  0  0  0  0  0
  -50.9660  -66.6700   50.3400 N   0  0  0  0  0  0  0  0  0  0  0  0
  -50.6030  -66.3720   49.1030 N   0  0  0  0  0  0  0  0  0  0  0  0
  -49.3520  -65.9100   48.9300 C   0  0  0  0  0  0  0  0  0  0  0  0
  -49.0010  -65.6250   47.7660 O   0  0  0  0  0  0  0  0  0  0  0  0
  -51.4860  -66.5270   47.9880 C   0  0  0  0  0  0  0  0  0  0  0  0
  -52.4760  -65.6000   47.7350 C   0  0  0  0  0  0  0  0  0  0  0  0
  -53.3320  -65.7420   46.6620 C   0  0  0  0  0  0  0  0  0  0  0  0
  -53.2410  -66.8120   45.7950 C   0  0  0  0  0  0  0  0  0  0  0  0
  -52.2530  -67.7420   46.0430 C   0  0  0  0  0  0  0  0  0  0  0  0
  -51.4030  -67.5960   47.1140 C   0  0  0  0  0  0  0  0  0  0  0  0
  -47.9850  -65.9030   52.3830 N   0  0  0  0  0  0  0  0  0  0  0  0
  -47.6120  -64.5760   52.7860 C   0  0  0  0  0  0  0  0  0  0  0  0
  -46.1710  -64.5190   53.2430 C   0  0  0  0  0  0  0  0  0  0  0  0
  -45.7650  -65.7370   53.8980 N   0  0  0  0  0  0  0  0  0  0  0  0
  -46.7800  -66.6810   54.2970 C   0  0  0  0  0  0  0  0  0  0  0  0
  -47.5280  -67.1010   53.0580 C   0  0  0  0  0  0  0  0  0  0  0  0
  -44.3910  -65.9920   54.1420 C   0  0  0  0  0  0  0  0  0  0  0  0
  -43.6020  -65.0680   54.5190 O   0  0  0  0  0  0  0  0  0  0  0  0
  -43.7910  -67.3420   53.9740 C   0  0  0  0  0  0  0  0  0  0  0  0
  -42.9670  -67.6870   55.0540 O   0  0  0  0  0  0  0  0  0  0  0  0
  -41.8530  -68.4820   54.8630 C   0  0  0  0  0  0  0  0  0  0  0  0
  -41.2870  -69.3760   55.6820 N   0  0  0  0  0  0  0  0  0  0  0  0
  -40.2520  -69.9080   55.1190 O   0  0  0  0  0  0  0  0  0  0  0  0
  -40.0580  -69.4200   53.9110 C   0  0  0  0  0  0  0  0  0  0  0  0
  -41.0700  -68.5020   53.7180 C   0  0  0  0  0  0  0  0  0  0  0  0
  -38.9540  -69.8390   53.0270 C   0  0  0  0  0  0  0  0  0  0  0  0
  -50.4690  -66.7810   52.4140 H   0  0  0  0  0  0  0  0  0  0  0  0
  -52.5720  -64.7510   48.3970 H   0  0  0  0  0  0  0  0  0  0  0  0
  -54.1090  -65.0160   46.4620 H   0  0  0  0  0  0  0  0  0  0  0  0
  -53.9200  -66.9130   44.9530 H   0  0  0  0  0  0  0  0  0  0  0  0
  -52.2020  -68.5750   45.3460 H   0  0  0  0  0  0  0  0  0  0  0  0
  -50.6460  -68.3450   47.2710 H   0  0  0  0  0  0  0  0  0  0  0  0
  -47.7340  -63.8420   51.9680 H   0  0  0  0  0  0  0  0  0  0  0  0
  -48.3180  -64.2710   53.5990 H   0  0  0  0  0  0  0  0  0  0  0  0
  -45.5160  -64.2160   52.4240 H   0  0  0  0  0  0  0  0  0  0  0  0
  -46.1090  -63.7060   54.0140 H   0  0  0  0  0  0  0  0  0  0  0  0
  -47.5190  -66.1170   54.9290 H   0  0  0  0  0  0  0  0  0  0  0  0
  -46.3750  -67.5350   54.8660 H   0  0  0  0  0  0  0  0  0  0  0  0
  -46.8900  -67.7190   52.3860 H   0  0  0  0  0  0  0  0  0  0  0  0
  -48.4260  -67.6920   53.4000 H   0  0  0  0  0  0  0  0  0  0  0  0
  -43.2610  -67.4440   53.0080 H   0  0  0  0  0  0  0  0  0  0  0  0
  -44.6170  -68.1110   53.9490 H   0  0  0  0  0  0  0  0  0  0  0  0
  -41.1970  -67.9210   52.8190 H   0  0  0  0  0  0  0  0  0  0  0  0
  -38.8250  -69.1660   52.1630 H   0  0  0  0  0  0  0  0  0  0  0  0
  -39.1210  -70.8810   52.6270 H   0  0  0  0  0  0  0  0  0  0  0  0
  -38.0010  -69.8870   53.6320 H   0  0  0  0  0  0  0  0  0  0  0  0
  1  2  1  0  0  0  0
  2  3  2  0  0  0  0
  3  4  1  0  0  0  0
  3 15  1  0  0  0  0
  4 31  1  0  0  0  0
  5  4  2  0  0  0  0
  6  5  1  0  0  0  0
  7  6  1  0  0  0  0
  7  2  1  0  0  0  0
  8  7  2  0  0  0  0
  9  6  1  0  0  0  0
 10  9  1  0  0  0  0
 10 32  1  0  0  0  0
 11 10  2  0  0  0  0
 12 13  2  0  0  0  0
 12 11  1  0  0  0  0
 13 14  1  0  0  0  0
 14 36  1  0  0  0  0
 14  9  2  0  0  0  0
 15 16  1  0  0  0  0
 15 20  1  0  0  0  0
 16 17  1  0  0  0  0
 16 38  1  0  0  0  0
 17 18  1  0  0  0  0
 17 40  1  0  0  0  0
 18 21  1  0  0  0  0
 18 19  1  0  0  0  0
 19 42  1  0  0  0  0
 19 41  1  0  0  0  0
 20 44  1  0  0  0  0
 20 19  1  0  0  0  0
 21 22  2  0  0  0  0
 23 21  1  0  0  0  0
 23 24  1  0  0  0  0
 25 24  1  0  0  0  0
 25 26  2  0  0  0  0
 27 26  1  0  0  0  0
 28 27  1  0  0  0  0
 29 28  2  0  0  0  0
 29 25  1  0  0  0  0
 30 50  1  0  0  0  0
 30 28  1  0  0  0  0
 33 11  1  0  0  0  0
 34 12  1  0  0  0  0
 35 13  1  0  0  0  0
 37 16  1  0  0  0  0
 39 17  1  0  0  0  0
 43 20  1  0  0  0  0
 45 23  1  0  0  0  0
 46 23  1  0  0  0  0
 47 29  1  0  0  0  0
 48 30  1  0  0  0  0
 49 30  1  0  0  0  0
M  END
>  <Pose>
1

>  <Score>
-5.32

$$$$
