
 OpenBabel03202209423D

 39 42  0  0  0  0  0  0  0  0999 V2000
  -51.1940  -66.6890   50.7730 B   0  0  0  0  0  0  0  0  0  0  0  0
  -49.3660  -66.2830   51.1260 C   0  0  0  0  0  0  0  0  0  0  0  0
  -48.8240  -66.7220   52.3030 C   0  0  0  0  0  0  0  0  0  0  0  0
  -47.5310  -66.4450   52.5740 N   0  0  0  0  0  0  0  0  0  0  0  0
  -46.7800  -65.7500   51.7060 C   0  0  0  0  0  0  0  0  0  0  0  0
  -45.4720  -65.4710   51.9810 N   0  0  0  0  0  0  0  0  0  0  0  0
  -44.8990  -65.8830   53.1260 C   0  0  0  0  0  0  0  0  0  0  0  0
  -45.6860  -66.5920   53.9990 C   0  0  0  0  0  0  0  0  0  0  0  0
  -47.0080  -66.8910   53.7530 C   0  0  0  0  0  0  0  0  0  0  0  0
  -47.7380  -67.5300   54.5260 O   0  0  0  0  0  0  0  0  0  0  0  0
  -43.4550  -65.5560   53.3710 C   0  0  0  0  0  0  0  0  0  0  0  0
  -42.6880  -66.7200   53.7700 N   0  0  0  0  0  0  0  0  0  0  0  0
  -41.6470  -67.3190   53.1740 C   0  0  0  0  0  0  0  0  0  0  0  0
  -41.2330  -68.4310   53.8990 C   0  0  0  0  0  0  0  0  0  0  0  0
  -42.0670  -68.4850   54.9650 N   0  0  0  0  0  0  0  0  0  0  0  0
  -42.9320  -67.4710   54.8920 C   0  0  0  0  0  0  0  0  0  0  0  0
  -40.2020  -69.2190   53.5310 N   0  0  0  0  0  0  0  0  0  0  0  0
  -39.5650  -68.8760   52.3960 C   0  0  0  0  0  0  0  0  0  0  0  0
  -38.5980  -69.6020   52.0360 O   0  0  0  0  0  0  0  0  0  0  0  0
  -39.9230  -67.8130   51.6600 N   0  0  0  0  0  0  0  0  0  0  0  0
  -40.9540  -67.0230   52.0260 C   0  0  0  0  0  0  0  0  0  0  0  0
  -41.3010  -66.0300   51.3570 O   0  0  0  0  0  0  0  0  0  0  0  0
  -39.2330  -67.4460   50.4360 C   0  0  0  0  0  0  0  0  0  0  0  0
  -39.8210  -70.3670   54.3320 C   0  0  0  0  0  0  0  0  0  0  0  0
  -47.3200  -65.3030   50.5120 C   0  0  0  0  0  0  0  0  0  0  0  0
  -48.6320  -65.5670   50.2080 C   0  0  0  0  0  0  0  0  0  0  0  0
  -49.4170  -67.2950   53.0360 H   0  0  0  0  0  0  0  0  0  0  0  0
  -45.2530  -66.9430   54.9240 H   0  0  0  0  0  0  0  0  0  0  0  0
  -43.0380  -65.0720   52.4730 H   0  0  0  0  0  0  0  0  0  0  0  0
  -43.4280  -64.8270   54.2040 H   0  0  0  0  0  0  0  0  0  0  0  0
  -43.7290  -67.2290   55.5880 H   0  0  0  0  0  0  0  0  0  0  0  0
  -39.8940  -66.8810   49.7510 H   0  0  0  0  0  0  0  0  0  0  0  0
  -38.3330  -66.8620   50.7370 H   0  0  0  0  0  0  0  0  0  0  0  0
  -38.8680  -68.3740   49.9210 H   0  0  0  0  0  0  0  0  0  0  0  0
  -38.9390  -70.1330   54.9650 H   0  0  0  0  0  0  0  0  0  0  0  0
  -39.6210  -71.2160   53.6300 H   0  0  0  0  0  0  0  0  0  0  0  0
  -40.6870  -70.6940   54.9530 H   0  0  0  0  0  0  0  0  0  0  0  0
  -46.6810  -64.7400   49.8270 H   0  0  0  0  0  0  0  0  0  0  0  0
  -49.0680  -65.2160   49.2640 H   0  0  0  0  0  0  0  0  0  0  0  0
  1  2  1  0  0  0  0
  2  3  1  0  0  0  0
  3  4  1  0  0  0  0
  3 27  1  0  0  0  0
  4  9  1  0  0  0  0
  5  6  1  0  0  0  0
  5  4  1  0  0  0  0
  6  7  2  0  0  0  0
  7 11  1  0  0  0  0
  7  8  1  0  0  0  0
  8 28  1  0  0  0  0
  9  8  1  0  0  0  0
  9 10  2  0  0  0  0
 11 12  1  0  0  0  0
 11 30  1  0  0  0  0
 12 16  1  0  0  0  0
 13 12  1  0  0  0  0
 13 14  2  0  0  0  0
 14 15  1  0  0  0  0
 16 15  2  0  0  0  0
 16 31  1  0  0  0  0
 17 14  1  0  0  0  0
 17 24  1  0  0  0  0
 18 17  1  0  0  0  0
 19 18  2  0  0  0  0
 20 21  1  0  0  0  0
 20 18  1  0  0  0  0
 21 13  1  0  0  0  0
 22 21  2  0  0  0  0
 23 33  1  0  0  0  0
 23 20  1  0  0  0  0
 24 37  1  0  0  0  0
 24 35  1  0  0  0  0
 25  5  2  0  0  0  0
 26 25  1  0  0  0  0
 26  2  2  0  0  0  0
 29 11  1  0  0  0  0
 32 23  1  0  0  0  0
 34 23  1  0  0  0  0
 36 24  1  0  0  0  0
 38 25  1  0  0  0  0
 39 26  1  0  0  0  0
M  END
>  <Pose>
1

>  <Score>
-5.96

$$$$
