
 OpenBabel03202209423D

 53 56  0  0  1  0  0  0  0  0999 V2000
  -41.6930  -68.1190   55.0870 Cl  0  0  0  0  0  0  0  0  0  0  0  0
  -40.4330  -68.8810   54.1220 C   0  0  0  0  0  0  0  0  0  0  0  0
  -40.0580  -68.2560   52.9570 C   0  0  0  0  0  0  0  0  0  0  0  0
  -39.0060  -68.7990   52.2560 C   0  0  0  0  0  0  0  0  0  0  0  0
  -38.9060  -68.0450   51.1400 N   0  0  0  0  0  0  0  0  0  0  0  0
  -39.8330  -67.1250   51.1460 N   0  0  0  0  0  0  0  0  0  0  0  0
  -40.6170  -67.1930   52.2830 C   0  0  0  0  0  0  0  0  0  0  0  0
  -41.6350  -66.2520   52.6780 C   0  0  0  0  0  0  0  0  0  0  0  0
  -43.0180  -66.7510   52.7360 N   0  0  0  0  0  0  0  0  0  0  0  0
  -43.8400  -65.7600   52.0040 C   0  0  0  0  0  0  0  0  0  0  0  0
  -44.3110  -64.8830   53.0720 C   0  0  2  0  0  0  0  0  0  0  0  0
  -44.8770  -65.9040   54.0470 C   0  0  2  0  0  0  0  0  0  0  0  0
  -43.6330  -66.8880   53.9860 C   0  0  0  0  0  0  0  0  0  0  0  0
  -45.9870  -66.7010   53.4260 C   0  0  0  0  0  0  0  0  0  0  0  0
  -46.9440  -67.0220   54.4240 O   0  0  0  0  0  0  0  0  0  0  0  0
  -45.3730  -63.8850   52.6840 C   0  0  0  0  0  0  0  0  0  0  0  0
  -45.4640  -63.8520   51.2580 N   0  0  0  0  0  0  0  0  0  0  0  0
  -46.8220  -63.6980   50.7810 C   0  0  0  0  0  0  0  0  0  0  0  0
  -47.0240  -62.4750   49.9160 C   0  0  0  0  0  0  0  0  0  0  0  0
  -46.1500  -62.3870   48.8570 O   0  0  0  0  0  0  0  0  0  0  0  0
  -44.8790  -62.8640   49.1650 C   0  0  0  0  0  0  0  0  0  0  0  0
  -44.6740  -62.8080   50.6480 C   0  0  0  0  0  0  0  0  0  0  0  0
  -37.8270  -68.1820   50.1450 C   0  0  0  0  0  0  0  0  0  0  0  0
  -38.3480  -69.9180   52.6650 C   0  0  0  0  0  0  0  0  0  0  0  0
  -38.7460  -70.5440   53.8500 C   0  0  0  0  0  0  0  0  0  0  0  0
  -39.8060  -70.0100   54.5750 C   0  0  0  0  0  0  0  0  0  0  0  0
  -41.4950  -65.5360   53.4450 H   0  0  0  0  0  0  0  0  0  0  0  0
  -41.7520  -65.5620   51.7280 H   0  0  0  0  0  0  0  0  0  0  0  0
  -43.3530  -65.3360   51.1310 H   0  0  0  0  0  0  0  0  0  0  0  0
  -44.6960  -66.3530   51.5680 H   0  0  0  0  0  0  0  0  0  0  0  0
  -43.5540  -64.3440   53.6220 H   0  0  0  0  0  0  0  0  0  0  0  0
  -45.0040  -65.5250   55.0380 H   0  0  0  0  0  0  0  0  0  0  0  0
  -43.1130  -66.6840   54.8880 H   0  0  0  0  0  0  0  0  0  0  0  0
  -44.1150  -67.9200   54.1010 H   0  0  0  0  0  0  0  0  0  0  0  0
  -45.5730  -67.7530   53.1690 H   0  0  0  0  0  0  0  0  0  0  0  0
  -46.4600  -66.3640   52.5420 H   0  0  0  0  0  0  0  0  0  0  0  0
  -46.4170  -67.0270   55.3120 H   0  0  0  0  0  0  0  0  0  0  0  0
  -46.3190  -64.2770   53.0810 H   0  0  0  0  0  0  0  0  0  0  0  0
  -45.1900  -62.8950   53.1220 H   0  0  0  0  0  0  0  0  0  0  0  0
  -47.1030  -64.6070   50.2360 H   0  0  0  0  0  0  0  0  0  0  0  0
  -47.5410  -63.5850   51.6440 H   0  0  0  0  0  0  0  0  0  0  0  0
  -47.0460  -61.5960   50.5640 H   0  0  0  0  0  0  0  0  0  0  0  0
  -48.0480  -62.5990   49.4750 H   0  0  0  0  0  0  0  0  0  0  0  0
  -44.8230  -63.9000   48.7950 H   0  0  0  0  0  0  0  0  0  0  0  0
  -44.1310  -62.2150   48.6370 H   0  0  0  0  0  0  0  0  0  0  0  0
  -43.6010  -62.9240   50.9100 H   0  0  0  0  0  0  0  0  0  0  0  0
  -45.0800  -61.8500   51.0250 H   0  0  0  0  0  0  0  0  0  0  0  0
  -36.8370  -68.1950   50.7240 H   0  0  0  0  0  0  0  0  0  0  0  0
  -37.7310  -67.2670   49.5390 H   0  0  0  0  0  0  0  0  0  0  0  0
  -37.8960  -69.1290   49.6650 H   0  0  0  0  0  0  0  0  0  0  0  0
  -37.5730  -70.4350   52.0540 H   0  0  0  0  0  0  0  0  0  0  0  0
  -38.3030  -71.4400   54.1880 H   0  0  0  0  0  0  0  0  0  0  0  0
  -40.1510  -70.4320   55.4890 H   0  0  0  0  0  0  0  0  0  0  0  0
  2 26  1  0  0  0  0
  2  1  1  0  0  0  0
  3  2  2  0  0  0  0
  4 24  2  0  0  0  0
  4  3  1  0  0  0  0
  5  6  1  0  0  0  0
  5  4  1  0  0  0  0
  6  7  2  0  0  0  0
  7  8  1  0  0  0  0
  7  3  1  0  0  0  0
  8  9  1  0  0  0  0
  8 27  1  0  0  0  0
  9 13  1  0  0  0  0
 10  9  1  0  0  0  0
 10 11  1  0  0  0  0
 11 31  1  1  0  0  0
 11 12  1  0  0  0  0
 12 32  1  1  0  0  0
 13 12  1  0  0  0  0
 13 34  1  0  0  0  0
 13 33  1  0  0  0  0
 14 12  1  0  0  0  0
 14 15  1  0  0  0  0
 15 37  1  0  0  0  0
 16 11  1  0  0  0  0
 16 38  1  0  0  0  0
 16 39  1  0  0  0  0
 17 16  1  0  0  0  0
 18 17  1  0  0  0  0
 18 41  1  0  0  0  0
 19 42  1  0  0  0  0
 19 18  1  0  0  0  0
 20 21  1  0  0  0  0
 20 19  1  0  0  0  0
 21 22  1  0  0  0  0
 22 46  1  0  0  0  0
 22 47  1  0  0  0  0
 22 17  1  0  0  0  0
 23 48  1  0  0  0  0
 23  5  1  0  0  0  0
 24 25  1  0  0  0  0
 25 52  1  0  0  0  0
 25 26  2  0  0  0  0
 26 53  1  0  0  0  0
 28  8  1  0  0  0  0
 29 10  1  0  0  0  0
 30 10  1  0  0  0  0
 35 14  1  0  0  0  0
 36 14  1  0  0  0  0
 40 18  1  0  0  0  0
 43 19  1  0  0  0  0
 44 21  1  0  0  0  0
 45 21  1  0  0  0  0
 49 23  1  0  0  0  0
 50 23  1  0  0  0  0
 51 24  1  0  0  0  0
M  END
>  <Pose>
1

>  <Score>
-5.59

$$$$
