
 OpenBabel03202209423D

 58 62  0  0  1  0  0  0  0  0999 V2000
  -38.6460  -65.1880   49.6420 B   0  0  0  0  0  0  0  0  0  0  0  0
  -40.3270  -65.4880   50.5340 C   0  0  0  0  0  0  0  0  0  0  0  0
  -40.7310  -64.7100   51.5750 C   0  0  0  0  0  0  0  0  0  0  0  0
  -41.9230  -64.9260   52.2040 C   0  0  0  0  0  0  0  0  0  0  0  0
  -42.7800  -65.9390   51.8220 C   0  0  0  0  0  0  0  0  0  0  0  0
  -42.3790  -66.7140   50.7870 C   0  0  0  0  0  0  0  0  0  0  0  0
  -41.1460  -66.5020   50.1250 C   0  0  0  0  0  0  0  0  0  0  0  0
  -44.0200  -66.1090   52.5480 C   0  0  0  0  0  0  0  0  0  0  0  0
  -45.1750  -65.3620   52.2650 C   0  0  0  0  0  0  0  0  0  0  0  0
  -46.1160  -65.7830   53.1010 N   0  0  0  0  0  0  0  0  0  0  0  0
  -47.4300  -65.5350   53.3910 C   0  0  0  0  0  0  0  0  0  0  0  0
  -47.7430  -66.3990   54.4100 C   0  0  0  0  0  0  0  0  0  0  0  0
  -46.6550  -67.1020   54.6820 N   0  0  0  0  0  0  0  0  0  0  0  0
  -45.6260  -66.7260   53.8690 C   0  0  1  0  0  0  0  0  0  0  0  0
  -44.3180  -66.9490   53.5450 N   0  0  0  0  0  0  0  0  0  0  0  0
  -43.5420  -67.9430   54.2220 C   0  0  0  0  0  0  0  0  0  0  0  0
  -42.2970  -67.5020   54.8800 C   0  0  0  0  0  0  0  0  0  0  0  0
  -41.7820  -68.2820   56.0350 C   0  0  0  0  0  0  0  0  0  0  0  0
  -41.2080  -69.5450   55.6240 N   0  0  0  0  0  4  0  0  0  0  0  0
  -40.2160  -69.4090   54.5990 C   0  0  0  0  0  0  0  0  0  0  0  0
  -39.2890  -70.5820   54.4510 C   0  0  0  0  0  0  0  0  0  0  0  0
  -38.0570  -70.0590   53.6960 C   0  0  0  0  0  0  0  0  0  0  0  0
  -38.4900  -69.5940   52.3490 C   0  0  0  0  0  0  0  0  0  0  0  0
  -39.6330  -68.6050   52.3830 C   0  0  0  0  0  0  0  0  0  0  0  0
  -40.7970  -69.1570   53.2140 C   0  0  0  0  0  0  0  0  0  0  0  0
  -49.0240  -66.4290   54.9710 C   0  0  0  0  0  0  0  0  0  0  0  0
  -49.9960  -65.5750   54.4970 C   0  0  0  0  0  0  0  0  0  0  0  0
  -49.6550  -64.7180   53.4750 C   0  0  0  0  0  0  0  0  0  0  0  0
  -48.3850  -64.6830   52.9110 C   0  0  0  0  0  0  0  0  0  0  0  0
  -40.0810  -63.8880   51.9160 H   0  0  0  0  0  0  0  0  0  0  0  0
  -42.1930  -64.2540   53.0440 H   0  0  0  0  0  0  0  0  0  0  0  0
  -42.9170  -67.5250   50.3850 H   0  0  0  0  0  0  0  0  0  0  0  0
  -40.8360  -67.1230   49.3020 H   0  0  0  0  0  0  0  0  0  0  0  0
  -45.2830  -64.5870   51.5110 H   0  0  0  0  0  0  0  0  0  0  0  0
  -46.6280  -67.8390   55.4120 H   0  0  0  0  0  0  0  0  0  0  0  0
  -43.4050  -68.8410   53.6270 H   0  0  0  0  0  0  0  0  0  0  0  0
  -44.2060  -68.3050   55.1100 H   0  0  0  0  0  0  0  0  0  0  0  0
  -41.4890  -67.6040   54.0780 H   0  0  0  0  0  0  0  0  0  0  0  0
  -42.2480  -66.3890   55.0850 H   0  0  0  0  0  0  0  0  0  0  0  0
  -42.5520  -68.5110   56.8000 H   0  0  0  0  0  0  0  0  0  0  0  0
  -40.9310  -67.6850   56.4680 H   0  0  0  0  0  0  0  0  0  0  0  0
  -40.9120  -70.1720   56.3680 H   0  0  0  0  0  0  0  0  0  0  0  0
  -42.0220  -70.0810   55.1490 H   0  0  0  0  0  0  0  0  0  0  0  0
  -39.5580  -68.5070   54.7860 H   0  0  0  0  0  0  0  0  0  0  0  0
  -39.0030  -71.0560   55.3900 H   0  0  0  0  0  0  0  0  0  0  0  0
  -39.7600  -71.3230   53.7440 H   0  0  0  0  0  0  0  0  0  0  0  0
  -37.6000  -69.2280   54.2910 H   0  0  0  0  0  0  0  0  0  0  0  0
  -37.3410  -70.8880   53.5600 H   0  0  0  0  0  0  0  0  0  0  0  0
  -37.6330  -69.0780   51.8700 H   0  0  0  0  0  0  0  0  0  0  0  0
  -38.7630  -70.4690   51.7320 H   0  0  0  0  0  0  0  0  0  0  0  0
  -39.9780  -68.4680   51.3460 H   0  0  0  0  0  0  0  0  0  0  0  0
  -39.2780  -67.6800   52.8410 H   0  0  0  0  0  0  0  0  0  0  0  0
  -41.1300  -70.1210   52.7540 H   0  0  0  0  0  0  0  0  0  0  0  0
  -41.5690  -68.3930   53.2870 H   0  0  0  0  0  0  0  0  0  0  0  0
  -49.2790  -67.1010   55.7710 H   0  0  0  0  0  0  0  0  0  0  0  0
  -51.0140  -65.5680   54.9120 H   0  0  0  0  0  0  0  0  0  0  0  0
  -50.4130  -64.0530   53.1050 H   0  0  0  0  0  0  0  0  0  0  0  0
  -48.1230  -64.0160   52.1150 H   0  0  0  0  0  0  0  0  0  0  0  0
  1  2  1  0  0  0  0
  2  3  1  0  0  0  0
  3 30  1  0  0  0  0
  3  4  2  0  0  0  0
  4 31  1  0  0  0  0
  5  4  1  0  0  0  0
  5  8  1  0  0  0  0
  6  5  2  0  0  0  0
  7  2  2  0  0  0  0
  7  6  1  0  0  0  0
  8 15  1  0  0  0  0
  9  8  2  0  0  0  0
  9 10  1  0  0  0  0
 10 11  1  0  0  0  0
 11 12  1  0  0  0  0
 12 13  1  0  0  0  0
 12 26  2  0  0  0  0
 13 35  1  0  0  0  0
 14 10  1  6  0  0  0
 14 13  1  0  0  0  0
 15 14  1  0  0  0  0
 15 16  1  0  0  0  0
 16 17  1  0  0  0  0
 16 37  1  0  0  0  0
 17 39  1  0  0  0  0
 17 18  1  0  0  0  0
 18 41  1  0  0  0  0
 18 40  1  0  0  0  0
 19 18  1  0  0  0  0
 19 42  1  0  0  0  0
 20 44  1  0  0  0  0
 20 19  1  0  0  0  0
 21 20  1  0  0  0  0
 21 45  1  0  0  0  0
 22 47  1  0  0  0  0
 22 21  1  0  0  0  0
 23 24  1  0  0  0  0
 23 22  1  0  0  0  0
 24 52  1  0  0  0  0
 24 25  1  0  0  0  0
 25 54  1  0  0  0  0
 25 20  1  0  0  0  0
 26 55  1  0  0  0  0
 27 56  1  0  0  0  0
 27 26  1  0  0  0  0
 28 27  2  0  0  0  0
 29 11  2  0  0  0  0
 29 28  1  0  0  0  0
 32  6  1  0  0  0  0
 33  7  1  0  0  0  0
 34  9  1  0  0  0  0
 36 16  1  0  0  0  0
 38 17  1  0  0  0  0
 43 19  1  0  0  0  0
 46 21  1  0  0  0  0
 48 22  1  0  0  0  0
 49 23  1  0  0  0  0
 50 23  1  0  0  0  0
 51 24  1  0  0  0  0
 53 25  1  0  0  0  0
 57 28  1  0  0  0  0
 58 29  1  0  0  0  0
M  END
>  <Pose>
1

>  <Score>
-6.49

$$$$
