
 OpenBabel03202209423D

 49 52  0  0  1  0  0  0  0  0999 V2000
  -39.1050  -64.4900   47.5310 B   0  0  0  0  0  0  0  0  0  0  0  0
  -39.8630  -65.2910   49.0820 C   0  0  0  0  0  0  0  0  0  0  0  0
  -39.5020  -66.5620   49.4680 C   0  0  0  0  0  0  0  0  0  0  0  0
  -40.0340  -67.1510   50.5760 C   0  0  0  0  0  0  0  0  0  0  0  0
  -39.8840  -68.3550   51.1970 N   0  0  0  0  0  0  0  0  0  0  0  0
  -40.6640  -68.4020   52.2660 N   0  0  0  0  0  0  0  0  0  0  0  0
  -41.3490  -67.2580   52.3960 C   0  0  0  0  0  0  0  0  0  0  0  0
  -40.9540  -66.4620   51.3280 C   0  0  0  0  0  0  0  0  0  0  0  0
  -41.3360  -65.1770   50.9620 C   0  0  0  0  0  0  0  0  0  0  0  0
  -40.7970  -64.5840   49.8420 C   0  0  0  0  0  0  0  0  0  0  0  0
  -42.2900  -66.8560   53.3790 N   0  0  0  0  0  0  0  0  0  0  0  0
  -42.8470  -65.5190   53.5750 C   0  0  0  0  0  0  0  0  0  0  0  0
  -44.2930  -65.8010   53.9170 C   0  0  2  0  0  0  0  0  0  0  0  0
  -44.1720  -66.9840   54.8710 C   0  0  0  0  0  0  0  0  0  0  0  0
  -42.9060  -67.6480   54.3990 C   0  0  0  0  0  0  0  0  0  0  0  0
  -42.4450  -68.7450   54.8330 O   0  0  0  0  0  0  0  0  0  0  0  0
  -45.0800  -66.1840   52.7210 C   0  0  0  0  0  0  0  0  0  0  0  0
  -45.8250  -67.1930   52.7990 O   0  0  0  0  0  0  0  0  0  0  0  0
  -45.0210  -65.4620   51.5070 N   0  0  0  0  0  0  0  0  0  0  0  0
  -45.2180  -64.0370   51.4340 C   0  0  0  0  0  0  0  0  0  0  0  0
  -45.2480  -63.6050   49.9840 C   0  0  0  0  0  0  0  0  0  0  0  0
  -44.4560  -62.4260   49.7330 N   0  0  0  0  0  0  0  0  0  0  0  0
  -43.8060  -62.6050   48.4390 C   0  0  0  0  0  0  0  0  0  0  0  0
  -44.7470  -62.1910   47.3110 C   0  0  0  0  0  0  0  0  0  0  0  0
  -44.9980  -60.8390   47.2990 O   0  0  0  0  0  0  0  0  0  0  0  0
  -44.7650  -60.3180   48.5500 C   0  0  0  0  0  0  0  0  0  0  0  0
  -45.2620  -61.2290   49.6540 C   0  0  0  0  0  0  0  0  0  0  0  0
  -38.7780  -67.1190   48.8880 H   0  0  0  0  0  0  0  0  0  0  0  0
  -39.2220  -69.0690   50.8040 H   0  0  0  0  0  0  0  0  0  0  0  0
  -42.0750  -64.6380   51.5750 H   0  0  0  0  0  0  0  0  0  0  0  0
  -41.1100  -63.5730   49.5690 H   0  0  0  0  0  0  0  0  0  0  0  0
  -42.7140  -64.8640   52.7060 H   0  0  0  0  0  0  0  0  0  0  0  0
  -42.3780  -65.0390   54.4570 H   0  0  0  0  0  0  0  0  0  0  0  0
  -44.7360  -64.9600   54.4740 H   0  0  0  0  0  0  0  0  0  0  0  0
  -44.9810  -67.7000   54.6180 H   0  0  0  0  0  0  0  0  0  0  0  0
  -44.1290  -66.6890   55.9160 H   0  0  0  0  0  0  0  0  0  0  0  0
  -44.8230  -66.0120   50.6320 H   0  0  0  0  0  0  0  0  0  0  0  0
  -44.2860  -63.5740   51.8630 H   0  0  0  0  0  0  0  0  0  0  0  0
  -46.0640  -63.6640   52.0080 H   0  0  0  0  0  0  0  0  0  0  0  0
  -46.3030  -63.3370   49.7150 H   0  0  0  0  0  0  0  0  0  0  0  0
  -44.9530  -64.4270   49.3040 H   0  0  0  0  0  0  0  0  0  0  0  0
  -42.8760  -62.0510   48.3330 H   0  0  0  0  0  0  0  0  0  0  0  0
  -43.6210  -63.6960   48.3230 H   0  0  0  0  0  0  0  0  0  0  0  0
  -44.2100  -62.4850   46.3640 H   0  0  0  0  0  0  0  0  0  0  0  0
  -45.7120  -62.7340   47.3640 H   0  0  0  0  0  0  0  0  0  0  0  0
  -43.7010  -60.0770   48.7390 H   0  0  0  0  0  0  0  0  0  0  0  0
  -45.3320  -59.3570   48.6090 H   0  0  0  0  0  0  0  0  0  0  0  0
  -45.2000  -60.6240   50.5940 H   0  0  0  0  0  0  0  0  0  0  0  0
  -46.3410  -61.4550   49.4940 H   0  0  0  0  0  0  0  0  0  0  0  0
  1  2  1  0  0  0  0
  2  3  2  0  0  0  0
  2 10  1  0  0  0  0
  3  4  1  0  0  0  0
  4  5  1  0  0  0  0
  4  8  2  0  0  0  0
  5  6  1  0  0  0  0
  6  7  2  0  0  0  0
  7 11  1  0  0  0  0
  8  7  1  0  0  0  0
  9  8  1  0  0  0  0
  9 30  1  0  0  0  0
 10  9  2  0  0  0  0
 11 12  1  0  0  0  0
 11 15  1  0  0  0  0
 12 13  1  0  0  0  0
 12 33  1  0  0  0  0
 13 34  1  1  0  0  0
 13 14  1  0  0  0  0
 14 36  1  0  0  0  0
 15 16  2  0  0  0  0
 15 14  1  0  0  0  0
 17 18  2  0  0  0  0
 17 13  1  0  0  0  0
 19 17  1  0  0  0  0
 20 19  1  0  0  0  0
 20 38  1  0  0  0  0
 20 39  1  0  0  0  0
 21 20  1  0  0  0  0
 22 21  1  0  0  0  0
 23 22  1  0  0  0  0
 24 45  1  0  0  0  0
 24 23  1  0  0  0  0
 25 24  1  0  0  0  0
 25 26  1  0  0  0  0
 26 47  1  0  0  0  0
 26 46  1  0  0  0  0
 26 27  1  0  0  0  0
 27 22  1  0  0  0  0
 27 48  1  0  0  0  0
 28  3  1  0  0  0  0
 29  5  1  0  0  0  0
 31 10  1  0  0  0  0
 32 12  1  0  0  0  0
 35 14  1  0  0  0  0
 37 19  1  0  0  0  0
 40 21  1  0  0  0  0
 41 21  1  0  0  0  0
 42 23  1  0  0  0  0
 43 23  1  0  0  0  0
 44 24  1  0  0  0  0
 49 27  1  0  0  0  0
M  END
>  <Pose>
1

>  <Score>
-6.42

$$$$
