
 OpenBabel03202209423D

 40 43  0  0  1  0  0  0  0  0999 V2000
  -48.3570  -64.5970   48.1050 Cl  0  0  0  0  0  0  0  0  0  0  0  0
  -47.4780  -64.5950   49.6190 C   0  0  0  0  0  0  0  0  0  0  0  0
  -46.2790  -65.1760   49.9010 N   0  0  0  0  0  0  0  0  0  0  0  0
  -45.9120  -64.9680   51.1660 C   0  0  0  0  0  0  0  0  0  0  0  0
  -46.9590  -64.2040   51.6990 C   0  0  0  0  0  0  0  0  0  0  0  0
  -47.9270  -63.9710   50.7510 C   0  0  0  0  0  0  0  0  0  0  0  0
  -49.4200  -63.0740   50.9290 Cl  0  0  0  0  0  0  0  0  0  0  0  0
  -44.7500  -65.4010   51.8990 C   0  0  0  0  0  0  0  0  0  0  0  0
  -43.7440  -65.7110   51.1020 O   0  0  0  0  0  0  0  0  0  0  0  0
  -44.5370  -65.5360   53.2610 N   0  0  0  0  0  0  0  0  0  0  0  0
  -43.4860  -64.6940   53.8840 C   0  0  0  0  0  0  0  0  0  0  0  0
  -42.4740  -65.6510   54.4550 C   0  0  0  0  0  0  0  0  0  0  0  0
  -42.8480  -67.0280   54.3870 N   0  0  0  0  0  0  0  0  0  0  0  0
  -44.2190  -67.5090   54.4690 C   0  0  0  0  0  0  0  0  0  0  0  0
  -45.1920  -66.3710   54.1980 C   0  0  0  0  0  0  0  0  0  0  0  0
  -41.8470  -68.0250   54.2270 C   0  0  2  0  0  0  0  0  0  0  0  0
  -41.6900  -69.0050   55.1360 N   0  0  0  0  0  0  0  0  0  0  0  0
  -40.7410  -69.9610   55.0010 C   0  0  0  0  0  0  0  0  0  0  0  0
  -39.9180  -69.9570   53.9380 N   0  0  0  0  0  0  0  0  0  0  0  0
  -40.0110  -69.0140   52.9870 C   0  0  0  0  0  0  0  0  0  0  0  0
  -39.3270  -68.7900   51.8490 N   0  0  0  0  0  0  0  0  0  0  0  0
  -39.8440  -67.7140   51.2920 N   0  0  0  0  0  0  0  0  0  0  0  0
  -40.8580  -67.2260   52.0440 C   0  0  0  0  0  0  0  0  0  0  0  0
  -40.9970  -68.0340   53.1420 C   0  0  0  0  0  0  0  0  0  0  0  0
  -38.2150  -69.5700   51.3040 C   0  0  0  0  0  0  0  0  0  0  0  0
  -45.7850  -65.6880   49.1430 H   0  0  0  0  0  0  0  0  0  0  0  0
  -47.0620  -63.8120   52.7180 H   0  0  0  0  0  0  0  0  0  0  0  0
  -43.0660  -64.0110   53.1320 H   0  0  0  0  0  0  0  0  0  0  0  0
  -43.9790  -64.1130   54.7030 H   0  0  0  0  0  0  0  0  0  0  0  0
  -41.5070  -65.4320   53.9600 H   0  0  0  0  0  0  0  0  0  0  0  0
  -42.3080  -65.3750   55.5370 H   0  0  0  0  0  0  0  0  0  0  0  0
  -44.4030  -67.9500   55.4530 H   0  0  0  0  0  0  0  0  0  0  0  0
  -44.3470  -68.2720   53.6840 H   0  0  0  0  0  0  0  0  0  0  0  0
  -45.2180  -65.8240   55.2190 H   0  0  0  0  0  0  0  0  0  0  0  0
  -46.1890  -66.7160   54.0160 H   0  0  0  0  0  0  0  0  0  0  0  0
  -40.6350  -70.7360   55.7450 H   0  0  0  0  0  0  0  0  0  0  0  0
  -41.4440  -66.3670   51.8210 H   0  0  0  0  0  0  0  0  0  0  0  0
  -37.2930  -68.9400   51.4040 H   0  0  0  0  0  0  0  0  0  0  0  0
  -38.3850  -69.8500   50.2550 H   0  0  0  0  0  0  0  0  0  0  0  0
  -38.0590  -70.4840   51.8850 H   0  0  0  0  0  0  0  0  0  0  0  0
  1  2  1  0  0  0  0
  2  3  1  0  0  0  0
  2  6  2  0  0  0  0
  3  4  1  0  0  0  0
  4  5  2  0  0  0  0
  4  8  1  0  0  0  0
  5 27  1  0  0  0  0
  6  7  1  0  0  0  0
  6  5  1  0  0  0  0
  8 10  1  0  0  0  0
  9  8  2  0  0  0  0
 10 11  1  0  0  0  0
 10 15  1  0  0  0  0
 11 12  1  0  0  0  0
 11 29  1  0  0  0  0
 12 31  1  0  0  0  0
 13 12  1  0  0  0  0
 13 14  1  0  0  0  0
 14 32  1  0  0  0  0
 15 14  1  0  0  0  0
 15 34  1  0  0  0  0
 16 13  1  1  0  0  0
 16 17  1  0  0  0  0
 18 17  2  0  0  0  0
 18 36  1  0  0  0  0
 19 18  1  0  0  0  0
 20 24  2  0  0  0  0
 20 19  1  0  0  0  0
 21 20  1  0  0  0  0
 22 21  1  0  0  0  0
 22 23  2  0  0  0  0
 23 24  1  0  0  0  0
 24 16  1  0  0  0  0
 25 38  1  0  0  0  0
 25 21  1  0  0  0  0
 25 40  1  0  0  0  0
 26  3  1  0  0  0  0
 28 11  1  0  0  0  0
 30 12  1  0  0  0  0
 33 14  1  0  0  0  0
 35 15  1  0  0  0  0
 37 23  1  0  0  0  0
 39 25  1  0  0  0  0
M  END
>  <Pose>
1

>  <Score>
-6.42

$$$$
