
 OpenBabel03202209423D

 55 59  0  0  1  0  0  0  0  0999 V2000
  -40.1340  -62.2760   45.4200 B   0  0  0  0  0  0  0  0  0  0  0  0
  -40.4300  -63.2860   46.9980 C   0  0  0  0  0  0  0  0  0  0  0  0
  -39.4780  -64.1210   47.5060 C   0  0  0  0  0  0  0  0  0  0  0  0
  -39.7280  -64.8420   48.6570 C   0  0  0  0  0  0  0  0  0  0  0  0
  -40.9270  -64.7760   49.3660 C   0  0  0  0  0  0  0  0  0  0  0  0
  -41.8680  -63.9400   48.8500 C   0  0  0  0  0  0  0  0  0  0  0  0
  -41.6180  -63.2000   47.6690 C   0  0  0  0  0  0  0  0  0  0  0  0
  -41.0710  -65.6040   50.5690 C   0  0  0  0  0  0  0  0  0  0  0  0
  -40.2710  -66.7400   50.7840 C   0  0  0  0  0  0  0  0  0  0  0  0
  -40.5960  -67.2850   51.9540 N   0  0  0  0  0  0  0  0  0  0  0  0
  -40.2880  -68.3120   52.7880 C   0  0  0  0  0  0  0  0  0  0  0  0
  -41.0960  -68.1920   53.8670 C   0  0  0  0  0  0  0  0  0  0  0  0
  -41.8650  -67.1120   53.6670 N   0  0  0  0  0  0  0  0  0  0  0  0
  -41.5670  -66.5370   52.4810 C   0  0  1  0  0  0  0  0  0  0  0  0
  -41.8720  -65.4960   51.6380 N   0  0  0  0  0  0  0  0  0  0  0  0
  -42.8530  -64.5030   51.9250 C   0  0  0  0  0  0  0  0  0  0  0  0
  -44.1140  -64.5760   51.1040 C   0  0  0  0  0  0  0  0  0  0  0  0
  -44.9990  -63.4110   51.1370 C   0  0  0  0  0  0  0  0  0  0  0  0
  -46.2470  -63.4870   51.8380 N   0  0  0  0  0  4  0  0  0  0  0  0
  -47.3890  -63.4820   50.9410 C   0  0  0  0  0  0  0  0  0  0  0  0
  -47.8310  -64.7910   50.4410 C   0  0  0  0  0  0  0  0  0  0  0  0
  -47.2520  -65.9880   51.0980 C   0  0  0  0  0  0  0  0  0  0  0  0
  -46.9960  -65.7400   52.5420 C   0  0  0  0  0  0  0  0  0  0  0  0
  -46.3080  -64.4670   52.8640 C   0  0  0  0  0  0  0  0  0  0  0  0
  -41.0220  -69.1020   54.9070 C   0  0  0  0  0  0  0  0  0  0  0  0
  -40.1190  -70.1520   54.8650 C   0  0  0  0  0  0  0  0  0  0  0  0
  -39.2900  -70.2740   53.7580 C   0  0  0  0  0  0  0  0  0  0  0  0
  -39.3920  -69.3510   52.7410 C   0  0  0  0  0  0  0  0  0  0  0  0
  -38.5360  -64.1960   46.9830 H   0  0  0  0  0  0  0  0  0  0  0  0
  -38.9300  -65.4870   49.0150 H   0  0  0  0  0  0  0  0  0  0  0  0
  -42.8120  -63.8210   49.3040 H   0  0  0  0  0  0  0  0  0  0  0  0
  -42.3920  -62.5510   47.2990 H   0  0  0  0  0  0  0  0  0  0  0  0
  -39.5070  -67.1570   50.1510 H   0  0  0  0  0  0  0  0  0  0  0  0
  -42.5930  -66.7480   54.3360 H   0  0  0  0  0  0  0  0  0  0  0  0
  -42.4540  -63.4810   51.9860 H   0  0  0  0  0  0  0  0  0  0  0  0
  -43.1320  -64.6940   53.0290 H   0  0  0  0  0  0  0  0  0  0  0  0
  -44.7090  -65.4330   51.5650 H   0  0  0  0  0  0  0  0  0  0  0  0
  -43.9150  -64.9840   50.0800 H   0  0  0  0  0  0  0  0  0  0  0  0
  -45.2750  -63.1710   50.0650 H   0  0  0  0  0  0  0  0  0  0  0  0
  -44.4150  -62.4920   51.4420 H   0  0  0  0  0  0  0  0  0  0  0  0
  -46.3380  -62.5580   52.3080 H   0  0  0  0  0  0  0  0  0  0  0  0
  -48.2690  -62.9490   51.3660 H   0  0  0  0  0  0  0  0  0  0  0  0
  -47.0690  -62.8220   50.0780 H   0  0  0  0  0  0  0  0  0  0  0  0
  -47.6010  -64.8790   49.3360 H   0  0  0  0  0  0  0  0  0  0  0  0
  -48.9570  -64.8960   50.4680 H   0  0  0  0  0  0  0  0  0  0  0  0
  -47.9610  -66.8380   51.0020 H   0  0  0  0  0  0  0  0  0  0  0  0
  -46.3270  -66.3410   50.5500 H   0  0  0  0  0  0  0  0  0  0  0  0
  -46.4060  -66.6100   52.9340 H   0  0  0  0  0  0  0  0  0  0  0  0
  -47.9820  -65.8170   53.0790 H   0  0  0  0  0  0  0  0  0  0  0  0
  -45.2430  -64.6950   53.1590 H   0  0  0  0  0  0  0  0  0  0  0  0
  -46.7640  -64.0760   53.8150 H   0  0  0  0  0  0  0  0  0  0  0  0
  -41.6660  -69.0090   55.7690 H   0  0  0  0  0  0  0  0  0  0  0  0
  -40.0390  -70.8790   55.6650 H   0  0  0  0  0  0  0  0  0  0  0  0
  -38.5980  -71.1000   53.7520 H   0  0  0  0  0  0  0  0  0  0  0  0
  -38.7520  -69.4520   51.8950 H   0  0  0  0  0  0  0  0  0  0  0  0
  1  2  1  0  0  0  0
  2  3  2  0  0  0  0
  2  7  1  0  0  0  0
  3  4  1  0  0  0  0
  4 30  1  0  0  0  0
  4  5  2  0  0  0  0
  5  8  1  0  0  0  0
  6 31  1  0  0  0  0
  6  5  1  0  0  0  0
  7  6  2  0  0  0  0
  8  9  2  0  0  0  0
  8 15  1  0  0  0  0
  9 10  1  0  0  0  0
 10 14  1  0  0  0  0
 10 11  1  0  0  0  0
 11 12  1  0  0  0  0
 12 25  2  0  0  0  0
 13 12  1  0  0  0  0
 13 34  1  0  0  0  0
 14 15  1  1  0  0  0
 14 13  1  0  0  0  0
 15 16  1  0  0  0  0
 16 35  1  0  0  0  0
 16 36  1  0  0  0  0
 17 18  1  0  0  0  0
 17 37  1  0  0  0  0
 17 16  1  0  0  0  0
 18 40  1  0  0  0  0
 18 19  1  0  0  0  0
 19 41  1  0  0  0  0
 19 24  1  0  0  0  0
 20 42  1  0  0  0  0
 20 19  1  0  0  0  0
 21 45  1  0  0  0  0
 21 20  1  0  0  0  0
 21 22  1  0  0  0  0
 22 23  1  0  0  0  0
 23 24  1  0  0  0  0
 23 48  1  0  0  0  0
 23 49  1  0  0  0  0
 24 50  1  0  0  0  0
 24 51  1  0  0  0  0
 25 52  1  0  0  0  0
 26 25  1  0  0  0  0
 26 53  1  0  0  0  0
 27 26  2  0  0  0  0
 28 11  2  0  0  0  0
 28 27  1  0  0  0  0
 29  3  1  0  0  0  0
 32  7  1  0  0  0  0
 33  9  1  0  0  0  0
 38 17  1  0  0  0  0
 39 18  1  0  0  0  0
 43 20  1  0  0  0  0
 44 21  1  0  0  0  0
 46 22  1  0  0  0  0
 47 22  1  0  0  0  0
 54 27  1  0  0  0  0
 55 28  1  0  0  0  0
M  END
>  <Pose>
1

>  <Score>
-6.13

$$$$
