
 OpenBabel03202209423D

 52 55  0  0  1  0  0  0  0  0999 V2000
  -37.0040  -62.6810   47.9510 Cl  0  0  0  0  0  0  0  0  0  0  0  0
  -37.7230  -64.2870   48.0090 C   0  0  0  0  0  0  0  0  0  0  0  0
  -38.6130  -64.5540   49.0590 C   0  0  0  0  0  0  0  0  0  0  0  0
  -39.1690  -65.8030   49.1000 C   0  0  0  0  0  0  0  0  0  0  0  0
  -38.8600  -66.7790   48.1290 C   0  0  0  0  0  0  0  0  0  0  0  0
  -37.9870  -66.5060   47.1060 C   0  0  0  0  0  0  0  0  0  0  0  0
  -37.4300  -65.2470   47.0700 C   0  0  0  0  0  0  0  0  0  0  0  0
  -40.0690  -65.8580   50.2600 C   0  0  2  0  0  0  0  0  0  0  0  0
  -39.8410  -66.9520   51.1340 N   0  0  0  0  0  0  0  0  0  0  0  0
  -41.0120  -67.3440   51.7860 C   0  0  1  0  0  0  0  0  0  0  0  0
  -42.1350  -66.7350   50.9750 C   0  0  2  0  0  0  0  0  0  0  0  0
  -41.5180  -66.0350   49.8090 C   0  0  1  0  0  0  0  0  0  0  0  0
  -42.2170  -64.7340   49.6440 C   0  0  0  0  0  0  0  0  0  0  0  0
  -42.0130  -63.9450   48.6920 O   0  0  0  0  0  0  0  0  0  0  0  0
  -43.1220  -64.5800   50.7380 N   0  0  0  0  0  0  0  0  0  0  0  0
  -42.8170  -65.6240   51.6750 C   0  0  0  0  0  0  0  0  0  0  0  0
  -43.0910  -65.5820   52.8850 O   0  0  0  0  0  0  0  0  0  0  0  0
  -44.1480  -63.5970   50.9030 C   0  0  0  0  0  0  0  0  0  0  0  0
  -45.4790  -63.9410   50.3360 C   0  0  0  0  0  0  0  0  0  0  0  0
  -46.3280  -64.8590   51.1400 C   0  0  0  0  0  0  0  0  0  0  0  0
  -46.6320  -64.2880   52.5200 C   0  0  0  0  0  0  0  0  0  0  0  0
  -41.2250  -68.7740   52.0990 C   0  0  0  0  0  0  0  0  0  0  0  0
  -40.6800  -69.3050   53.3640 C   0  0  0  0  0  0  0  0  0  0  0  0
  -41.4620  -69.0860   54.5850 C   0  0  0  0  0  0  0  0  0  0  0  0
  -42.6690  -68.7870   54.5180 O   0  0  0  0  0  0  0  0  0  0  0  0
  -40.9050  -69.2000   55.8920 N   0  0  0  0  0  0  0  0  0  0  0  0
  -39.9520  -64.5480   50.9060 C   0  0  0  0  0  0  0  0  0  0  0  0
  -40.5160  -64.1260   51.9630 O   0  0  0  0  0  0  0  0  0  0  0  0
  -39.0650  -63.7520   50.1440 N   0  0  0  0  0  0  0  0  0  0  0  0
  -39.3200  -67.7610   48.1940 H   0  0  0  0  0  0  0  0  0  0  0  0
  -37.7270  -67.2310   46.3450 H   0  0  0  0  0  0  0  0  0  0  0  0
  -36.7400  -65.0100   46.2720 H   0  0  0  0  0  0  0  0  0  0  0  0
  -38.9680  -66.9190   51.6860 H   0  0  0  0  0  0  0  0  0  0  0  0
  -41.0400  -66.7970   52.7800 H   0  0  0  0  0  0  0  0  0  0  0  0
  -42.9070  -67.4700   50.6960 H   0  0  0  0  0  0  0  0  0  0  0  0
  -41.5830  -66.5750   48.8640 H   0  0  0  0  0  0  0  0  0  0  0  0
  -43.8140  -62.6570   50.3720 H   0  0  0  0  0  0  0  0  0  0  0  0
  -44.2510  -63.2760   51.9690 H   0  0  0  0  0  0  0  0  0  0  0  0
  -46.0590  -62.9740   50.2480 H   0  0  0  0  0  0  0  0  0  0  0  0
  -45.3770  -64.2720   49.2710 H   0  0  0  0  0  0  0  0  0  0  0  0
  -45.9400  -65.8650   51.3130 H   0  0  0  0  0  0  0  0  0  0  0  0
  -47.3010  -64.9690   50.5800 H   0  0  0  0  0  0  0  0  0  0  0  0
  -45.7660  -63.7450   52.9480 H   0  0  0  0  0  0  0  0  0  0  0  0
  -46.9300  -65.0930   53.2310 H   0  0  0  0  0  0  0  0  0  0  0  0
  -47.4620  -63.5550   52.4750 H   0  0  0  0  0  0  0  0  0  0  0  0
  -42.3190  -68.9860   51.9620 H   0  0  0  0  0  0  0  0  0  0  0  0
  -40.7550  -69.3750   51.2620 H   0  0  0  0  0  0  0  0  0  0  0  0
  -40.5320  -70.4300   53.3050 H   0  0  0  0  0  0  0  0  0  0  0  0
  -39.6470  -68.9360   53.5840 H   0  0  0  0  0  0  0  0  0  0  0  0
  -41.0340  -70.0290   56.4980 H   0  0  0  0  0  0  0  0  0  0  0  0
  -40.3400  -68.4160   56.2580 H   0  0  0  0  0  0  0  0  0  0  0  0
  -38.7670  -62.7610   50.3060 H   0  0  0  0  0  0  0  0  0  0  0  0
  1  2  1  0  0  0  0
  2  3  1  0  0  0  0
  3  4  2  0  0  0  0
  3 29  1  0  0  0  0
  5 30  1  0  0  0  0
  5  4  1  0  0  0  0
  6  5  2  0  0  0  0
  7  6  1  0  0  0  0
  7  2  2  0  0  0  0
  8  4  1  6  0  0  0
  8 27  1  0  0  0  0
  8  9  1  0  0  0  0
  9 33  1  0  0  0  0
  9 10  1  0  0  0  0
 10 22  1  0  0  0  0
 10 34  1  1  0  0  0
 11 35  1  6  0  0  0
 11 16  1  0  0  0  0
 11 10  1  0  0  0  0
 12 36  1  6  0  0  0
 12  8  1  0  0  0  0
 12 11  1  0  0  0  0
 13 12  1  0  0  0  0
 13 15  1  0  0  0  0
 14 13  2  0  0  0  0
 15 18  1  0  0  0  0
 15 16  1  0  0  0  0
 16 17  2  0  0  0  0
 18 38  1  0  0  0  0
 19 18  1  0  0  0  0
 19 20  1  0  0  0  0
 20 41  1  0  0  0  0
 20 21  1  0  0  0  0
 21 43  1  0  0  0  0
 21 44  1  0  0  0  0
 22 23  1  0  0  0  0
 23 49  1  0  0  0  0
 23 24  1  0  0  0  0
 24 26  1  0  0  0  0
 25 24  2  0  0  0  0
 26 51  1  0  0  0  0
 26 50  1  0  0  0  0
 27 28  2  0  0  0  0
 29 52  1  0  0  0  0
 29 27  1  0  0  0  0
 31  6  1  0  0  0  0
 32  7  1  0  0  0  0
 37 18  1  0  0  0  0
 39 19  1  0  0  0  0
 40 19  1  0  0  0  0
 42 20  1  0  0  0  0
 45 21  1  0  0  0  0
 46 22  1  0  0  0  0
 47 22  1  0  0  0  0
 48 23  1  0  0  0  0
M  END
>  <Pose>
1

>  <Score>
-6.92

$$$$
