
 OpenBabel03162216073D

 50 53  0  0  0  0  0  0  0  0999 V2000
   96.0070  104.7730  -44.6360 B   0  0  0  0  0  0  0  0  0  0  0  0
   95.7950  103.9930  -42.9230 C   0  0  0  0  0  0  0  0  0  0  0  0
   96.5170  104.4630  -41.8650 C   0  0  0  0  0  0  0  0  0  0  0  0
   96.3410  103.8680  -40.6180 C   0  0  0  0  0  0  0  0  0  0  0  0
   95.4410  102.8170  -40.4790 C   0  0  0  0  0  0  0  0  0  0  0  0
   94.7130  102.3390  -41.5360 C   0  0  0  0  0  0  0  0  0  0  0  0
   94.8980  102.9360  -42.7630 C   0  0  0  0  0  0  0  0  0  0  0  0
   94.1550  102.4450  -43.8250 O   0  0  0  0  0  0  0  0  0  0  0  0
   93.7770  101.2380  -41.3690 C   0  0  0  0  0  0  0  0  0  0  0  0
   92.7390  101.2940  -40.6130 N   0  0  0  0  0  0  0  0  0  0  0  0
   91.8770  100.1490  -40.5200 N   0  0  0  0  0  0  0  0  0  0  0  0
   91.6010   99.4670  -41.6970 C   0  0  0  0  0  0  0  0  0  0  0  0
   91.1400  100.1680  -42.6740 O   0  0  0  0  0  0  0  0  0  0  0  0
   91.7570   98.0550  -41.9930 C   0  0  0  0  0  0  0  0  0  0  0  0
   92.0770   97.0850  -41.0760 N   0  0  0  0  0  0  0  0  0  0  0  0
   92.1330   95.9270  -41.6730 N   0  0  0  0  0  0  0  0  0  0  0  0
   91.8690   96.0350  -42.9640 N   0  0  0  0  0  0  0  0  0  0  0  0
   91.6310   97.3390  -43.1880 C   0  0  0  0  0  0  0  0  0  0  0  0
   91.3250   97.9700  -44.4750 C   0  0  0  0  0  0  0  0  0  0  0  0
   89.9860   97.6720  -44.9900 N   0  0  0  0  0  0  0  0  0  0  0  0
   89.9760   97.9260  -46.4440 C   0  0  0  0  0  0  0  0  0  0  0  0
   90.6120   99.2410  -46.7310 C   0  0  0  0  0  0  0  0  0  0  0  0
   90.0000  100.2210  -45.9890 O   0  0  0  0  0  0  0  0  0  0  0  0
   88.8610   99.8160  -45.3450 C   0  0  0  0  0  0  0  0  0  0  0  0
   89.0420   98.6540  -44.4040 C   0  0  0  0  0  0  0  0  0  0  0  0
   91.8880   94.9480  -43.8710 C   0  0  0  0  0  0  0  0  0  0  0  0
   92.1940   94.9330  -45.1860 N   0  0  0  0  0  0  0  0  0  0  0  0
   92.0970   93.7150  -45.6500 O   0  0  0  0  0  0  0  0  0  0  0  0
   91.7350   92.8930  -44.6990 N   0  0  0  0  0  0  0  0  0  0  0  0
   91.5960   93.6240  -43.5800 C   0  0  0  0  0  0  0  0  0  0  0  0
   91.2140   93.0950  -42.3280 N   0  0  0  0  0  0  0  0  0  0  0  0
   97.3280  104.4980  -39.1280 B   0  0  0  0  0  0  0  0  0  0  0  0
   97.4190  105.5100  -41.9820 O   0  0  0  0  0  0  0  0  0  0  0  0
   95.3060  102.3600  -39.5200 H   0  0  0  0  0  0  0  0  0  0  0  0
   94.6170  102.1430  -44.6730 H   0  0  0  0  0  0  0  0  0  0  0  0
   93.9470  100.3070  -41.9050 H   0  0  0  0  0  0  0  0  0  0  0  0
   91.5240   99.9260  -39.5590 H   0  0  0  0  0  0  0  0  0  0  0  0
   92.0280   97.6670  -45.2550 H   0  0  0  0  0  0  0  0  0  0  0  0
   91.3450   99.0620  -44.3640 H   0  0  0  0  0  0  0  0  0  0  0  0
   90.4420   97.0910  -46.9910 H   0  0  0  0  0  0  0  0  0  0  0  0
   88.9100   97.9660  -46.7350 H   0  0  0  0  0  0  0  0  0  0  0  0
   91.6970   99.2600  -46.5370 H   0  0  0  0  0  0  0  0  0  0  0  0
   90.4110   99.4950  -47.8130 H   0  0  0  0  0  0  0  0  0  0  0  0
   88.5460  100.6880  -44.6960 H   0  0  0  0  0  0  0  0  0  0  0  0
   88.0300   99.6610  -46.0650 H   0  0  0  0  0  0  0  0  0  0  0  0
   88.0670   98.1550  -44.3280 H   0  0  0  0  0  0  0  0  0  0  0  0
   89.3720   99.0210  -43.4380 H   0  0  0  0  0  0  0  0  0  0  0  0
   90.5730   92.2820  -42.3030 H   0  0  0  0  0  0  0  0  0  0  0  0
   91.5500   93.4880  -41.4300 H   0  0  0  0  0  0  0  0  0  0  0  0
   97.8530  105.9160  -41.1690 H   0  0  0  0  0  0  0  0  0  0  0  0
  1  2  1  0  0  0  0
  2  7  2  0  0  0  0
  2  3  1  0  0  0  0
  3  4  2  0  0  0  0
  4  5  1  0  0  0  0
  4 32  1  0  0  0  0
  5 34  1  0  0  0  0
  6  9  1  0  0  0  0
  6  5  2  0  0  0  0
  7  6  1  0  0  0  0
  8  7  1  0  0  0  0
  9 10  2  0  0  0  0
 10 11  1  0  0  0  0
 11 37  1  0  0  0  0
 12 11  1  0  0  0  0
 13 12  2  0  0  0  0
 14 12  1  0  0  0  0
 14 15  1  0  0  0  0
 16 15  2  0  0  0  0
 17 16  1  0  0  0  0
 18 17  1  0  0  0  0
 18 14  2  0  0  0  0
 19 39  1  0  0  0  0
 19 18  1  0  0  0  0
 20 19  1  0  0  0  0
 20 25  1  0  0  0  0
 21 20  1  0  0  0  0
 22 42  1  0  0  0  0
 22 21  1  0  0  0  0
 22 23  1  0  0  0  0
 23 24  1  0  0  0  0
 24 44  1  0  0  0  0
 24 25  1  0  0  0  0
 25 46  1  0  0  0  0
 25 47  1  0  0  0  0
 26 30  1  0  0  0  0
 26 17  1  0  0  0  0
 27 26  2  0  0  0  0
 28 27  1  0  0  0  0
 28 29  1  0  0  0  0
 29 30  2  0  0  0  0
 30 31  1  0  0  0  0
 31 48  1  0  0  0  0
 31 49  1  0  0  0  0
 33  3  1  0  0  0  0
 33 50  1  0  0  0  0
 35  8  1  0  0  0  0
 36  9  1  0  0  0  0
 38 19  1  0  0  0  0
 40 21  1  0  0  0  0
 41 21  1  0  0  0  0
 43 22  1  0  0  0  0
 45 24  1  0  0  0  0
M  END
>  <Pose>
1

>  <Score>
-6.89

$$$$
