
 OpenBabel03212208273D

 52 55  0  0  0  0  0  0  0  0999 V2000
   84.4650   98.4300  -43.2690 B   0  0  0  0  0  0  0  0  0  0  0  0
   86.2660   98.9340  -43.6620 C   0  0  0  0  0  0  0  0  0  0  0  0
   86.7490  100.0910  -43.0840 C   0  0  0  0  0  0  0  0  0  0  0  0
   88.0460  100.4590  -43.3640 C   0  0  0  0  0  0  0  0  0  0  0  0
   88.8480   99.6990  -44.1970 C   0  0  0  0  0  0  0  0  0  0  0  0
   88.3770   98.5460  -44.7770 C   0  0  0  0  0  0  0  0  0  0  0  0
   87.0770   98.1790  -44.4950 C   0  0  0  0  0  0  0  0  0  0  0  0
   86.5840   97.0290  -45.0640 O   0  0  0  0  0  0  0  0  0  0  0  0
   89.2410   97.7670  -45.6480 C   0  0  0  0  0  0  0  0  0  0  0  0
   89.9740   96.8020  -45.2540 N   0  0  0  0  0  0  0  0  0  0  0  0
   90.8030   96.0610  -46.1180 N   0  0  0  0  0  0  0  0  0  0  0  0
   91.1460   94.7250  -45.7710 C   0  0  0  0  0  0  0  0  0  0  0  0
   91.6290   94.4340  -44.5650 N   0  0  0  0  0  4  0  0  0  0  0  0
   91.9690   93.1650  -44.1960 C   0  0  0  0  0  0  0  0  0  0  0  0
   91.7900   92.2190  -45.1150 N   0  0  0  0  0  0  0  0  0  0  0  0
   91.3060   92.4280  -46.3610 C   0  0  0  0  0  0  0  0  0  0  0  0
   90.9910   93.7260  -46.6480 N   0  0  0  0  0  0  0  0  0  0  0  0
   91.1340   91.3950  -47.3000 N   0  0  0  0  0  0  0  0  0  0  0  0
   92.0300   90.2820  -47.3370 C   0  0  0  0  0  0  0  0  0  0  0  0
   92.5050   90.1330  -48.7850 C   0  0  0  0  0  0  0  0  0  0  0  0
   92.0130   91.1320  -49.5960 O   0  0  0  0  0  0  0  0  0  0  0  0
   90.6430   91.2190  -49.6230 C   0  0  0  0  0  0  0  0  0  0  0  0
   90.0530   91.4470  -48.2360 C   0  0  0  0  0  0  0  0  0  0  0  0
   92.4800   92.8780  -42.9130 N   0  0  0  0  0  0  0  0  0  0  0  0
   92.1990   93.7500  -41.8070 C   0  0  0  0  0  0  0  0  0  0  0  0
   93.5120   93.9990  -41.0830 C   0  0  0  0  0  0  0  0  0  0  0  0
   94.2190   92.8230  -40.8670 O   0  0  0  0  0  0  0  0  0  0  0  0
   94.5770   92.1760  -42.0280 C   0  0  0  0  0  0  0  0  0  0  0  0
   93.2860   91.7070  -42.7100 C   0  0  0  0  0  0  0  0  0  0  0  0
   88.7280  102.0620  -42.5690 B   0  0  0  0  0  0  0  0  0  0  0  0
   85.9270  100.8440  -42.2480 O   0  0  0  0  0  0  0  0  0  0  0  0
   89.8780  100.0080  -44.4080 H   0  0  0  0  0  0  0  0  0  0  0  0
   85.6210   96.7270  -44.8860 H   0  0  0  0  0  0  0  0  0  0  0  0
   89.2680   98.0180  -46.6960 H   0  0  0  0  0  0  0  0  0  0  0  0
   91.1210   96.5370  -46.9680 H   0  0  0  0  0  0  0  0  0  0  0  0
   91.4400   89.3610  -47.1160 H   0  0  0  0  0  0  0  0  0  0  0  0
   92.8770   90.4120  -46.6400 H   0  0  0  0  0  0  0  0  0  0  0  0
   92.3090   89.1330  -49.1840 H   0  0  0  0  0  0  0  0  0  0  0  0
   93.6190   90.2530  -48.7640 H   0  0  0  0  0  0  0  0  0  0  0  0
   90.1680   90.3470  -50.1190 H   0  0  0  0  0  0  0  0  0  0  0  0
   90.3730   92.1080  -50.2310 H   0  0  0  0  0  0  0  0  0  0  0  0
   89.5190   92.4160  -48.1680 H   0  0  0  0  0  0  0  0  0  0  0  0
   89.2880   90.6630  -48.0670 H   0  0  0  0  0  0  0  0  0  0  0  0
   91.8330   94.7600  -42.1290 H   0  0  0  0  0  0  0  0  0  0  0  0
   91.5100   93.2820  -41.0750 H   0  0  0  0  0  0  0  0  0  0  0  0
   94.1080   94.7420  -41.6400 H   0  0  0  0  0  0  0  0  0  0  0  0
   93.2770   94.4270  -40.0850 H   0  0  0  0  0  0  0  0  0  0  0  0
   95.0430   92.9000  -42.7190 H   0  0  0  0  0  0  0  0  0  0  0  0
   95.2260   91.3310  -41.7740 H   0  0  0  0  0  0  0  0  0  0  0  0
   92.7680   91.0700  -41.9430 H   0  0  0  0  0  0  0  0  0  0  0  0
   93.5010   91.1570  -43.6400 H   0  0  0  0  0  0  0  0  0  0  0  0
   85.9960  100.7300  -41.2510 H   0  0  0  0  0  0  0  0  0  0  0  0
  2  1  1  0  0  0  0
  2  3  1  0  0  0  0
  3 31  1  0  0  0  0
  4  3  2  0  0  0  0
  4 30  1  0  0  0  0
  5  4  1  0  0  0  0
  6  7  1  0  0  0  0
  6  5  2  0  0  0  0
  7  2  2  0  0  0  0
  8 33  1  0  0  0  0
  8  7  1  0  0  0  0
  9 10  2  0  0  0  0
  9  6  1  0  0  0  0
 11 12  1  0  0  0  0
 11 10  1  0  0  0  0
 12 13  2  0  0  0  0
 13 14  2  0  0  0  0
 14 24  1  0  0  0  0
 15 14  1  0  0  0  0
 16 15  2  0  0  0  0
 17 16  1  0  0  0  0
 17 12  1  0  0  0  0
 18 16  1  0  0  0  0
 19 18  1  0  0  0  0
 19 36  1  0  0  0  0
 19 37  1  0  0  0  0
 20 39  1  0  0  0  0
 20 19  1  0  0  0  0
 21 20  1  0  0  0  0
 22 21  1  0  0  0  0
 22 23  1  0  0  0  0
 23 42  1  0  0  0  0
 23 43  1  0  0  0  0
 23 18  1  0  0  0  0
 24 29  1  0  0  0  0
 24 25  1  0  0  0  0
 25 26  1  0  0  0  0
 25 45  1  0  0  0  0
 26 27  1  0  0  0  0
 26 47  1  0  0  0  0
 28 49  1  0  0  0  0
 28 27  1  0  0  0  0
 29 28  1  0  0  0  0
 29 50  1  0  0  0  0
 31 52  1  0  0  0  0
 32  5  1  0  0  0  0
 34  9  1  0  0  0  0
 35 11  1  0  0  0  0
 38 20  1  0  0  0  0
 40 22  1  0  0  0  0
 41 22  1  0  0  0  0
 44 25  1  0  0  0  0
 46 26  1  0  0  0  0
 48 28  1  0  0  0  0
 51 29  1  0  0  0  0
M  END
>  <Pose>
1

>  <Score>
-7.09

$$$$
