
 OpenBabel03212208273D

 43 46  0  0  0  0  0  0  0  0999 V2000
   96.6120  104.4690  -38.8730 B   0  0  0  0  0  0  0  0  0  0  0  0
   95.7110  103.6940  -40.3530 C   0  0  0  0  0  0  0  0  0  0  0  0
   94.9940  102.5330  -40.1620 C   0  0  0  0  0  0  0  0  0  0  0  0
   94.3430  101.9650  -41.2140 C   0  0  0  0  0  0  0  0  0  0  0  0
   94.3840  102.5350  -42.4910 C   0  0  0  0  0  0  0  0  0  0  0  0
   95.1050  103.6920  -42.6530 C   0  0  0  0  0  0  0  0  0  0  0  0
   95.7690  104.2810  -41.6060 C   0  0  0  0  0  0  0  0  0  0  0  0
   95.1950  104.5130  -44.3790 B   0  0  0  0  0  0  0  0  0  0  0  0
   93.5850  100.7440  -41.0240 C   0  0  0  0  0  0  0  0  0  0  0  0
   92.4070  100.6590  -41.5120 N   0  0  0  0  0  0  0  0  0  0  0  0
   91.5980   99.5420  -41.3900 N   0  0  0  0  0  0  0  0  0  0  0  0
   92.0530   98.2040  -41.4910 C   0  0  0  0  0  0  0  0  0  0  0  0
   93.2660   98.0010  -41.2450 O   0  0  0  0  0  0  0  0  0  0  0  0
   91.1990   97.1000  -41.8540 C   0  0  0  0  0  0  0  0  0  0  0  0
   91.4790   96.4660  -43.1040 N   0  0  0  0  0  0  0  0  0  0  0  0
   91.6970   95.1440  -43.3320 C   0  0  0  0  0  0  0  0  0  0  0  0
   91.9330   94.9300  -44.6620 C   0  0  0  0  0  0  0  0  0  0  0  0
   91.8550   96.1410  -45.2350 N   0  0  0  0  0  0  0  0  0  0  0  0
   91.5760   97.0860  -44.2820 C   0  0  0  0  0  0  0  0  0  0  0  0
   91.4260   98.5070  -44.5680 C   0  0  0  0  0  0  0  0  0  0  0  0
   90.2800   99.1190  -44.8950 N   0  0  0  0  0  0  0  0  0  0  0  0
   90.5220  100.4040  -45.0830 O   0  0  0  0  0  0  0  0  0  0  0  0
   91.7780  100.6560  -44.8920 N   0  0  0  0  0  0  0  0  0  0  0  0
   92.3860   99.4940  -44.5670 C   0  0  0  0  0  0  0  0  0  0  0  0
   93.7600   99.3150  -44.2770 N   0  0  0  0  0  4  0  0  0  0  0  0
   92.1780   93.6430  -45.0930 C   0  0  0  0  0  0  0  0  0  0  0  0
   92.1920   92.5670  -44.2210 C   0  0  0  0  0  0  0  0  0  0  0  0
   91.9500   92.8140  -42.8820 C   0  0  0  0  0  0  0  0  0  0  0  0
   91.7040   94.1010  -42.4470 C   0  0  0  0  0  0  0  0  0  0  0  0
   94.9430  101.9560  -38.9050 O   0  0  0  0  0  0  0  0  0  0  0  0
   93.8730  102.0990  -43.3340 H   0  0  0  0  0  0  0  0  0  0  0  0
   96.3440  105.1870  -41.6980 H   0  0  0  0  0  0  0  0  0  0  0  0
   93.9680   99.8870  -40.4840 H   0  0  0  0  0  0  0  0  0  0  0  0
   90.5820   99.6900  -41.2120 H   0  0  0  0  0  0  0  0  0  0  0  0
   91.2320   96.2670  -41.0840 H   0  0  0  0  0  0  0  0  0  0  0  0
   90.1410   97.4290  -41.8190 H   0  0  0  0  0  0  0  0  0  0  0  0
   94.2540   98.7760  -45.0000 H   0  0  0  0  0  0  0  0  0  0  0  0
   93.7980   98.7350  -43.3940 H   0  0  0  0  0  0  0  0  0  0  0  0
   94.2520  100.2220  -44.0650 H   0  0  0  0  0  0  0  0  0  0  0  0
   92.3650   93.4830  -46.1540 H   0  0  0  0  0  0  0  0  0  0  0  0
   92.3900   91.5570  -44.5970 H   0  0  0  0  0  0  0  0  0  0  0  0
   91.9590   91.9740  -42.1970 H   0  0  0  0  0  0  0  0  0  0  0  0
   91.5110   94.3200  -41.4000 H   0  0  0  0  0  0  0  0  0  0  0  0
  2  3  1  0  0  0  0
  2  1  1  0  0  0  0
  3 30  1  0  0  0  0
  4  9  1  0  0  0  0
  4  3  2  0  0  0  0
  5  4  1  0  0  0  0
  6  5  2  0  0  0  0
  6  7  1  0  0  0  0
  7  2  2  0  0  0  0
  8  6  1  0  0  0  0
  9 33  1  0  0  0  0
 10 11  1  0  0  0  0
 10  9  2  0  0  0  0
 11 34  1  0  0  0  0
 12 11  1  0  0  0  0
 12 13  2  0  0  0  0
 14 36  1  0  0  0  0
 14 12  1  0  0  0  0
 14 35  1  0  0  0  0
 15 14  1  0  0  0  0
 16 15  1  0  0  0  0
 16 29  1  0  0  0  0
 17 16  2  0  0  0  0
 18 17  1  0  0  0  0
 18 19  2  0  0  0  0
 19 15  1  0  0  0  0
 20 24  1  0  0  0  0
 20 19  1  0  0  0  0
 21 20  2  0  0  0  0
 22 21  1  0  0  0  0
 22 23  1  0  0  0  0
 23 24  2  0  0  0  0
 24 25  1  0  0  0  0
 25 39  1  0  0  0  0
 25 38  1  0  0  0  0
 26 17  1  0  0  0  0
 26 27  2  0  0  0  0
 27 28  1  0  0  0  0
 28 29  2  0  0  0  0
 28 42  1  0  0  0  0
 29 43  1  0  0  0  0
 31  5  1  0  0  0  0
 32  7  1  0  0  0  0
 37 25  1  0  0  0  0
 40 26  1  0  0  0  0
 41 27  1  0  0  0  0
M  END
>  <Pose>
1

>  <Score>
-6.86

$$$$
