
 OpenBabel03212208273D

 50 53  0  0  0  0  0  0  0  0999 V2000
   90.9290   92.5150  -51.8980 B   0  0  0  0  0  0  0  0  0  0  0  0
   90.8160   91.1480  -50.5870 C   0  0  0  0  0  0  0  0  0  0  0  0
   90.1100   89.9930  -50.8460 C   0  0  0  0  0  0  0  0  0  0  0  0
   90.0220   88.9960  -49.8440 C   0  0  0  0  0  0  0  0  0  0  0  0
   90.6490   89.2390  -48.6570 C   0  0  0  0  0  0  0  0  0  0  0  0
   91.3760   90.3990  -48.3490 C   0  0  0  0  0  0  0  0  0  0  0  0
   91.4280   91.3310  -49.3620 C   0  0  0  0  0  0  0  0  0  0  0  0
   91.9730   90.5490  -47.0680 C   0  0  0  0  0  0  0  0  0  0  0  0
   91.9090   91.3600  -46.2120 N   0  0  0  0  0  0  0  0  0  0  0  0
   91.7820   92.2540  -45.3720 N   0  0  0  0  0  0  0  0  0  0  0  0
   91.6400   93.2370  -44.4480 C   0  0  0  0  0  0  0  0  0  0  0  0
   91.1950   93.3230  -43.3050 O   0  0  0  0  0  0  0  0  0  0  0  0
   92.1740   94.5830  -44.9840 C   0  0  0  0  0  0  0  0  0  0  0  0
   91.2540   95.6280  -44.8000 N   0  0  0  0  0  0  0  0  0  0  0  0
   90.3250   95.9090  -45.7900 C   0  0  0  0  0  0  0  0  0  0  0  0
   89.6000   96.9590  -45.3650 C   0  0  0  0  0  0  0  0  0  0  0  0
   90.0710   97.2990  -44.1760 N   0  0  0  0  0  0  0  0  0  0  0  0
   91.1160   96.4650  -43.8070 C   0  0  0  0  0  0  0  0  0  0  0  0
   91.7360   96.7420  -42.5240 C   0  0  0  0  0  0  0  0  0  0  0  0
   91.8420   95.7780  -41.5240 N   0  0  0  0  0  0  0  0  0  0  0  0
   92.4420   96.2520  -40.5080 O   0  0  0  0  0  0  0  0  0  0  0  0
   92.7660   97.4660  -40.7090 N   0  0  0  0  0  0  0  0  0  0  0  0
   92.3390   97.8130  -41.9710 C   0  0  0  0  0  0  0  0  0  0  0  0
   92.5690   99.0970  -42.5090 N   0  0  0  0  0  4  0  0  0  0  0  0
   88.5740   97.5140  -46.1140 C   0  0  0  0  0  0  0  0  0  0  0  0
   88.3230   96.9320  -47.3340 C   0  0  0  0  0  0  0  0  0  0  0  0
   89.0340   95.8510  -47.8170 C   0  0  0  0  0  0  0  0  0  0  0  0
   90.0560   95.3340  -47.0230 C   0  0  0  0  0  0  0  0  0  0  0  0
   89.3060   87.8500  -50.1320 O   0  0  0  0  0  0  0  0  0  0  0  0
   89.8910   86.5970  -50.2270 C   0  0  0  0  0  0  0  0  0  0  0  0
   90.6180   86.1100  -49.0060 C   0  0  0  0  0  0  0  0  0  0  0  0
   89.4770   89.7480  -52.0300 O   0  0  0  0  0  0  0  0  0  0  0  0
   90.5960   88.5090  -47.8690 H   0  0  0  0  0  0  0  0  0  0  0  0
   92.0000   92.2660  -49.1940 H   0  0  0  0  0  0  0  0  0  0  0  0
   92.6920   89.7310  -46.7040 H   0  0  0  0  0  0  0  0  0  0  0  0
   90.3800   92.1820  -45.4450 H   0  0  0  0  0  0  0  0  0  0  0  0
   92.2750   94.4140  -46.1110 H   0  0  0  0  0  0  0  0  0  0  0  0
   93.1570   94.7120  -44.5700 H   0  0  0  0  0  0  0  0  0  0  0  0
   93.6250   99.1750  -42.7580 H   0  0  0  0  0  0  0  0  0  0  0  0
   92.4450   99.8120  -41.7810 H   0  0  0  0  0  0  0  0  0  0  0  0
   92.1210   99.2140  -43.4140 H   0  0  0  0  0  0  0  0  0  0  0  0
   88.0290   98.3580  -45.7050 H   0  0  0  0  0  0  0  0  0  0  0  0
   87.5110   97.3440  -47.9640 H   0  0  0  0  0  0  0  0  0  0  0  0
   88.8000   95.4330  -48.7840 H   0  0  0  0  0  0  0  0  0  0  0  0
   90.6380   94.4930  -47.3470 H   0  0  0  0  0  0  0  0  0  0  0  0
   89.0990   85.8240  -50.5230 H   0  0  0  0  0  0  0  0  0  0  0  0
   90.6240   86.5390  -51.0890 H   0  0  0  0  0  0  0  0  0  0  0  0
   91.6440   85.8350  -49.2910 H   0  0  0  0  0  0  0  0  0  0  0  0
   90.6080   86.8660  -48.2310 H   0  0  0  0  0  0  0  0  0  0  0  0
   90.1560   85.1360  -48.6570 H   0  0  0  0  0  0  0  0  0  0  0  0
  1  2  1  0  0  0  0
  2  7  1  0  0  0  0
  3  2  2  0  0  0  0
  3  4  1  0  0  0  0
  4  5  2  0  0  0  0
  5  6  1  0  0  0  0
  5 33  1  0  0  0  0
  6  8  1  0  0  0  0
  7 34  1  0  0  0  0
  7  6  2  0  0  0  0
  8 35  1  0  0  0  0
  8  9  1  0  0  0  0
  9 10  1  0  0  0  0
 10 11  1  0  0  0  0
 11 12  2  0  0  0  0
 13 14  1  0  0  0  0
 13 38  1  0  0  0  0
 13 11  1  0  0  0  0
 14 18  1  0  0  0  0
 15 16  1  0  0  0  0
 15 14  1  0  0  0  0
 16 17  1  0  0  0  0
 17 18  2  0  0  0  0
 18 19  1  0  0  0  0
 19 23  1  0  0  0  0
 19 20  2  0  0  0  0
 20 21  1  0  0  0  0
 22 21  1  0  0  0  0
 23 22  2  0  0  0  0
 24 23  1  0  0  0  0
 24 40  1  0  0  0  0
 25 42  1  0  0  0  0
 25 16  2  0  0  0  0
 26 25  1  0  0  0  0
 27 26  2  0  0  0  0
 27 28  1  0  0  0  0
 28 15  2  0  0  0  0
 29  4  1  0  0  0  0
 30 29  1  0  0  0  0
 30 31  1  0  0  0  0
 31 50  1  0  0  0  0
 31 49  1  0  0  0  0
 32  3  1  0  0  0  0
 36 10  1  0  0  0  0
 37 13  1  0  0  0  0
 39 24  1  0  0  0  0
 41 24  1  0  0  0  0
 43 26  1  0  0  0  0
 44 27  1  0  0  0  0
 45 28  1  0  0  0  0
 46 30  1  0  0  0  0
 47 30  1  0  0  0  0
 48 31  1  0  0  0  0
M  END
>  <Pose>
1

>  <Score>
-8.64

$$$$
