
 OpenBabel03212208273D

 56 59  0  0  0  0  0  0  0  0999 V2000
   88.8300   91.0220  -51.6400 B   0  0  0  0  0  0  0  0  0  0  0  0
   89.9180   90.2630  -50.2720 C   0  0  0  0  0  0  0  0  0  0  0  0
   90.1930   88.9010  -50.2310 C   0  0  0  0  0  0  0  0  0  0  0  0
   90.9770   88.3460  -49.2450 C   0  0  0  0  0  0  0  0  0  0  0  0
   91.4870   89.1910  -48.2880 C   0  0  0  0  0  0  0  0  0  0  0  0
   91.2330   90.5530  -48.2980 C   0  0  0  0  0  0  0  0  0  0  0  0
   90.4430   91.0660  -49.3030 C   0  0  0  0  0  0  0  0  0  0  0  0
   91.7580   91.4710  -47.2990 C   0  0  0  0  0  0  0  0  0  0  0  0
   91.0220   92.3650  -46.7500 N   0  0  0  0  0  0  0  0  0  0  0  0
   91.4340   93.2700  -45.8020 N   0  0  0  0  0  0  0  0  0  0  0  0
   91.0010   94.6130  -45.7280 C   0  0  0  0  0  0  0  0  0  0  0  0
   90.4300   95.1210  -46.7120 O   0  0  0  0  0  0  0  0  0  0  0  0
   91.2030   95.4200  -44.5320 C   0  0  0  0  0  0  0  0  0  0  0  0
   91.7880   95.0790  -43.3770 N   0  0  0  0  0  0  0  0  0  0  0  0
   91.7670   96.1000  -42.5550 N   0  0  0  0  0  0  0  0  0  0  0  0
   91.1680   97.1590  -43.1300 N   0  0  0  0  0  0  0  0  0  0  0  0
   90.8110   96.7600  -44.3540 C   0  0  0  0  0  0  0  0  0  0  0  0
   90.1510   97.5220  -45.4160 C   0  0  0  0  0  0  0  0  0  0  0  0
   90.9780   98.4040  -46.1990 N   0  0  0  0  0  0  0  0  0  0  0  0
   90.0780   98.9380  -47.2280 C   0  0  0  0  0  0  0  0  0  0  0  0
   88.9290   99.7100  -46.7130 C   0  0  0  0  0  0  0  0  0  0  0  0
   89.2520  100.3830  -45.5450 O   0  0  0  0  0  0  0  0  0  0  0  0
   90.5800  100.7470  -45.6080 C   0  0  0  0  0  0  0  0  0  0  0  0
   91.4320   99.5170  -45.3630 C   0  0  0  0  0  0  0  0  0  0  0  0
   91.0190   98.4240  -42.4760 C   0  0  0  0  0  0  0  0  0  0  0  0
   89.9320   99.2060  -42.3870 N   0  0  0  0  0  0  0  0  0  0  0  0
   90.2280  100.2770  -41.6910 O   0  0  0  0  0  0  0  0  0  0  0  0
   91.4810  100.2410  -41.3070 N   0  0  0  0  0  0  0  0  0  0  0  0
   91.9980   99.0940  -41.7840 C   0  0  0  0  0  0  0  0  0  0  0  0
   93.3430   98.6950  -41.5700 N   0  0  0  0  0  0  0  0  0  0  0  0
   91.2080   86.9910  -49.2680 O   0  0  0  0  0  0  0  0  0  0  0  0
   90.7950   86.0570  -48.3260 C   0  0  0  0  0  0  0  0  0  0  0  0
   89.3410   86.1060  -47.9790 C   0  0  0  0  0  0  0  0  0  0  0  0
   89.6490   88.0940  -51.2260 O   0  0  0  0  0  0  0  0  0  0  0  0
   92.1040   88.7760  -47.5070 H   0  0  0  0  0  0  0  0  0  0  0  0
   90.2320   92.1400  -49.3250 H   0  0  0  0  0  0  0  0  0  0  0  0
   92.7970   91.4050  -47.0070 H   0  0  0  0  0  0  0  0  0  0  0  0
   92.1270   92.9270  -45.0760 H   0  0  0  0  0  0  0  0  0  0  0  0
   89.3330   98.1490  -44.9710 H   0  0  0  0  0  0  0  0  0  0  0  0
   89.5790   96.8240  -46.1050 H   0  0  0  0  0  0  0  0  0  0  0  0
   90.6910   99.5470  -47.8930 H   0  0  0  0  0  0  0  0  0  0  0  0
   89.6760   98.0170  -47.7390 H   0  0  0  0  0  0  0  0  0  0  0  0
   88.1250   98.9720  -46.4190 H   0  0  0  0  0  0  0  0  0  0  0  0
   88.4530  100.3720  -47.4640 H   0  0  0  0  0  0  0  0  0  0  0  0
   90.8670  101.4820  -44.8290 H   0  0  0  0  0  0  0  0  0  0  0  0
   90.7850  101.1330  -46.6260 H   0  0  0  0  0  0  0  0  0  0  0  0
   91.3290   99.2680  -44.2980 H   0  0  0  0  0  0  0  0  0  0  0  0
   92.4550   99.8010  -45.6580 H   0  0  0  0  0  0  0  0  0  0  0  0
   93.8050   97.9140  -42.0780 H   0  0  0  0  0  0  0  0  0  0  0  0
   93.9460   99.1920  -40.8640 H   0  0  0  0  0  0  0  0  0  0  0  0
   91.0490   85.0130  -48.6440 H   0  0  0  0  0  0  0  0  0  0  0  0
   91.3740   86.2470  -47.3870 H   0  0  0  0  0  0  0  0  0  0  0  0
   89.1730   86.3290  -46.8890 H   0  0  0  0  0  0  0  0  0  0  0  0
   88.7900   85.1660  -48.2110 H   0  0  0  0  0  0  0  0  0  0  0  0
   88.8680   86.9530  -48.5240 H   0  0  0  0  0  0  0  0  0  0  0  0
   89.9630   88.1970  -52.1840 H   0  0  0  0  0  0  0  0  0  0  0  0
  1  2  1  0  0  0  0
  2  3  2  0  0  0  0
  2  7  1  0  0  0  0
  3  4  1  0  0  0  0
  4  5  2  0  0  0  0
  5 35  1  0  0  0  0
  6  5  1  0  0  0  0
  6  8  1  0  0  0  0
  7  6  2  0  0  0  0
  8 37  1  0  0  0  0
  8  9  2  0  0  0  0
  9 10  1  0  0  0  0
 10 11  1  0  0  0  0
 10 38  1  0  0  0  0
 11 13  1  0  0  0  0
 12 11  2  0  0  0  0
 13 17  2  0  0  0  0
 13 14  1  0  0  0  0
 14 15  2  0  0  0  0
 16 15  1  0  0  0  0
 16 25  1  0  0  0  0
 17 16  1  0  0  0  0
 18 39  1  0  0  0  0
 18 17  1  0  0  0  0
 19 18  1  0  0  0  0
 19 24  1  0  0  0  0
 20 21  1  0  0  0  0
 20 19  1  0  0  0  0
 21 43  1  0  0  0  0
 21 22  1  0  0  0  0
 23 22  1  0  0  0  0
 23 24  1  0  0  0  0
 23 45  1  0  0  0  0
 24 47  1  0  0  0  0
 25 26  2  0  0  0  0
 25 29  1  0  0  0  0
 26 27  1  0  0  0  0
 27 28  1  0  0  0  0
 29 30  1  0  0  0  0
 29 28  2  0  0  0  0
 30 50  1  0  0  0  0
 31  4  1  0  0  0  0
 31 32  1  0  0  0  0
 32 33  1  0  0  0  0
 32 52  1  0  0  0  0
 33 53  1  0  0  0  0
 34  3  1  0  0  0  0
 36  7  1  0  0  0  0
 40 18  1  0  0  0  0
 41 20  1  0  0  0  0
 42 20  1  0  0  0  0
 44 21  1  0  0  0  0
 46 23  1  0  0  0  0
 48 24  1  0  0  0  0
 49 30  1  0  0  0  0
 51 32  1  0  0  0  0
 54 33  1  0  0  0  0
 55 33  1  0  0  0  0
 56 34  1  0  0  0  0
M  END
>  <Pose>
1

>  <Score>
-6.82

$$$$
