
 OpenBabel03212208273D

 53 56  0  0  0  0  0  0  0  0999 V2000
   94.3560  102.9320  -36.6800 B   0  0  0  0  0  0  0  0  0  0  0  0
   94.7400  103.0580  -38.5680 C   0  0  0  0  0  0  0  0  0  0  0  0
   95.6540  103.9960  -38.9980 C   0  0  0  0  0  0  0  0  0  0  0  0
   95.9610  104.0930  -40.3270 C   0  0  0  0  0  0  0  0  0  0  0  0
   95.3280  103.2360  -41.1980 C   0  0  0  0  0  0  0  0  0  0  0  0
   94.4030  102.2800  -40.8200 C   0  0  0  0  0  0  0  0  0  0  0  0
   94.1270  102.2270  -39.4040 C   0  0  0  0  0  0  0  0  0  0  0  0
   93.7200  101.3870  -41.5960 C   0  0  0  0  0  0  0  0  0  0  0  0
   92.7040  101.2200  -42.4640 N   0  0  0  0  0  0  0  0  0  0  0  0
   92.9430   99.6560  -42.6700 N   0  0  0  0  0  0  0  0  0  0  0  0
   91.8420   99.0800  -41.9300 C   0  0  0  0  0  0  0  0  0  0  0  0
   90.9600   99.8030  -41.4710 O   0  0  0  0  0  0  0  0  0  0  0  0
   91.7210   97.6450  -41.8020 C   0  0  0  0  0  0  0  0  0  0  0  0
   92.2190   96.7430  -41.0320 N   0  0  0  0  0  0  0  0  0  0  0  0
   92.1850   95.5660  -41.6340 N   0  0  0  0  0  0  0  0  0  0  0  0
   91.6360   95.7160  -42.8310 N   0  0  0  0  0  0  0  0  0  0  0  0
   91.2830   96.9730  -43.0580 C   0  0  0  0  0  0  0  0  0  0  0  0
   90.8000   97.7050  -44.1930 C   0  0  0  0  0  0  0  0  0  0  0  0
   89.6410   97.1720  -44.9130 N   0  0  0  0  0  0  0  0  0  0  0  0
   89.7870   97.2720  -46.3290 C   0  0  0  0  0  0  0  0  0  0  0  0
   89.7640   98.6730  -46.8680 C   0  0  0  0  0  0  0  0  0  0  0  0
   88.4700   99.1640  -46.8280 O   0  0  0  0  0  0  0  0  0  0  0  0
   87.7210   98.5020  -45.8490 C   0  0  0  0  0  0  0  0  0  0  0  0
   88.5770   98.2370  -44.6570 C   0  0  0  0  0  0  0  0  0  0  0  0
   91.8480   94.7160  -43.8580 C   0  0  0  0  0  0  0  0  0  0  0  0
   92.1680   94.7620  -45.0830 N   0  0  0  0  0  0  0  0  0  0  0  0
   92.1930   93.5540  -45.6490 O   0  0  0  0  0  0  0  0  0  0  0  0
   91.8740   92.7180  -44.7280 N   0  0  0  0  0  0  0  0  0  0  0  0
   91.6370   93.3330  -43.5690 C   0  0  0  0  0  0  0  0  0  0  0  0
   91.2470   92.7640  -42.3450 N   0  0  0  0  0  0  0  0  0  0  0  0
   96.8960  105.0210  -40.8000 O   0  0  0  0  0  0  0  0  0  0  0  0
   97.5380  104.7720  -42.0670 C   0  0  0  0  0  0  0  0  0  0  0  0
   96.2620  104.8430  -38.0670 O   0  0  0  0  0  0  0  0  0  0  0  0
   95.5900  103.3140  -42.2680 H   0  0  0  0  0  0  0  0  0  0  0  0
   93.4150  101.4760  -39.0490 H   0  0  0  0  0  0  0  0  0  0  0  0
   94.1560  100.2800  -41.4940 H   0  0  0  0  0  0  0  0  0  0  0  0
   93.6870   99.4830  -43.2030 H   0  0  0  0  0  0  0  0  0  0  0  0
   90.7610   98.7980  -44.1750 H   0  0  0  0  0  0  0  0  0  0  0  0
   91.6180   97.5750  -45.0440 H   0  0  0  0  0  0  0  0  0  0  0  0
   90.7220   96.7790  -46.6220 H   0  0  0  0  0  0  0  0  0  0  0  0
   88.9340   96.7220  -46.8530 H   0  0  0  0  0  0  0  0  0  0  0  0
   90.5160   99.3340  -46.4380 H   0  0  0  0  0  0  0  0  0  0  0  0
   90.0070   98.6010  -47.9690 H   0  0  0  0  0  0  0  0  0  0  0  0
   87.0870   97.7020  -46.1790 H   0  0  0  0  0  0  0  0  0  0  0  0
   86.9850   99.3170  -45.4960 H   0  0  0  0  0  0  0  0  0  0  0  0
   87.9750   97.9880  -43.7940 H   0  0  0  0  0  0  0  0  0  0  0  0
   89.1700   99.1960  -44.5490 H   0  0  0  0  0  0  0  0  0  0  0  0
   91.5900   93.1070  -41.4300 H   0  0  0  0  0  0  0  0  0  0  0  0
   90.5550   91.9430  -42.2910 H   0  0  0  0  0  0  0  0  0  0  0  0
   98.2180  105.5870  -42.3430 H   0  0  0  0  0  0  0  0  0  0  0  0
   98.1190  103.7890  -41.9480 H   0  0  0  0  0  0  0  0  0  0  0  0
   96.7600  104.6240  -42.8110 H   0  0  0  0  0  0  0  0  0  0  0  0
   95.7210  105.6690  -37.7320 H   0  0  0  0  0  0  0  0  0  0  0  0
  2  1  1  0  0  0  0
  3  2  1  0  0  0  0
  3 33  1  0  0  0  0
  4  3  2  0  0  0  0
  5  6  2  0  0  0  0
  5  4  1  0  0  0  0
  6  7  1  0  0  0  0
  7 35  1  0  0  0  0
  7  2  2  0  0  0  0
  8 36  1  0  0  0  0
  8  6  1  0  0  0  0
  9  8  1  0  0  0  0
 10  9  1  0  0  0  0
 10 11  1  0  0  0  0
 11 13  1  0  0  0  0
 11 12  2  0  0  0  0
 13 14  1  0  0  0  0
 15 14  2  0  0  0  0
 16 15  1  0  0  0  0
 17 16  1  0  0  0  0
 17 13  2  0  0  0  0
 18 38  1  0  0  0  0
 18 17  1  0  0  0  0
 19 24  1  0  0  0  0
 19 18  1  0  0  0  0
 20 19  1  0  0  0  0
 21 22  1  0  0  0  0
 21 42  1  0  0  0  0
 21 20  1  0  0  0  0
 22 23  1  0  0  0  0
 23 45  1  0  0  0  0
 23 24  1  0  0  0  0
 24 47  1  0  0  0  0
 24 46  1  0  0  0  0
 25 29  1  0  0  0  0
 25 16  1  0  0  0  0
 26 25  2  0  0  0  0
 27 26  1  0  0  0  0
 27 28  1  0  0  0  0
 28 29  2  0  0  0  0
 29 30  1  0  0  0  0
 30 49  1  0  0  0  0
 30 48  1  0  0  0  0
 31  4  1  0  0  0  0
 32 51  1  0  0  0  0
 32 31  1  0  0  0  0
 33 53  1  0  0  0  0
 34  5  1  0  0  0  0
 37 10  1  0  0  0  0
 39 18  1  0  0  0  0
 40 20  1  0  0  0  0
 41 20  1  0  0  0  0
 43 21  1  0  0  0  0
 44 23  1  0  0  0  0
 50 32  1  0  0  0  0
 52 32  1  0  0  0  0
M  END
>  <Pose>
1

>  <Score>
-7.52

$$$$
