
 OpenBabel03212208273D

 58 61  0  0  0  0  0  0  0  0999 V2000
   89.6330   86.9930  -49.4520 B   0  0  0  0  0  0  0  0  0  0  0  0
   90.2540   88.8080  -49.4830 C   0  0  0  0  0  0  0  0  0  0  0  0
   90.1450   89.5360  -50.6350 C   0  0  0  0  0  0  0  0  0  0  0  0
   90.6120   90.8490  -50.6600 C   0  0  0  0  0  0  0  0  0  0  0  0
   91.1860   91.4060  -49.5260 C   0  0  0  0  0  0  0  0  0  0  0  0
   91.3090   90.6860  -48.3740 C   0  0  0  0  0  0  0  0  0  0  0  0
   90.8340   89.3930  -48.3790 C   0  0  0  0  0  0  0  0  0  0  0  0
   92.0970   91.1040  -47.1960 C   0  0  0  0  0  0  0  0  0  0  0  0
   91.7610   91.6360  -46.2210 N   0  0  0  0  0  0  0  0  0  0  0  0
   91.4040   92.2350  -45.1140 N   0  0  0  0  0  0  0  0  0  0  0  0
   91.2800   93.6930  -45.3440 C   0  0  0  0  0  0  0  0  0  0  0  0
   91.7950   94.6180  -44.5560 N   0  0  0  0  0  4  0  0  0  0  0  0
   91.4740   95.9340  -44.7150 C   0  0  0  0  0  0  0  0  0  0  0  0
   90.6060   96.2120  -45.7160 N   0  0  0  0  0  0  0  0  0  0  0  0
   90.0510   95.3130  -46.5510 C   0  0  0  0  0  0  0  0  0  0  0  0
   90.4160   94.0290  -46.3410 N   0  0  0  0  0  0  0  0  0  0  0  0
   89.0580   95.6540  -47.4530 N   0  0  0  0  0  0  0  0  0  0  0  0
   88.7130   95.0630  -48.6880 C   0  0  0  0  0  0  0  0  0  0  0  0
   88.9260   96.1360  -49.7600 C   0  0  0  0  0  0  0  0  0  0  0  0
   88.1860   97.2400  -49.4000 O   0  0  0  0  0  0  0  0  0  0  0  0
   88.5310   97.8230  -48.2020 C   0  0  0  0  0  0  0  0  0  0  0  0
   88.2190   96.8220  -47.0520 C   0  0  0  0  0  0  0  0  0  0  0  0
   91.9350   96.9440  -43.8380 N   0  0  0  0  0  0  0  0  0  0  0  0
   91.7780   96.7700  -42.3850 C   0  0  0  0  0  0  0  0  0  0  0  0
   91.2130   98.1240  -41.8830 C   0  0  0  0  0  0  0  0  0  0  0  0
   92.2350   99.0100  -42.0670 O   0  0  0  0  0  0  0  0  0  0  0  0
   92.4980   99.2910  -43.3780 C   0  0  0  0  0  0  0  0  0  0  0  0
   92.5140   98.1370  -44.3250 C   0  0  0  0  0  0  0  0  0  0  0  0
   90.4570   91.5020  -51.8430 O   0  0  0  0  0  0  0  0  0  0  0  0
   90.3510   92.8580  -52.0970 C   0  0  0  0  0  0  0  0  0  0  0  0
   91.6050   93.4390  -52.7330 C   0  0  0  0  0  0  0  0  0  0  0  0
   89.5720   88.9380  -51.7370 O   0  0  0  0  0  0  0  0  0  0  0  0
   91.5280   92.4210  -49.5190 H   0  0  0  0  0  0  0  0  0  0  0  0
   90.8730   88.7910  -47.4950 H   0  0  0  0  0  0  0  0  0  0  0  0
   93.1890   90.8770  -47.2440 H   0  0  0  0  0  0  0  0  0  0  0  0
   91.1930   91.9280  -44.1840 H   0  0  0  0  0  0  0  0  0  0  0  0
   89.2080   94.1370  -48.9760 H   0  0  0  0  0  0  0  0  0  0  0  0
   87.5790   94.9020  -48.6470 H   0  0  0  0  0  0  0  0  0  0  0  0
   88.4580   95.7480  -50.7000 H   0  0  0  0  0  0  0  0  0  0  0  0
   90.0000   96.3130  -49.8630 H   0  0  0  0  0  0  0  0  0  0  0  0
   87.9100   98.6840  -48.0120 H   0  0  0  0  0  0  0  0  0  0  0  0
   89.5950   98.1490  -48.1360 H   0  0  0  0  0  0  0  0  0  0  0  0
   88.5560   97.2240  -46.1250 H   0  0  0  0  0  0  0  0  0  0  0  0
   87.1880   96.5020  -47.1130 H   0  0  0  0  0  0  0  0  0  0  0  0
   91.0220   96.0210  -42.1480 H   0  0  0  0  0  0  0  0  0  0  0  0
   92.7050   96.5140  -41.9080 H   0  0  0  0  0  0  0  0  0  0  0  0
   90.9450   98.0160  -40.8420 H   0  0  0  0  0  0  0  0  0  0  0  0
   90.3230   98.3280  -42.5340 H   0  0  0  0  0  0  0  0  0  0  0  0
   93.5170   99.7860  -43.4270 H   0  0  0  0  0  0  0  0  0  0  0  0
   91.8010  100.0750  -43.7360 H   0  0  0  0  0  0  0  0  0  0  0  0
   93.5520   97.9360  -44.6920 H   0  0  0  0  0  0  0  0  0  0  0  0
   91.8960   98.4390  -45.2310 H   0  0  0  0  0  0  0  0  0  0  0  0
   89.5130   92.9680  -52.8640 H   0  0  0  0  0  0  0  0  0  0  0  0
   90.1070   93.4420  -51.2170 H   0  0  0  0  0  0  0  0  0  0  0  0
   92.4510   92.7460  -52.7180 H   0  0  0  0  0  0  0  0  0  0  0  0
   91.8660   94.3910  -52.2020 H   0  0  0  0  0  0  0  0  0  0  0  0
   91.3880   93.7190  -53.7930 H   0  0  0  0  0  0  0  0  0  0  0  0
   89.8810   89.0750  -52.6690 H   0  0  0  0  0  0  0  0  0  0  0  0
  2  1  1  0  0  0  0
  2  7  1  0  0  0  0
  3  2  2  0  0  0  0
  4  3  1  0  0  0  0
  4  5  2  0  0  0  0
  5 33  1  0  0  0  0
  5  6  1  0  0  0  0
  6  8  1  0  0  0  0
  7  6  2  0  0  0  0
  7 34  1  0  0  0  0
  8  9  1  0  0  0  0
  9 10  1  0  0  0  0
 10 36  1  0  0  0  0
 11 10  1  0  0  0  0
 11 12  2  0  0  0  0
 13 12  2  0  0  0  0
 13 23  1  0  0  0  0
 14 13  1  0  0  0  0
 15 16  1  0  0  0  0
 15 14  2  0  0  0  0
 16 11  1  0  0  0  0
 17 22  1  0  0  0  0
 17 15  1  0  0  0  0
 18 38  1  0  0  0  0
 18 17  1  0  0  0  0
 19 20  1  0  0  0  0
 19 18  1  0  0  0  0
 20 21  1  0  0  0  0
 21 42  1  0  0  0  0
 21 41  1  0  0  0  0
 21 22  1  0  0  0  0
 22 43  1  0  0  0  0
 23 24  1  0  0  0  0
 24 45  1  0  0  0  0
 24 46  1  0  0  0  0
 24 25  1  0  0  0  0
 25 47  1  0  0  0  0
 26 25  1  0  0  0  0
 27 26  1  0  0  0  0
 28 23  1  0  0  0  0
 28 27  1  0  0  0  0
 29  4  1  0  0  0  0
 30 29  1  0  0  0  0
 30 54  1  0  0  0  0
 31 55  1  0  0  0  0
 31 56  1  0  0  0  0
 31 30  1  0  0  0  0
 32  3  1  0  0  0  0
 35  8  1  0  0  0  0
 37 18  1  0  0  0  0
 39 19  1  0  0  0  0
 40 19  1  0  0  0  0
 44 22  1  0  0  0  0
 48 25  1  0  0  0  0
 49 27  1  0  0  0  0
 50 27  1  0  0  0  0
 51 28  1  0  0  0  0
 52 28  1  0  0  0  0
 53 30  1  0  0  0  0
 57 31  1  0  0  0  0
 58 32  1  0  0  0  0
M  END
>  <Pose>
1

>  <Score>
-6.58

$$$$
