
 OpenBabel03212208273D

 64 67  0  0  1  0  0  0  0  0999 V2000
   92.9360  100.7880  -48.1210 B   0  0  0  0  0  0  0  0  0  0  0  0
   92.5020  101.1800  -46.3170 C   0  0  0  0  0  0  0  0  0  0  0  0
   93.1890  102.2130  -45.6650 C   0  0  0  0  0  0  0  0  0  0  0  0
   92.8720  102.5000  -44.3430 C   0  0  0  0  0  0  0  0  0  0  0  0
   91.9090  101.7700  -43.7320 C   0  0  0  0  0  0  0  0  0  0  0  0
   91.2310  100.7490  -44.3780 C   0  0  0  0  0  0  0  0  0  0  0  0
   91.5220  100.4420  -45.6840 C   0  0  0  0  0  0  0  0  0  0  0  0
   90.2060  100.0300  -43.5770 C   0  0  1  0  0  0  0  0  0  0  0  0
   88.9430  100.1740  -44.2690 N   0  0  0  0  0  0  0  0  0  0  0  0
   88.5580   98.9830  -44.8930 C   0  0  0  0  0  0  0  0  0  0  0  0
   87.5950   98.8350  -45.6590 O   0  0  0  0  0  0  0  0  0  0  0  0
   89.5000   97.9420  -44.4800 C   0  0  0  0  0  0  0  0  0  0  0  0
   89.4170   96.7540  -44.8820 O   0  0  0  0  0  0  0  0  0  0  0  0
   90.4640   98.5430  -43.5830 C   0  0  0  0  0  0  0  0  0  0  0  0
   91.4060   97.8990  -42.9470 C   0  0  0  0  0  0  0  0  0  0  0  0
   92.3090   98.6020  -42.1660 O   0  0  0  0  0  0  0  0  0  0  0  0
   91.5380   96.4650  -43.0210 C   0  0  0  0  0  0  0  0  0  0  0  0
   91.4710   95.9360  -44.3160 C   0  0  0  0  0  0  0  0  0  0  0  0
   91.6170   94.5900  -44.5420 C   0  0  0  0  0  0  0  0  0  0  0  0
   91.8320   93.7330  -43.4870 C   0  0  0  0  0  0  0  0  0  0  0  0
   91.8940   94.2780  -42.2190 C   0  0  0  0  0  0  0  0  0  0  0  0
   91.7520   95.6270  -41.9730 C   0  0  0  0  0  0  0  0  0  0  0  0
   91.9430   92.4250  -44.0020 O   0  0  0  0  0  0  0  0  0  0  0  0
   91.4120   92.4150  -45.3240 C   0  0  2  0  0  0  0  0  0  0  0  0
   91.5710   93.8290  -45.8320 C   0  0  0  0  0  0  0  0  0  0  0  0
   89.9310   92.0850  -45.3390 C   0  0  0  0  0  0  0  0  0  0  0  0
   88.2280  101.4340  -44.2750 C   0  0  0  0  0  0  0  0  0  0  0  0
   86.8100  101.3890  -43.8900 C   0  0  0  0  0  0  0  0  0  0  0  0
   86.4800  101.1280  -42.4670 C   0  0  0  0  0  0  0  0  0  0  0  0
   85.1590  100.5910  -42.2540 N   0  0  0  0  0  4  0  0  0  0  0  0
   84.7910   99.7560  -43.4070 C   0  0  0  0  0  0  0  0  0  0  0  0
   84.2380  101.7130  -42.2310 C   0  0  0  0  0  0  0  0  0  0  0  0
   93.5540  103.5290  -43.6880 O   0  0  0  0  0  0  0  0  0  0  0  0
   94.6390  103.3070  -42.8290 C   0  0  0  0  0  0  0  0  0  0  0  0
   94.1630  102.9450  -46.2960 O   0  0  0  0  0  0  0  0  0  0  0  0
   91.6830  102.0230  -42.6870 H   0  0  0  0  0  0  0  0  0  0  0  0
   90.9780   99.6400  -46.1730 H   0  0  0  0  0  0  0  0  0  0  0  0
   90.1300  100.4200  -42.5430 H   0  0  0  0  0  0  0  0  0  0  0  0
   91.3010   96.5960  -45.1850 H   0  0  0  0  0  0  0  0  0  0  0  0
   92.0660   93.6160  -41.3570 H   0  0  0  0  0  0  0  0  0  0  0  0
   91.8240   96.0490  -40.9790 H   0  0  0  0  0  0  0  0  0  0  0  0
   91.9490   91.7400  -46.0040 H   0  0  0  0  0  0  0  0  0  0  0  0
   90.6820   94.1510  -46.4520 H   0  0  0  0  0  0  0  0  0  0  0  0
   92.4550   93.9850  -46.4550 H   0  0  0  0  0  0  0  0  0  0  0  0
   89.5090   92.2570  -44.3200 H   0  0  0  0  0  0  0  0  0  0  0  0
   89.7530   91.0510  -45.7080 H   0  0  0  0  0  0  0  0  0  0  0  0
   89.4130   92.7700  -46.0210 H   0  0  0  0  0  0  0  0  0  0  0  0
   88.7670  102.1290  -43.5990 H   0  0  0  0  0  0  0  0  0  0  0  0
   88.3540  101.9250  -45.2900 H   0  0  0  0  0  0  0  0  0  0  0  0
   86.3120  100.5770  -44.4960 H   0  0  0  0  0  0  0  0  0  0  0  0
   86.2930  102.3150  -44.2030 H   0  0  0  0  0  0  0  0  0  0  0  0
   87.1970  100.5050  -41.9180 H   0  0  0  0  0  0  0  0  0  0  0  0
   86.4910  102.1230  -41.9430 H   0  0  0  0  0  0  0  0  0  0  0  0
   85.0340  100.0720  -41.3810 H   0  0  0  0  0  0  0  0  0  0  0  0
   85.3790   98.8000  -43.4070 H   0  0  0  0  0  0  0  0  0  0  0  0
   83.7190   99.4780  -43.3830 H   0  0  0  0  0  0  0  0  0  0  0  0
   84.9900  100.3410  -44.3390 H   0  0  0  0  0  0  0  0  0  0  0  0
   83.6080  101.7140  -41.3220 H   0  0  0  0  0  0  0  0  0  0  0  0
   83.6070  101.7350  -43.1470 H   0  0  0  0  0  0  0  0  0  0  0  0
   84.7880  102.6960  -42.2260 H   0  0  0  0  0  0  0  0  0  0  0  0
   94.3920  102.5880  -42.0060 H   0  0  0  0  0  0  0  0  0  0  0  0
   95.4870  102.9130  -43.4610 H   0  0  0  0  0  0  0  0  0  0  0  0
   94.9530  104.2670  -42.4060 H   0  0  0  0  0  0  0  0  0  0  0  0
   95.1140  102.6820  -46.2280 H   0  0  0  0  0  0  0  0  0  0  0  0
  1  2  1  0  0  0  0
  2  7  2  0  0  0  0
  2  3  1  0  0  0  0
  3  4  2  0  0  0  0
  4  5  1  0  0  0  0
  4 33  1  0  0  0  0
  5 36  1  0  0  0  0
  6  5  2  0  0  0  0
  6  8  1  0  0  0  0
  7  6  1  0  0  0  0
  8 38  1  1  0  0  0
  9  8  1  0  0  0  0
 10 12  1  0  0  0  0
 10  9  1  0  0  0  0
 11 10  2  0  0  0  0
 12 14  1  0  0  0  0
 13 12  2  0  0  0  0
 14  8  1  0  0  0  0
 14 15  2  0  0  0  0
 15 16  1  0  0  0  0
 17 15  1  0  0  0  0
 17 22  1  0  0  0  0
 18 17  2  0  0  0  0
 19 18  1  0  0  0  0
 19 20  2  0  0  0  0
 20 21  1  0  0  0  0
 21 22  2  0  0  0  0
 21 40  1  0  0  0  0
 22 41  1  0  0  0  0
 23 20  1  0  0  0  0
 24 42  1  6  0  0  0
 24 23  1  0  0  0  0
 25 24  1  0  0  0  0
 25 19  1  0  0  0  0
 26 24  1  0  0  0  0
 26 45  1  0  0  0  0
 27  9  1  0  0  0  0
 27 28  1  0  0  0  0
 27 48  1  0  0  0  0
 28 29  1  0  0  0  0
 29 30  1  0  0  0  0
 29 53  1  0  0  0  0
 29 52  1  0  0  0  0
 30 32  1  0  0  0  0
 30 54  1  0  0  0  0
 31 55  1  0  0  0  0
 31 56  1  0  0  0  0
 31 30  1  0  0  0  0
 32 60  1  0  0  0  0
 32 58  1  0  0  0  0
 33 34  1  0  0  0  0
 34 63  1  0  0  0  0
 34 61  1  0  0  0  0
 35 64  1  0  0  0  0
 35  3  1  0  0  0  0
 37  7  1  0  0  0  0
 39 18  1  0  0  0  0
 43 25  1  0  0  0  0
 44 25  1  0  0  0  0
 46 26  1  0  0  0  0
 47 26  1  0  0  0  0
 49 27  1  0  0  0  0
 50 28  1  0  0  0  0
 51 28  1  0  0  0  0
 57 31  1  0  0  0  0
 59 32  1  0  0  0  0
 62 34  1  0  0  0  0
M  END
>  <Pose>
1

>  <Score>
-4.49

$$$$
