
 OpenBabel03212208273D

 39 42  0  0  1  0  0  0  0  0999 V2000
   85.9830   99.0680  -43.8220 B   0  0  0  0  0  0  0  0  0  0  0  0
   87.8430   99.4160  -43.6390 C   0  0  0  0  0  0  0  0  0  0  0  0
   88.2840  100.3180  -42.7000 C   0  0  0  0  0  0  0  0  0  0  0  0
   89.6380  100.5500  -42.5890 C   0  0  0  0  0  0  0  0  0  0  0  0
   90.5890   99.9290  -43.3700 C   0  0  0  0  0  0  0  0  0  0  0  0
   90.1400   99.0250  -44.3090 C   0  0  0  0  0  0  0  0  0  0  0  0
   88.7920   98.7740  -44.4410 C   0  0  0  0  0  0  0  0  0  0  0  0
   91.0680   98.2850  -45.2090 C   0  0  2  0  0  0  0  0  0  0  0  0
   90.5490   98.2840  -46.5130 N   0  0  0  0  0  4  0  0  0  0  0  0
   90.5730   97.0930  -47.2740 C   0  0  1  0  0  0  0  0  0  0  0  0
   91.5650   96.0560  -46.8210 C   0  0  0  0  0  0  0  0  0  0  0  0
   91.5480   95.8760  -45.3500 C   0  0  0  0  0  0  0  0  0  0  0  0
   91.7360   94.7810  -44.5510 C   0  0  0  0  0  0  0  0  0  0  0  0
   91.5950   95.2530  -43.2580 C   0  0  0  0  0  0  0  0  0  0  0  0
   91.3330   96.5860  -43.2980 N   0  0  0  0  0  0  0  0  0  0  0  0
   91.3040   96.9720  -44.5810 C   0  0  0  0  0  0  0  0  0  0  0  0
   91.7400   94.3330  -42.2410 C   0  0  0  0  0  0  0  0  0  0  0  0
   92.0120   93.0060  -42.4980 C   0  0  0  0  0  0  0  0  0  0  0  0
   92.1520   92.5370  -43.7880 C   0  0  0  0  0  0  0  0  0  0  0  0
   92.0100   93.4480  -44.8210 C   0  0  0  0  0  0  0  0  0  0  0  0
   89.2440   96.4280  -47.3480 C   0  0  0  0  0  0  0  0  0  0  0  0
   88.6760   96.2880  -48.4840 O   0  0  0  0  0  0  0  0  0  0  0  0
   88.6390   95.9720  -46.1880 O   0  0  0  0  0  0  0  0  0  0  0  0
   90.2260  101.8060  -41.2810 B   0  0  0  0  0  0  0  0  0  0  0  0
   87.3750  100.9960  -41.8630 O   0  0  0  0  0  0  0  0  0  0  0  0
   91.6410  100.0900  -43.3050 H   0  0  0  0  0  0  0  0  0  0  0  0
   88.3630   98.0760  -45.1540 H   0  0  0  0  0  0  0  0  0  0  0  0
   92.0450   98.8390  -45.1530 H   0  0  0  0  0  0  0  0  0  0  0  0
   89.5620   98.6720  -46.5450 H   0  0  0  0  0  0  0  0  0  0  0  0
   91.0800   99.0270  -47.0720 H   0  0  0  0  0  0  0  0  0  0  0  0
   90.8400   97.3030  -48.3550 H   0  0  0  0  0  0  0  0  0  0  0  0
   92.6080   96.2830  -47.1220 H   0  0  0  0  0  0  0  0  0  0  0  0
   91.3000   95.0800  -47.2790 H   0  0  0  0  0  0  0  0  0  0  0  0
   91.1930   97.1340  -42.4220 H   0  0  0  0  0  0  0  0  0  0  0  0
   91.6370   94.6730  -41.2250 H   0  0  0  0  0  0  0  0  0  0  0  0
   92.1280   92.2760  -41.6810 H   0  0  0  0  0  0  0  0  0  0  0  0
   92.3650   91.4890  -43.9500 H   0  0  0  0  0  0  0  0  0  0  0  0
   92.1130   93.1060  -45.8430 H   0  0  0  0  0  0  0  0  0  0  0  0
   87.0900  100.5360  -41.0090 H   0  0  0  0  0  0  0  0  0  0  0  0
  1  2  1  0  0  0  0
  2  3  1  0  0  0  0
  3  4  2  0  0  0  0
  3 25  1  0  0  0  0
  4 24  1  0  0  0  0
  5 26  1  0  0  0  0
  5  4  1  0  0  0  0
  6  5  2  0  0  0  0
  7  6  1  0  0  0  0
  7  2  2  0  0  0  0
  8 28  1  6  0  0  0
  8 16  1  0  0  0  0
  8  6  1  0  0  0  0
  9  8  1  0  0  0  0
 10 31  1  6  0  0  0
 10 11  1  0  0  0  0
 10  9  1  0  0  0  0
 11 12  1  0  0  0  0
 12 16  2  0  0  0  0
 12 13  1  0  0  0  0
 13 14  1  0  0  0  0
 14 17  2  0  0  0  0
 15 14  1  0  0  0  0
 15 34  1  0  0  0  0
 16 15  1  0  0  0  0
 17 35  1  0  0  0  0
 18 17  1  0  0  0  0
 18 36  1  0  0  0  0
 19 18  2  0  0  0  0
 20 13  2  0  0  0  0
 20 19  1  0  0  0  0
 21 10  1  0  0  0  0
 21 23  1  0  0  0  0
 22 21  2  0  0  0  0
 25 39  1  0  0  0  0
 27  7  1  0  0  0  0
 29  9  1  0  0  0  0
 30  9  1  0  0  0  0
 32 11  1  0  0  0  0
 33 11  1  0  0  0  0
 37 19  1  0  0  0  0
 38 20  1  0  0  0  0
M  END
>  <Pose>
1

>  <Score>
-4.13

$$$$
