
 OpenBabel03212208273D

 52 55  0  0  0  0  0  0  0  0999 V2000
   96.1900  103.9840  -43.8430 B   0  0  0  0  0  0  0  0  0  0  0  0
   95.6460  103.3660  -42.1300 C   0  0  0  0  0  0  0  0  0  0  0  0
   96.3520  103.8050  -41.0210 C   0  0  0  0  0  0  0  0  0  0  0  0
   95.9420  103.3380  -39.7870 C   0  0  0  0  0  0  0  0  0  0  0  0
   94.8820  102.4760  -39.6720 C   0  0  0  0  0  0  0  0  0  0  0  0
   94.1560  102.0220  -40.7720 C   0  0  0  0  0  0  0  0  0  0  0  0
   94.5800  102.4980  -41.9930 C   0  0  0  0  0  0  0  0  0  0  0  0
   93.0320  101.1290  -40.5780 C   0  0  0  0  0  0  0  0  0  0  0  0
   92.7160  100.2280  -41.4440 N   0  0  0  0  0  0  0  0  0  0  0  0
   91.6500   99.3550  -41.3040 N   0  0  0  0  0  0  0  0  0  0  0  0
   91.4320   98.3220  -42.2570 C   0  0  0  0  0  0  0  0  0  0  0  0
   91.7880   97.0760  -41.9850 N   0  0  0  0  0  4  0  0  0  0  0  0
   91.5930   96.0350  -42.8130 C   0  0  0  0  0  0  0  0  0  0  0  0
   90.9940   96.3040  -43.9940 N   0  0  0  0  0  0  0  0  0  0  0  0
   90.6070   97.5630  -44.3300 C   0  0  0  0  0  0  0  0  0  0  0  0
   90.8360   98.5630  -43.4440 N   0  0  0  0  0  0  0  0  0  0  0  0
   89.9680   97.8270  -45.5590 N   0  0  0  0  0  0  0  0  0  0  0  0
   89.5470   96.7590  -46.4290 C   0  0  0  0  0  0  0  0  0  0  0  0
   88.0630   97.0310  -46.7150 C   0  0  0  0  0  0  0  0  0  0  0  0
   87.9250   98.3240  -47.1780 O   0  0  0  0  0  0  0  0  0  0  0  0
   88.1710   99.2380  -46.1540 C   0  0  0  0  0  0  0  0  0  0  0  0
   89.7020   99.1850  -45.9580 C   0  0  0  0  0  0  0  0  0  0  0  0
   91.9930   94.6980  -42.4720 N   0  0  0  0  0  0  0  0  0  0  0  0
   91.8430   93.6130  -43.3990 C   0  0  0  0  0  0  0  0  0  0  0  0
   92.5120   92.3410  -43.0500 C   0  0  0  0  0  0  0  0  0  0  0  0
   92.8900   92.2350  -41.7180 O   0  0  0  0  0  0  0  0  0  0  0  0
   93.5700   93.3610  -41.2760 C   0  0  0  0  0  0  0  0  0  0  0  0
   92.5520   94.4700  -41.1720 C   0  0  0  0  0  0  0  0  0  0  0  0
   94.4730  102.0060  -38.4190 O   0  0  0  0  0  0  0  0  0  0  0  0
   97.4310  104.6810  -41.1270 O   0  0  0  0  0  0  0  0  0  0  0  0
   96.5120  103.6950  -38.9230 H   0  0  0  0  0  0  0  0  0  0  0  0
   94.0180  102.1470  -42.8720 H   0  0  0  0  0  0  0  0  0  0  0  0
   92.4340  101.2110  -39.6850 H   0  0  0  0  0  0  0  0  0  0  0  0
   91.0070   99.4510  -40.5090 H   0  0  0  0  0  0  0  0  0  0  0  0
   90.1150   96.8030  -47.3810 H   0  0  0  0  0  0  0  0  0  0  0  0
   89.6510   95.7600  -45.9350 H   0  0  0  0  0  0  0  0  0  0  0  0
   87.7170   96.2750  -47.4420 H   0  0  0  0  0  0  0  0  0  0  0  0
   87.5350   96.8900  -45.7390 H   0  0  0  0  0  0  0  0  0  0  0  0
   87.7390   98.8050  -45.2030 H   0  0  0  0  0  0  0  0  0  0  0  0
   87.8080  100.2380  -46.3760 H   0  0  0  0  0  0  0  0  0  0  0  0
   90.1260   99.3120  -46.9960 H   0  0  0  0  0  0  0  0  0  0  0  0
   90.0550   99.9470  -45.2560 H   0  0  0  0  0  0  0  0  0  0  0  0
   90.7370   93.4660  -43.5450 H   0  0  0  0  0  0  0  0  0  0  0  0
   92.2660   93.9740  -44.3870 H   0  0  0  0  0  0  0  0  0  0  0  0
   93.3960   92.1610  -43.7130 H   0  0  0  0  0  0  0  0  0  0  0  0
   91.8020   91.4990  -43.2520 H   0  0  0  0  0  0  0  0  0  0  0  0
   94.0480   93.1140  -40.3250 H   0  0  0  0  0  0  0  0  0  0  0  0
   94.3310   93.7220  -42.0190 H   0  0  0  0  0  0  0  0  0  0  0  0
   93.1280   95.3600  -40.8050 H   0  0  0  0  0  0  0  0  0  0  0  0
   91.7720   94.2550  -40.4110 H   0  0  0  0  0  0  0  0  0  0  0  0
   93.7730  101.2700  -38.3880 H   0  0  0  0  0  0  0  0  0  0  0  0
   98.2540  104.4910  -41.6790 H   0  0  0  0  0  0  0  0  0  0  0  0
  1  2  1  0  0  0  0
  2  7  2  0  0  0  0
  2  3  1  0  0  0  0
  3  4  2  0  0  0  0
  4  5  1  0  0  0  0
  4 31  1  0  0  0  0
  5 29  1  0  0  0  0
  6  8  1  0  0  0  0
  6  5  2  0  0  0  0
  7  6  1  0  0  0  0
  8 33  1  0  0  0  0
  9 10  1  0  0  0  0
  9  8  2  0  0  0  0
 10 34  1  0  0  0  0
 11 12  2  0  0  0  0
 11 10  1  0  0  0  0
 13 23  1  0  0  0  0
 13 12  2  0  0  0  0
 14 13  1  0  0  0  0
 15 14  2  0  0  0  0
 15 16  1  0  0  0  0
 16 11  1  0  0  0  0
 17 15  1  0  0  0  0
 18 36  1  0  0  0  0
 18 17  1  0  0  0  0
 19 18  1  0  0  0  0
 19 38  1  0  0  0  0
 20 19  1  0  0  0  0
 20 21  1  0  0  0  0
 21 22  1  0  0  0  0
 21 39  1  0  0  0  0
 22 17  1  0  0  0  0
 22 42  1  0  0  0  0
 23 28  1  0  0  0  0
 24 25  1  0  0  0  0
 24 23  1  0  0  0  0
 25 26  1  0  0  0  0
 26 27  1  0  0  0  0
 27 28  1  0  0  0  0
 27 47  1  0  0  0  0
 28 49  1  0  0  0  0
 28 50  1  0  0  0  0
 29 51  1  0  0  0  0
 30  3  1  0  0  0  0
 32  7  1  0  0  0  0
 35 18  1  0  0  0  0
 37 19  1  0  0  0  0
 40 21  1  0  0  0  0
 41 22  1  0  0  0  0
 43 24  1  0  0  0  0
 44 24  1  0  0  0  0
 45 25  1  0  0  0  0
 46 25  1  0  0  0  0
 48 27  1  0  0  0  0
 52 30  1  0  0  0  0
M  END
>  <Pose>
1

>  <Score>
-5.86

$$$$
