
 OpenBabel03212208273D

 52 55  0  0  0  0  0  0  0  0999 V2000
   92.7680   98.6560  -45.3750 B   0  0  0  0  0  0  0  0  0  0  0  0
   91.5290   99.5480  -44.2330 C   0  0  0  0  0  0  0  0  0  0  0  0
   91.8440  100.7750  -43.6770 C   0  0  0  0  0  0  0  0  0  0  0  0
   90.9250  101.4020  -42.8500 C   0  0  0  0  0  0  0  0  0  0  0  0
   89.7160  100.7960  -42.5910 C   0  0  0  0  0  0  0  0  0  0  0  0
   89.4380   99.5660  -43.1670 C   0  0  0  0  0  0  0  0  0  0  0  0
   90.3290   98.9220  -43.9910 C   0  0  0  0  0  0  0  0  0  0  0  0
   89.9990   97.6400  -44.5620 C   0  0  0  0  0  0  0  0  0  0  0  0
   90.2310   97.3000  -45.7870 N   0  0  0  0  0  0  0  0  0  0  0  0
   89.8680   96.0080  -46.2600 N   0  0  0  0  0  0  0  0  0  0  0  0
   90.6130   94.8580  -45.9270 C   0  0  0  0  0  0  0  0  0  0  0  0
   91.4030   94.8770  -44.8500 N   0  0  0  0  0  4  0  0  0  0  0  0
   92.1520   93.8040  -44.4800 C   0  0  0  0  0  0  0  0  0  0  0  0
   92.0920   92.6880  -45.2240 N   0  0  0  0  0  0  0  0  0  0  0  0
   91.3080   92.6360  -46.3110 C   0  0  0  0  0  0  0  0  0  0  0  0
   90.5700   93.7350  -46.6510 N   0  0  0  0  0  0  0  0  0  0  0  0
   91.2370   91.4530  -47.1060 N   0  0  0  0  0  0  0  0  0  0  0  0
   92.2210   90.3980  -47.0550 C   0  0  0  0  0  0  0  0  0  0  0  0
   92.6100   89.9570  -48.4500 C   0  0  0  0  0  0  0  0  0  0  0  0
   91.9540   90.6770  -49.4370 O   0  0  0  0  0  0  0  0  0  0  0  0
   90.5640   90.5370  -49.2570 C   0  0  0  0  0  0  0  0  0  0  0  0
   90.1240   91.2960  -48.0200 C   0  0  0  0  0  0  0  0  0  0  0  0
   92.9490   93.9290  -43.3240 N   0  0  0  0  0  0  0  0  0  0  0  0
   92.7340   95.0410  -42.4380 C   0  0  0  0  0  0  0  0  0  0  0  0
   92.4590   94.4120  -41.0630 C   0  0  0  0  0  0  0  0  0  0  0  0
   93.6260   93.7220  -40.7310 O   0  0  0  0  0  0  0  0  0  0  0  0
   93.8220   92.6070  -41.5380 C   0  0  0  0  0  0  0  0  0  0  0  0
   93.9830   92.9770  -42.9990 C   0  0  0  0  0  0  0  0  0  0  0  0
   88.8280  101.4570  -41.7580 O   0  0  0  0  0  0  0  0  0  0  0  0
   93.0600  101.3790  -43.9400 O   0  0  0  0  0  0  0  0  0  0  0  0
   91.1890  102.3620  -42.4250 H   0  0  0  0  0  0  0  0  0  0  0  0
   88.4710   99.1460  -42.9230 H   0  0  0  0  0  0  0  0  0  0  0  0
   89.5190   96.8740  -43.9510 H   0  0  0  0  0  0  0  0  0  0  0  0
   89.0320   95.8910  -46.8680 H   0  0  0  0  0  0  0  0  0  0  0  0
   91.7210   89.5130  -46.5630 H   0  0  0  0  0  0  0  0  0  0  0  0
   93.1260   90.6740  -46.4800 H   0  0  0  0  0  0  0  0  0  0  0  0
   92.3700   88.8770  -48.6280 H   0  0  0  0  0  0  0  0  0  0  0  0
   93.7090   90.1160  -48.6190 H   0  0  0  0  0  0  0  0  0  0  0  0
   90.0860   90.9630  -50.1670 H   0  0  0  0  0  0  0  0  0  0  0  0
   90.2830   89.4490  -49.1670 H   0  0  0  0  0  0  0  0  0  0  0  0
   89.3430   90.7280  -47.4910 H   0  0  0  0  0  0  0  0  0  0  0  0
   89.7330   92.3050  -48.3390 H   0  0  0  0  0  0  0  0  0  0  0  0
   91.8600   95.6410  -42.7670 H   0  0  0  0  0  0  0  0  0  0  0  0
   93.6670   95.6500  -42.3980 H   0  0  0  0  0  0  0  0  0  0  0  0
   92.2350   95.1470  -40.2940 H   0  0  0  0  0  0  0  0  0  0  0  0
   91.6140   93.6920  -41.2420 H   0  0  0  0  0  0  0  0  0  0  0  0
   93.0570   91.8250  -41.3960 H   0  0  0  0  0  0  0  0  0  0  0  0
   94.8060   92.1750  -41.2310 H   0  0  0  0  0  0  0  0  0  0  0  0
   94.9720   93.4950  -43.1080 H   0  0  0  0  0  0  0  0  0  0  0  0
   93.9310   92.0610  -43.6090 H   0  0  0  0  0  0  0  0  0  0  0  0
   88.5750  101.1420  -40.8310 H   0  0  0  0  0  0  0  0  0  0  0  0
   93.8210  100.8000  -44.2680 H   0  0  0  0  0  0  0  0  0  0  0  0
  1  2  1  0  0  0  0
  2  7  2  0  0  0  0
  2  3  1  0  0  0  0
  3  4  2  0  0  0  0
  4  5  1  0  0  0  0
  4 31  1  0  0  0  0
  5 29  1  0  0  0  0
  6 32  1  0  0  0  0
  6  5  2  0  0  0  0
  7  6  1  0  0  0  0
  8  7  1  0  0  0  0
  8 33  1  0  0  0  0
  9  8  2  0  0  0  0
 10 11  1  0  0  0  0
 10  9  1  0  0  0  0
 11 12  2  0  0  0  0
 12 13  2  0  0  0  0
 13 23  1  0  0  0  0
 14 13  1  0  0  0  0
 15 14  2  0  0  0  0
 16 15  1  0  0  0  0
 16 11  1  0  0  0  0
 17 18  1  0  0  0  0
 17 15  1  0  0  0  0
 18 35  1  0  0  0  0
 18 36  1  0  0  0  0
 19 18  1  0  0  0  0
 20 21  1  0  0  0  0
 20 19  1  0  0  0  0
 21 40  1  0  0  0  0
 21 22  1  0  0  0  0
 22 41  1  0  0  0  0
 22 17  1  0  0  0  0
 23 28  1  0  0  0  0
 23 24  1  0  0  0  0
 24 44  1  0  0  0  0
 24 25  1  0  0  0  0
 25 26  1  0  0  0  0
 25 45  1  0  0  0  0
 27 47  1  0  0  0  0
 27 48  1  0  0  0  0
 27 26  1  0  0  0  0
 28 27  1  0  0  0  0
 29 51  1  0  0  0  0
 30  3  1  0  0  0  0
 34 10  1  0  0  0  0
 37 19  1  0  0  0  0
 38 19  1  0  0  0  0
 39 21  1  0  0  0  0
 42 22  1  0  0  0  0
 43 24  1  0  0  0  0
 46 25  1  0  0  0  0
 49 28  1  0  0  0  0
 50 28  1  0  0  0  0
 52 30  1  0  0  0  0
M  END
>  <Pose>
1

>  <Score>
-6.13

$$$$
