
 OpenBabel03212208273D

 46 49  0  0  1  0  0  0  0  0999 V2000
   91.2920   91.2320  -47.4420 B   0  0  0  0  0  0  0  0  0  0  0  0
   91.4350   92.6030  -46.1250 C   0  0  0  0  0  0  0  0  0  0  0  0
   90.9880   93.8790  -46.4440 C   0  0  0  0  0  0  0  0  0  0  0  0
   91.1000   94.8450  -45.4820 C   0  0  0  0  0  0  0  0  0  0  0  0
   91.6230   94.6470  -44.2230 C   0  0  0  0  0  0  0  0  0  0  0  0
   92.0610   93.3500  -43.9420 C   0  0  0  0  0  0  0  0  0  0  0  0
   91.9690   92.3410  -44.8800 C   0  0  0  0  0  0  0  0  0  0  0  0
   91.7330   95.6640  -43.2350 N   0  0  0  0  0  0  0  0  0  0  0  0
   91.7270   97.0770  -43.5290 C   0  0  0  0  0  0  0  0  0  0  0  0
   91.0770   97.6490  -42.2880 C   0  0  1  0  0  0  0  0  0  0  0  0
   91.8110   96.8910  -41.1960 C   0  0  0  0  0  0  0  0  0  0  0  0
   91.8730   95.5480  -41.8310 C   0  0  0  0  0  0  0  0  0  0  0  0
   92.0250   94.4790  -41.2030 O   0  0  0  0  0  0  0  0  0  0  0  0
   91.2760   99.1090  -42.1760 C   0  0  0  0  0  0  0  0  0  0  0  0
   90.3020   99.8940  -42.0820 O   0  0  0  0  0  0  0  0  0  0  0  0
   92.5900   99.6210  -42.1750 N   0  0  0  0  0  0  0  0  0  0  0  0
   92.8340  101.0350  -42.3310 C   0  0  0  0  0  0  0  0  0  0  0  0
   93.0310  101.6960  -41.0100 C   0  0  0  0  0  0  0  0  0  0  0  0
   94.0850  102.4500  -40.6080 N   0  0  0  0  0  0  0  0  0  0  0  0
   93.8800  102.8660  -39.3470 C   0  0  0  0  0  0  0  0  0  0  0  0
   92.6780  102.3480  -38.9900 N   0  0  0  0  0  0  0  0  0  0  0  0
   92.1680  101.6480  -39.9830 N   0  0  0  0  0  0  0  0  0  0  0  0
   95.0280  103.7040  -38.8690 C   0  0  0  0  0  0  0  0  0  0  0  0
   96.0950  103.3990  -39.8960 C   0  0  0  0  0  0  0  0  0  0  0  0
   95.3510  102.9320  -41.1300 C   0  0  0  0  0  0  0  0  0  0  0  0
   90.4190   94.1300  -47.7960 C   0  0  0  0  0  0  0  0  0  0  0  0
   90.7420   95.8470  -45.7490 H   0  0  0  0  0  0  0  0  0  0  0  0
   92.4870   93.0810  -42.9890 H   0  0  0  0  0  0  0  0  0  0  0  0
   92.3020   91.3340  -44.6800 H   0  0  0  0  0  0  0  0  0  0  0  0
   92.7910   97.3970  -43.6300 H   0  0  0  0  0  0  0  0  0  0  0  0
   91.1500   97.3210  -44.4450 H   0  0  0  0  0  0  0  0  0  0  0  0
   90.0170   97.3420  -42.3070 H   0  0  0  0  0  0  0  0  0  0  0  0
   91.1430   96.8970  -40.3110 H   0  0  0  0  0  0  0  0  0  0  0  0
   92.7960   97.3150  -40.9980 H   0  0  0  0  0  0  0  0  0  0  0  0
   93.3990   98.9840  -42.0620 H   0  0  0  0  0  0  0  0  0  0  0  0
   93.7080  101.2460  -42.9720 H   0  0  0  0  0  0  0  0  0  0  0  0
   91.9600  101.5250  -42.8410 H   0  0  0  0  0  0  0  0  0  0  0  0
   94.7280  104.7620  -38.8640 H   0  0  0  0  0  0  0  0  0  0  0  0
   95.4180  103.3420  -37.8950 H   0  0  0  0  0  0  0  0  0  0  0  0
   96.8220  102.6400  -39.5350 H   0  0  0  0  0  0  0  0  0  0  0  0
   96.6680  104.3270  -40.0680 H   0  0  0  0  0  0  0  0  0  0  0  0
   95.8860  102.1360  -41.6720 H   0  0  0  0  0  0  0  0  0  0  0  0
   95.2380  103.8010  -41.8090 H   0  0  0  0  0  0  0  0  0  0  0  0
   90.2070   95.2080  -47.9180 H   0  0  0  0  0  0  0  0  0  0  0  0
   91.0740   93.7290  -48.5930 H   0  0  0  0  0  0  0  0  0  0  0  0
   89.4160   93.6260  -47.7980 H   0  0  0  0  0  0  0  0  0  0  0  0
  1  2  1  0  0  0  0
  2  7  1  0  0  0  0
  3  2  2  0  0  0  0
  3  4  1  0  0  0  0
  4  5  2  0  0  0  0
  5  6  1  0  0  0  0
  5  8  1  0  0  0  0
  6 28  1  0  0  0  0
  7 29  1  0  0  0  0
  7  6  2  0  0  0  0
  8 12  1  0  0  0  0
  9  8  1  0  0  0  0
  9 10  1  0  0  0  0
 10 32  1  1  0  0  0
 10 14  1  0  0  0  0
 10 11  1  0  0  0  0
 11 34  1  0  0  0  0
 11 33  1  0  0  0  0
 12 13  2  0  0  0  0
 12 11  1  0  0  0  0
 14 16  1  0  0  0  0
 14 15  2  0  0  0  0
 16 35  1  0  0  0  0
 17 16  1  0  0  0  0
 17 18  1  0  0  0  0
 18 19  1  0  0  0  0
 18 22  2  0  0  0  0
 19 20  1  0  0  0  0
 20 21  2  0  0  0  0
 20 23  1  0  0  0  0
 22 21  1  0  0  0  0
 23 38  1  0  0  0  0
 23 39  1  0  0  0  0
 24 40  1  0  0  0  0
 24 23  1  0  0  0  0
 25 19  1  0  0  0  0
 25 24  1  0  0  0  0
 26  3  1  0  0  0  0
 27  4  1  0  0  0  0
 30  9  1  0  0  0  0
 31  9  1  0  0  0  0
 36 17  1  0  0  0  0
 37 17  1  0  0  0  0
 41 24  1  0  0  0  0
 42 25  1  0  0  0  0
 43 25  1  0  0  0  0
 44 26  1  0  0  0  0
 45 26  1  0  0  0  0
 46 26  1  0  0  0  0
M  END
>  <Pose>
1

>  <Score>
-5.64

$$$$
