
 OpenBabel03212208273D

 33 36  0  0  1  0  0  0  0  0999 V2000
   89.4770  103.0960  -41.7650 B   0  0  0  0  0  0  0  0  0  0  0  0
   88.5430  101.5330  -42.3370 C   0  0  0  0  0  0  0  0  0  0  0  0
   89.1800  100.3280  -42.4960 C   0  0  0  0  0  0  0  0  0  0  0  0
   88.4760   99.2250  -42.9170 C   0  0  0  0  0  0  0  0  0  0  0  0
   87.1160   99.2930  -43.1900 C   0  0  0  0  0  0  0  0  0  0  0  0
   86.4590  100.4900  -43.0380 C   0  0  0  0  0  0  0  0  0  0  0  0
   87.1840  101.6070  -42.6090 C   0  0  0  0  0  0  0  0  0  0  0  0
   90.6300  100.1580  -42.2200 C   0  0  1  0  0  0  0  0  0  0  0  0
   91.2440   99.0120  -42.7300 C   0  0  1  0  0  0  0  0  0  0  0  0
   91.6250   98.4720  -44.0640 C   0  0  0  0  0  0  0  0  0  0  0  0
   93.0210   98.9730  -43.9940 N   0  0  0  0  0  0  0  0  0  0  0  0
   92.9920  100.1520  -43.4570 C   0  0  1  0  0  0  0  0  0  0  0  0
   91.6250  100.4570  -43.1760 C   0  0  2  0  0  0  0  0  0  0  0  0
   91.0120  100.9670  -44.4400 C   0  0  0  0  0  0  0  0  0  0  0  0
   90.5110  101.3870  -45.4260 N   0  0  0  0  0  0  0  0  0  0  0  0
   94.1420  100.9890  -43.1980 N   0  0  0  0  0  0  0  0  0  0  0  0
   91.6370   97.0760  -43.9800 O   0  0  0  0  0  0  0  0  0  0  0  0
   90.8890   96.6000  -45.0400 C   0  0  0  0  0  0  0  0  0  0  0  0
   90.9930   97.7360  -46.0440 C   0  0  0  0  0  0  0  0  0  0  0  0
   90.9350   98.8340  -45.1500 O   0  0  0  0  0  0  0  0  0  0  0  0
   92.1950   98.3860  -41.7430 C   0  0  0  0  0  0  0  0  0  0  0  0
   92.9560   97.8970  -40.9830 N   0  0  0  0  0  0  0  0  0  0  0  0
   88.9340   98.2340  -43.0600 H   0  0  0  0  0  0  0  0  0  0  0  0
   86.5510   98.4400  -43.5190 H   0  0  0  0  0  0  0  0  0  0  0  0
   85.4190  100.5590  -43.2400 H   0  0  0  0  0  0  0  0  0  0  0  0
   86.7050  102.5740  -42.4740 H   0  0  0  0  0  0  0  0  0  0  0  0
   90.8390  100.5140  -41.1720 H   0  0  0  0  0  0  0  0  0  0  0  0
   94.6900  100.8920  -42.3220 H   0  0  0  0  0  0  0  0  0  0  0  0
   94.4420  101.7040  -43.8860 H   0  0  0  0  0  0  0  0  0  0  0  0
   89.8330   96.4970  -44.7100 H   0  0  0  0  0  0  0  0  0  0  0  0
   91.2860   95.6460  -45.4450 H   0  0  0  0  0  0  0  0  0  0  0  0
   91.9810   97.7070  -46.5510 H   0  0  0  0  0  0  0  0  0  0  0  0
   90.1630   97.7540  -46.7630 H   0  0  0  0  0  0  0  0  0  0  0  0
  2  1  1  0  0  0  0
  3  2  1  0  0  0  0
  3  8  1  0  0  0  0
  4  3  2  0  0  0  0
  5  6  2  0  0  0  0
  5  4  1  0  0  0  0
  6  7  1  0  0  0  0
  7 26  1  0  0  0  0
  7  2  2  0  0  0  0
  8 27  1  1  0  0  0
  9  8  1  0  0  0  0
  9 21  1  1  0  0  0
 10 11  1  0  0  0  0
 10 17  1  0  0  0  0
 10  9  1  0  0  0  0
 11 12  1  0  0  0  0
 12 16  1  1  0  0  0
 12 13  1  0  0  0  0
 13 14  1  6  0  0  0
 13  9  1  0  0  0  0
 13  8  1  0  0  0  0
 15 14  3  0  0  0  0
 16 28  1  0  0  0  0
 18 30  1  0  0  0  0
 18 17  1  0  0  0  0
 19 20  1  0  0  0  0
 19 18  1  0  0  0  0
 20 10  1  0  0  0  0
 21 22  3  0  0  0  0
 23  4  1  0  0  0  0
 24  5  1  0  0  0  0
 25  6  1  0  0  0  0
 29 16  1  0  0  0  0
 31 18  1  0  0  0  0
 32 19  1  0  0  0  0
 33 19  1  0  0  0  0
M  END
>  <Pose>
1

>  <Score>
-4.38

$$$$
