
 OpenBabel03212208273D

 33 36  0  0  1  0  0  0  0  0999 V2000
   92.0390   95.1800  -41.0740 B   0  0  0  0  0  0  0  0  0  0  0  0
   91.7820   95.1810  -42.9830 C   0  0  0  0  0  0  0  0  0  0  0  0
   91.4590   96.3840  -43.5690 C   0  0  0  0  0  0  0  0  0  0  0  0
   91.2820   96.3570  -44.9480 C   0  0  0  0  0  0  0  0  0  0  0  0
   91.4190   95.1980  -45.6880 C   0  0  0  0  0  0  0  0  0  0  0  0
   91.7450   94.0000  -45.0630 C   0  0  0  0  0  0  0  0  0  0  0  0
   91.9220   94.0170  -43.7050 C   0  0  0  0  0  0  0  0  0  0  0  0
   91.3110   97.5990  -42.8480 N   0  0  0  0  0  0  0  0  0  0  0  0
   90.2530   98.5430  -42.8910 C   0  0  0  0  0  0  0  0  0  0  0  0
   89.1940   98.3810  -43.5230 O   0  0  0  0  0  0  0  0  0  0  0  0
   90.5760   99.7420  -42.0840 C   0  0  2  0  0  0  0  0  0  0  0  0
   90.7040  100.9820  -42.8990 C   0  0  1  0  0  0  0  0  0  0  0  0
   91.9650  101.5330  -42.5480 O   0  0  0  0  0  0  0  0  0  0  0  0
   92.7190  100.3530  -42.7800 C   0  0  1  0  0  0  0  0  0  0  0  0
   92.0460   99.4910  -41.7050 C   0  0  2  0  0  0  0  0  0  0  0  0
   92.3000   98.0590  -41.9210 C   0  0  0  0  0  0  0  0  0  0  0  0
   93.1920   97.3450  -41.4140 O   0  0  0  0  0  0  0  0  0  0  0  0
   92.2580   99.9990  -44.1390 C   0  0  0  0  0  0  0  0  0  0  0  0
   91.0560  100.5550  -44.2880 C   0  0  0  0  0  0  0  0  0  0  0  0
   89.6090  101.9620  -42.8270 C   0  0  0  0  0  0  0  0  0  0  0  0
   89.5340  102.4370  -41.5040 O   0  0  0  0  0  0  0  0  0  0  0  0
   91.0270   97.2940  -45.4320 H   0  0  0  0  0  0  0  0  0  0  0  0
   91.2740   95.1960  -46.7760 H   0  0  0  0  0  0  0  0  0  0  0  0
   91.8460   93.1090  -45.6730 H   0  0  0  0  0  0  0  0  0  0  0  0
   92.1750   93.1040  -43.1960 H   0  0  0  0  0  0  0  0  0  0  0  0
   89.9490   99.8470  -41.1920 H   0  0  0  0  0  0  0  0  0  0  0  0
   93.7750  100.4770  -42.6550 H   0  0  0  0  0  0  0  0  0  0  0  0
   92.2970   99.8780  -40.7200 H   0  0  0  0  0  0  0  0  0  0  0  0
   92.7330   99.4100  -44.9320 H   0  0  0  0  0  0  0  0  0  0  0  0
   90.4630  100.6770  -45.1830 H   0  0  0  0  0  0  0  0  0  0  0  0
   88.6090  101.4880  -43.0120 H   0  0  0  0  0  0  0  0  0  0  0  0
   89.7170  102.7830  -43.5450 H   0  0  0  0  0  0  0  0  0  0  0  0
   88.7850  101.9730  -41.0290 H   0  0  0  0  0  0  0  0  0  0  0  0
  2  1  1  0  0  0  0
  3  2  1  0  0  0  0
  3  8  1  0  0  0  0
  4  3  2  0  0  0  0
  5  6  2  0  0  0  0
  5  4  1  0  0  0  0
  6  7  1  0  0  0  0
  7 25  1  0  0  0  0
  7  2  2  0  0  0  0
  8 16  1  0  0  0  0
  9  8  1  0  0  0  0
  9 11  1  0  0  0  0
 10  9  2  0  0  0  0
 11 15  1  0  0  0  0
 11 26  1  1  0  0  0
 12 20  1  1  0  0  0
 12 13  1  0  0  0  0
 12 11  1  0  0  0  0
 14 27  1  1  0  0  0
 14 13  1  0  0  0  0
 14 15  1  0  0  0  0
 15 28  1  1  0  0  0
 16 15  1  0  0  0  0
 16 17  2  0  0  0  0
 18 14  1  0  0  0  0
 19 18  2  0  0  0  0
 19 12  1  0  0  0  0
 20 21  1  0  0  0  0
 21 33  1  0  0  0  0
 22  4  1  0  0  0  0
 23  5  1  0  0  0  0
 24  6  1  0  0  0  0
 29 18  1  0  0  0  0
 30 19  1  0  0  0  0
 31 20  1  0  0  0  0
 32 20  1  0  0  0  0
M  END
>  <Pose>
1

>  <Score>
-4.42

$$$$
