
 OpenBabel03212208273D

 35 38  0  0  0  0  0  0  0  0999 V2000
   90.8840   85.7430  -48.6720 B   0  0  0  0  0  0  0  0  0  0  0  0
   90.4150   87.5830  -48.6620 C   0  0  0  0  0  0  0  0  0  0  0  0
   91.2770   88.6480  -48.6540 C   0  0  0  0  0  0  0  0  0  0  0  0
   90.5170   89.7520  -48.6490 N   0  0  0  0  0  0  0  0  0  0  0  0
   89.2440   89.4080  -48.6530 N   0  0  0  0  0  0  0  0  0  0  0  0
   89.1310   88.0600  -48.6610 C   0  0  0  0  0  0  0  0  0  0  0  0
   87.8470   87.2700  -48.6670 C   0  0  0  0  0  0  0  0  0  0  0  0
   91.0310   91.1020  -48.6400 C   0  0  0  0  0  0  0  0  0  0  0  0
   91.2360   91.6030  -47.2360 C   0  0  0  0  0  0  0  0  0  0  0  0
   91.3950   90.8650  -46.1230 N   0  0  0  0  0  0  0  0  0  0  0  0
   91.5490   91.6740  -45.0730 N   0  0  0  0  0  0  0  0  0  0  0  0
   91.4890   92.9530  -45.4950 C   0  0  0  0  0  0  0  0  0  0  0  0
   91.2970   92.8820  -46.8250 N   0  0  0  0  0  0  0  0  0  0  0  0
   91.6250   93.9740  -44.5740 C   0  0  0  0  0  0  0  0  0  0  0  0
   91.8190   93.7330  -43.2290 C   0  0  0  0  0  0  0  0  0  0  0  0
   91.9180   94.8990  -42.5590 N   0  0  0  0  0  0  0  0  0  0  0  0
   91.7910   95.8690  -43.4440 N   0  0  0  0  0  0  0  0  0  0  0  0
   91.6100   95.3490  -44.6940 C   0  0  0  0  0  0  0  0  0  0  0  0
   92.1240   95.1010  -41.1340 C   0  0  0  0  0  0  0  0  0  0  0  0
   91.8730   92.4440  -42.8500 N   0  0  0  0  0  0  0  0  0  0  0  0
   91.7390   91.4440  -43.7610 C   0  0  0  0  0  0  0  0  0  0  0  0
   92.7720   88.5500  -48.6520 C   0  0  0  0  0  0  0  0  0  0  0  0
   87.9060   86.5500  -47.8390 H   0  0  0  0  0  0  0  0  0  0  0  0
   87.7140   86.7210  -49.6040 H   0  0  0  0  0  0  0  0  0  0  0  0
   87.0090   87.9610  -48.4410 H   0  0  0  0  0  0  0  0  0  0  0  0
   90.3240   91.7860  -49.1860 H   0  0  0  0  0  0  0  0  0  0  0  0
   91.9970   91.1690  -49.1660 H   0  0  0  0  0  0  0  0  0  0  0  0
   91.4780   95.8890  -45.6070 H   0  0  0  0  0  0  0  0  0  0  0  0
   93.2000   95.2580  -40.8870 H   0  0  0  0  0  0  0  0  0  0  0  0
   91.4790   95.8990  -40.7230 H   0  0  0  0  0  0  0  0  0  0  0  0
   91.8270   94.1650  -40.5800 H   0  0  0  0  0  0  0  0  0  0  0  0
   91.7820   90.3950  -43.4520 H   0  0  0  0  0  0  0  0  0  0  0  0
   93.1050   88.6830  -49.6870 H   0  0  0  0  0  0  0  0  0  0  0  0
   93.0840   87.5510  -48.2850 H   0  0  0  0  0  0  0  0  0  0  0  0
   93.2260   89.2850  -47.9410 H   0  0  0  0  0  0  0  0  0  0  0  0
  1  2  1  0  0  0  0
  2  6  1  0  0  0  0
  2  3  2  0  0  0  0
  3 22  1  0  0  0  0
  3  4  1  0  0  0  0
  4  8  1  0  0  0  0
  5  4  1  0  0  0  0
  6  5  2  0  0  0  0
  7  6  1  0  0  0  0
  7 25  1  0  0  0  0
  7 23  1  0  0  0  0
  8  9  1  0  0  0  0
  9 13  1  0  0  0  0
  9 10  2  0  0  0  0
 10 11  1  0  0  0  0
 11 21  1  0  0  0  0
 12 11  1  0  0  0  0
 12 14  1  0  0  0  0
 13 12  2  0  0  0  0
 14 15  2  0  0  0  0
 15 20  1  0  0  0  0
 15 16  1  0  0  0  0
 16 19  1  0  0  0  0
 17 16  1  0  0  0  0
 18 14  1  0  0  0  0
 18 17  2  0  0  0  0
 19 29  1  0  0  0  0
 19 30  1  0  0  0  0
 19 31  1  0  0  0  0
 21 32  1  0  0  0  0
 21 20  2  0  0  0  0
 22 34  1  0  0  0  0
 22 35  1  0  0  0  0
 24  7  1  0  0  0  0
 26  8  1  0  0  0  0
 27  8  1  0  0  0  0
 28 18  1  0  0  0  0
 33 22  1  0  0  0  0
M  END
>  <Pose>
1

>  <Score>
-6.02

$$$$
