
 OpenBabel03212208273D

 36 39  0  0  0  0  0  0  0  0999 V2000
   91.5700   91.3510  -46.5720 B   0  0  0  0  0  0  0  0  0  0  0  0
   91.7030   92.6940  -45.2450 C   0  0  0  0  0  0  0  0  0  0  0  0
   91.5640   94.0390  -45.6080 C   0  0  0  0  0  0  0  0  0  0  0  0
   91.6630   94.9980  -44.6320 C   0  0  0  0  0  0  0  0  0  0  0  0
   91.8940   94.6580  -43.3260 C   0  0  0  0  0  0  0  0  0  0  0  0
   92.0320   93.3090  -42.9560 C   0  0  0  0  0  0  0  0  0  0  0  0
   91.9330   92.3430  -43.9370 C   0  0  0  0  0  0  0  0  0  0  0  0
   91.9910   95.7020  -42.3740 N   0  0  0  0  0  0  0  0  0  0  0  0
   91.9140   96.9830  -42.6810 N   0  0  0  0  0  0  0  0  0  0  0  0
   92.0360   97.7300  -41.6040 N   0  0  0  0  0  0  0  0  0  0  0  0
   92.1970   96.9290  -40.5640 N   0  0  0  0  0  0  0  0  0  0  0  0
   92.1690   95.6820  -41.0450 C   0  0  0  0  0  0  0  0  0  0  0  0
   91.5110   96.4670  -44.9560 C   0  0  0  0  0  0  0  0  0  0  0  0
   92.5420   97.1820  -44.7390 O   0  0  0  0  0  0  0  0  0  0  0  0
   90.3060   96.9090  -45.4470 N   0  0  0  0  0  0  0  0  0  0  0  0
   89.1090   97.3500  -45.9370 C   0  0  0  0  0  0  0  0  0  0  0  0
   88.1950   97.9520  -44.8830 C   0  0  0  0  0  0  0  0  0  0  0  0
   86.8560   97.7770  -44.8260 N   0  0  0  0  0  0  0  0  0  0  0  0
   86.3470   98.4390  -43.7790 C   0  0  0  0  0  0  0  0  0  0  0  0
   87.3920   99.0310  -43.1790 N   0  0  0  0  0  0  0  0  0  0  0  0
   88.5160   98.7370  -43.8490 N   0  0  0  0  0  0  0  0  0  0  0  0
   84.9720   98.4050  -43.5130 C   0  0  0  0  0  0  0  0  0  0  0  0
   84.1310   97.6920  -44.3220 C   0  0  0  0  0  0  0  0  0  0  0  0
   84.6570   97.0100  -45.4020 C   0  0  0  0  0  0  0  0  0  0  0  0
   86.0230   97.0660  -45.6370 C   0  0  0  0  0  0  0  0  0  0  0  0
   91.3860   94.3250  -46.6340 H   0  0  0  0  0  0  0  0  0  0  0  0
   92.2110   93.0840  -41.9200 H   0  0  0  0  0  0  0  0  0  0  0  0
   92.0430   91.3010  -43.6520 H   0  0  0  0  0  0  0  0  0  0  0  0
   92.2700   94.7950  -40.4500 H   0  0  0  0  0  0  0  0  0  0  0  0
   90.8000   96.8860  -46.7160 H   0  0  0  0  0  0  0  0  0  0  0  0
   88.4730   96.5930  -46.4800 H   0  0  0  0  0  0  0  0  0  0  0  0
   89.1760   98.1900  -46.7000 H   0  0  0  0  0  0  0  0  0  0  0  0
   84.6160   98.9600  -42.6590 H   0  0  0  0  0  0  0  0  0  0  0  0
   83.0470   97.6440  -44.1460 H   0  0  0  0  0  0  0  0  0  0  0  0
   84.0580   96.4340  -46.0700 H   0  0  0  0  0  0  0  0  0  0  0  0
   86.4720   96.5500  -46.4690 H   0  0  0  0  0  0  0  0  0  0  0  0
  1  2  1  0  0  0  0
  2  7  1  0  0  0  0
  3  2  2  0  0  0  0
  3  4  1  0  0  0  0
  4  5  2  0  0  0  0
  5  6  1  0  0  0  0
  5  8  1  0  0  0  0
  6 27  1  0  0  0  0
  7 28  1  0  0  0  0
  7  6  2  0  0  0  0
  8 12  1  0  0  0  0
  9  8  1  0  0  0  0
  9 10  2  0  0  0  0
 10 11  1  0  0  0  0
 12 11  2  0  0  0  0
 12 29  1  0  0  0  0
 13 14  2  0  0  0  0
 13  4  1  0  0  0  0
 15 13  1  0  0  0  0
 16 15  1  0  0  0  0
 16 17  1  0  0  0  0
 17 18  1  0  0  0  0
 17 21  2  0  0  0  0
 18 19  1  0  0  0  0
 19 22  1  0  0  0  0
 19 20  2  0  0  0  0
 21 20  1  0  0  0  0
 22 33  1  0  0  0  0
 23 34  1  0  0  0  0
 23 22  2  0  0  0  0
 24 23  1  0  0  0  0
 25 24  2  0  0  0  0
 25 18  1  0  0  0  0
 26  3  1  0  0  0  0
 30 15  1  0  0  0  0
 31 16  1  0  0  0  0
 32 16  1  0  0  0  0
 35 24  1  0  0  0  0
 36 25  1  0  0  0  0
M  END
>  <Pose>
1

>  <Score>
-6.13

$$$$
