
 OpenBabel03212208273D

 48 51  0  0  0  0  0  0  0  0999 V2000
   92.1760   94.6100  -41.2790 B   0  0  0  0  0  0  0  0  0  0  0  0
   91.8410   94.1120  -43.0870 C   0  0  0  0  0  0  0  0  0  0  0  0
   91.3970   94.9580  -44.0620 C   0  0  0  0  0  0  0  0  0  0  0  0
   91.1620   94.5740  -45.3630 C   0  0  0  0  0  0  0  0  0  0  0  0
   91.4020   93.2330  -45.6800 C   0  0  0  0  0  0  0  0  0  0  0  0
   91.8470   92.3400  -44.7440 C   0  0  0  0  0  0  0  0  0  0  0  0
   92.0660   92.7860  -43.4460 C   0  0  0  0  0  0  0  0  0  0  0  0
   91.1790   92.8220  -46.9800 O   0  0  0  0  0  0  0  0  0  0  0  0
   91.4550   91.5010  -47.3640 C   0  0  0  0  0  0  0  0  0  0  0  0
   90.7030   95.4960  -46.3890 C   0  0  0  0  0  0  0  0  0  0  0  0
   90.2410   96.7000  -46.1960 C   0  0  0  0  0  0  0  0  0  0  0  0
   90.1140   97.3030  -44.9540 O   0  0  0  0  0  0  0  0  0  0  0  0
   89.5940   98.5800  -45.0520 C   0  0  0  0  0  0  0  0  0  0  0  0
   89.3430   98.9000  -46.3670 C   0  0  0  0  0  0  0  0  0  0  0  0
   88.8190  100.1330  -46.6920 C   0  0  0  0  0  0  0  0  0  0  0  0
   88.5470  101.0390  -45.6890 C   0  0  0  0  0  0  0  0  0  0  0  0
   88.8130  100.6870  -44.3510 C   0  0  0  0  0  0  0  0  0  0  0  0
   89.3320   99.4760  -44.0070 C   0  0  0  0  0  0  0  0  0  0  0  0
   89.6400   99.0700  -42.6630 C   0  0  0  0  0  0  0  0  0  0  0  0
   90.7190   99.6000  -41.9350 N   0  0  0  0  0  4  0  0  0  0  0  0
   91.8220   98.7050  -41.7090 C   0  0  0  0  0  0  0  0  0  0  0  0
   92.7820   98.6050  -42.8680 C   0  0  0  0  0  0  0  0  0  0  0  0
   92.3660   99.3000  -43.9950 O   0  0  0  0  0  0  0  0  0  0  0  0
   92.2310  100.6290  -43.6070 C   0  0  0  0  0  0  0  0  0  0  0  0
   91.2320  100.8520  -42.5190 C   0  0  0  0  0  0  0  0  0  0  0  0
   88.4860  101.7050  -43.4410 O   0  0  0  0  0  0  0  0  0  0  0  0
   89.7480   97.7150  -47.1320 C   0  0  0  0  0  0  0  0  0  0  0  0
   89.6880   97.5780  -48.3730 O   0  0  0  0  0  0  0  0  0  0  0  0
   91.2220   96.0000  -43.7760 H   0  0  0  0  0  0  0  0  0  0  0  0
   92.0460   91.2810  -44.9400 H   0  0  0  0  0  0  0  0  0  0  0  0
   92.4240   92.0780  -42.6840 H   0  0  0  0  0  0  0  0  0  0  0  0
   91.6270   91.4570  -48.4840 H   0  0  0  0  0  0  0  0  0  0  0  0
   90.5550   90.8640  -47.1680 H   0  0  0  0  0  0  0  0  0  0  0  0
   92.3860   91.0920  -46.9200 H   0  0  0  0  0  0  0  0  0  0  0  0
   90.7440   95.1550  -47.4360 H   0  0  0  0  0  0  0  0  0  0  0  0
   88.6260  100.3770  -47.7360 H   0  0  0  0  0  0  0  0  0  0  0  0
   88.1370  102.0180  -45.8810 H   0  0  0  0  0  0  0  0  0  0  0  0
   88.7310   99.1670  -41.9700 H   0  0  0  0  0  0  0  0  0  0  0  0
   89.7830   97.9240  -42.6090 H   0  0  0  0  0  0  0  0  0  0  0  0
   90.3800   99.9150  -41.0030 H   0  0  0  0  0  0  0  0  0  0  0  0
   92.4110   99.1610  -40.8570 H   0  0  0  0  0  0  0  0  0  0  0  0
   91.4890   97.7290  -41.3580 H   0  0  0  0  0  0  0  0  0  0  0  0
   93.8060   99.0080  -42.6170 H   0  0  0  0  0  0  0  0  0  0  0  0
   92.9570   97.5390  -43.1140 H   0  0  0  0  0  0  0  0  0  0  0  0
   91.8370  101.1770  -44.5150 H   0  0  0  0  0  0  0  0  0  0  0  0
   93.2460  101.0640  -43.3800 H   0  0  0  0  0  0  0  0  0  0  0  0
   90.3680  101.4730  -42.8350 H   0  0  0  0  0  0  0  0  0  0  0  0
   91.7330  101.4350  -41.7180 H   0  0  0  0  0  0  0  0  0  0  0  0
  2  1  1  0  0  0  0
  3 29  1  0  0  0  0
  3  2  2  0  0  0  0
  4  3  1  0  0  0  0
  5  4  2  0  0  0  0
  5  6  1  0  0  0  0
  6  7  2  0  0  0  0
  7  2  1  0  0  0  0
  7 31  1  0  0  0  0
  8  5  1  0  0  0  0
  9 33  1  0  0  0  0
  9  8  1  0  0  0  0
  9 34  1  0  0  0  0
 10 11  2  0  0  0  0
 10  4  1  0  0  0  0
 11 12  1  0  0  0  0
 13 12  1  0  0  0  0
 13 18  1  0  0  0  0
 14 13  2  0  0  0  0
 15 14  1  0  0  0  0
 15 16  2  0  0  0  0
 16 17  1  0  0  0  0
 17 18  2  0  0  0  0
 17 26  1  0  0  0  0
 18 19  1  0  0  0  0
 19 39  1  0  0  0  0
 19 38  1  0  0  0  0
 19 20  1  0  0  0  0
 20 21  1  0  0  0  0
 20 40  1  0  0  0  0
 21 42  1  0  0  0  0
 21 41  1  0  0  0  0
 22 43  1  0  0  0  0
 22 21  1  0  0  0  0
 23 24  1  0  0  0  0
 23 22  1  0  0  0  0
 24 46  1  0  0  0  0
 24 25  1  0  0  0  0
 25 20  1  0  0  0  0
 25 48  1  0  0  0  0
 27 14  1  0  0  0  0
 27 11  1  0  0  0  0
 28 27  2  0  0  0  0
 30  6  1  0  0  0  0
 32  9  1  0  0  0  0
 35 10  1  0  0  0  0
 36 15  1  0  0  0  0
 37 16  1  0  0  0  0
 44 22  1  0  0  0  0
 45 24  1  0  0  0  0
 47 25  1  0  0  0  0
M  END
>  <Pose>
1

>  <Score>
-4.60

$$$$
