
 OpenBabel03212208273D

 52 55  0  0  1  0  0  0  0  0999 V2000
   89.6460   91.1260  -50.6020 B   0  0  0  0  0  0  0  0  0  0  0  0
   90.9380   90.8780  -49.1940 C   0  0  0  0  0  0  0  0  0  0  0  0
   90.7940   91.5650  -48.0130 C   0  0  0  0  0  0  0  0  0  0  0  0
   91.7270   91.3920  -47.0130 C   0  0  0  0  0  0  0  0  0  0  0  0
   92.7780   90.5480  -47.1840 C   0  0  0  0  0  0  0  0  0  0  0  0
   92.9010   89.8710  -48.3660 C   0  0  0  0  0  0  0  0  0  0  0  0
   91.9890   90.0110  -49.4140 C   0  0  0  0  0  0  0  0  0  0  0  0
   91.4980   92.1370  -45.7190 C   0  0  0  0  0  0  0  0  0  0  0  0
   91.2470   91.4510  -44.7430 O   0  0  0  0  0  0  0  0  0  0  0  0
   91.6240   93.5170  -45.8470 N   0  0  0  0  0  0  0  0  0  0  0  0
   91.4390   94.4540  -44.8000 C   0  0  1  0  0  0  0  0  0  0  0  0
   92.1360   94.1030  -43.4950 C   0  0  0  0  0  0  0  0  0  0  0  0
   91.7440   95.8300  -45.1650 C   0  0  0  0  0  0  0  0  0  0  0  0
   91.9330   96.0640  -46.3990 O   0  0  0  0  0  0  0  0  0  0  0  0
   91.8470   96.8780  -44.2060 N   0  0  0  0  0  0  0  0  0  0  0  0
   91.9970   98.2610  -44.5800 C   0  0  0  0  0  0  0  0  0  0  0  0
   90.6750   98.8970  -44.0870 C   0  0  0  0  0  0  0  0  0  0  0  0
   90.8200   98.9610  -42.5900 C   0  0  2  0  0  0  0  0  0  0  0  0
   89.4800   99.2000  -42.0560 N   0  0  0  0  0  0  0  0  0  0  0  0
   88.8710  100.3680  -42.5720 C   0  0  0  0  0  0  0  0  0  0  0  0
   89.6070  101.6410  -42.1980 C   0  0  0  0  0  0  0  0  0  0  0  0
   91.0640  101.4290  -42.1190 C   0  0  0  0  0  0  0  0  0  0  0  0
   92.0410  102.3210  -41.8820 N   0  0  0  0  0  0  0  0  0  0  0  0
   93.2120  101.6480  -41.8990 C   0  0  0  0  0  0  0  0  0  0  0  0
   92.9440  100.3410  -42.1490 N   0  0  0  0  0  0  0  0  0  0  0  0
   91.6150  100.1750  -42.2940 C   0  0  0  0  0  0  0  0  0  0  0  0
   91.3620   97.7330  -41.9480 C   0  0  0  0  0  0  0  0  0  0  0  0
   91.7890   96.5990  -42.8160 C   0  0  0  0  0  0  0  0  0  0  0  0
   89.9550   92.2510  -47.8210 H   0  0  0  0  0  0  0  0  0  0  0  0
   93.5130   90.4090  -46.3630 H   0  0  0  0  0  0  0  0  0  0  0  0
   93.7330   89.1830  -48.5420 H   0  0  0  0  0  0  0  0  0  0  0  0
   92.0690   89.4700  -50.3480 H   0  0  0  0  0  0  0  0  0  0  0  0
   91.8250   93.9340  -46.8050 H   0  0  0  0  0  0  0  0  0  0  0  0
   90.3510   94.3420  -44.5060 H   0  0  0  0  0  0  0  0  0  0  0  0
   92.3860   95.0630  -42.9450 H   0  0  0  0  0  0  0  0  0  0  0  0
   91.4060   93.5830  -42.7740 H   0  0  0  0  0  0  0  0  0  0  0  0
   93.0340   93.5330  -43.5980 H   0  0  0  0  0  0  0  0  0  0  0  0
   92.0360   98.4880  -45.6560 H   0  0  0  0  0  0  0  0  0  0  0  0
   92.7790   98.8130  -44.0710 H   0  0  0  0  0  0  0  0  0  0  0  0
   90.7130   99.9160  -44.5180 H   0  0  0  0  0  0  0  0  0  0  0  0
   89.8020   98.3870  -44.4660 H   0  0  0  0  0  0  0  0  0  0  0  0
   89.4610   99.1590  -41.0050 H   0  0  0  0  0  0  0  0  0  0  0  0
   88.7100  100.2760  -43.6520 H   0  0  0  0  0  0  0  0  0  0  0  0
   87.8620  100.4650  -42.1180 H   0  0  0  0  0  0  0  0  0  0  0  0
   89.2660  102.0140  -41.1930 H   0  0  0  0  0  0  0  0  0  0  0  0
   89.3500  102.4030  -42.9670 H   0  0  0  0  0  0  0  0  0  0  0  0
   94.1990  102.0970  -41.7350 H   0  0  0  0  0  0  0  0  0  0  0  0
   93.7320   99.6650  -42.1960 H   0  0  0  0  0  0  0  0  0  0  0  0
   92.2410   98.0240  -41.3360 H   0  0  0  0  0  0  0  0  0  0  0  0
   90.6240   97.3170  -41.1980 H   0  0  0  0  0  0  0  0  0  0  0  0
   91.1400   95.7220  -42.6820 H   0  0  0  0  0  0  0  0  0  0  0  0
   92.8270   96.2420  -42.5240 H   0  0  0  0  0  0  0  0  0  0  0  0
  1  2  1  0  0  0  0
  2  3  1  0  0  0  0
  3 29  1  0  0  0  0
  3  4  2  0  0  0  0
  4  8  1  0  0  0  0
  5  4  1  0  0  0  0
  5 30  1  0  0  0  0
  6  5  2  0  0  0  0
  7  2  2  0  0  0  0
  7  6  1  0  0  0  0
  8  9  2  0  0  0  0
 10  8  1  0  0  0  0
 10 11  1  0  0  0  0
 11 34  1  1  0  0  0
 11 12  1  0  0  0  0
 12 35  1  0  0  0  0
 12 36  1  0  0  0  0
 13 11  1  0  0  0  0
 13 15  1  0  0  0  0
 14 13  2  0  0  0  0
 15 28  1  0  0  0  0
 16 15  1  0  0  0  0
 16 17  1  0  0  0  0
 16 39  1  0  0  0  0
 17 18  1  0  0  0  0
 18 26  1  1  0  0  0
 18 19  1  0  0  0  0
 18 27  1  0  0  0  0
 19 42  1  0  0  0  0
 20 21  1  0  0  0  0
 20 44  1  0  0  0  0
 20 19  1  0  0  0  0
 21 22  1  0  0  0  0
 21 45  1  0  0  0  0
 22 23  1  0  0  0  0
 24 23  2  0  0  0  0
 24 47  1  0  0  0  0
 25 24  1  0  0  0  0
 26 25  1  0  0  0  0
 26 22  2  0  0  0  0
 27 49  1  0  0  0  0
 27 50  1  0  0  0  0
 28 51  1  0  0  0  0
 28 52  1  0  0  0  0
 28 27  1  0  0  0  0
 31  6  1  0  0  0  0
 32  7  1  0  0  0  0
 33 10  1  0  0  0  0
 37 12  1  0  0  0  0
 38 16  1  0  0  0  0
 40 17  1  0  0  0  0
 41 17  1  0  0  0  0
 43 20  1  0  0  0  0
 46 21  1  0  0  0  0
 48 25  1  0  0  0  0
M  END
>  <Pose>
1

>  <Score>
-5.43

$$$$
