
 OpenBabel03212208273D

 49 52  0  0  0  0  0  0  0  0999 V2000
   91.4320   90.7480  -47.5950 B   0  0  0  0  0  0  0  0  0  0  0  0
   91.4790   92.3330  -46.5730 C   0  0  0  0  0  0  0  0  0  0  0  0
   92.1310   92.3380  -45.3490 C   0  0  0  0  0  0  0  0  0  0  0  0
   92.1790   93.4710  -44.5810 C   0  0  0  0  0  0  0  0  0  0  0  0
   91.5980   94.6410  -44.9720 C   0  0  0  0  0  0  0  0  0  0  0  0
   90.9400   94.6440  -46.2060 C   0  0  0  0  0  0  0  0  0  0  0  0
   90.8900   93.5030  -46.9840 C   0  0  0  0  0  0  0  0  0  0  0  0
   92.9130   93.5000  -43.2670 C   0  0  0  0  0  0  0  0  0  0  0  0
   94.0520   92.9150  -43.3120 O   0  0  0  0  0  0  0  0  0  0  0  0
   92.3340   94.1020  -42.2410 N   0  0  0  0  0  0  0  0  0  0  0  0
   91.7280   94.7330  -41.1660 C   0  0  0  0  0  0  0  0  0  0  0  0
   91.8110   96.2340  -41.2860 C   0  0  0  0  0  0  0  0  0  0  0  0
   92.6200   96.7880  -40.4620 O   0  0  0  0  0  0  0  0  0  0  0  0
   91.0780   96.9890  -42.2110 N   0  0  0  0  0  0  0  0  0  0  0  0
   89.9430   97.7750  -41.8460 C   0  0  0  0  0  0  0  0  0  0  0  0
   89.8430   99.0510  -42.6320 C   0  0  0  0  0  0  0  0  0  0  0  0
   91.1430   99.5230  -43.2460 C   0  0  0  0  0  0  0  0  0  0  0  0
   90.7290  100.5700  -44.1700 N   0  0  0  0  0  0  0  0  0  0  0  0
   91.7660  101.3430  -44.7400 C   0  0  0  0  0  0  0  0  0  0  0  0
   93.0950  101.3190  -44.0800 C   0  0  0  0  0  0  0  0  0  0  0  0
   92.9810  101.0320  -42.6160 C   0  0  0  0  0  0  0  0  0  0  0  0
   93.6650  101.4850  -41.5650 N   0  0  0  0  0  0  0  0  0  0  0  0
   93.1240  100.8800  -40.4870 C   0  0  0  0  0  0  0  0  0  0  0  0
   92.1180  100.0620  -40.8640 N   0  0  0  0  0  0  0  0  0  0  0  0
   92.0120  100.1450  -42.2220 C   0  0  0  0  0  0  0  0  0  0  0  0
   91.9000   98.4450  -43.9780 C   0  0  0  0  0  0  0  0  0  0  0  0
   91.4470   97.0410  -43.6210 C   0  0  0  0  0  0  0  0  0  0  0  0
   92.6010   91.4490  -44.9990 H   0  0  0  0  0  0  0  0  0  0  0  0
   91.6530   95.5120  -44.3520 H   0  0  0  0  0  0  0  0  0  0  0  0
   90.4670   95.5460  -46.5500 H   0  0  0  0  0  0  0  0  0  0  0  0
   90.3830   93.5080  -47.9370 H   0  0  0  0  0  0  0  0  0  0  0  0
   91.0980   93.9830  -42.8510 H   0  0  0  0  0  0  0  0  0  0  0  0
   92.2370   94.4450  -40.1820 H   0  0  0  0  0  0  0  0  0  0  0  0
   90.6750   94.3960  -41.0010 H   0  0  0  0  0  0  0  0  0  0  0  0
   89.0400   97.1560  -42.1380 H   0  0  0  0  0  0  0  0  0  0  0  0
   89.8230   97.9150  -40.7560 H   0  0  0  0  0  0  0  0  0  0  0  0
   89.0980   98.9450  -43.4300 H   0  0  0  0  0  0  0  0  0  0  0  0
   89.5380   99.8400  -41.9120 H   0  0  0  0  0  0  0  0  0  0  0  0
   90.1760  100.0500  -44.9100 H   0  0  0  0  0  0  0  0  0  0  0  0
   91.4180  102.4200  -44.7360 H   0  0  0  0  0  0  0  0  0  0  0  0
   91.8560  101.0840  -45.8370 H   0  0  0  0  0  0  0  0  0  0  0  0
   93.7510  100.5690  -44.5800 H   0  0  0  0  0  0  0  0  0  0  0  0
   93.6160  102.3020  -44.2560 H   0  0  0  0  0  0  0  0  0  0  0  0
   93.4750  101.0540  -39.4880 H   0  0  0  0  0  0  0  0  0  0  0  0
   91.5410   99.4820  -40.2310 H   0  0  0  0  0  0  0  0  0  0  0  0
   92.9890   98.4970  -43.6730 H   0  0  0  0  0  0  0  0  0  0  0  0
   91.8480   98.5320  -45.0750 H   0  0  0  0  0  0  0  0  0  0  0  0
   90.6070   96.7020  -44.2710 H   0  0  0  0  0  0  0  0  0  0  0  0
   92.3150   96.3720  -43.7670 H   0  0  0  0  0  0  0  0  0  0  0  0
  1  2  1  0  0  0  0
  2  3  1  0  0  0  0
  3 28  1  0  0  0  0
  3  4  2  0  0  0  0
  4  8  1  0  0  0  0
  5  4  1  0  0  0  0
  5 29  1  0  0  0  0
  6  5  2  0  0  0  0
  7  2  2  0  0  0  0
  7  6  1  0  0  0  0
  8 10  1  0  0  0  0
  9  8  2  0  0  0  0
 10 11  1  0  0  0  0
 11 34  1  0  0  0  0
 11 33  1  0  0  0  0
 12 11  1  0  0  0  0
 12 13  2  0  0  0  0
 14 15  1  0  0  0  0
 14 12  1  0  0  0  0
 15 36  1  0  0  0  0
 16 38  1  0  0  0  0
 16 15  1  0  0  0  0
 17 16  1  0  0  0  0
 17 25  1  0  0  0  0
 18 17  1  0  0  0  0
 19 40  1  0  0  0  0
 19 18  1  0  0  0  0
 19 20  1  0  0  0  0
 20 21  1  0  0  0  0
 21 25  2  0  0  0  0
 21 22  1  0  0  0  0
 22 23  2  0  0  0  0
 23 44  1  0  0  0  0
 24 23  1  0  0  0  0
 24 45  1  0  0  0  0
 25 24  1  0  0  0  0
 26 46  1  0  0  0  0
 26 27  1  0  0  0  0
 26 17  1  0  0  0  0
 27 14  1  0  0  0  0
 30  6  1  0  0  0  0
 31  7  1  0  0  0  0
 32 10  1  0  0  0  0
 35 15  1  0  0  0  0
 37 16  1  0  0  0  0
 39 18  1  0  0  0  0
 41 19  1  0  0  0  0
 42 20  1  0  0  0  0
 43 20  1  0  0  0  0
 47 26  1  0  0  0  0
 48 27  1  0  0  0  0
 49 27  1  0  0  0  0
M  END
>  <Pose>
1

>  <Score>
-5.78

$$$$
