
 OpenBabel03212208273D

 49 52  0  0  0  0  0  0  0  0999 V2000
   86.8130   88.6940  -50.1690 B   0  0  0  0  0  0  0  0  0  0  0  0
   88.5410   88.0210  -49.7830 C   0  0  0  0  0  0  0  0  0  0  0  0
   89.5460   88.9050  -49.4310 C   0  0  0  0  0  0  0  0  0  0  0  0
   90.8270   88.4780  -49.1380 C   0  0  0  0  0  0  0  0  0  0  0  0
   91.0880   87.1170  -49.2040 C   0  0  0  0  0  0  0  0  0  0  0  0
   90.0850   86.2450  -49.5550 C   0  0  0  0  0  0  0  0  0  0  0  0
   88.8030   86.6520  -49.8500 C   0  0  0  0  0  0  0  0  0  0  0  0
   91.9050   89.3840  -48.7660 C   0  0  0  0  0  0  0  0  0  0  0  0
   92.4120   90.1340  -49.6380 O   0  0  0  0  0  0  0  0  0  0  0  0
   92.4230   89.4670  -47.4530 N   0  0  0  0  0  0  0  0  0  0  0  0
   92.7920   90.7320  -46.8540 C   0  0  0  0  0  0  0  0  0  0  0  0
   91.6550   91.6900  -46.8510 C   0  0  0  0  0  0  0  0  0  0  0  0
   91.0240   91.8280  -47.9280 O   0  0  0  0  0  0  0  0  0  0  0  0
   91.2630   92.4300  -45.7250 N   0  0  0  0  0  0  0  0  0  0  0  0
   91.0430   93.8540  -45.7720 C   0  0  0  0  0  0  0  0  0  0  0  0
   92.0820   94.4880  -44.8730 C   0  0  0  0  0  0  0  0  0  0  0  0
   92.0710   93.8100  -43.5240 C   0  0  0  0  0  0  0  0  0  0  0  0
   93.3630   93.1860  -43.3270 N   0  0  0  0  0  0  0  0  0  0  0  0
   93.5590   92.6080  -42.0440 C   0  0  0  0  0  0  0  0  0  0  0  0
   93.0210   93.3510  -40.8770 C   0  0  0  0  0  0  0  0  0  0  0  0
   92.4290   94.6660  -41.2010 C   0  0  0  0  0  0  0  0  0  0  0  0
   92.2200   95.7940  -40.4560 N   0  0  0  0  0  0  0  0  0  0  0  0
   91.6410   96.6870  -41.2670 C   0  0  0  0  0  0  0  0  0  0  0  0
   91.4880   96.1440  -42.4860 N   0  0  0  0  0  0  0  0  0  0  0  0
   91.9710   94.8760  -42.4820 C   0  0  0  0  0  0  0  0  0  0  0  0
   90.9710   92.8150  -43.3420 C   0  0  0  0  0  0  0  0  0  0  0  0
   91.0630   91.7720  -44.4590 C   0  0  0  0  0  0  0  0  0  0  0  0
   89.3070   89.9380  -49.3920 H   0  0  0  0  0  0  0  0  0  0  0  0
   92.0680   86.6980  -48.9900 H   0  0  0  0  0  0  0  0  0  0  0  0
   90.2700   85.1760  -49.6120 H   0  0  0  0  0  0  0  0  0  0  0  0
   88.0030   86.0040  -50.1240 H   0  0  0  0  0  0  0  0  0  0  0  0
   92.5400   88.5930  -46.9040 H   0  0  0  0  0  0  0  0  0  0  0  0
   93.6080   91.2180  -47.4280 H   0  0  0  0  0  0  0  0  0  0  0  0
   93.1600   90.5060  -45.8350 H   0  0  0  0  0  0  0  0  0  0  0  0
   90.0260   94.1090  -45.3780 H   0  0  0  0  0  0  0  0  0  0  0  0
   91.0720   94.2630  -46.7970 H   0  0  0  0  0  0  0  0  0  0  0  0
   91.9290   95.5850  -44.7790 H   0  0  0  0  0  0  0  0  0  0  0  0
   93.0650   94.3280  -45.3950 H   0  0  0  0  0  0  0  0  0  0  0  0
   93.4740   92.4260  -44.0490 H   0  0  0  0  0  0  0  0  0  0  0  0
   94.6760   92.5250  -41.8950 H   0  0  0  0  0  0  0  0  0  0  0  0
   93.2180   91.5370  -41.9960 H   0  0  0  0  0  0  0  0  0  0  0  0
   93.8040   93.5310  -40.0810 H   0  0  0  0  0  0  0  0  0  0  0  0
   92.2410   92.7510  -40.3240 H   0  0  0  0  0  0  0  0  0  0  0  0
   92.4840   95.8910  -39.4320 H   0  0  0  0  0  0  0  0  0  0  0  0
   91.3440   97.6850  -40.9890 H   0  0  0  0  0  0  0  0  0  0  0  0
   89.9790   93.2630  -43.2720 H   0  0  0  0  0  0  0  0  0  0  0  0
   91.1610   92.2660  -42.4030 H   0  0  0  0  0  0  0  0  0  0  0  0
   90.1270   91.1780  -44.5120 H   0  0  0  0  0  0  0  0  0  0  0  0
   91.8740   91.0910  -44.1870 H   0  0  0  0  0  0  0  0  0  0  0  0
  1  2  1  0  0  0  0
  2  3  1  0  0  0  0
  3 28  1  0  0  0  0
  3  4  2  0  0  0  0
  4  8  1  0  0  0  0
  5  4  1  0  0  0  0
  5 29  1  0  0  0  0
  6  5  2  0  0  0  0
  7  2  2  0  0  0  0
  7  6  1  0  0  0  0
  8 10  1  0  0  0  0
  9  8  2  0  0  0  0
 10 32  1  0  0  0  0
 10 11  1  0  0  0  0
 11 12  1  0  0  0  0
 11 34  1  0  0  0  0
 12 14  1  0  0  0  0
 13 12  2  0  0  0  0
 14 27  1  0  0  0  0
 15 14  1  0  0  0  0
 15 35  1  0  0  0  0
 15 16  1  0  0  0  0
 16 37  1  0  0  0  0
 16 17  1  0  0  0  0
 17 26  1  0  0  0  0
 17 18  1  0  0  0  0
 17 25  1  0  0  0  0
 18 19  1  0  0  0  0
 19 41  1  0  0  0  0
 19 40  1  0  0  0  0
 19 20  1  0  0  0  0
 20 43  1  0  0  0  0
 20 42  1  0  0  0  0
 21 20  1  0  0  0  0
 21 22  1  0  0  0  0
 22 44  1  0  0  0  0
 23 45  1  0  0  0  0
 23 22  1  0  0  0  0
 24 25  1  0  0  0  0
 24 23  2  0  0  0  0
 25 21  2  0  0  0  0
 26 46  1  0  0  0  0
 26 47  1  0  0  0  0
 27 49  1  0  0  0  0
 27 26  1  0  0  0  0
 30  6  1  0  0  0  0
 31  7  1  0  0  0  0
 33 11  1  0  0  0  0
 36 15  1  0  0  0  0
 38 16  1  0  0  0  0
 39 18  1  0  0  0  0
 48 27  1  0  0  0  0
M  END
>  <Pose>
1

>  <Score>
-6.52

$$$$
