
 OpenBabel03212208273D

 35 38  0  0  1  0  0  0  0  0999 V2000
   91.5150   91.3450  -46.7950 B   0  0  0  0  0  0  0  0  0  0  0  0
   91.7130   92.2880  -45.1530 C   0  0  0  0  0  0  0  0  0  0  0  0
   91.6610   93.6590  -45.1700 C   0  0  0  0  0  0  0  0  0  0  0  0
   91.7960   94.3950  -43.9950 C   0  0  0  0  0  0  0  0  0  0  0  0
   91.9810   93.7170  -42.8300 C   0  0  0  0  0  0  0  0  0  0  0  0
   92.0320   92.3400  -42.8190 C   0  0  0  0  0  0  0  0  0  0  0  0
   91.9020   91.5930  -43.9640 C   0  0  0  0  0  0  0  0  0  0  0  0
   91.7410   95.8420  -44.0630 C   0  0  0  0  0  0  0  0  0  0  0  0
   91.8370   96.3670  -45.1860 O   0  0  0  0  0  0  0  0  0  0  0  0
   91.5810   96.6230  -42.9060 N   0  0  0  0  0  0  0  0  0  0  0  0
   91.7360   98.0220  -42.8340 N   0  0  0  0  0  0  0  0  0  0  0  0
   92.5080   98.6290  -41.7790 C   0  0  0  0  0  0  0  0  0  0  0  0
   93.1200   98.0510  -40.8260 O   0  0  0  0  0  0  0  0  0  0  0  0
   92.4860  100.0670  -41.9680 C   0  0  1  0  0  0  0  0  0  0  0  0
   92.0750  100.3030  -43.4340 C   0  0  2  0  0  0  0  0  0  0  0  0
   91.1550  101.4810  -43.4150 C   0  0  2  0  0  0  0  0  0  0  0  0
   91.4810  102.1160  -42.0490 C   0  0  0  0  0  0  0  0  0  0  0  0
   91.3210  100.7790  -41.2950 C   0  0  1  0  0  0  0  0  0  0  0  0
   90.0240  100.3350  -41.8810 C   0  0  0  0  0  0  0  0  0  0  0  0
   89.7900  100.9570  -43.0440 C   0  0  0  0  0  0  0  0  0  0  0  0
   91.2470   99.0510  -43.6470 C   0  0  0  0  0  0  0  0  0  0  0  0
   90.2790   98.9810  -44.4370 O   0  0  0  0  0  0  0  0  0  0  0  0
   91.5110   94.1780  -46.1140 H   0  0  0  0  0  0  0  0  0  0  0  0
   92.0920   94.2310  -41.9020 H   0  0  0  0  0  0  0  0  0  0  0  0
   92.1810   91.7800  -41.8870 H   0  0  0  0  0  0  0  0  0  0  0  0
   91.9330   90.5280  -44.0130 H   0  0  0  0  0  0  0  0  0  0  0  0
   91.3170   96.0800  -42.0240 H   0  0  0  0  0  0  0  0  0  0  0  0
   93.4050  100.5930  -41.7040 H   0  0  0  0  0  0  0  0  0  0  0  0
   92.9200  100.3570  -44.1120 H   0  0  0  0  0  0  0  0  0  0  0  0
   91.1870  102.1450  -44.2400 H   0  0  0  0  0  0  0  0  0  0  0  0
   90.7000  102.8240  -41.7430 H   0  0  0  0  0  0  0  0  0  0  0  0
   92.4980  102.5000  -41.9920 H   0  0  0  0  0  0  0  0  0  0  0  0
   91.3700  100.8740  -40.2370 H   0  0  0  0  0  0  0  0  0  0  0  0
   89.3320   99.6040  -41.4510 H   0  0  0  0  0  0  0  0  0  0  0  0
   88.9250  101.1010  -43.6340 H   0  0  0  0  0  0  0  0  0  0  0  0
  1  2  1  0  0  0  0
  2  7  1  0  0  0  0
  3  2  2  0  0  0  0
  3  4  1  0  0  0  0
  4  5  2  0  0  0  0
  5  6  1  0  0  0  0
  5 24  1  0  0  0  0
  6 25  1  0  0  0  0
  7  6  2  0  0  0  0
  8  4  1  0  0  0  0
  8 10  1  0  0  0  0
  9  8  2  0  0  0  0
 10 11  1  0  0  0  0
 10 27  1  0  0  0  0
 11 12  1  0  0  0  0
 12 13  2  0  0  0  0
 14 12  1  0  0  0  0
 14 28  1  1  0  0  0
 14 18  1  0  0  0  0
 15 29  1  6  0  0  0
 15 16  1  0  0  0  0
 15 14  1  0  0  0  0
 16 30  1  6  0  0  0
 16 20  1  0  0  0  0
 16 17  1  0  0  0  0
 17 32  1  0  0  0  0
 17 31  1  0  0  0  0
 17 18  1  0  0  0  0
 18 33  1  1  0  0  0
 19 34  1  0  0  0  0
 19 18  1  0  0  0  0
 20 19  1  0  0  0  0
 21 15  1  0  0  0  0
 21 11  1  0  0  0  0
 22 21  2  0  0  0  0
 23  3  1  0  0  0  0
 26  7  1  0  0  0  0
 35 20  1  0  0  0  0
M  END
>  <Pose>
1

>  <Score>
-4.76

$$$$
