
 OpenBabel03212208273D

 52 55  0  0  0  0  0  0  0  0999 V2000
   84.9980   96.7670  -45.2230 B   0  0  0  0  0  0  0  0  0  0  0  0
   84.8960   98.4950  -44.3990 C   0  0  0  0  0  0  0  0  0  0  0  0
   85.9610   99.0210  -43.6690 C   0  0  0  0  0  0  0  0  0  0  0  0
   85.8240  100.2570  -43.0670 C   0  0  0  0  0  0  0  0  0  0  0  0
   84.6240  100.9270  -43.2240 C   0  0  0  0  0  0  0  0  0  0  0  0
   83.6090  100.3760  -43.9490 C   0  0  0  0  0  0  0  0  0  0  0  0
   83.6800   99.1510  -44.5590 C   0  0  0  0  0  0  0  0  0  0  0  0
   86.8100  100.8710  -42.1560 C   0  0  0  0  0  0  0  0  0  0  0  0
   87.8580  101.5160  -42.5850 N   0  0  0  0  0  0  0  0  0  0  0  0
   88.8060  102.0850  -41.8740 N   0  0  0  0  0  0  0  0  0  0  0  0
   90.0940  102.4380  -41.5890 C   0  0  0  0  0  0  0  0  0  0  0  0
   90.5870  103.5860  -41.5300 O   0  0  0  0  0  0  0  0  0  0  0  0
   91.0280  101.2750  -41.2890 C   0  0  0  0  0  0  0  0  0  0  0  0
   91.7200  100.9840  -40.2410 N   0  0  0  0  0  0  0  0  0  0  0  0
   92.2290   99.7610  -40.3590 N   0  0  0  0  0  0  0  0  0  0  0  0
   91.8320   99.2380  -41.5480 N   0  0  0  0  0  0  0  0  0  0  0  0
   91.1240  100.1250  -42.1660 C   0  0  0  0  0  0  0  0  0  0  0  0
   90.4720  100.2230  -43.4680 C   0  0  0  0  0  0  0  0  0  0  0  0
   91.0540  100.8350  -44.5730 N   0  0  0  0  0  0  0  0  0  0  0  0
   91.1640  102.0900  -45.0380 C   0  0  0  0  0  0  0  0  0  0  0  0
   92.6370  102.5500  -44.8660 C   0  0  0  0  0  0  0  0  0  0  0  0
   93.1950  101.7890  -43.8060 N   0  0  0  0  0  0  0  0  0  0  0  0
   93.3870  100.4250  -44.1970 C   0  0  0  0  0  0  0  0  0  0  0  0
   92.2000  100.0250  -45.0830 C   0  0  0  0  0  0  0  0  0  0  0  0
   94.1830  102.3550  -42.9880 C   0  0  0  0  0  0  0  0  0  0  0  0
   91.8670   97.7880  -41.6680 C   0  0  0  0  0  0  0  0  0  0  0  0
   92.6710   97.1470  -40.6560 N   0  0  0  0  0  0  0  0  0  0  0  0
   92.6750   95.9080  -40.8050 O   0  0  0  0  0  0  0  0  0  0  0  0
   91.9510   95.6010  -41.8370 N   0  0  0  0  0  0  0  0  0  0  0  0
   91.4490   96.7900  -42.3660 C   0  0  0  0  0  0  0  0  0  0  0  0
   90.6160   96.7420  -43.5020 N   0  0  0  0  0  0  0  0  0  0  0  0
   86.8650   98.4660  -43.5730 H   0  0  0  0  0  0  0  0  0  0  0  0
   84.5430  101.8990  -42.7490 H   0  0  0  0  0  0  0  0  0  0  0  0
   82.6500  100.9260  -44.0850 H   0  0  0  0  0  0  0  0  0  0  0  0
   82.8530   98.7530  -45.1110 H   0  0  0  0  0  0  0  0  0  0  0  0
   86.7610  100.7300  -41.0980 H   0  0  0  0  0  0  0  0  0  0  0  0
   88.1650  102.6660  -41.0090 H   0  0  0  0  0  0  0  0  0  0  0  0
   90.4010   99.0210  -43.7630 H   0  0  0  0  0  0  0  0  0  0  0  0
   89.3980  100.4260  -43.4440 H   0  0  0  0  0  0  0  0  0  0  0  0
   90.4980  102.8740  -44.7370 H   0  0  0  0  0  0  0  0  0  0  0  0
   91.0290  102.0550  -46.1960 H   0  0  0  0  0  0  0  0  0  0  0  0
   93.1690  102.3770  -45.7830 H   0  0  0  0  0  0  0  0  0  0  0  0
   92.5920  103.6050  -44.5800 H   0  0  0  0  0  0  0  0  0  0  0  0
   93.4300   99.6920  -43.3340 H   0  0  0  0  0  0  0  0  0  0  0  0
   94.3310  100.3180  -44.7420 H   0  0  0  0  0  0  0  0  0  0  0  0
   91.9650   98.9920  -45.0870 H   0  0  0  0  0  0  0  0  0  0  0  0
   92.3830  100.3660  -46.0840 H   0  0  0  0  0  0  0  0  0  0  0  0
   94.3790  103.4040  -43.3580 H   0  0  0  0  0  0  0  0  0  0  0  0
   93.7590  102.4520  -41.9390 H   0  0  0  0  0  0  0  0  0  0  0  0
   95.1210  101.8000  -42.9720 H   0  0  0  0  0  0  0  0  0  0  0  0
   91.1350   96.3920  -44.3830 H   0  0  0  0  0  0  0  0  0  0  0  0
   89.6510   96.9690  -43.6410 H   0  0  0  0  0  0  0  0  0  0  0  0
  1  2  1  0  0  0  0
  2  3  1  0  0  0  0
  3 32  1  0  0  0  0
  3  4  2  0  0  0  0
  4  8  1  0  0  0  0
  5  4  1  0  0  0  0
  5 33  1  0  0  0  0
  6  5  2  0  0  0  0
  7  2  2  0  0  0  0
  7  6  1  0  0  0  0
  8 36  1  0  0  0  0
  9  8  2  0  0  0  0
  9 10  1  0  0  0  0
 10 11  1  0  0  0  0
 10 37  1  0  0  0  0
 11 12  2  0  0  0  0
 11 13  1  0  0  0  0
 13 14  1  0  0  0  0
 15 14  2  0  0  0  0
 16 15  1  0  0  0  0
 17 16  1  0  0  0  0
 17 13  2  0  0  0  0
 18 39  1  0  0  0  0
 18 17  1  0  0  0  0
 19 18  1  0  0  0  0
 20 21  1  0  0  0  0
 20 40  1  0  0  0  0
 20 19  1  0  0  0  0
 21 43  1  0  0  0  0
 21 22  1  0  0  0  0
 22 25  1  0  0  0  0
 23 22  1  0  0  0  0
 23 44  1  0  0  0  0
 24 19  1  0  0  0  0
 24 23  1  0  0  0  0
 25 50  1  0  0  0  0
 25 49  1  0  0  0  0
 26 16  1  0  0  0  0
 26 27  2  0  0  0  0
 28 27  1  0  0  0  0
 29 28  1  0  0  0  0
 30 29  2  0  0  0  0
 30 26  1  0  0  0  0
 31 30  1  0  0  0  0
 34  6  1  0  0  0  0
 35  7  1  0  0  0  0
 38 18  1  0  0  0  0
 41 20  1  0  0  0  0
 42 21  1  0  0  0  0
 45 23  1  0  0  0  0
 46 24  1  0  0  0  0
 47 24  1  0  0  0  0
 48 25  1  0  0  0  0
 51 31  1  0  0  0  0
 52 31  1  0  0  0  0
M  END
>  <Pose>
1

>  <Score>
-6.75

$$$$
