
 OpenBabel03212208273D

 50 53  0  0  0  0  0  0  0  0999 V2000
   91.4660  104.3870  -36.0700 B   0  0  0  0  0  0  0  0  0  0  0  0
   91.1260  103.9340  -37.8990 C   0  0  0  0  0  0  0  0  0  0  0  0
   91.8330  102.9400  -38.5320 C   0  0  0  0  0  0  0  0  0  0  0  0
   91.6240  102.5770  -39.8510 C   0  0  0  0  0  0  0  0  0  0  0  0
   90.6470  103.2720  -40.5310 C   0  0  0  0  0  0  0  0  0  0  0  0
   89.9080  104.2860  -39.9250 C   0  0  0  0  0  0  0  0  0  0  0  0
   90.1550  104.6110  -38.6080 C   0  0  0  0  0  0  0  0  0  0  0  0
   92.3900  101.5170  -40.4930 C   0  0  0  0  0  0  0  0  0  0  0  0
   92.4470  100.3220  -40.0540 N   0  0  0  0  0  0  0  0  0  0  0  0
   93.1750   99.2870  -40.6480 N   0  0  0  0  0  0  0  0  0  0  0  0
   92.5490   98.3280  -41.4930 C   0  0  0  0  0  0  0  0  0  0  0  0
   91.9120   98.7240  -42.6000 N   0  0  0  0  0  4  0  0  0  0  0  0
   91.2920   97.8580  -43.4490 C   0  0  0  0  0  0  0  0  0  0  0  0
   91.3590   96.5540  -43.1040 N   0  0  0  0  0  0  0  0  0  0  0  0
   91.9830   96.0950  -42.0060 C   0  0  0  0  0  0  0  0  0  0  0  0
   92.5720   97.0260  -41.2160 N   0  0  0  0  0  0  0  0  0  0  0  0
   92.0370   94.7330  -41.6690 N   0  0  0  0  0  0  0  0  0  0  0  0
   91.4410   93.7170  -42.4940 C   0  0  0  0  0  0  0  0  0  0  0  0
   92.3970   92.5180  -42.4400 C   0  0  0  0  0  0  0  0  0  0  0  0
   93.6960   92.9480  -42.1800 O   0  0  0  0  0  0  0  0  0  0  0  0
   93.8820   93.4380  -40.9120 C   0  0  0  0  0  0  0  0  0  0  0  0
   92.7030   94.3150  -40.4680 C   0  0  0  0  0  0  0  0  0  0  0  0
   90.6260   98.3000  -44.6140 N   0  0  0  0  0  0  0  0  0  0  0  0
   89.2000   98.4670  -44.6250 C   0  0  0  0  0  0  0  0  0  0  0  0
   88.9250   99.8900  -45.0990 C   0  0  0  0  0  0  0  0  0  0  0  0
   89.4750   99.9890  -46.3740 O   0  0  0  0  0  0  0  0  0  0  0  0
   90.8570   99.9300  -46.3570 C   0  0  0  0  0  0  0  0  0  0  0  0
   91.3540   98.5930  -45.8180 C   0  0  0  0  0  0  0  0  0  0  0  0
   92.6070  102.3870  -37.9970 H   0  0  0  0  0  0  0  0  0  0  0  0
   90.4250  103.0420  -41.5730 H   0  0  0  0  0  0  0  0  0  0  0  0
   89.1410  104.8340  -40.4550 H   0  0  0  0  0  0  0  0  0  0  0  0
   89.5730  105.3960  -38.1590 H   0  0  0  0  0  0  0  0  0  0  0  0
   92.9410  101.7640  -41.3890 H   0  0  0  0  0  0  0  0  0  0  0  0
   94.1960   99.2320  -40.4550 H   0  0  0  0  0  0  0  0  0  0  0  0
   91.2850   94.0450  -43.5400 H   0  0  0  0  0  0  0  0  0  0  0  0
   90.5090   93.3880  -42.0040 H   0  0  0  0  0  0  0  0  0  0  0  0
   92.4010   92.0830  -43.4510 H   0  0  0  0  0  0  0  0  0  0  0  0
   92.0730   91.7760  -41.7020 H   0  0  0  0  0  0  0  0  0  0  0  0
   94.1310   92.6910  -40.1570 H   0  0  0  0  0  0  0  0  0  0  0  0
   94.7600   94.1490  -40.9580 H   0  0  0  0  0  0  0  0  0  0  0  0
   93.0520   95.1950  -39.9210 H   0  0  0  0  0  0  0  0  0  0  0  0
   92.0250   93.6740  -39.8290 H   0  0  0  0  0  0  0  0  0  0  0  0
   88.7230   98.2600  -43.6540 H   0  0  0  0  0  0  0  0  0  0  0  0
   88.7980   97.8020  -45.4370 H   0  0  0  0  0  0  0  0  0  0  0  0
   89.5040  100.5580  -44.4400 H   0  0  0  0  0  0  0  0  0  0  0  0
   87.8590  100.1170  -45.1440 H   0  0  0  0  0  0  0  0  0  0  0  0
   91.2060  100.7760  -45.7150 H   0  0  0  0  0  0  0  0  0  0  0  0
   91.2070  100.0670  -47.3990 H   0  0  0  0  0  0  0  0  0  0  0  0
   91.0970   97.8350  -46.5870 H   0  0  0  0  0  0  0  0  0  0  0  0
   92.4440   98.6570  -45.6730 H   0  0  0  0  0  0  0  0  0  0  0  0
  2  1  1  0  0  0  0
  3 29  1  0  0  0  0
  3  2  1  0  0  0  0
  4  3  2  0  0  0  0
  5  6  2  0  0  0  0
  5  4  1  0  0  0  0
  6  7  1  0  0  0  0
  7 32  1  0  0  0  0
  7  2  2  0  0  0  0
  8  9  2  0  0  0  0
  8  4  1  0  0  0  0
 10 34  1  0  0  0  0
 10  9  1  0  0  0  0
 11 16  1  0  0  0  0
 11 10  1  0  0  0  0
 12 11  2  0  0  0  0
 13 14  1  0  0  0  0
 13 12  2  0  0  0  0
 14 15  2  0  0  0  0
 15 17  1  0  0  0  0
 15 16  1  0  0  0  0
 17 22  1  0  0  0  0
 18 19  1  0  0  0  0
 18 36  1  0  0  0  0
 18 17  1  0  0  0  0
 19 20  1  0  0  0  0
 19 38  1  0  0  0  0
 20 21  1  0  0  0  0
 21 22  1  0  0  0  0
 21 39  1  0  0  0  0
 22 41  1  0  0  0  0
 22 42  1  0  0  0  0
 23 13  1  0  0  0  0
 24 23  1  0  0  0  0
 24 43  1  0  0  0  0
 25 24  1  0  0  0  0
 25 45  1  0  0  0  0
 26 27  1  0  0  0  0
 26 25  1  0  0  0  0
 27 28  1  0  0  0  0
 27 47  1  0  0  0  0
 28 50  1  0  0  0  0
 28 23  1  0  0  0  0
 30  5  1  0  0  0  0
 31  6  1  0  0  0  0
 33  8  1  0  0  0  0
 35 18  1  0  0  0  0
 37 19  1  0  0  0  0
 40 21  1  0  0  0  0
 44 24  1  0  0  0  0
 46 25  1  0  0  0  0
 48 27  1  0  0  0  0
 49 28  1  0  0  0  0
M  END
>  <Pose>
1

>  <Score>
-5.15

$$$$
