
 OpenBabel03212208273D

 61 64  0  0  1  0  0  0  0  0999 V2000
   94.5260  102.7490  -37.3570 B   0  0  0  0  0  0  0  0  0  0  0  0
   93.8280  102.6020  -39.1280 C   0  0  0  0  0  0  0  0  0  0  0  0
   92.7360  101.8570  -39.4540 C   0  0  0  0  0  0  0  0  0  0  0  0
   92.2010  101.7250  -40.7230 C   0  0  0  0  0  0  0  0  0  0  0  0
   92.8330  102.4130  -41.7560 C   0  0  0  0  0  0  0  0  0  0  0  0
   93.9440  103.1790  -41.4600 C   0  0  0  0  0  0  0  0  0  0  0  0
   94.4550  103.2910  -40.1790 C   0  0  0  0  0  0  0  0  0  0  0  0
   91.0290  100.8610  -40.8980 C   0  0  1  0  0  0  0  0  0  0  0  0
   89.8720  101.6260  -41.1770 N   0  0  0  0  0  0  0  0  0  0  0  0
   89.4220  101.3510  -42.4940 C   0  0  0  0  0  0  0  0  0  0  0  0
   88.4620  101.9460  -43.0750 O   0  0  0  0  0  0  0  0  0  0  0  0
   90.2330  100.2850  -43.0430 C   0  0  0  0  0  0  0  0  0  0  0  0
   90.0460   99.8450  -44.2100 O   0  0  0  0  0  0  0  0  0  0  0  0
   91.1990   99.9110  -42.0290 C   0  0  0  0  0  0  0  0  0  0  0  0
   92.0760   98.9410  -42.1560 C   0  0  0  0  0  0  0  0  0  0  0  0
   92.9870   98.7250  -41.1480 O   0  0  0  0  0  0  0  0  0  0  0  0
   92.0950   98.0990  -43.3260 C   0  0  0  0  0  0  0  0  0  0  0  0
   91.8660   96.7120  -43.2980 C   0  0  0  0  0  0  0  0  0  0  0  0
   91.9160   96.2340  -44.5480 N   0  0  0  0  0  0  0  0  0  0  0  0
   92.1650   97.2580  -45.3440 N   0  0  0  0  0  0  0  0  0  0  0  0
   92.2780   98.3990  -44.6470 C   0  0  0  0  0  0  0  0  0  0  0  0
   91.7260   94.8890  -44.9640 C   0  0  0  0  0  0  0  0  0  0  0  0
   92.3310   93.8730  -44.2360 C   0  0  0  0  0  0  0  0  0  0  0  0
   92.1800   92.5440  -44.5760 C   0  0  0  0  0  0  0  0  0  0  0  0
   91.4070   92.1670  -45.6750 C   0  0  0  0  0  0  0  0  0  0  0  0
   90.8050   93.1790  -46.4000 C   0  0  0  0  0  0  0  0  0  0  0  0
   90.9700   94.4920  -46.0420 C   0  0  0  0  0  0  0  0  0  0  0  0
   91.6100   95.9370  -42.0500 C   0  0  0  0  0  0  0  0  0  0  0  0
   89.1800  102.5680  -40.2540 C   0  0  0  0  0  0  0  0  0  0  0  0
   89.7100  103.9630  -40.4640 C   0  0  0  0  0  0  0  0  0  0  0  0
   89.4110  104.8920  -39.3310 C   0  0  0  0  0  0  0  0  0  0  0  0
   88.0350  105.0680  -39.0040 N   0  0  0  0  0  4  0  0  0  0  0  0
   87.7530  105.7480  -37.7830 C   0  0  0  0  0  0  0  0  0  0  0  0
   87.3460  105.7910  -40.0850 C   0  0  0  0  0  0  0  0  0  0  0  0
   92.2610  101.3210  -38.6090 H   0  0  0  0  0  0  0  0  0  0  0  0
   92.4480  102.3310  -42.7560 H   0  0  0  0  0  0  0  0  0  0  0  0
   94.4360  103.7180  -42.2750 H   0  0  0  0  0  0  0  0  0  0  0  0
   95.3280  103.8900  -39.9450 H   0  0  0  0  0  0  0  0  0  0  0  0
   90.8560  100.2970  -39.9450 H   0  0  0  0  0  0  0  0  0  0  0  0
   92.4650   99.3940  -45.0560 H   0  0  0  0  0  0  0  0  0  0  0  0
   92.9360   94.1960  -43.3710 H   0  0  0  0  0  0  0  0  0  0  0  0
   92.6620   91.7740  -43.9850 H   0  0  0  0  0  0  0  0  0  0  0  0
   91.3070   91.1080  -45.9240 H   0  0  0  0  0  0  0  0  0  0  0  0
   90.2040   92.8690  -47.2580 H   0  0  0  0  0  0  0  0  0  0  0  0
   90.4780   95.2500  -46.6350 H   0  0  0  0  0  0  0  0  0  0  0  0
   90.9740   96.5280  -41.3460 H   0  0  0  0  0  0  0  0  0  0  0  0
   92.5470   95.5860  -41.5810 H   0  0  0  0  0  0  0  0  0  0  0  0
   91.0110   95.0250  -42.2900 H   0  0  0  0  0  0  0  0  0  0  0  0
   88.0850  102.4800  -40.3750 H   0  0  0  0  0  0  0  0  0  0  0  0
   89.4840  102.2780  -39.2070 H   0  0  0  0  0  0  0  0  0  0  0  0
   90.8350  103.8330  -40.4410 H   0  0  0  0  0  0  0  0  0  0  0  0
   89.5070  104.3560  -41.4620 H   0  0  0  0  0  0  0  0  0  0  0  0
   89.8350  105.9260  -39.5360 H   0  0  0  0  0  0  0  0  0  0  0  0
   89.9660  104.5500  -38.4080 H   0  0  0  0  0  0  0  0  0  0  0  0
   87.5520  104.1190  -38.9790 H   0  0  0  0  0  0  0  0  0  0  0  0
   87.0790  106.6340  -37.9370 H   0  0  0  0  0  0  0  0  0  0  0  0
   88.6250  106.0080  -37.1520 H   0  0  0  0  0  0  0  0  0  0  0  0
   87.1380  105.0580  -37.1350 H   0  0  0  0  0  0  0  0  0  0  0  0
   86.5200  105.1970  -40.5090 H   0  0  0  0  0  0  0  0  0  0  0  0
   88.1020  105.9800  -40.8810 H   0  0  0  0  0  0  0  0  0  0  0  0
   87.0150  106.7920  -39.7250 H   0  0  0  0  0  0  0  0  0  0  0  0
  2  1  1  0  0  0  0
  3  2  1  0  0  0  0
  3 35  1  0  0  0  0
  4  3  2  0  0  0  0
  5  6  2  0  0  0  0
  5  4  1  0  0  0  0
  6  7  1  0  0  0  0
  7 38  1  0  0  0  0
  7  2  2  0  0  0  0
  8  4  1  0  0  0  0
  8 39  1  1  0  0  0
  9  8  1  0  0  0  0
  9 29  1  0  0  0  0
 10  9  1  0  0  0  0
 11 10  2  0  0  0  0
 12 10  1  0  0  0  0
 12 14  1  0  0  0  0
 13 12  2  0  0  0  0
 14  8  1  0  0  0  0
 15 14  2  0  0  0  0
 15 16  1  0  0  0  0
 17 18  2  0  0  0  0
 17 15  1  0  0  0  0
 18 28  1  0  0  0  0
 19 18  1  0  0  0  0
 20 21  2  0  0  0  0
 20 19  1  0  0  0  0
 21 17  1  0  0  0  0
 22 19  1  0  0  0  0
 22 23  1  0  0  0  0
 23 41  1  0  0  0  0
 24 23  2  0  0  0  0
 24 42  1  0  0  0  0
 25 24  1  0  0  0  0
 26 27  1  0  0  0  0
 26 25  2  0  0  0  0
 27 22  2  0  0  0  0
 28 47  1  0  0  0  0
 28 46  1  0  0  0  0
 29 50  1  0  0  0  0
 30 51  1  0  0  0  0
 30 29  1  0  0  0  0
 30 31  1  0  0  0  0
 31 32  1  0  0  0  0
 31 54  1  0  0  0  0
 32 55  1  0  0  0  0
 32 33  1  0  0  0  0
 33 57  1  0  0  0  0
 33 58  1  0  0  0  0
 34 61  1  0  0  0  0
 34 32  1  0  0  0  0
 36  5  1  0  0  0  0
 37  6  1  0  0  0  0
 40 21  1  0  0  0  0
 43 25  1  0  0  0  0
 44 26  1  0  0  0  0
 45 27  1  0  0  0  0
 48 28  1  0  0  0  0
 49 29  1  0  0  0  0
 52 30  1  0  0  0  0
 53 31  1  0  0  0  0
 56 33  1  0  0  0  0
 59 34  1  0  0  0  0
 60 34  1  0  0  0  0
M  END
>  <Pose>
1

>  <Score>
-5.54

$$$$
