
 OpenBabel03212208273D

 63 66  0  0  1  0  0  0  0  0999 V2000
   89.3110   99.9310  -49.2180 B   0  0  0  0  0  0  0  0  0  0  0  0
   88.6730   99.3640  -47.5150 C   0  0  0  0  0  0  0  0  0  0  0  0
   89.5120   98.6870  -46.6380 C   0  0  0  0  0  0  0  0  0  0  0  0
   89.0670   98.2730  -45.4030 C   0  0  0  0  0  0  0  0  0  0  0  0
   87.7640   98.5390  -45.0440 C   0  0  0  0  0  0  0  0  0  0  0  0
   86.9260   99.2110  -45.9110 C   0  0  0  0  0  0  0  0  0  0  0  0
   87.3630   99.6310  -47.1490 C   0  0  0  0  0  0  0  0  0  0  0  0
   89.9390   97.5540  -44.4570 C   0  0  1  0  0  0  0  0  0  0  0  0
   90.9690   96.7720  -45.1130 N   0  0  0  0  0  0  0  0  0  0  0  0
   92.1530   97.5260  -45.2580 C   0  0  0  0  0  0  0  0  0  0  0  0
   93.1490   97.3650  -46.0090 O   0  0  0  0  0  0  0  0  0  0  0  0
   92.0330   98.6510  -44.2960 C   0  0  0  0  0  0  0  0  0  0  0  0
   92.9080   99.5270  -44.1470 O   0  0  0  0  0  0  0  0  0  0  0  0
   90.7560   98.5010  -43.6220 C   0  0  0  0  0  0  0  0  0  0  0  0
   90.4220   99.0490  -42.4820 C   0  0  0  0  0  0  0  0  0  0  0  0
   89.1690   98.7500  -41.9190 O   0  0  0  0  0  0  0  0  0  0  0  0
   91.2890   99.9560  -41.7800 C   0  0  0  0  0  0  0  0  0  0  0  0
   90.7690  101.2250  -41.4840 C   0  0  0  0  0  0  0  0  0  0  0  0
   91.5360  102.1650  -40.8550 C   0  0  0  0  0  0  0  0  0  0  0  0
   92.8510  101.9130  -40.4840 C   0  0  0  0  0  0  0  0  0  0  0  0
   93.3350  100.6770  -40.7810 C   0  0  0  0  0  0  0  0  0  0  0  0
   92.5750   99.7160  -41.4160 C   0  0  0  0  0  0  0  0  0  0  0  0
   93.5590  102.9150  -39.8520 O   0  0  0  0  0  0  0  0  0  0  0  0
   94.1040  102.7160  -38.5560 C   0  0  0  0  0  0  0  0  0  0  0  0
   90.9650  103.5150  -40.5470 C   0  0  0  0  0  0  0  0  0  0  0  0
   90.8360   95.3790  -45.5680 C   0  0  0  0  0  0  0  0  0  0  0  0
   91.9900   94.5620  -45.0560 C   0  0  0  0  0  0  0  0  0  0  0  0
   91.6210   93.2360  -44.4840 C   0  0  0  0  0  0  0  0  0  0  0  0
   91.6530   93.1970  -43.0380 N   0  0  0  0  0  4  0  0  0  0  0  0
   92.7100   92.3360  -42.5460 C   0  0  0  0  0  0  0  0  0  0  0  0
   93.7370   93.1320  -41.7870 C   0  0  0  0  0  0  0  0  0  0  0  0
   93.0910   93.7230  -40.6820 O   0  0  0  0  0  0  0  0  0  0  0  0
   92.1320   94.6380  -41.1110 C   0  0  0  0  0  0  0  0  0  0  0  0
   91.8460   94.5750  -42.5770 C   0  0  0  0  0  0  0  0  0  0  0  0
   90.5220   98.4840  -46.9250 H   0  0  0  0  0  0  0  0  0  0  0  0
   87.3540   98.2380  -44.0850 H   0  0  0  0  0  0  0  0  0  0  0  0
   85.9070   99.4140  -45.6170 H   0  0  0  0  0  0  0  0  0  0  0  0
   86.7070  100.1550  -47.8280 H   0  0  0  0  0  0  0  0  0  0  0  0
   89.3740   96.8410  -43.8190 H   0  0  0  0  0  0  0  0  0  0  0  0
   89.7310  101.4580  -41.7650 H   0  0  0  0  0  0  0  0  0  0  0  0
   94.3600  100.4400  -40.5070 H   0  0  0  0  0  0  0  0  0  0  0  0
   93.0150   98.7380  -41.6680 H   0  0  0  0  0  0  0  0  0  0  0  0
   94.8220  103.4980  -38.2850 H   0  0  0  0  0  0  0  0  0  0  0  0
   94.5770  101.7090  -38.4510 H   0  0  0  0  0  0  0  0  0  0  0  0
   93.2930  102.7390  -37.7770 H   0  0  0  0  0  0  0  0  0  0  0  0
   90.6360  103.9260  -41.5340 H   0  0  0  0  0  0  0  0  0  0  0  0
   91.7330  104.1730  -40.1480 H   0  0  0  0  0  0  0  0  0  0  0  0
   90.1040  103.4500  -39.8450 H   0  0  0  0  0  0  0  0  0  0  0  0
   90.7830   95.3360  -46.6690 H   0  0  0  0  0  0  0  0  0  0  0  0
   89.9030   94.9650  -45.0980 H   0  0  0  0  0  0  0  0  0  0  0  0
   92.7340   94.3560  -45.8750 H   0  0  0  0  0  0  0  0  0  0  0  0
   92.5400   95.1180  -44.2490 H   0  0  0  0  0  0  0  0  0  0  0  0
   92.3330   92.4870  -44.9190 H   0  0  0  0  0  0  0  0  0  0  0  0
   90.6150   92.8890  -44.7920 H   0  0  0  0  0  0  0  0  0  0  0  0
   90.7520   92.8940  -42.6120 H   0  0  0  0  0  0  0  0  0  0  0  0
   93.2330   91.8230  -43.3790 H   0  0  0  0  0  0  0  0  0  0  0  0
   92.2970   91.5850  -41.8110 H   0  0  0  0  0  0  0  0  0  0  0  0
   94.5170   92.4860  -41.3760 H   0  0  0  0  0  0  0  0  0  0  0  0
   94.2070   93.9160  -42.4160 H   0  0  0  0  0  0  0  0  0  0  0  0
   91.1760   94.4800  -40.5690 H   0  0  0  0  0  0  0  0  0  0  0  0
   92.5170   95.6650  -40.8920 H   0  0  0  0  0  0  0  0  0  0  0  0
   90.8320   95.0530  -42.7190 H   0  0  0  0  0  0  0  0  0  0  0  0
   92.5660   95.1230  -43.2090 H   0  0  0  0  0  0  0  0  0  0  0  0
  1  2  1  0  0  0  0
  2  7  2  0  0  0  0
  2  3  1  0  0  0  0
  3  4  2  0  0  0  0
  4  5  1  0  0  0  0
  4  8  1  0  0  0  0
  5 36  1  0  0  0  0
  6 37  1  0  0  0  0
  6  5  2  0  0  0  0
  7  6  1  0  0  0  0
  8 39  1  1  0  0  0
  8 14  1  0  0  0  0
  9  8  1  0  0  0  0
 10  9  1  0  0  0  0
 10 12  1  0  0  0  0
 11 10  2  0  0  0  0
 12 13  2  0  0  0  0
 12 14  1  0  0  0  0
 14 15  2  0  0  0  0
 15 16  1  0  0  0  0
 15 17  1  0  0  0  0
 17 18  2  0  0  0  0
 17 22  1  0  0  0  0
 18 19  1  0  0  0  0
 19 25  1  0  0  0  0
 19 20  2  0  0  0  0
 20 23  1  0  0  0  0
 21 41  1  0  0  0  0
 21 20  1  0  0  0  0
 22 21  2  0  0  0  0
 23 24  1  0  0  0  0
 24 44  1  0  0  0  0
 24 43  1  0  0  0  0
 24 45  1  0  0  0  0
 25 47  1  0  0  0  0
 25 48  1  0  0  0  0
 26  9  1  0  0  0  0
 26 50  1  0  0  0  0
 26 27  1  0  0  0  0
 27 28  1  0  0  0  0
 27 52  1  0  0  0  0
 28 29  1  0  0  0  0
 29 55  1  0  0  0  0
 29 34  1  0  0  0  0
 29 30  1  0  0  0  0
 30 57  1  0  0  0  0
 30 31  1  0  0  0  0
 31 58  1  0  0  0  0
 31 32  1  0  0  0  0
 33 61  1  0  0  0  0
 33 32  1  0  0  0  0
 33 60  1  0  0  0  0
 34 33  1  0  0  0  0
 35  3  1  0  0  0  0
 38  7  1  0  0  0  0
 40 18  1  0  0  0  0
 42 22  1  0  0  0  0
 46 25  1  0  0  0  0
 49 26  1  0  0  0  0
 51 27  1  0  0  0  0
 53 28  1  0  0  0  0
 54 28  1  0  0  0  0
 56 30  1  0  0  0  0
 59 31  1  0  0  0  0
 62 34  1  0  0  0  0
 63 34  1  0  0  0  0
M  END
>  <Pose>
1

>  <Score>
-5.14

$$$$
