
 OpenBabel03212208273D

 56 59  0  0  1  0  0  0  0  0999 V2000
   91.9920   97.6760  -41.8760 B   0  0  0  0  0  0  0  0  0  0  0  0
   91.2730   99.3860  -42.3280 C   0  0  0  0  0  0  0  0  0  0  0  0
   90.5750   99.5830  -43.5150 C   0  0  0  0  0  0  0  0  0  0  0  0
   90.0440  100.8050  -43.8700 C   0  0  0  0  0  0  0  0  0  0  0  0
   90.2430  101.8470  -42.9750 C   0  0  0  0  0  0  0  0  0  0  0  0
   90.9320  101.6740  -41.7940 C   0  0  0  0  0  0  0  0  0  0  0  0
   91.4410  100.4390  -41.4840 C   0  0  0  0  0  0  0  0  0  0  0  0
   89.2960  101.0120  -45.1420 C   0  0  2  0  0  0  0  0  0  0  0  0
   88.1770  100.1290  -45.2790 N   0  0  0  0  0  0  0  0  0  0  0  0
   88.6610   98.9700  -45.9380 C   0  0  0  0  0  0  0  0  0  0  0  0
   88.1030   97.8440  -45.9520 O   0  0  0  0  0  0  0  0  0  0  0  0
   89.9390   99.2920  -46.6160 C   0  0  0  0  0  0  0  0  0  0  0  0
   90.6540   98.5350  -47.2930 O   0  0  0  0  0  0  0  0  0  0  0  0
   90.1790  100.6920  -46.3200 C   0  0  0  0  0  0  0  0  0  0  0  0
   90.9570  101.5340  -46.9640 C   0  0  0  0  0  0  0  0  0  0  0  0
   91.0090  102.8550  -46.5760 O   0  0  0  0  0  0  0  0  0  0  0  0
   91.7740  101.1130  -48.0740 C   0  0  0  0  0  0  0  0  0  0  0  0
   91.3330  100.6570  -49.2820 C   0  0  0  0  0  0  0  0  0  0  0  0
   92.2340  100.3240  -50.2760 C   0  0  0  0  0  0  0  0  0  0  0  0
   93.5990  100.4220  -50.1290 C   0  0  0  0  0  0  0  0  0  0  0  0
   94.0430  100.8820  -48.9070 C   0  0  0  0  0  0  0  0  0  0  0  0
   93.1650  101.2170  -47.9060 C   0  0  0  0  0  0  0  0  0  0  0  0
   94.5490  100.0560  -51.2160 C   0  0  0  0  0  0  0  0  0  0  0  0
   86.7850  100.3430  -44.8350 C   0  0  0  0  0  0  0  0  0  0  0  0
   86.6640   99.7650  -43.4520 C   0  0  0  0  0  0  0  0  0  0  0  0
   85.3530   99.3870  -43.0660 N   0  0  0  0  0  4  0  0  0  0  0  0
   84.2830  100.1630  -43.6220 C   0  0  0  0  0  0  0  0  0  0  0  0
   83.7330   99.6230  -44.9140 C   0  0  0  0  0  0  0  0  0  0  0  0
   83.5940   98.2530  -44.9290 O   0  0  0  0  0  0  0  0  0  0  0  0
   84.7760   97.6050  -44.6550 C   0  0  0  0  0  0  0  0  0  0  0  0
   85.1860   97.9680  -43.2530 C   0  0  0  0  0  0  0  0  0  0  0  0
   90.4570   98.7460  -44.1560 H   0  0  0  0  0  0  0  0  0  0  0  0
   89.8500  102.8210  -43.2030 H   0  0  0  0  0  0  0  0  0  0  0  0
   91.0680  102.5080  -41.1180 H   0  0  0  0  0  0  0  0  0  0  0  0
   91.9870  100.3000  -40.5480 H   0  0  0  0  0  0  0  0  0  0  0  0
   88.9380  102.0410  -45.1680 H   0  0  0  0  0  0  0  0  0  0  0  0
   90.2620  100.5400  -49.4180 H   0  0  0  0  0  0  0  0  0  0  0  0
   91.8560   99.9650  -51.2260 H   0  0  0  0  0  0  0  0  0  0  0  0
   95.1280  100.9620  -48.7790 H   0  0  0  0  0  0  0  0  0  0  0  0
   93.5820  101.5730  -46.9680 H   0  0  0  0  0  0  0  0  0  0  0  0
   94.1080  100.2490  -52.2310 H   0  0  0  0  0  0  0  0  0  0  0  0
   95.4370  100.7530  -51.1710 H   0  0  0  0  0  0  0  0  0  0  0  0
   94.9390   99.0430  -51.1280 H   0  0  0  0  0  0  0  0  0  0  0  0
   86.6020  101.4390  -44.7530 H   0  0  0  0  0  0  0  0  0  0  0  0
   86.1680   99.8480  -45.5870 H   0  0  0  0  0  0  0  0  0  0  0  0
   87.1270  100.5270  -42.7580 H   0  0  0  0  0  0  0  0  0  0  0  0
   87.3650   98.8960  -43.4060 H   0  0  0  0  0  0  0  0  0  0  0  0
   85.3000   99.5200  -42.0120 H   0  0  0  0  0  0  0  0  0  0  0  0
   84.5790  101.2140  -43.8140 H   0  0  0  0  0  0  0  0  0  0  0  0
   83.4270  100.2200  -42.9140 H   0  0  0  0  0  0  0  0  0  0  0  0
   82.7090  100.0550  -45.0660 H   0  0  0  0  0  0  0  0  0  0  0  0
   84.3110   99.9280  -45.8020 H   0  0  0  0  0  0  0  0  0  0  0  0
   85.5710   97.7950  -45.4010 H   0  0  0  0  0  0  0  0  0  0  0  0
   84.5830   96.5130  -44.6680 H   0  0  0  0  0  0  0  0  0  0  0  0
   86.1540   97.4930  -42.9600 H   0  0  0  0  0  0  0  0  0  0  0  0
   84.4210   97.5610  -42.5590 H   0  0  0  0  0  0  0  0  0  0  0  0
  2  1  1  0  0  0  0
  2  7  1  0  0  0  0
  3  2  2  0  0  0  0
  4  3  1  0  0  0  0
  4  5  2  0  0  0  0
  5  6  1  0  0  0  0
  6  7  2  0  0  0  0
  6 34  1  0  0  0  0
  7 35  1  0  0  0  0
  8 36  1  6  0  0  0
  8  4  1  0  0  0  0
  9  8  1  0  0  0  0
  9 24  1  0  0  0  0
 10  9  1  0  0  0  0
 11 10  2  0  0  0  0
 12 14  1  0  0  0  0
 12 10  1  0  0  0  0
 13 12  2  0  0  0  0
 14  8  1  0  0  0  0
 15 16  1  0  0  0  0
 15 14  2  0  0  0  0
 17 22  1  0  0  0  0
 17 15  1  0  0  0  0
 18 17  2  0  0  0  0
 19 20  2  0  0  0  0
 19 18  1  0  0  0  0
 20 21  1  0  0  0  0
 21 39  1  0  0  0  0
 21 22  2  0  0  0  0
 22 40  1  0  0  0  0
 23 42  1  0  0  0  0
 23 43  1  0  0  0  0
 23 20  1  0  0  0  0
 24 44  1  0  0  0  0
 24 25  1  0  0  0  0
 25 47  1  0  0  0  0
 25 26  1  0  0  0  0
 25 46  1  0  0  0  0
 26 48  1  0  0  0  0
 27 26  1  0  0  0  0
 27 50  1  0  0  0  0
 28 27  1  0  0  0  0
 29 28  1  0  0  0  0
 29 30  1  0  0  0  0
 30 31  1  0  0  0  0
 31 26  1  0  0  0  0
 31 55  1  0  0  0  0
 31 56  1  0  0  0  0
 32  3  1  0  0  0  0
 33  5  1  0  0  0  0
 37 18  1  0  0  0  0
 38 19  1  0  0  0  0
 41 23  1  0  0  0  0
 45 24  1  0  0  0  0
 49 27  1  0  0  0  0
 51 28  1  0  0  0  0
 52 28  1  0  0  0  0
 53 30  1  0  0  0  0
 54 30  1  0  0  0  0
M  END
>  <Pose>
1

>  <Score>
-4.22

$$$$
