
 OpenBabel03212208273D

 57 60  0  0  1  0  0  0  0  0999 V2000
   92.7680  100.5000  -48.5930 B   0  0  0  0  0  0  0  0  0  0  0  0
   91.7960   99.8090  -47.1140 C   0  0  0  0  0  0  0  0  0  0  0  0
   92.4900   99.3540  -45.9920 C   0  0  0  0  0  0  0  0  0  0  0  0
   91.8240   98.8560  -44.9240 C   0  0  0  0  0  0  0  0  0  0  0  0
   90.4260   98.8130  -44.9810 C   0  0  0  0  0  0  0  0  0  0  0  0
   89.7520   99.2590  -46.0780 C   0  0  0  0  0  0  0  0  0  0  0  0
   90.4110   99.7690  -47.1760 C   0  0  0  0  0  0  0  0  0  0  0  0
   92.4710   98.3640  -43.7020 C   0  0  2  0  0  0  0  0  0  0  0  0
   91.8760   97.1670  -43.1390 N   0  0  0  0  0  0  0  0  0  0  0  0
   92.3060   97.1450  -41.7710 C   0  0  0  0  0  0  0  0  0  0  0  0
   92.4200   96.1540  -41.0270 O   0  0  0  0  0  0  0  0  0  0  0  0
   92.5920   98.5230  -41.3940 C   0  0  0  0  0  0  0  0  0  0  0  0
   93.0010   99.0090  -40.2970 O   0  0  0  0  0  0  0  0  0  0  0  0
   92.3160   99.3320  -42.5710 C   0  0  0  0  0  0  0  0  0  0  0  0
   92.0460  100.6220  -42.5790 C   0  0  0  0  0  0  0  0  0  0  0  0
   91.8770  101.2080  -43.8410 O   0  0  0  0  0  0  0  0  0  0  0  0
   91.9080  101.4580  -41.3950 C   0  0  0  0  0  0  0  0  0  0  0  0
   92.8850  101.9180  -40.6000 N   0  0  0  0  0  0  0  0  0  0  0  0
   92.3770  102.7040  -39.6160 C   0  0  0  0  0  0  0  0  0  0  0  0
   91.0320  102.7130  -39.8320 N   0  0  0  0  0  0  0  0  0  0  0  0
   90.7100  101.9810  -40.8840 C   0  0  0  0  0  0  0  0  0  0  0  0
   89.4000  101.6870  -41.5070 C   0  0  0  0  0  0  0  0  0  0  0  0
   93.1670  103.3010  -38.6460 C   0  0  0  0  0  0  0  0  0  0  0  0
   94.5320  103.1020  -38.6560 C   0  0  0  0  0  0  0  0  0  0  0  0
   95.0430  102.2950  -39.6660 C   0  0  0  0  0  0  0  0  0  0  0  0
   94.2370  101.7250  -40.6020 C   0  0  0  0  0  0  0  0  0  0  0  0
   91.0310   96.1710  -43.8020 C   0  0  0  0  0  0  0  0  0  0  0  0
   91.7700   95.3020  -44.7520 C   0  0  0  0  0  0  0  0  0  0  0  0
   91.1060   94.0900  -45.2600 C   0  0  0  0  0  0  0  0  0  0  0  0
   91.5070   92.8540  -44.6850 N   0  0  0  0  0  4  0  0  0  0  0  0
   92.6690   93.0480  -43.8510 C   0  0  0  0  0  0  0  0  0  0  0  0
   91.9340   91.9350  -45.7570 C   0  0  0  0  0  0  0  0  0  0  0  0
   93.5530   99.4090  -46.0150 H   0  0  0  0  0  0  0  0  0  0  0  0
   89.8840   98.4180  -44.1340 H   0  0  0  0  0  0  0  0  0  0  0  0
   88.6570   99.2280  -46.1290 H   0  0  0  0  0  0  0  0  0  0  0  0
   89.8720  100.1300  -48.0640 H   0  0  0  0  0  0  0  0  0  0  0  0
   93.5320   98.1670  -43.8410 H   0  0  0  0  0  0  0  0  0  0  0  0
   88.6240  101.9450  -40.7510 H   0  0  0  0  0  0  0  0  0  0  0  0
   89.2840  100.5910  -41.6830 H   0  0  0  0  0  0  0  0  0  0  0  0
   89.2060  102.2670  -42.4230 H   0  0  0  0  0  0  0  0  0  0  0  0
   92.7120  103.9180  -37.8840 H   0  0  0  0  0  0  0  0  0  0  0  0
   95.2040  103.5390  -37.9290 H   0  0  0  0  0  0  0  0  0  0  0  0
   96.1250  102.1220  -39.6960 H   0  0  0  0  0  0  0  0  0  0  0  0
   94.6190  101.0770  -41.4030 H   0  0  0  0  0  0  0  0  0  0  0  0
   90.4370   95.6140  -43.0450 H   0  0  0  0  0  0  0  0  0  0  0  0
   90.2830   96.7310  -44.3960 H   0  0  0  0  0  0  0  0  0  0  0  0
   92.2000   95.8830  -45.6080 H   0  0  0  0  0  0  0  0  0  0  0  0
   92.6970   94.9560  -44.1990 H   0  0  0  0  0  0  0  0  0  0  0  0
   90.0050   94.2100  -45.0620 H   0  0  0  0  0  0  0  0  0  0  0  0
   91.1660   94.0580  -46.3880 H   0  0  0  0  0  0  0  0  0  0  0  0
   90.7430   92.3330  -44.2010 H   0  0  0  0  0  0  0  0  0  0  0  0
   93.5580   92.4770  -44.1930 H   0  0  0  0  0  0  0  0  0  0  0  0
   92.9400   94.1210  -43.8900 H   0  0  0  0  0  0  0  0  0  0  0  0
   92.4800   92.8180  -42.7860 H   0  0  0  0  0  0  0  0  0  0  0  0
   91.0740   91.6940  -46.4230 H   0  0  0  0  0  0  0  0  0  0  0  0
   92.7860   92.3910  -46.3180 H   0  0  0  0  0  0  0  0  0  0  0  0
   92.2800   90.9710  -45.3430 H   0  0  0  0  0  0  0  0  0  0  0  0
  1  2  1  0  0  0  0
  2  3  1  0  0  0  0
  3  4  2  0  0  0  0
  4  8  1  0  0  0  0
  5  4  1  0  0  0  0
  5 34  1  0  0  0  0
  6  5  2  0  0  0  0
  7  2  2  0  0  0  0
  7  6  1  0  0  0  0
  8 37  1  6  0  0  0
  8  9  1  0  0  0  0
  8 14  1  0  0  0  0
  9 10  1  0  0  0  0
 10 12  1  0  0  0  0
 10 11  2  0  0  0  0
 12 13  2  0  0  0  0
 14 12  1  0  0  0  0
 15 14  2  0  0  0  0
 15 17  1  0  0  0  0
 16 15  1  0  0  0  0
 17 21  2  0  0  0  0
 17 18  1  0  0  0  0
 18 19  1  0  0  0  0
 19 23  1  0  0  0  0
 20 19  2  0  0  0  0
 21 20  1  0  0  0  0
 22 21  1  0  0  0  0
 22 38  1  0  0  0  0
 23 41  1  0  0  0  0
 24 23  2  0  0  0  0
 24 42  1  0  0  0  0
 25 24  1  0  0  0  0
 26 18  1  0  0  0  0
 26 25  2  0  0  0  0
 27  9  1  0  0  0  0
 27 45  1  0  0  0  0
 28 48  1  0  0  0  0
 28 27  1  0  0  0  0
 29 49  1  0  0  0  0
 29 28  1  0  0  0  0
 29 30  1  0  0  0  0
 30 51  1  0  0  0  0
 30 31  1  0  0  0  0
 31 54  1  0  0  0  0
 32 57  1  0  0  0  0
 32 30  1  0  0  0  0
 33  3  1  0  0  0  0
 35  6  1  0  0  0  0
 36  7  1  0  0  0  0
 39 22  1  0  0  0  0
 40 22  1  0  0  0  0
 43 25  1  0  0  0  0
 44 26  1  0  0  0  0
 46 27  1  0  0  0  0
 47 28  1  0  0  0  0
 50 29  1  0  0  0  0
 52 31  1  0  0  0  0
 53 31  1  0  0  0  0
 55 32  1  0  0  0  0
 56 32  1  0  0  0  0
M  END
>  <Pose>
1

>  <Score>
-5.30

$$$$
