
 OpenBabel03212208273D

 53 56  0  0  1  0  0  0  0  0999 V2000
   85.1400  106.0170  -41.1090 B   0  0  0  0  0  0  0  0  0  0  0  0
   84.6820  104.4580  -42.1270 C   0  0  0  0  0  0  0  0  0  0  0  0
   85.3780  103.2680  -41.9810 C   0  0  0  0  0  0  0  0  0  0  0  0
   85.0760  102.1310  -42.6980 C   0  0  0  0  0  0  0  0  0  0  0  0
   84.0290  102.2060  -43.5970 C   0  0  0  0  0  0  0  0  0  0  0  0
   83.3170  103.3970  -43.7570 C   0  0  0  0  0  0  0  0  0  0  0  0
   83.6380  104.5260  -43.0260 C   0  0  0  0  0  0  0  0  0  0  0  0
   85.8610  100.8770  -42.4980 C   0  0  2  0  0  0  0  0  0  0  0  0
   87.2770  101.0950  -42.7500 N   0  0  0  0  0  0  0  0  0  0  0  0
   87.3430  101.1860  -44.1930 C   0  0  0  0  0  0  0  0  0  0  0  0
   88.2200  101.7730  -44.8630 O   0  0  0  0  0  0  0  0  0  0  0  0
   86.2050  100.4760  -44.7590 C   0  0  0  0  0  0  0  0  0  0  0  0
   85.8520  100.2940  -45.9530 O   0  0  0  0  0  0  0  0  0  0  0  0
   85.4530   99.9530  -43.6180 C   0  0  0  0  0  0  0  0  0  0  0  0
   84.6150   98.9580  -43.5630 C   0  0  0  0  0  0  0  0  0  0  0  0
   83.9920   98.6840  -42.3270 O   0  0  0  0  0  0  0  0  0  0  0  0
   84.3370   98.1570  -44.7410 C   0  0  0  0  0  0  0  0  0  0  0  0
   84.6040   96.8800  -44.8220 O   0  0  0  0  0  0  0  0  0  0  0  0
   84.2610   96.3980  -45.9850 C   0  0  0  0  0  0  0  0  0  0  0  0
   83.7340   97.4120  -46.7250 C   0  0  0  0  0  0  0  0  0  0  0  0
   83.7810   98.5580  -45.9240 C   0  0  0  0  0  0  0  0  0  0  0  0
   88.3970  101.2230  -41.8550 C   0  0  0  0  0  0  0  0  0  0  0  0
   89.6750  100.6130  -42.3830 C   0  0  0  0  0  0  0  0  0  0  0  0
   89.6120   99.1430  -42.2560 C   0  0  0  0  0  0  0  0  0  0  0  0
   90.8920   98.4770  -42.1790 N   0  0  0  0  0  4  0  0  0  0  0  0
   91.0140   97.3980  -43.1310 C   0  0  0  0  0  0  0  0  0  0  0  0
   91.6950   97.7590  -44.4030 C   0  0  0  0  0  0  0  0  0  0  0  0
   92.8040   98.5680  -44.2750 O   0  0  0  0  0  0  0  0  0  0  0  0
   92.5880   99.6900  -43.4870 C   0  0  0  0  0  0  0  0  0  0  0  0
   92.0290   99.3330  -42.1340 C   0  0  0  0  0  0  0  0  0  0  0  0
   86.2010  103.2190  -41.2710 H   0  0  0  0  0  0  0  0  0  0  0  0
   83.7820  101.3230  -44.1640 H   0  0  0  0  0  0  0  0  0  0  0  0
   82.5060  103.4400  -44.4580 H   0  0  0  0  0  0  0  0  0  0  0  0
   83.1030  105.4610  -43.1300 H   0  0  0  0  0  0  0  0  0  0  0  0
   85.6280  100.3690  -41.5700 H   0  0  0  0  0  0  0  0  0  0  0  0
   84.3910   95.3530  -46.2760 H   0  0  0  0  0  0  0  0  0  0  0  0
   83.3560   97.3480  -47.7260 H   0  0  0  0  0  0  0  0  0  0  0  0
   83.4400   99.5260  -46.2470 H   0  0  0  0  0  0  0  0  0  0  0  0
   88.6120  102.3220  -41.6890 H   0  0  0  0  0  0  0  0  0  0  0  0
   88.1600  100.8520  -40.8290 H   0  0  0  0  0  0  0  0  0  0  0  0
   90.5250  100.9830  -41.7640 H   0  0  0  0  0  0  0  0  0  0  0  0
   89.7420  100.9800  -43.4320 H   0  0  0  0  0  0  0  0  0  0  0  0
   89.0920   98.6560  -43.1230 H   0  0  0  0  0  0  0  0  0  0  0  0
   89.0130   98.8840  -41.3610 H   0  0  0  0  0  0  0  0  0  0  0  0
   90.8660   97.9850  -41.2300 H   0  0  0  0  0  0  0  0  0  0  0  0
   91.5380   96.5220  -42.6850 H   0  0  0  0  0  0  0  0  0  0  0  0
   89.9880   97.0440  -43.3720 H   0  0  0  0  0  0  0  0  0  0  0  0
   92.0690   96.7950  -44.8640 H   0  0  0  0  0  0  0  0  0  0  0  0
   90.9830   98.1500  -45.1890 H   0  0  0  0  0  0  0  0  0  0  0  0
   93.5970  100.1420  -43.3010 H   0  0  0  0  0  0  0  0  0  0  0  0
   91.9800  100.4670  -43.9570 H   0  0  0  0  0  0  0  0  0  0  0  0
   92.8740   98.8010  -41.6000 H   0  0  0  0  0  0  0  0  0  0  0  0
   91.8490  100.2310  -41.5490 H   0  0  0  0  0  0  0  0  0  0  0  0
  2  3  1  0  0  0  0
  2  1  1  0  0  0  0
  3 31  1  0  0  0  0
  4  8  1  0  0  0  0
  4  3  2  0  0  0  0
  5  4  1  0  0  0  0
  6  5  2  0  0  0  0
  6  7  1  0  0  0  0
  7  2  2  0  0  0  0
  8 35  1  1  0  0  0
  9  8  1  0  0  0  0
  9 22  1  0  0  0  0
 10  9  1  0  0  0  0
 11 10  2  0  0  0  0
 12 10  1  0  0  0  0
 12 14  1  0  0  0  0
 13 12  2  0  0  0  0
 14 15  2  0  0  0  0
 14  8  1  0  0  0  0
 15 16  1  0  0  0  0
 17 15  1  0  0  0  0
 18 17  1  0  0  0  0
 19 18  1  0  0  0  0
 20 19  2  0  0  0  0
 20 21  1  0  0  0  0
 21 17  2  0  0  0  0
 22 39  1  0  0  0  0
 22 40  1  0  0  0  0
 23 24  1  0  0  0  0
 23 22  1  0  0  0  0
 23 41  1  0  0  0  0
 24 25  1  0  0  0  0
 24 44  1  0  0  0  0
 25 30  1  0  0  0  0
 25 45  1  0  0  0  0
 26 46  1  0  0  0  0
 26 25  1  0  0  0  0
 27 28  1  0  0  0  0
 27 26  1  0  0  0  0
 28 29  1  0  0  0  0
 29 50  1  0  0  0  0
 29 30  1  0  0  0  0
 30 52  1  0  0  0  0
 30 53  1  0  0  0  0
 32  5  1  0  0  0  0
 33  6  1  0  0  0  0
 34  7  1  0  0  0  0
 36 19  1  0  0  0  0
 37 20  1  0  0  0  0
 38 21  1  0  0  0  0
 42 23  1  0  0  0  0
 43 24  1  0  0  0  0
 47 26  1  0  0  0  0
 48 27  1  0  0  0  0
 49 27  1  0  0  0  0
 51 29  1  0  0  0  0
M  END
>  <Pose>
1

>  <Score>
-4.44

$$$$
