
 OpenBabel03212208273D

 58 61  0  0  1  0  0  0  0  0999 V2000
   92.1900   94.5340  -41.0830 B   0  0  0  0  0  0  0  0  0  0  0  0
   91.9200   94.5930  -42.9880 C   0  0  0  0  0  0  0  0  0  0  0  0
   91.7320   95.7870  -43.6220 C   0  0  0  0  0  0  0  0  0  0  0  0
   91.5300   95.9020  -44.9990 C   0  0  0  0  0  0  0  0  0  0  0  0
   91.5320   94.7110  -45.6920 C   0  0  0  0  0  0  0  0  0  0  0  0
   91.7230   93.4870  -45.0570 C   0  0  0  0  0  0  0  0  0  0  0  0
   91.9160   93.4340  -43.7060 C   0  0  0  0  0  0  0  0  0  0  0  0
   91.3340   97.2240  -45.6450 C   0  0  2  0  0  0  0  0  0  0  0  0
   91.8350   98.3310  -44.8550 N   0  0  0  0  0  0  0  0  0  0  0  0
   90.7770   98.6600  -43.9290 C   0  0  0  0  0  0  0  0  0  0  0  0
   90.9260   99.2620  -42.8380 O   0  0  0  0  0  0  0  0  0  0  0  0
   89.5320   98.1580  -44.5180 C   0  0  0  0  0  0  0  0  0  0  0  0
   88.3650   98.2260  -44.0540 O   0  0  0  0  0  0  0  0  0  0  0  0
   89.8620   97.5320  -45.7930 C   0  0  0  0  0  0  0  0  0  0  0  0
   89.0520   97.2900  -46.8090 C   0  0  0  0  0  0  0  0  0  0  0  0
   89.5460   96.6690  -47.9290 O   0  0  0  0  0  0  0  0  0  0  0  0
   87.6290   97.6750  -46.7670 C   0  0  0  0  0  0  0  0  0  0  0  0
   86.7890   97.3690  -45.8160 O   0  0  0  0  0  0  0  0  0  0  0  0
   85.5970   97.8250  -46.0110 C   0  0  0  0  0  0  0  0  0  0  0  0
   85.6240   98.5050  -47.2040 C   0  0  0  0  0  0  0  0  0  0  0  0
   86.9140   98.4090  -47.6820 C   0  0  0  0  0  0  0  0  0  0  0  0
   84.4590   99.0930  -47.6450 C   0  0  0  0  0  0  0  0  0  0  0  0
   83.2850   99.0130  -46.9230 C   0  0  0  0  0  0  0  0  0  0  0  0
   83.3040   98.3110  -45.7130 C   0  0  0  0  0  0  0  0  0  0  0  0
   84.4460   97.7130  -45.2420 C   0  0  0  0  0  0  0  0  0  0  0  0
   84.4220   97.0350  -44.0500 O   0  0  0  0  0  0  0  0  0  0  0  0
   83.3350   96.8890  -43.1940 C   0  0  0  0  0  0  0  0  0  0  0  0
   93.1210   98.9800  -44.9300 C   0  0  0  0  0  0  0  0  0  0  0  0
   92.9880  100.4830  -44.8830 C   0  0  0  0  0  0  0  0  0  0  0  0
   92.6060  101.1240  -46.1670 C   0  0  0  0  0  0  0  0  0  0  0  0
   93.6880  101.7100  -46.8960 N   0  0  0  0  0  4  0  0  0  0  0  0
   93.7700  103.1500  -46.6320 C   0  0  0  0  0  0  0  0  0  0  0  0
   93.5940  101.4890  -48.3060 C   0  0  0  0  0  0  0  0  0  0  0  0
   91.7320   96.7200  -43.0750 H   0  0  0  0  0  0  0  0  0  0  0  0
   91.3890   94.6730  -46.7390 H   0  0  0  0  0  0  0  0  0  0  0  0
   91.7230   92.5510  -45.6000 H   0  0  0  0  0  0  0  0  0  0  0  0
   92.0690   92.5060  -43.1560 H   0  0  0  0  0  0  0  0  0  0  0  0
   91.8430   97.1620  -46.6270 H   0  0  0  0  0  0  0  0  0  0  0  0
   87.2910   98.8280  -48.5980 H   0  0  0  0  0  0  0  0  0  0  0  0
   84.4890   99.6250  -48.5840 H   0  0  0  0  0  0  0  0  0  0  0  0
   82.3820   99.4800  -47.2860 H   0  0  0  0  0  0  0  0  0  0  0  0
   82.3430   98.2790  -45.1820 H   0  0  0  0  0  0  0  0  0  0  0  0
   82.6580   97.7640  -43.1500 H   0  0  0  0  0  0  0  0  0  0  0  0
   83.6330   96.6060  -42.1560 H   0  0  0  0  0  0  0  0  0  0  0  0
   82.7090   96.0500  -43.5770 H   0  0  0  0  0  0  0  0  0  0  0  0
   93.7530   98.6480  -44.0820 H   0  0  0  0  0  0  0  0  0  0  0  0
   93.5680   98.7170  -45.9130 H   0  0  0  0  0  0  0  0  0  0  0  0
   92.2200  100.7620  -44.0970 H   0  0  0  0  0  0  0  0  0  0  0  0
   93.9380  100.9210  -44.4600 H   0  0  0  0  0  0  0  0  0  0  0  0
   91.8260  101.8890  -45.9260 H   0  0  0  0  0  0  0  0  0  0  0  0
   92.1140  100.3560  -46.8160 H   0  0  0  0  0  0  0  0  0  0  0  0
   94.6310  101.3400  -46.5850 H   0  0  0  0  0  0  0  0  0  0  0  0
   94.7810  103.4930  -46.9140 H   0  0  0  0  0  0  0  0  0  0  0  0
   92.9620  103.7100  -47.1300 H   0  0  0  0  0  0  0  0  0  0  0  0
   93.6220  103.3320  -45.5310 H   0  0  0  0  0  0  0  0  0  0  0  0
   93.6250  100.4000  -48.5080 H   0  0  0  0  0  0  0  0  0  0  0  0
   92.6510  101.8990  -48.7210 H   0  0  0  0  0  0  0  0  0  0  0  0
   94.4480  102.0170  -48.8050 H   0  0  0  0  0  0  0  0  0  0  0  0
  2  1  1  0  0  0  0
  3 34  1  0  0  0  0
  3  2  1  0  0  0  0
  4  3  2  0  0  0  0
  5  6  2  0  0  0  0
  5  4  1  0  0  0  0
  6  7  1  0  0  0  0
  7 37  1  0  0  0  0
  7  2  2  0  0  0  0
  8 38  1  6  0  0  0
  8  4  1  0  0  0  0
  8  9  1  0  0  0  0
  9 10  1  0  0  0  0
 10 11  2  0  0  0  0
 12 13  2  0  0  0  0
 12 10  1  0  0  0  0
 14  8  1  0  0  0  0
 14 12  1  0  0  0  0
 15 17  1  0  0  0  0
 15 14  2  0  0  0  0
 16 15  1  0  0  0  0
 17 18  1  0  0  0  0
 19 18  1  0  0  0  0
 19 25  1  0  0  0  0
 20 19  2  0  0  0  0
 21 20  1  0  0  0  0
 21 17  2  0  0  0  0
 22 20  1  0  0  0  0
 22 23  2  0  0  0  0
 23 24  1  0  0  0  0
 24 25  2  0  0  0  0
 24 42  1  0  0  0  0
 25 26  1  0  0  0  0
 26 27  1  0  0  0  0
 27 43  1  0  0  0  0
 27 44  1  0  0  0  0
 28 29  1  0  0  0  0
 28  9  1  0  0  0  0
 28 46  1  0  0  0  0
 29 49  1  0  0  0  0
 29 48  1  0  0  0  0
 30 50  1  0  0  0  0
 30 29  1  0  0  0  0
 31 32  1  0  0  0  0
 31 52  1  0  0  0  0
 31 30  1  0  0  0  0
 32 55  1  0  0  0  0
 33 31  1  0  0  0  0
 35  5  1  0  0  0  0
 36  6  1  0  0  0  0
 39 21  1  0  0  0  0
 40 22  1  0  0  0  0
 41 23  1  0  0  0  0
 45 27  1  0  0  0  0
 47 28  1  0  0  0  0
 51 30  1  0  0  0  0
 53 32  1  0  0  0  0
 54 32  1  0  0  0  0
 56 33  1  0  0  0  0
 57 33  1  0  0  0  0
 58 33  1  0  0  0  0
M  END
>  <Pose>
1

>  <Score>
-5.21

$$$$
