
 OpenBabel03212208273D

 38 41  0  0  1  0  0  0  0  0999 V2000
   94.5940  101.5210  -40.0710 B   0  0  0  0  0  0  0  0  0  0  0  0
   92.8550  101.5320  -40.8510 C   0  0  0  0  0  0  0  0  0  0  0  0
   92.2240  100.3660  -41.2150 C   0  0  0  0  0  0  0  0  0  0  0  0
   90.9450  100.3390  -41.7910 C   0  0  0  0  0  0  0  0  0  0  0  0
   90.3420  101.5510  -41.9770 C   0  0  0  0  0  0  0  0  0  0  0  0
   90.9910  102.7310  -41.6030 C   0  0  0  0  0  0  0  0  0  0  0  0
   92.2310  102.7280  -41.0470 C   0  0  0  0  0  0  0  0  0  0  0  0
   90.3730   99.0980  -42.1340 N   0  0  0  0  0  0  0  0  0  0  0  0
   89.8200   98.7770  -43.3830 C   0  0  0  0  0  0  0  0  0  0  0  0
   88.6110   98.7720  -43.6600 O   0  0  0  0  0  0  0  0  0  0  0  0
   90.7360   98.3980  -44.5140 C   0  0  2  0  0  0  0  0  0  0  0  0
   90.3960   97.0790  -45.1590 C   0  0  0  0  0  0  0  0  0  0  0  0
   91.3920   96.3840  -44.3300 N   0  0  1  0  0  0  0  0  0  0  0  0
   91.9870   97.6860  -44.0910 C   0  0  0  0  0  0  0  0  0  0  0  0
   91.5990   95.0230  -43.9760 C   0  0  1  0  0  0  0  0  0  0  0  0
   91.9630   94.6490  -42.7220 N   0  0  0  0  0  0  0  0  0  0  0  0
   92.1550   93.3350  -42.4080 C   0  0  0  0  0  0  0  0  0  0  0  0
   91.9910   92.3730  -43.3220 N   0  0  0  0  0  0  0  0  0  0  0  0
   91.6350   92.6680  -44.5730 C   0  0  0  0  0  0  0  0  0  0  0  0
   91.4110   91.8990  -45.6570 N   0  0  0  0  0  0  0  0  0  0  0  0
   91.0850   92.7180  -46.6330 N   0  0  0  0  0  0  0  0  0  0  0  0
   91.0940   93.9860  -46.2030 N   0  0  0  0  0  0  0  0  0  0  0  0
   91.4410   93.9980  -44.8890 C   0  0  0  0  0  0  0  0  0  0  0  0
   91.5020   90.4450  -45.7640 C   0  0  0  0  0  0  0  0  0  0  0  0
   92.7410   99.4280  -41.0490 H   0  0  0  0  0  0  0  0  0  0  0  0
   89.3460  101.6230  -42.4190 H   0  0  0  0  0  0  0  0  0  0  0  0
   90.4590  103.6760  -41.7760 H   0  0  0  0  0  0  0  0  0  0  0  0
   92.7160  103.6610  -40.7640 H   0  0  0  0  0  0  0  0  0  0  0  0
   90.3710   98.3420  -41.3550 H   0  0  0  0  0  0  0  0  0  0  0  0
   90.8480   99.1920  -45.2720 H   0  0  0  0  0  0  0  0  0  0  0  0
   89.3990   96.6610  -44.9070 H   0  0  0  0  0  0  0  0  0  0  0  0
   90.6700   96.9760  -46.2130 H   0  0  0  0  0  0  0  0  0  0  0  0
   92.2500   97.8860  -43.0310 H   0  0  0  0  0  0  0  0  0  0  0  0
   92.8520   97.8280  -44.7550 H   0  0  0  0  0  0  0  0  0  0  0  0
   92.4430   93.1130  -41.3920 H   0  0  0  0  0  0  0  0  0  0  0  0
   90.8140   90.0520  -46.5300 H   0  0  0  0  0  0  0  0  0  0  0  0
   91.1820   89.9590  -44.7970 H   0  0  0  0  0  0  0  0  0  0  0  0
   92.5220   90.1030  -45.9510 H   0  0  0  0  0  0  0  0  0  0  0  0
  2  1  1  0  0  0  0
  3 25  1  0  0  0  0
  3  2  2  0  0  0  0
  4  3  1  0  0  0  0
  5  4  2  0  0  0  0
  5  6  1  0  0  0  0
  6  7  2  0  0  0  0
  7  2  1  0  0  0  0
  7 28  1  0  0  0  0
  8  4  1  0  0  0  0
  8 29  1  0  0  0  0
  9  8  1  0  0  0  0
 10  9  2  0  0  0  0
 11 30  1  6  0  0  0
 11 14  1  0  0  0  0
 11  9  1  0  0  0  0
 12 31  1  0  0  0  0
 12 11  1  0  0  0  0
 13 12  1  1  0  0  0
 13 14  1  0  0  0  0
 13 15  1  0  0  0  0
 14 33  1  0  0  0  0
 15 23  1  1  0  0  0
 15 16  1  0  0  0  0
 16 17  2  0  0  0  0
 17 35  1  0  0  0  0
 18 17  1  0  0  0  0
 19 18  1  0  0  0  0
 20 19  1  0  0  0  0
 21 22  2  0  0  0  0
 21 20  1  0  0  0  0
 22 23  1  0  0  0  0
 23 19  2  0  0  0  0
 24 20  1  0  0  0  0
 24 37  1  0  0  0  0
 26  5  1  0  0  0  0
 27  6  1  0  0  0  0
 32 12  1  0  0  0  0
 34 14  1  0  0  0  0
 36 24  1  0  0  0  0
 38 24  1  0  0  0  0
M  END
>  <Pose>
1

>  <Score>
-5.17

$$$$
