
 OpenBabel03212208273D

 25 28  0  0  1  0  0  0  0  0999 V2000
   94.2040  102.0250  -39.6650 B   0  0  0  0  0  0  0  0  0  0  0  0
   93.3930  101.1410  -41.1470 C   0  0  0  0  0  0  0  0  0  0  0  0
   92.6380   99.9900  -40.9840 C   0  0  0  0  0  0  0  0  0  0  0  0
   92.0270   99.3030  -41.9970 C   0  0  0  0  0  0  0  0  0  0  0  0
   92.2220   99.8650  -43.2770 C   0  0  0  0  0  0  0  0  0  0  0  0
   92.9640  101.0040  -43.4750 C   0  0  0  0  0  0  0  0  0  0  0  0
   93.5530  101.6480  -42.4100 C   0  0  0  0  0  0  0  0  0  0  0  0
   91.2510   98.1310  -41.8760 N   0  0  0  0  0  0  0  0  0  0  0  0
   91.4070   96.9760  -42.6760 C   0  0  1  0  0  0  0  0  0  0  0  0
   91.2550   96.8840  -43.9930 N   0  0  0  0  0  0  0  0  0  0  0  0
   91.4150   95.7620  -44.7160 C   0  0  0  0  0  0  0  0  0  0  0  0
   91.3210   95.4180  -46.0120 N   0  0  0  0  0  0  0  0  0  0  0  0
   91.5840   94.1610  -46.1860 O   0  0  0  0  0  0  0  0  0  0  0  0
   91.8510   93.6590  -45.0320 N   0  0  0  0  0  0  0  0  0  0  0  0
   91.7670   94.5880  -44.0660 C   0  0  0  0  0  0  0  0  0  0  0  0
   91.9330   94.6300  -42.7360 N   0  0  0  0  0  0  0  0  0  0  0  0
   92.2670   93.6500  -41.9000 N   0  0  0  0  0  0  0  0  0  0  0  0
   92.3100   94.1790  -40.6680 N   0  0  0  0  0  0  0  0  0  0  0  0
   92.0020   95.4740  -40.7640 N   0  0  0  0  0  0  0  0  0  0  0  0
   91.7660   95.7690  -42.0450 C   0  0  0  0  0  0  0  0  0  0  0  0
   92.5490   99.6460  -39.9780 H   0  0  0  0  0  0  0  0  0  0  0  0
   91.7770   99.3870  -44.1280 H   0  0  0  0  0  0  0  0  0  0  0  0
   93.1060  101.4230  -44.4680 H   0  0  0  0  0  0  0  0  0  0  0  0
   94.1360  102.5410  -42.5600 H   0  0  0  0  0  0  0  0  0  0  0  0
   90.5060   98.1490  -41.1220 H   0  0  0  0  0  0  0  0  0  0  0  0
  2  3  1  0  0  0  0
  2  1  1  0  0  0  0
  3 21  1  0  0  0  0
  4  8  1  0  0  0  0
  4  3  2  0  0  0  0
  5  4  1  0  0  0  0
  6  5  2  0  0  0  0
  6  7  1  0  0  0  0
  7  2  2  0  0  0  0
  8 25  1  0  0  0  0
  9 20  1  0  0  0  0
  9  8  1  6  0  0  0
 10  9  1  0  0  0  0
 11 15  1  0  0  0  0
 11 10  2  0  0  0  0
 12 11  1  0  0  0  0
 13 12  1  0  0  0  0
 13 14  1  0  0  0  0
 14 15  2  0  0  0  0
 15 16  1  0  0  0  0
 16 20  1  0  0  0  0
 16 17  1  0  0  0  0
 17 18  2  0  0  0  0
 19 18  1  0  0  0  0
 20 19  2  0  0  0  0
 22  5  1  0  0  0  0
 23  6  1  0  0  0  0
 24  7  1  0  0  0  0
M  END
>  <Pose>
1

>  <Score>
-6.03

$$$$
