
 OpenBabel03212208273D

 37 40  0  0  1  0  0  0  0  0999 V2000
   93.9420  102.8280  -42.9690 B   0  0  0  0  0  0  0  0  0  0  0  0
   92.4430  101.6800  -42.6990 C   0  0  0  0  0  0  0  0  0  0  0  0
   92.5640  100.3180  -42.5830 C   0  0  0  0  0  0  0  0  0  0  0  0
   91.4870   99.4580  -42.3830 C   0  0  0  0  0  0  0  0  0  0  0  0
   90.2450  100.0680  -42.3040 C   0  0  0  0  0  0  0  0  0  0  0  0
   90.1120  101.4310  -42.4200 C   0  0  0  0  0  0  0  0  0  0  0  0
   91.2010  102.2750  -42.6180 C   0  0  0  0  0  0  0  0  0  0  0  0
   91.6570   98.0600  -42.2700 N   0  0  0  0  0  0  0  0  0  0  0  0
   92.3140   97.2990  -41.2360 C   0  0  0  0  0  0  0  0  0  0  0  0
   93.1800   97.7830  -40.4540 O   0  0  0  0  0  0  0  0  0  0  0  0
   91.8150   95.9260  -41.2590 C   0  0  2  0  0  0  0  0  0  0  0  0
   92.6930   94.9160  -40.9780 O   0  0  0  0  0  0  0  0  0  0  0  0
   92.2370   93.8920  -41.8050 N   0  0  0  0  0  0  0  0  0  0  0  0
   91.8480   94.4610  -43.0320 C   0  0  0  0  0  0  0  0  0  0  0  0
   91.5800   95.7410  -42.7400 C   0  0  0  0  0  0  0  0  0  0  0  0
   91.1990   97.0690  -43.2070 C   0  0  0  0  0  0  0  0  0  0  0  0
   90.5740   97.3100  -44.2610 O   0  0  0  0  0  0  0  0  0  0  0  0
   91.7010   93.8300  -44.3350 C   0  0  0  0  0  0  0  0  0  0  0  0
   91.8030   92.4550  -44.5670 C   0  0  0  0  0  0  0  0  0  0  0  0
   91.5900   92.2330  -45.8490 N   0  0  0  0  0  0  0  0  0  0  0  0
   91.3570   93.4000  -46.4450 N   0  0  0  0  0  0  0  0  0  0  0  0
   91.4200   94.3760  -45.5560 C   0  0  0  0  0  0  0  0  0  0  0  0
   91.6060   90.9390  -46.5290 C   0  0  0  0  0  0  0  0  0  0  0  0
   92.1250   91.4200  -43.5570 C   0  0  0  0  0  0  0  0  0  0  0  0
   93.5350   99.8400  -42.6490 H   0  0  0  0  0  0  0  0  0  0  0  0
   89.3750   99.4370  -42.1490 H   0  0  0  0  0  0  0  0  0  0  0  0
   89.1420  101.9420  -42.3630 H   0  0  0  0  0  0  0  0  0  0  0  0
   91.0840  103.3420  -42.7100 H   0  0  0  0  0  0  0  0  0  0  0  0
   90.8550   95.8250  -40.7050 H   0  0  0  0  0  0  0  0  0  0  0  0
   92.1930   92.8950  -41.5610 H   0  0  0  0  0  0  0  0  0  0  0  0
   91.2760   95.4230  -45.7470 H   0  0  0  0  0  0  0  0  0  0  0  0
   90.6510   90.8030  -47.0980 H   0  0  0  0  0  0  0  0  0  0  0  0
   92.4750   90.8170  -47.1980 H   0  0  0  0  0  0  0  0  0  0  0  0
   91.6480   90.1350  -45.7530 H   0  0  0  0  0  0  0  0  0  0  0  0
   92.4710   91.8830  -42.6010 H   0  0  0  0  0  0  0  0  0  0  0  0
   91.2330   90.7810  -43.4390 H   0  0  0  0  0  0  0  0  0  0  0  0
   92.9440   90.8140  -43.9850 H   0  0  0  0  0  0  0  0  0  0  0  0
  1  2  1  0  0  0  0
  2  7  2  0  0  0  0
  2  3  1  0  0  0  0
  3  4  2  0  0  0  0
  4  5  1  0  0  0  0
  4  8  1  0  0  0  0
  5 26  1  0  0  0  0
  6 27  1  0  0  0  0
  6  5  2  0  0  0  0
  7  6  1  0  0  0  0
  8  9  1  0  0  0  0
  9 10  2  0  0  0  0
 11  9  1  0  0  0  0
 11 12  1  0  0  0  0
 11 29  1  1  0  0  0
 13 30  1  0  0  0  0
 13 12  1  0  0  0  0
 14 15  2  0  0  0  0
 14 13  1  0  0  0  0
 15 11  1  0  0  0  0
 16 15  1  0  0  0  0
 16  8  1  0  0  0  0
 17 16  2  0  0  0  0
 18 14  1  0  0  0  0
 19 18  2  0  0  0  0
 19 24  1  0  0  0  0
 20 19  1  0  0  0  0
 21 20  1  0  0  0  0
 21 22  2  0  0  0  0
 22 18  1  0  0  0  0
 23 20  1  0  0  0  0
 23 34  1  0  0  0  0
 24 36  1  0  0  0  0
 24 35  1  0  0  0  0
 25  3  1  0  0  0  0
 28  7  1  0  0  0  0
 31 22  1  0  0  0  0
 32 23  1  0  0  0  0
 33 23  1  0  0  0  0
 37 24  1  0  0  0  0
M  END
>  <Pose>
1

>  <Score>
-5.63

$$$$
