
 OpenBabel03212208273D

 33 36  0  0  1  0  0  0  0  0999 V2000
   92.6610   93.1760  -42.1130 B   0  0  0  0  0  0  0  0  0  0  0  0
   91.9740   93.7990  -43.7820 C   0  0  0  0  0  0  0  0  0  0  0  0
   91.7830   95.1280  -43.9820 C   0  0  0  0  0  0  0  0  0  0  0  0
   91.2920   95.6870  -45.1520 C   0  0  0  0  0  0  0  0  0  0  0  0
   90.9840   94.8060  -46.1630 C   0  0  0  0  0  0  0  0  0  0  0  0
   91.1680   93.4310  -45.9900 C   0  0  0  0  0  0  0  0  0  0  0  0
   91.6610   92.9250  -44.8060 C   0  0  0  0  0  0  0  0  0  0  0  0
   91.1100   97.1140  -45.3020 N   0  0  0  0  0  0  0  0  0  0  0  0
   89.9010   97.7850  -45.6290 C   0  0  0  0  0  0  0  0  0  0  0  0
   88.9270   97.2600  -46.2860 O   0  0  0  0  0  0  0  0  0  0  0  0
   89.9540   99.1530  -45.0950 C   0  0  1  0  0  0  0  0  0  0  0  0
   89.3220   99.1540  -43.7370 C   0  0  1  0  0  0  0  0  0  0  0  0
   90.3090   98.4380  -43.0140 O   0  0  0  0  0  0  0  0  0  0  0  0
   91.3660   99.3590  -43.2400 C   0  0  1  0  0  0  0  0  0  0  0  0
   91.4050   99.3560  -44.7570 C   0  0  1  0  0  0  0  0  0  0  0  0
   92.1010   98.1160  -45.1560 C   0  0  0  0  0  0  0  0  0  0  0  0
   93.3420   97.9920  -45.3280 O   0  0  0  0  0  0  0  0  0  0  0  0
   90.7340  100.5990  -42.7340 C   0  0  0  0  0  0  0  0  0  0  0  0
   89.4280  100.4600  -43.0320 C   0  0  0  0  0  0  0  0  0  0  0  0
   87.9770   98.5380  -43.6610 C   0  0  0  0  0  0  0  0  0  0  0  0
   87.2390   99.1930  -42.6740 O   0  0  0  0  0  0  0  0  0  0  0  0
   92.0320   95.8200  -43.1690 H   0  0  0  0  0  0  0  0  0  0  0  0
   90.5980   95.1580  -47.1010 H   0  0  0  0  0  0  0  0  0  0  0  0
   90.9370   92.7150  -46.7640 H   0  0  0  0  0  0  0  0  0  0  0  0
   91.8210   91.8810  -44.6200 H   0  0  0  0  0  0  0  0  0  0  0  0
   89.5470   99.9220  -45.7760 H   0  0  0  0  0  0  0  0  0  0  0  0
   92.2860   99.0740  -42.7630 H   0  0  0  0  0  0  0  0  0  0  0  0
   91.8430  100.2680  -45.1840 H   0  0  0  0  0  0  0  0  0  0  0  0
   91.1840  101.4460  -42.2330 H   0  0  0  0  0  0  0  0  0  0  0  0
   88.6460  101.1760  -42.7890 H   0  0  0  0  0  0  0  0  0  0  0  0
   87.3950   98.6490  -44.5990 H   0  0  0  0  0  0  0  0  0  0  0  0
   88.0180   97.4740  -43.4150 H   0  0  0  0  0  0  0  0  0  0  0  0
   86.8960   98.5420  -42.0120 H   0  0  0  0  0  0  0  0  0  0  0  0
  2  1  1  0  0  0  0
  3  2  1  0  0  0  0
  3 22  1  0  0  0  0
  4  3  2  0  0  0  0
  5  6  2  0  0  0  0
  5  4  1  0  0  0  0
  6  7  1  0  0  0  0
  7 25  1  0  0  0  0
  7  2  2  0  0  0  0
  8 16  1  0  0  0  0
  8  4  1  0  0  0  0
  9  8  1  0  0  0  0
  9 11  1  0  0  0  0
 10  9  2  0  0  0  0
 11 26  1  6  0  0  0
 11 15  1  0  0  0  0
 11 12  1  0  0  0  0
 12 20  1  1  0  0  0
 12 19  1  0  0  0  0
 12 13  1  0  0  0  0
 14 13  1  0  0  0  0
 14 27  1  1  0  0  0
 14 18  1  0  0  0  0
 15 28  1  6  0  0  0
 15 14  1  0  0  0  0
 16 15  1  0  0  0  0
 17 16  2  0  0  0  0
 18 29  1  0  0  0  0
 19 30  1  0  0  0  0
 19 18  2  0  0  0  0
 20 32  1  0  0  0  0
 20 21  1  0  0  0  0
 21 33  1  0  0  0  0
 23  5  1  0  0  0  0
 24  6  1  0  0  0  0
 31 20  1  0  0  0  0
M  END
>  <Pose>
1

>  <Score>
-4.15

$$$$
