
 OpenBabel03212208273D

 37 40  0  0  1  0  0  0  0  0999 V2000
   83.7360   99.5000  -43.6650 B   0  0  0  0  0  0  0  0  0  0  0  0
   85.3650  100.4830  -43.6260 C   0  0  0  0  0  0  0  0  0  0  0  0
   86.5780   99.8340  -43.3730 C   0  0  0  0  0  0  0  0  0  0  0  0
   87.7670  100.5260  -43.3420 C   0  0  0  0  0  0  0  0  0  0  0  0
   87.7210  101.8800  -43.5680 C   0  0  0  0  0  0  0  0  0  0  0  0
   86.5070  102.5340  -43.8220 C   0  0  0  0  0  0  0  0  0  0  0  0
   85.3170  101.8390  -43.8520 C   0  0  0  0  0  0  0  0  0  0  0  0
   88.9800   99.8450  -43.0900 N   0  0  0  0  0  0  0  0  0  0  0  0
   89.9770  100.2190  -42.1140 C   0  0  0  0  0  0  0  0  0  0  0  0
   89.8250  100.8880  -41.0860 O   0  0  0  0  0  0  0  0  0  0  0  0
   91.2790   99.6440  -42.5610 C   0  0  1  0  0  0  0  0  0  0  0  0
   92.0950   99.2130  -41.5300 O   0  0  0  0  0  0  0  0  0  0  0  0
   92.7690   98.1750  -42.1280 N   0  0  0  0  0  0  0  0  0  0  0  0
   91.7490   97.4490  -42.8380 C   0  0  0  0  0  0  0  0  0  0  0  0
   90.8100   98.3180  -43.1230 C   0  0  0  0  0  0  0  0  0  0  0  0
   89.5100   98.6560  -43.7160 C   0  0  0  0  0  0  0  0  0  0  0  0
   88.9940   97.9840  -44.6160 O   0  0  0  0  0  0  0  0  0  0  0  0
   91.7150   96.0520  -43.1790 C   0  0  0  0  0  0  0  0  0  0  0  0
   91.6140   95.6060  -44.4950 C   0  0  0  0  0  0  0  0  0  0  0  0
   91.6190   94.2610  -44.5150 N   0  0  0  0  0  0  0  0  0  0  0  0
   91.7190   93.8840  -43.2520 N   0  0  0  0  0  0  0  0  0  0  0  0
   91.7810   94.9130  -42.4100 C   0  0  0  0  0  0  0  0  0  0  0  0
   91.9060   94.8830  -40.9140 C   0  0  0  0  0  0  0  0  0  0  0  0
   91.5290   93.4000  -45.7050 C   0  0  0  0  0  0  0  0  0  0  0  0
   86.5620   98.7840  -43.2020 H   0  0  0  0  0  0  0  0  0  0  0  0
   88.6290  102.4420  -43.5490 H   0  0  0  0  0  0  0  0  0  0  0  0
   86.5030  103.6090  -43.9970 H   0  0  0  0  0  0  0  0  0  0  0  0
   84.3820  102.3640  -44.0530 H   0  0  0  0  0  0  0  0  0  0  0  0
   91.7710  100.2630  -43.3200 H   0  0  0  0  0  0  0  0  0  0  0  0
   93.7680   97.9440  -42.0930 H   0  0  0  0  0  0  0  0  0  0  0  0
   91.5420   96.2330  -45.3810 H   0  0  0  0  0  0  0  0  0  0  0  0
   90.9650   94.6120  -40.4320 H   0  0  0  0  0  0  0  0  0  0  0  0
   92.3630   95.8060  -40.5630 H   0  0  0  0  0  0  0  0  0  0  0  0
   92.6260   94.0500  -40.7040 H   0  0  0  0  0  0  0  0  0  0  0  0
   92.6030   93.2470  -46.0110 H   0  0  0  0  0  0  0  0  0  0  0  0
   90.9620   93.8960  -46.4990 H   0  0  0  0  0  0  0  0  0  0  0  0
   91.1560   92.4310  -45.3870 H   0  0  0  0  0  0  0  0  0  0  0  0
  1  2  1  0  0  0  0
  2  3  1  0  0  0  0
  3  4  2  0  0  0  0
  3 25  1  0  0  0  0
  4  8  1  0  0  0  0
  5 26  1  0  0  0  0
  5  4  1  0  0  0  0
  6  5  2  0  0  0  0
  7  6  1  0  0  0  0
  7  2  2  0  0  0  0
  8  9  1  0  0  0  0
  9 10  2  0  0  0  0
 11 29  1  6  0  0  0
 11  9  1  0  0  0  0
 11 12  1  0  0  0  0
 13 30  1  0  0  0  0
 13 12  1  0  0  0  0
 14 13  1  0  0  0  0
 15 14  2  0  0  0  0
 15 11  1  0  0  0  0
 16 15  1  0  0  0  0
 16  8  1  0  0  0  0
 17 16  2  0  0  0  0
 18 14  1  0  0  0  0
 18 22  1  0  0  0  0
 19 18  2  0  0  0  0
 20 19  1  0  0  0  0
 20 21  1  0  0  0  0
 21 22  2  0  0  0  0
 22 23  1  0  0  0  0
 23 34  1  0  0  0  0
 23 33  1  0  0  0  0
 23 32  1  0  0  0  0
 24 37  1  0  0  0  0
 24 20  1  0  0  0  0
 27  6  1  0  0  0  0
 28  7  1  0  0  0  0
 31 19  1  0  0  0  0
 35 24  1  0  0  0  0
 36 24  1  0  0  0  0
M  END
>  <Pose>
1

>  <Score>
-4.97

$$$$
