
 OpenBabel03212208273D

 52 55  0  0  1  0  0  0  0  0999 V2000
   95.1390  102.4820  -35.3910 B   0  0  0  0  0  0  0  0  0  0  0  0
   94.9790  103.0630  -37.1810 C   0  0  0  0  0  0  0  0  0  0  0  0
   94.0740  102.4270  -38.0230 C   0  0  0  0  0  0  0  0  0  0  0  0
   93.9010  102.7950  -39.3440 C   0  0  0  0  0  0  0  0  0  0  0  0
   94.6830  103.8400  -39.7830 C   0  0  0  0  0  0  0  0  0  0  0  0
   95.5990  104.5160  -39.0030 C   0  0  0  0  0  0  0  0  0  0  0  0
   95.7390  104.1140  -37.6930 C   0  0  0  0  0  0  0  0  0  0  0  0
   92.9580  102.1130  -40.1470 N   0  0  0  0  0  0  0  0  0  0  0  0
   93.2960  101.2290  -41.2520 C   0  0  0  0  0  0  0  0  0  0  0  0
   92.3560  100.0710  -40.8560 C   0  0  1  0  0  0  0  0  0  0  0  0
   91.0520  100.8760  -40.8680 C   0  0  0  0  0  0  0  0  0  0  0  0
   91.5360  102.0730  -40.1240 C   0  0  0  0  0  0  0  0  0  0  0  0
   90.8020  102.9180  -39.5630 O   0  0  0  0  0  0  0  0  0  0  0  0
   92.3870   98.9830  -41.8120 C   0  0  0  0  0  0  0  0  0  0  0  0
   92.7150   97.8410  -41.4030 O   0  0  0  0  0  0  0  0  0  0  0  0
   92.0530   99.2220  -43.1620 N   0  0  0  0  0  0  0  0  0  0  0  0
   90.6820   99.3540  -43.6350 C   0  0  0  0  0  0  0  0  0  0  0  0
   90.6220   98.9170  -45.0930 C   0  0  0  0  0  0  0  0  0  0  0  0
   91.6480   97.9510  -45.4320 N   0  0  0  0  0  0  0  0  0  0  0  0
   92.9190   98.5840  -45.3870 C   0  0  0  0  0  0  0  0  0  0  0  0
   93.1570   99.3380  -44.1230 C   0  0  0  0  0  0  0  0  0  0  0  0
   91.5030   96.7310  -44.7220 C   0  0  0  0  0  0  0  0  0  0  0  0
   91.0950   95.5620  -45.5830 C   0  0  0  0  0  0  0  0  0  0  0  0
   91.4270   94.2820  -45.0270 N   0  0  0  0  0  0  0  0  0  0  0  0
   91.3980   93.0860  -45.6190 C   0  0  0  0  0  0  0  0  0  0  0  0
   91.7800   92.1370  -44.7380 N   0  0  0  0  0  0  0  0  0  0  0  0
   92.0550   92.7360  -43.5730 C   0  0  0  0  0  0  0  0  0  0  0  0
   91.8310   94.0790  -43.7650 C   0  0  0  0  0  0  0  0  0  0  0  0
   93.4770  101.6130  -37.6480 H   0  0  0  0  0  0  0  0  0  0  0  0
   94.5780  104.1560  -40.8090 H   0  0  0  0  0  0  0  0  0  0  0  0
   96.2070  105.3350  -39.3620 H   0  0  0  0  0  0  0  0  0  0  0  0
   96.4460  104.6120  -37.0330 H   0  0  0  0  0  0  0  0  0  0  0  0
   94.3490  100.8950  -41.2240 H   0  0  0  0  0  0  0  0  0  0  0  0
   92.9830  101.6820  -42.1990 H   0  0  0  0  0  0  0  0  0  0  0  0
   92.6230   99.8350  -39.8240 H   0  0  0  0  0  0  0  0  0  0  0  0
   90.7600  101.1020  -41.9090 H   0  0  0  0  0  0  0  0  0  0  0  0
   90.2560  100.3430  -40.3210 H   0  0  0  0  0  0  0  0  0  0  0  0
   90.4080  100.4220  -43.5270 H   0  0  0  0  0  0  0  0  0  0  0  0
   89.9520   98.7600  -43.0900 H   0  0  0  0  0  0  0  0  0  0  0  0
   90.7590   99.8030  -45.7120 H   0  0  0  0  0  0  0  0  0  0  0  0
   89.6310   98.4840  -45.3530 H   0  0  0  0  0  0  0  0  0  0  0  0
   93.7300   97.8340  -45.5540 H   0  0  0  0  0  0  0  0  0  0  0  0
   92.9540   99.2920  -46.2630 H   0  0  0  0  0  0  0  0  0  0  0  0
   94.1080   98.9940  -43.6630 H   0  0  0  0  0  0  0  0  0  0  0  0
   93.2740  100.4340  -44.3740 H   0  0  0  0  0  0  0  0  0  0  0  0
   92.4470   96.4140  -44.2130 H   0  0  0  0  0  0  0  0  0  0  0  0
   90.7360   96.8390  -43.8980 H   0  0  0  0  0  0  0  0  0  0  0  0
   90.0050   95.6420  -45.8330 H   0  0  0  0  0  0  0  0  0  0  0  0
   91.6120   95.7130  -46.5750 H   0  0  0  0  0  0  0  0  0  0  0  0
   91.1250   92.8660  -46.6330 H   0  0  0  0  0  0  0  0  0  0  0  0
   92.3910   92.2260  -42.6620 H   0  0  0  0  0  0  0  0  0  0  0  0
   91.9770   94.8130  -42.9700 H   0  0  0  0  0  0  0  0  0  0  0  0
  2  1  1  0  0  0  0
  3 29  1  0  0  0  0
  3  2  2  0  0  0  0
  4  3  1  0  0  0  0
  5  4  2  0  0  0  0
  5  6  1  0  0  0  0
  6  7  2  0  0  0  0
  7  2  1  0  0  0  0
  7 32  1  0  0  0  0
  8 12  1  0  0  0  0
  8  4  1  0  0  0  0
  9 33  1  0  0  0  0
  9 10  1  0  0  0  0
  9  8  1  0  0  0  0
 10 35  1  1  0  0  0
 11 10  1  0  0  0  0
 11 37  1  0  0  0  0
 11 12  1  0  0  0  0
 12 13  2  0  0  0  0
 14 15  2  0  0  0  0
 14 10  1  0  0  0  0
 16 14  1  0  0  0  0
 17 38  1  0  0  0  0
 17 16  1  0  0  0  0
 17 39  1  0  0  0  0
 18 17  1  0  0  0  0
 19 20  1  0  0  0  0
 19 18  1  0  0  0  0
 19 22  1  0  0  0  0
 20 21  1  0  0  0  0
 21 44  1  0  0  0  0
 21 16  1  0  0  0  0
 22 46  1  0  0  0  0
 22 47  1  0  0  0  0
 23 24  1  0  0  0  0
 23 22  1  0  0  0  0
 24 28  1  0  0  0  0
 25 24  1  0  0  0  0
 25 26  2  0  0  0  0
 26 27  1  0  0  0  0
 27 51  1  0  0  0  0
 28 27  2  0  0  0  0
 28 52  1  0  0  0  0
 30  5  1  0  0  0  0
 31  6  1  0  0  0  0
 34  9  1  0  0  0  0
 36 11  1  0  0  0  0
 40 18  1  0  0  0  0
 41 18  1  0  0  0  0
 42 20  1  0  0  0  0
 43 20  1  0  0  0  0
 45 21  1  0  0  0  0
 48 23  1  0  0  0  0
 49 23  1  0  0  0  0
 50 25  1  0  0  0  0
M  END
>  <Pose>
1

>  <Score>
-5.27

$$$$
