
 OpenBabel03212208273D

 50 53  0  0  0  0  0  0  0  0999 V2000
   93.7150  104.5780  -39.1090 B   0  0  0  0  0  0  0  0  0  0  0  0
   93.3260  103.0510  -40.1750 C   0  0  0  0  0  0  0  0  0  0  0  0
   93.9050  102.9080  -41.4270 C   0  0  0  0  0  0  0  0  0  0  0  0
   93.6410  101.8080  -42.2260 C   0  0  0  0  0  0  0  0  0  0  0  0
   92.7920  100.8090  -41.8160 C   0  0  0  0  0  0  0  0  0  0  0  0
   92.2210  100.9640  -40.5650 C   0  0  0  0  0  0  0  0  0  0  0  0
   92.4750  102.0510  -39.7600 C   0  0  0  0  0  0  0  0  0  0  0  0
   92.5130   99.6460  -42.6550 C   0  0  0  0  0  0  0  0  0  0  0  0
   93.3350   99.3380  -43.5330 O   0  0  0  0  0  0  0  0  0  0  0  0
   91.2650   98.8440  -42.4610 C   0  0  0  0  0  0  0  0  0  0  0  0
   91.3430   97.5310  -43.0360 N   0  0  0  0  0  0  0  0  0  0  0  0
   91.7480   96.4010  -42.4330 C   0  0  0  0  0  0  0  0  0  0  0  0
   91.6870   95.3480  -43.3260 C   0  0  0  0  0  0  0  0  0  0  0  0
   91.2390   95.8870  -44.4670 N   0  0  0  0  0  0  0  0  0  0  0  0
   91.0220   97.2070  -44.3200 C   0  0  0  0  0  0  0  0  0  0  0  0
   90.5570   98.1420  -45.2760 N   0  0  0  0  0  0  0  0  0  0  0  0
   91.4930   99.0270  -45.8920 C   0  0  0  0  0  0  0  0  0  0  0  0
   91.0510   99.7340  -47.1180 C   0  0  0  0  0  0  0  0  0  0  0  0
   89.6360   99.9120  -47.2600 N   0  0  0  0  0  0  0  0  0  0  0  0
   89.0010   98.6220  -47.0730 C   0  0  0  0  0  0  0  0  0  0  0  0
   89.1690   98.1900  -45.6160 C   0  0  0  0  0  0  0  0  0  0  0  0
   89.0940  100.9300  -46.4050 C   0  0  0  0  0  0  0  0  0  0  0  0
   92.0510   94.1120  -42.9400 N   0  0  0  0  0  0  0  0  0  0  0  0
   92.4750   93.8830  -41.6850 C   0  0  0  0  0  0  0  0  0  0  0  0
   92.8240   92.7450  -41.2830 O   0  0  0  0  0  0  0  0  0  0  0  0
   92.5410   94.9110  -40.7950 N   0  0  0  0  0  0  0  0  0  0  0  0
   92.1890   96.1640  -41.1330 C   0  0  0  0  0  0  0  0  0  0  0  0
   92.2620   97.0990  -40.2710 O   0  0  0  0  0  0  0  0  0  0  0  0
   91.9970   92.9880  -43.8520 C   0  0  0  0  0  0  0  0  0  0  0  0
   94.5790  103.6970  -41.7560 H   0  0  0  0  0  0  0  0  0  0  0  0
   94.1150  101.7230  -43.2140 H   0  0  0  0  0  0  0  0  0  0  0  0
   91.5460  100.1820  -40.2210 H   0  0  0  0  0  0  0  0  0  0  0  0
   92.0170  102.1470  -38.7920 H   0  0  0  0  0  0  0  0  0  0  0  0
   90.9940   98.8290  -41.3830 H   0  0  0  0  0  0  0  0  0  0  0  0
   90.4520   99.4080  -42.9560 H   0  0  0  0  0  0  0  0  0  0  0  0
   91.7560   99.7850  -45.1060 H   0  0  0  0  0  0  0  0  0  0  0  0
   92.4390   98.4810  -46.1280 H   0  0  0  0  0  0  0  0  0  0  0  0
   91.4450   99.2510  -48.0460 H   0  0  0  0  0  0  0  0  0  0  0  0
   91.4750  100.7840  -47.0760 H   0  0  0  0  0  0  0  0  0  0  0  0
   89.5950   97.8900  -47.6720 H   0  0  0  0  0  0  0  0  0  0  0  0
   87.9560   98.5690  -47.3590 H   0  0  0  0  0  0  0  0  0  0  0  0
   88.5820   98.8650  -44.9440 H   0  0  0  0  0  0  0  0  0  0  0  0
   88.6620   97.2040  -45.5540 H   0  0  0  0  0  0  0  0  0  0  0  0
   89.7240  100.9960  -45.4720 H   0  0  0  0  0  0  0  0  0  0  0  0
   88.0400  100.7450  -46.1230 H   0  0  0  0  0  0  0  0  0  0  0  0
   89.1500  101.9400  -46.8560 H   0  0  0  0  0  0  0  0  0  0  0  0
   92.8780   94.6900  -39.8290 H   0  0  0  0  0  0  0  0  0  0  0  0
   90.9300   92.6870  -43.9140 H   0  0  0  0  0  0  0  0  0  0  0  0
   92.3010   93.3270  -44.8620 H   0  0  0  0  0  0  0  0  0  0  0  0
   92.6200   92.1480  -43.4880 H   0  0  0  0  0  0  0  0  0  0  0  0
  2  7  1  0  0  0  0
  2  1  1  0  0  0  0
  3  2  2  0  0  0  0
  4  5  2  0  0  0  0
  4  3  1  0  0  0  0
  5  6  1  0  0  0  0
  6 32  1  0  0  0  0
  6  7  2  0  0  0  0
  7 33  1  0  0  0  0
  8 10  1  0  0  0  0
  8  5  1  0  0  0  0
  9  8  2  0  0  0  0
 10 34  1  0  0  0  0
 11 10  1  0  0  0  0
 11 12  1  0  0  0  0
 12 27  1  0  0  0  0
 13 23  1  0  0  0  0
 13 12  2  0  0  0  0
 14 15  2  0  0  0  0
 14 13  1  0  0  0  0
 15 11  1  0  0  0  0
 16 15  1  0  0  0  0
 17 16  1  0  0  0  0
 17 36  1  0  0  0  0
 18 39  1  0  0  0  0
 18 17  1  0  0  0  0
 19 18  1  0  0  0  0
 19 20  1  0  0  0  0
 19 22  1  0  0  0  0
 20 21  1  0  0  0  0
 21 43  1  0  0  0  0
 21 16  1  0  0  0  0
 21 42  1  0  0  0  0
 22 45  1  0  0  0  0
 22 44  1  0  0  0  0
 23 24  1  0  0  0  0
 24 25  2  0  0  0  0
 24 26  1  0  0  0  0
 26 47  1  0  0  0  0
 27 26  1  0  0  0  0
 27 28  2  0  0  0  0
 29 50  1  0  0  0  0
 29 23  1  0  0  0  0
 30  3  1  0  0  0  0
 31  4  1  0  0  0  0
 35 10  1  0  0  0  0
 37 17  1  0  0  0  0
 38 18  1  0  0  0  0
 40 20  1  0  0  0  0
 41 20  1  0  0  0  0
 46 22  1  0  0  0  0
 48 29  1  0  0  0  0
 49 29  1  0  0  0  0
M  END
>  <Pose>
1

>  <Score>
-5.95

$$$$
