
 OpenBabel03212208273D

 58 61  0  0  1  0  0  0  0  0999 V2000
   96.0530  105.0140  -41.1010 B   0  0  0  0  0  0  0  0  0  0  0  0
   95.0010  103.7030  -41.9830 C   0  0  0  0  0  0  0  0  0  0  0  0
   94.7460  102.5160  -41.3410 C   0  0  0  0  0  0  0  0  0  0  0  0
   93.9880  101.5600  -41.9670 C   0  0  0  0  0  0  0  0  0  0  0  0
   93.4600  101.7580  -43.2480 C   0  0  0  0  0  0  0  0  0  0  0  0
   93.7530  102.9710  -43.8370 C   0  0  0  0  0  0  0  0  0  0  0  0
   94.5140  103.9580  -43.2380 C   0  0  0  0  0  0  0  0  0  0  0  0
   92.6550  100.7330  -43.8860 C   0  0  0  0  0  0  0  0  0  0  0  0
   93.1950   99.6510  -44.1930 O   0  0  0  0  0  0  0  0  0  0  0  0
   91.2500  100.9760  -44.1560 C   0  0  2  0  0  0  0  0  0  0  0  0
   90.2890  100.0610  -43.4360 C   0  0  1  0  0  0  0  0  0  0  0  0
   89.0520  100.3040  -44.1410 N   0  0  0  0  0  0  0  0  0  0  0  0
   89.4060  100.5510  -45.4970 C   0  0  0  0  0  0  0  0  0  0  0  0
   88.5940  100.6670  -46.4670 O   0  0  0  0  0  0  0  0  0  0  0  0
   90.8760  100.6460  -45.5800 C   0  0  0  0  0  0  0  0  0  0  0  0
   91.5880  100.4880  -46.5850 O   0  0  0  0  0  0  0  0  0  0  0  0
   87.6950  100.3160  -43.6520 C   0  0  0  0  0  0  0  0  0  0  0  0
   86.9200   99.0830  -44.0060 C   0  0  0  0  0  0  0  0  0  0  0  0
   85.7430   98.8660  -43.2580 N   0  0  0  0  0  4  0  0  0  0  0  0
   85.1730   97.5790  -43.6680 C   0  0  0  0  0  0  0  0  0  0  0  0
   84.5980   97.6200  -45.0450 C   0  0  0  0  0  0  0  0  0  0  0  0
   84.4170   98.8810  -45.5570 O   0  0  0  0  0  0  0  0  0  0  0  0
   83.8820   99.7290  -44.6190 C   0  0  0  0  0  0  0  0  0  0  0  0
   84.7210   99.8450  -43.3750 C   0  0  0  0  0  0  0  0  0  0  0  0
   90.6970   98.6650  -43.4020 C   0  0  0  0  0  0  0  0  0  0  0  0
   91.2750   98.0870  -42.2630 C   0  0  0  0  0  0  0  0  0  0  0  0
   91.6560   96.7610  -42.2370 C   0  0  0  0  0  0  0  0  0  0  0  0
   91.4790   95.9460  -43.3400 C   0  0  0  0  0  0  0  0  0  0  0  0
   90.9110   96.4940  -44.4700 C   0  0  0  0  0  0  0  0  0  0  0  0
   90.5350   97.8280  -44.4810 C   0  0  0  0  0  0  0  0  0  0  0  0
   91.8530   94.6080  -43.3400 O   0  0  0  0  0  0  0  0  0  0  0  0
   92.2270   96.1840  -41.1160 O   0  0  0  0  0  0  0  0  0  0  0  0
   92.2740   94.7980  -40.8920 C   0  0  0  0  0  0  0  0  0  0  0  0
   95.1520  102.3670  -40.3580 H   0  0  0  0  0  0  0  0  0  0  0  0
   93.7570  100.6100  -41.5070 H   0  0  0  0  0  0  0  0  0  0  0  0
   93.3800  103.2050  -44.8240 H   0  0  0  0  0  0  0  0  0  0  0  0
   94.7300  104.8930  -43.7090 H   0  0  0  0  0  0  0  0  0  0  0  0
   90.9330  102.0300  -44.0050 H   0  0  0  0  0  0  0  0  0  0  0  0
   90.2520  100.4280  -42.3870 H   0  0  0  0  0  0  0  0  0  0  0  0
   87.1860  101.1750  -44.1660 H   0  0  0  0  0  0  0  0  0  0  0  0
   87.6060  100.4920  -42.5810 H   0  0  0  0  0  0  0  0  0  0  0  0
   87.5650   98.1600  -43.9100 H   0  0  0  0  0  0  0  0  0  0  0  0
   86.6770   99.1440  -45.0870 H   0  0  0  0  0  0  0  0  0  0  0  0
   85.9620   98.7440  -42.2300 H   0  0  0  0  0  0  0  0  0  0  0  0
   85.8860   96.7480  -43.5100 H   0  0  0  0  0  0  0  0  0  0  0  0
   84.3200   97.3950  -42.9590 H   0  0  0  0  0  0  0  0  0  0  0  0
   85.3010   97.0830  -45.7290 H   0  0  0  0  0  0  0  0  0  0  0  0
   83.5950   97.1050  -45.0970 H   0  0  0  0  0  0  0  0  0  0  0  0
   83.7120  100.7360  -45.1010 H   0  0  0  0  0  0  0  0  0  0  0  0
   82.8430   99.3600  -44.4000 H   0  0  0  0  0  0  0  0  0  0  0  0
   85.0610  100.8940  -43.2950 H   0  0  0  0  0  0  0  0  0  0  0  0
   84.0160   99.6980  -42.5040 H   0  0  0  0  0  0  0  0  0  0  0  0
   91.4160   98.7270  -41.3930 H   0  0  0  0  0  0  0  0  0  0  0  0
   90.7790   95.8480  -45.3270 H   0  0  0  0  0  0  0  0  0  0  0  0
   90.1010   98.2030  -45.3730 H   0  0  0  0  0  0  0  0  0  0  0  0
   91.2720   94.3160  -41.0420 H   0  0  0  0  0  0  0  0  0  0  0  0
   92.5210   94.6290  -39.8220 H   0  0  0  0  0  0  0  0  0  0  0  0
   93.0210   94.2680  -41.4950 H   0  0  0  0  0  0  0  0  0  0  0  0
  2  3  1  0  0  0  0
  2  1  1  0  0  0  0
  3 34  1  0  0  0  0
  4 35  1  0  0  0  0
  4  3  2  0  0  0  0
  5  4  1  0  0  0  0
  6  5  2  0  0  0  0
  6  7  1  0  0  0  0
  7  2  2  0  0  0  0
  8  5  1  0  0  0  0
  9  8  2  0  0  0  0
 10 38  1  1  0  0  0
 10  8  1  0  0  0  0
 10 11  1  0  0  0  0
 11 25  1  0  0  0  0
 11 39  1  1  0  0  0
 12 17  1  0  0  0  0
 12 11  1  0  0  0  0
 13 12  1  0  0  0  0
 14 13  2  0  0  0  0
 15 13  1  0  0  0  0
 15 10  1  0  0  0  0
 16 15  2  0  0  0  0
 17 41  1  0  0  0  0
 18 42  1  0  0  0  0
 18 17  1  0  0  0  0
 18 19  1  0  0  0  0
 19 44  1  0  0  0  0
 20 45  1  0  0  0  0
 20 19  1  0  0  0  0
 20 46  1  0  0  0  0
 21 20  1  0  0  0  0
 22 21  1  0  0  0  0
 22 23  1  0  0  0  0
 23 50  1  0  0  0  0
 23 24  1  0  0  0  0
 24 51  1  0  0  0  0
 24 19  1  0  0  0  0
 24 52  1  0  0  0  0
 25 26  1  0  0  0  0
 26 27  2  0  0  0  0
 26 53  1  0  0  0  0
 27 32  1  0  0  0  0
 28 27  1  0  0  0  0
 29 28  2  0  0  0  0
 30 29  1  0  0  0  0
 30 25  2  0  0  0  0
 31 28  1  0  0  0  0
 32 33  1  0  0  0  0
 33 57  1  0  0  0  0
 36  6  1  0  0  0  0
 37  7  1  0  0  0  0
 40 17  1  0  0  0  0
 43 18  1  0  0  0  0
 47 21  1  0  0  0  0
 48 21  1  0  0  0  0
 49 23  1  0  0  0  0
 54 29  1  0  0  0  0
 55 30  1  0  0  0  0
 56 33  1  0  0  0  0
 58 33  1  0  0  0  0
M  END
>  <Pose>
1

>  <Score>
-4.61

$$$$
