
 OpenBabel03212208273D

 41 45  0  0  1  0  0  0  0  0999 V2000
   94.4170  104.7220  -38.7870 B   0  0  0  0  0  0  0  0  0  0  0  0
   93.8110  103.0810  -39.5520 C   0  0  0  0  0  0  0  0  0  0  0  0
   94.6290  102.3280  -40.3660 C   0  0  0  0  0  0  0  0  0  0  0  0
   94.2370  101.1400  -40.9400 C   0  0  0  0  0  0  0  0  0  0  0  0
   92.9770  100.6500  -40.7120 C   0  0  0  0  0  0  0  0  0  0  0  0
   92.1450  101.3990  -39.8950 C   0  0  0  0  0  0  0  0  0  0  0  0
   92.5450  102.5860  -39.3260 C   0  0  0  0  0  0  0  0  0  0  0  0
   92.5080   99.4110  -41.2910 C   0  0  2  0  0  0  0  0  0  0  0  0
   93.0820   98.3300  -40.9400 O   0  0  0  0  0  0  0  0  0  0  0  0
   91.4130   99.2850  -42.2630 C   0  0  1  0  0  0  0  0  0  0  0  0
   91.9020   99.3860  -43.6300 N   0  0  0  0  0  0  0  0  0  0  0  0
   93.0950   99.6810  -44.2570 N   0  0  0  0  0  0  0  0  0  0  0  0
   93.2750   99.5830  -45.5270 C   0  0  0  0  0  0  0  0  0  0  0  0
   92.1850   99.1520  -46.3720 C   0  0  0  0  0  0  0  0  0  0  0  0
   91.0110   98.8790  -45.8520 C   0  0  0  0  0  0  0  0  0  0  0  0
   90.7430   99.0040  -44.4320 C   0  0  1  0  0  0  0  0  0  0  0  0
   90.3030   97.7670  -43.7320 C   0  0  2  0  0  0  0  0  0  0  0  0
   90.8060   97.9000  -42.2900 C   0  0  1  0  0  0  0  0  0  0  0  0
   91.8000   96.8360  -42.1640 C   0  0  2  0  0  0  0  0  0  0  0  0
   92.6550   96.7370  -41.2400 O   0  0  0  0  0  0  0  0  0  0  0  0
   91.6500   95.9380  -43.2460 N   0  0  0  0  0  0  0  0  0  0  0  0
   90.8800   96.5340  -44.2820 C   0  0  0  0  0  0  0  0  0  0  0  0
   90.7200   96.0980  -45.4470 O   0  0  0  0  0  0  0  0  0  0  0  0
   92.1910   94.6000  -43.3140 C   0  0  0  0  0  0  0  0  0  0  0  0
   91.8900   93.7710  -42.1030 C   0  0  0  0  0  0  0  0  0  0  0  0
   95.6450  102.6820  -40.5750 H   0  0  0  0  0  0  0  0  0  0  0  0
   94.9120  100.5600  -41.5810 H   0  0  0  0  0  0  0  0  0  0  0  0
   91.1270  101.0320  -39.6940 H   0  0  0  0  0  0  0  0  0  0  0  0
   91.8680  103.1380  -38.6960 H   0  0  0  0  0  0  0  0  0  0  0  0
   90.6340  100.0070  -42.0300 H   0  0  0  0  0  0  0  0  0  0  0  0
   94.2380   99.8150  -46.0060 H   0  0  0  0  0  0  0  0  0  0  0  0
   92.3640   99.0610  -47.4470 H   0  0  0  0  0  0  0  0  0  0  0  0
   90.2090   98.5490  -46.5040 H   0  0  0  0  0  0  0  0  0  0  0  0
   90.0060   99.8470  -44.2880 H   0  0  0  0  0  0  0  0  0  0  0  0
   89.1960   97.6550  -43.7690 H   0  0  0  0  0  0  0  0  0  0  0  0
   89.9230   97.7750  -41.6560 H   0  0  0  0  0  0  0  0  0  0  0  0
   93.2940   94.5980  -43.4640 H   0  0  0  0  0  0  0  0  0  0  0  0
   91.7760   94.0430  -44.1970 H   0  0  0  0  0  0  0  0  0  0  0  0
   91.7610   94.3840  -41.1830 H   0  0  0  0  0  0  0  0  0  0  0  0
   91.0030   93.1140  -42.2820 H   0  0  0  0  0  0  0  0  0  0  0  0
   92.7380   93.0680  -41.8960 H   0  0  0  0  0  0  0  0  0  0  0  0
  2  7  1  0  0  0  0
  2  1  1  0  0  0  0
  3  2  2  0  0  0  0
  4  5  2  0  0  0  0
  4  3  1  0  0  0  0
  5  6  1  0  0  0  0
  6 28  1  0  0  0  0
  6  7  2  0  0  0  0
  7 29  1  0  0  0  0
  8  9  1  0  0  0  0
  8  5  1  6  0  0  0
 10 30  1  1  0  0  0
 10  8  1  0  0  0  0
 11 10  1  0  0  0  0
 12 11  1  0  0  0  0
 13 12  2  0  0  0  0
 14 15  2  0  0  0  0
 14 13  1  0  0  0  0
 15 16  1  0  0  0  0
 16 34  1  1  0  0  0
 16 17  1  0  0  0  0
 16 11  1  0  0  0  0
 17 35  1  6  0  0  0
 17 18  1  0  0  0  0
 18 10  1  0  0  0  0
 18 19  1  0  0  0  0
 18 36  1  1  0  0  0
 19 20  1  6  0  0  0
 20  9  1  0  0  0  0
 21 19  1  0  0  0  0
 22 17  1  0  0  0  0
 22 21  1  0  0  0  0
 23 22  2  0  0  0  0
 24 21  1  0  0  0  0
 24 25  1  0  0  0  0
 25 41  1  0  0  0  0
 25 39  1  0  0  0  0
 26  3  1  0  0  0  0
 27  4  1  0  0  0  0
 31 13  1  0  0  0  0
 32 14  1  0  0  0  0
 33 15  1  0  0  0  0
 37 24  1  0  0  0  0
 38 24  1  0  0  0  0
 40 25  1  0  0  0  0
M  END
>  <Pose>
1

>  <Score>
-4.22

$$$$
