
 OpenBabel03212208273D

 48 51  0  0  1  0  0  0  0  0999 V2000
   91.5850  104.7330  -35.1920 B   0  0  0  0  0  0  0  0  0  0  0  0
   92.4240  103.8550  -36.6530 C   0  0  0  0  0  0  0  0  0  0  0  0
   91.8910  103.8230  -37.9250 C   0  0  0  0  0  0  0  0  0  0  0  0
   92.5270  103.1760  -38.9650 C   0  0  0  0  0  0  0  0  0  0  0  0
   93.7290  102.5230  -38.7870 C   0  0  0  0  0  0  0  0  0  0  0  0
   94.2610  102.5540  -37.5190 C   0  0  0  0  0  0  0  0  0  0  0  0
   93.6360  103.1970  -36.4760 C   0  0  0  0  0  0  0  0  0  0  0  0
   94.4060  101.8330  -39.8950 C   0  0  0  0  0  0  0  0  0  0  0  0
   95.6430  102.1120  -40.0490 O   0  0  0  0  0  0  0  0  0  0  0  0
   93.7660  100.9250  -40.7430 N   0  0  0  0  0  0  0  0  0  0  0  0
   92.3600  100.6450  -40.6030 C   0  0  2  0  0  0  0  0  0  0  0  0
   92.0820   99.1760  -40.4010 C   0  0  0  0  0  0  0  0  0  0  0  0
   91.8380   98.6720  -41.7350 N   0  0  0  0  0  0  0  0  0  0  0  0
   91.5200   99.7720  -42.6310 C   0  0  1  0  0  0  0  0  0  0  0  0
   91.6770  101.0480  -41.8800 C   0  0  0  0  0  0  0  0  0  0  0  0
   92.4440   99.6440  -43.7800 C   0  0  0  0  0  0  0  0  0  0  0  0
   93.0790  100.6480  -44.1720 O   0  0  0  0  0  0  0  0  0  0  0  0
   92.5730   98.3750  -44.3940 N   0  0  0  0  0  0  0  0  0  0  0  0
   92.1790   97.1350  -43.7660 C   0  0  1  0  0  0  0  0  0  0  0  0
   91.8410   97.3830  -42.3350 C   0  0  0  0  0  0  0  0  0  0  0  0
   91.5320   96.3960  -41.5760 O   0  0  0  0  0  0  0  0  0  0  0  0
   91.0490   96.4740  -44.5190 C   0  0  0  0  0  0  0  0  0  0  0  0
   91.3370   95.0360  -44.7800 C   0  0  0  0  0  0  0  0  0  0  0  0
   91.0230   94.4630  -46.0130 C   0  0  0  0  0  0  0  0  0  0  0  0
   91.3120   93.1290  -46.1990 C   0  0  0  0  0  0  0  0  0  0  0  0
   91.8960   92.3400  -45.2230 C   0  0  0  0  0  0  0  0  0  0  0  0
   92.1880   92.9490  -44.0250 C   0  0  0  0  0  0  0  0  0  0  0  0
   91.9220   94.2790  -43.7810 C   0  0  0  0  0  0  0  0  0  0  0  0
   90.9370  104.3420  -38.0570 H   0  0  0  0  0  0  0  0  0  0  0  0
   92.0520  103.1970  -39.9150 H   0  0  0  0  0  0  0  0  0  0  0  0
   95.1980  102.0600  -37.3320 H   0  0  0  0  0  0  0  0  0  0  0  0
   94.0660  103.2170  -35.4680 H   0  0  0  0  0  0  0  0  0  0  0  0
   94.2940  100.4390  -41.4860 H   0  0  0  0  0  0  0  0  0  0  0  0
   91.9770  101.1700  -39.7190 H   0  0  0  0  0  0  0  0  0  0  0  0
   92.9600   98.7360  -39.9190 H   0  0  0  0  0  0  0  0  0  0  0  0
   91.2030   98.9710  -39.7790 H   0  0  0  0  0  0  0  0  0  0  0  0
   90.4630   99.6720  -42.9560 H   0  0  0  0  0  0  0  0  0  0  0  0
   92.2230  101.8100  -42.4510 H   0  0  0  0  0  0  0  0  0  0  0  0
   90.6840  101.4650  -41.6200 H   0  0  0  0  0  0  0  0  0  0  0  0
   92.9850   98.3690  -45.3650 H   0  0  0  0  0  0  0  0  0  0  0  0
   93.0690   96.4730  -43.7550 H   0  0  0  0  0  0  0  0  0  0  0  0
   90.8450   96.9910  -45.4730 H   0  0  0  0  0  0  0  0  0  0  0  0
   90.1630   96.5090  -43.8540 H   0  0  0  0  0  0  0  0  0  0  0  0
   90.5670   95.0900  -46.7630 H   0  0  0  0  0  0  0  0  0  0  0  0
   91.0720   92.6610  -47.1640 H   0  0  0  0  0  0  0  0  0  0  0  0
   92.1010   91.2960  -45.4250 H   0  0  0  0  0  0  0  0  0  0  0  0
   92.6510   92.3370  -43.2440 H   0  0  0  0  0  0  0  0  0  0  0  0
   92.1530   94.7480  -42.8380 H   0  0  0  0  0  0  0  0  0  0  0  0
  2  7  1  0  0  0  0
  2  1  1  0  0  0  0
  3  2  2  0  0  0  0
  4  5  2  0  0  0  0
  4  3  1  0  0  0  0
  5  6  1  0  0  0  0
  6 31  1  0  0  0  0
  6  7  2  0  0  0  0
  7 32  1  0  0  0  0
  8  5  1  0  0  0  0
  9  8  2  0  0  0  0
 10 11  1  0  0  0  0
 10  8  1  0  0  0  0
 11 12  1  0  0  0  0
 11 34  1  1  0  0  0
 12 35  1  0  0  0  0
 12 36  1  0  0  0  0
 13 12  1  0  0  0  0
 14 37  1  6  0  0  0
 14 15  1  0  0  0  0
 14 13  1  0  0  0  0
 15 39  1  0  0  0  0
 15 11  1  0  0  0  0
 16 14  1  0  0  0  0
 17 16  2  0  0  0  0
 18 16  1  0  0  0  0
 18 19  1  0  0  0  0
 19 41  1  6  0  0  0
 19 20  1  0  0  0  0
 20 13  1  0  0  0  0
 20 21  2  0  0  0  0
 22 43  1  0  0  0  0
 22 19  1  0  0  0  0
 23 22  1  0  0  0  0
 23 28  1  0  0  0  0
 24 23  2  0  0  0  0
 25 24  1  0  0  0  0
 25 26  2  0  0  0  0
 26 27  1  0  0  0  0
 27 28  2  0  0  0  0
 27 47  1  0  0  0  0
 28 48  1  0  0  0  0
 29  3  1  0  0  0  0
 30  4  1  0  0  0  0
 33 10  1  0  0  0  0
 38 15  1  0  0  0  0
 40 18  1  0  0  0  0
 42 22  1  0  0  0  0
 44 24  1  0  0  0  0
 45 25  1  0  0  0  0
 46 26  1  0  0  0  0
M  END
>  <Pose>
1

>  <Score>
-4.82

$$$$
