
 OpenBabel03212208273D

 42 45  0  0  1  0  0  0  0  0999 V2000
   91.8330   92.9400  -42.6570 B   0  0  0  0  0  0  0  0  0  0  0  0
   91.8010   94.6400  -43.5010 C   0  0  0  0  0  0  0  0  0  0  0  0
   91.5800   95.7780  -42.7440 C   0  0  0  0  0  0  0  0  0  0  0  0
   91.5460   97.0350  -43.3060 C   0  0  0  0  0  0  0  0  0  0  0  0
   91.7370   97.2020  -44.6600 C   0  0  0  0  0  0  0  0  0  0  0  0
   91.9550   96.0860  -45.4100 C   0  0  0  0  0  0  0  0  0  0  0  0
   91.9920   94.8070  -44.8600 C   0  0  0  0  0  0  0  0  0  0  0  0
   91.6950   98.5640  -45.2290 C   0  0  0  0  0  0  0  0  0  0  0  0
   92.0060   99.5320  -44.5050 O   0  0  0  0  0  0  0  0  0  0  0  0
   91.3090   98.7880  -46.5750 N   0  0  0  0  0  0  0  0  0  0  0  0
   90.6630  100.0080  -46.9300 C   0  0  2  0  0  0  0  0  0  0  0  0
   89.6120   99.8400  -48.0030 C   0  0  0  0  0  0  0  0  0  0  0  0
   90.3870   99.8870  -49.2290 N   0  0  0  0  0  0  0  0  0  0  0  0
   91.5980  100.6500  -48.9950 C   0  0  1  0  0  0  0  0  0  0  0  0
   91.6960  100.9290  -47.5330 C   0  0  0  0  0  0  0  0  0  0  0  0
   92.7230   99.8270  -49.5070 C   0  0  0  0  0  0  0  0  0  0  0  0
   93.7900   99.6420  -48.8770 O   0  0  0  0  0  0  0  0  0  0  0  0
   92.6130   99.2050  -50.7740 N   0  0  0  0  0  0  0  0  0  0  0  0
   91.3360   98.8430  -51.3540 C   0  0  2  0  0  0  0  0  0  0  0  0
   91.4610   99.4530  -52.7140 C   0  0  0  0  0  0  0  0  0  0  0  0
   92.9150   99.1150  -53.0670 C   0  0  0  0  0  0  0  0  0  0  0  0
   93.6040   98.8070  -51.7350 C   0  0  0  0  0  0  0  0  0  0  0  0
   90.2100   99.3690  -50.5420 C   0  0  0  0  0  0  0  0  0  0  0  0
   89.0250   99.3650  -51.0220 O   0  0  0  0  0  0  0  0  0  0  0  0
   91.4250   95.7030  -41.6810 H   0  0  0  0  0  0  0  0  0  0  0  0
   91.3700   97.9310  -42.6980 H   0  0  0  0  0  0  0  0  0  0  0  0
   92.1080   96.1530  -46.4570 H   0  0  0  0  0  0  0  0  0  0  0  0
   92.1670   93.9300  -45.4680 H   0  0  0  0  0  0  0  0  0  0  0  0
   91.4830   98.0810  -47.3330 H   0  0  0  0  0  0  0  0  0  0  0  0
   90.2410  100.4760  -46.0200 H   0  0  0  0  0  0  0  0  0  0  0  0
   88.9170  100.6890  -47.9420 H   0  0  0  0  0  0  0  0  0  0  0  0
   89.0590   98.9160  -47.8620 H   0  0  0  0  0  0  0  0  0  0  0  0
   91.6080  101.6060  -49.5820 H   0  0  0  0  0  0  0  0  0  0  0  0
   92.6870  100.8140  -47.0960 H   0  0  0  0  0  0  0  0  0  0  0  0
   91.3430  101.9770  -47.3230 H   0  0  0  0  0  0  0  0  0  0  0  0
   91.2240   97.7440  -51.4620 H   0  0  0  0  0  0  0  0  0  0  0  0
   90.7620   98.9750  -53.4100 H   0  0  0  0  0  0  0  0  0  0  0  0
   91.3180  100.5660  -52.6740 H   0  0  0  0  0  0  0  0  0  0  0  0
   93.4000   99.9660  -53.5880 H   0  0  0  0  0  0  0  0  0  0  0  0
   92.9780   98.2070  -53.6820 H   0  0  0  0  0  0  0  0  0  0  0  0
   93.8510   97.7310  -51.6580 H   0  0  0  0  0  0  0  0  0  0  0  0
   94.5490   99.3770  -51.6530 H   0  0  0  0  0  0  0  0  0  0  0  0
  2  3  1  0  0  0  0
  2  1  1  0  0  0  0
  3 25  1  0  0  0  0
  4  3  2  0  0  0  0
  4 26  1  0  0  0  0
  5  4  1  0  0  0  0
  6  7  1  0  0  0  0
  6  5  2  0  0  0  0
  7  2  2  0  0  0  0
  8  5  1  0  0  0  0
  8  9  2  0  0  0  0
 10  8  1  0  0  0  0
 11 10  1  0  0  0  0
 11 30  1  1  0  0  0
 12 31  1  0  0  0  0
 12 32  1  0  0  0  0
 12 11  1  0  0  0  0
 13 14  1  0  0  0  0
 13 12  1  0  0  0  0
 14 33  1  6  0  0  0
 14 15  1  0  0  0  0
 15 35  1  0  0  0  0
 15 34  1  0  0  0  0
 15 11  1  0  0  0  0
 16 14  1  0  0  0  0
 16 17  2  0  0  0  0
 18 16  1  0  0  0  0
 19 36  1  6  0  0  0
 19 18  1  0  0  0  0
 19 23  1  0  0  0  0
 20 38  1  0  0  0  0
 20 19  1  0  0  0  0
 21 20  1  0  0  0  0
 21 22  1  0  0  0  0
 22 41  1  0  0  0  0
 22 42  1  0  0  0  0
 22 18  1  0  0  0  0
 23 13  1  0  0  0  0
 24 23  2  0  0  0  0
 27  6  1  0  0  0  0
 28  7  1  0  0  0  0
 29 10  1  0  0  0  0
 37 20  1  0  0  0  0
 39 21  1  0  0  0  0
 40 21  1  0  0  0  0
M  END
>  <Pose>
1

>  <Score>
-4.06

$$$$
