
 OpenBabel03212208273D

 35 38  0  0  1  0  0  0  0  0999 V2000
   91.6250   91.7120  -46.0770 B   0  0  0  0  0  0  0  0  0  0  0  0
   91.6860   93.3130  -45.0320 C   0  0  0  0  0  0  0  0  0  0  0  0
   91.5400   94.5250  -45.6420 C   0  0  0  0  0  0  0  0  0  0  0  0
   91.5780   95.6890  -44.9030 C   0  0  0  0  0  0  0  0  0  0  0  0
   91.7660   95.6590  -43.5250 C   0  0  0  0  0  0  0  0  0  0  0  0
   91.9120   94.4280  -42.9270 C   0  0  0  0  0  0  0  0  0  0  0  0
   91.8750   93.2640  -43.6510 C   0  0  0  0  0  0  0  0  0  0  0  0
   91.7870   96.9030  -42.7940 C   0  0  0  0  0  0  0  0  0  0  0  0
   92.5960   97.0000  -41.8150 O   0  0  0  0  0  0  0  0  0  0  0  0
   90.9340   97.9660  -43.1610 N   0  0  0  0  0  0  0  0  0  0  0  0
   91.3570   99.3180  -43.0720 N   0  0  0  0  0  0  0  0  0  0  0  0
   92.5450   99.9200  -43.5740 C   0  0  0  0  0  0  0  0  0  0  0  0
   93.4950   99.2180  -44.0610 O   0  0  0  0  0  0  0  0  0  0  0  0
   92.4790  101.3980  -43.4370 C   0  0  2  0  0  0  0  0  0  0  0  0
   91.0570  101.6060  -42.9530 C   0  0  1  0  0  0  0  0  0  0  0  0
   90.3710  101.9810  -44.2490 C   0  0  1  0  0  0  0  0  0  0  0  0
   91.3680  103.0740  -44.6880 C   0  0  0  0  0  0  0  0  0  0  0  0
   92.5360  102.0740  -44.7770 C   0  0  2  0  0  0  0  0  0  0  0  0
   91.9050  101.1140  -45.7510 C   0  0  0  0  0  0  0  0  0  0  0  0
   90.6570  100.9830  -45.3170 C   0  0  0  0  0  0  0  0  0  0  0  0
   90.5900  100.3120  -42.4240 C   0  0  0  0  0  0  0  0  0  0  0  0
   89.6900  100.1550  -41.5700 O   0  0  0  0  0  0  0  0  0  0  0  0
   91.3940   94.5860  -46.6960 H   0  0  0  0  0  0  0  0  0  0  0  0
   91.4640   96.6300  -45.4300 H   0  0  0  0  0  0  0  0  0  0  0  0
   92.0610   94.3830  -41.8410 H   0  0  0  0  0  0  0  0  0  0  0  0
   91.9890   92.2860  -43.2010 H   0  0  0  0  0  0  0  0  0  0  0  0
   89.9740   97.7690  -43.4970 H   0  0  0  0  0  0  0  0  0  0  0  0
   93.2370  101.7780  -42.7260 H   0  0  0  0  0  0  0  0  0  0  0  0
   91.0150  102.4310  -42.2490 H   0  0  0  0  0  0  0  0  0  0  0  0
   89.3680  102.3270  -44.1670 H   0  0  0  0  0  0  0  0  0  0  0  0
   91.0920  103.4750  -45.6680 H   0  0  0  0  0  0  0  0  0  0  0  0
   91.5060  103.8080  -43.8990 H   0  0  0  0  0  0  0  0  0  0  0  0
   93.4560  102.5040  -45.0830 H   0  0  0  0  0  0  0  0  0  0  0  0
   92.4350  100.6890  -46.5780 H   0  0  0  0  0  0  0  0  0  0  0  0
   89.9610  100.2520  -45.6960 H   0  0  0  0  0  0  0  0  0  0  0  0
  1  2  1  0  0  0  0
  2  7  1  0  0  0  0
  3  2  2  0  0  0  0
  3  4  1  0  0  0  0
  4  5  2  0  0  0  0
  5  6  1  0  0  0  0
  5  8  1  0  0  0  0
  6 25  1  0  0  0  0
  7 26  1  0  0  0  0
  7  6  2  0  0  0  0
  8  9  2  0  0  0  0
 10 11  1  0  0  0  0
 10  8  1  0  0  0  0
 11 21  1  0  0  0  0
 12 14  1  0  0  0  0
 12 11  1  0  0  0  0
 13 12  2  0  0  0  0
 14 15  1  0  0  0  0
 14 28  1  1  0  0  0
 15 21  1  0  0  0  0
 15 29  1  1  0  0  0
 16 30  1  1  0  0  0
 16 15  1  0  0  0  0
 17 16  1  0  0  0  0
 17 32  1  0  0  0  0
 18 33  1  6  0  0  0
 18 17  1  0  0  0  0
 18 14  1  0  0  0  0
 19 20  2  0  0  0  0
 19 18  1  0  0  0  0
 20 16  1  0  0  0  0
 21 22  2  0  0  0  0
 23  3  1  0  0  0  0
 24  4  1  0  0  0  0
 27 10  1  0  0  0  0
 31 17  1  0  0  0  0
 34 19  1  0  0  0  0
 35 20  1  0  0  0  0
M  END
>  <Pose>
1

>  <Score>
-4.30

$$$$
