
 OpenBabel03212208273D

 49 52  0  0  1  0  0  0  0  0999 V2000
   82.6560   99.4480  -43.9470 B   0  0  0  0  0  0  0  0  0  0  0  0
   84.5500   99.2730  -43.8470 C   0  0  0  0  0  0  0  0  0  0  0  0
   85.3770  100.2780  -43.3920 C   0  0  0  0  0  0  0  0  0  0  0  0
   86.7460  100.1340  -43.3260 C   0  0  0  0  0  0  0  0  0  0  0  0
   87.3620   98.9410  -43.7260 C   0  0  0  0  0  0  0  0  0  0  0  0
   86.5220   97.9470  -44.1790 C   0  0  0  0  0  0  0  0  0  0  0  0
   85.1370   98.0910  -44.2460 C   0  0  0  0  0  0  0  0  0  0  0  0
   88.8050   98.8090  -43.6160 C   0  0  0  0  0  0  0  0  0  0  0  0
   89.4960   98.3110  -44.6090 C   0  0  0  0  0  0  0  0  0  0  0  0
   90.9740   98.0860  -44.6970 C   0  0  2  0  0  0  0  0  0  0  0  0
   91.0150   96.8130  -45.4060 N   0  0  0  0  0  0  0  0  0  0  0  0
   89.9740   96.9240  -46.3970 C   0  0  0  0  0  0  0  0  0  0  0  0
   89.9550   96.2960  -47.4690 O   0  0  0  0  0  0  0  0  0  0  0  0
   88.9800   97.8890  -45.9030 C   0  0  0  0  0  0  0  0  0  0  0  0
   87.9230   98.2710  -46.4690 O   0  0  0  0  0  0  0  0  0  0  0  0
   91.9060   95.7150  -45.1680 C   0  0  0  0  0  0  0  0  0  0  0  0
   91.1580   94.4140  -44.9250 C   0  0  0  0  0  0  0  0  0  0  0  0
   92.1870   93.3550  -44.5300 C   0  0  0  0  0  0  0  0  0  0  0  0
   92.5890   93.4910  -43.1430 N   0  0  0  0  0  0  0  0  0  0  0  0
   91.8640   94.0080  -42.1240 C   0  0  0  0  0  0  0  0  0  0  0  0
   92.5950   93.9530  -40.9970 N   0  0  0  0  0  0  0  0  0  0  0  0
   93.7900   93.4060  -41.2640 C   0  0  0  0  0  0  0  0  0  0  0  0
   93.7660   93.1240  -42.6150 C   0  0  0  0  0  0  0  0  0  0  0  0
   91.5770   98.0150  -43.3430 C   0  0  0  0  0  0  0  0  0  0  0  0
   92.4980   98.9360  -43.0150 N   0  0  0  0  0  0  0  0  0  0  0  0
   93.0990   98.9780  -41.8240 C   0  0  0  0  0  0  0  0  0  0  0  0
   92.7560   98.0280  -40.8910 C   0  0  0  0  0  0  0  0  0  0  0  0
   91.8180   97.0660  -41.1830 C   0  0  0  0  0  0  0  0  0  0  0  0
   91.2290   97.0670  -42.4210 C   0  0  0  0  0  0  0  0  0  0  0  0
   89.4890   99.2080  -42.4510 O   0  0  0  0  0  0  0  0  0  0  0  0
   84.8970  101.2000  -43.0820 H   0  0  0  0  0  0  0  0  0  0  0  0
   87.3940  100.9280  -42.9670 H   0  0  0  0  0  0  0  0  0  0  0  0
   86.9480   97.0000  -44.4820 H   0  0  0  0  0  0  0  0  0  0  0  0
   84.5190   97.2620  -44.6160 H   0  0  0  0  0  0  0  0  0  0  0  0
   91.4640   98.8850  -45.2750 H   0  0  0  0  0  0  0  0  0  0  0  0
   92.4430   95.9170  -44.2020 H   0  0  0  0  0  0  0  0  0  0  0  0
   92.6590   95.5330  -45.9320 H   0  0  0  0  0  0  0  0  0  0  0  0
   90.4410   94.4810  -44.0990 H   0  0  0  0  0  0  0  0  0  0  0  0
   90.6870   94.0530  -45.8550 H   0  0  0  0  0  0  0  0  0  0  0  0
   91.7110   92.3650  -44.7120 H   0  0  0  0  0  0  0  0  0  0  0  0
   93.0730   93.4030  -45.2200 H   0  0  0  0  0  0  0  0  0  0  0  0
   90.8600   94.4060  -42.1770 H   0  0  0  0  0  0  0  0  0  0  0  0
   92.2940   94.2830  -40.0370 H   0  0  0  0  0  0  0  0  0  0  0  0
   94.6170   93.2110  -40.5970 H   0  0  0  0  0  0  0  0  0  0  0  0
   94.5810   92.6680  -43.1820 H   0  0  0  0  0  0  0  0  0  0  0  0
   93.8490   99.7350  -41.5660 H   0  0  0  0  0  0  0  0  0  0  0  0
   93.2430   98.0520  -39.9100 H   0  0  0  0  0  0  0  0  0  0  0  0
   91.5400   96.3150  -40.4570 H   0  0  0  0  0  0  0  0  0  0  0  0
   90.4730   96.3360  -42.7110 H   0  0  0  0  0  0  0  0  0  0  0  0
  1  2  1  0  0  0  0
  2  3  1  0  0  0  0
  3  4  2  0  0  0  0
  3 31  1  0  0  0  0
  4 32  1  0  0  0  0
  5  8  1  0  0  0  0
  5  4  1  0  0  0  0
  6  5  2  0  0  0  0
  7  6  1  0  0  0  0
  7  2  2  0  0  0  0
  8 30  1  0  0  0  0
  9  8  2  0  0  0  0
 10 35  1  6  0  0  0
 10  9  1  0  0  0  0
 10 24  1  0  0  0  0
 11 16  1  0  0  0  0
 11 10  1  0  0  0  0
 12 14  1  0  0  0  0
 12 11  1  0  0  0  0
 13 12  2  0  0  0  0
 14  9  1  0  0  0  0
 15 14  2  0  0  0  0
 16 17  1  0  0  0  0
 16 36  1  0  0  0  0
 17 18  1  0  0  0  0
 17 38  1  0  0  0  0
 18 19  1  0  0  0  0
 19 23  1  0  0  0  0
 19 20  1  0  0  0  0
 20 21  1  0  0  0  0
 21 43  1  0  0  0  0
 22 21  1  0  0  0  0
 22 44  1  0  0  0  0
 23 22  2  0  0  0  0
 24 25  2  0  0  0  0
 24 29  1  0  0  0  0
 25 26  1  0  0  0  0
 26 46  1  0  0  0  0
 26 27  2  0  0  0  0
 27 47  1  0  0  0  0
 28 27  1  0  0  0  0
 28 48  1  0  0  0  0
 29 28  2  0  0  0  0
 33  6  1  0  0  0  0
 34  7  1  0  0  0  0
 37 16  1  0  0  0  0
 39 17  1  0  0  0  0
 40 18  1  0  0  0  0
 41 18  1  0  0  0  0
 42 20  1  0  0  0  0
 45 23  1  0  0  0  0
 49 29  1  0  0  0  0
M  END
>  <Pose>
1

>  <Score>
-5.68

$$$$
