
 OpenBabel03212208273D

 55 58  0  0  1  0  0  0  0  0999 V2000
   93.6210  102.2360  -41.6780 B   0  0  0  0  0  0  0  0  0  0  0  0
   92.4570  101.0180  -42.6060 C   0  0  0  0  0  0  0  0  0  0  0  0
   92.9270  100.4390  -43.7630 C   0  0  0  0  0  0  0  0  0  0  0  0
   92.1190   99.5700  -44.4400 C   0  0  0  0  0  0  0  0  0  0  0  0
   90.8410   99.2710  -43.9710 C   0  0  0  0  0  0  0  0  0  0  0  0
   90.3880   99.8480  -42.8310 C   0  0  0  0  0  0  0  0  0  0  0  0
   91.1930  100.7270  -42.1370 C   0  0  0  0  0  0  0  0  0  0  0  0
   90.0590   98.3730  -44.8040 C   0  0  0  0  0  0  0  0  0  0  0  0
   90.3250   97.0940  -44.8570 C   0  0  0  0  0  0  0  0  0  0  0  0
   89.6030   96.0460  -45.6630 C   0  0  2  0  0  0  0  0  0  0  0  0
   90.6290   95.1150  -45.9840 N   0  0  0  0  0  0  0  0  0  0  0  0
   91.5990   95.1630  -44.9100 C   0  0  0  0  0  0  0  0  0  0  0  0
   92.4590   94.2970  -44.6190 O   0  0  0  0  0  0  0  0  0  0  0  0
   91.4140   96.4180  -44.1890 C   0  0  0  0  0  0  0  0  0  0  0  0
   92.1000   96.7980  -43.1810 O   0  0  0  0  0  0  0  0  0  0  0  0
   90.8250   94.1790  -47.0760 C   0  0  0  0  0  0  0  0  0  0  0  0
   90.9150   92.7400  -46.6820 C   0  0  0  0  0  0  0  0  0  0  0  0
   91.6420   91.9340  -47.6490 N   0  0  0  0  0  4  0  0  0  0  0  0
   90.8000   91.6330  -48.8110 C   0  0  0  0  0  0  0  0  0  0  0  0
   91.7350   90.9270  -49.8030 C   0  0  0  0  0  0  0  0  0  0  0  0
   92.2650   89.7700  -49.2870 O   0  0  0  0  0  0  0  0  0  0  0  0
   92.8780   89.9250  -48.0540 C   0  0  0  0  0  0  0  0  0  0  0  0
   92.0010   90.6620  -47.0720 C   0  0  0  0  0  0  0  0  0  0  0  0
   88.8500   96.6410  -46.7590 C   0  0  0  0  0  0  0  0  0  0  0  0
   89.3830   97.2870  -47.8420 C   0  0  0  0  0  0  0  0  0  0  0  0
   88.6040   97.8130  -48.8400 C   0  0  0  0  0  0  0  0  0  0  0  0
   87.2420   97.6980  -48.7630 C   0  0  0  0  0  0  0  0  0  0  0  0
   86.6420   97.0520  -47.6860 C   0  0  0  0  0  0  0  0  0  0  0  0
   87.4510   96.5370  -46.7060 C   0  0  0  0  0  0  0  0  0  0  0  0
   89.2190   98.4650  -49.9270 N   0  0  0  0  0  0  0  0  0  0  0  0
   90.2940   98.0540  -50.4350 O   0  0  0  0  0  0  0  0  0  0  0  0
   88.6180   99.5900  -50.4430 O   0  0  0  0  0  0  0  0  0  0  0  0
   88.9860   98.8610  -45.5830 O   0  0  0  0  0  0  0  0  0  0  0  0
   93.9240  100.6480  -44.1620 H   0  0  0  0  0  0  0  0  0  0  0  0
   92.4890   99.1000  -45.3700 H   0  0  0  0  0  0  0  0  0  0  0  0
   89.3690   99.6360  -42.4760 H   0  0  0  0  0  0  0  0  0  0  0  0
   90.8270  101.1900  -41.2180 H   0  0  0  0  0  0  0  0  0  0  0  0
   88.9120   95.5290  -44.9470 H   0  0  0  0  0  0  0  0  0  0  0  0
   91.7900   94.4500  -47.5600 H   0  0  0  0  0  0  0  0  0  0  0  0
   90.0230   94.2730  -47.8390 H   0  0  0  0  0  0  0  0  0  0  0  0
   90.0010   92.2360  -46.4050 H   0  0  0  0  0  0  0  0  0  0  0  0
   91.5360   92.7520  -45.7150 H   0  0  0  0  0  0  0  0  0  0  0  0
   92.4830   92.3800  -48.0240 H   0  0  0  0  0  0  0  0  0  0  0  0
   90.4570   92.5550  -49.3180 H   0  0  0  0  0  0  0  0  0  0  0  0
   90.0010   90.9250  -48.5810 H   0  0  0  0  0  0  0  0  0  0  0  0
   91.2270   90.6980  -50.7400 H   0  0  0  0  0  0  0  0  0  0  0  0
   92.5410   91.6780  -50.0250 H   0  0  0  0  0  0  0  0  0  0  0  0
   92.9990   88.8820  -47.6390 H   0  0  0  0  0  0  0  0  0  0  0  0
   93.8800   90.3740  -48.1050 H   0  0  0  0  0  0  0  0  0  0  0  0
   92.5800   90.8540  -46.1520 H   0  0  0  0  0  0  0  0  0  0  0  0
   91.0880   90.0630  -46.8510 H   0  0  0  0  0  0  0  0  0  0  0  0
   90.4500   97.3880  -47.9050 H   0  0  0  0  0  0  0  0  0  0  0  0
   86.5710   98.0890  -49.5150 H   0  0  0  0  0  0  0  0  0  0  0  0
   85.5550   96.9610  -47.6260 H   0  0  0  0  0  0  0  0  0  0  0  0
   86.9740   96.0280  -45.8560 H   0  0  0  0  0  0  0  0  0  0  0  0
  2  7  1  0  0  0  0
  2  1  1  0  0  0  0
  3  2  2  0  0  0  0
  4  5  2  0  0  0  0
  4  3  1  0  0  0  0
  5  6  1  0  0  0  0
  6 36  1  0  0  0  0
  6  7  2  0  0  0  0
  7 37  1  0  0  0  0
  8  5  1  0  0  0  0
  9  8  2  0  0  0  0
  9 14  1  0  0  0  0
 10 38  1  1  0  0  0
 10  9  1  0  0  0  0
 11 10  1  0  0  0  0
 11 12  1  0  0  0  0
 12 13  2  0  0  0  0
 12 14  1  0  0  0  0
 14 15  2  0  0  0  0
 16 17  1  0  0  0  0
 16 11  1  0  0  0  0
 17 41  1  0  0  0  0
 17 42  1  0  0  0  0
 18 23  1  0  0  0  0
 18 17  1  0  0  0  0
 19 45  1  0  0  0  0
 19 18  1  0  0  0  0
 20 21  1  0  0  0  0
 20 19  1  0  0  0  0
 21 22  1  0  0  0  0
 22 48  1  0  0  0  0
 22 23  1  0  0  0  0
 23 51  1  0  0  0  0
 23 50  1  0  0  0  0
 24 29  1  0  0  0  0
 24 10  1  0  0  0  0
 25 24  2  0  0  0  0
 26 27  2  0  0  0  0
 26 25  1  0  0  0  0
 27 28  1  0  0  0  0
 28 54  1  0  0  0  0
 28 29  2  0  0  0  0
 29 55  1  0  0  0  0
 30 26  1  0  0  0  0
 31 30  2  0  0  0  0
 32 30  2  0  0  0  0
 33  8  1  0  0  0  0
 34  3  1  0  0  0  0
 35  4  1  0  0  0  0
 39 16  1  0  0  0  0
 40 16  1  0  0  0  0
 43 18  1  0  0  0  0
 44 19  1  0  0  0  0
 46 20  1  0  0  0  0
 47 20  1  0  0  0  0
 49 22  1  0  0  0  0
 52 25  1  0  0  0  0
 53 27  1  0  0  0  0
M  END
>  <Pose>
1

>  <Score>
-4.97

$$$$
