
 OpenBabel03212208273D

 59 62  0  0  1  0  0  0  0  0999 V2000
   94.0830  103.3090  -39.5940 B   0  0  0  0  0  0  0  0  0  0  0  0
   93.4700  102.0140  -40.8620 C   0  0  0  0  0  0  0  0  0  0  0  0
   93.7170  102.2030  -42.2040 C   0  0  0  0  0  0  0  0  0  0  0  0
   93.2860  101.2800  -43.1330 C   0  0  0  0  0  0  0  0  0  0  0  0
   92.5850  100.1190  -42.7810 C   0  0  0  0  0  0  0  0  0  0  0  0
   92.3470   99.9480  -41.4380 C   0  0  0  0  0  0  0  0  0  0  0  0
   92.7840  100.8830  -40.4900 C   0  0  0  0  0  0  0  0  0  0  0  0
   92.1230   99.2010  -43.8120 C   0  0  0  0  0  0  0  0  0  0  0  0
   90.8590   98.8980  -44.0090 C   0  0  0  0  0  0  0  0  0  0  0  0
   90.3300   97.9600  -45.0640 C   0  0  2  0  0  0  0  0  0  0  0  0
   88.9130   98.0060  -44.9570 N   0  0  0  0  0  0  0  0  0  0  0  0
   88.5020   98.7970  -43.8220 C   0  0  0  0  0  0  0  0  0  0  0  0
   87.3580   98.9980  -43.3920 O   0  0  0  0  0  0  0  0  0  0  0  0
   89.7360   99.3570  -43.2260 C   0  0  0  0  0  0  0  0  0  0  0  0
   89.7710  100.1090  -42.1980 O   0  0  0  0  0  0  0  0  0  0  0  0
   87.9390   97.3760  -45.8070 C   0  0  0  0  0  0  0  0  0  0  0  0
   87.8300   97.9430  -47.1810 C   0  0  0  0  0  0  0  0  0  0  0  0
   88.5190   97.2140  -48.2030 N   0  0  0  0  0  4  0  0  0  0  0  0
   88.5980   97.9090  -49.4720 C   0  0  0  0  0  0  0  0  0  0  0  0
   89.5140   97.1010  -50.3670 C   0  0  0  0  0  0  0  0  0  0  0  0
   88.8190   95.8970  -50.6390 O   0  0  0  0  0  0  0  0  0  0  0  0
   88.7920   95.1970  -49.4300 C   0  0  0  0  0  0  0  0  0  0  0  0
   87.8470   95.9320  -48.4940 C   0  0  0  0  0  0  0  0  0  0  0  0
   90.8680   96.6200  -44.6760 C   0  0  0  0  0  0  0  0  0  0  0  0
   90.9980   95.6750  -45.6430 C   0  0  0  0  0  0  0  0  0  0  0  0
   91.4840   94.4200  -45.3400 C   0  0  0  0  0  0  0  0  0  0  0  0
   91.8400   94.1180  -44.0540 C   0  0  0  0  0  0  0  0  0  0  0  0
   91.7090   95.0730  -43.0790 C   0  0  0  0  0  0  0  0  0  0  0  0
   91.2210   96.3350  -43.3780 C   0  0  0  0  0  0  0  0  0  0  0  0
   92.3540   92.7880  -43.7180 C   0  0  0  0  0  0  0  0  0  0  0  0
   91.7010   91.7690  -44.0590 O   0  0  0  0  0  0  0  0  0  0  0  0
   93.5260   92.5880  -43.0410 O   0  0  0  0  0  0  0  0  0  0  0  0
   93.6840   92.8940  -41.6730 C   0  0  0  0  0  0  0  0  0  0  0  0
   93.0460   98.5700  -44.6780 O   0  0  0  0  0  0  0  0  0  0  0  0
   94.2640  103.1040  -42.5030 H   0  0  0  0  0  0  0  0  0  0  0  0
   93.4870  101.4460  -44.1730 H   0  0  0  0  0  0  0  0  0  0  0  0
   91.7820   99.0710  -41.1030 H   0  0  0  0  0  0  0  0  0  0  0  0
   92.5830  100.7210  -39.4420 H   0  0  0  0  0  0  0  0  0  0  0  0
   90.7610   98.3150  -46.0110 H   0  0  0  0  0  0  0  0  0  0  0  0
   88.1230   96.2640  -45.8850 H   0  0  0  0  0  0  0  0  0  0  0  0
   86.9090   97.4430  -45.3530 H   0  0  0  0  0  0  0  0  0  0  0  0
   88.3130   98.9630  -47.1500 H   0  0  0  0  0  0  0  0  0  0  0  0
   86.7850   98.1480  -47.4880 H   0  0  0  0  0  0  0  0  0  0  0  0
   89.4790   96.9080  -47.8910 H   0  0  0  0  0  0  0  0  0  0  0  0
   88.9320   98.9620  -49.3790 H   0  0  0  0  0  0  0  0  0  0  0  0
   87.5860   97.8800  -49.9470 H   0  0  0  0  0  0  0  0  0  0  0  0
   89.6800   97.6400  -51.3260 H   0  0  0  0  0  0  0  0  0  0  0  0
   90.4810   96.8680  -49.8430 H   0  0  0  0  0  0  0  0  0  0  0  0
   89.8150   95.3000  -48.9720 H   0  0  0  0  0  0  0  0  0  0  0  0
   88.4900   94.1420  -49.5720 H   0  0  0  0  0  0  0  0  0  0  0  0
   86.8850   96.1950  -49.0030 H   0  0  0  0  0  0  0  0  0  0  0  0
   87.6610   95.3590  -47.5630 H   0  0  0  0  0  0  0  0  0  0  0  0
   90.7320   95.8680  -46.6590 H   0  0  0  0  0  0  0  0  0  0  0  0
   91.5800   93.6870  -46.1090 H   0  0  0  0  0  0  0  0  0  0  0  0
   92.0020   94.8050  -42.0560 H   0  0  0  0  0  0  0  0  0  0  0  0
   91.1200   97.0740  -42.6210 H   0  0  0  0  0  0  0  0  0  0  0  0
   94.2060   93.8360  -41.4980 H   0  0  0  0  0  0  0  0  0  0  0  0
   92.6920   92.9280  -41.1570 H   0  0  0  0  0  0  0  0  0  0  0  0
   94.2800   92.0850  -41.1640 H   0  0  0  0  0  0  0  0  0  0  0  0
  2  7  1  0  0  0  0
  2  1  1  0  0  0  0
  3  2  2  0  0  0  0
  4  5  2  0  0  0  0
  4  3  1  0  0  0  0
  5  6  1  0  0  0  0
  6 37  1  0  0  0  0
  6  7  2  0  0  0  0
  7 38  1  0  0  0  0
  8  5  1  0  0  0  0
  9  8  2  0  0  0  0
  9 14  1  0  0  0  0
 10 39  1  6  0  0  0
 10 11  1  0  0  0  0
 10 24  1  0  0  0  0
 10  9  1  0  0  0  0
 11 12  1  0  0  0  0
 12 13  2  0  0  0  0
 12 14  1  0  0  0  0
 14 15  2  0  0  0  0
 16 41  1  0  0  0  0
 16 11  1  0  0  0  0
 17 42  1  0  0  0  0
 17 16  1  0  0  0  0
 18 44  1  0  0  0  0
 18 17  1  0  0  0  0
 19 45  1  0  0  0  0
 19 18  1  0  0  0  0
 20 48  1  0  0  0  0
 20 19  1  0  0  0  0
 21 20  1  0  0  0  0
 21 22  1  0  0  0  0
 22 49  1  0  0  0  0
 22 23  1  0  0  0  0
 23 18  1  0  0  0  0
 23 52  1  0  0  0  0
 24 29  1  0  0  0  0
 25 26  1  0  0  0  0
 25 24  2  0  0  0  0
 26 27  2  0  0  0  0
 27 30  1  0  0  0  0
 27 28  1  0  0  0  0
 28 55  1  0  0  0  0
 29 28  2  0  0  0  0
 29 56  1  0  0  0  0
 30 32  1  0  0  0  0
 31 30  2  0  0  0  0
 32 33  1  0  0  0  0
 33 57  1  0  0  0  0
 33 59  1  0  0  0  0
 33 58  1  0  0  0  0
 34  8  1  0  0  0  0
 35  3  1  0  0  0  0
 36  4  1  0  0  0  0
 40 16  1  0  0  0  0
 43 17  1  0  0  0  0
 46 19  1  0  0  0  0
 47 20  1  0  0  0  0
 50 22  1  0  0  0  0
 51 23  1  0  0  0  0
 53 25  1  0  0  0  0
 54 26  1  0  0  0  0
M  END
>  <Pose>
1

>  <Score>
-4.77

$$$$
