
 OpenBabel03212208273D

 53 56  0  0  1  0  0  0  0  0999 V2000
   96.0270  104.7200  -38.5520 B   0  0  0  0  0  0  0  0  0  0  0  0
   94.9390  103.3010  -39.2440 C   0  0  0  0  0  0  0  0  0  0  0  0
   93.6180  103.1710  -38.8780 C   0  0  0  0  0  0  0  0  0  0  0  0
   92.8380  102.1420  -39.3820 C   0  0  0  0  0  0  0  0  0  0  0  0
   93.3450  101.2130  -40.2630 C   0  0  0  0  0  0  0  0  0  0  0  0
   94.6650  101.3450  -40.6280 C   0  0  0  0  0  0  0  0  0  0  0  0
   95.4580  102.3810  -40.1230 C   0  0  0  0  0  0  0  0  0  0  0  0
   92.5150  100.1540  -40.8110 C   0  0  0  0  0  0  0  0  0  0  0  0
   91.6180  100.3160  -41.7640 C   0  0  0  0  0  0  0  0  0  0  0  0
   90.7090   99.3210  -42.4030 C   0  0  1  0  0  0  0  0  0  0  0  0
   89.5040  100.1160  -42.6910 N   0  0  0  0  0  0  0  0  0  0  0  0
   89.9900  101.4010  -43.0310 C   0  0  0  0  0  0  0  0  0  0  0  0
   89.3710  102.2370  -43.7010 O   0  0  0  0  0  0  0  0  0  0  0  0
   91.3250  101.5640  -42.4650 C   0  0  0  0  0  0  0  0  0  0  0  0
   92.1220  102.5330  -42.5200 O   0  0  0  0  0  0  0  0  0  0  0  0
   88.1950   99.5780  -42.6120 C   0  0  0  0  0  0  0  0  0  0  0  0
   87.0910  100.2970  -43.2710 C   0  0  0  0  0  0  0  0  0  0  0  0
   85.7670   99.9500  -42.8550 N   0  0  0  0  0  4  0  0  0  0  0  0
   85.2220   98.7700  -43.4300 C   0  0  0  0  0  0  0  0  0  0  0  0
   84.1770   99.1610  -44.4520 C   0  0  0  0  0  0  0  0  0  0  0  0
   84.5590  100.2700  -45.2020 O   0  0  0  0  0  0  0  0  0  0  0  0
   84.6180  101.4260  -44.4460 C   0  0  0  0  0  0  0  0  0  0  0  0
   84.8230  101.0360  -42.9990 C   0  0  0  0  0  0  0  0  0  0  0  0
   91.2660   98.6750  -43.5930 C   0  0  0  0  0  0  0  0  0  0  0  0
   91.1960   97.2860  -43.7560 C   0  0  0  0  0  0  0  0  0  0  0  0
   91.6920   96.6260  -44.8380 C   0  0  0  0  0  0  0  0  0  0  0  0
   92.3090   97.3340  -45.8520 C   0  0  0  0  0  0  0  0  0  0  0  0
   92.3940   98.6910  -45.7220 C   0  0  0  0  0  0  0  0  0  0  0  0
   91.8830   99.3680  -44.6100 C   0  0  0  0  0  0  0  0  0  0  0  0
   92.6780   98.8560  -40.2880 O   0  0  0  0  0  0  0  0  0  0  0  0
   93.2060  103.8900  -38.1900 H   0  0  0  0  0  0  0  0  0  0  0  0
   91.7960  102.0240  -39.1050 H   0  0  0  0  0  0  0  0  0  0  0  0
   95.1720  100.6920  -41.3230 H   0  0  0  0  0  0  0  0  0  0  0  0
   96.4990  102.4780  -40.4150 H   0  0  0  0  0  0  0  0  0  0  0  0
   90.4780   98.5280  -41.6620 H   0  0  0  0  0  0  0  0  0  0  0  0
   88.2460   98.5190  -42.9860 H   0  0  0  0  0  0  0  0  0  0  0  0
   87.9700   99.4320  -41.5120 H   0  0  0  0  0  0  0  0  0  0  0  0
   87.1420  100.0200  -44.3700 H   0  0  0  0  0  0  0  0  0  0  0  0
   87.1720  101.3950  -43.2640 H   0  0  0  0  0  0  0  0  0  0  0  0
   85.8460   99.7800  -41.8050 H   0  0  0  0  0  0  0  0  0  0  0  0
   85.9810   98.0820  -43.8560 H   0  0  0  0  0  0  0  0  0  0  0  0
   84.6790   98.1760  -42.6380 H   0  0  0  0  0  0  0  0  0  0  0  0
   83.2290   99.3290  -43.8950 H   0  0  0  0  0  0  0  0  0  0  0  0
   84.0130   98.2750  -45.1030 H   0  0  0  0  0  0  0  0  0  0  0  0
   83.6700  101.9930  -44.5270 H   0  0  0  0  0  0  0  0  0  0  0  0
   85.4180  102.0990  -44.8140 H   0  0  0  0  0  0  0  0  0  0  0  0
   85.1340  101.9290  -42.3810 H   0  0  0  0  0  0  0  0  0  0  0  0
   83.8280  100.7630  -42.5980 H   0  0  0  0  0  0  0  0  0  0  0  0
   90.7150   96.7080  -42.9730 H   0  0  0  0  0  0  0  0  0  0  0  0
   91.6150   95.5530  -44.9210 H   0  0  0  0  0  0  0  0  0  0  0  0
   92.7030   96.8000  -46.7110 H   0  0  0  0  0  0  0  0  0  0  0  0
   92.8620   99.2880  -46.4800 H   0  0  0  0  0  0  0  0  0  0  0  0
   91.9800  100.4250  -44.5670 H   0  0  0  0  0  0  0  0  0  0  0  0
  2  3  1  0  0  0  0
  2  1  1  0  0  0  0
  3 31  1  0  0  0  0
  4 32  1  0  0  0  0
  4  3  2  0  0  0  0
  5  4  1  0  0  0  0
  6  5  2  0  0  0  0
  6  7  1  0  0  0  0
  7  2  2  0  0  0  0
  8 30  1  0  0  0  0
  8  5  1  0  0  0  0
  9  8  2  0  0  0  0
 10  9  1  0  0  0  0
 10 35  1  1  0  0  0
 11 16  1  0  0  0  0
 11 10  1  0  0  0  0
 12 11  1  0  0  0  0
 12 14  1  0  0  0  0
 13 12  2  0  0  0  0
 14  9  1  0  0  0  0
 15 14  2  0  0  0  0
 16 37  1  0  0  0  0
 17 39  1  0  0  0  0
 17 18  1  0  0  0  0
 17 16  1  0  0  0  0
 18 40  1  0  0  0  0
 19 18  1  0  0  0  0
 19 42  1  0  0  0  0
 20 43  1  0  0  0  0
 20 19  1  0  0  0  0
 21 20  1  0  0  0  0
 21 22  1  0  0  0  0
 22 23  1  0  0  0  0
 23 18  1  0  0  0  0
 23 48  1  0  0  0  0
 23 47  1  0  0  0  0
 24 10  1  0  0  0  0
 25 24  1  0  0  0  0
 25 49  1  0  0  0  0
 26 25  2  0  0  0  0
 27 28  2  0  0  0  0
 27 26  1  0  0  0  0
 28 29  1  0  0  0  0
 29 53  1  0  0  0  0
 29 24  2  0  0  0  0
 33  6  1  0  0  0  0
 34  7  1  0  0  0  0
 36 16  1  0  0  0  0
 38 17  1  0  0  0  0
 41 19  1  0  0  0  0
 44 20  1  0  0  0  0
 45 22  1  0  0  0  0
 46 22  1  0  0  0  0
 50 26  1  0  0  0  0
 51 27  1  0  0  0  0
 52 28  1  0  0  0  0
M  END
>  <Pose>
1

>  <Score>
-4.78

$$$$
