
 OpenBabel03212208273D

 48 51  0  0  1  0  0  0  0  0999 V2000
   91.5890  103.8700  -39.2070 B   0  0  0  0  0  0  0  0  0  0  0  0
   91.7850  102.2080  -40.1380 C   0  0  0  0  0  0  0  0  0  0  0  0
   92.9790  101.5280  -40.0570 C   0  0  0  0  0  0  0  0  0  0  0  0
   93.1130  100.3410  -40.7250 C   0  0  0  0  0  0  0  0  0  0  0  0
   92.0700   99.8410  -41.4640 C   0  0  0  0  0  0  0  0  0  0  0  0
   90.8930  100.5480  -41.5220 C   0  0  0  0  0  0  0  0  0  0  0  0
   90.7090  101.7540  -40.8640 C   0  0  0  0  0  0  0  0  0  0  0  0
   92.2220   98.5320  -42.2030 C   0  0  1  0  0  0  0  0  0  0  0  0
   91.1090   97.7690  -41.9070 O   0  0  0  0  0  0  0  0  0  0  0  0
   92.4310   98.7730  -43.6680 C   0  0  0  0  0  0  0  0  0  0  0  0
   91.3140   98.3790  -44.4760 N   0  0  0  0  0  0  0  0  0  0  0  0
   91.1980   97.1270  -44.9790 C   0  0  0  0  0  0  0  0  0  0  0  0
   90.0150   97.1080  -45.7010 C   0  0  0  0  0  0  0  0  0  0  0  0
   89.6370   95.9350  -46.3250 C   0  0  0  0  0  0  0  0  0  0  0  0
   90.4140   94.7720  -46.2480 C   0  0  0  0  0  0  0  0  0  0  0  0
   91.5900   94.8400  -45.5130 C   0  0  0  0  0  0  0  0  0  0  0  0
   91.9890   95.9930  -44.8830 C   0  0  0  0  0  0  0  0  0  0  0  0
   89.4150   98.3350  -45.6430 N   0  0  0  0  0  0  0  0  0  0  0  0
   90.2450   99.0930  -44.8780 C   0  0  1  0  0  0  0  0  0  0  0  0
   90.0100  100.3290  -44.5920 N   0  0  0  0  0  0  0  0  0  0  0  0
   88.1820   98.6570  -46.2980 C   0  0  0  0  0  0  0  0  0  0  0  0
   86.9630   98.2320  -45.5270 C   0  0  0  0  0  0  0  0  0  0  0  0
   86.6720   98.8640  -44.3300 C   0  0  0  0  0  0  0  0  0  0  0  0
   85.5700   98.5320  -43.5660 C   0  0  0  0  0  0  0  0  0  0  0  0
   84.7520   97.5350  -44.0360 C   0  0  0  0  0  0  0  0  0  0  0  0
   85.0170   96.8930  -45.2170 C   0  0  0  0  0  0  0  0  0  0  0  0
   86.1170   97.2460  -45.9510 C   0  0  0  0  0  0  0  0  0  0  0  0
   93.8160  101.9420  -39.4560 H   0  0  0  0  0  0  0  0  0  0  0  0
   94.0480   99.7930  -40.6700 H   0  0  0  0  0  0  0  0  0  0  0  0
   90.0450  100.1620  -42.1140 H   0  0  0  0  0  0  0  0  0  0  0  0
   89.7660  102.3070  -40.9190 H   0  0  0  0  0  0  0  0  0  0  0  0
   93.0940   98.0050  -41.7350 H   0  0  0  0  0  0  0  0  0  0  0  0
   90.7740   97.8990  -40.9990 H   0  0  0  0  0  0  0  0  0  0  0  0
   92.5200   99.8940  -43.7860 H   0  0  0  0  0  0  0  0  0  0  0  0
   93.3770   98.3690  -44.0470 H   0  0  0  0  0  0  0  0  0  0  0  0
   88.7080   95.9260  -46.8770 H   0  0  0  0  0  0  0  0  0  0  0  0
   90.0810   93.8900  -46.7470 H   0  0  0  0  0  0  0  0  0  0  0  0
   92.2030   93.9490  -45.4430 H   0  0  0  0  0  0  0  0  0  0  0  0
   92.9090   96.0070  -44.3210 H   0  0  0  0  0  0  0  0  0  0  0  0
   90.7080  100.8580  -43.9870 H   0  0  0  0  0  0  0  0  0  0  0  0
   89.2000  100.8800  -44.8840 H   0  0  0  0  0  0  0  0  0  0  0  0
   88.1110   98.1660  -47.2960 H   0  0  0  0  0  0  0  0  0  0  0  0
   88.1200   99.7570  -46.4250 H   0  0  0  0  0  0  0  0  0  0  0  0
   87.3110   99.6640  -43.9210 H   0  0  0  0  0  0  0  0  0  0  0  0
   85.3530   99.0440  -42.6190 H   0  0  0  0  0  0  0  0  0  0  0  0
   83.8700   97.2360  -43.4720 H   0  0  0  0  0  0  0  0  0  0  0  0
   84.3280   96.0960  -45.5540 H   0  0  0  0  0  0  0  0  0  0  0  0
   86.3070   96.7330  -46.8630 H   0  0  0  0  0  0  0  0  0  0  0  0
  2  3  1  0  0  0  0
  2  1  1  0  0  0  0
  3 28  1  0  0  0  0
  4 29  1  0  0  0  0
  4  3  2  0  0  0  0
  5  4  1  0  0  0  0
  6  5  2  0  0  0  0
  6  7  1  0  0  0  0
  7  2  2  0  0  0  0
  8  9  1  0  0  0  0
  8 32  1  1  0  0  0
  8  5  1  0  0  0  0
  9 33  1  0  0  0  0
 10  8  1  0  0  0  0
 11 10  1  0  0  0  0
 12 17  1  0  0  0  0
 12 11  1  0  0  0  0
 13 18  1  0  0  0  0
 13 12  2  0  0  0  0
 14 15  2  0  0  0  0
 14 13  1  0  0  0  0
 15 16  1  0  0  0  0
 16 38  1  0  0  0  0
 16 17  2  0  0  0  0
 17 39  1  0  0  0  0
 18 19  1  0  0  0  0
 19 20  1  1  0  0  0
 19 11  1  0  0  0  0
 20 40  1  0  0  0  0
 21 18  1  0  0  0  0
 21 22  1  0  0  0  0
 22 23  1  0  0  0  0
 23 44  1  0  0  0  0
 23 24  2  0  0  0  0
 24 45  1  0  0  0  0
 25 24  1  0  0  0  0
 25 46  1  0  0  0  0
 26 25  2  0  0  0  0
 27 22  2  0  0  0  0
 27 26  1  0  0  0  0
 30  6  1  0  0  0  0
 31  7  1  0  0  0  0
 34 10  1  0  0  0  0
 35 10  1  0  0  0  0
 36 14  1  0  0  0  0
 37 15  1  0  0  0  0
 41 20  1  0  0  0  0
 42 21  1  0  0  0  0
 43 21  1  0  0  0  0
 47 26  1  0  0  0  0
 48 27  1  0  0  0  0
M  END
>  <Pose>
1

>  <Score>
-4.54

$$$$
