
 OpenBabel03212208273D

 50 54  0  0  1  0  0  0  0  0999 V2000
   88.2290  102.5770  -48.5130 B   0  0  0  0  0  0  0  0  0  0  0  0
   88.8660  100.9900  -47.6910 C   0  0  0  0  0  0  0  0  0  0  0  0
   87.9780  100.0700  -47.1670 C   0  0  0  0  0  0  0  0  0  0  0  0
   88.4480   98.9060  -46.5660 C   0  0  0  0  0  0  0  0  0  0  0  0
   89.7940   98.6310  -46.4710 C   0  0  0  0  0  0  0  0  0  0  0  0
   90.6720   99.5520  -46.9970 C   0  0  0  0  0  0  0  0  0  0  0  0
   90.2180  100.7260  -47.6040 C   0  0  0  0  0  0  0  0  0  0  0  0
   90.2870   97.4110  -45.8400 C   0  0  0  0  0  0  0  0  0  0  0  0
   90.4020   96.1950  -46.4140 N   0  0  0  0  0  0  0  0  0  0  0  0
   90.8980   95.3040  -45.5200 C   0  0  2  0  0  0  0  0  0  0  0  0
   91.1070   95.9450  -44.3580 N   0  0  0  0  0  0  0  0  0  0  0  0
   90.7360   97.2320  -44.5480 C   0  0  0  0  0  0  0  0  0  0  0  0
   91.5970   95.0230  -43.5070 C   0  0  0  0  0  0  0  0  0  0  0  0
   91.6960   93.8010  -44.1380 C   0  0  0  0  0  0  0  0  0  0  0  0
   92.1750   92.6690  -43.4870 C   0  0  0  0  0  0  0  0  0  0  0  0
   92.5660   92.7560  -42.1710 C   0  0  0  0  0  0  0  0  0  0  0  0
   92.4640   93.9820  -41.5490 C   0  0  0  0  0  0  0  0  0  0  0  0
   91.9930   95.1190  -42.1700 C   0  0  0  0  0  0  0  0  0  0  0  0
   91.2480   94.0130  -45.4040 N   0  0  0  0  0  0  0  0  0  0  0  0
   91.1930   92.9590  -46.3950 C   0  0  0  0  0  0  0  0  0  0  0  0
   91.9730   91.7380  -45.9580 C   0  0  0  0  0  0  0  0  0  0  0  0
   91.6410   90.6120  -46.7830 N   0  0  0  0  0  4  0  0  0  0  0  0
   92.8440   89.9600  -47.2560 C   0  0  0  0  0  0  0  0  0  0  0  0
   92.7830   89.6190  -48.7250 C   0  0  0  0  0  0  0  0  0  0  0  0
   91.5990   88.9230  -48.9770 O   0  0  0  0  0  0  0  0  0  0  0  0
   90.4810   89.6520  -48.6310 C   0  0  0  0  0  0  0  0  0  0  0  0
   90.8350   90.9330  -47.9230 C   0  0  0  0  0  0  0  0  0  0  0  0
   86.9140  100.2790  -47.2380 H   0  0  0  0  0  0  0  0  0  0  0  0
   87.7280   98.2190  -46.1710 H   0  0  0  0  0  0  0  0  0  0  0  0
   91.7370   99.3920  -46.9530 H   0  0  0  0  0  0  0  0  0  0  0  0
   90.9270  101.4460  -48.0160 H   0  0  0  0  0  0  0  0  0  0  0  0
   90.1540   95.9520  -47.3940 H   0  0  0  0  0  0  0  0  0  0  0  0
   90.7780   98.0160  -43.8050 H   0  0  0  0  0  0  0  0  0  0  0  0
   92.2260   91.7490  -44.0350 H   0  0  0  0  0  0  0  0  0  0  0  0
   92.9500   91.8810  -41.6240 H   0  0  0  0  0  0  0  0  0  0  0  0
   92.7670   94.0600  -40.5200 H   0  0  0  0  0  0  0  0  0  0  0  0
   91.9070   96.0730  -41.7060 H   0  0  0  0  0  0  0  0  0  0  0  0
   90.1320   92.6460  -46.5480 H   0  0  0  0  0  0  0  0  0  0  0  0
   91.5620   93.3490  -47.3630 H   0  0  0  0  0  0  0  0  0  0  0  0
   91.7600   91.4820  -44.9190 H   0  0  0  0  0  0  0  0  0  0  0  0
   93.0480   91.9720  -46.0810 H   0  0  0  0  0  0  0  0  0  0  0  0
   91.1160   89.8910  -46.2250 H   0  0  0  0  0  0  0  0  0  0  0  0
   93.7430   90.6150  -47.0780 H   0  0  0  0  0  0  0  0  0  0  0  0
   93.0500   89.0130  -46.7090 H   0  0  0  0  0  0  0  0  0  0  0  0
   93.6380   88.9430  -48.9310 H   0  0  0  0  0  0  0  0  0  0  0  0
   92.8880   90.5290  -49.3380 H   0  0  0  0  0  0  0  0  0  0  0  0
   89.9640   89.9190  -49.5960 H   0  0  0  0  0  0  0  0  0  0  0  0
   89.7640   89.0750  -48.0040 H   0  0  0  0  0  0  0  0  0  0  0  0
   89.8620   91.3560  -47.5420 H   0  0  0  0  0  0  0  0  0  0  0  0
   91.3140   91.6190  -48.6340 H   0  0  0  0  0  0  0  0  0  0  0  0
  1  2  1  0  0  0  0
  2  7  2  0  0  0  0
  2  3  1  0  0  0  0
  3  4  2  0  0  0  0
  4  5  1  0  0  0  0
  4 29  1  0  0  0  0
  5  8  1  0  0  0  0
  6 30  1  0  0  0  0
  6  5  2  0  0  0  0
  7  6  1  0  0  0  0
  8 12  2  0  0  0  0
  9  8  1  0  0  0  0
 10  9  1  6  0  0  0
 10 19  1  0  0  0  0
 10 11  1  0  0  0  0
 11 13  1  0  0  0  0
 12 11  1  0  0  0  0
 12 33  1  0  0  0  0
 13 18  1  0  0  0  0
 14 13  2  0  0  0  0
 14 15  1  0  0  0  0
 15 16  2  0  0  0  0
 16 35  1  0  0  0  0
 16 17  1  0  0  0  0
 17 36  1  0  0  0  0
 18 37  1  0  0  0  0
 18 17  2  0  0  0  0
 19 14  1  0  0  0  0
 20 21  1  0  0  0  0
 20 19  1  0  0  0  0
 21 40  1  0  0  0  0
 22 42  1  0  0  0  0
 22 21  1  0  0  0  0
 23 43  1  0  0  0  0
 23 22  1  0  0  0  0
 23 44  1  0  0  0  0
 24 23  1  0  0  0  0
 25 24  1  0  0  0  0
 25 26  1  0  0  0  0
 26 48  1  0  0  0  0
 26 27  1  0  0  0  0
 27 49  1  0  0  0  0
 27 22  1  0  0  0  0
 28  3  1  0  0  0  0
 31  7  1  0  0  0  0
 32  9  1  0  0  0  0
 34 15  1  0  0  0  0
 38 20  1  0  0  0  0
 39 20  1  0  0  0  0
 41 21  1  0  0  0  0
 45 24  1  0  0  0  0
 46 24  1  0  0  0  0
 47 26  1  0  0  0  0
 50 27  1  0  0  0  0
M  END
>  <Pose>
1

>  <Score>
-5.34

$$$$
