
 OpenBabel03212208273D

 57 60  0  0  0  0  0  0  0  0999 V2000
   90.7840  103.4190  -40.8450 B   0  0  0  0  0  0  0  0  0  0  0  0
   90.9890  101.6090  -41.4290 C   0  0  0  0  0  0  0  0  0  0  0  0
   92.2140  101.0200  -41.3090 C   0  0  0  0  0  0  0  0  0  0  0  0
   92.3760   99.7170  -41.7290 C   0  0  0  0  0  0  0  0  0  0  0  0
   91.3460   98.9570  -42.2770 C   0  0  0  0  0  0  0  0  0  0  0  0
   90.1270   99.5720  -42.3850 C   0  0  0  0  0  0  0  0  0  0  0  0
   89.9360  100.8990  -41.9640 C   0  0  0  0  0  0  0  0  0  0  0  0
   91.5210   97.6020  -42.7280 C   0  0  0  0  0  0  0  0  0  0  0  0
   91.3370   97.2720  -44.0490 C   0  0  0  0  0  0  0  0  0  0  0  0
   91.4600   96.0400  -44.5040 O   0  0  0  0  0  0  0  0  0  0  0  0
   91.7680   95.0450  -43.7120 C   0  0  0  0  0  0  0  0  0  0  0  0
   91.9640   95.3040  -42.4020 C   0  0  0  0  0  0  0  0  0  0  0  0
   92.2860   94.2770  -41.5430 C   0  0  0  0  0  0  0  0  0  0  0  0
   92.3990   93.0090  -42.0540 C   0  0  0  0  0  0  0  0  0  0  0  0
   92.1930   92.7490  -43.4220 C   0  0  0  0  0  0  0  0  0  0  0  0
   91.8740   93.7500  -44.2910 C   0  0  0  0  0  0  0  0  0  0  0  0
   91.6550   93.6440  -45.7130 C   0  0  0  0  0  0  0  0  0  0  0  0
   91.0900   92.5140  -46.3290 N   0  0  0  0  0  4  0  0  0  0  0  0
   91.9860   91.4140  -46.3740 C   0  0  0  0  0  0  0  0  0  0  0  0
   91.8450   90.4150  -47.4540 C   0  0  0  0  0  0  0  0  0  0  0  0
   91.1150   90.8720  -48.5560 N   0  0  0  0  0  0  0  0  0  0  0  0
   89.9320   91.5810  -48.3290 C   0  0  0  0  0  0  0  0  0  0  0  0
   90.1560   92.7140  -47.3770 C   0  0  0  0  0  0  0  0  0  0  0  0
   91.5670   90.6290  -49.8610 C   0  0  0  0  0  0  0  0  0  0  0  0
   92.3480   91.4140  -43.7540 O   0  0  0  0  0  0  0  0  0  0  0  0
   91.8540   96.5670  -41.8520 C   0  0  0  0  0  0  0  0  0  0  0  0
   92.0330   96.8020  -40.6530 O   0  0  0  0  0  0  0  0  0  0  0  0
   90.9880   98.3480  -44.9900 C   0  0  0  0  0  0  0  0  0  0  0  0
   89.8930   98.2650  -45.5990 O   0  0  0  0  0  0  0  0  0  0  0  0
   91.7840   99.4240  -45.2350 O   0  0  0  0  0  0  0  0  0  0  0  0
   92.7560   99.3800  -46.2510 C   0  0  0  0  0  0  0  0  0  0  0  0
   92.5360  100.5330  -47.1910 C   0  0  0  0  0  0  0  0  0  0  0  0
   93.0390  101.6020  -40.8810 H   0  0  0  0  0  0  0  0  0  0  0  0
   93.3290   99.2620  -41.6350 H   0  0  0  0  0  0  0  0  0  0  0  0
   89.2590   99.0780  -42.7940 H   0  0  0  0  0  0  0  0  0  0  0  0
   88.9780  101.3780  -42.0530 H   0  0  0  0  0  0  0  0  0  0  0  0
   92.4420   94.5020  -40.4900 H   0  0  0  0  0  0  0  0  0  0  0  0
   92.6540   92.1980  -41.3940 H   0  0  0  0  0  0  0  0  0  0  0  0
   92.6470   93.8620  -46.2760 H   0  0  0  0  0  0  0  0  0  0  0  0
   91.0450   94.5460  -46.0610 H   0  0  0  0  0  0  0  0  0  0  0  0
   90.3870   92.1650  -45.5050 H   0  0  0  0  0  0  0  0  0  0  0  0
   93.0420   91.8060  -46.3820 H   0  0  0  0  0  0  0  0  0  0  0  0
   91.9870   90.8390  -45.3770 H   0  0  0  0  0  0  0  0  0  0  0  0
   91.4040   89.4340  -47.0730 H   0  0  0  0  0  0  0  0  0  0  0  0
   92.8570   90.0670  -47.8400 H   0  0  0  0  0  0  0  0  0  0  0  0
   89.0800   90.9520  -47.9490 H   0  0  0  0  0  0  0  0  0  0  0  0
   89.5540   91.9830  -49.3040 H   0  0  0  0  0  0  0  0  0  0  0  0
   90.3820   93.6450  -47.9340 H   0  0  0  0  0  0  0  0  0  0  0  0
   89.1110   92.9440  -46.9640 H   0  0  0  0  0  0  0  0  0  0  0  0
   91.4250   91.5420  -50.4780 H   0  0  0  0  0  0  0  0  0  0  0  0
   92.6860   90.4840  -49.8410 H   0  0  0  0  0  0  0  0  0  0  0  0
   91.1780   89.7210  -50.3610 H   0  0  0  0  0  0  0  0  0  0  0  0
   93.7950   99.3810  -45.8310 H   0  0  0  0  0  0  0  0  0  0  0  0
   92.6990   98.3980  -46.8080 H   0  0  0  0  0  0  0  0  0  0  0  0
   92.6200  100.2100  -48.2640 H   0  0  0  0  0  0  0  0  0  0  0  0
   91.5700  101.0110  -46.9540 H   0  0  0  0  0  0  0  0  0  0  0  0
   93.3410  101.2790  -46.9580 H   0  0  0  0  0  0  0  0  0  0  0  0
  2  3  1  0  0  0  0
  2  1  1  0  0  0  0
  3 33  1  0  0  0  0
  4 34  1  0  0  0  0
  4  3  2  0  0  0  0
  5  4  1  0  0  0  0
  6  5  2  0  0  0  0
  6  7  1  0  0  0  0
  7  2  2  0  0  0  0
  8  5  1  0  0  0  0
  8 26  1  0  0  0  0
  9  8  2  0  0  0  0
 10  9  1  0  0  0  0
 10 11  1  0  0  0  0
 11 12  1  0  0  0  0
 12 26  1  0  0  0  0
 12 13  2  0  0  0  0
 13 37  1  0  0  0  0
 14 13  1  0  0  0  0
 14 38  1  0  0  0  0
 15 14  2  0  0  0  0
 16 11  2  0  0  0  0
 16 15  1  0  0  0  0
 17 16  1  0  0  0  0
 18 17  1  0  0  0  0
 18 41  1  0  0  0  0
 19 18  1  0  0  0  0
 19 43  1  0  0  0  0
 20 44  1  0  0  0  0
 20 19  1  0  0  0  0
 21 22  1  0  0  0  0
 21 20  1  0  0  0  0
 22 46  1  0  0  0  0
 22 23  1  0  0  0  0
 23 49  1  0  0  0  0
 23 18  1  0  0  0  0
 24 51  1  0  0  0  0
 24 21  1  0  0  0  0
 25 15  1  0  0  0  0
 26 27  2  0  0  0  0
 28  9  1  0  0  0  0
 29 28  2  0  0  0  0
 30 28  1  0  0  0  0
 31 53  1  0  0  0  0
 31 30  1  0  0  0  0
 32 57  1  0  0  0  0
 32 56  1  0  0  0  0
 32 31  1  0  0  0  0
 35  6  1  0  0  0  0
 36  7  1  0  0  0  0
 39 17  1  0  0  0  0
 40 17  1  0  0  0  0
 42 19  1  0  0  0  0
 45 20  1  0  0  0  0
 47 22  1  0  0  0  0
 48 23  1  0  0  0  0
 50 24  1  0  0  0  0
 52 24  1  0  0  0  0
 54 31  1  0  0  0  0
 55 32  1  0  0  0  0
M  END
>  <Pose>
1

>  <Score>
-4.87

$$$$
