
 OpenBabel03212208273D

 58 62  0  0  1  0  0  0  0  0999 V2000
   91.9330  103.0140  -39.0200 B   0  0  0  0  0  0  0  0  0  0  0  0
   91.7570  101.5520  -40.2620 C   0  0  0  0  0  0  0  0  0  0  0  0
   92.6640  100.5370  -40.3020 C   0  0  0  0  0  0  0  0  0  0  0  0
   92.5350   99.5020  -41.1840 C   0  0  0  0  0  0  0  0  0  0  0  0
   91.4860   99.4290  -42.0790 C   0  0  0  0  0  0  0  0  0  0  0  0
   90.5850  100.4370  -42.0400 C   0  0  0  0  0  0  0  0  0  0  0  0
   90.7040  101.5170  -41.1320 C   0  0  0  0  0  0  0  0  0  0  0  0
   91.4290   98.3050  -42.9880 C   0  0  0  0  0  0  0  0  0  0  0  0
   91.7310   96.9910  -42.5930 C   0  0  0  0  0  0  0  0  0  0  0  0
   91.5610   96.2230  -43.6620 N   0  0  0  0  0  0  0  0  0  0  0  0
   91.6560   94.9050  -44.0170 C   0  0  0  0  0  0  0  0  0  0  0  0
   91.3040   94.8610  -45.3420 C   0  0  0  0  0  0  0  0  0  0  0  0
   91.0220   96.0990  -45.7180 N   0  0  0  0  0  0  0  0  0  0  0  0
   91.1800   96.9640  -44.6760 C   0  0  1  0  0  0  0  0  0  0  0  0
   91.0900   98.2690  -44.2810 N   0  0  0  0  0  0  0  0  0  0  0  0
   90.6780   99.2940  -45.1900 C   0  0  0  0  0  0  0  0  0  0  0  0
   89.2440   99.6430  -45.2160 C   0  0  0  0  0  0  0  0  0  0  0  0
   88.2690   98.7180  -44.5830 C   0  0  0  0  0  0  0  0  0  0  0  0
   86.9260   99.2520  -44.5980 N   0  0  0  0  0  4  0  0  0  0  0  0
   85.9540   98.3270  -45.1020 C   0  0  0  0  0  0  0  0  0  0  0  0
   86.5230   97.1010  -45.7570 C   0  0  0  0  0  0  0  0  0  0  0  0
   85.3980   96.5230  -46.6300 C   0  0  0  0  0  0  0  0  0  0  0  0
   84.2650   96.1350  -45.7450 C   0  0  0  0  0  0  0  0  0  0  0  0
   83.7990   97.2420  -44.8290 C   0  0  0  0  0  0  0  0  0  0  0  0
   84.9810   97.8240  -44.0440 C   0  0  0  0  0  0  0  0  0  0  0  0
   91.2860   93.6560  -46.0510 C   0  0  0  0  0  0  0  0  0  0  0  0
   91.6300   92.4840  -45.4120 C   0  0  0  0  0  0  0  0  0  0  0  0
   91.9800   92.5560  -44.0830 C   0  0  0  0  0  0  0  0  0  0  0  0
   91.9990   93.7490  -43.3710 C   0  0  0  0  0  0  0  0  0  0  0  0
   93.5180  100.5510  -39.6070 H   0  0  0  0  0  0  0  0  0  0  0  0
   93.3070   98.7060  -41.1610 H   0  0  0  0  0  0  0  0  0  0  0  0
   89.7370  100.5250  -42.6600 H   0  0  0  0  0  0  0  0  0  0  0  0
   89.9820  102.3140  -41.1090 H   0  0  0  0  0  0  0  0  0  0  0  0
   92.0450   96.6620  -41.6070 H   0  0  0  0  0  0  0  0  0  0  0  0
   90.7150   96.3390  -46.6790 H   0  0  0  0  0  0  0  0  0  0  0  0
   91.0930   99.1620  -46.1850 H   0  0  0  0  0  0  0  0  0  0  0  0
   91.1890  100.2720  -44.8110 H   0  0  0  0  0  0  0  0  0  0  0  0
   89.1660  100.6080  -44.6070 H   0  0  0  0  0  0  0  0  0  0  0  0
   88.8710  100.0030  -46.2240 H   0  0  0  0  0  0  0  0  0  0  0  0
   88.5070   98.4710  -43.5280 H   0  0  0  0  0  0  0  0  0  0  0  0
   88.2400   97.7950  -45.2290 H   0  0  0  0  0  0  0  0  0  0  0  0
   86.6120   99.7190  -43.7500 H   0  0  0  0  0  0  0  0  0  0  0  0
   86.9500  100.0520  -45.3310 H   0  0  0  0  0  0  0  0  0  0  0  0
   85.2870   98.8180  -45.8740 H   0  0  0  0  0  0  0  0  0  0  0  0
   87.4250   97.2760  -46.3430 H   0  0  0  0  0  0  0  0  0  0  0  0
   86.6950   96.3180  -44.9640 H   0  0  0  0  0  0  0  0  0  0  0  0
   85.0910   97.3000  -47.3760 H   0  0  0  0  0  0  0  0  0  0  0  0
   85.7670   95.6140  -47.1360 H   0  0  0  0  0  0  0  0  0  0  0  0
   83.4020   95.8650  -46.3870 H   0  0  0  0  0  0  0  0  0  0  0  0
   84.5530   95.2470  -45.1530 H   0  0  0  0  0  0  0  0  0  0  0  0
   83.0900   96.7970  -44.1120 H   0  0  0  0  0  0  0  0  0  0  0  0
   83.3540   98.0320  -45.4360 H   0  0  0  0  0  0  0  0  0  0  0  0
   85.4500   96.9980  -43.4510 H   0  0  0  0  0  0  0  0  0  0  0  0
   84.6290   98.6690  -43.4550 H   0  0  0  0  0  0  0  0  0  0  0  0
   91.0110   93.6110  -47.0900 H   0  0  0  0  0  0  0  0  0  0  0  0
   91.6280   91.5170  -45.9360 H   0  0  0  0  0  0  0  0  0  0  0  0
   92.2480   91.6420  -43.5850 H   0  0  0  0  0  0  0  0  0  0  0  0
   92.2720   93.8030  -42.3370 H   0  0  0  0  0  0  0  0  0  0  0  0
  2  1  1  0  0  0  0
  3  2  1  0  0  0  0
  3 30  1  0  0  0  0
  4 31  1  0  0  0  0
  4  3  2  0  0  0  0
  5  6  2  0  0  0  0
  5  4  1  0  0  0  0
  6  7  1  0  0  0  0
  7 33  1  0  0  0  0
  7  2  2  0  0  0  0
  8  9  2  0  0  0  0
  8  5  1  0  0  0  0
  9 34  1  0  0  0  0
 10  9  1  0  0  0  0
 11 10  1  0  0  0  0
 11 29  1  0  0  0  0
 12 11  2  0  0  0  0
 13 12  1  0  0  0  0
 14 13  1  1  0  0  0
 14 15  1  0  0  0  0
 14 10  1  0  0  0  0
 15  8  1  0  0  0  0
 16 37  1  0  0  0  0
 16 15  1  0  0  0  0
 17 16  1  0  0  0  0
 17 38  1  0  0  0  0
 17 18  1  0  0  0  0
 18 40  1  0  0  0  0
 19 18  1  0  0  0  0
 19 42  1  0  0  0  0
 20 19  1  0  0  0  0
 20 25  1  0  0  0  0
 21 20  1  0  0  0  0
 21 46  1  0  0  0  0
 22 21  1  0  0  0  0
 22 23  1  0  0  0  0
 23 50  1  0  0  0  0
 23 24  1  0  0  0  0
 24 51  1  0  0  0  0
 24 25  1  0  0  0  0
 25 54  1  0  0  0  0
 25 53  1  0  0  0  0
 26 27  2  0  0  0  0
 26 12  1  0  0  0  0
 27 28  1  0  0  0  0
 28 57  1  0  0  0  0
 28 29  2  0  0  0  0
 29 58  1  0  0  0  0
 32  6  1  0  0  0  0
 35 13  1  0  0  0  0
 36 16  1  0  0  0  0
 39 17  1  0  0  0  0
 41 18  1  0  0  0  0
 43 19  1  0  0  0  0
 44 20  1  0  0  0  0
 45 21  1  0  0  0  0
 47 22  1  0  0  0  0
 48 22  1  0  0  0  0
 49 23  1  0  0  0  0
 52 24  1  0  0  0  0
 55 26  1  0  0  0  0
 56 27  1  0  0  0  0
M  END
>  <Pose>
1

>  <Score>
-5.37

$$$$
