
 OpenBabel03212208273D

 61 65  0  0  1  0  0  0  0  0999 V2000
   90.6960  102.8940  -40.5950 B   0  0  0  0  0  0  0  0  0  0  0  0
   90.7840  101.2270  -41.5390 C   0  0  0  0  0  0  0  0  0  0  0  0
   89.6720  100.7000  -42.1440 C   0  0  0  0  0  0  0  0  0  0  0  0
   89.7380   99.4790  -42.8350 C   0  0  0  0  0  0  0  0  0  0  0  0
   90.8810   98.7540  -42.9460 C   0  0  0  0  0  0  0  0  0  0  0  0
   92.0000   99.3090  -42.3240 C   0  0  0  0  0  0  0  0  0  0  0  0
   91.9450  100.5140  -41.6410 C   0  0  0  0  0  0  0  0  0  0  0  0
   91.0200   97.4570  -43.6060 C   0  0  0  0  0  0  0  0  0  0  0  0
   91.7240   96.3720  -43.0480 C   0  0  0  0  0  0  0  0  0  0  0  0
   91.6600   95.3030  -43.8480 N   0  0  0  0  0  0  0  0  0  0  0  0
   92.0460   94.0100  -43.9850 C   0  0  0  0  0  0  0  0  0  0  0  0
   91.5280   93.5810  -45.1830 C   0  0  0  0  0  0  0  0  0  0  0  0
   90.8430   94.6190  -45.7400 N   0  0  0  0  0  0  0  0  0  0  0  0
   90.9380   95.6690  -44.9030 C   0  0  1  0  0  0  0  0  0  0  0  0
   90.5440   96.9840  -44.7590 N   0  0  0  0  0  0  0  0  0  0  0  0
   89.7230   97.6650  -45.7390 C   0  0  0  0  0  0  0  0  0  0  0  0
   88.8150   96.7490  -46.5240 C   0  0  0  0  0  0  0  0  0  0  0  0
   87.9730   97.5230  -47.5060 C   0  0  0  0  0  0  0  0  0  0  0  0
   86.5630   97.2520  -47.4400 N   0  0  0  0  0  0  0  0  0  0  0  0
   85.9090   98.5510  -47.4150 C   0  0  0  0  0  0  0  0  0  0  0  0
   84.8320   98.6840  -46.4050 C   0  0  0  0  0  0  0  0  0  0  0  0
   85.1280   98.1730  -45.0950 N   0  0  0  0  0  4  0  0  0  0  0  0
   86.1930   97.1930  -45.0830 C   0  0  0  0  0  0  0  0  0  0  0  0
   86.1320   96.4070  -46.3760 C   0  0  0  0  0  0  0  0  0  0  0  0
   85.2620   99.2160  -44.1280 C   0  0  0  0  0  0  0  0  0  0  0  0
   84.1100   99.4010  -43.2000 C   0  0  0  0  0  0  0  0  0  0  0  0
   83.9520   98.3610  -42.2870 O   0  0  0  0  0  0  0  0  0  0  0  0
   91.7770   92.2810  -45.5680 C   0  0  0  0  0  0  0  0  0  0  0  0
   92.5270   91.4150  -44.7820 C   0  0  0  0  0  0  0  0  0  0  0  0
   93.0430   91.8450  -43.5860 C   0  0  0  0  0  0  0  0  0  0  0  0
   92.7900   93.1660  -43.1960 C   0  0  0  0  0  0  0  0  0  0  0  0
   88.7340  101.2340  -42.0870 H   0  0  0  0  0  0  0  0  0  0  0  0
   88.8260   99.1680  -43.2820 H   0  0  0  0  0  0  0  0  0  0  0  0
   92.9260   98.7620  -42.3870 H   0  0  0  0  0  0  0  0  0  0  0  0
   92.8340  100.9000  -41.1760 H   0  0  0  0  0  0  0  0  0  0  0  0
   92.2510   96.4150  -42.0890 H   0  0  0  0  0  0  0  0  0  0  0  0
   90.3460   94.5740  -46.6560 H   0  0  0  0  0  0  0  0  0  0  0  0
   88.9870   98.3460  -45.1630 H   0  0  0  0  0  0  0  0  0  0  0  0
   90.2400   98.3520  -46.3800 H   0  0  0  0  0  0  0  0  0  0  0  0
   89.5140   96.1310  -47.1620 H   0  0  0  0  0  0  0  0  0  0  0  0
   88.2460   96.0380  -45.9350 H   0  0  0  0  0  0  0  0  0  0  0  0
   88.2920   97.3120  -48.5480 H   0  0  0  0  0  0  0  0  0  0  0  0
   88.1890   98.6240  -47.3670 H   0  0  0  0  0  0  0  0  0  0  0  0
   86.6110   99.4000  -47.3620 H   0  0  0  0  0  0  0  0  0  0  0  0
   85.4220   98.6450  -48.4300 H   0  0  0  0  0  0  0  0  0  0  0  0
   83.8740   98.2630  -46.8310 H   0  0  0  0  0  0  0  0  0  0  0  0
   84.6100   99.7890  -46.3180 H   0  0  0  0  0  0  0  0  0  0  0  0
   84.2610   97.6240  -44.7980 H   0  0  0  0  0  0  0  0  0  0  0  0
   86.0150   96.4680  -44.2530 H   0  0  0  0  0  0  0  0  0  0  0  0
   87.1950   97.5990  -44.9770 H   0  0  0  0  0  0  0  0  0  0  0  0
   85.0840   96.0660  -46.5860 H   0  0  0  0  0  0  0  0  0  0  0  0
   86.7290   95.5070  -46.2620 H   0  0  0  0  0  0  0  0  0  0  0  0
   85.4670  100.2270  -44.5860 H   0  0  0  0  0  0  0  0  0  0  0  0
   86.1720   99.0190  -43.4970 H   0  0  0  0  0  0  0  0  0  0  0  0
   84.3600  100.3060  -42.5700 H   0  0  0  0  0  0  0  0  0  0  0  0
   83.1620   99.6630  -43.7070 H   0  0  0  0  0  0  0  0  0  0  0  0
   84.0250   98.7040  -41.3790 H   0  0  0  0  0  0  0  0  0  0  0  0
   91.3880   91.9050  -46.5020 H   0  0  0  0  0  0  0  0  0  0  0  0
   92.7250   90.4020  -45.0760 H   0  0  0  0  0  0  0  0  0  0  0  0
   93.6270   91.1760  -42.9700 H   0  0  0  0  0  0  0  0  0  0  0  0
   93.1880   93.5220  -42.2600 H   0  0  0  0  0  0  0  0  0  0  0  0
  2  1  1  0  0  0  0
  3 32  1  0  0  0  0
  3  2  2  0  0  0  0
  4  3  1  0  0  0  0
  5  4  2  0  0  0  0
  5  6  1  0  0  0  0
  6  7  2  0  0  0  0
  7  2  1  0  0  0  0
  7 35  1  0  0  0  0
  8  9  2  0  0  0  0
  8  5  1  0  0  0  0
  9 36  1  0  0  0  0
 10  9  1  0  0  0  0
 11 10  1  0  0  0  0
 11 31  1  0  0  0  0
 12 11  2  0  0  0  0
 13 12  1  0  0  0  0
 14 13  1  1  0  0  0
 14 15  1  0  0  0  0
 14 10  1  0  0  0  0
 15  8  1  0  0  0  0
 16 38  1  0  0  0  0
 16 15  1  0  0  0  0
 17 41  1  0  0  0  0
 17 16  1  0  0  0  0
 18 19  1  0  0  0  0
 18 43  1  0  0  0  0
 18 17  1  0  0  0  0
 19 20  1  0  0  0  0
 19 24  1  0  0  0  0
 20 44  1  0  0  0  0
 20 21  1  0  0  0  0
 21 47  1  0  0  0  0
 21 22  1  0  0  0  0
 22 23  1  0  0  0  0
 22 48  1  0  0  0  0
 22 25  1  0  0  0  0
 23 50  1  0  0  0  0
 23 49  1  0  0  0  0
 24 52  1  0  0  0  0
 24 23  1  0  0  0  0
 25 54  1  0  0  0  0
 25 26  1  0  0  0  0
 26 55  1  0  0  0  0
 26 27  1  0  0  0  0
 27 57  1  0  0  0  0
 28 12  1  0  0  0  0
 28 29  2  0  0  0  0
 29 30  1  0  0  0  0
 30 31  2  0  0  0  0
 30 60  1  0  0  0  0
 31 61  1  0  0  0  0
 33  4  1  0  0  0  0
 34  6  1  0  0  0  0
 37 13  1  0  0  0  0
 39 16  1  0  0  0  0
 40 17  1  0  0  0  0
 42 18  1  0  0  0  0
 45 20  1  0  0  0  0
 46 21  1  0  0  0  0
 51 24  1  0  0  0  0
 53 25  1  0  0  0  0
 56 26  1  0  0  0  0
 58 28  1  0  0  0  0
 59 29  1  0  0  0  0
M  END
>  <Pose>
1

>  <Score>
-4.79

$$$$
