
 OpenBabel03212208273D

 56 59  0  0  1  0  0  0  0  0999 V2000
   92.1840   93.3130  -43.8210 B   0  0  0  0  0  0  0  0  0  0  0  0
   91.7140   95.1620  -43.6580 C   0  0  0  0  0  0  0  0  0  0  0  0
   91.3400   95.9140  -44.7510 C   0  0  0  0  0  0  0  0  0  0  0  0
   91.0100   97.2310  -44.6120 C   0  0  0  0  0  0  0  0  0  0  0  0
   91.0330   97.8840  -43.3700 C   0  0  0  0  0  0  0  0  0  0  0  0
   91.3990   97.1430  -42.3030 C   0  0  0  0  0  0  0  0  0  0  0  0
   91.7380   95.7960  -42.4390 C   0  0  0  0  0  0  0  0  0  0  0  0
   90.6600   99.2460  -43.3450 C   0  0  1  0  0  0  0  0  0  0  0  0
   89.3780   99.7930  -43.2310 N   0  0  0  0  0  0  0  0  0  0  0  0
   89.5900  101.2280  -43.5100 C   0  0  0  0  0  0  0  0  0  0  0  0
   88.7700  102.0310  -44.0340 O   0  0  0  0  0  0  0  0  0  0  0  0
   90.9530  101.4930  -43.0390 C   0  0  0  0  0  0  0  0  0  0  0  0
   91.5900  102.5900  -43.0520 O   0  0  0  0  0  0  0  0  0  0  0  0
   91.4550  100.2030  -42.5260 C   0  0  0  0  0  0  0  0  0  0  0  0
   92.3290  100.0060  -41.5650 C   0  0  0  0  0  0  0  0  0  0  0  0
   92.6420   98.7160  -41.1520 O   0  0  0  0  0  0  0  0  0  0  0  0
   93.0220  101.0900  -40.8870 C   0  0  0  0  0  0  0  0  0  0  0  0
   92.6620  101.6570  -39.7050 C   0  0  0  0  0  0  0  0  0  0  0  0
   93.4390  102.6590  -39.1410 C   0  0  0  0  0  0  0  0  0  0  0  0
   94.5830  103.0930  -39.7710 C   0  0  0  0  0  0  0  0  0  0  0  0
   94.9810  102.5460  -40.9680 C   0  0  0  0  0  0  0  0  0  0  0  0
   94.1880  101.5450  -41.5130 C   0  0  0  0  0  0  0  0  0  0  0  0
   95.4440  104.1690  -39.1950 C   0  0  0  0  0  0  0  0  0  0  0  0
   88.0190   99.3410  -42.9710 C   0  0  0  0  0  0  0  0  0  0  0  0
   87.4920   98.3640  -43.9890 C   0  0  0  0  0  0  0  0  0  0  0  0
   86.1710   98.6560  -44.4400 N   0  0  0  0  0  4  0  0  0  0  0  0
   85.1930   98.1010  -43.5230 C   0  0  0  0  0  0  0  0  0  0  0  0
   83.8150   98.4660  -44.0090 C   0  0  0  0  0  0  0  0  0  0  0  0
   83.6060   97.7330  -45.1880 O   0  0  0  0  0  0  0  0  0  0  0  0
   84.5110   98.1770  -46.1240 C   0  0  0  0  0  0  0  0  0  0  0  0
   85.9420   97.9450  -45.7140 C   0  0  0  0  0  0  0  0  0  0  0  0
   91.3260   95.3990  -45.7140 H   0  0  0  0  0  0  0  0  0  0  0  0
   90.7170   97.7910  -45.5160 H   0  0  0  0  0  0  0  0  0  0  0  0
   91.4600   97.4890  -41.2780 H   0  0  0  0  0  0  0  0  0  0  0  0
   92.0360   95.1870  -41.5870 H   0  0  0  0  0  0  0  0  0  0  0  0
   90.9730   99.6140  -44.4410 H   0  0  0  0  0  0  0  0  0  0  0  0
   91.7380  101.3380  -39.2190 H   0  0  0  0  0  0  0  0  0  0  0  0
   93.1420  103.1000  -38.1990 H   0  0  0  0  0  0  0  0  0  0  0  0
   95.8880  102.8770  -41.4880 H   0  0  0  0  0  0  0  0  0  0  0  0
   94.4610  101.0820  -42.4590 H   0  0  0  0  0  0  0  0  0  0  0  0
   95.4290  105.0880  -39.8130 H   0  0  0  0  0  0  0  0  0  0  0  0
   95.0710  104.4340  -38.1680 H   0  0  0  0  0  0  0  0  0  0  0  0
   96.4900  103.8220  -39.0660 H   0  0  0  0  0  0  0  0  0  0  0  0
   88.0280   98.7660  -41.9980 H   0  0  0  0  0  0  0  0  0  0  0  0
   87.3150  100.1640  -42.9060 H   0  0  0  0  0  0  0  0  0  0  0  0
   88.1630   98.3900  -44.9110 H   0  0  0  0  0  0  0  0  0  0  0  0
   87.5550   97.3140  -43.5850 H   0  0  0  0  0  0  0  0  0  0  0  0
   86.0050   99.6610  -44.5960 H   0  0  0  0  0  0  0  0  0  0  0  0
   85.2940   98.4230  -42.4870 H   0  0  0  0  0  0  0  0  0  0  0  0
   85.3030   96.9930  -43.5180 H   0  0  0  0  0  0  0  0  0  0  0  0
   83.7250   99.5410  -44.2090 H   0  0  0  0  0  0  0  0  0  0  0  0
   83.0460   98.1720  -43.2710 H   0  0  0  0  0  0  0  0  0  0  0  0
   84.3240   97.5900  -47.0620 H   0  0  0  0  0  0  0  0  0  0  0  0
   84.3480   99.2390  -46.3380 H   0  0  0  0  0  0  0  0  0  0  0  0
   86.1230   96.8770  -45.5010 H   0  0  0  0  0  0  0  0  0  0  0  0
   86.5990   98.3000  -46.5120 H   0  0  0  0  0  0  0  0  0  0  0  0
  1  2  1  0  0  0  0
  2  7  1  0  0  0  0
  3  4  1  0  0  0  0
  3  2  2  0  0  0  0
  4  5  2  0  0  0  0
  5  8  1  0  0  0  0
  5  6  1  0  0  0  0
  6 34  1  0  0  0  0
  7  6  2  0  0  0  0
  7 35  1  0  0  0  0
  8 36  1  6  0  0  0
  8  9  1  0  0  0  0
  8 14  1  0  0  0  0
  9 24  1  0  0  0  0
 10  9  1  0  0  0  0
 10 12  1  0  0  0  0
 11 10  2  0  0  0  0
 12 14  1  0  0  0  0
 13 12  2  0  0  0  0
 14 15  2  0  0  0  0
 15 16  1  0  0  0  0
 15 17  1  0  0  0  0
 17 18  1  0  0  0  0
 18 37  1  0  0  0  0
 18 19  2  0  0  0  0
 19 38  1  0  0  0  0
 20 23  1  0  0  0  0
 20 19  1  0  0  0  0
 21 20  2  0  0  0  0
 22 21  1  0  0  0  0
 22 17  2  0  0  0  0
 23 43  1  0  0  0  0
 23 42  1  0  0  0  0
 24 45  1  0  0  0  0
 24 44  1  0  0  0  0
 25 47  1  0  0  0  0
 25 24  1  0  0  0  0
 26 25  1  0  0  0  0
 26 27  1  0  0  0  0
 27 50  1  0  0  0  0
 27 49  1  0  0  0  0
 28 27  1  0  0  0  0
 28 52  1  0  0  0  0
 29 28  1  0  0  0  0
 30 31  1  0  0  0  0
 30 29  1  0  0  0  0
 31 55  1  0  0  0  0
 31 26  1  0  0  0  0
 32  3  1  0  0  0  0
 33  4  1  0  0  0  0
 39 21  1  0  0  0  0
 40 22  1  0  0  0  0
 41 23  1  0  0  0  0
 46 25  1  0  0  0  0
 48 26  1  0  0  0  0
 51 28  1  0  0  0  0
 53 30  1  0  0  0  0
 54 30  1  0  0  0  0
 56 31  1  0  0  0  0
M  END
>  <Pose>
1

>  <Score>
-4.78

$$$$
