
 OpenBabel03212208273D

 57 60  0  0  1  0  0  0  0  0999 V2000
   91.2450   92.3770  -46.1520 B   0  0  0  0  0  0  0  0  0  0  0  0
   91.1600   94.2390  -45.6850 C   0  0  0  0  0  0  0  0  0  0  0  0
   91.8400   94.7220  -44.5820 C   0  0  0  0  0  0  0  0  0  0  0  0
   91.7680   96.0760  -44.2560 C   0  0  0  0  0  0  0  0  0  0  0  0
   91.0360   96.9710  -44.9990 C   0  0  0  0  0  0  0  0  0  0  0  0
   90.3670   96.4690  -46.0940 C   0  0  0  0  0  0  0  0  0  0  0  0
   90.4300   95.1360  -46.4250 C   0  0  0  0  0  0  0  0  0  0  0  0
   90.9620   98.4020  -44.6280 C   0  0  1  0  0  0  0  0  0  0  0  0
   91.4610   99.2530  -45.7240 N   0  0  0  0  0  0  0  0  0  0  0  0
   90.4220   99.2230  -46.6970 C   0  0  0  0  0  0  0  0  0  0  0  0
   90.5990   99.4280  -47.9320 O   0  0  0  0  0  0  0  0  0  0  0  0
   89.1600   98.9250  -46.0280 C   0  0  0  0  0  0  0  0  0  0  0  0
   88.0340   98.8260  -46.5590 O   0  0  0  0  0  0  0  0  0  0  0  0
   89.5010   98.7770  -44.6260 C   0  0  0  0  0  0  0  0  0  0  0  0
   88.7340   98.9640  -43.5820 C   0  0  0  0  0  0  0  0  0  0  0  0
   89.2340   98.8290  -42.2940 O   0  0  0  0  0  0  0  0  0  0  0  0
   87.3330   99.3160  -43.7150 C   0  0  0  0  0  0  0  0  0  0  0  0
   86.2790   98.6240  -44.1930 N   0  0  0  0  0  0  0  0  0  0  0  0
   85.1640   99.3680  -44.1570 C   0  0  0  0  0  0  0  0  0  0  0  0
   85.5290  100.5620  -43.6420 N   0  0  0  0  0  0  0  0  0  0  0  0
   86.8170  100.5810  -43.3600 C   0  0  0  0  0  0  0  0  0  0  0  0
   87.6510  101.6800  -42.7760 C   0  0  0  0  0  0  0  0  0  0  0  0
   83.9190   98.8960  -44.5750 C   0  0  0  0  0  0  0  0  0  0  0  0
   83.7960   97.6110  -45.0510 C   0  0  0  0  0  0  0  0  0  0  0  0
   84.9490   96.8610  -45.0780 C   0  0  0  0  0  0  0  0  0  0  0  0
   86.1620   97.3540  -44.6600 C   0  0  0  0  0  0  0  0  0  0  0  0
   92.7290   99.9310  -45.7700 C   0  0  0  0  0  0  0  0  0  0  0  0
   92.7700  101.3750  -46.0810 C   0  0  0  0  0  0  0  0  0  0  0  0
   92.8720  102.3760  -44.9990 C   0  0  0  0  0  0  0  0  0  0  0  0
   93.8630  102.1750  -43.9860 N   0  0  0  0  0  4  0  0  0  0  0  0
   94.0150  103.4760  -43.2740 C   0  0  0  0  0  0  0  0  0  0  0  0
   93.3540  101.2750  -42.9710 C   0  0  0  0  0  0  0  0  0  0  0  0
   92.4290   94.0230  -43.9770 H   0  0  0  0  0  0  0  0  0  0  0  0
   92.3080   96.4260  -43.3930 H   0  0  0  0  0  0  0  0  0  0  0  0
   89.7810   97.1640  -46.6760 H   0  0  0  0  0  0  0  0  0  0  0  0
   89.8950   94.7850  -47.2830 H   0  0  0  0  0  0  0  0  0  0  0  0
   91.4420   98.6340  -43.6740 H   0  0  0  0  0  0  0  0  0  0  0  0
   88.6510  101.7090  -43.2240 H   0  0  0  0  0  0  0  0  0  0  0  0
   87.7240  101.5510  -41.6560 H   0  0  0  0  0  0  0  0  0  0  0  0
   87.1570  102.6580  -42.9480 H   0  0  0  0  0  0  0  0  0  0  0  0
   83.0420   99.5270  -44.5320 H   0  0  0  0  0  0  0  0  0  0  0  0
   82.8360   97.2220  -45.3820 H   0  0  0  0  0  0  0  0  0  0  0  0
   84.8490   95.8410  -45.4550 H   0  0  0  0  0  0  0  0  0  0  0  0
   87.0560   96.7620  -44.6870 H   0  0  0  0  0  0  0  0  0  0  0  0
   93.4520   99.3800  -46.4410 H   0  0  0  0  0  0  0  0  0  0  0  0
   93.1670   99.8140  -44.7200 H   0  0  0  0  0  0  0  0  0  0  0  0
   91.9810  101.6610  -46.8400 H   0  0  0  0  0  0  0  0  0  0  0  0
   93.7330  101.5110  -46.7030 H   0  0  0  0  0  0  0  0  0  0  0  0
   91.8640  102.5730  -44.5180 H   0  0  0  0  0  0  0  0  0  0  0  0
   93.0850  103.3850  -45.4820 H   0  0  0  0  0  0  0  0  0  0  0  0
   94.7860  101.8690  -44.2950 H   0  0  0  0  0  0  0  0  0  0  0  0
   94.7560  103.3890  -42.4690 H   0  0  0  0  0  0  0  0  0  0  0  0
   94.2890  104.2610  -44.0080 H   0  0  0  0  0  0  0  0  0  0  0  0
   93.0240  103.6470  -42.8050 H   0  0  0  0  0  0  0  0  0  0  0  0
   92.5830  100.5850  -43.3840 H   0  0  0  0  0  0  0  0  0  0  0  0
   94.1950  100.6360  -42.6350 H   0  0  0  0  0  0  0  0  0  0  0  0
   92.9880  101.7990  -42.0680 H   0  0  0  0  0  0  0  0  0  0  0  0
  1  2  1  0  0  0  0
  2  3  1  0  0  0  0
  3  4  2  0  0  0  0
  3 33  1  0  0  0  0
  4 34  1  0  0  0  0
  5  8  1  0  0  0  0
  5  4  1  0  0  0  0
  6  5  2  0  0  0  0
  7  6  1  0  0  0  0
  7  2  2  0  0  0  0
  8 14  1  0  0  0  0
  8 37  1  1  0  0  0
  9  8  1  0  0  0  0
 10 12  1  0  0  0  0
 10  9  1  0  0  0  0
 11 10  2  0  0  0  0
 12 14  1  0  0  0  0
 13 12  2  0  0  0  0
 14 15  2  0  0  0  0
 15 16  1  0  0  0  0
 17 15  1  0  0  0  0
 17 21  2  0  0  0  0
 18 19  1  0  0  0  0
 18 17  1  0  0  0  0
 19 20  2  0  0  0  0
 20 21  1  0  0  0  0
 21 22  1  0  0  0  0
 22 39  1  0  0  0  0
 23 41  1  0  0  0  0
 23 19  1  0  0  0  0
 24 23  2  0  0  0  0
 25 24  1  0  0  0  0
 25 26  2  0  0  0  0
 26 18  1  0  0  0  0
 27  9  1  0  0  0  0
 27 46  1  0  0  0  0
 28 27  1  0  0  0  0
 28 29  1  0  0  0  0
 29 49  1  0  0  0  0
 29 30  1  0  0  0  0
 30 31  1  0  0  0  0
 30 32  1  0  0  0  0
 31 54  1  0  0  0  0
 31 52  1  0  0  0  0
 32 56  1  0  0  0  0
 32 57  1  0  0  0  0
 35  6  1  0  0  0  0
 36  7  1  0  0  0  0
 38 22  1  0  0  0  0
 40 22  1  0  0  0  0
 42 24  1  0  0  0  0
 43 25  1  0  0  0  0
 44 26  1  0  0  0  0
 45 27  1  0  0  0  0
 47 28  1  0  0  0  0
 48 28  1  0  0  0  0
 50 29  1  0  0  0  0
 51 30  1  0  0  0  0
 53 31  1  0  0  0  0
 55 32  1  0  0  0  0
M  END
>  <Pose>
1

>  <Score>
-5.03

$$$$
