
 OpenBabel03212208273D

 54 57  0  0  1  0  0  0  0  0999 V2000
   85.7450  101.2590  -42.2970 B   0  0  0  0  0  0  0  0  0  0  0  0
   87.5720  100.7900  -42.6030 C   0  0  0  0  0  0  0  0  0  0  0  0
   87.8650   99.5240  -43.0240 C   0  0  0  0  0  0  0  0  0  0  0  0
   89.1750   99.1730  -43.2480 C   0  0  0  0  0  0  0  0  0  0  0  0
   90.2440  100.0230  -43.0770 C   0  0  0  0  0  0  0  0  0  0  0  0
   89.9110  101.3080  -42.6460 C   0  0  0  0  0  0  0  0  0  0  0  0
   88.6060  101.6760  -42.4180 C   0  0  0  0  0  0  0  0  0  0  0  0
   91.6500   99.6060  -43.3290 C   0  0  1  0  0  0  0  0  0  0  0  0
   91.9530   99.5430  -44.7330 N   0  0  0  0  0  0  0  0  0  0  0  0
   92.7530  100.6700  -45.0460 C   0  0  0  0  0  0  0  0  0  0  0  0
   93.0480  101.0620  -46.2110 O   0  0  0  0  0  0  0  0  0  0  0  0
   93.1870  101.3120  -43.8030 C   0  0  0  0  0  0  0  0  0  0  0  0
   93.9100  102.3310  -43.6780 O   0  0  0  0  0  0  0  0  0  0  0  0
   92.6200  100.5380  -42.7130 C   0  0  0  0  0  0  0  0  0  0  0  0
   92.9650  100.6290  -41.4390 C   0  0  0  0  0  0  0  0  0  0  0  0
   92.3510   99.7340  -40.5410 O   0  0  0  0  0  0  0  0  0  0  0  0
   93.9050  101.5650  -40.8740 C   0  0  0  0  0  0  0  0  0  0  0  0
   93.9310  102.9010  -40.7930 N   0  0  0  0  0  0  0  0  0  0  0  0
   95.0600  103.3240  -40.1980 C   0  0  0  0  0  0  0  0  0  0  0  0
   95.7740  102.2290  -39.8890 N   0  0  0  0  0  0  0  0  0  0  0  0
   95.1050  101.1450  -40.2830 C   0  0  0  0  0  0  0  0  0  0  0  0
   95.5700   99.7390  -40.1140 C   0  0  0  0  0  0  0  0  0  0  0  0
   95.3490  104.6640  -39.9650 C   0  0  0  0  0  0  0  0  0  0  0  0
   94.4360  105.6020  -40.3600 C   0  0  0  0  0  0  0  0  0  0  0  0
   93.2730  105.1700  -40.9710 C   0  0  0  0  0  0  0  0  0  0  0  0
   93.0330  103.8320  -41.1810 C   0  0  0  0  0  0  0  0  0  0  0  0
   91.5170   98.4980  -45.6850 C   0  0  0  0  0  0  0  0  0  0  0  0
   91.6810   97.1290  -45.0590 C   0  0  0  0  0  0  0  0  0  0  0  0
   91.4110   96.0610  -45.9560 N   0  0  0  0  0  4  0  0  0  0  0  0
   91.9870   94.8440  -45.3830 C   0  0  0  0  0  0  0  0  0  0  0  0
   90.0270   95.8280  -46.2300 C   0  0  0  0  0  0  0  0  0  0  0  0
   87.0770   98.7750  -43.1900 H   0  0  0  0  0  0  0  0  0  0  0  0
   89.3660   98.1640  -43.5800 H   0  0  0  0  0  0  0  0  0  0  0  0
   90.6930  102.0370  -42.4870 H   0  0  0  0  0  0  0  0  0  0  0  0
   88.3620  102.6750  -42.0840 H   0  0  0  0  0  0  0  0  0  0  0  0
   91.7370   98.5750  -42.9170 H   0  0  0  0  0  0  0  0  0  0  0  0
   94.9670   99.2050  -39.3470 H   0  0  0  0  0  0  0  0  0  0  0  0
   95.4200   99.2480  -41.1130 H   0  0  0  0  0  0  0  0  0  0  0  0
   96.6390   99.7270  -39.9030 H   0  0  0  0  0  0  0  0  0  0  0  0
   96.2930  104.9080  -39.4760 H   0  0  0  0  0  0  0  0  0  0  0  0
   94.6570  106.6470  -40.1800 H   0  0  0  0  0  0  0  0  0  0  0  0
   92.5260  105.8960  -41.2970 H   0  0  0  0  0  0  0  0  0  0  0  0
   92.1310  103.4650  -41.6570 H   0  0  0  0  0  0  0  0  0  0  0  0
   92.0970   98.5730  -46.6240 H   0  0  0  0  0  0  0  0  0  0  0  0
   90.4580   98.7040  -45.8860 H   0  0  0  0  0  0  0  0  0  0  0  0
   90.9860   97.1040  -44.1790 H   0  0  0  0  0  0  0  0  0  0  0  0
   92.7100   97.0840  -44.6100 H   0  0  0  0  0  0  0  0  0  0  0  0
   91.8950   96.1950  -46.8880 H   0  0  0  0  0  0  0  0  0  0  0  0
   91.4640   94.5560  -44.4610 H   0  0  0  0  0  0  0  0  0  0  0  0
   91.9760   94.0150  -46.1460 H   0  0  0  0  0  0  0  0  0  0  0  0
   93.0580   94.9790  -45.1190 H   0  0  0  0  0  0  0  0  0  0  0  0
   89.8910   94.7300  -46.3900 H   0  0  0  0  0  0  0  0  0  0  0  0
   89.3580   96.0990  -45.3880 H   0  0  0  0  0  0  0  0  0  0  0  0
   89.7130   96.2990  -47.1950 H   0  0  0  0  0  0  0  0  0  0  0  0
  2  7  1  0  0  0  0
  2  1  1  0  0  0  0
  3  2  2  0  0  0  0
  4  5  2  0  0  0  0
  4  3  1  0  0  0  0
  5  6  1  0  0  0  0
  6 34  1  0  0  0  0
  6  7  2  0  0  0  0
  7 35  1  0  0  0  0
  8  5  1  0  0  0  0
  8 36  1  1  0  0  0
  8 14  1  0  0  0  0
  9  8  1  0  0  0  0
 10  9  1  0  0  0  0
 10 12  1  0  0  0  0
 11 10  2  0  0  0  0
 12 13  2  0  0  0  0
 12 14  1  0  0  0  0
 14 15  2  0  0  0  0
 15 17  1  0  0  0  0
 15 16  1  0  0  0  0
 17 18  1  0  0  0  0
 17 21  2  0  0  0  0
 18 19  1  0  0  0  0
 19 23  1  0  0  0  0
 19 20  2  0  0  0  0
 21 22  1  0  0  0  0
 21 20  1  0  0  0  0
 22 39  1  0  0  0  0
 22 37  1  0  0  0  0
 23 40  1  0  0  0  0
 24 41  1  0  0  0  0
 24 23  2  0  0  0  0
 25 24  1  0  0  0  0
 26 25  2  0  0  0  0
 26 18  1  0  0  0  0
 27 28  1  0  0  0  0
 27  9  1  0  0  0  0
 28 47  1  0  0  0  0
 28 46  1  0  0  0  0
 29 30  1  0  0  0  0
 29 28  1  0  0  0  0
 30 51  1  0  0  0  0
 30 49  1  0  0  0  0
 31 29  1  0  0  0  0
 31 53  1  0  0  0  0
 32  3  1  0  0  0  0
 33  4  1  0  0  0  0
 38 22  1  0  0  0  0
 42 25  1  0  0  0  0
 43 26  1  0  0  0  0
 44 27  1  0  0  0  0
 45 27  1  0  0  0  0
 48 29  1  0  0  0  0
 50 30  1  0  0  0  0
 52 31  1  0  0  0  0
 54 31  1  0  0  0  0
M  END
>  <Pose>
1

>  <Score>
-4.17

$$$$
