
 OpenBabel03212208273D

 47 50  0  0  1  0  0  0  0  0999 V2000
   83.5980  100.0930  -43.8430 B   0  0  0  0  0  0  0  0  0  0  0  0
   85.4040  100.4320  -43.2870 C   0  0  0  0  0  0  0  0  0  0  0  0
   86.3710   99.4630  -43.3940 C   0  0  0  0  0  0  0  0  0  0  0  0
   87.6410   99.6870  -43.0030 C   0  0  0  0  0  0  0  0  0  0  0  0
   88.0460  100.9460  -42.4550 C   0  0  0  0  0  0  0  0  0  0  0  0
   87.0460  101.8890  -42.3660 C   0  0  0  0  0  0  0  0  0  0  0  0
   85.7530  101.6590  -42.7660 C   0  0  0  0  0  0  0  0  0  0  0  0
   89.3450  101.0310  -42.0210 N   0  0  0  0  0  0  0  0  0  0  0  0
   90.5960  101.1140  -41.6010 C   0  0  0  0  0  0  0  0  0  0  0  0
   91.0840  101.5240  -40.4740 O   0  0  0  0  0  0  0  0  0  0  0  0
   91.7480  100.6780  -42.5320 C   0  0  2  0  0  0  0  0  0  0  0  0
   91.5830  101.5030  -43.7730 C   0  0  0  0  0  0  0  0  0  0  0  0
   90.8090  100.8540  -44.8390 C   0  0  0  0  0  0  0  0  0  0  0  0
   90.1370  101.5890  -45.6120 O   0  0  0  0  0  0  0  0  0  0  0  0
   90.8280   99.4440  -44.9780 N   0  0  0  0  0  0  0  0  0  0  0  0
   91.3050   98.6370  -43.9220 C   0  0  0  0  0  0  0  0  0  0  0  0
   91.3270   97.2770  -44.0840 N   0  0  0  0  0  0  0  0  0  0  0  0
   91.7770   96.4560  -43.1330 C   0  0  0  0  0  0  0  0  0  0  0  0
   92.2150   97.0050  -41.9930 N   0  0  0  0  0  0  0  0  0  0  0  0
   92.2140   98.3530  -41.7800 C   0  0  0  0  0  0  0  0  0  0  0  0
   91.7540   99.2250  -42.7480 C   0  0  0  0  0  0  0  0  0  0  0  0
   92.6790   98.8880  -40.5460 N   0  0  0  0  0  0  0  0  0  0  0  0
   91.7880   95.0230  -43.3260 N   0  0  0  0  0  0  0  0  0  0  0  0
   91.7020   94.5480  -44.6630 C   0  0  0  0  0  0  0  0  0  0  0  0
   92.1590   93.1300  -44.8470 C   0  0  0  0  0  0  0  0  0  0  0  0
   92.6680   92.5790  -43.6760 O   0  0  0  0  0  0  0  0  0  0  0  0
   91.7980   92.7420  -42.6060 C   0  0  0  0  0  0  0  0  0  0  0  0
   91.8890   94.1770  -42.1550 C   0  0  0  0  0  0  0  0  0  0  0  0
   86.0850   98.4870  -43.8070 H   0  0  0  0  0  0  0  0  0  0  0  0
   88.4130   98.9180  -43.0810 H   0  0  0  0  0  0  0  0  0  0  0  0
   87.2830  102.8830  -41.9410 H   0  0  0  0  0  0  0  0  0  0  0  0
   84.9830  102.4350  -42.6830 H   0  0  0  0  0  0  0  0  0  0  0  0
   88.9090  101.5390  -40.8340 H   0  0  0  0  0  0  0  0  0  0  0  0
   92.7010  101.0300  -42.0240 H   0  0  0  0  0  0  0  0  0  0  0  0
   92.6120  101.7590  -44.1510 H   0  0  0  0  0  0  0  0  0  0  0  0
   91.0760  102.4620  -43.4890 H   0  0  0  0  0  0  0  0  0  0  0  0
   90.4910   98.9660  -45.8630 H   0  0  0  0  0  0  0  0  0  0  0  0
   92.1210   98.8850  -39.6860 H   0  0  0  0  0  0  0  0  0  0  0  0
   93.6400   99.3130  -40.5150 H   0  0  0  0  0  0  0  0  0  0  0  0
   90.6110   94.6060  -44.9470 H   0  0  0  0  0  0  0  0  0  0  0  0
   92.2230   95.2780  -45.3360 H   0  0  0  0  0  0  0  0  0  0  0  0
   91.3360   92.4740  -45.2260 H   0  0  0  0  0  0  0  0  0  0  0  0
   92.9620   93.1090  -45.6020 H   0  0  0  0  0  0  0  0  0  0  0  0
   92.1760   92.0440  -41.8040 H   0  0  0  0  0  0  0  0  0  0  0  0
   90.7680   92.4500  -42.8840 H   0  0  0  0  0  0  0  0  0  0  0  0
   91.1080   94.4310  -41.4040 H   0  0  0  0  0  0  0  0  0  0  0  0
   92.8740   94.3090  -41.6320 H   0  0  0  0  0  0  0  0  0  0  0  0
  1  2  1  0  0  0  0
  2  7  1  0  0  0  0
  3  2  2  0  0  0  0
  3  4  1  0  0  0  0
  4  5  2  0  0  0  0
  5  6  1  0  0  0  0
  5  8  1  0  0  0  0
  6 31  1  0  0  0  0
  7 32  1  0  0  0  0
  7  6  2  0  0  0  0
  8  9  1  0  0  0  0
  8 33  1  0  0  0  0
  9 10  2  0  0  0  0
 11 34  1  1  0  0  0
 11  9  1  0  0  0  0
 12 36  1  0  0  0  0
 12 11  1  0  0  0  0
 13 12  1  0  0  0  0
 14 13  2  0  0  0  0
 15 13  1  0  0  0  0
 15 16  1  0  0  0  0
 16 21  2  0  0  0  0
 17 16  1  0  0  0  0
 17 18  2  0  0  0  0
 18 19  1  0  0  0  0
 19 20  2  0  0  0  0
 20 22  1  0  0  0  0
 21 11  1  0  0  0  0
 21 20  1  0  0  0  0
 22 39  1  0  0  0  0
 22 38  1  0  0  0  0
 23 18  1  0  0  0  0
 23 28  1  0  0  0  0
 24 23  1  0  0  0  0
 25 24  1  0  0  0  0
 25 26  1  0  0  0  0
 26 27  1  0  0  0  0
 27 28  1  0  0  0  0
 27 44  1  0  0  0  0
 28 47  1  0  0  0  0
 28 46  1  0  0  0  0
 29  3  1  0  0  0  0
 30  4  1  0  0  0  0
 35 12  1  0  0  0  0
 37 15  1  0  0  0  0
 40 24  1  0  0  0  0
 41 24  1  0  0  0  0
 42 25  1  0  0  0  0
 43 25  1  0  0  0  0
 45 27  1  0  0  0  0
M  END
>  <Pose>
1

>  <Score>
-5.94

$$$$
