
 OpenBabel03212208273D

 47 50  0  0  1  0  0  0  0  0999 V2000
   90.7430  102.5250  -42.6150 B   0  0  0  0  0  0  0  0  0  0  0  0
   91.0530  100.6480  -42.3950 C   0  0  0  0  0  0  0  0  0  0  0  0
   92.1120  100.1810  -41.6460 C   0  0  0  0  0  0  0  0  0  0  0  0
   92.3520   98.8260  -41.4760 C   0  0  0  0  0  0  0  0  0  0  0  0
   91.5250   97.8890  -42.0600 C   0  0  0  0  0  0  0  0  0  0  0  0
   90.4670   98.3640  -42.8080 C   0  0  0  0  0  0  0  0  0  0  0  0
   90.2260   99.7120  -42.9790 C   0  0  0  0  0  0  0  0  0  0  0  0
   91.7790   96.4940  -41.8810 N   0  0  0  0  0  0  0  0  0  0  0  0
   92.0570   95.8510  -40.7600 N   0  0  0  0  0  0  0  0  0  0  0  0
   92.2320   94.5580  -40.9750 N   0  0  0  0  0  0  0  0  0  0  0  0
   92.0640   94.3120  -42.3020 C   0  0  0  0  0  0  0  0  0  0  0  0
   91.7790   95.5530  -42.8420 C   0  0  0  0  0  0  0  0  0  0  0  0
   91.5640   95.6060  -44.1610 N   0  0  0  0  0  0  0  0  0  0  0  0
   91.6260   94.4950  -44.9150 C   0  0  0  0  0  0  0  0  0  0  0  0
   91.9030   93.2770  -44.3950 N   0  0  0  0  0  0  0  0  0  0  0  0
   92.1240   93.1790  -43.0780 C   0  0  0  0  0  0  0  0  0  0  0  0
   92.3810   92.0550  -42.5940 O   0  0  0  0  0  0  0  0  0  0  0  0
   91.9460   92.1360  -45.2890 C   0  0  0  0  0  0  0  0  0  0  0  0
   91.2620   92.4700  -46.5910 C   0  0  0  0  0  0  0  0  0  0  0  0
   90.6670   93.5700  -46.7380 O   0  0  0  0  0  0  0  0  0  0  0  0
   91.2740   91.5570  -47.6710 N   0  0  0  0  0  0  0  0  0  0  0  0
   90.6820   91.8930  -48.9440 C   0  0  0  0  0  0  0  0  0  0  0  0
   89.8730   90.6860  -49.3870 C   0  0  2  0  0  0  0  0  0  0  0  0
   90.6000   89.5240  -49.4320 O   0  0  0  0  0  0  0  0  0  0  0  0
   91.8570   89.6070  -48.8870 C   0  0  1  0  0  0  0  0  0  0  0  0
   91.8840   90.2560  -47.5180 C   0  0  0  0  0  0  0  0  0  0  0  0
   92.5740   88.2900  -48.8340 C   0  0  0  0  0  0  0  0  0  0  0  0
   89.4140   90.9840  -50.8180 C   0  0  0  0  0  0  0  0  0  0  0  0
   92.7610  100.9050  -41.1880 H   0  0  0  0  0  0  0  0  0  0  0  0
   93.1840   98.4700  -40.8890 H   0  0  0  0  0  0  0  0  0  0  0  0
   89.8040   97.6560  -43.2770 H   0  0  0  0  0  0  0  0  0  0  0  0
   89.3890  100.0850  -43.5710 H   0  0  0  0  0  0  0  0  0  0  0  0
   91.4440   94.5710  -45.9950 H   0  0  0  0  0  0  0  0  0  0  0  0
   92.9860   91.8470  -45.5310 H   0  0  0  0  0  0  0  0  0  0  0  0
   91.3720   91.2860  -44.8660 H   0  0  0  0  0  0  0  0  0  0  0  0
   91.4470   92.1600  -49.7040 H   0  0  0  0  0  0  0  0  0  0  0  0
   90.0180   92.7560  -48.7830 H   0  0  0  0  0  0  0  0  0  0  0  0
   88.9700   90.6320  -48.7350 H   0  0  0  0  0  0  0  0  0  0  0  0
   92.4680   90.2840  -49.5510 H   0  0  0  0  0  0  0  0  0  0  0  0
   92.9420   90.3200  -47.2060 H   0  0  0  0  0  0  0  0  0  0  0  0
   91.2990   89.6960  -46.7700 H   0  0  0  0  0  0  0  0  0  0  0  0
   93.6630   88.4500  -48.9870 H   0  0  0  0  0  0  0  0  0  0  0  0
   92.4650   87.7850  -47.8430 H   0  0  0  0  0  0  0  0  0  0  0  0
   92.2400   87.6160  -49.6620 H   0  0  0  0  0  0  0  0  0  0  0  0
   89.2140   92.0700  -50.8590 H   0  0  0  0  0  0  0  0  0  0  0  0
   90.1890   90.7460  -51.5520 H   0  0  0  0  0  0  0  0  0  0  0  0
   88.4440   90.4590  -51.0250 H   0  0  0  0  0  0  0  0  0  0  0  0
  1  2  1  0  0  0  0
  2  3  1  0  0  0  0
  3  4  2  0  0  0  0
  3 29  1  0  0  0  0
  4 30  1  0  0  0  0
  5  8  1  0  0  0  0
  5  4  1  0  0  0  0
  6  5  2  0  0  0  0
  7  6  1  0  0  0  0
  7  2  2  0  0  0  0
  8  9  1  0  0  0  0
 10  9  2  0  0  0  0
 11 10  1  0  0  0  0
 12 11  2  0  0  0  0
 12  8  1  0  0  0  0
 13 12  1  0  0  0  0
 14 15  1  0  0  0  0
 14 13  2  0  0  0  0
 15 16  1  0  0  0  0
 16 17  2  0  0  0  0
 16 11  1  0  0  0  0
 18 35  1  0  0  0  0
 18 15  1  0  0  0  0
 19 18  1  0  0  0  0
 20 19  2  0  0  0  0
 21 26  1  0  0  0  0
 21 19  1  0  0  0  0
 22 37  1  0  0  0  0
 22 21  1  0  0  0  0
 23 22  1  0  0  0  0
 23 38  1  1  0  0  0
 24 23  1  0  0  0  0
 24 25  1  0  0  0  0
 25 39  1  6  0  0  0
 25 27  1  0  0  0  0
 25 26  1  0  0  0  0
 26 40  1  0  0  0  0
 26 41  1  0  0  0  0
 27 43  1  0  0  0  0
 28 23  1  0  0  0  0
 31  6  1  0  0  0  0
 32  7  1  0  0  0  0
 33 14  1  0  0  0  0
 34 18  1  0  0  0  0
 36 22  1  0  0  0  0
 42 27  1  0  0  0  0
 44 27  1  0  0  0  0
 45 28  1  0  0  0  0
 46 28  1  0  0  0  0
 47 28  1  0  0  0  0
M  END
>  <Pose>
1

>  <Score>
-6.34

$$$$
