
 OpenBabel03212208273D

 47 50  0  0  1  0  0  0  0  0999 V2000
   91.2850   90.9840  -47.3040 B   0  0  0  0  0  0  0  0  0  0  0  0
   91.4110   92.4740  -46.1080 C   0  0  0  0  0  0  0  0  0  0  0  0
   90.9370   93.7110  -46.4490 C   0  0  0  0  0  0  0  0  0  0  0  0
   91.0330   94.7950  -45.5700 C   0  0  0  0  0  0  0  0  0  0  0  0
   91.6030   94.6640  -44.3370 C   0  0  0  0  0  0  0  0  0  0  0  0
   92.0780   93.4320  -43.9930 C   0  0  0  0  0  0  0  0  0  0  0  0
   91.9880   92.3370  -44.8660 C   0  0  0  0  0  0  0  0  0  0  0  0
   91.7020   95.7690  -43.4360 N   0  0  0  0  0  0  0  0  0  0  0  0
   91.7530   97.1620  -43.7260 C   0  0  0  0  0  0  0  0  0  0  0  0
   91.8310   97.6520  -44.8720 O   0  0  0  0  0  0  0  0  0  0  0  0
   91.7050   97.9650  -42.4950 C   0  0  2  0  0  0  0  0  0  0  0  0
   92.2190   96.9800  -41.4520 C   0  0  0  0  0  0  0  0  0  0  0  0
   91.7630   95.6630  -42.0000 C   0  0  0  0  0  0  0  0  0  0  0  0
   91.5090   94.7060  -41.2450 O   0  0  0  0  0  0  0  0  0  0  0  0
   90.3940   98.4490  -42.1260 N   0  0  0  0  0  4  0  0  0  0  0  0
   90.1710   99.8110  -42.5460 C   0  0  0  0  0  0  0  0  0  0  0  0
   89.4020   99.9470  -43.8420 C   0  0  0  0  0  0  0  0  0  0  0  0
   88.3210   98.9980  -43.9130 N   0  0  0  0  0  0  0  0  0  0  0  0
   88.0500   98.3080  -42.6740 C   0  0  0  0  0  0  0  0  0  0  0  0
   89.3480   97.5280  -42.3890 C   0  0  0  0  0  0  0  0  0  0  0  0
   87.5900   98.7320  -45.0750 C   0  0  0  0  0  0  0  0  0  0  0  0
   86.4760   99.4290  -45.4980 C   0  0  0  0  0  0  0  0  0  0  0  0
   85.7740   99.1080  -46.6480 C   0  0  0  0  0  0  0  0  0  0  0  0
   86.1740   98.0540  -47.4250 C   0  0  0  0  0  0  0  0  0  0  0  0
   87.2820   97.3220  -47.0490 C   0  0  0  0  0  0  0  0  0  0  0  0
   87.9670   97.6630  -45.8960 C   0  0  0  0  0  0  0  0  0  0  0  0
   85.5120   97.6780  -48.5940 O   0  0  0  0  0  0  0  0  0  0  0  0
   90.4870   93.8370  -47.4090 H   0  0  0  0  0  0  0  0  0  0  0  0
   90.6360   95.7140  -45.9230 H   0  0  0  0  0  0  0  0  0  0  0  0
   92.5410   93.2120  -43.0640 H   0  0  0  0  0  0  0  0  0  0  0  0
   92.3650   91.3670  -44.5870 H   0  0  0  0  0  0  0  0  0  0  0  0
   92.4520   98.7940  -42.4940 H   0  0  0  0  0  0  0  0  0  0  0  0
   93.3160   97.0290  -41.3580 H   0  0  0  0  0  0  0  0  0  0  0  0
   91.7250   97.2020  -40.4890 H   0  0  0  0  0  0  0  0  0  0  0  0
   90.4500   98.5250  -41.0540 H   0  0  0  0  0  0  0  0  0  0  0  0
   91.1620  100.2920  -42.6940 H   0  0  0  0  0  0  0  0  0  0  0  0
   89.6440  100.4090  -41.7690 H   0  0  0  0  0  0  0  0  0  0  0  0
   88.9320  100.9740  -43.8180 H   0  0  0  0  0  0  0  0  0  0  0  0
   90.1160   99.9360  -44.6520 H   0  0  0  0  0  0  0  0  0  0  0  0
   87.9380   99.0610  -41.8670 H   0  0  0  0  0  0  0  0  0  0  0  0
   87.2020   97.6440  -42.6630 H   0  0  0  0  0  0  0  0  0  0  0  0
   89.6180   96.9260  -43.2910 H   0  0  0  0  0  0  0  0  0  0  0  0
   89.2110   96.8480  -41.5390 H   0  0  0  0  0  0  0  0  0  0  0  0
   86.1460  100.2850  -44.8830 H   0  0  0  0  0  0  0  0  0  0  0  0
   84.9270   99.6900  -46.9100 H   0  0  0  0  0  0  0  0  0  0  0  0
   87.6240   96.4800  -47.6410 H   0  0  0  0  0  0  0  0  0  0  0  0
   88.8430   97.1000  -45.5770 H   0  0  0  0  0  0  0  0  0  0  0  0
  1  2  1  0  0  0  0
  2  7  1  0  0  0  0
  3  2  2  0  0  0  0
  3  4  1  0  0  0  0
  4  5  2  0  0  0  0
  5  6  1  0  0  0  0
  5  8  1  0  0  0  0
  6 30  1  0  0  0  0
  7 31  1  0  0  0  0
  7  6  2  0  0  0  0
  8 13  1  0  0  0  0
  9  8  1  0  0  0  0
  9 11  1  0  0  0  0
 10  9  2  0  0  0  0
 11 32  1  6  0  0  0
 11 15  1  0  0  0  0
 11 12  1  0  0  0  0
 12 33  1  0  0  0  0
 12 34  1  0  0  0  0
 13 12  1  0  0  0  0
 13 14  2  0  0  0  0
 15 35  1  0  0  0  0
 16 15  1  0  0  0  0
 16 37  1  0  0  0  0
 17 38  1  0  0  0  0
 17 16  1  0  0  0  0
 18 17  1  0  0  0  0
 18 19  1  0  0  0  0
 19 41  1  0  0  0  0
 19 20  1  0  0  0  0
 19 40  1  0  0  0  0
 20 15  1  0  0  0  0
 20 43  1  0  0  0  0
 21 18  1  0  0  0  0
 22 21  1  0  0  0  0
 22 44  1  0  0  0  0
 23 22  2  0  0  0  0
 24 25  2  0  0  0  0
 24 23  1  0  0  0  0
 25 26  1  0  0  0  0
 26 47  1  0  0  0  0
 26 21  2  0  0  0  0
 27 24  1  0  0  0  0
 28  3  1  0  0  0  0
 29  4  1  0  0  0  0
 36 16  1  0  0  0  0
 39 17  1  0  0  0  0
 42 20  1  0  0  0  0
 45 23  1  0  0  0  0
 46 25  1  0  0  0  0
M  END
>  <Pose>
1

>  <Score>
-4.94

$$$$
