
 OpenBabel03212208273D

 56 59  0  0  1  0  0  0  0  0999 V2000
   83.7350   94.6200  -46.4520 B   0  0  0  0  0  0  0  0  0  0  0  0
   84.4620   96.1730  -45.6060 C   0  0  0  0  0  0  0  0  0  0  0  0
   83.7110   96.9750  -44.7780 C   0  0  0  0  0  0  0  0  0  0  0  0
   84.2510   98.1110  -44.1630 C   0  0  0  0  0  0  0  0  0  0  0  0
   85.5580   98.4640  -44.3670 C   0  0  0  0  0  0  0  0  0  0  0  0
   86.3010   97.6550  -45.1980 C   0  0  0  0  0  0  0  0  0  0  0  0
   85.7780   96.5280  -45.8120 C   0  0  0  0  0  0  0  0  0  0  0  0
   86.0910   99.6280  -43.7310 N   0  0  0  0  0  0  0  0  0  0  0  0
   87.1980   99.6780  -42.8230 C   0  0  0  0  0  0  0  0  0  0  0  0
   87.6180   98.7630  -42.0750 O   0  0  0  0  0  0  0  0  0  0  0  0
   87.7920  101.0370  -42.9120 C   0  0  2  0  0  0  0  0  0  0  0  0
   86.8030  101.8940  -43.6700 C   0  0  0  0  0  0  0  0  0  0  0  0
   85.6490  100.9740  -43.8520 C   0  0  0  0  0  0  0  0  0  0  0  0
   84.4360  101.3180  -44.0830 O   0  0  0  0  0  0  0  0  0  0  0  0
   89.0640  100.9600  -43.5080 N   0  0  2  0  0  0  0  0  0  0  0  0
   89.2110  100.2940  -44.7390 C   0  0  0  0  0  0  0  0  0  0  0  0
   90.7040  100.2360  -45.0890 C   0  0  0  0  0  0  0  0  0  0  0  0
   91.4560   99.3430  -44.1270 C   0  0  1  0  0  0  0  0  0  0  0  0
   90.9630   99.5670  -42.7550 C   0  0  0  0  0  0  0  0  0  0  0  0
   90.1720  100.8450  -42.6380 C   0  0  0  0  0  0  0  0  0  0  0  0
   91.4060   98.0260  -44.6120 N   0  0  0  0  0  0  0  0  0  0  0  0
   91.1350   97.8150  -45.9720 C   0  0  0  0  0  0  0  0  0  0  0  0
   89.9230   96.8700  -46.0430 C   0  0  0  0  0  0  0  0  0  0  0  0
   90.3940   95.5550  -45.4570 C   0  0  0  0  0  0  0  0  0  0  0  0
   91.6530   95.6730  -44.6640 C   0  0  0  0  0  0  0  0  0  0  0  0
   91.6980   96.9450  -43.8030 C   0  0  0  0  0  0  0  0  0  0  0  0
   92.8890   99.8010  -44.1960 C   0  0  0  0  0  0  0  0  0  0  0  0
   93.6740   99.2940  -45.0520 O   0  0  0  0  0  0  0  0  0  0  0  0
   93.4200  100.7920  -43.3360 N   0  0  0  0  0  0  0  0  0  0  0  0
   82.6890   96.6910  -44.6250 H   0  0  0  0  0  0  0  0  0  0  0  0
   83.5950   98.6930  -43.5250 H   0  0  0  0  0  0  0  0  0  0  0  0
   87.3310   97.9070  -45.3800 H   0  0  0  0  0  0  0  0  0  0  0  0
   86.3860   95.9020  -46.4670 H   0  0  0  0  0  0  0  0  0  0  0  0
   87.8110  101.4300  -41.8590 H   0  0  0  0  0  0  0  0  0  0  0  0
   87.1510  102.1640  -44.6890 H   0  0  0  0  0  0  0  0  0  0  0  0
   86.4530  102.7490  -43.0790 H   0  0  0  0  0  0  0  0  0  0  0  0
   88.8430   99.2410  -44.6490 H   0  0  0  0  0  0  0  0  0  0  0  0
   88.7430  100.8050  -45.6190 H   0  0  0  0  0  0  0  0  0  0  0  0
   91.0720  101.2780  -44.8880 H   0  0  0  0  0  0  0  0  0  0  0  0
   90.8500   99.9840  -46.1370 H   0  0  0  0  0  0  0  0  0  0  0  0
   91.8580   99.7230  -42.0780 H   0  0  0  0  0  0  0  0  0  0  0  0
   90.4510   98.7030  -42.2910 H   0  0  0  0  0  0  0  0  0  0  0  0
   89.9090  101.0470  -41.5580 H   0  0  0  0  0  0  0  0  0  0  0  0
   90.8560  101.7180  -42.8810 H   0  0  0  0  0  0  0  0  0  0  0  0
   90.8810   98.7470  -46.4800 H   0  0  0  0  0  0  0  0  0  0  0  0
   91.9880   97.2790  -46.4390 H   0  0  0  0  0  0  0  0  0  0  0  0
   89.0980   97.2590  -45.3920 H   0  0  0  0  0  0  0  0  0  0  0  0
   89.5900   96.7830  -47.0880 H   0  0  0  0  0  0  0  0  0  0  0  0
   89.5810   95.0290  -44.9140 H   0  0  0  0  0  0  0  0  0  0  0  0
   90.6110   94.8960  -46.3450 H   0  0  0  0  0  0  0  0  0  0  0  0
   91.6840   94.8140  -43.9400 H   0  0  0  0  0  0  0  0  0  0  0  0
   92.5820   95.6110  -45.2840 H   0  0  0  0  0  0  0  0  0  0  0  0
   92.6640   96.9230  -43.2840 H   0  0  0  0  0  0  0  0  0  0  0  0
   90.9190   96.8100  -43.0170 H   0  0  0  0  0  0  0  0  0  0  0  0
   94.0070  100.5130  -42.5400 H   0  0  0  0  0  0  0  0  0  0  0  0
   93.2280  101.7990  -43.4980 H   0  0  0  0  0  0  0  0  0  0  0  0
  1  2  1  0  0  0  0
  2  3  1  0  0  0  0
  3 30  1  0  0  0  0
  3  4  2  0  0  0  0
  4 31  1  0  0  0  0
  5  4  1  0  0  0  0
  5  8  1  0  0  0  0
  6  5  2  0  0  0  0
  7  2  2  0  0  0  0
  7  6  1  0  0  0  0
  8  9  1  0  0  0  0
  9 10  2  0  0  0  0
 11  9  1  0  0  0  0
 11 34  1  1  0  0  0
 12 36  1  0  0  0  0
 12 11  1  0  0  0  0
 13  8  1  0  0  0  0
 13 12  1  0  0  0  0
 14 13  2  0  0  0  0
 15 16  1  6  0  0  0
 15 11  1  0  0  0  0
 15 20  1  0  0  0  0
 16 37  1  0  0  0  0
 17 39  1  0  0  0  0
 17 16  1  0  0  0  0
 17 18  1  0  0  0  0
 18 27  1  6  0  0  0
 18 19  1  0  0  0  0
 19 20  1  0  0  0  0
 19 42  1  0  0  0  0
 19 41  1  0  0  0  0
 20 43  1  0  0  0  0
 21 18  1  0  0  0  0
 21 26  1  0  0  0  0
 22 21  1  0  0  0  0
 23 22  1  0  0  0  0
 23 24  1  0  0  0  0
 23 47  1  0  0  0  0
 24 49  1  0  0  0  0
 24 25  1  0  0  0  0
 25 51  1  0  0  0  0
 25 26  1  0  0  0  0
 26 53  1  0  0  0  0
 26 54  1  0  0  0  0
 27 29  1  0  0  0  0
 28 27  2  0  0  0  0
 29 55  1  0  0  0  0
 32  6  1  0  0  0  0
 33  7  1  0  0  0  0
 35 12  1  0  0  0  0
 38 16  1  0  0  0  0
 40 17  1  0  0  0  0
 44 20  1  0  0  0  0
 45 22  1  0  0  0  0
 46 22  1  0  0  0  0
 48 23  1  0  0  0  0
 50 24  1  0  0  0  0
 52 25  1  0  0  0  0
 56 29  1  0  0  0  0
M  END
>  <Pose>
1

>  <Score>
-3.70

$$$$
