
 OpenBabel03212208273D

 49 52  0  0  0  0  0  0  0  0999 V2000
   87.6340   95.2040  -52.1300 B   0  0  0  0  0  0  0  0  0  0  0  0
   87.0780   95.8270  -50.3920 C   0  0  0  0  0  0  0  0  0  0  0  0
   87.9450   95.8240  -49.3260 C   0  0  0  0  0  0  0  0  0  0  0  0
   87.5370   96.2750  -48.0610 C   0  0  0  0  0  0  0  0  0  0  0  0
   86.2580   96.7320  -47.8620 C   0  0  0  0  0  0  0  0  0  0  0  0
   85.4080   96.7260  -48.9470 C   0  0  0  0  0  0  0  0  0  0  0  0
   85.7970   96.2850  -50.1890 C   0  0  0  0  0  0  0  0  0  0  0  0
   85.8350   97.1920  -46.5750 N   0  0  0  0  0  0  0  0  0  0  0  0
   85.9120   98.4080  -46.0300 C   0  0  0  0  0  0  0  0  0  0  0  0
   86.4180   99.4230  -46.6170 O   0  0  0  0  0  0  0  0  0  0  0  0
   85.3920   98.4740  -44.7590 C   0  0  0  0  0  0  0  0  0  0  0  0
   84.9700   97.2180  -44.5130 C   0  0  0  0  0  0  0  0  0  0  0  0
   84.4500   97.2550  -43.2620 N   0  0  0  0  0  0  0  0  0  0  0  0
   84.5480   98.4750  -42.7660 N   0  0  0  0  0  0  0  0  0  0  0  0
   85.1240   99.2270  -43.6810 N   0  0  0  0  0  0  0  0  0  0  0  0
   85.4080  100.6250  -43.5280 C   0  0  0  0  0  0  0  0  0  0  0  0
   86.6260  100.9010  -42.7710 C   0  0  0  0  0  0  0  0  0  0  0  0
   87.0440  102.0770  -42.5590 O   0  0  0  0  0  0  0  0  0  0  0  0
   87.3610   99.8040  -42.2680 N   0  0  0  0  0  0  0  0  0  0  0  0
   88.6750   99.5780  -42.7520 C   0  0  0  0  0  0  0  0  0  0  0  0
   89.6940  100.1980  -42.0730 C   0  0  0  0  0  0  0  0  0  0  0  0
   91.0170  100.0490  -42.5060 C   0  0  0  0  0  0  0  0  0  0  0  0
   91.2920   99.2860  -43.6100 C   0  0  0  0  0  0  0  0  0  0  0  0
   90.2680   98.6520  -44.3100 C   0  0  0  0  0  0  0  0  0  0  0  0
   88.9690   98.8180  -43.8550 C   0  0  0  0  0  0  0  0  0  0  0  0
   90.6190   97.9050  -45.4150 O   0  0  0  0  0  0  0  0  0  0  0  0
   91.2100   96.6430  -45.4230 C   0  0  0  0  0  0  0  0  0  0  0  0
   91.9560  100.7100  -41.7500 O   0  0  0  0  0  0  0  0  0  0  0  0
   92.6770  100.1380  -40.7210 C   0  0  0  0  0  0  0  0  0  0  0  0
   85.2340   96.4290  -45.6090 C   0  0  0  0  0  0  0  0  0  0  0  0
   84.9930   95.2090  -45.7680 O   0  0  0  0  0  0  0  0  0  0  0  0
   88.9500   95.4680  -49.4760 H   0  0  0  0  0  0  0  0  0  0  0  0
   88.2370   96.2590  -47.2370 H   0  0  0  0  0  0  0  0  0  0  0  0
   84.3960   97.0930  -48.7620 H   0  0  0  0  0  0  0  0  0  0  0  0
   85.1170   96.2870  -51.0370 H   0  0  0  0  0  0  0  0  0  0  0  0
   84.0400   96.4200  -42.7820 H   0  0  0  0  0  0  0  0  0  0  0  0
   84.2070   98.7320  -41.8010 H   0  0  0  0  0  0  0  0  0  0  0  0
   85.4820  101.1470  -44.5190 H   0  0  0  0  0  0  0  0  0  0  0  0
   84.5660  101.1670  -43.0080 H   0  0  0  0  0  0  0  0  0  0  0  0
   86.9350   99.1560  -41.5360 H   0  0  0  0  0  0  0  0  0  0  0  0
   89.4670  100.8070  -41.1890 H   0  0  0  0  0  0  0  0  0  0  0  0
   92.3210   99.1860  -43.9250 H   0  0  0  0  0  0  0  0  0  0  0  0
   88.1690   98.3230  -44.3940 H   0  0  0  0  0  0  0  0  0  0  0  0
   91.8710   96.5380  -46.3150 H   0  0  0  0  0  0  0  0  0  0  0  0
   90.4390   95.8260  -45.5530 H   0  0  0  0  0  0  0  0  0  0  0  0
   91.8120   96.4130  -44.5240 H   0  0  0  0  0  0  0  0  0  0  0  0
   93.7260  100.5200  -40.7330 H   0  0  0  0  0  0  0  0  0  0  0  0
   92.7120   99.0510  -40.7520 H   0  0  0  0  0  0  0  0  0  0  0  0
   92.2350  100.5100  -39.7480 H   0  0  0  0  0  0  0  0  0  0  0  0
  1  2  1  0  0  0  0
  2  7  2  0  0  0  0
  2  3  1  0  0  0  0
  3  4  2  0  0  0  0
  4  5  1  0  0  0  0
  4 33  1  0  0  0  0
  5  8  1  0  0  0  0
  6 34  1  0  0  0  0
  6  5  2  0  0  0  0
  7  6  1  0  0  0  0
  8  9  1  0  0  0  0
  8 30  1  0  0  0  0
  9 11  1  0  0  0  0
 10  9  2  0  0  0  0
 11 12  2  0  0  0  0
 11 15  1  0  0  0  0
 12 13  1  0  0  0  0
 13 36  1  0  0  0  0
 13 14  1  0  0  0  0
 14 37  1  0  0  0  0
 15 16  1  0  0  0  0
 15 14  1  0  0  0  0
 16 39  1  0  0  0  0
 16 17  1  0  0  0  0
 17 18  2  0  0  0  0
 17 19  1  0  0  0  0
 19 40  1  0  0  0  0
 20 19  1  0  0  0  0
 20 21  1  0  0  0  0
 21 41  1  0  0  0  0
 22 21  2  0  0  0  0
 22 28  1  0  0  0  0
 23 22  1  0  0  0  0
 24 25  1  0  0  0  0
 24 23  2  0  0  0  0
 25 20  2  0  0  0  0
 26 24  1  0  0  0  0
 27 26  1  0  0  0  0
 27 46  1  0  0  0  0
 28 29  1  0  0  0  0
 29 49  1  0  0  0  0
 30 12  1  0  0  0  0
 31 30  2  0  0  0  0
 32  3  1  0  0  0  0
 35  7  1  0  0  0  0
 38 16  1  0  0  0  0
 42 23  1  0  0  0  0
 43 25  1  0  0  0  0
 44 27  1  0  0  0  0
 45 27  1  0  0  0  0
 47 29  1  0  0  0  0
 48 29  1  0  0  0  0
M  END
>  <Pose>
1

>  <Score>
-6.12

$$$$
