
 OpenBabel03212208273D

 48 51  0  0  0  0  0  0  0  0999 V2000
   92.5240   89.4840  -48.3030 B   0  0  0  0  0  0  0  0  0  0  0  0
   92.3930   90.8030  -46.9300 C   0  0  0  0  0  0  0  0  0  0  0  0
   93.3690   90.9620  -45.9680 C   0  0  0  0  0  0  0  0  0  0  0  0
   93.2600   91.9270  -44.9790 C   0  0  0  0  0  0  0  0  0  0  0  0
   92.1760   92.7770  -44.9050 C   0  0  0  0  0  0  0  0  0  0  0  0
   91.1950   92.6210  -45.8680 C   0  0  0  0  0  0  0  0  0  0  0  0
   91.3020   91.6600  -46.8520 C   0  0  0  0  0  0  0  0  0  0  0  0
   92.0290   93.7850  -43.9090 N   0  0  0  0  0  0  0  0  0  0  0  0
   91.7350   95.1030  -44.0920 C   0  0  0  0  0  0  0  0  0  0  0  0
   91.5420   95.6240  -45.2160 O   0  0  0  0  0  0  0  0  0  0  0  0
   91.6820   95.7680  -42.8860 C   0  0  0  0  0  0  0  0  0  0  0  0
   91.9450   94.8570  -41.9590 C   0  0  0  0  0  0  0  0  0  0  0  0
   91.9010   95.4790  -40.7670 N   0  0  0  0  0  0  0  0  0  0  0  0
   91.6150   96.7550  -40.9800 N   0  0  0  0  0  0  0  0  0  0  0  0
   91.4730   96.9680  -42.2750 N   0  0  0  0  0  0  0  0  0  0  0  0
   91.1750   98.2000  -42.9440 C   0  0  0  0  0  0  0  0  0  0  0  0
   91.3590   99.4180  -42.0680 C   0  0  0  0  0  0  0  0  0  0  0  0
   90.3100  100.0190  -41.7510 O   0  0  0  0  0  0  0  0  0  0  0  0
   92.6190   99.8350  -41.6430 N   0  0  0  0  0  0  0  0  0  0  0  0
   92.9800  100.8590  -40.7520 C   0  0  0  0  0  0  0  0  0  0  0  0
   94.3260  101.1560  -40.5370 C   0  0  0  0  0  0  0  0  0  0  0  0
   94.7230  102.1340  -39.6640 C   0  0  0  0  0  0  0  0  0  0  0  0
   93.7750  102.8700  -38.9530 C   0  0  0  0  0  0  0  0  0  0  0  0
   92.4590  102.5550  -39.1870 C   0  0  0  0  0  0  0  0  0  0  0  0
   92.0540  101.5760  -40.0640 C   0  0  0  0  0  0  0  0  0  0  0  0
   94.2180  103.8400  -38.0840 O   0  0  0  0  0  0  0  0  0  0  0  0
   95.1020  103.6690  -37.0240 C   0  0  0  0  0  0  0  0  0  0  0  0
   94.6670  102.6620  -36.0150 C   0  0  0  0  0  0  0  0  0  0  0  0
   92.1560   93.6480  -42.5820 C   0  0  0  0  0  0  0  0  0  0  0  0
   92.4310   92.5420  -42.0190 O   0  0  0  0  0  0  0  0  0  0  0  0
   94.2250   90.2920  -46.0250 H   0  0  0  0  0  0  0  0  0  0  0  0
   94.0250   92.0490  -44.2290 H   0  0  0  0  0  0  0  0  0  0  0  0
   90.3440   93.2900  -45.8060 H   0  0  0  0  0  0  0  0  0  0  0  0
   90.5240   91.5590  -47.5910 H   0  0  0  0  0  0  0  0  0  0  0  0
   92.0550   95.0670  -39.8300 H   0  0  0  0  0  0  0  0  0  0  0  0
   91.5150   97.4860  -40.2170 H   0  0  0  0  0  0  0  0  0  0  0  0
   91.8490   98.3300  -43.8320 H   0  0  0  0  0  0  0  0  0  0  0  0
   90.1090   98.2540  -43.2960 H   0  0  0  0  0  0  0  0  0  0  0  0
   93.4490   99.2890  -42.0640 H   0  0  0  0  0  0  0  0  0  0  0  0
   95.0740  100.6020  -41.0730 H   0  0  0  0  0  0  0  0  0  0  0  0
   95.7910  102.3420  -39.5180 H   0  0  0  0  0  0  0  0  0  0  0  0
   91.6910  103.0970  -38.6610 H   0  0  0  0  0  0  0  0  0  0  0  0
   90.9830  101.3780  -40.2080 H   0  0  0  0  0  0  0  0  0  0  0  0
   96.0840  103.3030  -37.4510 H   0  0  0  0  0  0  0  0  0  0  0  0
   95.3200  104.6270  -36.5050 H   0  0  0  0  0  0  0  0  0  0  0  0
   95.2990  101.7540  -35.9540 H   0  0  0  0  0  0  0  0  0  0  0  0
   94.6900  103.1020  -34.9900 H   0  0  0  0  0  0  0  0  0  0  0  0
   93.6100  102.3110  -36.1510 H   0  0  0  0  0  0  0  0  0  0  0  0
  1  2  1  0  0  0  0
  2  7  2  0  0  0  0
  2  3  1  0  0  0  0
  3  4  2  0  0  0  0
  4  5  1  0  0  0  0
  4 32  1  0  0  0  0
  5  8  1  0  0  0  0
  6 33  1  0  0  0  0
  6  5  2  0  0  0  0
  7  6  1  0  0  0  0
  8 29  1  0  0  0  0
  9  8  1  0  0  0  0
  9 11  1  0  0  0  0
 10  9  2  0  0  0  0
 11 15  1  0  0  0  0
 11 12  2  0  0  0  0
 12 13  1  0  0  0  0
 13 35  1  0  0  0  0
 14 13  1  0  0  0  0
 14 36  1  0  0  0  0
 15 14  1  0  0  0  0
 16 15  1  0  0  0  0
 16 17  1  0  0  0  0
 17 18  2  0  0  0  0
 17 19  1  0  0  0  0
 19 20  1  0  0  0  0
 20 21  2  0  0  0  0
 20 25  1  0  0  0  0
 21 22  1  0  0  0  0
 22 41  1  0  0  0  0
 22 23  2  0  0  0  0
 23 26  1  0  0  0  0
 24 23  1  0  0  0  0
 24 42  1  0  0  0  0
 25 24  2  0  0  0  0
 26 27  1  0  0  0  0
 27 45  1  0  0  0  0
 27 28  1  0  0  0  0
 28 46  1  0  0  0  0
 28 47  1  0  0  0  0
 29 30  2  0  0  0  0
 29 12  1  0  0  0  0
 31  3  1  0  0  0  0
 34  7  1  0  0  0  0
 37 16  1  0  0  0  0
 38 16  1  0  0  0  0
 39 19  1  0  0  0  0
 40 21  1  0  0  0  0
 43 25  1  0  0  0  0
 44 27  1  0  0  0  0
 48 28  1  0  0  0  0
M  END
>  <Pose>
1

>  <Score>
-7.68

$$$$
