
 OpenBabel03212208273D

 36 39  0  0  0  0  0  0  0  0999 V2000
   92.5980   89.5400  -48.5150 B   0  0  0  0  0  0  0  0  0  0  0  0
   92.3930   90.8180  -47.1040 C   0  0  0  0  0  0  0  0  0  0  0  0
   91.3460   91.7160  -47.0870 C   0  0  0  0  0  0  0  0  0  0  0  0
   91.2100   92.6410  -46.0550 C   0  0  0  0  0  0  0  0  0  0  0  0
   92.1170   92.6870  -45.0160 C   0  0  0  0  0  0  0  0  0  0  0  0
   93.1580   91.7830  -45.0460 C   0  0  0  0  0  0  0  0  0  0  0  0
   93.3020   90.8630  -46.0670 C   0  0  0  0  0  0  0  0  0  0  0  0
   92.0050   93.6260  -43.9380 N   0  0  0  0  0  0  0  0  0  0  0  0
   91.7790   94.9530  -44.0600 C   0  0  0  0  0  0  0  0  0  0  0  0
   91.6250   95.6180  -45.1340 O   0  0  0  0  0  0  0  0  0  0  0  0
   91.7290   95.5590  -42.8180 C   0  0  0  0  0  0  0  0  0  0  0  0
   91.9290   94.5720  -41.9420 C   0  0  0  0  0  0  0  0  0  0  0  0
   91.8810   95.1630  -40.7240 N   0  0  0  0  0  0  0  0  0  0  0  0
   91.6590   96.4560  -40.8930 N   0  0  0  0  0  0  0  0  0  0  0  0
   91.5600   96.7320  -42.1820 N   0  0  0  0  0  0  0  0  0  0  0  0
   91.3220   98.0170  -42.7700 C   0  0  0  0  0  0  0  0  0  0  0  0
   92.2160   98.5680  -43.6640 C   0  0  0  0  0  0  0  0  0  0  0  0
   92.0130   99.8110  -44.2510 C   0  0  0  0  0  0  0  0  0  0  0  0
   90.8840  100.5410  -43.9450 C   0  0  0  0  0  0  0  0  0  0  0  0
   89.9890   99.9930  -43.0510 C   0  0  0  0  0  0  0  0  0  0  0  0
   90.1950   98.7530  -42.4680 C   0  0  0  0  0  0  0  0  0  0  0  0
   90.6470  101.8190  -44.5290 N   0  0  0  0  0  0  0  0  0  0  0  0
   91.4130  102.3120  -45.3780 O   0  0  0  0  0  0  0  0  0  0  0  0
   89.5520  102.5290  -44.1520 O   0  0  0  0  0  0  0  0  0  0  0  0
   92.1000   93.3830  -42.6200 C   0  0  0  0  0  0  0  0  0  0  0  0
   92.3090   92.2410  -42.1420 O   0  0  0  0  0  0  0  0  0  0  0  0
   90.6370   91.6700  -47.9110 H   0  0  0  0  0  0  0  0  0  0  0  0
   90.4030   93.3350  -46.0390 H   0  0  0  0  0  0  0  0  0  0  0  0
   93.8830   91.8080  -44.2310 H   0  0  0  0  0  0  0  0  0  0  0  0
   94.1340   90.1510  -46.0780 H   0  0  0  0  0  0  0  0  0  0  0  0
   92.0030   94.6530  -39.8110 H   0  0  0  0  0  0  0  0  0  0  0  0
   91.5680   97.1920  -40.1450 H   0  0  0  0  0  0  0  0  0  0  0  0
   93.1040   98.0140  -43.9170 H   0  0  0  0  0  0  0  0  0  0  0  0
   92.7350  100.2330  -44.9600 H   0  0  0  0  0  0  0  0  0  0  0  0
   89.1110  100.5790  -42.8240 H   0  0  0  0  0  0  0  0  0  0  0  0
   89.4870   98.3330  -41.7690 H   0  0  0  0  0  0  0  0  0  0  0  0
  1  2  1  0  0  0  0
  2  3  2  0  0  0  0
  2  7  1  0  0  0  0
  3  4  1  0  0  0  0
  4 28  1  0  0  0  0
  4  5  2  0  0  0  0
  5  8  1  0  0  0  0
  6  5  1  0  0  0  0
  6 29  1  0  0  0  0
  7  6  2  0  0  0  0
  8 25  1  0  0  0  0
  9  8  1  0  0  0  0
  9 11  1  0  0  0  0
 10  9  2  0  0  0  0
 11 15  1  0  0  0  0
 11 12  2  0  0  0  0
 12 13  1  0  0  0  0
 13 31  1  0  0  0  0
 14 13  1  0  0  0  0
 14 32  1  0  0  0  0
 15 14  1  0  0  0  0
 16 21  1  0  0  0  0
 16 15  1  0  0  0  0
 17 16  2  0  0  0  0
 18 19  2  0  0  0  0
 18 17  1  0  0  0  0
 19 20  1  0  0  0  0
 20 35  1  0  0  0  0
 20 21  2  0  0  0  0
 21 36  1  0  0  0  0
 22 24  2  0  0  0  0
 22 19  1  0  0  0  0
 23 22  2  0  0  0  0
 25 26  2  0  0  0  0
 25 12  1  0  0  0  0
 27  3  1  0  0  0  0
 30  7  1  0  0  0  0
 33 17  1  0  0  0  0
 34 18  1  0  0  0  0
M  END
>  <Pose>
1

>  <Score>
-6.47

$$$$
