
 OpenBabel03212208273D

 38 42  0  0  1  0  0  0  0  0999 V2000
   95.9190  103.2030  -40.0740 B   0  0  0  0  0  0  0  0  0  0  0  0
   94.6050  102.0450  -40.8020 C   0  0  0  0  0  0  0  0  0  0  0  0
   93.9410  101.1700  -39.9760 C   0  0  0  0  0  0  0  0  0  0  0  0
   92.9910  100.3420  -40.5310 C   0  0  0  0  0  0  0  0  0  0  0  0
   92.6940  100.3630  -41.8750 C   0  0  0  0  0  0  0  0  0  0  0  0
   93.3630  101.2460  -42.7110 C   0  0  0  0  0  0  0  0  0  0  0  0
   94.3250  102.0860  -42.1440 C   0  0  0  0  0  0  0  0  0  0  0  0
   91.7010   99.4970  -42.4400 N   0  0  0  0  0  0  0  0  0  0  0  0
   91.9120   98.1060  -42.6290 C   0  0  0  0  0  0  0  0  0  0  0  0
   92.7940   97.4410  -42.0360 O   0  0  0  0  0  0  0  0  0  0  0  0
   90.9290   97.5960  -43.6220 C   0  0  2  0  0  0  0  0  0  0  0  0
   91.4880   97.5750  -45.0110 C   0  0  1  0  0  0  0  0  0  0  0  0
   90.3160   97.8150  -45.7620 O   0  0  0  0  0  0  0  0  0  0  0  0
   90.0020   99.0730  -45.1900 C   0  0  1  0  0  0  0  0  0  0  0  0
   89.8920   98.7130  -43.7490 C   0  0  2  0  0  0  0  0  0  0  0  0
   90.3910   99.8270  -42.8980 C   0  0  0  0  0  0  0  0  0  0  0  0
   89.7590  100.8560  -42.6450 O   0  0  0  0  0  0  0  0  0  0  0  0
   91.2980   99.7670  -45.4050 C   0  0  0  0  0  0  0  0  0  0  0  0
   92.2250   98.8300  -45.2280 C   0  0  0  0  0  0  0  0  0  0  0  0
   92.1750   96.3370  -45.4010 C   0  0  0  0  0  0  0  0  0  0  0  0
   91.5330   95.6280  -46.3790 O   0  0  0  0  0  0  0  0  0  0  0  0
   91.0360   94.4720  -45.8310 C   0  0  0  0  0  0  0  0  0  0  0  0
   91.4250   94.4860  -44.3890 C   0  0  0  0  0  0  0  0  0  0  0  0
   92.3760   95.4970  -44.3210 O   0  0  0  0  0  0  0  0  0  0  0  0
   94.1400  101.1120  -38.9020 H   0  0  0  0  0  0  0  0  0  0  0  0
   92.4410   99.6290  -39.8970 H   0  0  0  0  0  0  0  0  0  0  0  0
   93.1200  101.2530  -43.7600 H   0  0  0  0  0  0  0  0  0  0  0  0
   94.8460  102.7730  -42.7950 H   0  0  0  0  0  0  0  0  0  0  0  0
   90.5040   96.6490  -43.2940 H   0  0  0  0  0  0  0  0  0  0  0  0
   89.1460   99.5450  -45.6390 H   0  0  0  0  0  0  0  0  0  0  0  0
   88.9060   98.3740  -43.4310 H   0  0  0  0  0  0  0  0  0  0  0  0
   91.3820  100.8170  -45.6520 H   0  0  0  0  0  0  0  0  0  0  0  0
   93.2850   99.0620  -45.2550 H   0  0  0  0  0  0  0  0  0  0  0  0
   93.1940   96.6180  -45.7810 H   0  0  0  0  0  0  0  0  0  0  0  0
   91.4180   93.5520  -46.3160 H   0  0  0  0  0  0  0  0  0  0  0  0
   89.9180   94.5200  -45.8900 H   0  0  0  0  0  0  0  0  0  0  0  0
   91.8730   93.4940  -44.0870 H   0  0  0  0  0  0  0  0  0  0  0  0
   90.5770   94.7400  -43.7040 H   0  0  0  0  0  0  0  0  0  0  0  0
  2  1  1  0  0  0  0
  2  3  1  0  0  0  0
  3 25  1  0  0  0  0
  4  3  2  0  0  0  0
  4 26  1  0  0  0  0
  5  4  1  0  0  0  0
  6  7  1  0  0  0  0
  6  5  2  0  0  0  0
  7  2  2  0  0  0  0
  8  5  1  0  0  0  0
  9  8  1  0  0  0  0
  9 10  2  0  0  0  0
 11 29  1  1  0  0  0
 11  9  1  0  0  0  0
 12 20  1  6  0  0  0
 12 11  1  0  0  0  0
 13 14  1  0  0  0  0
 13 12  1  0  0  0  0
 14 30  1  6  0  0  0
 14 15  1  0  0  0  0
 15 11  1  0  0  0  0
 15 31  1  1  0  0  0
 15 16  1  0  0  0  0
 16 17  2  0  0  0  0
 16  8  1  0  0  0  0
 18 19  2  0  0  0  0
 18 14  1  0  0  0  0
 19 12  1  0  0  0  0
 20 24  1  0  0  0  0
 21 22  1  0  0  0  0
 21 20  1  0  0  0  0
 22 23  1  0  0  0  0
 23 24  1  0  0  0  0
 23 37  1  0  0  0  0
 23 38  1  0  0  0  0
 27  6  1  0  0  0  0
 28  7  1  0  0  0  0
 32 18  1  0  0  0  0
 33 19  1  0  0  0  0
 34 20  1  0  0  0  0
 35 22  1  0  0  0  0
 36 22  1  0  0  0  0
M  END
>  <Pose>
1

>  <Score>
-3.61

$$$$
