
 OpenBabel03212208273D

 41 44  0  0  1  0  0  0  0  0999 V2000
   92.4230   89.5980  -48.4430 B   0  0  0  0  0  0  0  0  0  0  0  0
   92.3600   90.9020  -47.0250 C   0  0  0  0  0  0  0  0  0  0  0  0
   91.2480   91.6910  -46.8790 C   0  0  0  0  0  0  0  0  0  0  0  0
   91.2220   92.6040  -45.8750 C   0  0  0  0  0  0  0  0  0  0  0  0
   92.2700   92.7990  -44.9670 C   0  0  0  0  0  0  0  0  0  0  0  0
   93.3680   91.9990  -45.1330 C   0  0  0  0  0  0  0  0  0  0  0  0
   93.4160   91.0630  -46.1480 C   0  0  0  0  0  0  0  0  0  0  0  0
   92.1580   93.7740  -43.9500 N   0  0  0  0  0  0  0  0  0  0  0  0
   92.5540   93.6780  -42.5680 C   0  0  0  0  0  0  0  0  0  0  0  0
   93.4430   92.9130  -42.0980 O   0  0  0  0  0  0  0  0  0  0  0  0
   91.7210   94.6440  -41.8160 C   0  0  1  0  0  0  0  0  0  0  0  0
   92.3930   95.2660  -40.6910 N   0  0  0  0  0  0  0  0  0  0  0  0
   91.8130   96.5690  -40.7870 N   0  0  0  0  0  0  0  0  0  0  0  0
   91.7450   96.9340  -42.1660 C   0  0  0  0  0  0  0  0  0  0  0  0
   91.6880   95.7780  -42.8160 C   0  0  0  0  0  0  0  0  0  0  0  0
   91.6160   95.0910  -44.1000 C   0  0  0  0  0  0  0  0  0  0  0  0
   91.1360   95.6530  -45.1230 O   0  0  0  0  0  0  0  0  0  0  0  0
   91.7310   98.2730  -42.7460 C   0  0  0  0  0  0  0  0  0  0  0  0
   92.5390   98.6110  -43.6420 O   0  0  0  0  0  0  0  0  0  0  0  0
   90.8270   99.2440  -42.3420 O   0  0  0  0  0  0  0  0  0  0  0  0
   89.5060   99.2970  -42.8620 C   0  0  0  0  0  0  0  0  0  0  0  0
   89.5640   99.3050  -44.3620 C   0  0  0  0  0  0  0  0  0  0  0  0
   89.4260   98.1180  -45.0790 C   0  0  0  0  0  0  0  0  0  0  0  0
   89.4680   98.0820  -46.4470 C   0  0  0  0  0  0  0  0  0  0  0  0
   89.6570   99.2710  -47.1460 C   0  0  0  0  0  0  0  0  0  0  0  0
   89.7940  100.4420  -46.4340 C   0  0  0  0  0  0  0  0  0  0  0  0
   89.7480  100.4670  -45.0380 C   0  0  0  0  0  0  0  0  0  0  0  0
   90.4120   91.5660  -47.5680 H   0  0  0  0  0  0  0  0  0  0  0  0
   90.3470   93.2280  -45.7570 H   0  0  0  0  0  0  0  0  0  0  0  0
   94.2190   92.0890  -44.4690 H   0  0  0  0  0  0  0  0  0  0  0  0
   94.2790   90.4270  -46.2860 H   0  0  0  0  0  0  0  0  0  0  0  0
   90.7220   94.2800  -41.5720 H   0  0  0  0  0  0  0  0  0  0  0  0
   93.3940   95.3970  -41.0080 H   0  0  0  0  0  0  0  0  0  0  0  0
   91.4940   97.1590  -39.9950 H   0  0  0  0  0  0  0  0  0  0  0  0
   88.8680   98.4940  -42.4920 H   0  0  0  0  0  0  0  0  0  0  0  0
   89.0620  100.2650  -42.5610 H   0  0  0  0  0  0  0  0  0  0  0  0
   89.2790   97.2010  -44.5520 H   0  0  0  0  0  0  0  0  0  0  0  0
   89.3630   97.1670  -47.0080 H   0  0  0  0  0  0  0  0  0  0  0  0
   89.6980   99.2780  -48.2350 H   0  0  0  0  0  0  0  0  0  0  0  0
   89.9410  101.3870  -46.9160 H   0  0  0  0  0  0  0  0  0  0  0  0
   89.8580  101.4010  -44.5120 H   0  0  0  0  0  0  0  0  0  0  0  0
  1  2  1  0  0  0  0
  2  3  2  0  0  0  0
  2  7  1  0  0  0  0
  3  4  1  0  0  0  0
  4 29  1  0  0  0  0
  4  5  2  0  0  0  0
  5  8  1  0  0  0  0
  6  5  1  0  0  0  0
  6 30  1  0  0  0  0
  7  6  2  0  0  0  0
  8  9  1  0  0  0  0
  9 10  2  0  0  0  0
  9 11  1  0  0  0  0
 11 32  1  1  0  0  0
 11 12  1  0  0  0  0
 13 12  1  0  0  0  0
 13 34  1  0  0  0  0
 14 13  1  0  0  0  0
 15 14  2  0  0  0  0
 15 11  1  0  0  0  0
 16  8  1  0  0  0  0
 16 15  1  0  0  0  0
 17 16  2  0  0  0  0
 18 20  1  0  0  0  0
 18 14  1  0  0  0  0
 19 18  2  0  0  0  0
 21 36  1  0  0  0  0
 21 35  1  0  0  0  0
 21 20  1  0  0  0  0
 22 21  1  0  0  0  0
 23 37  1  0  0  0  0
 23 22  2  0  0  0  0
 24 23  1  0  0  0  0
 25 24  2  0  0  0  0
 25 26  1  0  0  0  0
 26 27  2  0  0  0  0
 27 41  1  0  0  0  0
 27 22  1  0  0  0  0
 28  3  1  0  0  0  0
 31  7  1  0  0  0  0
 33 12  1  0  0  0  0
 38 24  1  0  0  0  0
 39 25  1  0  0  0  0
 40 26  1  0  0  0  0
M  END
>  <Pose>
1

>  <Score>
-5.83

$$$$
