
 OpenBabel03212208273D

 45 48  0  0  1  0  0  0  0  0999 V2000
   91.9900   92.7440  -45.1990 B   0  0  0  0  0  0  0  0  0  0  0  0
   91.4250   94.5530  -44.9840 C   0  0  0  0  0  0  0  0  0  0  0  0
   90.6700   95.1360  -45.9660 C   0  0  0  0  0  0  0  0  0  0  0  0
   90.2550   96.4540  -45.8160 C   0  0  0  0  0  0  0  0  0  0  0  0
   90.5820   97.1960  -44.7040 C   0  0  0  0  0  0  0  0  0  0  0  0
   91.3420   96.5900  -43.7280 C   0  0  0  0  0  0  0  0  0  0  0  0
   91.7680   95.2770  -43.8540 C   0  0  0  0  0  0  0  0  0  0  0  0
   90.1120   98.5340  -44.6360 N   0  0  0  0  0  0  0  0  0  0  0  0
   91.0040   99.6330  -44.8970 C   0  0  0  0  0  0  0  0  0  0  0  0
   92.2090   99.4000  -45.1870 O   0  0  0  0  0  0  0  0  0  0  0  0
   90.4640  100.9330  -44.8120 N   0  0  0  0  0  0  0  0  0  0  0  0
   89.2560  101.1910  -44.5230 C   0  0  0  0  0  0  0  0  0  0  0  0
   88.1990  100.1940  -44.2250 C   0  0  1  0  0  0  0  0  0  0  0  0
   87.6100  100.5240  -42.8960 C   0  0  0  0  0  0  0  0  0  0  0  0
   86.2600  100.1490  -42.6770 N   0  0  0  0  0  4  0  0  0  0  0  0
   85.6940   99.2890  -43.6390 C   0  0  0  0  0  0  0  0  0  0  0  0
   86.0830   99.3730  -44.9820 C   0  0  0  0  0  0  0  0  0  0  0  0
   85.5230   98.5310  -45.9010 C   0  0  0  0  0  0  0  0  0  0  0  0
   84.5770   97.5810  -45.5880 C   0  0  0  0  0  0  0  0  0  0  0  0
   84.1970   97.5020  -44.2650 C   0  0  0  0  0  0  0  0  0  0  0  0
   84.7480   98.3440  -43.3080 C   0  0  0  0  0  0  0  0  0  0  0  0
   83.9930   96.6840  -46.6130 C   0  0  0  0  0  0  0  0  0  0  0  0
   87.1060  100.4100  -45.2750 C   0  0  0  0  0  0  0  0  0  0  0  0
   85.3870  101.3130  -42.4510 C   0  0  0  0  0  0  0  0  0  0  0  0
   88.7570   98.8280  -44.3110 C   0  0  0  0  0  0  0  0  0  0  0  0
   88.0220   97.8100  -44.0890 O   0  0  0  0  0  0  0  0  0  0  0  0
   88.8500  102.5410  -44.4740 O   0  0  0  0  0  0  0  0  0  0  0  0
   90.4180   94.5440  -46.8370 H   0  0  0  0  0  0  0  0  0  0  0  0
   89.6590   96.8550  -46.6300 H   0  0  0  0  0  0  0  0  0  0  0  0
   91.6170   97.1440  -42.8380 H   0  0  0  0  0  0  0  0  0  0  0  0
   92.3630   94.7750  -43.1080 H   0  0  0  0  0  0  0  0  0  0  0  0
   88.3020  100.1340  -42.1130 H   0  0  0  0  0  0  0  0  0  0  0  0
   87.6680  101.6470  -42.7810 H   0  0  0  0  0  0  0  0  0  0  0  0
   86.2230   99.6220  -41.7530 H   0  0  0  0  0  0  0  0  0  0  0  0
   85.8520   98.6260  -46.9350 H   0  0  0  0  0  0  0  0  0  0  0  0
   83.4530   96.7670  -43.9770 H   0  0  0  0  0  0  0  0  0  0  0  0
   84.4340   98.2640  -42.2800 H   0  0  0  0  0  0  0  0  0  0  0  0
   83.0290   96.2670  -46.3320 H   0  0  0  0  0  0  0  0  0  0  0  0
   84.0000   97.2200  -47.5820 H   0  0  0  0  0  0  0  0  0  0  0  0
   84.7260   95.8330  -46.7260 H   0  0  0  0  0  0  0  0  0  0  0  0
   87.5070  100.3300  -46.2950 H   0  0  0  0  0  0  0  0  0  0  0  0
   86.6650  101.3990  -45.0540 H   0  0  0  0  0  0  0  0  0  0  0  0
   84.9540  101.6840  -43.3960 H   0  0  0  0  0  0  0  0  0  0  0  0
   85.9620  102.0860  -41.9110 H   0  0  0  0  0  0  0  0  0  0  0  0
   84.5410  100.9910  -41.8100 H   0  0  0  0  0  0  0  0  0  0  0  0
  1  2  1  0  0  0  0
  2  7  1  0  0  0  0
  3  4  1  0  0  0  0
  3  2  2  0  0  0  0
  4  5  2  0  0  0  0
  5  8  1  0  0  0  0
  5  6  1  0  0  0  0
  6 30  1  0  0  0  0
  7  6  2  0  0  0  0
  7 31  1  0  0  0  0
  8 25  1  0  0  0  0
  9 11  1  0  0  0  0
  9  8  1  0  0  0  0
 10  9  2  0  0  0  0
 11 12  1  0  0  0  0
 12 27  2  0  0  0  0
 13 12  1  6  0  0  0
 13 14  1  0  0  0  0
 14 33  1  0  0  0  0
 14 15  1  0  0  0  0
 14 32  1  0  0  0  0
 15 24  1  0  0  0  0
 15 34  1  0  0  0  0
 16 21  1  0  0  0  0
 16 15  1  0  0  0  0
 17 16  2  0  0  0  0
 18 19  2  0  0  0  0
 18 17  1  0  0  0  0
 19 20  1  0  0  0  0
 20 36  1  0  0  0  0
 20 21  2  0  0  0  0
 21 37  1  0  0  0  0
 22 38  1  0  0  0  0
 22 19  1  0  0  0  0
 23 42  1  0  0  0  0
 23 17  1  0  0  0  0
 23 13  1  0  0  0  0
 24 44  1  0  0  0  0
 24 45  1  0  0  0  0
 25 13  1  0  0  0  0
 25 26  2  0  0  0  0
 28  3  1  0  0  0  0
 29  4  1  0  0  0  0
 35 18  1  0  0  0  0
 39 22  1  0  0  0  0
 40 22  1  0  0  0  0
 41 23  1  0  0  0  0
 43 24  1  0  0  0  0
M  END
>  <Pose>
1

>  <Score>
-4.85

$$$$
