
 OpenBabel03212208273D

 50 53  0  0  0  0  0  0  0  0999 V2000
   84.1960   91.8730  -51.3740 B   0  0  0  0  0  0  0  0  0  0  0  0
   85.8190   91.0030  -50.8510 C   0  0  0  0  0  0  0  0  0  0  0  0
   87.0450   91.4500  -51.3160 C   0  0  0  0  0  0  0  0  0  0  0  0
   88.2110   90.8160  -50.9330 C   0  0  0  0  0  0  0  0  0  0  0  0
   88.2060   89.7280  -50.0840 C   0  0  0  0  0  0  0  0  0  0  0  0
   86.9940   89.2700  -49.6120 C   0  0  0  0  0  0  0  0  0  0  0  0
   85.8390   89.9160  -50.0050 C   0  0  0  0  0  0  0  0  0  0  0  0
   89.4130   89.1170  -49.7250 N   0  0  0  0  0  0  0  0  0  0  0  0
   89.7170   87.8090  -50.2120 C   0  0  0  0  0  0  0  0  0  0  0  0
   88.8580   87.2500  -50.9670 O   0  0  0  0  0  0  0  0  0  0  0  0
   90.9370   87.1880  -49.8480 N   0  0  0  0  0  0  0  0  0  0  0  0
   91.9120   87.7940  -49.0060 C   0  0  0  0  0  0  0  0  0  0  0  0
   92.9920   87.2160  -48.6990 O   0  0  0  0  0  0  0  0  0  0  0  0
   91.6320   89.1440  -48.4850 C   0  0  0  0  0  0  0  0  0  0  0  0
   92.4990   89.7600  -47.6950 C   0  0  0  0  0  0  0  0  0  0  0  0
   92.2000   91.0610  -47.2090 N   0  0  0  0  0  0  0  0  0  0  0  0
   91.5090   91.3400  -46.0420 N   0  0  0  0  0  0  0  0  0  0  0  0
   91.5210   92.5970  -45.3760 C   0  0  0  0  0  0  0  0  0  0  0  0
   91.3480   93.7840  -45.9680 N   0  0  0  0  0  0  0  0  0  0  0  0
   91.4150   94.7590  -45.0470 C   0  0  0  0  0  0  0  0  0  0  0  0
   91.6420   94.1500  -43.8200 C   0  0  0  0  0  0  0  0  0  0  0  0
   91.6970   92.8440  -44.0780 N   0  0  0  0  0  0  0  0  0  0  0  0
   91.7600   94.8660  -42.6880 N   0  0  0  0  0  0  0  0  0  0  0  0
   91.6570   96.1940  -42.7510 C   0  0  0  0  0  0  0  0  0  0  0  0
   91.7620   96.9060  -41.7060 O   0  0  0  0  0  0  0  0  0  0  0  0
   91.4350   96.8540  -43.9190 N   0  0  0  0  0  0  0  0  0  0  0  0
   91.3180   96.1240  -45.0530 C   0  0  0  0  0  0  0  0  0  0  0  0
   91.1150   96.7270  -46.1270 O   0  0  0  0  0  0  0  0  0  0  0  0
   91.3290   98.2910  -43.9350 C   0  0  0  0  0  0  0  0  0  0  0  0
   91.9940   94.1670  -41.4590 C   0  0  0  0  0  0  0  0  0  0  0  0
   91.1140   94.0870  -47.3850 C   0  0  0  0  0  0  0  0  0  0  0  0
   90.3680   89.7550  -48.8780 C   0  0  0  0  0  0  0  0  0  0  0  0
   90.0850   90.9070  -48.4580 O   0  0  0  0  0  0  0  0  0  0  0  0
   87.0230   92.3050  -51.9780 H   0  0  0  0  0  0  0  0  0  0  0  0
   89.1320   91.2360  -51.3490 H   0  0  0  0  0  0  0  0  0  0  0  0
   86.9240   88.4070  -48.9320 H   0  0  0  0  0  0  0  0  0  0  0  0
   84.9090   89.5270  -49.6140 H   0  0  0  0  0  0  0  0  0  0  0  0
   91.1210   86.2310  -50.2270 H   0  0  0  0  0  0  0  0  0  0  0  0
   93.4240   89.3100  -47.4070 H   0  0  0  0  0  0  0  0  0  0  0  0
   92.5480   91.8580  -47.8080 H   0  0  0  0  0  0  0  0  0  0  0  0
   90.9420   90.5300  -45.6550 H   0  0  0  0  0  0  0  0  0  0  0  0
   91.2660   98.6570  -42.8900 H   0  0  0  0  0  0  0  0  0  0  0  0
   90.3890   98.6260  -44.4280 H   0  0  0  0  0  0  0  0  0  0  0  0
   92.1990   98.7250  -44.4580 H   0  0  0  0  0  0  0  0  0  0  0  0
   93.0640   94.1470  -41.1710 H   0  0  0  0  0  0  0  0  0  0  0  0
   91.3760   94.6410  -40.6670 H   0  0  0  0  0  0  0  0  0  0  0  0
   91.6540   93.1150  -41.5420 H   0  0  0  0  0  0  0  0  0  0  0  0
   90.0010   94.1960  -47.5260 H   0  0  0  0  0  0  0  0  0  0  0  0
   91.5650   95.0350  -47.6780 H   0  0  0  0  0  0  0  0  0  0  0  0
   91.4280   93.2230  -48.0020 H   0  0  0  0  0  0  0  0  0  0  0  0
  1  2  1  0  0  0  0
  2  7  1  0  0  0  0
  3  4  1  0  0  0  0
  3  2  2  0  0  0  0
  4  5  2  0  0  0  0
  5  8  1  0  0  0  0
  5  6  1  0  0  0  0
  6 36  1  0  0  0  0
  7 37  1  0  0  0  0
  7  6  2  0  0  0  0
  8 32  1  0  0  0  0
  9 11  1  0  0  0  0
  9  8  1  0  0  0  0
 10  9  2  0  0  0  0
 11 12  1  0  0  0  0
 12 13  2  0  0  0  0
 12 14  1  0  0  0  0
 14 15  2  0  0  0  0
 15 39  1  0  0  0  0
 15 16  1  0  0  0  0
 16 17  1  0  0  0  0
 17 41  1  0  0  0  0
 17 18  1  0  0  0  0
 18 22  2  0  0  0  0
 19 18  1  0  0  0  0
 19 20  1  0  0  0  0
 20 21  2  0  0  0  0
 21 23  1  0  0  0  0
 22 21  1  0  0  0  0
 23 30  1  0  0  0  0
 24 23  1  0  0  0  0
 24 25  2  0  0  0  0
 26 24  1  0  0  0  0
 27 20  1  0  0  0  0
 27 26  1  0  0  0  0
 28 27  2  0  0  0  0
 29 26  1  0  0  0  0
 29 42  1  0  0  0  0
 30 45  1  0  0  0  0
 30 46  1  0  0  0  0
 31 19  1  0  0  0  0
 32 14  1  0  0  0  0
 32 33  2  0  0  0  0
 34  3  1  0  0  0  0
 35  4  1  0  0  0  0
 38 11  1  0  0  0  0
 40 16  1  0  0  0  0
 43 29  1  0  0  0  0
 44 29  1  0  0  0  0
 47 30  1  0  0  0  0
 48 31  1  0  0  0  0
 49 31  1  0  0  0  0
 50 31  1  0  0  0  0
M  END
>  <Pose>
1

>  <Score>
-6.88

$$$$
