
 OpenBabel03212208273D

 44 47  0  0  0  0  0  0  0  0999 V2000
   92.7970  102.0470  -42.6640 B   0  0  0  0  0  0  0  0  0  0  0  0
   92.4460  100.2040  -42.8540 C   0  0  0  0  0  0  0  0  0  0  0  0
   92.2490   99.6140  -44.0850 C   0  0  0  0  0  0  0  0  0  0  0  0
   91.9910   98.2470  -44.1990 C   0  0  0  0  0  0  0  0  0  0  0  0
   91.9320   97.4640  -43.0690 C   0  0  0  0  0  0  0  0  0  0  0  0
   92.1340   98.0870  -41.8580 C   0  0  0  0  0  0  0  0  0  0  0  0
   92.3880   99.4240  -41.7160 C   0  0  0  0  0  0  0  0  0  0  0  0
   91.6750   96.0750  -43.0810 N   0  0  0  0  0  0  0  0  0  0  0  0
   91.7370   95.3330  -41.8370 C   0  0  0  0  0  0  0  0  0  0  0  0
   91.5060   93.8510  -42.0210 C   0  0  0  0  0  0  0  0  0  0  0  0
   92.3360   93.4210  -43.2410 C   0  0  0  0  0  0  0  0  0  0  0  0
   91.6690   94.0150  -44.3710 N   0  0  0  0  0  0  0  0  0  0  0  0
   91.3550   95.3410  -44.2560 C   0  0  0  0  0  0  0  0  0  0  0  0
   90.7430   95.7310  -45.3860 N   0  0  0  0  0  0  0  0  0  0  0  0
   90.6850   94.6410  -46.1920 C   0  0  0  0  0  0  0  0  0  0  0  0
   91.2690   93.5540  -45.5590 C   0  0  0  0  0  0  0  0  0  0  0  0
   91.3290   92.3240  -46.1850 C   0  0  0  0  0  0  0  0  0  0  0  0
   91.8750   91.3480  -45.5680 O   0  0  0  0  0  0  0  0  0  0  0  0
   90.8170   92.1870  -47.4200 N   0  0  0  0  0  0  0  0  0  0  0  0
   90.2570   93.2570  -48.0110 C   0  0  0  0  0  0  0  0  0  0  0  0
   89.7890   93.0840  -49.1680 O   0  0  0  0  0  0  0  0  0  0  0  0
   90.1870   94.4530  -47.4260 N   0  0  0  0  0  0  0  0  0  0  0  0
   89.5740   95.5910  -48.0950 C   0  0  0  0  0  0  0  0  0  0  0  0
   90.8760   90.8970  -48.0870 C   0  0  0  0  0  0  0  0  0  0  0  0
   92.1230   90.8480  -48.9200 C   0  0  0  0  0  0  0  0  0  0  0  0
   92.0830   91.1190  -50.1430 O   0  0  0  0  0  0  0  0  0  0  0  0
   93.3710   90.4990  -48.3560 N   0  0  0  0  0  0  0  0  0  0  0  0
   92.2910  100.2110  -44.9900 H   0  0  0  0  0  0  0  0  0  0  0  0
   91.8450   97.8270  -45.1830 H   0  0  0  0  0  0  0  0  0  0  0  0
   92.0970   97.5040  -40.9250 H   0  0  0  0  0  0  0  0  0  0  0  0
   92.5390   99.8550  -40.7380 H   0  0  0  0  0  0  0  0  0  0  0  0
   92.7750   95.4320  -41.4070 H   0  0  0  0  0  0  0  0  0  0  0  0
   91.0470   95.7560  -41.0700 H   0  0  0  0  0  0  0  0  0  0  0  0
   90.4190   93.6590  -42.2320 H   0  0  0  0  0  0  0  0  0  0  0  0
   91.8560   93.3070  -41.1480 H   0  0  0  0  0  0  0  0  0  0  0  0
   92.4350   92.3380  -43.3080 H   0  0  0  0  0  0  0  0  0  0  0  0
   93.3210   93.9510  -43.1150 H   0  0  0  0  0  0  0  0  0  0  0  0
   89.3390   96.3860  -47.3900 H   0  0  0  0  0  0  0  0  0  0  0  0
   90.1820   95.8960  -48.9630 H   0  0  0  0  0  0  0  0  0  0  0  0
   88.6060   95.1970  -48.5180 H   0  0  0  0  0  0  0  0  0  0  0  0
   89.9870   90.7480  -48.7180 H   0  0  0  0  0  0  0  0  0  0  0  0
   90.9440   90.1100  -47.3230 H   0  0  0  0  0  0  0  0  0  0  0  0
   94.2260   90.3340  -48.9340 H   0  0  0  0  0  0  0  0  0  0  0  0
   93.4910   90.3920  -47.3180 H   0  0  0  0  0  0  0  0  0  0  0  0
  2  1  1  0  0  0  0
  2  7  1  0  0  0  0
  3  2  2  0  0  0  0
  4  3  1  0  0  0  0
  4  5  2  0  0  0  0
  5  6  1  0  0  0  0
  6  7  2  0  0  0  0
  6 30  1  0  0  0  0
  7 31  1  0  0  0  0
  8  5  1  0  0  0  0
  8  9  1  0  0  0  0
  9 32  1  0  0  0  0
  9 33  1  0  0  0  0
 10  9  1  0  0  0  0
 10 35  1  0  0  0  0
 11 37  1  0  0  0  0
 11 10  1  0  0  0  0
 12 13  1  0  0  0  0
 12 11  1  0  0  0  0
 13  8  1  0  0  0  0
 14 13  2  0  0  0  0
 15 16  2  0  0  0  0
 15 14  1  0  0  0  0
 16 12  1  0  0  0  0
 17 18  2  0  0  0  0
 17 16  1  0  0  0  0
 19 17  1  0  0  0  0
 20 22  1  0  0  0  0
 20 19  1  0  0  0  0
 21 20  2  0  0  0  0
 22 15  1  0  0  0  0
 23 22  1  0  0  0  0
 23 38  1  0  0  0  0
 24 19  1  0  0  0  0
 24 42  1  0  0  0  0
 25 27  1  0  0  0  0
 25 24  1  0  0  0  0
 26 25  2  0  0  0  0
 27 44  1  0  0  0  0
 28  3  1  0  0  0  0
 29  4  1  0  0  0  0
 34 10  1  0  0  0  0
 36 11  1  0  0  0  0
 39 23  1  0  0  0  0
 40 23  1  0  0  0  0
 41 24  1  0  0  0  0
 43 27  1  0  0  0  0
M  END
>  <Pose>
1

>  <Score>
-5.97

$$$$
