
 OpenBabel03212208273D

 49 52  0  0  1  0  0  0  0  0999 V2000
   91.6770   91.0160  -46.6630 B   0  0  0  0  0  0  0  0  0  0  0  0
   91.6760   92.6240  -45.6150 C   0  0  0  0  0  0  0  0  0  0  0  0
   92.1670   92.6010  -44.3280 C   0  0  0  0  0  0  0  0  0  0  0  0
   92.1650   93.7720  -43.5660 C   0  0  0  0  0  0  0  0  0  0  0  0
   91.6810   94.9510  -44.0810 C   0  0  0  0  0  0  0  0  0  0  0  0
   91.1970   94.9540  -45.3660 C   0  0  0  0  0  0  0  0  0  0  0  0
   91.1910   93.8100  -46.1280 C   0  0  0  0  0  0  0  0  0  0  0  0
   91.6850   96.1010  -43.3220 O   0  0  0  0  0  0  0  0  0  0  0  0
   91.2580   97.3050  -43.8890 C   0  0  0  0  0  0  0  0  0  0  0  0
   92.3690   98.1490  -44.3670 C   0  0  0  0  0  0  0  0  0  0  0  0
   92.7950   98.0160  -45.5280 O   0  0  0  0  0  0  0  0  0  0  0  0
   92.9410   99.1050  -43.5040 N   0  0  0  0  0  0  0  0  0  0  0  0
   92.1580  100.0100  -42.7290 C   0  0  0  0  0  0  0  0  0  0  0  0
   90.8540  100.2100  -42.9950 N   0  0  0  0  0  0  0  0  0  0  0  0
   90.1570  101.0540  -42.2520 C   0  0  0  0  0  0  0  0  0  0  0  0
   88.8680  101.4140  -42.3180 N   0  0  0  0  0  0  0  0  0  0  0  0
   88.6870  102.3070  -41.3170 C   0  0  0  0  0  0  0  0  0  0  0  0
   89.8320  102.4930  -40.6530 N   0  0  0  0  0  0  0  0  0  0  0  0
   90.7830  101.7320  -41.1990 C   0  0  0  0  0  0  0  0  0  0  0  0
   92.1220  101.5320  -40.9210 C   0  0  0  0  0  0  0  0  0  0  0  0
   92.7750  100.6690  -41.7040 N   0  0  0  0  0  0  0  0  0  0  0  0
   92.6910  102.2300  -39.8650 O   0  0  0  0  0  0  0  0  0  0  0  0
   87.8330  101.0180  -43.1930 C   0  0  2  0  0  0  0  0  0  0  0  0
   87.1020  102.1150  -43.6680 O   0  0  0  0  0  0  0  0  0  0  0  0
   85.9860  102.1220  -42.8350 C   0  0  2  0  0  0  0  0  0  0  0  0
   85.5440  100.6720  -42.9620 C   0  0  1  0  0  0  0  0  0  0  0  0
   86.8910   99.9930  -42.7210 C   0  0  1  0  0  0  0  0  0  0  0  0
   86.9720   98.8050  -43.4820 O   0  0  0  0  0  0  0  0  0  0  0  0
   84.5840  100.3100  -42.0590 O   0  0  0  0  0  0  0  0  0  0  0  0
   84.9280  103.0800  -43.2980 C   0  0  0  0  0  0  0  0  0  0  0  0
   84.4090  103.8590  -42.3000 O   0  0  0  0  0  0  0  0  0  0  0  0
   92.5430   91.6740  -43.9340 H   0  0  0  0  0  0  0  0  0  0  0  0
   92.5630   93.6760  -42.5700 H   0  0  0  0  0  0  0  0  0  0  0  0
   90.7950   95.8520  -45.8440 H   0  0  0  0  0  0  0  0  0  0  0  0
   90.8140   93.7880  -47.1450 H   0  0  0  0  0  0  0  0  0  0  0  0
   90.7410   97.8900  -43.0790 H   0  0  0  0  0  0  0  0  0  0  0  0
   90.4860   97.1630  -44.6730 H   0  0  0  0  0  0  0  0  0  0  0  0
   93.9950   99.1780  -43.4090 H   0  0  0  0  0  0  0  0  0  0  0  0
   87.7510  102.8230  -41.0600 H   0  0  0  0  0  0  0  0  0  0  0  0
   92.7390  101.7240  -38.9740 H   0  0  0  0  0  0  0  0  0  0  0  0
   88.3190  100.6110  -44.1340 H   0  0  0  0  0  0  0  0  0  0  0  0
   86.2500  102.2660  -41.7690 H   0  0  0  0  0  0  0  0  0  0  0  0
   85.2490  100.4540  -44.0090 H   0  0  0  0  0  0  0  0  0  0  0  0
   86.9340   99.6950  -41.6880 H   0  0  0  0  0  0  0  0  0  0  0  0
   86.7870   98.0720  -42.8440 H   0  0  0  0  0  0  0  0  0  0  0  0
   84.9630  100.0030  -41.1750 H   0  0  0  0  0  0  0  0  0  0  0  0
   84.1760  102.4900  -43.8580 H   0  0  0  0  0  0  0  0  0  0  0  0
   85.4090  103.7490  -44.0540 H   0  0  0  0  0  0  0  0  0  0  0  0
   84.2210  103.2820  -41.5150 H   0  0  0  0  0  0  0  0  0  0  0  0
  1  2  1  0  0  0  0
  2  3  1  0  0  0  0
  3 32  1  0  0  0  0
  3  4  2  0  0  0  0
  4 33  1  0  0  0  0
  5  4  1  0  0  0  0
  5  8  1  0  0  0  0
  6  5  2  0  0  0  0
  7  2  2  0  0  0  0
  7  6  1  0  0  0  0
  9  8  1  0  0  0  0
  9 36  1  0  0  0  0
 10  9  1  0  0  0  0
 10 12  1  0  0  0  0
 11 10  2  0  0  0  0
 12 38  1  0  0  0  0
 12 13  1  0  0  0  0
 13 21  1  0  0  0  0
 14 13  2  0  0  0  0
 14 15  1  0  0  0  0
 15 19  2  0  0  0  0
 16 15  1  0  0  0  0
 16 17  1  0  0  0  0
 17 39  1  0  0  0  0
 17 18  2  0  0  0  0
 19 20  1  0  0  0  0
 19 18  1  0  0  0  0
 20 22  1  0  0  0  0
 21 20  2  0  0  0  0
 22 40  1  0  0  0  0
 23 41  1  6  0  0  0
 23 27  1  0  0  0  0
 23 16  1  0  0  0  0
 24 23  1  0  0  0  0
 24 25  1  0  0  0  0
 25 42  1  1  0  0  0
 26 43  1  6  0  0  0
 26 25  1  0  0  0  0
 26 27  1  0  0  0  0
 26 29  1  0  0  0  0
 27 44  1  1  0  0  0
 28 45  1  0  0  0  0
 28 27  1  0  0  0  0
 29 46  1  0  0  0  0
 30 25  1  0  0  0  0
 30 31  1  0  0  0  0
 31 49  1  0  0  0  0
 34  6  1  0  0  0  0
 35  7  1  0  0  0  0
 37  9  1  0  0  0  0
 47 30  1  0  0  0  0
 48 30  1  0  0  0  0
M  END
>  <Pose>
1

>  <Score>
-6.53

$$$$
