
 OpenBabel03212208273D

 56 59  0  0  1  0  0  0  0  0999 V2000
   84.3320   97.8910  -44.7640 B   0  0  0  0  0  0  0  0  0  0  0  0
   85.8700   98.7290  -44.0280 C   0  0  0  0  0  0  0  0  0  0  0  0
   85.7140   99.8810  -43.3050 C   0  0  0  0  0  0  0  0  0  0  0  0
   86.8260  100.4920  -42.7690 C   0  0  0  0  0  0  0  0  0  0  0  0
   88.0990   99.9840  -42.9330 C   0  0  0  0  0  0  0  0  0  0  0  0
   88.2260   98.7940  -43.6850 C   0  0  0  0  0  0  0  0  0  0  0  0
   87.1300   98.1970  -44.2100 C   0  0  0  0  0  0  0  0  0  0  0  0
   89.1910  100.5210  -42.4450 O   0  0  0  0  0  0  0  0  0  0  0  0
   90.0790  100.8140  -41.5190 C   0  0  0  0  0  0  0  0  0  0  0  0
   91.4820  100.9990  -42.0040 C   0  0  1  0  0  0  0  0  0  0  0  0
   91.9590  102.2030  -41.4660 O   0  0  0  0  0  0  0  0  0  0  0  0
   92.4330   99.8610  -41.7750 C   0  0  0  0  0  0  0  0  0  0  0  0
   92.1880   98.6740  -42.5660 N   0  0  0  0  0  0  0  0  0  0  0  0
   92.1550   97.4030  -42.1030 C   0  0  0  0  0  0  0  0  0  0  0  0
   91.9580   96.5580  -43.1710 C   0  0  0  0  0  0  0  0  0  0  0  0
   91.8770   97.3420  -44.2260 N   0  0  0  0  0  0  0  0  0  0  0  0
   92.0110   98.6650  -43.8970 C   0  0  0  0  0  0  0  0  0  0  0  0
   91.8920   99.7410  -44.8480 N   0  0  0  0  0  0  0  0  0  0  0  0
   90.8380   99.5150  -45.8610 C   0  0  0  0  0  0  0  0  0  0  0  0
   90.4830  100.7060  -46.6550 C   0  0  0  0  0  0  0  0  0  0  0  0
   91.6010  101.5760  -46.9200 N   0  0  0  0  0  0  0  0  0  0  0  0
   92.0400  102.0560  -45.6480 C   0  0  0  0  0  0  0  0  0  0  0  0
   92.6550  100.9370  -44.8070 C   0  0  0  0  0  0  0  0  0  0  0  0
   92.6040  100.9550  -47.7210 C   0  0  0  0  0  0  0  0  0  0  0  0
   91.8730   95.2000  -43.0640 N   0  0  0  0  0  0  0  0  0  0  0  0
   91.9890   94.6730  -41.8440 C   0  0  0  0  0  0  0  0  0  0  0  0
   91.9150   93.4200  -41.7260 O   0  0  0  0  0  0  0  0  0  0  0  0
   92.1800   95.4710  -40.7850 N   0  0  0  0  0  0  0  0  0  0  0  0
   92.2690   96.8200  -40.8600 C   0  0  0  0  0  0  0  0  0  0  0  0
   92.4450   97.5330  -39.8620 O   0  0  0  0  0  0  0  0  0  0  0  0
   91.6710   94.3840  -44.2620 C   0  0  0  0  0  0  0  0  0  0  0  0
   84.7220  100.3050  -43.1530 H   0  0  0  0  0  0  0  0  0  0  0  0
   86.6460  101.3980  -42.2210 H   0  0  0  0  0  0  0  0  0  0  0  0
   89.2160   98.3900  -43.8210 H   0  0  0  0  0  0  0  0  0  0  0  0
   87.2550   97.2700  -44.7850 H   0  0  0  0  0  0  0  0  0  0  0  0
   89.7960  101.7460  -40.8850 H   0  0  0  0  0  0  0  0  0  0  0  0
   90.1710   99.9940  -40.7010 H   0  0  0  0  0  0  0  0  0  0  0  0
   91.4310  101.0980  -43.1380 H   0  0  0  0  0  0  0  0  0  0  0  0
   92.8660  102.4000  -41.8660 H   0  0  0  0  0  0  0  0  0  0  0  0
   92.6110   99.6680  -40.7030 H   0  0  0  0  0  0  0  0  0  0  0  0
   93.4410  100.2810  -42.1070 H   0  0  0  0  0  0  0  0  0  0  0  0
   91.1200   98.6250  -46.4700 H   0  0  0  0  0  0  0  0  0  0  0  0
   89.9160   99.1890  -45.2960 H   0  0  0  0  0  0  0  0  0  0  0  0
   89.9650  100.3820  -47.5670 H   0  0  0  0  0  0  0  0  0  0  0  0
   89.7560  101.3340  -46.0590 H   0  0  0  0  0  0  0  0  0  0  0  0
   92.8190  102.8470  -45.7920 H   0  0  0  0  0  0  0  0  0  0  0  0
   91.2050  102.5200  -45.1240 H   0  0  0  0  0  0  0  0  0  0  0  0
   92.5450  101.3440  -43.7520 H   0  0  0  0  0  0  0  0  0  0  0  0
   93.6940  100.8930  -45.1490 H   0  0  0  0  0  0  0  0  0  0  0  0
   92.5380  101.3760  -48.7650 H   0  0  0  0  0  0  0  0  0  0  0  0
   93.6410  101.0820  -47.3620 H   0  0  0  0  0  0  0  0  0  0  0  0
   92.4600   99.8530  -47.8640 H   0  0  0  0  0  0  0  0  0  0  0  0
   92.2660   95.0230  -39.8490 H   0  0  0  0  0  0  0  0  0  0  0  0
   91.9580   93.3420  -44.0990 H   0  0  0  0  0  0  0  0  0  0  0  0
   92.3650   94.7820  -45.0340 H   0  0  0  0  0  0  0  0  0  0  0  0
   90.6230   94.4330  -44.5970 H   0  0  0  0  0  0  0  0  0  0  0  0
  1  2  1  0  0  0  0
  2  3  1  0  0  0  0
  3 32  1  0  0  0  0
  3  4  2  0  0  0  0
  4 33  1  0  0  0  0
  5  4  1  0  0  0  0
  5  8  1  0  0  0  0
  6  5  2  0  0  0  0
  7  2  2  0  0  0  0
  7  6  1  0  0  0  0
  8  9  1  0  0  0  0
  9 36  1  0  0  0  0
  9 37  1  0  0  0  0
 10 38  1  6  0  0  0
 10 12  1  0  0  0  0
 10  9  1  0  0  0  0
 10 11  1  0  0  0  0
 12 40  1  0  0  0  0
 13 14  1  0  0  0  0
 13 12  1  0  0  0  0
 14 29  1  0  0  0  0
 15 25  1  0  0  0  0
 15 14  2  0  0  0  0
 16 17  2  0  0  0  0
 16 15  1  0  0  0  0
 17 13  1  0  0  0  0
 18 23  1  0  0  0  0
 18 17  1  0  0  0  0
 19 43  1  0  0  0  0
 19 18  1  0  0  0  0
 20 45  1  0  0  0  0
 20 19  1  0  0  0  0
 21 20  1  0  0  0  0
 21 22  1  0  0  0  0
 22 47  1  0  0  0  0
 22 23  1  0  0  0  0
 23 48  1  0  0  0  0
 24 51  1  0  0  0  0
 24 21  1  0  0  0  0
 25 26  1  0  0  0  0
 26 27  2  0  0  0  0
 26 28  1  0  0  0  0
 28 53  1  0  0  0  0
 29 28  1  0  0  0  0
 29 30  2  0  0  0  0
 31 54  1  0  0  0  0
 31 25  1  0  0  0  0
 34  6  1  0  0  0  0
 35  7  1  0  0  0  0
 39 11  1  0  0  0  0
 41 12  1  0  0  0  0
 42 19  1  0  0  0  0
 44 20  1  0  0  0  0
 46 22  1  0  0  0  0
 49 23  1  0  0  0  0
 50 24  1  0  0  0  0
 52 24  1  0  0  0  0
 55 31  1  0  0  0  0
 56 31  1  0  0  0  0
M  END
>  <Pose>
1

>  <Score>
-6.26

$$$$
