
 OpenBabel03212208273D

 39 43  0  0  1  0  0  0  0  0999 V2000
   88.8980   98.2960  -46.3470 B   0  0  0  0  0  0  0  0  0  0  0  0
   90.0660   96.9970  -45.5650 C   0  0  0  0  0  0  0  0  0  0  0  0
   90.3720   95.8340  -46.2470 C   0  0  0  0  0  0  0  0  0  0  0  0
   91.2080   94.8850  -45.6940 C   0  0  0  0  0  0  0  0  0  0  0  0
   91.7890   95.0000  -44.4530 C   0  0  0  0  0  0  0  0  0  0  0  0
   91.4810   96.1520  -43.7830 C   0  0  0  0  0  0  0  0  0  0  0  0
   90.6440   97.1470  -44.2930 C   0  0  0  0  0  0  0  0  0  0  0  0
   90.2200   98.2940  -43.4890 C   0  0  0  0  0  0  0  0  0  0  0  0
   91.1380   99.2990  -43.1470 N   0  0  2  0  0  4  0  0  0  0  0  0
   90.3150  100.1150  -42.1830 C   0  0  0  0  0  0  0  0  0  0  0  0
   90.8480  101.3750  -41.8790 N   0  0  2  0  0  0  0  0  0  0  0  0
   91.0240  102.0850  -43.1330 C   0  0  0  0  0  0  0  0  0  0  0  0
   92.0170  101.3680  -43.8940 N   0  0  2  0  0  0  0  0  0  0  0  0
   91.5320  100.0920  -44.3100 C   0  0  0  0  0  0  0  0  0  0  0  0
   93.2800  101.1690  -43.1730 C   0  0  0  0  0  0  0  0  0  0  0  0
   92.9820  100.3360  -42.0190 N   0  0  2  0  0  0  0  0  0  0  0  0
   92.3470   99.0630  -42.4220 C   0  0  0  0  0  0  0  0  0  0  0  0
   92.1130  101.1230  -41.1790 C   0  0  0  0  0  0  0  0  0  0  0  0
   92.5270   93.8380  -44.2900 O   0  0  0  0  0  0  0  0  0  0  0  0
   91.8920   92.7980  -45.0850 C   0  0  0  0  0  0  0  0  0  0  0  0
   91.6260   93.6370  -46.2490 O   0  0  0  0  0  0  0  0  0  0  0  0
   89.8970   95.7550  -47.1950 H   0  0  0  0  0  0  0  0  0  0  0  0
   91.9440   96.2800  -42.7620 H   0  0  0  0  0  0  0  0  0  0  0  0
   89.8860   97.8570  -42.4620 H   0  0  0  0  0  0  0  0  0  0  0  0
   89.2390   98.6230  -43.9170 H   0  0  0  0  0  0  0  0  0  0  0  0
   90.3470   99.4500  -41.2660 H   0  0  0  0  0  0  0  0  0  0  0  0
   89.2770  100.1570  -42.4930 H   0  0  0  0  0  0  0  0  0  0  0  0
   91.2490  103.1520  -43.0360 H   0  0  0  0  0  0  0  0  0  0  0  0
   90.0470  101.9350  -43.6830 H   0  0  0  0  0  0  0  0  0  0  0  0
   90.7800  100.2330  -45.0590 H   0  0  0  0  0  0  0  0  0  0  0  0
   92.4420   99.5310  -44.6950 H   0  0  0  0  0  0  0  0  0  0  0  0
   93.9940  100.7580  -43.8730 H   0  0  0  0  0  0  0  0  0  0  0  0
   93.5500  102.1650  -42.7720 H   0  0  0  0  0  0  0  0  0  0  0  0
   92.2410   98.4650  -41.4850 H   0  0  0  0  0  0  0  0  0  0  0  0
   93.0920   98.5610  -43.1010 H   0  0  0  0  0  0  0  0  0  0  0  0
   91.8770  100.6660  -40.2320 H   0  0  0  0  0  0  0  0  0  0  0  0
   92.6040  102.1180  -41.0940 H   0  0  0  0  0  0  0  0  0  0  0  0
   90.8440   92.5830  -44.7260 H   0  0  0  0  0  0  0  0  0  0  0  0
   92.5220   91.9630  -45.2900 H   0  0  0  0  0  0  0  0  0  0  0  0
  1  2  1  0  0  0  0
  2  7  1  0  0  0  0
  3  4  1  0  0  0  0
  3  2  2  0  0  0  0
  4  5  2  0  0  0  0
  5 19  1  0  0  0  0
  5  6  1  0  0  0  0
  6 23  1  0  0  0  0
  7  6  2  0  0  0  0
  7  8  1  0  0  0  0
  8 24  1  0  0  0  0
  9  8  1  6  0  0  0
  9 17  1  0  0  0  0
  9 10  1  0  0  0  0
 10 11  1  0  0  0  0
 10 26  1  0  0  0  0
 11 12  1  6  0  0  0
 11 18  1  0  0  0  0
 12 28  1  0  0  0  0
 13 14  1  1  0  0  0
 13 15  1  0  0  0  0
 13 12  1  0  0  0  0
 14  9  1  0  0  0  0
 15 33  1  0  0  0  0
 16 15  1  6  0  0  0
 16 18  1  0  0  0  0
 17 16  1  0  0  0  0
 17 34  1  0  0  0  0
 18 37  1  0  0  0  0
 18 36  1  0  0  0  0
 20 38  1  0  0  0  0
 20 19  1  0  0  0  0
 21  4  1  0  0  0  0
 21 20  1  0  0  0  0
 22  3  1  0  0  0  0
 25  8  1  0  0  0  0
 27 10  1  0  0  0  0
 29 12  1  0  0  0  0
 30 14  1  0  0  0  0
 31 14  1  0  0  0  0
 32 15  1  0  0  0  0
 35 17  1  0  0  0  0
 39 20  1  0  0  0  0
M  END
>  <Pose>
1

>  <Score>
-3.39

$$$$
