
 OpenBabel03212208273D

 49 52  0  0  0  0  0  0  0  0999 V2000
   92.2520   99.3300  -43.5550 B   0  0  0  0  0  0  0  0  0  0  0  0
   91.2180   98.3280  -44.8100 C   0  0  0  0  0  0  0  0  0  0  0  0
   90.7120   98.9340  -45.9380 C   0  0  0  0  0  0  0  0  0  0  0  0
   89.9680   98.2270  -46.8500 C   0  0  0  0  0  0  0  0  0  0  0  0
   89.7450   96.9020  -46.6040 C   0  0  0  0  0  0  0  0  0  0  0  0
   90.2580   96.2920  -45.4610 C   0  0  0  0  0  0  0  0  0  0  0  0
   91.0090   96.9790  -44.5300 C   0  0  0  0  0  0  0  0  0  0  0  0
   91.5870   96.3490  -43.3170 C   0  0  0  0  0  0  0  0  0  0  0  0
   91.5330   94.9040  -43.4220 N   0  0  0  0  0  0  0  0  0  0  0  0
   92.1180   94.2990  -42.1970 C   0  0  0  0  0  0  0  0  0  0  0  0
   92.2000   92.8170  -42.5480 C   0  0  0  0  0  0  0  0  0  0  0  0
   91.4930   92.4640  -43.7240 N   0  0  0  0  0  0  0  0  0  0  0  0
   90.1510   92.9850  -43.7530 C   0  0  0  0  0  0  0  0  0  0  0  0
   90.1470   94.4350  -43.3670 C   0  0  0  0  0  0  0  0  0  0  0  0
   92.1910   92.4840  -44.9530 C   0  0  0  0  0  0  0  0  0  0  0  0
   91.5180   91.8820  -46.0890 C   0  0  0  0  0  0  0  0  0  0  0  0
   90.6140   92.4900  -46.7000 O   0  0  0  0  0  0  0  0  0  0  0  0
   91.8680   90.5880  -46.5390 N   0  0  0  0  0  0  0  0  0  0  0  0
   92.7720   90.3670  -47.6610 C   0  0  0  0  0  0  0  0  0  0  0  0
   92.2490   90.2420  -49.0310 C   0  0  0  0  0  0  0  0  0  0  0  0
   92.6560   88.9910  -48.3120 C   0  0  0  0  0  0  0  0  0  0  0  0
   88.9960   96.1710  -47.5130 O   0  0  0  0  0  0  0  0  0  0  0  0
   88.2300   96.7530  -48.5360 C   0  0  0  0  0  0  0  0  0  0  0  0
   88.8340   98.0370  -49.0090 C   0  0  0  0  0  0  0  0  0  0  0  0
   89.4420   98.8020  -47.9990 O   0  0  0  0  0  0  0  0  0  0  0  0
   90.8800   99.9910  -46.1530 H   0  0  0  0  0  0  0  0  0  0  0  0
   90.0450   95.2580  -45.3570 H   0  0  0  0  0  0  0  0  0  0  0  0
   91.1190   96.6960  -42.3890 H   0  0  0  0  0  0  0  0  0  0  0  0
   92.6690   96.6320  -43.2850 H   0  0  0  0  0  0  0  0  0  0  0  0
   93.0780   94.7390  -41.9410 H   0  0  0  0  0  0  0  0  0  0  0  0
   91.3830   94.4870  -41.3880 H   0  0  0  0  0  0  0  0  0  0  0  0
   91.7100   92.2780  -41.6830 H   0  0  0  0  0  0  0  0  0  0  0  0
   93.2490   92.4590  -42.5320 H   0  0  0  0  0  0  0  0  0  0  0  0
   89.4950   92.3690  -43.0910 H   0  0  0  0  0  0  0  0  0  0  0  0
   89.7040   92.8360  -44.7800 H   0  0  0  0  0  0  0  0  0  0  0  0
   89.4270   95.0700  -43.8700 H   0  0  0  0  0  0  0  0  0  0  0  0
   89.8230   94.4530  -42.2770 H   0  0  0  0  0  0  0  0  0  0  0  0
   92.4970   93.5250  -45.2140 H   0  0  0  0  0  0  0  0  0  0  0  0
   93.1720   91.9450  -44.8140 H   0  0  0  0  0  0  0  0  0  0  0  0
   91.4920   89.7060  -46.0850 H   0  0  0  0  0  0  0  0  0  0  0  0
   93.7710   90.7820  -47.4980 H   0  0  0  0  0  0  0  0  0  0  0  0
   91.1620   90.3200  -49.2690 H   0  0  0  0  0  0  0  0  0  0  0  0
   92.9020   90.5480  -49.8730 H   0  0  0  0  0  0  0  0  0  0  0  0
   91.8450   88.3310  -47.9510 H   0  0  0  0  0  0  0  0  0  0  0  0
   93.6430   88.5380  -48.5360 H   0  0  0  0  0  0  0  0  0  0  0  0
   87.1920   96.8560  -48.1810 H   0  0  0  0  0  0  0  0  0  0  0  0
   88.2660   96.0350  -49.4030 H   0  0  0  0  0  0  0  0  0  0  0  0
   89.6020   97.8100  -49.8000 H   0  0  0  0  0  0  0  0  0  0  0  0
   88.0130   98.6620  -49.4320 H   0  0  0  0  0  0  0  0  0  0  0  0
  2  7  1  0  0  0  0
  2  1  1  0  0  0  0
  3  2  2  0  0  0  0
  4  5  2  0  0  0  0
  4  3  1  0  0  0  0
  5  6  1  0  0  0  0
  6 27  1  0  0  0  0
  6  7  2  0  0  0  0
  7  8  1  0  0  0  0
  8 29  1  0  0  0  0
  8 28  1  0  0  0  0
  9 14  1  0  0  0  0
  9  8  1  0  0  0  0
  9 10  1  0  0  0  0
 10 30  1  0  0  0  0
 10 31  1  0  0  0  0
 11 33  1  0  0  0  0
 11 10  1  0  0  0  0
 11 32  1  0  0  0  0
 12 11  1  0  0  0  0
 13 12  1  0  0  0  0
 13 14  1  0  0  0  0
 13 34  1  0  0  0  0
 14 37  1  0  0  0  0
 15 39  1  0  0  0  0
 15 12  1  0  0  0  0
 16 15  1  0  0  0  0
 17 16  2  0  0  0  0
 18 16  1  0  0  0  0
 18 40  1  0  0  0  0
 19 41  1  0  0  0  0
 19 18  1  0  0  0  0
 20 21  1  0  0  0  0
 20 19  1  0  0  0  0
 21 44  1  0  0  0  0
 21 19  1  0  0  0  0
 22  5  1  0  0  0  0
 23 46  1  0  0  0  0
 23 22  1  0  0  0  0
 24 23  1  0  0  0  0
 24 25  1  0  0  0  0
 25  4  1  0  0  0  0
 26  3  1  0  0  0  0
 35 13  1  0  0  0  0
 36 14  1  0  0  0  0
 38 15  1  0  0  0  0
 42 20  1  0  0  0  0
 43 20  1  0  0  0  0
 45 21  1  0  0  0  0
 47 23  1  0  0  0  0
 48 24  1  0  0  0  0
 49 24  1  0  0  0  0
M  END
>  <Pose>
1

>  <Score>
-4.66

$$$$
