
 OpenBabel03212208273D

 41 44  0  0  0  0  0  0  0  0999 V2000
   91.8140   97.1450  -41.8040 B   0  0  0  0  0  0  0  0  0  0  0  0
   92.0090   99.0500  -41.8320 C   0  0  0  0  0  0  0  0  0  0  0  0
   92.4640   99.7430  -40.7380 C   0  0  0  0  0  0  0  0  0  0  0  0
   92.5980  101.1160  -40.7760 C   0  0  0  0  0  0  0  0  0  0  0  0
   92.2680  101.7910  -41.9320 C   0  0  0  0  0  0  0  0  0  0  0  0
   91.8080  101.0790  -43.0390 C   0  0  0  0  0  0  0  0  0  0  0  0
   91.6660   99.7100  -43.0200 C   0  0  0  0  0  0  0  0  0  0  0  0
   91.2180   98.9430  -44.1950 C   0  0  0  0  0  0  0  0  0  0  0  0
   92.2210   98.1830  -44.7990 O   0  0  0  0  0  0  0  0  0  0  0  0
   92.0890   96.8440  -45.1200 C   0  0  0  0  0  0  0  0  0  0  0  0
   90.8340   96.3100  -45.4450 C   0  0  0  0  0  0  0  0  0  0  0  0
   90.6470   94.9880  -45.7760 C   0  0  0  0  0  0  0  0  0  0  0  0
   91.7140   94.1160  -45.8010 C   0  0  0  0  0  0  0  0  0  0  0  0
   92.9560   94.6230  -45.4860 C   0  0  0  0  0  0  0  0  0  0  0  0
   93.1480   95.9640  -45.1500 C   0  0  0  0  0  0  0  0  0  0  0  0
   91.5300   92.7050  -46.1520 C   0  0  0  0  0  0  0  0  0  0  0  0
   91.3900   92.1510  -47.3670 N   0  0  0  0  0  0  0  0  0  0  0  0
   91.2490   90.8300  -47.2220 N   0  0  0  0  0  0  0  0  0  0  0  0
   91.2970   90.5440  -45.9290 N   0  0  0  0  0  0  0  0  0  0  0  0
   91.4680   91.6840  -45.2820 N   0  0  0  0  0  0  0  0  0  0  0  0
   91.0690   89.8290  -48.2540 C   0  0  0  0  0  0  0  0  0  0  0  0
   92.3770   89.2590  -48.6450 C   0  0  0  0  0  0  0  0  0  0  0  0
   92.4740   88.0410  -48.8660 O   0  0  0  0  0  0  0  0  0  0  0  0
   93.4960   90.1110  -48.7610 N   0  0  0  0  0  0  0  0  0  0  0  0
   92.4950  103.1320  -41.6940 O   0  0  0  0  0  0  0  0  0  0  0  0
   93.2490  103.3030  -40.5070 C   0  0  0  0  0  0  0  0  0  0  0  0
   93.0220  102.0740  -39.8520 O   0  0  0  0  0  0  0  0  0  0  0  0
   92.7310   99.2160  -39.8090 H   0  0  0  0  0  0  0  0  0  0  0  0
   91.5830  101.6730  -43.9190 H   0  0  0  0  0  0  0  0  0  0  0  0
   90.3200   98.3240  -43.9830 H   0  0  0  0  0  0  0  0  0  0  0  0
   90.8820   99.6960  -44.9490 H   0  0  0  0  0  0  0  0  0  0  0  0
   90.0140   97.0270  -45.4140 H   0  0  0  0  0  0  0  0  0  0  0  0
   89.6650   94.6080  -46.0220 H   0  0  0  0  0  0  0  0  0  0  0  0
   93.7850   93.9380  -45.5080 H   0  0  0  0  0  0  0  0  0  0  0  0
   94.1510   96.3150  -44.9160 H   0  0  0  0  0  0  0  0  0  0  0  0
   90.4150   89.0240  -47.8650 H   0  0  0  0  0  0  0  0  0  0  0  0
   90.5600   90.3170  -49.1100 H   0  0  0  0  0  0  0  0  0  0  0  0
   93.4140   91.1660  -48.7420 H   0  0  0  0  0  0  0  0  0  0  0  0
   94.4500   89.7060  -48.8690 H   0  0  0  0  0  0  0  0  0  0  0  0
   94.3090  103.4410  -40.7940 H   0  0  0  0  0  0  0  0  0  0  0  0
   92.8800  104.1780  -39.9460 H   0  0  0  0  0  0  0  0  0  0  0  0
  2  1  1  0  0  0  0
  2  3  1  0  0  0  0
  3 28  1  0  0  0  0
  4  3  2  0  0  0  0
  4 27  1  0  0  0  0
  5 25  1  0  0  0  0
  5  4  1  0  0  0  0
  6  7  1  0  0  0  0
  6  5  2  0  0  0  0
  7  2  2  0  0  0  0
  8 30  1  0  0  0  0
  8  7  1  0  0  0  0
  9  8  1  0  0  0  0
 10  9  1  0  0  0  0
 11 32  1  0  0  0  0
 11 10  2  0  0  0  0
 12 11  1  0  0  0  0
 13 12  2  0  0  0  0
 13 14  1  0  0  0  0
 14 15  2  0  0  0  0
 15 10  1  0  0  0  0
 15 35  1  0  0  0  0
 16 13  1  0  0  0  0
 16 20  1  0  0  0  0
 17 18  1  0  0  0  0
 17 16  2  0  0  0  0
 18 19  1  0  0  0  0
 19 20  2  0  0  0  0
 21 36  1  0  0  0  0
 21 18  1  0  0  0  0
 22 21  1  0  0  0  0
 23 22  2  0  0  0  0
 24 38  1  0  0  0  0
 24 22  1  0  0  0  0
 25 26  1  0  0  0  0
 26 41  1  0  0  0  0
 26 27  1  0  0  0  0
 29  6  1  0  0  0  0
 31  8  1  0  0  0  0
 33 12  1  0  0  0  0
 34 14  1  0  0  0  0
 37 21  1  0  0  0  0
 39 24  1  0  0  0  0
 40 26  1  0  0  0  0
M  END
>  <Pose>
1

>  <Score>
-6.05

$$$$
