
 OpenBabel03212208273D

 44 47  0  0  1  0  0  0  0  0999 V2000
   92.7450   88.7370  -48.5670 B   0  0  0  0  0  0  0  0  0  0  0  0
   91.5690   90.0010  -49.3460 C   0  0  0  0  0  0  0  0  0  0  0  0
   90.9760   89.7380  -50.5660 C   0  0  0  0  0  0  0  0  0  0  0  0
   90.1040   90.6400  -51.1790 C   0  0  0  0  0  0  0  0  0  0  0  0
   89.8400   91.8360  -50.5180 C   0  0  0  0  0  0  0  0  0  0  0  0
   90.4440   92.0770  -49.3010 C   0  0  0  0  0  0  0  0  0  0  0  0
   91.3150   91.1820  -48.6840 C   0  0  0  0  0  0  0  0  0  0  0  0
   91.9240   91.4910  -47.4060 C   0  0  0  0  0  0  0  0  0  0  0  0
   91.2540   91.5060  -46.3340 N   0  0  0  0  0  0  0  0  0  0  0  0
   91.6900   91.7830  -45.0540 N   0  0  0  0  0  0  0  0  0  0  0  0
   91.6400   93.0780  -44.4930 C   0  0  1  0  0  0  0  0  0  0  0  0
   91.2520   94.0690  -45.3120 N   0  0  0  0  0  0  0  0  0  0  0  0
   91.1290   95.3590  -44.8980 C   0  0  0  0  0  0  0  0  0  0  0  0
   91.4200   95.5890  -43.6190 N   0  0  0  0  0  0  0  0  0  0  0  0
   91.8100   94.6530  -42.7570 C   0  0  0  0  0  0  0  0  0  0  0  0
   91.9170   93.3730  -43.2240 N   0  0  0  0  0  0  0  0  0  0  0  0
   92.1050   94.9250  -41.4320 O   0  0  0  0  0  0  0  0  0  0  0  0
   92.3570   96.2380  -41.0090 C   0  0  0  0  0  0  0  0  0  0  0  0
   90.7290   96.3310  -45.8180 N   0  0  0  0  0  0  0  0  0  0  0  0
   89.7360   96.0490  -46.8260 C   0  0  0  0  0  0  0  0  0  0  0  0
   89.1830   97.3270  -47.4210 C   0  0  0  0  0  0  0  0  0  0  0  0
   89.0900   98.3810  -46.5730 O   0  0  0  0  0  0  0  0  0  0  0  0
   90.0670   98.5790  -45.6480 C   0  0  0  0  0  0  0  0  0  0  0  0
   91.2790   97.6630  -45.7850 C   0  0  0  0  0  0  0  0  0  0  0  0
   88.9680   92.5400  -51.3160 O   0  0  0  0  0  0  0  0  0  0  0  0
   88.8000   91.9050  -52.5690 C   0  0  0  0  0  0  0  0  0  0  0  0
   89.3850   90.6460  -52.3640 O   0  0  0  0  0  0  0  0  0  0  0  0
   91.1880   88.7910  -51.0830 H   0  0  0  0  0  0  0  0  0  0  0  0
   90.2000   93.0390  -48.8210 H   0  0  0  0  0  0  0  0  0  0  0  0
   92.9720   91.7170  -47.3630 H   0  0  0  0  0  0  0  0  0  0  0  0
   92.0730   91.0030  -44.4770 H   0  0  0  0  0  0  0  0  0  0  0  0
   93.4630   96.3240  -40.8360 H   0  0  0  0  0  0  0  0  0  0  0  0
   91.8870   96.4590  -40.0170 H   0  0  0  0  0  0  0  0  0  0  0  0
   91.9710   96.9860  -41.7320 H   0  0  0  0  0  0  0  0  0  0  0  0
   88.9320   95.3720  -46.5130 H   0  0  0  0  0  0  0  0  0  0  0  0
   90.2770   95.5250  -47.6750 H   0  0  0  0  0  0  0  0  0  0  0  0
   89.7340   97.6360  -48.3560 H   0  0  0  0  0  0  0  0  0  0  0  0
   88.1430   97.0740  -47.7830 H   0  0  0  0  0  0  0  0  0  0  0  0
   90.3680   99.6490  -45.5450 H   0  0  0  0  0  0  0  0  0  0  0  0
   89.6260   98.3000  -44.6440 H   0  0  0  0  0  0  0  0  0  0  0  0
   91.7260   97.8300  -46.7980 H   0  0  0  0  0  0  0  0  0  0  0  0
   91.9690   97.8710  -44.9720 H   0  0  0  0  0  0  0  0  0  0  0  0
   89.2480   92.4690  -53.4130 H   0  0  0  0  0  0  0  0  0  0  0  0
   87.7000   91.7770  -52.7070 H   0  0  0  0  0  0  0  0  0  0  0  0
  2  7  1  0  0  0  0
  2  1  1  0  0  0  0
  3  2  2  0  0  0  0
  4  3  1  0  0  0  0
  4  5  2  0  0  0  0
  5  6  1  0  0  0  0
  6 29  1  0  0  0  0
  6  7  2  0  0  0  0
  7  8  1  0  0  0  0
  8 30  1  0  0  0  0
  8  9  2  0  0  0  0
  9 10  1  0  0  0  0
 10 31  1  0  0  0  0
 11 10  1  1  0  0  0
 11 16  1  0  0  0  0
 12 13  2  0  0  0  0
 12 11  1  0  0  0  0
 13 14  1  0  0  0  0
 14 15  2  0  0  0  0
 15 17  1  0  0  0  0
 16 15  2  0  0  0  0
 17 18  1  0  0  0  0
 18 32  1  0  0  0  0
 18 33  1  0  0  0  0
 19 24  1  0  0  0  0
 19 13  1  0  0  0  0
 20 35  1  0  0  0  0
 20 19  1  0  0  0  0
 21 20  1  0  0  0  0
 21 22  1  0  0  0  0
 22 23  1  0  0  0  0
 23 39  1  0  0  0  0
 23 40  1  0  0  0  0
 24 23  1  0  0  0  0
 24 42  1  0  0  0  0
 25  5  1  0  0  0  0
 26 27  1  0  0  0  0
 26 25  1  0  0  0  0
 27  4  1  0  0  0  0
 28  3  1  0  0  0  0
 34 18  1  0  0  0  0
 36 20  1  0  0  0  0
 37 21  1  0  0  0  0
 38 21  1  0  0  0  0
 41 24  1  0  0  0  0
 43 26  1  0  0  0  0
 44 26  1  0  0  0  0
M  END
>  <Pose>
1

>  <Score>
-5.59

$$$$
