
 OpenBabel03212208273D

 44 47  0  0  0  0  0  0  0  0999 V2000
   92.5930   92.9400  -44.2100 B   0  0  0  0  0  0  0  0  0  0  0  0
   91.6870   94.5770  -44.5810 C   0  0  0  0  0  0  0  0  0  0  0  0
   91.6910   95.6050  -43.6540 C   0  0  0  0  0  0  0  0  0  0  0  0
   91.0410   96.8060  -43.8960 C   0  0  0  0  0  0  0  0  0  0  0  0
   90.3950   96.9140  -45.1120 C   0  0  0  0  0  0  0  0  0  0  0  0
   90.3750   95.9110  -46.0500 C   0  0  0  0  0  0  0  0  0  0  0  0
   91.0270   94.7320  -45.7850 C   0  0  0  0  0  0  0  0  0  0  0  0
   89.7450   98.1100  -45.3590 C   0  0  0  0  0  0  0  0  0  0  0  0
   89.1290   98.2750  -46.4630 O   0  0  0  0  0  0  0  0  0  0  0  0
   89.7820   99.0990  -44.3990 C   0  0  0  0  0  0  0  0  0  0  0  0
   90.4440   98.9320  -43.2050 C   0  0  0  0  0  0  0  0  0  0  0  0
   91.0430   97.7820  -43.0200 O   0  0  0  0  0  0  0  0  0  0  0  0
   90.4550  100.0150  -42.2140 C   0  0  0  0  0  0  0  0  0  0  0  0
   91.5530  100.2900  -41.6500 O   0  0  0  0  0  0  0  0  0  0  0  0
   89.3000  100.7480  -41.8730 N   0  0  0  0  0  0  0  0  0  0  0  0
   89.2700  102.1630  -42.1390 C   0  0  0  0  0  0  0  0  0  0  0  0
   88.0790  102.5790  -42.9760 C   0  0  0  0  0  0  0  0  0  0  0  0
   87.0030  101.7040  -42.6910 N   0  0  0  0  0  0  0  0  0  0  0  0
   87.0050  101.2450  -41.3580 C   0  0  0  0  0  0  0  0  0  0  0  0
   88.1190  100.1850  -41.2650 C   0  0  0  0  0  0  0  0  0  0  0  0
   86.6260  100.7970  -43.6980 C   0  0  0  0  0  0  0  0  0  0  0  0
   85.6490   99.7850  -43.3070 C   0  0  0  0  0  0  0  0  0  0  0  0
   85.8560   98.4580  -43.3120 N   0  0  0  0  0  0  0  0  0  0  0  0
   84.7710   97.9010  -42.9060 O   0  0  0  0  0  0  0  0  0  0  0  0
   83.8510   98.7910  -42.6310 N   0  0  0  0  0  0  0  0  0  0  0  0
   84.3720  100.0140  -42.8740 C   0  0  0  0  0  0  0  0  0  0  0  0
   83.6880  101.3310  -42.7040 C   0  0  0  0  0  0  0  0  0  0  0  0
   92.2100   95.4650  -42.7250 H   0  0  0  0  0  0  0  0  0  0  0  0
   89.8480   96.0670  -46.9800 H   0  0  0  0  0  0  0  0  0  0  0  0
   91.0190   93.9260  -46.5210 H   0  0  0  0  0  0  0  0  0  0  0  0
   89.2670  100.0340  -44.6080 H   0  0  0  0  0  0  0  0  0  0  0  0
   90.2290  102.5080  -42.6130 H   0  0  0  0  0  0  0  0  0  0  0  0
   89.1970  102.7140  -41.1530 H   0  0  0  0  0  0  0  0  0  0  0  0
   88.3620  102.5760  -44.0600 H   0  0  0  0  0  0  0  0  0  0  0  0
   87.8090  103.6480  -42.7280 H   0  0  0  0  0  0  0  0  0  0  0  0
   87.3130  102.0740  -40.6900 H   0  0  0  0  0  0  0  0  0  0  0  0
   86.0820  100.7870  -40.9980 H   0  0  0  0  0  0  0  0  0  0  0  0
   88.3210   99.9320  -40.2040 H   0  0  0  0  0  0  0  0  0  0  0  0
   87.7910   99.2460  -41.7500 H   0  0  0  0  0  0  0  0  0  0  0  0
   87.5310  100.3010  -44.1070 H   0  0  0  0  0  0  0  0  0  0  0  0
   86.2020  101.3820  -44.5640 H   0  0  0  0  0  0  0  0  0  0  0  0
   84.4380  102.1370  -42.4820 H   0  0  0  0  0  0  0  0  0  0  0  0
   83.1810  101.5770  -43.6400 H   0  0  0  0  0  0  0  0  0  0  0  0
   83.0160  101.3030  -41.8200 H   0  0  0  0  0  0  0  0  0  0  0  0
  2  1  1  0  0  0  0
  2  3  1  0  0  0  0
  3 28  1  0  0  0  0
  4  3  2  0  0  0  0
  4 12  1  0  0  0  0
  5  4  1  0  0  0  0
  6  7  1  0  0  0  0
  6  5  2  0  0  0  0
  7  2  2  0  0  0  0
  8  5  1  0  0  0  0
  8 10  1  0  0  0  0
  9  8  2  0  0  0  0
 10 11  2  0  0  0  0
 11 12  1  0  0  0  0
 11 13  1  0  0  0  0
 13 15  1  0  0  0  0
 13 14  2  0  0  0  0
 15 20  1  0  0  0  0
 16 15  1  0  0  0  0
 16 33  1  0  0  0  0
 17 35  1  0  0  0  0
 17 18  1  0  0  0  0
 17 16  1  0  0  0  0
 18 19  1  0  0  0  0
 19 20  1  0  0  0  0
 19 37  1  0  0  0  0
 19 36  1  0  0  0  0
 20 38  1  0  0  0  0
 21 22  1  0  0  0  0
 21 18  1  0  0  0  0
 22 26  1  0  0  0  0
 23 22  2  0  0  0  0
 23 24  1  0  0  0  0
 24 25  1  0  0  0  0
 26 27  1  0  0  0  0
 26 25  2  0  0  0  0
 27 42  1  0  0  0  0
 27 44  1  0  0  0  0
 29  6  1  0  0  0  0
 30  7  1  0  0  0  0
 31 10  1  0  0  0  0
 32 16  1  0  0  0  0
 34 17  1  0  0  0  0
 39 20  1  0  0  0  0
 40 21  1  0  0  0  0
 41 21  1  0  0  0  0
 43 27  1  0  0  0  0
M  END
>  <Pose>
1

>  <Score>
-3.90

$$$$
