
 OpenBabel03212208273D

 58 61  0  0  0  0  0  0  0  0999 V2000
   91.4040   90.9480  -46.9200 B   0  0  0  0  0  0  0  0  0  0  0  0
   91.4110   92.6750  -46.1070 C   0  0  0  0  0  0  0  0  0  0  0  0
   90.5960   93.7140  -46.5820 C   0  0  0  0  0  0  0  0  0  0  0  0
   90.6770   94.9040  -45.9170 C   0  0  0  0  0  0  0  0  0  0  0  0
   91.5000   95.1320  -44.8340 C   0  0  0  0  0  0  0  0  0  0  0  0
   92.3020   94.1120  -44.3730 C   0  0  0  0  0  0  0  0  0  0  0  0
   92.2420   92.8720  -45.0260 C   0  0  0  0  0  0  0  0  0  0  0  0
   91.3770   96.4610  -44.3440 N   0  0  0  0  0  0  0  0  0  0  0  0
   90.4050   97.1150  -45.2000 C   0  0  0  0  0  0  0  0  0  0  0  0
   90.0170   98.2950  -45.0750 O   0  0  0  0  0  0  0  0  0  0  0  0
   89.9950   96.1320  -46.1780 C   0  0  0  0  0  0  0  0  0  0  0  0
   89.2790   96.3010  -47.2220 N   0  0  0  0  0  0  0  0  0  0  0  0
   88.8630   95.8460  -48.2120 N   0  0  0  0  0  0  0  0  0  0  0  0
   88.3410   95.2970  -49.4050 C   0  0  0  0  0  0  0  0  0  0  0  0
   87.8700   94.2140  -49.6720 O   0  0  0  0  0  0  0  0  0  0  0  0
   88.4450   96.3480  -50.5350 C   0  0  0  0  0  0  0  0  0  0  0  0
   89.0270   97.4980  -49.8850 O   0  0  0  0  0  0  0  0  0  0  0  0
   90.3780   97.7590  -50.2530 N   0  0  0  0  0  0  0  0  0  0  0  0
   90.6900   98.7680  -50.9690 C   0  0  0  0  0  0  0  0  0  0  0  0
   92.0670   99.0020  -51.3420 C   0  0  0  0  0  0  0  0  0  0  0  0
   92.6590   98.5660  -52.4790 C   0  0  0  0  0  0  0  0  0  0  0  0
   94.0440   98.8410  -52.6170 C   0  0  0  0  0  0  0  0  0  0  0  0
   94.8210   99.4930  -51.7540 C   0  0  0  0  0  0  0  0  0  0  0  0
   94.1820   99.9120  -50.6370 C   0  0  0  0  0  0  0  0  0  0  0  0
   92.8880   99.7390  -50.3220 C   0  0  0  0  0  0  0  0  0  0  0  0
   96.1780   99.7000  -52.0230 O   0  0  0  0  0  0  0  0  0  0  0  0
   97.1180   98.6440  -51.8680 C   0  0  0  0  0  0  0  0  0  0  0  0
   91.9790   97.1420  -43.2090 C   0  0  0  0  0  0  0  0  0  0  0  0
   91.3670   96.8070  -42.0190 N   0  0  0  0  0  0  0  0  0  0  0  0
   90.1400   96.1450  -42.2070 C   0  0  0  0  0  0  0  0  0  0  0  0
   90.0530   94.9460  -41.2600 C   0  0  0  0  0  0  0  0  0  0  0  0
   91.2660   94.2480  -41.5120 O   0  0  0  0  0  0  0  0  0  0  0  0
   92.3210   94.9240  -40.8850 C   0  0  0  0  0  0  0  0  0  0  0  0
   92.2010   96.4140  -40.9550 C   0  0  0  0  0  0  0  0  0  0  0  0
   89.9870   93.4720  -47.3740 H   0  0  0  0  0  0  0  0  0  0  0  0
   92.9680   94.2120  -43.5210 H   0  0  0  0  0  0  0  0  0  0  0  0
   92.8830   92.0900  -44.6840 H   0  0  0  0  0  0  0  0  0  0  0  0
   87.5440   95.9910  -47.8050 H   0  0  0  0  0  0  0  0  0  0  0  0
   89.4170   95.8990  -51.0280 H   0  0  0  0  0  0  0  0  0  0  0  0
   87.7010   96.4180  -51.2040 H   0  0  0  0  0  0  0  0  0  0  0  0
   89.9380   99.4800  -51.3010 H   0  0  0  0  0  0  0  0  0  0  0  0
   92.1240   98.0440  -53.2350 H   0  0  0  0  0  0  0  0  0  0  0  0
   94.4840   98.4730  -53.5630 H   0  0  0  0  0  0  0  0  0  0  0  0
   94.8440  100.4560  -49.9090 H   0  0  0  0  0  0  0  0  0  0  0  0
   92.3450  100.0520  -49.4810 H   0  0  0  0  0  0  0  0  0  0  0  0
   97.0610   97.9400  -52.7410 H   0  0  0  0  0  0  0  0  0  0  0  0
   98.1480   99.1180  -51.9430 H   0  0  0  0  0  0  0  0  0  0  0  0
   97.0560   98.1220  -50.8980 H   0  0  0  0  0  0  0  0  0  0  0  0
   91.9490   98.2170  -43.4830 H   0  0  0  0  0  0  0  0  0  0  0  0
   93.0810   96.8940  -43.2560 H   0  0  0  0  0  0  0  0  0  0  0  0
   89.2580   96.8150  -42.0740 H   0  0  0  0  0  0  0  0  0  0  0  0
   90.0730   95.7770  -43.2430 H   0  0  0  0  0  0  0  0  0  0  0  0
   89.2290   94.3310  -41.6000 H   0  0  0  0  0  0  0  0  0  0  0  0
   89.9790   95.2360  -40.2170 H   0  0  0  0  0  0  0  0  0  0  0  0
   93.2820   94.6030  -41.3050 H   0  0  0  0  0  0  0  0  0  0  0  0
   92.2890   94.6200  -39.8100 H   0  0  0  0  0  0  0  0  0  0  0  0
   91.7730   96.8080  -39.9480 H   0  0  0  0  0  0  0  0  0  0  0  0
   93.1900   96.8790  -41.0180 H   0  0  0  0  0  0  0  0  0  0  0  0
  1  2  1  0  0  0  0
  2  7  1  0  0  0  0
  3  2  2  0  0  0  0
  3  4  1  0  0  0  0
  4  5  2  0  0  0  0
  5  6  1  0  0  0  0
  5  8  1  0  0  0  0
  6 36  1  0  0  0  0
  7 37  1  0  0  0  0
  7  6  2  0  0  0  0
  8 28  1  0  0  0  0
  9 10  2  0  0  0  0
  9  8  1  0  0  0  0
 11  4  1  0  0  0  0
 11  9  1  0  0  0  0
 12 11  2  0  0  0  0
 13 38  1  0  0  0  0
 13 12  1  0  0  0  0
 14 13  1  0  0  0  0
 15 14  2  0  0  0  0
 16 17  1  0  0  0  0
 16 14  1  0  0  0  0
 18 17  1  0  0  0  0
 19 18  2  0  0  0  0
 20 19  1  0  0  0  0
 20 25  1  0  0  0  0
 21 20  2  0  0  0  0
 22 21  1  0  0  0  0
 22 23  2  0  0  0  0
 23 24  1  0  0  0  0
 24 25  2  0  0  0  0
 24 44  1  0  0  0  0
 25 45  1  0  0  0  0
 26 27  1  0  0  0  0
 26 23  1  0  0  0  0
 27 48  1  0  0  0  0
 28 29  1  0  0  0  0
 29 34  1  0  0  0  0
 30 51  1  0  0  0  0
 30 29  1  0  0  0  0
 30 31  1  0  0  0  0
 31 54  1  0  0  0  0
 32 31  1  0  0  0  0
 32 33  1  0  0  0  0
 33 56  1  0  0  0  0
 34 33  1  0  0  0  0
 34 57  1  0  0  0  0
 35  3  1  0  0  0  0
 39 16  1  0  0  0  0
 40 16  1  0  0  0  0
 41 19  1  0  0  0  0
 42 21  1  0  0  0  0
 43 22  1  0  0  0  0
 46 27  1  0  0  0  0
 47 27  1  0  0  0  0
 49 28  1  0  0  0  0
 50 28  1  0  0  0  0
 52 30  1  0  0  0  0
 53 31  1  0  0  0  0
 55 33  1  0  0  0  0
 58 34  1  0  0  0  0
M  END
>  <Pose>
1

>  <Score>
-4.94

$$$$
