
 OpenBabel03212208273D

 59 62  0  0  0  0  0  0  0  0999 V2000
   92.6090  100.1850  -40.6820 B   0  0  0  0  0  0  0  0  0  0  0  0
   91.7520   99.4010  -42.2140 C   0  0  0  0  0  0  0  0  0  0  0  0
   91.8540   98.0560  -42.4840 C   0  0  0  0  0  0  0  0  0  0  0  0
   91.2530   97.4440  -43.5790 C   0  0  0  0  0  0  0  0  0  0  0  0
   90.5040   98.2400  -44.4500 C   0  0  0  0  0  0  0  0  0  0  0  0
   90.4010   99.5890  -44.1790 C   0  0  0  0  0  0  0  0  0  0  0  0
   91.0110  100.1810  -43.0770 C   0  0  0  0  0  0  0  0  0  0  0  0
   89.9650   97.4350  -45.5080 N   0  0  0  0  0  0  0  0  0  0  0  0
   90.4040   96.1040  -45.2710 C   0  0  0  0  0  0  0  0  0  0  0  0
   90.1330   95.1140  -45.9870 O   0  0  0  0  0  0  0  0  0  0  0  0
   91.2130   96.0780  -44.0680 C   0  0  0  0  0  0  0  0  0  0  0  0
   91.7840   95.0580  -43.5340 N   0  0  0  0  0  0  0  0  0  0  0  0
   91.7000   93.7760  -44.0630 N   0  0  0  0  0  0  0  0  0  0  0  0
   92.8550   92.9710  -44.1380 C   0  0  0  0  0  0  0  0  0  0  0  0
   93.7110   92.9370  -43.1870 O   0  0  0  0  0  0  0  0  0  0  0  0
   93.1760   92.1080  -45.3030 C   0  0  0  0  0  0  0  0  0  0  0  0
   91.9760   91.5740  -45.8630 O   0  0  0  0  0  0  0  0  0  0  0  0
   91.9740   91.0980  -47.1630 C   0  0  0  0  0  0  0  0  0  0  0  0
   92.7530   90.0120  -47.5040 C   0  0  0  0  0  0  0  0  0  0  0  0
   92.7460   89.5390  -48.8120 C   0  0  0  0  0  0  0  0  0  0  0  0
   91.9650   90.1500  -49.7750 C   0  0  0  0  0  0  0  0  0  0  0  0
   91.2010   91.2220  -49.4220 C   0  0  0  0  0  0  0  0  0  0  0  0
   91.2080   91.6930  -48.1200 C   0  0  0  0  0  0  0  0  0  0  0  0
   93.5400   89.3840  -46.5720 O   0  0  0  0  0  0  0  0  0  0  0  0
   93.0880   88.2230  -45.9210 C   0  0  0  0  0  0  0  0  0  0  0  0
   89.1340   97.9340  -46.5910 C   0  0  0  0  0  0  0  0  0  0  0  0
   87.7880   97.4850  -46.5670 N   0  0  0  0  0  0  0  0  0  0  0  0
   86.9470   98.0880  -45.5900 C   0  0  0  0  0  0  0  0  0  0  0  0
   85.5410   97.4830  -45.5920 C   0  0  0  0  0  0  0  0  0  0  0  0
   85.6070   96.2800  -46.3710 N   0  0  0  0  0  0  0  0  0  0  0  0
   85.8720   96.5220  -47.7550 C   0  0  0  0  0  0  0  0  0  0  0  0
   87.1760   97.2940  -47.8500 C   0  0  0  0  0  0  0  0  0  0  0  0
   84.5320   95.3640  -46.1210 C   0  0  0  0  0  0  0  0  0  0  0  0
   92.4390   97.4400  -41.8020 H   0  0  0  0  0  0  0  0  0  0  0  0
   89.8240  100.2540  -44.8320 H   0  0  0  0  0  0  0  0  0  0  0  0
   90.9340  101.2330  -42.8590 H   0  0  0  0  0  0  0  0  0  0  0  0
   90.7920   93.4220  -44.3970 H   0  0  0  0  0  0  0  0  0  0  0  0
   93.7050   92.6450  -46.1060 H   0  0  0  0  0  0  0  0  0  0  0  0
   93.8240   91.2660  -45.0000 H   0  0  0  0  0  0  0  0  0  0  0  0
   93.3660   88.6800  -49.0680 H   0  0  0  0  0  0  0  0  0  0  0  0
   91.9410   89.7990  -50.8070 H   0  0  0  0  0  0  0  0  0  0  0  0
   90.5930   91.7040  -50.1520 H   0  0  0  0  0  0  0  0  0  0  0  0
   90.5850   92.5420  -47.8990 H   0  0  0  0  0  0  0  0  0  0  0  0
   92.1060   88.3680  -45.4230 H   0  0  0  0  0  0  0  0  0  0  0  0
   92.9060   87.4420  -46.7060 H   0  0  0  0  0  0  0  0  0  0  0  0
   93.8870   87.9000  -45.2200 H   0  0  0  0  0  0  0  0  0  0  0  0
   89.1950   99.0460  -46.6650 H   0  0  0  0  0  0  0  0  0  0  0  0
   89.6000   97.5600  -47.5400 H   0  0  0  0  0  0  0  0  0  0  0  0
   87.3580   97.8660  -44.5840 H   0  0  0  0  0  0  0  0  0  0  0  0
   86.8850   99.1940  -45.6740 H   0  0  0  0  0  0  0  0  0  0  0  0
   85.1940   97.2390  -44.5770 H   0  0  0  0  0  0  0  0  0  0  0  0
   84.8590   98.2480  -46.0100 H   0  0  0  0  0  0  0  0  0  0  0  0
   85.0790   97.0810  -48.2840 H   0  0  0  0  0  0  0  0  0  0  0  0
   85.9490   95.5220  -48.2520 H   0  0  0  0  0  0  0  0  0  0  0  0
   86.9840   98.3030  -48.3020 H   0  0  0  0  0  0  0  0  0  0  0  0
   87.8600   96.6940  -48.4810 H   0  0  0  0  0  0  0  0  0  0  0  0
   84.9030   94.3040  -46.1080 H   0  0  0  0  0  0  0  0  0  0  0  0
   83.6990   95.4460  -46.8440 H   0  0  0  0  0  0  0  0  0  0  0  0
   84.1690   95.5570  -45.0790 H   0  0  0  0  0  0  0  0  0  0  0  0
  2  1  1  0  0  0  0
  3  2  1  0  0  0  0
  3 34  1  0  0  0  0
  4  3  2  0  0  0  0
  5  6  2  0  0  0  0
  5  4  1  0  0  0  0
  6  7  1  0  0  0  0
  7 36  1  0  0  0  0
  7  2  2  0  0  0  0
  8  9  1  0  0  0  0
  8  5  1  0  0  0  0
  9 11  1  0  0  0  0
 10  9  2  0  0  0  0
 11  4  1  0  0  0  0
 11 12  2  0  0  0  0
 13 12  1  0  0  0  0
 14 13  1  0  0  0  0
 14 15  2  0  0  0  0
 16 39  1  0  0  0  0
 16 14  1  0  0  0  0
 17 16  1  0  0  0  0
 18 17  1  0  0  0  0
 19 18  1  0  0  0  0
 19 24  1  0  0  0  0
 20 19  2  0  0  0  0
 21 22  2  0  0  0  0
 21 20  1  0  0  0  0
 22 23  1  0  0  0  0
 23 43  1  0  0  0  0
 23 18  2  0  0  0  0
 24 25  1  0  0  0  0
 25 44  1  0  0  0  0
 25 46  1  0  0  0  0
 26 27  1  0  0  0  0
 26  8  1  0  0  0  0
 27 28  1  0  0  0  0
 28 49  1  0  0  0  0
 29 28  1  0  0  0  0
 29 51  1  0  0  0  0
 30 33  1  0  0  0  0
 30 29  1  0  0  0  0
 31 30  1  0  0  0  0
 32 31  1  0  0  0  0
 32 27  1  0  0  0  0
 33 57  1  0  0  0  0
 33 59  1  0  0  0  0
 35  6  1  0  0  0  0
 37 13  1  0  0  0  0
 38 16  1  0  0  0  0
 40 20  1  0  0  0  0
 41 21  1  0  0  0  0
 42 22  1  0  0  0  0
 45 25  1  0  0  0  0
 47 26  1  0  0  0  0
 48 26  1  0  0  0  0
 50 28  1  0  0  0  0
 52 29  1  0  0  0  0
 53 31  1  0  0  0  0
 54 31  1  0  0  0  0
 55 32  1  0  0  0  0
 56 32  1  0  0  0  0
 58 33  1  0  0  0  0
M  END
>  <Pose>
1

>  <Score>
-5.12

$$$$
