
 OpenBabel03212208273D

 45 48  0  0  1  0  0  0  0  0999 V2000
   86.4620  100.7460  -42.6690 B   0  0  0  0  0  0  0  0  0  0  0  0
   88.1800  100.3670  -43.4520 C   0  0  0  0  0  0  0  0  0  0  0  0
   89.2740   99.9990  -42.7250 C   0  0  0  0  0  0  0  0  0  0  0  0
   90.4880   99.7670  -43.3180 C   0  0  0  0  0  0  0  0  0  0  0  0
   90.5620   99.9180  -44.6740 C   0  0  0  0  0  0  0  0  0  0  0  0
   89.4530  100.2910  -45.4450 C   0  0  0  0  0  0  0  0  0  0  0  0
   88.2370  100.5240  -44.8360 C   0  0  0  0  0  0  0  0  0  0  0  0
   91.8750   99.6880  -45.1460 N   0  0  0  0  0  0  0  0  0  0  0  0
   92.6670   99.3820  -44.0420 C   0  0  0  0  0  0  0  0  0  0  0  0
   93.9000   99.1420  -44.1120 O   0  0  0  0  0  0  0  0  0  0  0  0
   91.8140   99.3890  -42.7970 C   0  0  2  0  0  0  0  0  0  0  0  0
   91.9450   98.0480  -42.2480 C   0  0  0  0  0  0  0  0  0  0  0  0
   92.5680   97.8550  -41.0530 C   0  0  0  0  0  0  0  0  0  0  0  0
   92.5440   96.5140  -40.8150 N   0  0  0  0  0  0  0  0  0  0  0  0
   91.9410   95.9080  -41.8050 N   0  0  0  0  0  0  0  0  0  0  0  0
   91.5370   96.7980  -42.7410 C   0  0  0  0  0  0  0  0  0  0  0  0
   90.8040   96.4530  -43.9850 C   0  0  0  0  0  0  0  0  0  0  0  0
   91.4810   95.3700  -44.7310 C   0  0  0  0  0  0  0  0  0  0  0  0
   92.2190   95.5290  -45.7370 O   0  0  0  0  0  0  0  0  0  0  0  0
   91.2880   94.0810  -44.2860 O   0  0  0  0  0  0  0  0  0  0  0  0
   92.2900   93.1380  -44.0100 C   0  0  0  0  0  0  0  0  0  0  0  0
   92.4570   92.9970  -42.5150 C   0  0  0  0  0  0  0  0  0  0  0  0
   93.1050   98.9120  -40.2920 O   0  0  0  0  0  0  0  0  0  0  0  0
   92.9770  100.1830  -40.8170 C   0  0  0  0  0  0  0  0  0  0  0  0
   92.3930  100.4270  -41.9570 C   0  0  0  0  0  0  0  0  0  0  0  0
   92.3130  101.8110  -42.4320 C   0  0  0  0  0  0  0  0  0  0  0  0
   92.2650  102.8890  -42.8170 N   0  0  0  0  0  0  0  0  0  0  0  0
   93.5280  101.2710  -40.0380 N   0  0  0  0  0  0  0  0  0  0  0  0
   92.3220   99.7580  -46.5520 C   0  0  0  0  0  0  0  0  0  0  0  0
   89.1810   99.8910  -41.6710 H   0  0  0  0  0  0  0  0  0  0  0  0
   89.4970  100.4110  -46.5160 H   0  0  0  0  0  0  0  0  0  0  0  0
   87.3720  100.8130  -45.4160 H   0  0  0  0  0  0  0  0  0  0  0  0
   91.7660   94.8660  -41.9060 H   0  0  0  0  0  0  0  0  0  0  0  0
   89.7750   96.1070  -43.7850 H   0  0  0  0  0  0  0  0  0  0  0  0
   90.6860   97.3550  -44.6380 H   0  0  0  0  0  0  0  0  0  0  0  0
   93.2920   93.5250  -44.3840 H   0  0  0  0  0  0  0  0  0  0  0  0
   92.0850   92.1860  -44.5150 H   0  0  0  0  0  0  0  0  0  0  0  0
   91.8310   93.7950  -42.0160 H   0  0  0  0  0  0  0  0  0  0  0  0
   93.4820   93.1670  -42.1910 H   0  0  0  0  0  0  0  0  0  0  0  0
   92.0290   92.0360  -42.1420 H   0  0  0  0  0  0  0  0  0  0  0  0
   93.4620  101.3260  -39.0060 H   0  0  0  0  0  0  0  0  0  0  0  0
   94.0130  102.0270  -40.5470 H   0  0  0  0  0  0  0  0  0  0  0  0
   91.9890   98.8230  -47.0750 H   0  0  0  0  0  0  0  0  0  0  0  0
   91.9170  100.6670  -47.0410 H   0  0  0  0  0  0  0  0  0  0  0  0
   93.4200   99.7560  -46.5660 H   0  0  0  0  0  0  0  0  0  0  0  0
  2  3  1  0  0  0  0
  2  1  1  0  0  0  0
  3 30  1  0  0  0  0
  4 11  1  0  0  0  0
  4  3  2  0  0  0  0
  5  4  1  0  0  0  0
  6  7  1  0  0  0  0
  6  5  2  0  0  0  0
  7  2  2  0  0  0  0
  8  5  1  0  0  0  0
  8  9  1  0  0  0  0
 10  9  2  0  0  0  0
 11  9  1  6  0  0  0
 11 12  1  0  0  0  0
 11 25  1  0  0  0  0
 12 13  1  0  0  0  0
 13 14  2  0  0  0  0
 13 23  1  0  0  0  0
 15 14  1  0  0  0  0
 16 12  2  0  0  0  0
 16 15  1  0  0  0  0
 17 34  1  0  0  0  0
 17 16  1  0  0  0  0
 18 20  1  0  0  0  0
 18 17  1  0  0  0  0
 19 18  2  0  0  0  0
 20 21  1  0  0  0  0
 21 22  1  0  0  0  0
 22 39  1  0  0  0  0
 22 40  1  0  0  0  0
 22 38  1  0  0  0  0
 24 23  1  0  0  0  0
 24 28  1  0  0  0  0
 25 24  2  0  0  0  0
 26 25  1  0  0  0  0
 27 26  3  0  0  0  0
 28 41  1  0  0  0  0
 29  8  1  0  0  0  0
 31  6  1  0  0  0  0
 32  7  1  0  0  0  0
 33 15  1  0  0  0  0
 35 17  1  0  0  0  0
 36 21  1  0  0  0  0
 37 21  1  0  0  0  0
 42 28  1  0  0  0  0
 43 29  1  0  0  0  0
 44 29  1  0  0  0  0
 45 29  1  0  0  0  0
M  END
>  <Pose>
1

>  <Score>
-5.62

$$$$
