
 OpenBabel03212208273D

 36 39  0  0  1  0  0  0  0  0999 V2000
   86.3130  100.9050  -42.7210 B   0  0  0  0  0  0  0  0  0  0  0  0
   88.1640  100.9930  -43.2520 C   0  0  0  0  0  0  0  0  0  0  0  0
   89.0000   99.9220  -43.0790 C   0  0  0  0  0  0  0  0  0  0  0  0
   90.3210  100.0090  -43.4670 C   0  0  0  0  0  0  0  0  0  0  0  0
   90.7450  101.1870  -44.0190 C   0  0  0  0  0  0  0  0  0  0  0  0
   89.8830  102.2880  -44.1970 C   0  0  0  0  0  0  0  0  0  0  0  0
   88.5750  102.1840  -43.8060 C   0  0  0  0  0  0  0  0  0  0  0  0
   92.1250  101.1220  -44.3670 N   0  0  0  0  0  0  0  0  0  0  0  0
   92.5970   99.8500  -44.0200 C   0  0  0  0  0  0  0  0  0  0  0  0
   93.7870   99.4420  -44.1880 O   0  0  0  0  0  0  0  0  0  0  0  0
   91.4630   99.0620  -43.4220 C   0  0  2  0  0  0  0  0  0  0  0  0
   91.2800   97.9040  -44.2880 C   0  0  0  0  0  0  0  0  0  0  0  0
   91.4820   96.6400  -43.8280 C   0  0  0  0  0  0  0  0  0  0  0  0
   91.2300   95.7990  -44.8740 N   0  0  0  0  0  0  0  0  0  0  0  0
   90.8880   96.4900  -45.9410 N   0  0  0  0  0  0  0  0  0  0  0  0
   90.9050   97.7840  -45.6290 C   0  0  0  0  0  0  0  0  0  0  0  0
   90.5940   98.9690  -46.4890 C   0  0  0  0  0  0  0  0  0  0  0  0
   91.8710   96.3650  -42.5120 O   0  0  0  0  0  0  0  0  0  0  0  0
   92.0450   97.4730  -41.6890 C   0  0  0  0  0  0  0  0  0  0  0  0
   91.8660   98.7100  -42.0730 C   0  0  0  0  0  0  0  0  0  0  0  0
   92.0950   99.7590  -41.0650 C   0  0  0  0  0  0  0  0  0  0  0  0
   92.2790  100.5750  -40.2490 N   0  0  0  0  0  0  0  0  0  0  0  0
   92.4490   97.2500  -40.3090 N   0  0  0  0  0  0  0  0  0  0  0  0
   92.9250  102.1940  -44.9800 C   0  0  0  0  0  0  0  0  0  0  0  0
   88.6490   99.0010  -42.6420 H   0  0  0  0  0  0  0  0  0  0  0  0
   90.2220  103.2170  -44.6340 H   0  0  0  0  0  0  0  0  0  0  0  0
   87.8790  103.0280  -43.9320 H   0  0  0  0  0  0  0  0  0  0  0  0
   90.6350   96.1340  -46.8990 H   0  0  0  0  0  0  0  0  0  0  0  0
   90.3300   98.5580  -47.4970 H   0  0  0  0  0  0  0  0  0  0  0  0
   89.6700   99.4930  -46.1430 H   0  0  0  0  0  0  0  0  0  0  0  0
   91.4510   99.6260  -46.6350 H   0  0  0  0  0  0  0  0  0  0  0  0
   91.9720   97.8570  -39.6130 H   0  0  0  0  0  0  0  0  0  0  0  0
   93.1440   96.5600  -40.0310 H   0  0  0  0  0  0  0  0  0  0  0  0
   93.7490  102.4310  -44.2790 H   0  0  0  0  0  0  0  0  0  0  0  0
   93.3910  101.7230  -45.8760 H   0  0  0  0  0  0  0  0  0  0  0  0
   92.3080  103.0490  -45.2530 H   0  0  0  0  0  0  0  0  0  0  0  0
  2  3  1  0  0  0  0
  2  1  1  0  0  0  0
  3 25  1  0  0  0  0
  4 11  1  0  0  0  0
  4  3  2  0  0  0  0
  5  4  1  0  0  0  0
  6  5  2  0  0  0  0
  6  7  1  0  0  0  0
  7  2  2  0  0  0  0
  8  9  1  0  0  0  0
  8  5  1  0  0  0  0
  9 11  1  0  0  0  0
 10  9  2  0  0  0  0
 11 12  1  6  0  0  0
 11 20  1  0  0  0  0
 12 13  1  0  0  0  0
 13 18  1  0  0  0  0
 14 13  2  0  0  0  0
 15 16  1  0  0  0  0
 15 14  1  0  0  0  0
 16 12  2  0  0  0  0
 17 30  1  0  0  0  0
 17 16  1  0  0  0  0
 18 19  1  0  0  0  0
 19 23  1  0  0  0  0
 20 19  2  0  0  0  0
 20 21  1  0  0  0  0
 21 22  3  0  0  0  0
 23 33  1  0  0  0  0
 23 32  1  0  0  0  0
 24  8  1  0  0  0  0
 24 34  1  0  0  0  0
 26  6  1  0  0  0  0
 27  7  1  0  0  0  0
 28 15  1  0  0  0  0
 29 17  1  0  0  0  0
 31 17  1  0  0  0  0
 35 24  1  0  0  0  0
 36 24  1  0  0  0  0
M  END
>  <Pose>
1

>  <Score>
-4.76

$$$$
