
 OpenBabel03212208273D

 39 42  0  0  1  0  0  0  0  0999 V2000
   85.6820   98.3620  -43.7530 B   0  0  0  0  0  0  0  0  0  0  0  0
   87.2890   98.6710  -44.7250 C   0  0  0  0  0  0  0  0  0  0  0  0
   88.4760   98.1380  -44.2740 C   0  0  0  0  0  0  0  0  0  0  0  0
   89.6710   98.3500  -44.9700 C   0  0  0  0  0  0  0  0  0  0  0  0
   89.6160   99.0970  -46.1020 C   0  0  0  0  0  0  0  0  0  0  0  0
   88.4000   99.6430  -46.5630 C   0  0  0  0  0  0  0  0  0  0  0  0
   87.2290   99.4290  -45.8730 C   0  0  0  0  0  0  0  0  0  0  0  0
   90.9230   99.1940  -46.6540 N   0  0  0  0  0  0  0  0  0  0  0  0
   91.8320   98.4860  -45.8470 C   0  0  0  0  0  0  0  0  0  0  0  0
   93.0690   98.3510  -46.0220 O   0  0  0  0  0  0  0  0  0  0  0  0
   91.0690   97.8980  -44.7070 C   0  0  1  0  0  0  0  0  0  0  0  0
   91.5610   98.4150  -43.4250 C   0  0  0  0  0  0  0  0  0  0  0  0
   91.9690   97.5850  -42.4320 C   0  0  0  0  0  0  0  0  0  0  0  0
   91.9320   96.1990  -42.6120 O   0  0  0  0  0  0  0  0  0  0  0  0
   91.4790   95.6620  -43.8010 C   0  0  0  0  0  0  0  0  0  0  0  0
   91.0820   96.4340  -44.7670 C   0  0  0  0  0  0  0  0  0  0  0  0
   90.6160   95.7760  -45.9960 C   0  0  0  0  0  0  0  0  0  0  0  0
   90.2580   95.2730  -46.9530 N   0  0  0  0  0  0  0  0  0  0  0  0
   91.4690   94.2290  -43.9140 N   0  0  0  0  0  0  0  0  0  0  0  0
   92.4300   98.1220  -41.2260 C   0  0  0  0  0  0  0  0  0  0  0  0
   92.8030   97.3480  -40.3210 O   0  0  0  0  0  0  0  0  0  0  0  0
   92.4610   99.4880  -41.0640 C   0  0  0  0  0  0  0  0  0  0  0  0
   92.0330  100.2820  -42.1070 C   0  0  0  0  0  0  0  0  0  0  0  0
   91.6180   99.7290  -43.1960 O   0  0  0  0  0  0  0  0  0  0  0  0
   92.0580  101.7880  -41.9520 C   0  0  0  0  0  0  0  0  0  0  0  0
   93.3550  102.2470  -42.1810 O   0  0  0  0  0  0  0  0  0  0  0  0
   91.2210   99.9390  -47.8920 C   0  0  0  0  0  0  0  0  0  0  0  0
   88.5570   97.5370  -43.3750 H   0  0  0  0  0  0  0  0  0  0  0  0
   88.3660  100.2410  -47.4730 H   0  0  0  0  0  0  0  0  0  0  0  0
   86.2870   99.8520  -46.2310 H   0  0  0  0  0  0  0  0  0  0  0  0
   92.3230   93.7560  -44.2020 H   0  0  0  0  0  0  0  0  0  0  0  0
   90.6050   93.7330  -43.7010 H   0  0  0  0  0  0  0  0  0  0  0  0
   92.8040   99.9680  -40.1600 H   0  0  0  0  0  0  0  0  0  0  0  0
   91.3660  102.2710  -42.6410 H   0  0  0  0  0  0  0  0  0  0  0  0
   91.8300  102.0570  -40.8820 H   0  0  0  0  0  0  0  0  0  0  0  0
   93.9970  101.4840  -42.0690 H   0  0  0  0  0  0  0  0  0  0  0  0
   90.2900  100.1170  -48.4630 H   0  0  0  0  0  0  0  0  0  0  0  0
   91.6690  100.9040  -47.6060 H   0  0  0  0  0  0  0  0  0  0  0  0
   91.8960   99.3200  -48.5380 H   0  0  0  0  0  0  0  0  0  0  0  0
  2  3  1  0  0  0  0
  2  1  1  0  0  0  0
  3 28  1  0  0  0  0
  4 11  1  0  0  0  0
  4  3  2  0  0  0  0
  5  4  1  0  0  0  0
  6  5  2  0  0  0  0
  6  7  1  0  0  0  0
  7  2  2  0  0  0  0
  8  5  1  0  0  0  0
  8  9  1  0  0  0  0
 10  9  2  0  0  0  0
 11  9  1  6  0  0  0
 11 12  1  0  0  0  0
 12 24  1  0  0  0  0
 12 13  2  0  0  0  0
 13 20  1  0  0  0  0
 14 13  1  0  0  0  0
 15 14  1  0  0  0  0
 16 11  1  0  0  0  0
 16 15  2  0  0  0  0
 17 16  1  0  0  0  0
 18 17  3  0  0  0  0
 19 15  1  0  0  0  0
 19 32  1  0  0  0  0
 20 22  1  0  0  0  0
 20 21  2  0  0  0  0
 22 33  1  0  0  0  0
 23 25  1  0  0  0  0
 23 22  2  0  0  0  0
 24 23  1  0  0  0  0
 25 35  1  0  0  0  0
 26 36  1  0  0  0  0
 26 25  1  0  0  0  0
 27 38  1  0  0  0  0
 27  8  1  0  0  0  0
 29  6  1  0  0  0  0
 30  7  1  0  0  0  0
 31 19  1  0  0  0  0
 34 25  1  0  0  0  0
 37 27  1  0  0  0  0
 39 27  1  0  0  0  0
M  END
>  <Pose>
1

>  <Score>
-5.08

$$$$
