
 OpenBabel03212208273D

 46 49  0  0  0  0  0  0  0  0999 V2000
   91.8330   92.7960  -44.9030 B   0  0  0  0  0  0  0  0  0  0  0  0
   91.7960   94.2560  -43.6660 C   0  0  0  0  0  0  0  0  0  0  0  0
   91.5890   95.5600  -44.1150 C   0  0  0  0  0  0  0  0  0  0  0  0
   91.5550   96.6510  -43.2730 C   0  0  0  0  0  0  0  0  0  0  0  0
   91.7370   96.4060  -41.9320 C   0  0  0  0  0  0  0  0  0  0  0  0
   91.9480   95.1080  -41.4450 C   0  0  0  0  0  0  0  0  0  0  0  0
   91.9730   94.0540  -42.3210 C   0  0  0  0  0  0  0  0  0  0  0  0
   91.6700   97.6550  -41.2570 N   0  0  0  0  0  0  0  0  0  0  0  0
   91.4420   98.7040  -42.1810 C   0  0  0  0  0  0  0  0  0  0  0  0
   91.3220   99.9330  -41.9570 O   0  0  0  0  0  0  0  0  0  0  0  0
   91.3620   98.0850  -43.5130 C   0  0  0  0  0  0  0  0  0  0  0  0
   91.1580   98.7170  -44.6490 C   0  0  0  0  0  0  0  0  0  0  0  0
   91.0830   98.1120  -45.9100 N   0  0  0  0  0  0  0  0  0  0  0  0
   89.9330   98.0440  -46.6750 N   0  0  0  0  0  0  0  0  0  0  0  0
   88.7960   97.2680  -46.3220 C   0  0  0  0  0  0  0  0  0  0  0  0
   89.0050   96.1720  -45.7780 O   0  0  0  0  0  0  0  0  0  0  0  0
   87.4050   97.7080  -46.5700 C   0  0  0  0  0  0  0  0  0  0  0  0
   87.1150   98.9200  -45.9600 N   0  0  0  0  0  0  0  0  0  0  0  0
   86.3090   99.2410  -44.9490 C   0  0  0  0  0  0  0  0  0  0  0  0
   86.3370  100.6180  -44.7730 C   0  0  0  0  0  0  0  0  0  0  0  0
   87.1790  101.1090  -45.7010 N   0  0  0  0  0  0  0  0  0  0  0  0
   87.6430  100.1030  -46.4070 C   0  0  0  0  0  0  0  0  0  0  0  0
   85.5860  101.2010  -43.7720 C   0  0  0  0  0  0  0  0  0  0  0  0
   85.6300  102.4520  -43.6380 O   0  0  0  0  0  0  0  0  0  0  0  0
   84.8580  100.4010  -43.0080 N   0  0  0  0  0  0  0  0  0  0  0  0
   84.8400   99.0680  -43.1870 C   0  0  0  0  0  0  0  0  0  0  0  0
   84.1370   98.3470  -42.4410 O   0  0  0  0  0  0  0  0  0  0  0  0
   85.5620   98.4430  -44.1590 N   0  0  0  0  0  0  0  0  0  0  0  0
   85.5500   97.0150  -44.3010 C   0  0  0  0  0  0  0  0  0  0  0  0
   84.0360  100.9720  -41.9280 C   0  0  0  0  0  0  0  0  0  0  0  0
   91.4410   95.7240  -45.1700 H   0  0  0  0  0  0  0  0  0  0  0  0
   92.0850   94.9570  -40.3890 H   0  0  0  0  0  0  0  0  0  0  0  0
   92.1380   93.0450  -41.9220 H   0  0  0  0  0  0  0  0  0  0  0  0
   91.7700   97.7950  -40.2250 H   0  0  0  0  0  0  0  0  0  0  0  0
   91.0360   99.7900  -44.6110 H   0  0  0  0  0  0  0  0  0  0  0  0
   91.9800   97.6900  -46.2770 H   0  0  0  0  0  0  0  0  0  0  0  0
   89.8810   98.5840  -47.5660 H   0  0  0  0  0  0  0  0  0  0  0  0
   87.2140   97.5610  -47.6260 H   0  0  0  0  0  0  0  0  0  0  0  0
   86.7660   96.8970  -46.0750 H   0  0  0  0  0  0  0  0  0  0  0  0
   88.3430  100.2170  -47.2210 H   0  0  0  0  0  0  0  0  0  0  0  0
   84.7780   96.6490  -43.5360 H   0  0  0  0  0  0  0  0  0  0  0  0
   85.1550   96.6020  -45.2150 H   0  0  0  0  0  0  0  0  0  0  0  0
   86.4620   96.5310  -43.8780 H   0  0  0  0  0  0  0  0  0  0  0  0
   83.4630  101.8240  -42.3460 H   0  0  0  0  0  0  0  0  0  0  0  0
   84.6780  101.3890  -41.1220 H   0  0  0  0  0  0  0  0  0  0  0  0
   83.3490  100.2130  -41.5020 H   0  0  0  0  0  0  0  0  0  0  0  0
  1  2  1  0  0  0  0
  2  7  1  0  0  0  0
  3  2  2  0  0  0  0
  3  4  1  0  0  0  0
  4  5  2  0  0  0  0
  5  6  1  0  0  0  0
  5  8  1  0  0  0  0
  6 32  1  0  0  0  0
  7 33  1  0  0  0  0
  7  6  2  0  0  0  0
  8 34  1  0  0  0  0
  9 10  2  0  0  0  0
  9  8  1  0  0  0  0
 11  4  1  0  0  0  0
 11  9  1  0  0  0  0
 12 35  1  0  0  0  0
 12 11  2  0  0  0  0
 13 12  1  0  0  0  0
 14 15  1  0  0  0  0
 14 13  1  0  0  0  0
 15 16  2  0  0  0  0
 17 15  1  0  0  0  0
 17 39  1  0  0  0  0
 17 18  1  0  0  0  0
 18 19  1  0  0  0  0
 19 20  2  0  0  0  0
 19 28  1  0  0  0  0
 20 23  1  0  0  0  0
 21 20  1  0  0  0  0
 22 18  1  0  0  0  0
 22 21  2  0  0  0  0
 23 24  2  0  0  0  0
 23 25  1  0  0  0  0
 25 30  1  0  0  0  0
 26 25  1  0  0  0  0
 26 27  2  0  0  0  0
 28 26  1  0  0  0  0
 29 28  1  0  0  0  0
 29 43  1  0  0  0  0
 29 41  1  0  0  0  0
 30 46  1  0  0  0  0
 30 45  1  0  0  0  0
 31  3  1  0  0  0  0
 36 13  1  0  0  0  0
 37 14  1  0  0  0  0
 38 17  1  0  0  0  0
 40 22  1  0  0  0  0
 42 29  1  0  0  0  0
 44 30  1  0  0  0  0
M  END
>  <Pose>
1

>  <Score>
-6.72

$$$$
