
 OpenBabel03212208273D

 38 41  0  0  1  0  0  0  0  0999 V2000
   85.8240   98.0500  -44.1220 B   0  0  0  0  0  0  0  0  0  0  0  0
   87.5670   98.1520  -44.8700 C   0  0  0  0  0  0  0  0  0  0  0  0
   88.7030   98.3510  -44.0800 C   0  0  0  0  0  0  0  0  0  0  0  0
   89.9570   98.4230  -44.6270 C   0  0  0  0  0  0  0  0  0  0  0  0
   90.1050   98.2980  -45.9770 C   0  0  0  0  0  0  0  0  0  0  0  0
   88.9960   98.0970  -46.8120 C   0  0  0  0  0  0  0  0  0  0  0  0
   87.7510   98.0290  -46.2340 C   0  0  0  0  0  0  0  0  0  0  0  0
   91.4690   98.4000  -46.3480 N   0  0  0  0  0  0  0  0  0  0  0  0
   92.2110   98.5990  -45.1700 C   0  0  0  0  0  0  0  0  0  0  0  0
   93.4570   98.7390  -45.0530 O   0  0  0  0  0  0  0  0  0  0  0  0
   91.2840   98.6230  -44.0170 C   0  0  1  0  0  0  0  0  0  0  0  0
   91.3630   99.9590  -43.3410 C   0  0  0  0  0  0  0  0  0  0  0  0
   91.6360  100.1540  -42.0780 C   0  0  0  0  0  0  0  0  0  0  0  0
   91.8810   99.0230  -41.2640 N   0  0  0  0  0  0  0  0  0  0  0  0
   91.8280   97.7170  -41.8160 C   0  0  0  0  0  0  0  0  0  0  0  0
   91.5540   97.5180  -43.0820 C   0  0  0  0  0  0  0  0  0  0  0  0
   91.5190   96.1370  -43.5730 C   0  0  0  0  0  0  0  0  0  0  0  0
   91.5110   95.0470  -43.9580 N   0  0  0  0  0  0  0  0  0  0  0  0
   92.0830   96.5700  -40.9600 N   0  0  0  0  0  0  0  0  0  0  0  0
   91.6160  101.6130  -41.8120 C   0  0  0  0  0  0  0  0  0  0  0  0
   91.3080  102.2490  -43.0260 O   0  0  0  0  0  0  0  0  0  0  0  0
   91.1470  101.2670  -43.9830 C   0  0  0  0  0  0  0  0  0  0  0  0
   90.8590  101.4780  -45.2120 O   0  0  0  0  0  0  0  0  0  0  0  0
   93.0060  102.1100  -41.4080 C   0  0  0  0  0  0  0  0  0  0  0  0
   90.6060  101.9580  -40.7270 C   0  0  0  0  0  0  0  0  0  0  0  0
   88.5300   98.4450  -43.0150 H   0  0  0  0  0  0  0  0  0  0  0  0
   89.0730   97.9940  -47.8780 H   0  0  0  0  0  0  0  0  0  0  0  0
   86.8880   97.8720  -46.8800 H   0  0  0  0  0  0  0  0  0  0  0  0
   91.8440   98.3340  -47.3450 H   0  0  0  0  0  0  0  0  0  0  0  0
   92.1050   99.1190  -40.2400 H   0  0  0  0  0  0  0  0  0  0  0  0
   91.8510   96.5500  -39.9530 H   0  0  0  0  0  0  0  0  0  0  0  0
   92.5180   95.7380  -41.3900 H   0  0  0  0  0  0  0  0  0  0  0  0
   93.0090  103.1990  -41.6310 H   0  0  0  0  0  0  0  0  0  0  0  0
   93.1790  101.9980  -40.3330 H   0  0  0  0  0  0  0  0  0  0  0  0
   93.7620  101.6410  -42.0460 H   0  0  0  0  0  0  0  0  0  0  0  0
   91.1180  102.3330  -39.8110 H   0  0  0  0  0  0  0  0  0  0  0  0
   89.9470  102.7640  -41.1500 H   0  0  0  0  0  0  0  0  0  0  0  0
   89.9710  101.0850  -40.5150 H   0  0  0  0  0  0  0  0  0  0  0  0
  2  1  1  0  0  0  0
  2  3  1  0  0  0  0
  3 26  1  0  0  0  0
  4  3  2  0  0  0  0
  4 11  1  0  0  0  0
  5  4  1  0  0  0  0
  6  7  1  0  0  0  0
  6  5  2  0  0  0  0
  7  2  2  0  0  0  0
  8  5  1  0  0  0  0
  8  9  1  0  0  0  0
  9 10  2  0  0  0  0
 11  9  1  6  0  0  0
 11 12  1  0  0  0  0
 11 16  1  0  0  0  0
 12 13  2  0  0  0  0
 13 20  1  0  0  0  0
 13 14  1  0  0  0  0
 14 30  1  0  0  0  0
 15 14  1  0  0  0  0
 15 19  1  0  0  0  0
 16 15  2  0  0  0  0
 17 16  1  0  0  0  0
 18 17  3  0  0  0  0
 19 31  1  0  0  0  0
 20 24  1  0  0  0  0
 20 25  1  0  0  0  0
 21 20  1  0  0  0  0
 22 12  1  0  0  0  0
 22 21  1  0  0  0  0
 23 22  2  0  0  0  0
 24 34  1  0  0  0  0
 25 38  1  0  0  0  0
 25 36  1  0  0  0  0
 27  6  1  0  0  0  0
 28  7  1  0  0  0  0
 29  8  1  0  0  0  0
 32 19  1  0  0  0  0
 33 24  1  0  0  0  0
 35 24  1  0  0  0  0
 37 25  1  0  0  0  0
M  END
>  <Pose>
1

>  <Score>
-5.04

$$$$
