
 OpenBabel03212208273D

 49 52  0  0  1  0  0  0  0  0999 V2000
   85.1120   97.3550  -44.2750 B   0  0  0  0  0  0  0  0  0  0  0  0
   86.8280   97.5520  -45.0860 C   0  0  0  0  0  0  0  0  0  0  0  0
   87.9740   97.4300  -44.3420 C   0  0  0  0  0  0  0  0  0  0  0  0
   89.2440   97.5730  -44.9300 C   0  0  0  0  0  0  0  0  0  0  0  0
   89.3800   97.8400  -46.2640 C   0  0  0  0  0  0  0  0  0  0  0  0
   88.2090   97.9650  -47.0240 C   0  0  0  0  0  0  0  0  0  0  0  0
   86.9770   97.8210  -46.4290 C   0  0  0  0  0  0  0  0  0  0  0  0
   90.7510   97.9410  -46.6240 N   0  0  0  0  0  0  0  0  0  0  0  0
   91.5110   97.7250  -45.4520 C   0  0  0  0  0  0  0  0  0  0  0  0
   92.7870   97.7530  -45.4580 O   0  0  0  0  0  0  0  0  0  0  0  0
   90.6000   97.4880  -44.3460 C   0  0  2  0  0  0  0  0  0  0  0  0
   90.8230   96.2230  -43.6720 N   0  0  0  0  0  0  0  0  0  0  0  0
   91.7910   96.5000  -42.6270 C   0  0  1  0  0  0  0  0  0  0  0  0
   91.3090   97.8190  -42.0960 C   0  0  2  0  0  0  0  0  0  0  0  0
   90.8040   98.5540  -43.2900 C   0  0  1  0  0  0  0  0  0  0  0  0
   91.8580   99.5180  -43.6420 C   0  0  0  0  0  0  0  0  0  0  0  0
   92.0170  100.1660  -44.7290 O   0  0  0  0  0  0  0  0  0  0  0  0
   92.7560   99.6600  -42.5490 N   0  0  0  0  0  0  0  0  0  0  0  0
   92.4120   98.6700  -41.6000 C   0  0  0  0  0  0  0  0  0  0  0  0
   92.9500   98.4990  -40.4650 O   0  0  0  0  0  0  0  0  0  0  0  0
   93.8230  100.6330  -42.4220 C   0  0  0  0  0  0  0  0  0  0  0  0
   93.7230  101.4310  -41.1620 C   0  0  0  0  0  0  0  0  0  0  0  0
   95.1420  101.5350  -40.5900 C   0  0  0  0  0  0  0  0  0  0  0  0
   95.3580  102.8870  -39.9660 C   0  0  0  0  0  0  0  0  0  0  0  0
   91.7500   95.4000  -41.6130 C   0  0  2  0  0  0  0  0  0  0  0  0
   92.9020   95.5030  -40.8230 O   0  0  0  0  0  0  0  0  0  0  0  0
   91.7990   94.0570  -42.3000 C   0  0  0  0  0  0  0  0  0  0  0  0
   87.9330   97.2160  -43.2670 H   0  0  0  0  0  0  0  0  0  0  0  0
   88.3130   98.1780  -48.0900 H   0  0  0  0  0  0  0  0  0  0  0  0
   86.0620   97.9150  -47.0080 H   0  0  0  0  0  0  0  0  0  0  0  0
   91.0810   98.1410  -47.6030 H   0  0  0  0  0  0  0  0  0  0  0  0
   91.1280   95.4720  -44.3180 H   0  0  0  0  0  0  0  0  0  0  0  0
   92.8090   96.6480  -43.0220 H   0  0  0  0  0  0  0  0  0  0  0  0
   90.5080   97.7080  -41.3370 H   0  0  0  0  0  0  0  0  0  0  0  0
   89.8440   99.0730  -43.0420 H   0  0  0  0  0  0  0  0  0  0  0  0
   94.8250  100.1660  -42.4530 H   0  0  0  0  0  0  0  0  0  0  0  0
   93.7680  101.3270  -43.2920 H   0  0  0  0  0  0  0  0  0  0  0  0
   93.1440  100.8600  -40.3910 H   0  0  0  0  0  0  0  0  0  0  0  0
   93.2550  102.4080  -41.2600 H   0  0  0  0  0  0  0  0  0  0  0  0
   95.1840  100.7600  -39.7810 H   0  0  0  0  0  0  0  0  0  0  0  0
   95.8970  101.2740  -41.3460 H   0  0  0  0  0  0  0  0  0  0  0  0
   94.8090  103.6960  -40.4690 H   0  0  0  0  0  0  0  0  0  0  0  0
   95.0170  102.8880  -38.8960 H   0  0  0  0  0  0  0  0  0  0  0  0
   96.4470  103.0870  -39.9280 H   0  0  0  0  0  0  0  0  0  0  0  0
   90.8280   95.4730  -40.9990 H   0  0  0  0  0  0  0  0  0  0  0  0
   92.8530   94.8900  -40.0450 H   0  0  0  0  0  0  0  0  0  0  0  0
   90.7800   93.7720  -42.6260 H   0  0  0  0  0  0  0  0  0  0  0  0
   92.5070   94.1310  -43.1350 H   0  0  0  0  0  0  0  0  0  0  0  0
   92.1100   93.3080  -41.5260 H   0  0  0  0  0  0  0  0  0  0  0  0
  2  3  1  0  0  0  0
  2  1  1  0  0  0  0
  3 28  1  0  0  0  0
  4 11  1  0  0  0  0
  4  3  2  0  0  0  0
  5  4  1  0  0  0  0
  6  7  1  0  0  0  0
  6  5  2  0  0  0  0
  7  2  2  0  0  0  0
  8  5  1  0  0  0  0
  8  9  1  0  0  0  0
 10  9  2  0  0  0  0
 11  9  1  6  0  0  0
 11 12  1  0  0  0  0
 11 15  1  0  0  0  0
 12 13  1  0  0  0  0
 13 33  1  6  0  0  0
 13 14  1  0  0  0  0
 13 25  1  0  0  0  0
 14 19  1  0  0  0  0
 14 34  1  1  0  0  0
 15 35  1  1  0  0  0
 15 14  1  0  0  0  0
 16 15  1  0  0  0  0
 16 18  1  0  0  0  0
 17 16  2  0  0  0  0
 18 21  1  0  0  0  0
 18 19  1  0  0  0  0
 19 20  2  0  0  0  0
 21 22  1  0  0  0  0
 22 23  1  0  0  0  0
 22 38  1  0  0  0  0
 23 24  1  0  0  0  0
 23 40  1  0  0  0  0
 24 44  1  0  0  0  0
 24 43  1  0  0  0  0
 25 45  1  1  0  0  0
 25 26  1  0  0  0  0
 26 46  1  0  0  0  0
 27 25  1  0  0  0  0
 27 49  1  0  0  0  0
 29  6  1  0  0  0  0
 30  7  1  0  0  0  0
 31  8  1  0  0  0  0
 32 12  1  0  0  0  0
 36 21  1  0  0  0  0
 37 21  1  0  0  0  0
 39 22  1  0  0  0  0
 41 23  1  0  0  0  0
 42 24  1  0  0  0  0
 47 27  1  0  0  0  0
 48 27  1  0  0  0  0
M  END
>  <Pose>
1

>  <Score>
-4.92

$$$$
