
 OpenBabel03212208273D

 53 57  0  0  1  0  0  0  0  0999 V2000
   86.1660   97.6270  -45.2460 B   0  0  0  0  0  0  0  0  0  0  0  0
   87.0690   98.8820  -44.1270 C   0  0  0  0  0  0  0  0  0  0  0  0
   88.3900   98.7370  -43.7650 C   0  0  0  0  0  0  0  0  0  0  0  0
   89.0480   99.6590  -42.9370 C   0  0  0  0  0  0  0  0  0  0  0  0
   88.3200  100.7340  -42.4890 C   0  0  0  0  0  0  0  0  0  0  0  0
   86.9880  100.8870  -42.8490 C   0  0  0  0  0  0  0  0  0  0  0  0
   86.3530   99.9750  -43.6620 C   0  0  0  0  0  0  0  0  0  0  0  0
   89.1050  101.5660  -41.6560 N   0  0  0  0  0  0  0  0  0  0  0  0
   90.3890  100.9900  -41.5730 C   0  0  0  0  0  0  0  0  0  0  0  0
   91.3220  101.5050  -40.8950 O   0  0  0  0  0  0  0  0  0  0  0  0
   90.4000   99.7560  -42.3860 C   0  0  1  0  0  0  0  0  0  0  0  0
   90.7090   98.5940  -41.5470 N   0  0  0  0  0  0  0  0  0  0  0  0
   91.4380   97.6820  -42.4000 C   0  0  1  0  0  0  0  0  0  0  0  0
   92.0950   98.4720  -43.4630 C   0  0  2  0  0  0  0  0  0  0  0  0
   91.5110   99.8690  -43.3610 C   0  0  1  0  0  0  0  0  0  0  0  0
   91.1840  100.2570  -44.7280 C   0  0  0  0  0  0  0  0  0  0  0  0
   90.5650  101.2910  -45.0830 O   0  0  0  0  0  0  0  0  0  0  0  0
   91.6790   99.2690  -45.6570 N   0  0  0  0  0  0  0  0  0  0  0  0
   91.7950   98.0770  -44.8530 C   0  0  0  0  0  0  0  0  0  0  0  0
   91.6620   96.9200  -45.2810 O   0  0  0  0  0  0  0  0  0  0  0  0
   92.0150   99.4120  -47.0380 C   0  0  0  0  0  0  0  0  0  0  0  0
   92.9450  100.5410  -47.3770 C   0  0  0  0  0  0  0  0  0  0  0  0
   93.0210  100.8750  -48.8100 C   0  0  0  0  0  0  0  0  0  0  0  0
   93.5690   99.9550  -49.6960 C   0  0  0  0  0  0  0  0  0  0  0  0
   93.6210  100.2390  -51.0190 C   0  0  0  0  0  0  0  0  0  0  0  0
   93.1510  101.4100  -51.5390 C   0  0  0  0  0  0  0  0  0  0  0  0
   92.6050  102.3200  -50.6470 C   0  0  0  0  0  0  0  0  0  0  0  0
   92.5420  102.0570  -49.3090 C   0  0  0  0  0  0  0  0  0  0  0  0
   92.3930   96.8490  -41.5790 C   0  0  1  0  0  0  0  0  0  0  0  0
   92.7180   97.5150  -40.4130 O   0  0  0  0  0  0  0  0  0  0  0  0
   91.8670   95.4570  -41.3230 C   0  0  0  0  0  0  0  0  0  0  0  0
   88.9240   97.8780  -44.1420 H   0  0  0  0  0  0  0  0  0  0  0  0
   86.4010  101.7360  -42.5000 H   0  0  0  0  0  0  0  0  0  0  0  0
   85.3080  100.0780  -43.9570 H   0  0  0  0  0  0  0  0  0  0  0  0
   88.7830  102.4560  -41.1850 H   0  0  0  0  0  0  0  0  0  0  0  0
   89.8390   98.1510  -41.1720 H   0  0  0  0  0  0  0  0  0  0  0  0
   90.7090   96.9820  -42.8470 H   0  0  0  0  0  0  0  0  0  0  0  0
   93.2050   98.5050  -43.3850 H   0  0  0  0  0  0  0  0  0  0  0  0
   92.3330  100.5440  -43.0170 H   0  0  0  0  0  0  0  0  0  0  0  0
   92.4730   98.4270  -47.3610 H   0  0  0  0  0  0  0  0  0  0  0  0
   91.0860   99.5600  -47.6520 H   0  0  0  0  0  0  0  0  0  0  0  0
   93.9810  100.3200  -47.0100 H   0  0  0  0  0  0  0  0  0  0  0  0
   92.6450  101.4450  -46.7710 H   0  0  0  0  0  0  0  0  0  0  0  0
   93.9580   99.0060  -49.3190 H   0  0  0  0  0  0  0  0  0  0  0  0
   94.0660   99.4770  -51.6780 H   0  0  0  0  0  0  0  0  0  0  0  0
   93.1870  101.6440  -52.5900 H   0  0  0  0  0  0  0  0  0  0  0  0
   92.2250  103.2550  -51.0620 H   0  0  0  0  0  0  0  0  0  0  0  0
   92.1210  102.7600  -48.6160 H   0  0  0  0  0  0  0  0  0  0  0  0
   93.3220   96.7380  -42.1840 H   0  0  0  0  0  0  0  0  0  0  0  0
   91.9580   97.9930  -40.0300 H   0  0  0  0  0  0  0  0  0  0  0  0
   92.0300   94.7740  -42.1680 H   0  0  0  0  0  0  0  0  0  0  0  0
   90.8130   95.4420  -41.0250 H   0  0  0  0  0  0  0  0  0  0  0  0
   92.4510   95.0440  -40.4630 H   0  0  0  0  0  0  0  0  0  0  0  0
  1  2  1  0  0  0  0
  2  3  2  0  0  0  0
  2  7  1  0  0  0  0
  3  4  1  0  0  0  0
  4  5  2  0  0  0  0
  5  8  1  0  0  0  0
  6 33  1  0  0  0  0
  6  5  1  0  0  0  0
  7  6  2  0  0  0  0
  8  9  1  0  0  0  0
  8 35  1  0  0  0  0
  9 10  2  0  0  0  0
 11  4  1  6  0  0  0
 11  9  1  0  0  0  0
 11 12  1  0  0  0  0
 12 36  1  0  0  0  0
 13 37  1  6  0  0  0
 13 29  1  0  0  0  0
 13 12  1  0  0  0  0
 14 38  1  1  0  0  0
 14 15  1  0  0  0  0
 14 13  1  0  0  0  0
 15 39  1  1  0  0  0
 15 11  1  0  0  0  0
 16 15  1  0  0  0  0
 17 16  2  0  0  0  0
 18 19  1  0  0  0  0
 18 16  1  0  0  0  0
 19 14  1  0  0  0  0
 20 19  2  0  0  0  0
 21 18  1  0  0  0  0
 22 21  1  0  0  0  0
 22 42  1  0  0  0  0
 22 43  1  0  0  0  0
 23 22  1  0  0  0  0
 24 44  1  0  0  0  0
 24 23  2  0  0  0  0
 25 24  1  0  0  0  0
 26 25  2  0  0  0  0
 26 27  1  0  0  0  0
 27 28  2  0  0  0  0
 28 23  1  0  0  0  0
 28 48  1  0  0  0  0
 29 49  1  6  0  0  0
 29 31  1  0  0  0  0
 29 30  1  0  0  0  0
 30 50  1  0  0  0  0
 31 52  1  0  0  0  0
 31 53  1  0  0  0  0
 32  3  1  0  0  0  0
 34  7  1  0  0  0  0
 40 21  1  0  0  0  0
 41 21  1  0  0  0  0
 45 25  1  0  0  0  0
 46 26  1  0  0  0  0
 47 27  1  0  0  0  0
 51 31  1  0  0  0  0
M  END
>  <Pose>
1

>  <Score>
-5.49

$$$$
