
 OpenBabel03212208273D

 45 48  0  0  1  0  0  0  0  0999 V2000
   88.2340   97.5850  -48.6150 B   0  0  0  0  0  0  0  0  0  0  0  0
   87.0280   97.3520  -47.1520 C   0  0  0  0  0  0  0  0  0  0  0  0
   86.7700   98.3530  -46.2490 C   0  0  0  0  0  0  0  0  0  0  0  0
   85.8900   98.2180  -45.1610 C   0  0  0  0  0  0  0  0  0  0  0  0
   85.2700   97.0120  -45.0220 C   0  0  0  0  0  0  0  0  0  0  0  0
   85.5220   95.9740  -45.9380 C   0  0  0  0  0  0  0  0  0  0  0  0
   86.3900   96.1380  -46.9920 C   0  0  0  0  0  0  0  0  0  0  0  0
   84.4050   97.0180  -43.8940 N   0  0  0  0  0  0  0  0  0  0  0  0
   84.4940   98.2940  -43.3050 C   0  0  0  0  0  0  0  0  0  0  0  0
   83.8450   98.6860  -42.2670 O   0  0  0  0  0  0  0  0  0  0  0  0
   85.4570   99.0890  -44.0890 C   0  0  2  0  0  0  0  0  0  0  0  0
   84.6370  100.1900  -44.6260 N   0  0  0  0  0  0  0  0  0  0  0  0
   84.8720  101.3580  -43.8360 C   0  0  2  0  0  0  0  0  0  0  0  0
   86.2550  101.1880  -43.3250 C   0  0  1  0  0  0  0  0  0  0  0  0
   86.5190   99.7080  -43.2580 C   0  0  2  0  0  0  0  0  0  0  0  0
   87.8920   99.5850  -43.6930 C   0  0  0  0  0  0  0  0  0  0  0  0
   88.6130   98.5550  -43.5420 O   0  0  0  0  0  0  0  0  0  0  0  0
   88.2950  100.7990  -44.3110 N   0  0  0  0  0  0  0  0  0  0  0  0
   87.1990  101.7020  -44.3660 C   0  0  0  0  0  0  0  0  0  0  0  0
   87.1140  102.6800  -45.1350 O   0  0  0  0  0  0  0  0  0  0  0  0
   89.6490  101.0250  -44.7980 C   0  0  0  0  0  0  0  0  0  0  0  0
   90.6760  100.7870  -43.7320 C   0  0  0  0  0  0  0  0  0  0  0  0
   91.6810   99.7300  -44.1030 C   0  0  0  0  0  0  0  0  0  0  0  0
   91.6070   98.6580  -43.0100 C   0  0  0  0  0  0  0  0  0  0  0  0
   83.8580  101.5960  -42.7420 C   0  0  0  0  0  0  0  0  0  0  0  0
   87.2760   99.2860  -46.3980 H   0  0  0  0  0  0  0  0  0  0  0  0
   85.0020   95.0210  -45.7860 H   0  0  0  0  0  0  0  0  0  0  0  0
   86.5970   95.3490  -47.7090 H   0  0  0  0  0  0  0  0  0  0  0  0
   83.7970   96.2200  -43.5440 H   0  0  0  0  0  0  0  0  0  0  0  0
   84.8460  100.3510  -45.6360 H   0  0  0  0  0  0  0  0  0  0  0  0
   84.8690  102.2510  -44.5430 H   0  0  0  0  0  0  0  0  0  0  0  0
   86.4350  101.6900  -42.3480 H   0  0  0  0  0  0  0  0  0  0  0  0
   86.3570   99.3320  -42.2020 H   0  0  0  0  0  0  0  0  0  0  0  0
   89.8690  100.3440  -45.6370 H   0  0  0  0  0  0  0  0  0  0  0  0
   89.7210  102.0750  -45.1730 H   0  0  0  0  0  0  0  0  0  0  0  0
   90.1510  100.4430  -42.8270 H   0  0  0  0  0  0  0  0  0  0  0  0
   91.2250  101.7380  -43.5660 H   0  0  0  0  0  0  0  0  0  0  0  0
   92.7130  100.1470  -44.1570 H   0  0  0  0  0  0  0  0  0  0  0  0
   91.4390   99.2830  -45.0690 H   0  0  0  0  0  0  0  0  0  0  0  0
   92.5500   98.0810  -42.9620 H   0  0  0  0  0  0  0  0  0  0  0  0
   91.3290   99.1270  -42.0510 H   0  0  0  0  0  0  0  0  0  0  0  0
   90.7320   98.0060  -43.2960 H   0  0  0  0  0  0  0  0  0  0  0  0
   83.6450  102.7070  -42.6730 H   0  0  0  0  0  0  0  0  0  0  0  0
   82.9130  101.1410  -43.0310 H   0  0  0  0  0  0  0  0  0  0  0  0
   84.2430  101.3400  -41.7410 H   0  0  0  0  0  0  0  0  0  0  0  0
  1  2  1  0  0  0  0
  2  7  2  0  0  0  0
  2  3  1  0  0  0  0
  3  4  2  0  0  0  0
  4  5  1  0  0  0  0
  5  8  1  0  0  0  0
  6 27  1  0  0  0  0
  6  5  2  0  0  0  0
  7  6  1  0  0  0  0
  8 29  1  0  0  0  0
  8  9  1  0  0  0  0
  9 10  2  0  0  0  0
 11  4  1  6  0  0  0
 11  9  1  0  0  0  0
 11 15  1  0  0  0  0
 12 11  1  0  0  0  0
 12 13  1  0  0  0  0
 13 31  1  6  0  0  0
 13 14  1  0  0  0  0
 13 25  1  0  0  0  0
 14 15  1  0  0  0  0
 14 32  1  1  0  0  0
 15 33  1  1  0  0  0
 16 17  2  0  0  0  0
 16 15  1  0  0  0  0
 18 16  1  0  0  0  0
 19 18  1  0  0  0  0
 19 14  1  0  0  0  0
 20 19  2  0  0  0  0
 21 18  1  0  0  0  0
 21 22  1  0  0  0  0
 22 37  1  0  0  0  0
 22 36  1  0  0  0  0
 23 22  1  0  0  0  0
 23 24  1  0  0  0  0
 24 40  1  0  0  0  0
 24 41  1  0  0  0  0
 25 43  1  0  0  0  0
 25 45  1  0  0  0  0
 26  3  1  0  0  0  0
 28  7  1  0  0  0  0
 30 12  1  0  0  0  0
 34 21  1  0  0  0  0
 35 21  1  0  0  0  0
 38 23  1  0  0  0  0
 39 23  1  0  0  0  0
 42 24  1  0  0  0  0
 44 25  1  0  0  0  0
M  END
>  <Pose>
1

>  <Score>
-4.57

$$$$
