
 OpenBabel03212208273D

 47 50  0  0  1  0  0  0  0  0999 V2000
   94.6700  101.9690  -39.6950 B   0  0  0  0  0  0  0  0  0  0  0  0
   92.9020  101.7340  -40.3700 C   0  0  0  0  0  0  0  0  0  0  0  0
   92.5590  100.7140  -41.2300 C   0  0  0  0  0  0  0  0  0  0  0  0
   91.2640  100.5480  -41.7190 C   0  0  0  0  0  0  0  0  0  0  0  0
   90.2850  101.4290  -41.3350 C   0  0  0  0  0  0  0  0  0  0  0  0
   90.5990  102.4660  -40.4710 C   0  0  0  0  0  0  0  0  0  0  0  0
   91.9080  102.6100  -39.9940 C   0  0  0  0  0  0  0  0  0  0  0  0
   89.0390  101.0750  -41.9430 N   0  0  0  0  0  0  0  0  0  0  0  0
   89.2470   99.9230  -42.7410 C   0  0  0  0  0  0  0  0  0  0  0  0
   88.3400   99.3680  -43.3910 O   0  0  0  0  0  0  0  0  0  0  0  0
   90.6500   99.5530  -42.6450 C   0  0  2  0  0  0  0  0  0  0  0  0
   90.7050   98.2110  -42.0670 N   0  0  0  0  0  0  0  0  0  0  0  0
   91.7690   97.5380  -42.7500 C   0  0  2  0  0  0  0  0  0  0  0  0
   91.6730   98.0420  -44.1440 C   0  0  2  0  0  0  0  0  0  0  0  0
   91.3980   99.5140  -43.9440 C   0  0  1  0  0  0  0  0  0  0  0  0
   90.6430   99.9120  -45.1250 C   0  0  0  0  0  0  0  0  0  0  0  0
   90.4730  101.0830  -45.5260 O   0  0  0  0  0  0  0  0  0  0  0  0
   90.1360   98.7310  -45.7350 N   0  0  0  0  0  0  0  0  0  0  0  0
   90.4690   97.6020  -44.8930 C   0  0  0  0  0  0  0  0  0  0  0  0
   89.8100   96.5500  -44.8910 O   0  0  0  0  0  0  0  0  0  0  0  0
   89.4230   98.7060  -46.9790 C   0  0  0  0  0  0  0  0  0  0  0  0
   90.1060   99.3800  -48.1220 C   0  0  0  0  0  0  0  0  0  0  0  0
   89.9870   98.6890  -49.3170 O   0  0  0  0  0  0  0  0  0  0  0  0
   90.6120   99.3620  -50.3650 C   0  0  0  0  0  0  0  0  0  0  0  0
   91.7380   96.0560  -42.6010 C   0  0  0  0  0  0  0  0  0  0  0  0
   92.1610   95.6820  -41.2470 C   0  0  0  0  0  0  0  0  0  0  0  0
   92.7080   96.5450  -40.5030 O   0  0  0  0  0  0  0  0  0  0  0  0
   91.9640   94.3570  -40.7580 N   0  0  0  0  0  0  0  0  0  0  0  0
   93.3570  100.0360  -41.5120 H   0  0  0  0  0  0  0  0  0  0  0  0
   89.8180  103.1520  -40.1770 H   0  0  0  0  0  0  0  0  0  0  0  0
   92.1330  103.4260  -39.3200 H   0  0  0  0  0  0  0  0  0  0  0  0
   88.1340  101.6050  -41.8010 H   0  0  0  0  0  0  0  0  0  0  0  0
   89.8160   97.6920  -42.2670 H   0  0  0  0  0  0  0  0  0  0  0  0
   92.7700   97.8730  -42.3620 H   0  0  0  0  0  0  0  0  0  0  0  0
   92.6020   97.8730  -44.7350 H   0  0  0  0  0  0  0  0  0  0  0  0
   92.3960  100.0030  -43.8680 H   0  0  0  0  0  0  0  0  0  0  0  0
   88.4490   99.2280  -46.8410 H   0  0  0  0  0  0  0  0  0  0  0  0
   89.2420   97.6450  -47.3030 H   0  0  0  0  0  0  0  0  0  0  0  0
   91.1770   99.6070  -47.9160 H   0  0  0  0  0  0  0  0  0  0  0  0
   89.6140  100.3640  -48.2690 H   0  0  0  0  0  0  0  0  0  0  0  0
   90.4570   98.7200  -51.2780 H   0  0  0  0  0  0  0  0  0  0  0  0
   90.1560  100.3290  -50.5960 H   0  0  0  0  0  0  0  0  0  0  0  0
   91.7160   99.4050  -50.2320 H   0  0  0  0  0  0  0  0  0  0  0  0
   90.7870   95.5740  -42.8720 H   0  0  0  0  0  0  0  0  0  0  0  0
   92.5020   95.6360  -43.3070 H   0  0  0  0  0  0  0  0  0  0  0  0
   92.6010   93.9640  -40.0360 H   0  0  0  0  0  0  0  0  0  0  0  0
   91.1760   93.7870  -41.1280 H   0  0  0  0  0  0  0  0  0  0  0  0
  2  7  1  0  0  0  0
  2  1  1  0  0  0  0
  3  2  2  0  0  0  0
  4  5  2  0  0  0  0
  4  3  1  0  0  0  0
  5  6  1  0  0  0  0
  6 30  1  0  0  0  0
  6  7  2  0  0  0  0
  7 31  1  0  0  0  0
  8 32  1  0  0  0  0
  8  5  1  0  0  0  0
  9  8  1  0  0  0  0
 10  9  2  0  0  0  0
 11  9  1  6  0  0  0
 11 12  1  0  0  0  0
 11  4  1  0  0  0  0
 13 25  1  0  0  0  0
 13 34  1  1  0  0  0
 13 12  1  0  0  0  0
 14 35  1  6  0  0  0
 14 15  1  0  0  0  0
 14 13  1  0  0  0  0
 15 36  1  1  0  0  0
 15 11  1  0  0  0  0
 16 15  1  0  0  0  0
 17 16  2  0  0  0  0
 18 16  1  0  0  0  0
 18 19  1  0  0  0  0
 19 20  2  0  0  0  0
 19 14  1  0  0  0  0
 21 37  1  0  0  0  0
 21 18  1  0  0  0  0
 22 39  1  0  0  0  0
 22 21  1  0  0  0  0
 23 22  1  0  0  0  0
 24 43  1  0  0  0  0
 24 23  1  0  0  0  0
 25 26  1  0  0  0  0
 26 28  1  0  0  0  0
 26 27  2  0  0  0  0
 28 46  1  0  0  0  0
 29  3  1  0  0  0  0
 33 12  1  0  0  0  0
 38 21  1  0  0  0  0
 40 22  1  0  0  0  0
 41 24  1  0  0  0  0
 42 24  1  0  0  0  0
 44 25  1  0  0  0  0
 45 25  1  0  0  0  0
 47 28  1  0  0  0  0
M  END
>  <Pose>
1

>  <Score>
-5.75

$$$$
