
 OpenBabel03212208273D

 39 42  0  0  1  0  0  0  0  0999 V2000
   91.5230   91.5270  -46.8520 B   0  0  0  0  0  0  0  0  0  0  0  0
   91.6310   92.9060  -45.5410 C   0  0  0  0  0  0  0  0  0  0  0  0
   91.0190   94.0970  -45.8020 C   0  0  0  0  0  0  0  0  0  0  0  0
   91.0820   95.1170  -44.8680 C   0  0  0  0  0  0  0  0  0  0  0  0
   91.7640   94.9310  -43.6710 C   0  0  0  0  0  0  0  0  0  0  0  0
   92.3880   93.7320  -43.3930 C   0  0  0  0  0  0  0  0  0  0  0  0
   92.2990   92.7470  -44.3510 C   0  0  0  0  0  0  0  0  0  0  0  0
   91.8940   95.8950  -42.6470 N   0  0  0  0  0  0  0  0  0  0  0  0
   92.1540   95.5320  -41.3850 N   0  0  0  0  0  0  0  0  0  0  0  0
   92.2120   96.6400  -40.6970 N   0  0  0  0  0  0  0  0  0  0  0  0
   91.9970   97.6830  -41.4820 N   0  0  0  0  0  0  0  0  0  0  0  0
   91.7910   97.2100  -42.7450 C   0  0  0  0  0  0  0  0  0  0  0  0
   91.5160   98.1330  -43.9000 C   0  0  2  0  0  0  0  0  0  0  0  0
   90.4580   97.5950  -44.7510 N   0  0  0  0  0  0  0  0  0  0  0  0
   90.3620   96.3050  -45.3430 C   0  0  0  0  0  0  0  0  0  0  0  0
   89.6070   96.1660  -46.3460 O   0  0  0  0  0  0  0  0  0  0  0  0
   92.7660   98.1370  -44.7370 C   0  0  0  0  0  0  0  0  0  0  0  0
   92.7930   99.3580  -45.5980 C   0  0  0  0  0  0  0  0  0  0  0  0
   92.8460  100.4420  -44.7630 O   0  0  0  0  0  0  0  0  0  0  0  0
   91.7360  100.6480  -43.9890 C   0  0  0  0  0  0  0  0  0  0  0  0
   91.1150   99.4650  -43.3810 C   0  0  0  0  0  0  0  0  0  0  0  0
   94.0880   99.3670  -46.4200 C   0  0  0  0  0  0  0  0  0  0  0  0
   91.6640   99.4170  -46.5910 C   0  0  0  0  0  0  0  0  0  0  0  0
   90.4730   94.3040  -46.7150 H   0  0  0  0  0  0  0  0  0  0  0  0
   92.9080   93.6240  -42.4520 H   0  0  0  0  0  0  0  0  0  0  0  0
   92.7810   91.8070  -44.1470 H   0  0  0  0  0  0  0  0  0  0  0  0
   89.6390   98.2400  -44.9700 H   0  0  0  0  0  0  0  0  0  0  0  0
   92.7450   97.2350  -45.3900 H   0  0  0  0  0  0  0  0  0  0  0  0
   93.6790   98.1500  -44.1050 H   0  0  0  0  0  0  0  0  0  0  0  0
   91.0000  101.2200  -44.6310 H   0  0  0  0  0  0  0  0  0  0  0  0
   92.0320  101.4080  -43.2040 H   0  0  0  0  0  0  0  0  0  0  0  0
   91.2700   99.5080  -42.2610 H   0  0  0  0  0  0  0  0  0  0  0  0
   89.9930   99.5630  -43.4800 H   0  0  0  0  0  0  0  0  0  0  0  0
   94.9290   98.9340  -45.8560 H   0  0  0  0  0  0  0  0  0  0  0  0
   94.2790  100.3460  -46.8630 H   0  0  0  0  0  0  0  0  0  0  0  0
   93.8880   98.6600  -47.2760 H   0  0  0  0  0  0  0  0  0  0  0  0
   92.0140  100.0330  -47.4710 H   0  0  0  0  0  0  0  0  0  0  0  0
   90.7720   99.9520  -46.2120 H   0  0  0  0  0  0  0  0  0  0  0  0
   91.4280   98.4280  -47.0050 H   0  0  0  0  0  0  0  0  0  0  0  0
  1  2  1  0  0  0  0
  2  7  1  0  0  0  0
  3  2  2  0  0  0  0
  3  4  1  0  0  0  0
  4  5  2  0  0  0  0
  5  6  1  0  0  0  0
  5  8  1  0  0  0  0
  6 25  1  0  0  0  0
  7 26  1  0  0  0  0
  7  6  2  0  0  0  0
  8  9  1  0  0  0  0
  9 10  2  0  0  0  0
 11 10  1  0  0  0  0
 12  8  1  0  0  0  0
 12 11  2  0  0  0  0
 13 21  1  0  0  0  0
 13 12  1  1  0  0  0
 14 13  1  0  0  0  0
 15  4  1  0  0  0  0
 15 14  1  0  0  0  0
 16 15  2  0  0  0  0
 17 29  1  0  0  0  0
 17 13  1  0  0  0  0
 18 19  1  0  0  0  0
 18 17  1  0  0  0  0
 19 20  1  0  0  0  0
 20 21  1  0  0  0  0
 20 31  1  0  0  0  0
 21 32  1  0  0  0  0
 22 34  1  0  0  0  0
 22 18  1  0  0  0  0
 23 38  1  0  0  0  0
 23 18  1  0  0  0  0
 24  3  1  0  0  0  0
 27 14  1  0  0  0  0
 28 17  1  0  0  0  0
 30 20  1  0  0  0  0
 33 21  1  0  0  0  0
 35 22  1  0  0  0  0
 36 22  1  0  0  0  0
 37 23  1  0  0  0  0
 39 23  1  0  0  0  0
M  END
>  <Pose>
1

>  <Score>
-5.14

$$$$
