
 OpenBabel03212208273D

 37 40  0  0  0  0  0  0  0  0999 V2000
   91.4470   91.3160  -46.5850 B   0  0  0  0  0  0  0  0  0  0  0  0
   91.6080   92.7760  -45.3480 C   0  0  0  0  0  0  0  0  0  0  0  0
   91.7430   94.0690  -45.8070 C   0  0  0  0  0  0  0  0  0  0  0  0
   91.8570   95.1140  -44.9140 C   0  0  0  0  0  0  0  0  0  0  0  0
   91.8460   94.9320  -43.5450 C   0  0  0  0  0  0  0  0  0  0  0  0
   91.7110   93.6200  -43.0980 C   0  0  0  0  0  0  0  0  0  0  0  0
   91.5940   92.5700  -43.9850 C   0  0  0  0  0  0  0  0  0  0  0  0
   91.9520   95.8780  -42.5060 N   0  0  0  0  0  0  0  0  0  0  0  0
   92.1880   95.5550  -41.2450 N   0  0  0  0  0  0  0  0  0  0  0  0
   92.2230   96.6760  -40.5410 N   0  0  0  0  0  0  0  0  0  0  0  0
   92.0120   97.6860  -41.3510 N   0  0  0  0  0  0  0  0  0  0  0  0
   91.8350   97.2180  -42.6120 C   0  0  0  0  0  0  0  0  0  0  0  0
   91.5790   98.1400  -43.7200 C   0  0  0  0  0  0  0  0  0  0  0  0
   92.0020   97.7200  -45.0110 N   0  0  0  0  0  0  0  0  0  0  0  0
   91.9920   96.4160  -45.5700 C   0  0  0  0  0  0  0  0  0  0  0  0
   92.1130   96.2950  -46.8180 O   0  0  0  0  0  0  0  0  0  0  0  0
   90.0830   98.4720  -43.8420 C   0  0  0  0  0  0  0  0  0  0  0  0
   89.9410   99.8920  -44.3260 C   0  0  0  0  0  0  0  0  0  0  0  0
   90.1890  100.7620  -43.1980 N   0  0  0  0  0  0  0  0  0  0  0  0
   91.3970  100.3430  -42.5390 C   0  0  0  0  0  0  0  0  0  0  0  0
   92.2680   99.4610  -43.3990 C   0  0  0  0  0  0  0  0  0  0  0  0
   89.0300  100.6760  -42.3110 C   0  0  0  0  0  0  0  0  0  0  0  0
   91.7620   94.3010  -46.8670 H   0  0  0  0  0  0  0  0  0  0  0  0
   91.7010   93.4710  -42.0270 H   0  0  0  0  0  0  0  0  0  0  0  0
   91.4900   91.5650  -43.6100 H   0  0  0  0  0  0  0  0  0  0  0  0
   92.3680   98.4750  -45.6270 H   0  0  0  0  0  0  0  0  0  0  0  0
   89.6120   97.8240  -44.6310 H   0  0  0  0  0  0  0  0  0  0  0  0
   89.5720   98.2590  -42.9070 H   0  0  0  0  0  0  0  0  0  0  0  0
   90.7080  100.0740  -45.0960 H   0  0  0  0  0  0  0  0  0  0  0  0
   88.9600  100.0610  -44.7740 H   0  0  0  0  0  0  0  0  0  0  0  0
   91.1350   99.8860  -41.5800 H   0  0  0  0  0  0  0  0  0  0  0  0
   91.9860  101.2550  -42.3180 H   0  0  0  0  0  0  0  0  0  0  0  0
   92.5930  100.0030  -44.2860 H   0  0  0  0  0  0  0  0  0  0  0  0
   93.1710   99.2170  -42.8000 H   0  0  0  0  0  0  0  0  0  0  0  0
   89.3970  100.2520  -41.3490 H   0  0  0  0  0  0  0  0  0  0  0  0
   88.5470  101.6640  -42.1630 H   0  0  0  0  0  0  0  0  0  0  0  0
   88.2440  100.0060  -42.7350 H   0  0  0  0  0  0  0  0  0  0  0  0
  1  2  1  0  0  0  0
  2  7  1  0  0  0  0
  3  2  2  0  0  0  0
  3  4  1  0  0  0  0
  4  5  2  0  0  0  0
  5  6  1  0  0  0  0
  5  8  1  0  0  0  0
  6 24  1  0  0  0  0
  7 25  1  0  0  0  0
  7  6  2  0  0  0  0
  8  9  1  0  0  0  0
  9 10  2  0  0  0  0
 11 10  1  0  0  0  0
 12  8  1  0  0  0  0
 12 11  2  0  0  0  0
 13 21  1  0  0  0  0
 13 12  1  0  0  0  0
 14 13  1  0  0  0  0
 15 14  1  0  0  0  0
 15  4  1  0  0  0  0
 16 15  2  0  0  0  0
 17 13  1  0  0  0  0
 17 28  1  0  0  0  0
 18 17  1  0  0  0  0
 18 19  1  0  0  0  0
 19 20  1  0  0  0  0
 19 22  1  0  0  0  0
 20 32  1  0  0  0  0
 20 31  1  0  0  0  0
 21 34  1  0  0  0  0
 21 20  1  0  0  0  0
 22 36  1  0  0  0  0
 22 35  1  0  0  0  0
 23  3  1  0  0  0  0
 26 14  1  0  0  0  0
 27 17  1  0  0  0  0
 29 18  1  0  0  0  0
 30 18  1  0  0  0  0
 33 21  1  0  0  0  0
 37 22  1  0  0  0  0
M  END
>  <Pose>
1

>  <Score>
-5.06

$$$$
