
 OpenBabel03212208273D

 33 36  0  0  1  0  0  0  0  0999 V2000
   91.9450   94.0270  -44.0920 B   0  0  0  0  0  0  0  0  0  0  0  0
   91.1970   95.4770  -45.0650 C   0  0  0  0  0  0  0  0  0  0  0  0
   91.5290   96.7550  -44.7080 C   0  0  0  0  0  0  0  0  0  0  0  0
   90.9770   97.8210  -45.4250 C   0  0  0  0  0  0  0  0  0  0  0  0
   90.1310   97.5540  -46.4500 C   0  0  0  0  0  0  0  0  0  0  0  0
   89.7910   96.2350  -46.8140 C   0  0  0  0  0  0  0  0  0  0  0  0
   90.3350   95.1900  -46.1080 C   0  0  0  0  0  0  0  0  0  0  0  0
   89.5590   98.5740  -47.1890 O   0  0  0  0  0  0  0  0  0  0  0  0
   89.8670   99.8770  -46.8630 C   0  0  0  0  0  0  0  0  0  0  0  0
   90.6760  100.2120  -45.8860 C   0  0  0  0  0  0  0  0  0  0  0  0
   91.3250   99.2090  -45.0530 C   0  0  1  0  0  0  0  0  0  0  0  0
   91.1250   99.4480  -43.6040 C   0  0  0  0  0  0  0  0  0  0  0  0
   92.3420   99.6930  -43.0310 C   0  0  0  0  0  0  0  0  0  0  0  0
   92.1540   99.9130  -41.6970 N   0  0  0  0  0  0  0  0  0  0  0  0
   90.8560   99.8020  -41.4790 N   0  0  0  0  0  0  0  0  0  0  0  0
   90.1920   99.5210  -42.6070 C   0  0  0  0  0  0  0  0  0  0  0  0
   88.7120   99.3340  -42.6890 C   0  0  0  0  0  0  0  0  0  0  0  0
   93.3760   99.6400  -43.9910 N   0  0  0  0  0  0  0  0  0  0  0  0
   92.7870   99.3460  -45.2310 C   0  0  0  0  0  0  0  0  0  0  0  0
   93.3720   99.2130  -46.3390 O   0  0  0  0  0  0  0  0  0  0  0  0
   90.9490  101.6020  -45.6060 C   0  0  0  0  0  0  0  0  0  0  0  0
   91.1820  102.7160  -45.3950 N   0  0  0  0  0  0  0  0  0  0  0  0
   89.2650  100.9250  -47.6400 N   0  0  0  0  0  0  0  0  0  0  0  0
   92.1960   97.0150  -43.9020 H   0  0  0  0  0  0  0  0  0  0  0  0
   89.1100   96.0520  -47.6410 H   0  0  0  0  0  0  0  0  0  0  0  0
   90.1200   94.1550  -46.3310 H   0  0  0  0  0  0  0  0  0  0  0  0
   90.4470   99.9300  -40.5150 H   0  0  0  0  0  0  0  0  0  0  0  0
   88.4170   99.0580  -43.7050 H   0  0  0  0  0  0  0  0  0  0  0  0
   88.2170  100.2740  -42.3410 H   0  0  0  0  0  0  0  0  0  0  0  0
   88.3610   98.5370  -41.9860 H   0  0  0  0  0  0  0  0  0  0  0  0
   94.4180   99.7980  -43.7840 H   0  0  0  0  0  0  0  0  0  0  0  0
   89.8120  101.7880  -47.8500 H   0  0  0  0  0  0  0  0  0  0  0  0
   88.2900  100.8590  -48.0080 H   0  0  0  0  0  0  0  0  0  0  0  0
  2  3  1  0  0  0  0
  2  1  1  0  0  0  0
  3 24  1  0  0  0  0
  4 11  1  0  0  0  0
  4  3  2  0  0  0  0
  5  4  1  0  0  0  0
  6  5  2  0  0  0  0
  6  7  1  0  0  0  0
  7  2  2  0  0  0  0
  8  9  1  0  0  0  0
  8  5  1  0  0  0  0
  9 10  2  0  0  0  0
 10 21  1  0  0  0  0
 11 10  1  6  0  0  0
 11 12  1  0  0  0  0
 12 13  1  0  0  0  0
 12 16  2  0  0  0  0
 13 14  2  0  0  0  0
 14 15  1  0  0  0  0
 15 27  1  0  0  0  0
 16 15  1  0  0  0  0
 17 16  1  0  0  0  0
 17 29  1  0  0  0  0
 17 30  1  0  0  0  0
 18 31  1  0  0  0  0
 18 13  1  0  0  0  0
 19 11  1  0  0  0  0
 19 18  1  0  0  0  0
 20 19  2  0  0  0  0
 21 22  3  0  0  0  0
 23  9  1  0  0  0  0
 25  6  1  0  0  0  0
 26  7  1  0  0  0  0
 28 17  1  0  0  0  0
 32 23  1  0  0  0  0
 33 23  1  0  0  0  0
M  END
>  <Pose>
1

>  <Score>
-5.00

$$$$
