
 OpenBabel03212208273D

 44 47  0  0  0  0  0  0  0  0999 V2000
   90.0080   89.8000  -49.9320 B   0  0  0  0  0  0  0  0  0  0  0  0
   91.2260   90.3460  -48.5890 C   0  0  0  0  0  0  0  0  0  0  0  0
   90.8890   91.3110  -47.6570 C   0  0  0  0  0  0  0  0  0  0  0  0
   91.7420   91.7320  -46.6520 C   0  0  0  0  0  0  0  0  0  0  0  0
   92.9910   91.1500  -46.5880 C   0  0  0  0  0  0  0  0  0  0  0  0
   93.3860   90.1780  -47.4950 C   0  0  0  0  0  0  0  0  0  0  0  0
   92.5080   89.7890  -48.4800 C   0  0  0  0  0  0  0  0  0  0  0  0
   93.8340   91.5390  -45.6290 O   0  0  0  0  0  0  0  0  0  0  0  0
   93.5410   92.4350  -44.7540 C   0  0  0  0  0  0  0  0  0  0  0  0
   94.3360   92.8080  -43.8360 O   0  0  0  0  0  0  0  0  0  0  0  0
   92.3090   93.0550  -44.7650 C   0  0  0  0  0  0  0  0  0  0  0  0
   91.4010   92.6930  -45.7340 C   0  0  0  0  0  0  0  0  0  0  0  0
   91.9870   94.0980  -43.7920 C   0  0  0  0  0  0  0  0  0  0  0  0
   91.9590   93.8250  -42.4340 C   0  0  0  0  0  0  0  0  0  0  0  0
   91.7100   94.8320  -41.5260 C   0  0  0  0  0  0  0  0  0  0  0  0
   91.7030   94.5040  -40.2970 O   0  0  0  0  0  0  0  0  0  0  0  0
   91.4940   96.0480  -41.9250 O   0  0  0  0  0  0  0  0  0  0  0  0
   91.5050   96.3660  -43.1620 C   0  0  0  0  0  0  0  0  0  0  0  0
   91.7520   95.4010  -44.1560 C   0  0  0  0  0  0  0  0  0  0  0  0
   91.7450   95.7680  -45.4710 C   0  0  0  0  0  0  0  0  0  0  0  0
   91.4930   97.1100  -45.7730 C   0  0  0  0  0  0  0  0  0  0  0  0
   91.2580   98.0340  -44.7740 C   0  0  0  0  0  0  0  0  0  0  0  0
   91.2550   97.6970  -43.4390 C   0  0  0  0  0  0  0  0  0  0  0  0
   91.1020   98.7330  -42.4530 C   0  0  0  0  0  0  0  0  0  0  0  0
   89.8900   99.3910  -42.1800 N   0  0  0  0  0  4  0  0  0  0  0  0
   89.9330  100.8150  -41.9970 C   0  0  0  0  0  0  0  0  0  0  0  0
   88.7990   98.9650  -43.0940 C   0  0  0  0  0  0  0  0  0  0  0  0
   91.0200   99.3620  -45.1870 O   0  0  0  0  0  0  0  0  0  0  0  0
   89.8940   91.7800  -47.6790 H   0  0  0  0  0  0  0  0  0  0  0  0
   94.3800   89.7730  -47.3910 H   0  0  0  0  0  0  0  0  0  0  0  0
   92.7480   89.0370  -49.2220 H   0  0  0  0  0  0  0  0  0  0  0  0
   90.4000   93.1670  -45.8150 H   0  0  0  0  0  0  0  0  0  0  0  0
   92.1280   92.7970  -42.1180 H   0  0  0  0  0  0  0  0  0  0  0  0
   91.9000   95.0420  -46.2590 H   0  0  0  0  0  0  0  0  0  0  0  0
   91.5030   97.3700  -46.8220 H   0  0  0  0  0  0  0  0  0  0  0  0
   91.8350   99.5710  -42.7670 H   0  0  0  0  0  0  0  0  0  0  0  0
   91.5690   98.4200  -41.4750 H   0  0  0  0  0  0  0  0  0  0  0  0
   89.5530   99.0370  -41.2380 H   0  0  0  0  0  0  0  0  0  0  0  0
   89.6320  101.4000  -42.9060 H   0  0  0  0  0  0  0  0  0  0  0  0
   90.8890  101.1990  -41.5730 H   0  0  0  0  0  0  0  0  0  0  0  0
   89.1610  101.1790  -41.2350 H   0  0  0  0  0  0  0  0  0  0  0  0
   89.1870   98.2470  -43.8630 H   0  0  0  0  0  0  0  0  0  0  0  0
   88.0280   98.3430  -42.5690 H   0  0  0  0  0  0  0  0  0  0  0  0
   88.2670   99.8330  -43.4920 H   0  0  0  0  0  0  0  0  0  0  0  0
  1  2  1  0  0  0  0
  2  7  2  0  0  0  0
  2  3  1  0  0  0  0
  3  4  2  0  0  0  0
  4  5  1  0  0  0  0
  4 12  1  0  0  0  0
  5  8  1  0  0  0  0
  6 30  1  0  0  0  0
  6  5  2  0  0  0  0
  7  6  1  0  0  0  0
  8  9  1  0  0  0  0
  9 10  2  0  0  0  0
 11  9  1  0  0  0  0
 11 13  1  0  0  0  0
 12 11  2  0  0  0  0
 13 14  2  0  0  0  0
 14 33  1  0  0  0  0
 14 15  1  0  0  0  0
 15 16  2  0  0  0  0
 17 15  1  0  0  0  0
 18 17  1  0  0  0  0
 19 13  1  0  0  0  0
 19 18  2  0  0  0  0
 20 19  1  0  0  0  0
 21 20  2  0  0  0  0
 21 22  1  0  0  0  0
 22 23  2  0  0  0  0
 23 18  1  0  0  0  0
 23 24  1  0  0  0  0
 24 25  1  0  0  0  0
 24 37  1  0  0  0  0
 25 26  1  0  0  0  0
 25 38  1  0  0  0  0
 26 40  1  0  0  0  0
 26 41  1  0  0  0  0
 27 43  1  0  0  0  0
 27 25  1  0  0  0  0
 28 22  1  0  0  0  0
 29  3  1  0  0  0  0
 31  7  1  0  0  0  0
 32 12  1  0  0  0  0
 34 20  1  0  0  0  0
 35 21  1  0  0  0  0
 36 24  1  0  0  0  0
 39 26  1  0  0  0  0
 42 27  1  0  0  0  0
 44 27  1  0  0  0  0
M  END
>  <Pose>
1

>  <Score>
-4.74

$$$$
