
 OpenBabel03212208273D

 54 57  0  0  0  0  0  0  0  0999 V2000
   92.2730  100.3690  -40.8830 B   0  0  0  0  0  0  0  0  0  0  0  0
   92.0660   98.6870  -41.7680 C   0  0  0  0  0  0  0  0  0  0  0  0
   91.9130   98.5930  -43.1400 C   0  0  0  0  0  0  0  0  0  0  0  0
   91.7620   97.3960  -43.8060 C   0  0  0  0  0  0  0  0  0  0  0  0
   91.7590   96.2110  -43.0940 C   0  0  0  0  0  0  0  0  0  0  0  0
   91.6040   95.0230  -43.7290 N   0  0  0  0  0  0  0  0  0  0  0  0
   91.4480   94.9340  -45.0610 C   0  0  0  0  0  0  0  0  0  0  0  0
   91.4530   96.0860  -45.7560 N   0  0  0  0  0  0  0  0  0  0  0  0
   91.6040   97.2960  -45.1690 C   0  0  0  0  0  0  0  0  0  0  0  0
   91.5990   98.5120  -45.9690 C   0  0  0  0  0  0  0  0  0  0  0  0
   90.4850   98.9050  -46.6960 C   0  0  0  0  0  0  0  0  0  0  0  0
   90.4740  100.0480  -47.4760 C   0  0  0  0  0  0  0  0  0  0  0  0
   91.6440  100.8150  -47.5120 C   0  0  0  0  0  0  0  0  0  0  0  0
   92.7690  100.4520  -46.8020 C   0  0  0  0  0  0  0  0  0  0  0  0
   92.7340   99.3220  -46.0500 C   0  0  0  0  0  0  0  0  0  0  0  0
   89.0310   97.9230  -46.6320 Cl  0  0  0  0  0  0  0  0  0  0  0  0
   91.2890   93.6690  -45.6940 N   0  0  0  0  0  4  0  0  0  0  0  0
   89.8890   93.3580  -45.8840 C   0  0  0  0  0  0  0  0  0  0  0  0
   89.7780   92.2870  -46.9230 C   0  0  0  0  0  0  0  0  0  0  0  0
   91.0820   91.6840  -47.1080 N   0  0  0  0  0  0  0  0  0  0  0  0
   91.8440   91.3690  -45.9120 C   0  0  0  0  0  0  0  0  0  0  0  0
   91.8860   92.5770  -44.9700 C   0  0  0  0  0  0  0  0  0  0  0  0
   91.5400   91.4360  -48.4120 C   0  0  0  0  0  0  0  0  0  0  0  0
   92.7770   91.3030  -48.5850 O   0  0  0  0  0  0  0  0  0  0  0  0
   90.6340   91.3310  -49.5580 C   0  0  0  0  0  0  0  0  0  0  0  0
   90.6800   89.9390  -50.1200 C   0  0  0  0  0  0  0  0  0  0  0  0
   90.0440   88.9200  -49.2010 C   0  0  0  0  0  0  0  0  0  0  0  0
   90.5690   87.5540  -49.3980 C   0  0  0  0  0  0  0  0  0  0  0  0
   89.7370   86.6420  -49.6140 O   0  0  0  0  0  0  0  0  0  0  0  0
   91.9350   87.3200  -49.3420 O   0  0  0  0  0  0  0  0  0  0  0  0
   91.9110   96.2950  -41.7270 C   0  0  0  0  0  0  0  0  0  0  0  0
   92.0630   97.5050  -41.0600 C   0  0  0  0  0  0  0  0  0  0  0  0
   91.9080   99.5290  -43.6790 H   0  0  0  0  0  0  0  0  0  0  0  0
   89.5990  100.3530  -48.0430 H   0  0  0  0  0  0  0  0  0  0  0  0
   91.6300  101.7180  -48.1320 H   0  0  0  0  0  0  0  0  0  0  0  0
   93.6790  101.0630  -46.8370 H   0  0  0  0  0  0  0  0  0  0  0  0
   93.6140   99.0300  -45.4950 H   0  0  0  0  0  0  0  0  0  0  0  0
   91.7580   93.7290  -46.6210 H   0  0  0  0  0  0  0  0  0  0  0  0
   89.3890   94.2980  -46.1940 H   0  0  0  0  0  0  0  0  0  0  0  0
   89.4800   93.0610  -44.8950 H   0  0  0  0  0  0  0  0  0  0  0  0
   89.4090   92.7590  -47.8570 H   0  0  0  0  0  0  0  0  0  0  0  0
   89.0320   91.5220  -46.6190 H   0  0  0  0  0  0  0  0  0  0  0  0
   91.2790   90.5770  -45.3780 H   0  0  0  0  0  0  0  0  0  0  0  0
   92.8400   90.9720  -46.1220 H   0  0  0  0  0  0  0  0  0  0  0  0
   91.3930   92.3660  -44.0150 H   0  0  0  0  0  0  0  0  0  0  0  0
   92.9470   92.7720  -44.7650 H   0  0  0  0  0  0  0  0  0  0  0  0
   89.5590   91.5160  -49.2740 H   0  0  0  0  0  0  0  0  0  0  0  0
   90.8470   92.0940  -50.3350 H   0  0  0  0  0  0  0  0  0  0  0  0
   90.1170   89.8710  -51.0850 H   0  0  0  0  0  0  0  0  0  0  0  0
   91.7080   89.6210  -50.3440 H   0  0  0  0  0  0  0  0  0  0  0  0
   88.9590   88.9070  -49.4250 H   0  0  0  0  0  0  0  0  0  0  0  0
   90.1580   89.2630  -48.1410 H   0  0  0  0  0  0  0  0  0  0  0  0
   91.9090   95.3680  -41.1670 H   0  0  0  0  0  0  0  0  0  0  0  0
   92.1840   97.5810  -39.9920 H   0  0  0  0  0  0  0  0  0  0  0  0
  2 32  1  0  0  0  0
  2  1  1  0  0  0  0
  3  2  2  0  0  0  0
  4  3  1  0  0  0  0
  4  5  2  0  0  0  0
  5 31  1  0  0  0  0
  6  5  1  0  0  0  0
  7  6  2  0  0  0  0
  8  9  2  0  0  0  0
  8  7  1  0  0  0  0
  9  4  1  0  0  0  0
 10  9  1  0  0  0  0
 11 16  1  0  0  0  0
 11 10  2  0  0  0  0
 12 11  1  0  0  0  0
 13 12  2  0  0  0  0
 13 14  1  0  0  0  0
 14 15  2  0  0  0  0
 15 10  1  0  0  0  0
 15 37  1  0  0  0  0
 17  7  1  0  0  0  0
 17 22  1  0  0  0  0
 18 17  1  0  0  0  0
 18 40  1  0  0  0  0
 19 42  1  0  0  0  0
 19 18  1  0  0  0  0
 20 19  1  0  0  0  0
 20 21  1  0  0  0  0
 21 43  1  0  0  0  0
 21 22  1  0  0  0  0
 22 46  1  0  0  0  0
 22 45  1  0  0  0  0
 23 20  1  0  0  0  0
 24 23  2  0  0  0  0
 25 47  1  0  0  0  0
 25 23  1  0  0  0  0
 26 25  1  0  0  0  0
 26 27  1  0  0  0  0
 27 52  1  0  0  0  0
 28 30  1  0  0  0  0
 28 27  1  0  0  0  0
 29 28  2  0  0  0  0
 31 53  1  0  0  0  0
 31 32  2  0  0  0  0
 32 54  1  0  0  0  0
 33  3  1  0  0  0  0
 34 12  1  0  0  0  0
 35 13  1  0  0  0  0
 36 14  1  0  0  0  0
 38 17  1  0  0  0  0
 39 18  1  0  0  0  0
 41 19  1  0  0  0  0
 44 21  1  0  0  0  0
 48 25  1  0  0  0  0
 49 26  1  0  0  0  0
 50 26  1  0  0  0  0
 51 27  1  0  0  0  0
M  END
>  <Pose>
1

>  <Score>
-5.40

$$$$
