
 OpenBabel03212208273D

 50 53  0  0  0  0  0  0  0  0999 V2000
   86.4370   90.6280  -52.7100 B   0  0  0  0  0  0  0  0  0  0  0  0
   88.1510   90.9320  -51.9050 C   0  0  0  0  0  0  0  0  0  0  0  0
   88.4510   90.4820  -50.6450 C   0  0  0  0  0  0  0  0  0  0  0  0
   89.7020   90.7090  -50.0660 C   0  0  0  0  0  0  0  0  0  0  0  0
   90.6590   91.3940  -50.7630 C   0  0  0  0  0  0  0  0  0  0  0  0
   91.7810   91.4810  -49.9830 N   0  0  0  0  0  0  0  0  0  0  0  0
   91.5970   90.8810  -48.8040 C   0  0  0  0  0  0  0  0  0  0  0  0
   90.2680   90.3900  -48.8640 C   0  0  0  0  0  0  0  0  0  0  0  0
   92.4620   90.7140  -47.6530 C   0  0  0  0  0  0  0  0  0  0  0  0
   93.6140   90.1600  -47.8270 O   0  0  0  0  0  0  0  0  0  0  0  0
   92.1680   91.0990  -46.3450 N   0  0  0  0  0  0  0  0  0  0  0  0
   92.8590   90.6800  -45.1550 C   0  0  0  0  0  0  0  0  0  0  0  0
   92.2990   91.3510  -43.8940 C   0  0  0  0  0  0  0  0  0  0  0  0
   92.1800   92.7790  -44.1440 N   0  0  0  0  0  0  0  0  0  0  0  0
   91.6370   93.2520  -45.4190 C   0  0  0  0  0  0  0  0  0  0  0  0
   91.0290   92.0230  -46.0990 C   0  0  0  0  0  0  0  0  0  0  0  0
   92.5840   93.7270  -43.1780 C   0  0  0  0  0  0  0  0  0  0  0  0
   92.8390   93.2990  -42.0270 O   0  0  0  0  0  0  0  0  0  0  0  0
   92.6860   95.1290  -43.5520 C   0  0  0  0  0  0  0  0  0  0  0  0
   91.4230   95.8130  -43.7170 N   0  0  0  0  0  0  0  0  0  0  0  0
   91.3070   96.2680  -45.1050 C   0  0  0  0  0  0  0  0  0  0  0  0
   91.7160   97.6940  -45.2380 C   0  0  0  0  0  0  0  0  0  0  0  0
   92.7640   97.9890  -44.3700 O   0  0  0  0  0  0  0  0  0  0  0  0
   92.3380   97.9820  -43.0400 C   0  0  0  0  0  0  0  0  0  0  0  0
   91.2670   96.9400  -42.8150 C   0  0  0  0  0  0  0  0  0  0  0  0
   90.3660   91.8510  -52.0340 C   0  0  0  0  0  0  0  0  0  0  0  0
   89.1200   91.6220  -52.6010 C   0  0  0  0  0  0  0  0  0  0  0  0
   87.7130   89.9370  -50.0720 H   0  0  0  0  0  0  0  0  0  0  0  0
   92.6270   91.9590  -50.3250 H   0  0  0  0  0  0  0  0  0  0  0  0
   89.7850   89.8490  -48.0790 H   0  0  0  0  0  0  0  0  0  0  0  0
   93.9300   90.9970  -45.2760 H   0  0  0  0  0  0  0  0  0  0  0  0
   92.7280   89.6000  -44.9860 H   0  0  0  0  0  0  0  0  0  0  0  0
   91.3020   90.9480  -43.6420 H   0  0  0  0  0  0  0  0  0  0  0  0
   92.9930   91.1570  -43.0800 H   0  0  0  0  0  0  0  0  0  0  0  0
   90.8270   93.9980  -45.2580 H   0  0  0  0  0  0  0  0  0  0  0  0
   92.4020   93.6570  -46.0900 H   0  0  0  0  0  0  0  0  0  0  0  0
   90.2820   91.5360  -45.4570 H   0  0  0  0  0  0  0  0  0  0  0  0
   90.5680   92.3040  -47.0450 H   0  0  0  0  0  0  0  0  0  0  0  0
   93.1890   95.1720  -44.5580 H   0  0  0  0  0  0  0  0  0  0  0  0
   93.3270   95.7300  -42.8730 H   0  0  0  0  0  0  0  0  0  0  0  0
   91.9810   95.6460  -45.7420 H   0  0  0  0  0  0  0  0  0  0  0  0
   90.2630   96.0930  -45.4330 H   0  0  0  0  0  0  0  0  0  0  0  0
   92.1020   97.8410  -46.2720 H   0  0  0  0  0  0  0  0  0  0  0  0
   90.8800   98.4110  -45.0470 H   0  0  0  0  0  0  0  0  0  0  0  0
   93.2120   97.8840  -42.3930 H   0  0  0  0  0  0  0  0  0  0  0  0
   91.8840   98.9740  -42.8410 H   0  0  0  0  0  0  0  0  0  0  0  0
   91.2570   96.6380  -41.7780 H   0  0  0  0  0  0  0  0  0  0  0  0
   90.2930   97.4060  -43.0700 H   0  0  0  0  0  0  0  0  0  0  0  0
   91.1320   92.3990  -52.5890 H   0  0  0  0  0  0  0  0  0  0  0  0
   88.8840   91.9820  -53.6090 H   0  0  0  0  0  0  0  0  0  0  0  0
  1  2  1  0  0  0  0
  2  3  1  0  0  0  0
  3 28  1  0  0  0  0
  3  4  2  0  0  0  0
  4  8  1  0  0  0  0
  5  4  1  0  0  0  0
  5  6  1  0  0  0  0
  6  7  1  0  0  0  0
  7  9  1  0  0  0  0
  8  7  2  0  0  0  0
  8 30  1  0  0  0  0
  9 11  1  0  0  0  0
 10  9  2  0  0  0  0
 11 16  1  0  0  0  0
 11 12  1  0  0  0  0
 12 32  1  0  0  0  0
 12 13  1  0  0  0  0
 13 33  1  0  0  0  0
 13 34  1  0  0  0  0
 14 13  1  0  0  0  0
 14 17  1  0  0  0  0
 15 35  1  0  0  0  0
 15 14  1  0  0  0  0
 16 37  1  0  0  0  0
 16 15  1  0  0  0  0
 17 18  2  0  0  0  0
 19 17  1  0  0  0  0
 19 40  1  0  0  0  0
 20 19  1  0  0  0  0
 20 25  1  0  0  0  0
 21 20  1  0  0  0  0
 22 21  1  0  0  0  0
 22 44  1  0  0  0  0
 22 23  1  0  0  0  0
 23 24  1  0  0  0  0
 24 46  1  0  0  0  0
 24 25  1  0  0  0  0
 24 45  1  0  0  0  0
 25 47  1  0  0  0  0
 26  5  2  0  0  0  0
 27 26  1  0  0  0  0
 27  2  2  0  0  0  0
 29  6  1  0  0  0  0
 31 12  1  0  0  0  0
 36 15  1  0  0  0  0
 38 16  1  0  0  0  0
 39 19  1  0  0  0  0
 41 21  1  0  0  0  0
 42 21  1  0  0  0  0
 43 22  1  0  0  0  0
 48 25  1  0  0  0  0
 49 26  1  0  0  0  0
 50 27  1  0  0  0  0
M  END
>  <Pose>
1

>  <Score>
-4.25

$$$$
