
 OpenBabel03212208273D

 41 44  0  0  0  0  0  0  0  0999 V2000
   91.0100  101.3330  -43.8340 B   0  0  0  0  0  0  0  0  0  0  0  0
   91.3220   99.5540  -43.2360 C   0  0  0  0  0  0  0  0  0  0  0  0
   91.2760   98.4850  -44.1070 C   0  0  0  0  0  0  0  0  0  0  0  0
   91.5000   97.1890  -43.6890 C   0  0  0  0  0  0  0  0  0  0  0  0
   91.7770   96.9750  -42.3520 C   0  0  0  0  0  0  0  0  0  0  0  0
   91.9480   95.6470  -42.2290 N   0  0  0  0  0  0  0  0  0  0  0  0
   91.7930   95.0220  -43.4230 C   0  0  0  0  0  0  0  0  0  0  0  0
   91.5080   95.9870  -44.3640 C   0  0  0  0  0  0  0  0  0  0  0  0
   91.3090   95.6000  -45.6400 N   0  0  0  0  0  0  0  0  0  0  0  0
   91.3830   94.3090  -46.0150 C   0  0  0  0  0  0  0  0  0  0  0  0
   91.6590   93.3500  -45.1210 N   0  0  0  0  0  0  0  0  0  0  0  0
   91.8590   93.7140  -43.8460 C   0  0  0  0  0  0  0  0  0  0  0  0
   92.1190   92.8270  -42.9940 O   0  0  0  0  0  0  0  0  0  0  0  0
   91.7390   91.9350  -45.5240 C   0  0  0  0  0  0  0  0  0  0  0  0
   91.2050   91.7560  -46.8920 C   0  0  0  0  0  0  0  0  0  0  0  0
   92.0430   91.0950  -47.8250 N   0  0  0  0  0  0  0  0  0  0  0  0
   91.4940   90.9210  -49.1250 C   0  0  0  0  0  0  0  0  0  0  0  0
   90.8690   89.5710  -49.3370 C   0  0  0  0  0  0  0  0  0  0  0  0
   91.5980   88.5110  -48.6750 N   0  0  0  0  0  0  0  0  0  0  0  0
   92.9420   88.9370  -48.3220 C   0  0  0  0  0  0  0  0  0  0  0  0
   92.7870   90.0170  -47.2780 C   0  0  0  0  0  0  0  0  0  0  0  0
   91.8190   98.0550  -41.4900 C   0  0  0  0  0  0  0  0  0  0  0  0
   91.5960   99.3540  -41.8990 C   0  0  0  0  0  0  0  0  0  0  0  0
   91.0600   98.6420  -45.1570 H   0  0  0  0  0  0  0  0  0  0  0  0
   92.1700   95.1420  -41.3510 H   0  0  0  0  0  0  0  0  0  0  0  0
   91.2210   94.0150  -47.0510 H   0  0  0  0  0  0  0  0  0  0  0  0
   91.1210   91.3950  -44.7720 H   0  0  0  0  0  0  0  0  0  0  0  0
   92.7720   91.6380  -45.3670 H   0  0  0  0  0  0  0  0  0  0  0  0
   90.2280   91.2350  -46.8510 H   0  0  0  0  0  0  0  0  0  0  0  0
   90.9800   92.7790  -47.3130 H   0  0  0  0  0  0  0  0  0  0  0  0
   90.7600   91.7150  -49.3650 H   0  0  0  0  0  0  0  0  0  0  0  0
   92.3180   91.0090  -49.8640 H   0  0  0  0  0  0  0  0  0  0  0  0
   90.7800   89.3070  -50.4090 H   0  0  0  0  0  0  0  0  0  0  0  0
   89.8440   89.5730  -48.9170 H   0  0  0  0  0  0  0  0  0  0  0  0
   91.0920   88.1430  -47.8380 H   0  0  0  0  0  0  0  0  0  0  0  0
   93.4090   89.3640  -49.2200 H   0  0  0  0  0  0  0  0  0  0  0  0
   93.4560   88.0360  -47.9310 H   0  0  0  0  0  0  0  0  0  0  0  0
   93.8090   90.4190  -47.0310 H   0  0  0  0  0  0  0  0  0  0  0  0
   92.3500   89.5840  -46.3560 H   0  0  0  0  0  0  0  0  0  0  0  0
   92.0370   97.8850  -40.4370 H   0  0  0  0  0  0  0  0  0  0  0  0
   91.6310  100.2060  -41.2150 H   0  0  0  0  0  0  0  0  0  0  0  0
  1  2  1  0  0  0  0
  2 23  1  0  0  0  0
  3  4  1  0  0  0  0
  3  2  2  0  0  0  0
  4  5  2  0  0  0  0
  5  6  1  0  0  0  0
  5 22  1  0  0  0  0
  6 25  1  0  0  0  0
  7  6  1  0  0  0  0
  8  4  1  0  0  0  0
  8  7  2  0  0  0  0
  9  8  1  0  0  0  0
 10  9  2  0  0  0  0
 10 11  1  0  0  0  0
 11 12  1  0  0  0  0
 12  7  1  0  0  0  0
 12 13  2  0  0  0  0
 14 28  1  0  0  0  0
 14 11  1  0  0  0  0
 14 27  1  0  0  0  0
 15 29  1  0  0  0  0
 15 14  1  0  0  0  0
 16 21  1  0  0  0  0
 16 15  1  0  0  0  0
 17 16  1  0  0  0  0
 18 17  1  0  0  0  0
 18 34  1  0  0  0  0
 18 19  1  0  0  0  0
 19 20  1  0  0  0  0
 19 35  1  0  0  0  0
 20 37  1  0  0  0  0
 20 21  1  0  0  0  0
 21 38  1  0  0  0  0
 21 39  1  0  0  0  0
 22 40  1  0  0  0  0
 23 22  2  0  0  0  0
 23 41  1  0  0  0  0
 24  3  1  0  0  0  0
 26 10  1  0  0  0  0
 30 15  1  0  0  0  0
 31 17  1  0  0  0  0
 32 17  1  0  0  0  0
 33 18  1  0  0  0  0
 36 20  1  0  0  0  0
M  END
>  <Pose>
1

>  <Score>
-5.77

$$$$
