
 OpenBabel03212208273D

 55 57  0  0  0  0  0  0  0  0999 V2000
   91.4850   91.6980  -46.4550 B   0  0  0  0  0  0  0  0  0  0  0  0
   91.5990   92.9660  -45.0660 C   0  0  0  0  0  0  0  0  0  0  0  0
   91.3700   94.3120  -45.2990 C   0  0  0  0  0  0  0  0  0  0  0  0
   91.4630   95.2520  -44.3140 C   0  0  0  0  0  0  0  0  0  0  0  0
   91.2180   96.5960  -44.3450 N   0  0  0  0  0  0  0  0  0  0  0  0
   91.3780   97.0580  -43.0930 C   0  0  0  0  0  0  0  0  0  0  0  0
   91.7650   95.9840  -42.2470 C   0  0  0  0  0  0  0  0  0  0  0  0
   91.7930   94.8790  -43.0580 C   0  0  0  0  0  0  0  0  0  0  0  0
   92.0270   93.5270  -42.7970 C   0  0  0  0  0  0  0  0  0  0  0  0
   91.9340   92.5600  -43.7880 C   0  0  0  0  0  0  0  0  0  0  0  0
   92.1540   91.1910  -43.5540 O   0  0  0  0  0  0  0  0  0  0  0  0
   92.2300   96.0510  -40.8550 C   0  0  0  0  0  0  0  0  0  0  0  0
   92.1190   95.0060  -40.1590 O   0  0  0  0  0  0  0  0  0  0  0  0
   92.7800   97.1350  -40.2560 O   0  0  0  0  0  0  0  0  0  0  0  0
   92.9010   98.4510  -40.6600 C   0  0  0  0  0  0  0  0  0  0  0  0
   93.2110   99.4330  -39.5370 C   0  0  0  0  0  0  0  0  0  0  0  0
   91.1460   98.4000  -42.5570 C   0  0  0  0  0  0  0  0  0  0  0  0
   91.6000   99.5320  -43.3030 N   0  0  0  0  0  4  0  0  0  0  0  0
   92.6640   99.6770  -44.1300 C   0  0  0  0  0  0  0  0  0  0  0  0
   93.1720  101.1320  -43.9920 C   0  0  0  0  0  0  0  0  0  0  0  0
   91.8850  101.8220  -43.5490 C   0  0  0  0  0  0  0  0  0  0  0  0
   91.4010  100.7810  -42.5490 C   0  0  0  0  0  0  0  0  0  0  0  0
   91.1430   97.3280  -45.6240 C   0  0  0  0  0  0  0  0  0  0  0  0
   89.6460   97.3160  -46.0100 C   0  0  0  0  0  0  0  0  0  0  0  0
   89.3000   96.4230  -46.9810 C   0  0  0  0  0  0  0  0  0  0  0  0
   87.9530   96.3460  -47.3750 C   0  0  0  0  0  0  0  0  0  0  0  0
   86.9780   97.1210  -46.8240 C   0  0  0  0  0  0  0  0  0  0  0  0
   87.3810   98.0160  -45.8320 C   0  0  0  0  0  0  0  0  0  0  0  0
   88.7200   98.1060  -45.4330 C   0  0  0  0  0  0  0  0  0  0  0  0
   91.0930   94.6460  -46.2970 H   0  0  0  0  0  0  0  0  0  0  0  0
   92.2750   93.2070  -41.7800 H   0  0  0  0  0  0  0  0  0  0  0  0
   91.3760   90.6120  -43.2080 H   0  0  0  0  0  0  0  0  0  0  0  0
   93.7870   98.5060  -41.3610 H   0  0  0  0  0  0  0  0  0  0  0  0
   92.0220   98.8160  -41.2000 H   0  0  0  0  0  0  0  0  0  0  0  0
   93.6110  100.3800  -39.9600 H   0  0  0  0  0  0  0  0  0  0  0  0
   92.3120   99.7030  -38.9510 H   0  0  0  0  0  0  0  0  0  0  0  0
   93.9660   99.0200  -38.8190 H   0  0  0  0  0  0  0  0  0  0  0  0
   90.0740   98.5480  -42.3740 H   0  0  0  0  0  0  0  0  0  0  0  0
   91.7050   98.4760  -41.5480 H   0  0  0  0  0  0  0  0  0  0  0  0
   90.6570   99.6610  -44.0010 H   0  0  0  0  0  0  0  0  0  0  0  0
   92.3700   99.6630  -45.2660 H   0  0  0  0  0  0  0  0  0  0  0  0
   93.5400   99.0400  -44.0770 H   0  0  0  0  0  0  0  0  0  0  0  0
   93.5730  101.4950  -44.9310 H   0  0  0  0  0  0  0  0  0  0  0  0
   93.8410  101.1500  -43.1480 H   0  0  0  0  0  0  0  0  0  0  0  0
   91.2400  101.8710  -44.4400 H   0  0  0  0  0  0  0  0  0  0  0  0
   92.0760  102.7950  -43.1230 H   0  0  0  0  0  0  0  0  0  0  0  0
   92.0830  100.7830  -41.6910 H   0  0  0  0  0  0  0  0  0  0  0  0
   90.3530  100.9300  -42.2500 H   0  0  0  0  0  0  0  0  0  0  0  0
   91.6770   96.9470  -46.4490 H   0  0  0  0  0  0  0  0  0  0  0  0
   91.3450   98.3870  -45.4170 H   0  0  0  0  0  0  0  0  0  0  0  0
   90.0200   95.7710  -47.4540 H   0  0  0  0  0  0  0  0  0  0  0  0
   87.6470   95.6480  -48.1510 H   0  0  0  0  0  0  0  0  0  0  0  0
   85.9380   97.0500  -47.1350 H   0  0  0  0  0  0  0  0  0  0  0  0
   86.6310   98.6230  -45.3720 H   0  0  0  0  0  0  0  0  0  0  0  0
   88.9780   98.8050  -44.6780 H   0  0  0  0  0  0  0  0  0  0  0  0
  1  2  1  0  0  0  0
  2 10  1  0  0  0  0
  3  2  2  0  0  0  0
  3  4  1  0  0  0  0
  4  8  2  0  0  0  0
  5  4  1  0  0  0  0
  5  6  1  0  0  0  0
  6 17  1  0  0  0  0
  6  7  2  0  0  0  0
  7 12  1  0  0  0  0
  8  9  1  0  0  0  0
  8  7  1  0  0  0  0
  9 31  1  0  0  0  0
 10 11  1  0  0  0  0
 10  9  2  0  0  0  0
 11 32  1  0  0  0  0
 12 14  1  0  0  0  0
 12 13  2  0  0  0  0
 15 14  1  0  0  0  0
 16 36  1  0  0  0  0
 16 37  1  0  0  0  0
 17 38  1  0  0  0  0
 17 39  1  0  0  0  0
 18 17  1  0  0  0  0
 18 22  1  0  0  0  0
 19 42  1  0  0  0  0
 19 20  1  0  0  0  0
 19 18  1  0  0  0  0
 20 21  1  0  0  0  0
 20 44  1  0  0  0  0
 21 46  1  0  0  0  0
 21 22  1  0  0  0  0
 22 48  1  0  0  0  0
 22 47  1  0  0  0  0
 23 50  1  0  0  0  0
 23  5  1  0  0  0  0
 24 23  1  0  0  0  0
 24 29  1  0  0  0  0
 25 24  2  0  0  0  0
 26 25  1  0  0  0  0
 26 27  2  0  0  0  0
 27 28  1  0  0  0  0
 28 29  2  0  0  0  0
 28 54  1  0  0  0  0
 29 55  1  0  0  0  0
 30  3  1  0  0  0  0
 33 15  1  0  0  0  0
 34 15  1  0  0  0  0
 35 16  1  0  0  0  0
 40 18  1  0  0  0  0
 41 19  1  0  0  0  0
 43 20  1  0  0  0  0
 45 21  1  0  0  0  0
 49 23  1  0  0  0  0
 51 25  1  0  0  0  0
 52 26  1  0  0  0  0
 53 27  1  0  0  0  0
M  END
>  <Pose>
1

>  <Score>
-4.81

$$$$
