
 OpenBabel03212208273D

 43 46  0  0  1  0  0  0  0  0999 V2000
   87.8290  102.5100  -43.0940 B   0  0  0  0  0  0  0  0  0  0  0  0
   89.1200  101.1000  -43.2070 C   0  0  0  0  0  0  0  0  0  0  0  0
   90.0830  101.0900  -44.2140 C   0  0  0  0  0  0  0  0  0  0  0  0
   90.9750  100.0420  -44.2290 C   0  0  0  0  0  0  0  0  0  0  0  0
   92.0020   99.7280  -45.0380 N   0  0  0  0  0  0  0  0  0  0  0  0
   92.5630   98.5940  -44.6290 N   0  0  0  0  0  0  0  0  0  0  0  0
   91.9420   98.1130  -43.5430 C   0  0  0  0  0  0  0  0  0  0  0  0
   90.9200   99.0490  -43.2900 C   0  0  0  0  0  0  0  0  0  0  0  0
   89.9800   99.0490  -42.2970 C   0  0  0  0  0  0  0  0  0  0  0  0
   89.0790  100.0840  -42.2620 C   0  0  0  0  0  0  0  0  0  0  0  0
   92.1910   96.9520  -42.7880 N   0  0  0  0  0  0  0  0  0  0  0  0
   92.2930   95.6200  -43.4240 C   0  0  0  0  0  0  0  0  0  0  0  0
   91.5940   94.7120  -42.4240 C   0  0  2  0  0  0  0  0  0  0  0  0
   91.9220   95.3610  -41.0970 C   0  0  0  0  0  0  0  0  0  0  0  0
   92.3640   96.7490  -41.3870 C   0  0  0  0  0  0  0  0  0  0  0  0
   92.8030   97.5830  -40.5840 O   0  0  0  0  0  0  0  0  0  0  0  0
   92.1940   93.3820  -42.6180 C   0  0  0  0  0  0  0  0  0  0  0  0
   93.1640   92.9990  -41.9240 O   0  0  0  0  0  0  0  0  0  0  0  0
   91.6390   92.5370  -43.6180 N   0  0  0  0  0  0  0  0  0  0  0  0
   92.0770   92.6000  -44.9950 C   0  0  0  0  0  0  0  0  0  0  0  0
   91.2140   91.7680  -45.9200 C   0  0  0  0  0  0  0  0  0  0  0  0
   91.9650   91.3780  -47.1290 C   0  0  0  0  0  0  0  0  0  0  0  0
   91.7520   91.9070  -48.3440 N   0  0  0  0  0  0  0  0  0  0  0  0
   92.5830   91.3620  -49.2330 C   0  0  0  0  0  0  0  0  0  0  0  0
   93.3540   90.4550  -48.5740 N   0  0  0  0  0  0  0  0  0  0  0  0
   92.9690   90.4750  -47.2940 C   0  0  0  0  0  0  0  0  0  0  0  0
   90.0640  101.9030  -44.9170 H   0  0  0  0  0  0  0  0  0  0  0  0
   93.3770   98.1670  -45.1130 H   0  0  0  0  0  0  0  0  0  0  0  0
   89.9760   98.2390  -41.5700 H   0  0  0  0  0  0  0  0  0  0  0  0
   88.3250  100.1150  -41.4910 H   0  0  0  0  0  0  0  0  0  0  0  0
   91.7820   95.6360  -44.3810 H   0  0  0  0  0  0  0  0  0  0  0  0
   93.3580   95.4000  -43.5520 H   0  0  0  0  0  0  0  0  0  0  0  0
   90.5170   94.6540  -42.6080 H   0  0  0  0  0  0  0  0  0  0  0  0
   90.9300   95.4880  -40.5640 H   0  0  0  0  0  0  0  0  0  0  0  0
   92.5740   94.7920  -40.4460 H   0  0  0  0  0  0  0  0  0  0  0  0
   90.8990   91.8650  -43.3350 H   0  0  0  0  0  0  0  0  0  0  0  0
   92.0270   93.6420  -45.3390 H   0  0  0  0  0  0  0  0  0  0  0  0
   93.1320   92.2650  -45.0910 H   0  0  0  0  0  0  0  0  0  0  0  0
   90.9520   90.8440  -45.3680 H   0  0  0  0  0  0  0  0  0  0  0  0
   90.2360   92.2550  -46.1430 H   0  0  0  0  0  0  0  0  0  0  0  0
   92.6330   91.5990  -50.2820 H   0  0  0  0  0  0  0  0  0  0  0  0
   94.0890   89.8890  -49.0560 H   0  0  0  0  0  0  0  0  0  0  0  0
   93.4100   89.8570  -46.5320 H   0  0  0  0  0  0  0  0  0  0  0  0
  2  1  1  0  0  0  0
  2 10  1  0  0  0  0
  3  2  2  0  0  0  0
  4  3  1  0  0  0  0
  4  8  1  0  0  0  0
  5  6  1  0  0  0  0
  5  4  2  0  0  0  0
  6  7  1  0  0  0  0
  7  8  2  0  0  0  0
  7 11  1  0  0  0  0
  8  9  1  0  0  0  0
  9 10  2  0  0  0  0
  9 29  1  0  0  0  0
 10 30  1  0  0  0  0
 11 15  1  0  0  0  0
 12 11  1  0  0  0  0
 12 13  1  0  0  0  0
 13 33  1  6  0  0  0
 13 14  1  0  0  0  0
 14 34  1  0  0  0  0
 14 35  1  0  0  0  0
 15 14  1  0  0  0  0
 15 16  2  0  0  0  0
 17 13  1  0  0  0  0
 17 18  2  0  0  0  0
 19 36  1  0  0  0  0
 19 17  1  0  0  0  0
 20 19  1  0  0  0  0
 21 39  1  0  0  0  0
 21 20  1  0  0  0  0
 22 21  1  0  0  0  0
 23 22  1  0  0  0  0
 24 25  1  0  0  0  0
 24 23  2  0  0  0  0
 25 26  1  0  0  0  0
 26 22  2  0  0  0  0
 26 43  1  0  0  0  0
 27  3  1  0  0  0  0
 28  6  1  0  0  0  0
 31 12  1  0  0  0  0
 32 12  1  0  0  0  0
 37 20  1  0  0  0  0
 38 20  1  0  0  0  0
 40 21  1  0  0  0  0
 41 24  1  0  0  0  0
 42 25  1  0  0  0  0
M  END
>  <Pose>
1

>  <Score>
-7.18

$$$$
