
 OpenBabel03212208273D

 58 61  0  0  0  0  0  0  0  0999 V2000
   91.9290   95.0800  -41.1380 B   0  0  0  0  0  0  0  0  0  0  0  0
   91.9450   96.9150  -41.7170 C   0  0  0  0  0  0  0  0  0  0  0  0
   92.5360   97.9750  -41.0850 C   0  0  0  0  0  0  0  0  0  0  0  0
   92.3020   99.0590  -41.8320 N   0  0  0  0  0  0  0  0  0  0  0  0
   91.6030   98.7120  -42.8790 N   0  0  0  0  0  0  0  0  0  0  0  0
   91.3320   97.3740  -42.8880 C   0  0  0  0  0  0  0  0  0  0  0  0
   90.5960   96.6020  -43.8560 C   0  0  0  0  0  0  0  0  0  0  0  0
   89.4310   96.2130  -43.4840 O   0  0  0  0  0  0  0  0  0  0  0  0
   91.0130   96.2490  -45.1120 N   0  0  0  0  0  0  0  0  0  0  0  0
   92.3690   96.2040  -45.5640 C   0  0  0  0  0  0  0  0  0  0  0  0
   92.7730   94.7750  -45.7270 C   0  0  0  0  0  0  0  0  0  0  0  0
   91.6270   93.9250  -46.0150 N   0  0  0  0  0  0  0  0  0  0  0  0
   90.4050   94.4140  -46.5600 C   0  0  0  0  0  0  0  0  0  0  0  0
   90.0540   95.8440  -46.1610 C   0  0  0  0  0  0  0  0  0  0  0  0
   91.8230   92.5530  -45.6390 C   0  0  0  0  0  0  0  0  0  0  0  0
   91.6540   92.2620  -44.3820 O   0  0  0  0  0  0  0  0  0  0  0  0
   92.1800   91.5060  -46.5320 C   0  0  0  0  0  0  0  0  0  0  0  0
   93.4650   91.3440  -47.0340 N   0  0  0  0  0  0  0  0  0  0  0  0
   93.4880   90.3540  -47.8660 N   0  0  0  0  0  0  0  0  0  0  0  0
   92.2870   89.7960  -47.9880 C   0  0  0  0  0  0  0  0  0  0  0  0
   91.4510   90.5400  -47.1310 C   0  0  0  0  0  0  0  0  0  0  0  0
   91.8710   88.6590  -48.7890 C   0  0  0  0  0  0  0  0  0  0  0  0
   92.7150   87.6990  -48.8950 O   0  0  0  0  0  0  0  0  0  0  0  0
   90.6530   88.5330  -49.4390 N   0  0  0  0  0  0  0  0  0  0  0  0
   89.9620   87.2420  -49.3630 C   0  0  0  0  0  0  0  0  0  0  0  0
   89.6680   86.8480  -50.7950 C   0  0  0  0  0  0  0  0  0  0  0  0
   88.7350   87.7940  -51.2570 O   0  0  0  0  0  0  0  0  0  0  0  0
   89.3490   89.0010  -51.4440 C   0  0  0  0  0  0  0  0  0  0  0  0
   90.0230   89.5650  -50.2010 C   0  0  0  0  0  0  0  0  0  0  0  0
   94.6100   92.1500  -46.6850 C   0  0  0  0  0  0  0  0  0  0  0  0
   92.7890  100.3780  -41.4460 C   0  0  0  0  0  0  0  0  0  0  0  0
   91.8300  101.1180  -40.5520 C   0  0  0  0  0  0  0  0  0  0  0  0
   93.0870   97.9200  -40.1460 H   0  0  0  0  0  0  0  0  0  0  0  0
   92.4060   96.6540  -46.6040 H   0  0  0  0  0  0  0  0  0  0  0  0
   93.1110   96.6940  -44.9130 H   0  0  0  0  0  0  0  0  0  0  0  0
   93.2370   94.3670  -44.7850 H   0  0  0  0  0  0  0  0  0  0  0  0
   93.5130   94.7350  -46.5630 H   0  0  0  0  0  0  0  0  0  0  0  0
   89.5920   93.8230  -46.0180 H   0  0  0  0  0  0  0  0  0  0  0  0
   90.2490   94.2830  -47.6270 H   0  0  0  0  0  0  0  0  0  0  0  0
   89.0360   95.9820  -45.8210 H   0  0  0  0  0  0  0  0  0  0  0  0
   90.2640   96.4830  -47.0290 H   0  0  0  0  0  0  0  0  0  0  0  0
   90.4060   90.3330  -47.0450 H   0  0  0  0  0  0  0  0  0  0  0  0
   89.0260   87.4380  -48.8000 H   0  0  0  0  0  0  0  0  0  0  0  0
   90.5600   86.4700  -48.8730 H   0  0  0  0  0  0  0  0  0  0  0  0
   90.5880   86.9430  -51.3900 H   0  0  0  0  0  0  0  0  0  0  0  0
   89.2170   85.8310  -50.8320 H   0  0  0  0  0  0  0  0  0  0  0  0
   90.1290   88.8960  -52.2290 H   0  0  0  0  0  0  0  0  0  0  0  0
   88.6170   89.7280  -51.8380 H   0  0  0  0  0  0  0  0  0  0  0  0
   90.7910   90.2720  -50.5700 H   0  0  0  0  0  0  0  0  0  0  0  0
   89.2680   90.0800  -49.5940 H   0  0  0  0  0  0  0  0  0  0  0  0
   94.5970   93.1280  -47.1690 H   0  0  0  0  0  0  0  0  0  0  0  0
   94.6990   92.2420  -45.5770 H   0  0  0  0  0  0  0  0  0  0  0  0
   95.5310   91.6290  -47.0100 H   0  0  0  0  0  0  0  0  0  0  0  0
   93.7770  100.3060  -40.9360 H   0  0  0  0  0  0  0  0  0  0  0  0
   92.9600  101.0030  -42.3540 H   0  0  0  0  0  0  0  0  0  0  0  0
   91.3440  100.4180  -39.8370 H   0  0  0  0  0  0  0  0  0  0  0  0
   92.4190  101.8380  -39.9460 H   0  0  0  0  0  0  0  0  0  0  0  0
   91.1130  101.6930  -41.1660 H   0  0  0  0  0  0  0  0  0  0  0  0
  2  1  1  0  0  0  0
  2  3  2  0  0  0  0
  3 33  1  0  0  0  0
  4 31  1  0  0  0  0
  4  3  1  0  0  0  0
  5  4  1  0  0  0  0
  6  5  2  0  0  0  0
  6  2  1  0  0  0  0
  7  8  2  0  0  0  0
  7  6  1  0  0  0  0
  9  7  1  0  0  0  0
 10  9  1  0  0  0  0
 10 35  1  0  0  0  0
 11 10  1  0  0  0  0
 11 36  1  0  0  0  0
 12 11  1  0  0  0  0
 12 15  1  0  0  0  0
 13 14  1  0  0  0  0
 13 38  1  0  0  0  0
 13 12  1  0  0  0  0
 14 40  1  0  0  0  0
 14  9  1  0  0  0  0
 15 16  2  0  0  0  0
 17 15  1  0  0  0  0
 18 30  1  0  0  0  0
 18 17  1  0  0  0  0
 19 18  1  0  0  0  0
 20 19  2  0  0  0  0
 20 21  1  0  0  0  0
 21 42  1  0  0  0  0
 21 17  2  0  0  0  0
 22 20  1  0  0  0  0
 23 22  2  0  0  0  0
 24 25  1  0  0  0  0
 24 22  1  0  0  0  0
 25 44  1  0  0  0  0
 25 43  1  0  0  0  0
 26 25  1  0  0  0  0
 27 26  1  0  0  0  0
 28 27  1  0  0  0  0
 28 29  1  0  0  0  0
 29 50  1  0  0  0  0
 29 24  1  0  0  0  0
 30 52  1  0  0  0  0
 31 54  1  0  0  0  0
 31 32  1  0  0  0  0
 32 57  1  0  0  0  0
 32 56  1  0  0  0  0
 34 10  1  0  0  0  0
 37 11  1  0  0  0  0
 39 13  1  0  0  0  0
 41 14  1  0  0  0  0
 45 26  1  0  0  0  0
 46 26  1  0  0  0  0
 47 28  1  0  0  0  0
 48 28  1  0  0  0  0
 49 29  1  0  0  0  0
 51 30  1  0  0  0  0
 53 30  1  0  0  0  0
 55 31  1  0  0  0  0
 58 32  1  0  0  0  0
M  END
>  <Pose>
1

>  <Score>
-5.62

$$$$
