
 OpenBabel03212208273D

 47 50  0  0  0  0  0  0  0  0999 V2000
   84.3970   98.2150  -43.3430 B   0  0  0  0  0  0  0  0  0  0  0  0
   85.3870   97.4260  -44.7720 C   0  0  0  0  0  0  0  0  0  0  0  0
   86.3780   98.0060  -45.5300 C   0  0  0  0  0  0  0  0  0  0  0  0
   86.8030   97.1070  -46.4120 N   0  0  0  0  0  0  0  0  0  0  0  0
   86.1020   95.9930  -46.2170 N   0  0  0  0  0  0  0  0  0  0  0  0
   85.2180   96.1360  -45.2190 C   0  0  0  0  0  0  0  0  0  0  0  0
   87.8540   97.2810  -47.4320 C   0  0  0  0  0  0  0  0  0  0  0  0
   88.7940   96.1380  -47.2780 C   0  0  0  0  0  0  0  0  0  0  0  0
   88.8990   95.3320  -48.2570 O   0  0  0  0  0  0  0  0  0  0  0  0
   89.5200   95.9660  -46.1190 N   0  0  0  0  0  0  0  0  0  0  0  0
   90.7450   96.6200  -45.6940 C   0  0  0  0  0  0  0  0  0  0  0  0
   91.2140   96.1790  -44.3630 C   0  0  0  0  0  0  0  0  0  0  0  0
   91.4220   94.8590  -44.0540 C   0  0  0  0  0  0  0  0  0  0  0  0
   91.9010   94.4790  -42.8140 C   0  0  0  0  0  0  0  0  0  0  0  0
   92.1860   95.4170  -41.8470 C   0  0  0  0  0  0  0  0  0  0  0  0
   91.9790   96.7760  -42.1510 C   0  0  0  0  0  0  0  0  0  0  0  0
   91.5040   97.1520  -43.3790 C   0  0  0  0  0  0  0  0  0  0  0  0
   91.2830   98.5690  -43.6800 C   0  0  0  0  0  0  0  0  0  0  0  0
   92.0060   99.5630  -42.8620 C   0  0  0  0  0  0  0  0  0  0  0  0
   92.2000   99.1580  -41.4750 N   0  0  0  0  0  0  0  0  0  0  0  0
   92.3410   97.7800  -41.1560 C   0  0  0  0  0  0  0  0  0  0  0  0
   92.7790   97.4540  -40.0110 O   0  0  0  0  0  0  0  0  0  0  0  0
   92.2560  100.2140  -40.4900 C   0  0  0  0  0  0  0  0  0  0  0  0
   92.6640   95.0740  -40.5950 O   0  0  0  0  0  0  0  0  0  0  0  0
   91.7840   94.7730  -39.5330 C   0  0  0  0  0  0  0  0  0  0  0  0
   91.9890   93.1010  -42.8330 O   0  0  0  0  0  0  0  0  0  0  0  0
   91.4030   92.5840  -44.0010 C   0  0  0  0  0  0  0  0  0  0  0  0
   91.2130   93.7110  -44.8530 O   0  0  0  0  0  0  0  0  0  0  0  0
   86.7200   99.0340  -45.3940 H   0  0  0  0  0  0  0  0  0  0  0  0
   84.5070   95.4360  -44.8130 H   0  0  0  0  0  0  0  0  0  0  0  0
   88.3690   98.2490  -47.2110 H   0  0  0  0  0  0  0  0  0  0  0  0
   87.4460   97.3250  -48.4410 H   0  0  0  0  0  0  0  0  0  0  0  0
   89.1630   95.2520  -45.4080 H   0  0  0  0  0  0  0  0  0  0  0  0
   90.3890   97.6980  -45.5620 H   0  0  0  0  0  0  0  0  0  0  0  0
   91.5270   96.6430  -46.4550 H   0  0  0  0  0  0  0  0  0  0  0  0
   90.2080   98.8410  -43.7630 H   0  0  0  0  0  0  0  0  0  0  0  0
   91.6650   98.7190  -44.7410 H   0  0  0  0  0  0  0  0  0  0  0  0
   93.0410   99.7370  -43.2810 H   0  0  0  0  0  0  0  0  0  0  0  0
   91.4670  100.5470  -42.9270 H   0  0  0  0  0  0  0  0  0  0  0  0
   92.7550  101.1030  -40.9450 H   0  0  0  0  0  0  0  0  0  0  0  0
   91.2170  100.4950  -40.2420 H   0  0  0  0  0  0  0  0  0  0  0  0
   92.7520   99.9050  -39.5500 H   0  0  0  0  0  0  0  0  0  0  0  0
   90.8660   95.4050  -39.6860 H   0  0  0  0  0  0  0  0  0  0  0  0
   92.2110   95.0340  -38.5440 H   0  0  0  0  0  0  0  0  0  0  0  0
   91.4960   93.6880  -39.5210 H   0  0  0  0  0  0  0  0  0  0  0  0
   90.3990   92.1360  -43.8240 H   0  0  0  0  0  0  0  0  0  0  0  0
   92.0990   91.9060  -44.5410 H   0  0  0  0  0  0  0  0  0  0  0  0
  2  1  1  0  0  0  0
  3 29  1  0  0  0  0
  3  2  2  0  0  0  0
  4  5  1  0  0  0  0
  4  3  1  0  0  0  0
  5  6  2  0  0  0  0
  6 30  1  0  0  0  0
  6  2  1  0  0  0  0
  7  8  1  0  0  0  0
  7 31  1  0  0  0  0
  7  4  1  0  0  0  0
  8 10  1  0  0  0  0
  9  8  2  0  0  0  0
 10 11  1  0  0  0  0
 10 33  1  0  0  0  0
 11 34  1  0  0  0  0
 11 12  1  0  0  0  0
 12 13  2  0  0  0  0
 12 17  1  0  0  0  0
 13 14  1  0  0  0  0
 14 15  2  0  0  0  0
 15 24  1  0  0  0  0
 16 15  1  0  0  0  0
 16 21  1  0  0  0  0
 17 16  2  0  0  0  0
 18 17  1  0  0  0  0
 18 19  1  0  0  0  0
 19 20  1  0  0  0  0
 20 21  1  0  0  0  0
 20 23  1  0  0  0  0
 21 22  2  0  0  0  0
 23 41  1  0  0  0  0
 23 42  1  0  0  0  0
 24 25  1  0  0  0  0
 25 45  1  0  0  0  0
 25 44  1  0  0  0  0
 26 14  1  0  0  0  0
 27 46  1  0  0  0  0
 27 26  1  0  0  0  0
 28 13  1  0  0  0  0
 28 27  1  0  0  0  0
 32  7  1  0  0  0  0
 35 11  1  0  0  0  0
 36 18  1  0  0  0  0
 37 18  1  0  0  0  0
 38 19  1  0  0  0  0
 39 19  1  0  0  0  0
 40 23  1  0  0  0  0
 43 25  1  0  0  0  0
 47 27  1  0  0  0  0
M  END
>  <Pose>
1

>  <Score>
-5.41

$$$$
