
 OpenBabel03212208273D

 33 37  0  0  0  0  0  0  0  0999 V2000
   88.8460   85.9790  -48.8640 B   0  0  0  0  0  0  0  0  0  0  0  0
   90.5750   86.7330  -48.7290 C   0  0  0  0  0  0  0  0  0  0  0  0
   90.9050   88.0680  -48.8530 C   0  0  0  0  0  0  0  0  0  0  0  0
   92.2330   88.1890  -48.6900 N   0  0  0  0  0  0  0  0  0  0  0  0
   92.7380   86.9880  -48.4720 N   0  0  0  0  0  0  0  0  0  0  0  0
   91.7530   86.0620  -48.4860 C   0  0  0  0  0  0  0  0  0  0  0  0
   92.9920   89.4210  -48.7440 C   0  0  0  0  0  0  0  0  0  0  0  0
   92.2800   90.5190  -48.0840 N   0  0  0  0  0  0  0  0  0  0  0  0
   92.5850   91.0260  -46.9030 N   0  0  0  0  0  0  0  0  0  0  0  0
   91.7440   92.0220  -46.5720 C   0  0  0  0  0  0  0  0  0  0  0  0
   90.8650   92.1260  -47.6290 C   0  0  0  0  0  0  0  0  0  0  0  0
   91.2130   91.1700  -48.5790 C   0  0  0  0  0  0  0  0  0  0  0  0
   91.7410   92.8360  -45.3580 C   0  0  0  0  0  0  0  0  0  0  0  0
   91.9560   92.3990  -44.1070 N   0  0  0  0  0  0  0  0  0  0  0  0
   91.8790   93.4140  -43.2460 N   0  0  0  0  0  0  0  0  0  0  0  0
   91.6060   94.5390  -43.9660 C   0  0  0  0  0  0  0  0  0  0  0  0
   91.5270   94.1580  -45.2550 N   0  0  0  0  0  0  0  0  0  0  0  0
   91.4770   95.7340  -43.2900 C   0  0  0  0  0  0  0  0  0  0  0  0
   91.6140   95.8330  -41.9160 C   0  0  0  0  0  0  0  0  0  0  0  0
   91.4360   97.1120  -41.5470 N   0  0  0  0  0  0  0  0  0  0  0  0
   91.1940   97.8060  -42.6470 N   0  0  0  0  0  0  0  0  0  0  0  0
   91.2100   97.0030  -43.7310 C   0  0  0  0  0  0  0  0  0  0  0  0
   91.8830   94.6990  -41.2500 N   0  0  0  0  0  0  0  0  0  0  0  0
   92.0070   93.5370  -41.9130 C   0  0  0  0  0  0  0  0  0  0  0  0
   90.1950   88.8430  -49.0450 H   0  0  0  0  0  0  0  0  0  0  0  0
   91.8430   85.0040  -48.3410 H   0  0  0  0  0  0  0  0  0  0  0  0
   93.2110   89.7340  -49.7900 H   0  0  0  0  0  0  0  0  0  0  0  0
   94.0030   89.2890  -48.2610 H   0  0  0  0  0  0  0  0  0  0  0  0
   90.0560   92.8350  -47.6840 H   0  0  0  0  0  0  0  0  0  0  0  0
   90.7410   90.9710  -49.5300 H   0  0  0  0  0  0  0  0  0  0  0  0
   91.4750   97.5120  -40.5850 H   0  0  0  0  0  0  0  0  0  0  0  0
   91.0470   97.2720  -44.7780 H   0  0  0  0  0  0  0  0  0  0  0  0
   92.2240   92.6460  -41.3400 H   0  0  0  0  0  0  0  0  0  0  0  0
  1  2  1  0  0  0  0
  2  6  1  0  0  0  0
  3  2  2  0  0  0  0
  3  4  1  0  0  0  0
  4  5  1  0  0  0  0
  6  5  2  0  0  0  0
  6 26  1  0  0  0  0
  7  4  1  0  0  0  0
  7 28  1  0  0  0  0
  7  8  1  0  0  0  0
  8  9  1  0  0  0  0
  9 10  2  0  0  0  0
 10 13  1  0  0  0  0
 11 10  1  0  0  0  0
 12  8  1  0  0  0  0
 12 11  2  0  0  0  0
 13 17  1  0  0  0  0
 13 14  2  0  0  0  0
 14 15  1  0  0  0  0
 15 24  1  0  0  0  0
 16 18  1  0  0  0  0
 16 15  1  0  0  0  0
 17 16  2  0  0  0  0
 18 19  2  0  0  0  0
 19 20  1  0  0  0  0
 19 23  1  0  0  0  0
 20 31  1  0  0  0  0
 21 20  1  0  0  0  0
 22 18  1  0  0  0  0
 22 21  2  0  0  0  0
 24 33  1  0  0  0  0
 24 23  2  0  0  0  0
 25  3  1  0  0  0  0
 27  7  1  0  0  0  0
 29 11  1  0  0  0  0
 30 12  1  0  0  0  0
 32 22  1  0  0  0  0
M  END
>  <Pose>
1

>  <Score>
-8.09

$$$$
