
 OpenBabel03212208273D

 42 45  0  0  0  0  0  0  0  0999 V2000
   90.5880   87.8950  -49.1620 B   0  0  0  0  0  0  0  0  0  0  0  0
   91.5020   89.3480  -48.2890 C   0  0  0  0  0  0  0  0  0  0  0  0
   90.9390   90.3700  -47.5560 C   0  0  0  0  0  0  0  0  0  0  0  0
   91.9100   91.1870  -47.1110 N   0  0  0  0  0  0  0  0  0  0  0  0
   93.0480   90.6910  -47.5500 N   0  0  0  0  0  0  0  0  0  0  0  0
   92.8580   89.5840  -48.2650 C   0  0  0  0  0  0  0  0  0  0  0  0
   91.7880   92.3600  -46.3210 C   0  0  0  0  0  0  0  0  0  0  0  0
   91.4630   93.5630  -46.8970 C   0  0  0  0  0  0  0  0  0  0  0  0
   91.3390   94.7100  -46.1600 C   0  0  0  0  0  0  0  0  0  0  0  0
   91.5320   94.7430  -44.7630 C   0  0  0  0  0  0  0  0  0  0  0  0
   91.8590   93.5330  -44.1980 C   0  0  0  0  0  0  0  0  0  0  0  0
   91.9820   92.3640  -44.9660 C   0  0  0  0  0  0  0  0  0  0  0  0
   91.4230   96.0040  -44.0640 C   0  0  0  0  0  0  0  0  0  0  0  0
   91.4260   95.8990  -42.7730 O   0  0  0  0  0  0  0  0  0  0  0  0
   91.3180   97.2910  -44.5610 N   0  0  0  0  0  0  0  0  0  0  0  0
   90.1970   98.1860  -44.6570 C   0  0  0  0  0  0  0  0  0  0  0  0
   90.3120   99.1690  -43.5080 C   0  0  0  0  0  0  0  0  0  0  0  0
   91.7630   99.5350  -43.2700 C   0  0  0  0  0  0  0  0  0  0  0  0
   91.8000  100.9450  -42.9460 N   0  0  0  0  0  0  0  0  0  0  0  0
   91.5550  101.0800  -41.5550 C   0  0  0  0  0  0  0  0  0  0  0  0
   91.1600  102.1140  -40.9240 O   0  0  0  0  0  0  0  0  0  0  0  0
   91.8420   99.8030  -40.9620 N   0  0  0  0  0  0  0  0  0  0  0  0
   92.2570   98.9190  -42.0240 C   0  0  0  0  0  0  0  0  0  0  0  0
   92.9040   97.8640  -41.8490 O   0  0  0  0  0  0  0  0  0  0  0  0
   92.6400   99.2980  -44.4560 C   0  0  0  0  0  0  0  0  0  0  0  0
   92.5760   97.9340  -45.0570 C   0  0  0  0  0  0  0  0  0  0  0  0
   89.8800   90.4940  -47.3720 H   0  0  0  0  0  0  0  0  0  0  0  0
   93.5940   88.9390  -48.7650 H   0  0  0  0  0  0  0  0  0  0  0  0
   91.3110   93.5450  -47.9810 H   0  0  0  0  0  0  0  0  0  0  0  0
   91.0810   95.6310  -46.6480 H   0  0  0  0  0  0  0  0  0  0  0  0
   92.0500   93.4770  -43.1410 H   0  0  0  0  0  0  0  0  0  0  0  0
   92.2400   91.4300  -44.4810 H   0  0  0  0  0  0  0  0  0  0  0  0
   90.4070   98.8700  -45.5760 H   0  0  0  0  0  0  0  0  0  0  0  0
   89.2280   97.7760  -44.8500 H   0  0  0  0  0  0  0  0  0  0  0  0
   89.7120  100.0590  -43.6990 H   0  0  0  0  0  0  0  0  0  0  0  0
   89.9360   98.6710  -42.6010 H   0  0  0  0  0  0  0  0  0  0  0  0
   91.9710  101.7470  -43.5830 H   0  0  0  0  0  0  0  0  0  0  0  0
   91.7790   99.5140  -39.9610 H   0  0  0  0  0  0  0  0  0  0  0  0
   93.7000   99.4380  -44.0890 H   0  0  0  0  0  0  0  0  0  0  0  0
   92.5120  100.0950  -45.2250 H   0  0  0  0  0  0  0  0  0  0  0  0
   92.4200   98.0200  -46.1520 H   0  0  0  0  0  0  0  0  0  0  0  0
   93.4380   97.2910  -44.8750 H   0  0  0  0  0  0  0  0  0  0  0  0
  1  2  1  0  0  0  0
  2  6  1  0  0  0  0
  2  3  2  0  0  0  0
  3 27  1  0  0  0  0
  3  4  1  0  0  0  0
  4  7  1  0  0  0  0
  5  4  1  0  0  0  0
  6  5  2  0  0  0  0
  7 12  1  0  0  0  0
  8  7  2  0  0  0  0
  8  9  1  0  0  0  0
  9 10  2  0  0  0  0
 10 11  1  0  0  0  0
 10 13  1  0  0  0  0
 11 31  1  0  0  0  0
 12 32  1  0  0  0  0
 12 11  2  0  0  0  0
 13 14  2  0  0  0  0
 15 13  1  0  0  0  0
 16 15  1  0  0  0  0
 16 17  1  0  0  0  0
 17 18  1  0  0  0  0
 17 36  1  0  0  0  0
 18 19  1  0  0  0  0
 18 23  1  0  0  0  0
 19 20  1  0  0  0  0
 20 22  1  0  0  0  0
 20 21  2  0  0  0  0
 22 38  1  0  0  0  0
 23 24  2  0  0  0  0
 23 22  1  0  0  0  0
 25 39  1  0  0  0  0
 25 18  1  0  0  0  0
 26 42  1  0  0  0  0
 26 15  1  0  0  0  0
 26 25  1  0  0  0  0
 28  6  1  0  0  0  0
 29  8  1  0  0  0  0
 30  9  1  0  0  0  0
 33 16  1  0  0  0  0
 34 16  1  0  0  0  0
 35 17  1  0  0  0  0
 37 19  1  0  0  0  0
 40 25  1  0  0  0  0
 41 26  1  0  0  0  0
M  END
>  <Pose>
1

>  <Score>
-6.14

$$$$
