
 OpenBabel03212208273D

 41 44  0  0  0  0  0  0  0  0999 V2000
   96.1090  103.9580  -42.4550 B   0  0  0  0  0  0  0  0  0  0  0  0
   94.7750  102.6700  -41.9940 C   0  0  0  0  0  0  0  0  0  0  0  0
   94.7970  101.9950  -40.8010 C   0  0  0  0  0  0  0  0  0  0  0  0
   93.8470  101.1030  -40.4970 N   0  0  0  0  0  0  0  0  0  0  0  0
   92.8080  100.7970  -41.3190 C   0  0  0  0  0  0  0  0  0  0  0  0
   92.7960  101.4900  -42.5360 C   0  0  0  0  0  0  0  0  0  0  0  0
   93.7510  102.4080  -42.8750 C   0  0  0  0  0  0  0  0  0  0  0  0
   91.8210   99.8570  -40.9410 N   0  0  0  0  0  0  0  0  0  0  0  0
   91.4420   98.8730  -41.8840 C   0  0  0  0  0  0  0  0  0  0  0  0
   90.5750   98.9560  -42.8490 C   0  0  0  0  0  0  0  0  0  0  0  0
   90.5690   97.6540  -43.5190 C   0  0  0  0  0  0  0  0  0  0  0  0
   89.8350   97.3750  -44.5180 O   0  0  0  0  0  0  0  0  0  0  0  0
   91.4970   96.7510  -42.8990 N   0  0  0  0  0  0  0  0  0  0  0  0
   92.0630   97.5270  -41.8430 C   0  0  0  0  0  0  0  0  0  0  0  0
   92.9360   97.1350  -41.0240 O   0  0  0  0  0  0  0  0  0  0  0  0
   91.7790   95.4110  -43.2680 C   0  0  0  0  0  0  0  0  0  0  0  0
   91.9140   94.3910  -42.3620 C   0  0  0  0  0  0  0  0  0  0  0  0
   92.1780   93.0650  -42.7670 C   0  0  0  0  0  0  0  0  0  0  0  0
   92.3090   92.7570  -44.1020 C   0  0  0  0  0  0  0  0  0  0  0  0
   92.1740   93.7750  -45.0120 C   0  0  0  0  0  0  0  0  0  0  0  0
   91.9130   95.0800  -44.5930 C   0  0  0  0  0  0  0  0  0  0  0  0
   89.7560  100.0670  -43.2200 N   0  0  0  0  0  0  0  0  0  0  0  0
   90.0510  100.7800  -44.3220 C   0  0  0  0  0  0  0  0  0  0  0  0
   89.2720  101.8830  -44.7100 C   0  0  0  0  0  0  0  0  0  0  0  0
   88.1780  102.2550  -43.9510 C   0  0  0  0  0  0  0  0  0  0  0  0
   87.8960  101.5080  -42.8270 C   0  0  0  0  0  0  0  0  0  0  0  0
   88.6810  100.4390  -42.4840 C   0  0  0  0  0  0  0  0  0  0  0  0
   95.5990  102.1950  -40.1110 H   0  0  0  0  0  0  0  0  0  0  0  0
   91.9750  101.2570  -43.2100 H   0  0  0  0  0  0  0  0  0  0  0  0
   93.7440  102.9510  -43.8230 H   0  0  0  0  0  0  0  0  0  0  0  0
   91.3920   99.8880  -40.0170 H   0  0  0  0  0  0  0  0  0  0  0  0
   91.8190   94.6070  -41.3090 H   0  0  0  0  0  0  0  0  0  0  0  0
   92.2780   92.2910  -42.0100 H   0  0  0  0  0  0  0  0  0  0  0  0
   92.5120   91.7300  -44.4020 H   0  0  0  0  0  0  0  0  0  0  0  0
   92.2770   93.5410  -46.0650 H   0  0  0  0  0  0  0  0  0  0  0  0
   91.8140   95.8250  -45.3650 H   0  0  0  0  0  0  0  0  0  0  0  0
   90.9130  100.4700  -44.9040 H   0  0  0  0  0  0  0  0  0  0  0  0
   89.5490  102.4300  -45.6150 H   0  0  0  0  0  0  0  0  0  0  0  0
   87.5620  103.1120  -44.2390 H   0  0  0  0  0  0  0  0  0  0  0  0
   87.0490  101.7900  -42.2270 H   0  0  0  0  0  0  0  0  0  0  0  0
   88.4630   99.8370  -41.5870 H   0  0  0  0  0  0  0  0  0  0  0  0
  1  2  1  0  0  0  0
  2  3  1  0  0  0  0
  3  4  2  0  0  0  0
  3 28  1  0  0  0  0
  5  8  1  0  0  0  0
  5  4  1  0  0  0  0
  6  5  2  0  0  0  0
  7  6  1  0  0  0  0
  7  2  2  0  0  0  0
  8 31  1  0  0  0  0
  9 14  1  0  0  0  0
  9  8  1  0  0  0  0
 10  9  2  0  0  0  0
 11 13  1  0  0  0  0
 11 10  1  0  0  0  0
 12 11  2  0  0  0  0
 13 14  1  0  0  0  0
 14 15  2  0  0  0  0
 16 13  1  0  0  0  0
 16 17  1  0  0  0  0
 17 32  1  0  0  0  0
 18 17  2  0  0  0  0
 18 33  1  0  0  0  0
 19 18  1  0  0  0  0
 20 21  1  0  0  0  0
 20 19  2  0  0  0  0
 21 16  2  0  0  0  0
 22 10  1  0  0  0  0
 22 27  1  0  0  0  0
 23 22  1  0  0  0  0
 24 23  1  0  0  0  0
 24 25  2  0  0  0  0
 25 26  1  0  0  0  0
 26 27  2  0  0  0  0
 26 40  1  0  0  0  0
 27 41  1  0  0  0  0
 29  6  1  0  0  0  0
 30  7  1  0  0  0  0
 34 19  1  0  0  0  0
 35 20  1  0  0  0  0
 36 21  1  0  0  0  0
 37 23  1  0  0  0  0
 38 24  1  0  0  0  0
 39 25  1  0  0  0  0
M  END
>  <Pose>
1

>  <Score>
-5.95

$$$$
