
 OpenBabel03212208273D

 38 40  0  0  0  0  0  0  0  0999 V2000
   90.9750   89.7090  -49.5720 B   0  0  0  0  0  0  0  0  0  0  0  0
   91.2900   90.8160  -48.0440 C   0  0  0  0  0  0  0  0  0  0  0  0
   90.8840   92.1320  -48.0380 C   0  0  0  0  0  0  0  0  0  0  0  0
   91.1110   92.8820  -46.9680 N   0  0  0  0  0  0  0  0  0  0  0  0
   91.7260   92.4580  -45.8430 C   0  0  0  0  0  0  0  0  0  0  0  0
   92.1280   91.1530  -45.8550 N   0  0  0  0  0  0  0  0  0  0  0  0
   91.9220   90.3470  -46.9130 C   0  0  0  0  0  0  0  0  0  0  0  0
   91.9570   93.2690  -44.7260 N   0  0  0  0  0  0  0  0  0  0  0  0
   91.4340   94.5040  -44.2180 C   0  0  0  0  0  0  0  0  0  0  0  0
   91.6260   93.8850  -42.8480 C   0  0  0  0  0  0  0  0  0  0  0  0
   92.8100   93.2560  -43.5720 C   0  0  0  0  0  0  0  0  0  0  0  0
   91.9870   94.8350  -41.7490 C   0  0  0  0  0  0  0  0  0  0  0  0
   91.8320   96.1740  -42.2510 N   0  0  0  0  0  0  0  0  0  0  0  0
   91.1960   96.4000  -43.4720 N   0  0  0  0  0  0  0  0  0  0  0  0
   91.0190   97.7040  -44.0080 C   0  0  0  0  0  0  0  0  0  0  0  0
   90.4100   97.8620  -45.1670 C   0  0  0  0  0  0  0  0  0  0  0  0
   89.7120   97.4290  -46.3950 C   0  0  0  0  0  0  0  0  0  0  0  0
   89.9340   98.8550  -46.2090 C   0  0  0  0  0  0  0  0  0  0  0  0
   91.5060   98.8640  -43.2870 C   0  0  0  0  0  0  0  0  0  0  0  0
   92.1140   98.6730  -42.1270 C   0  0  0  0  0  0  0  0  0  0  0  0
   92.3020   97.3220  -41.5600 C   0  0  0  0  0  0  0  0  0  0  0  0
   92.8840   97.1680  -40.4540 O   0  0  0  0  0  0  0  0  0  0  0  0
   90.3870   92.4870  -48.9350 H   0  0  0  0  0  0  0  0  0  0  0  0
   92.2350   89.3100  -46.9330 H   0  0  0  0  0  0  0  0  0  0  0  0
   92.1390   95.3800  -44.3000 H   0  0  0  0  0  0  0  0  0  0  0  0
   90.3910   94.7460  -44.4790 H   0  0  0  0  0  0  0  0  0  0  0  0
   90.8320   93.1620  -42.6360 H   0  0  0  0  0  0  0  0  0  0  0  0
   93.6670   93.9630  -43.6040 H   0  0  0  0  0  0  0  0  0  0  0  0
   93.1120   92.2640  -43.1950 H   0  0  0  0  0  0  0  0  0  0  0  0
   93.0420   94.6720  -41.4310 H   0  0  0  0  0  0  0  0  0  0  0  0
   91.3500   94.7210  -40.8730 H   0  0  0  0  0  0  0  0  0  0  0  0
   90.8420   95.5460  -43.9930 H   0  0  0  0  0  0  0  0  0  0  0  0
   90.3100   96.9260  -47.1920 H   0  0  0  0  0  0  0  0  0  0  0  0
   88.6810   97.0450  -46.3380 H   0  0  0  0  0  0  0  0  0  0  0  0
   90.7360   99.3550  -46.8080 H   0  0  0  0  0  0  0  0  0  0  0  0
   89.1170   99.5280  -45.8610 H   0  0  0  0  0  0  0  0  0  0  0  0
   91.3770   99.8880  -43.6900 H   0  0  0  0  0  0  0  0  0  0  0  0
   92.4700   99.5460  -41.6020 H   0  0  0  0  0  0  0  0  0  0  0  0
  1  2  1  0  0  0  0
  2  3  2  0  0  0  0
  2  7  1  0  0  0  0
  3  4  1  0  0  0  0
  4  5  2  0  0  0  0
  5  8  1  0  0  0  0
  6  5  1  0  0  0  0
  7  6  2  0  0  0  0
  8  9  1  0  0  0  0
  8 11  1  0  0  0  0
 10 27  1  0  0  0  0
 10 12  1  0  0  0  0
 11 29  1  0  0  0  0
 11 10  1  0  0  0  0
 12 30  1  0  0  0  0
 12 31  1  0  0  0  0
 13 12  1  0  0  0  0
 13 21  1  0  0  0  0
 14 13  1  0  0  0  0
 15 14  1  0  0  0  0
 15 19  1  0  0  0  0
 16 15  2  0  0  0  0
 17 34  1  0  0  0  0
 17 18  1  0  0  0  0
 17 16  1  0  0  0  0
 18 36  1  0  0  0  0
 18 16  1  0  0  0  0
 19 20  2  0  0  0  0
 20 38  1  0  0  0  0
 20 21  1  0  0  0  0
 21 22  2  0  0  0  0
 23  3  1  0  0  0  0
 24  7  1  0  0  0  0
 25  9  1  0  0  0  0
 26  9  1  0  0  0  0
 28 11  1  0  0  0  0
 32 14  1  0  0  0  0
 33 17  1  0  0  0  0
 35 18  1  0  0  0  0
 37 19  1  0  0  0  0
M  END
>  <Pose>
1

>  <Score>
-5.41

$$$$
