
 OpenBabel03212208273D

 43 46  0  0  0  0  0  0  0  0999 V2000
   95.9830  102.4940  -51.6520 B   0  0  0  0  0  0  0  0  0  0  0  0
   94.8850  101.3650  -50.5720 C   0  0  0  0  0  0  0  0  0  0  0  0
   94.5630  100.1120  -50.9870 C   0  0  0  0  0  0  0  0  0  0  0  0
   93.7990   99.3130  -50.2440 N   0  0  0  0  0  0  0  0  0  0  0  0
   93.3350   99.7470  -49.0630 C   0  0  0  0  0  0  0  0  0  0  0  0
   93.6330  101.0190  -48.5880 C   0  0  0  0  0  0  0  0  0  0  0  0
   94.4220  101.8500  -49.3500 C   0  0  0  0  0  0  0  0  0  0  0  0
   93.0970  101.4020  -47.3030 C   0  0  0  0  0  0  0  0  0  0  0  0
   92.4340  102.4450  -47.1750 O   0  0  0  0  0  0  0  0  0  0  0  0
   93.3250  100.5620  -46.1100 N   0  0  0  0  0  0  0  0  0  0  0  0
   92.1800   99.9990  -45.5410 C   0  0  0  0  0  0  0  0  0  0  0  0
   92.1470   99.1620  -44.3610 C   0  0  0  0  0  0  0  0  0  0  0  0
   92.3710   99.9320  -43.1650 C   0  0  0  0  0  0  0  0  0  0  0  0
   92.3870   99.3200  -41.9660 C   0  0  0  0  0  0  0  0  0  0  0  0
   92.1880   97.9320  -41.8550 C   0  0  0  0  0  0  0  0  0  0  0  0
   91.9700   97.1820  -42.9850 C   0  0  0  0  0  0  0  0  0  0  0  0
   91.9490   97.8100  -44.2410 C   0  0  0  0  0  0  0  0  0  0  0  0
   91.6210   97.0310  -45.4630 C   0  0  0  0  0  0  0  0  0  0  0  0
   90.9350   95.7000  -45.1740 C   0  0  0  0  0  0  0  0  0  0  0  0
   91.6000   94.9750  -44.1160 N   0  0  0  0  0  0  0  0  0  0  0  0
   91.7930   95.7350  -42.9150 C   0  0  0  0  0  0  0  0  0  0  0  0
   91.7990   95.0920  -41.8450 O   0  0  0  0  0  0  0  0  0  0  0  0
   92.0330   93.6020  -44.2580 C   0  0  0  0  0  0  0  0  0  0  0  0
   92.2200   97.3960  -40.6220 O   0  0  0  0  0  0  0  0  0  0  0  0
   92.6230  100.3100  -41.0000 O   0  0  0  0  0  0  0  0  0  0  0  0
   93.0080  101.5140  -41.6300 C   0  0  0  0  0  0  0  0  0  0  0  0
   92.5970  101.2970  -42.9650 O   0  0  0  0  0  0  0  0  0  0  0  0
   94.9110   99.6940  -51.9470 H   0  0  0  0  0  0  0  0  0  0  0  0
   92.7090   99.1240  -48.4290 H   0  0  0  0  0  0  0  0  0  0  0  0
   94.6740  102.8400  -49.0090 H   0  0  0  0  0  0  0  0  0  0  0  0
   94.3220  100.5480  -45.8480 H   0  0  0  0  0  0  0  0  0  0  0  0
   91.4340  100.8880  -45.3730 H   0  0  0  0  0  0  0  0  0  0  0  0
   91.5760   99.4790  -46.3990 H   0  0  0  0  0  0  0  0  0  0  0  0
   92.4910   96.7920  -46.0830 H   0  0  0  0  0  0  0  0  0  0  0  0
   90.8550   97.5650  -46.0760 H   0  0  0  0  0  0  0  0  0  0  0  0
   90.9670   95.1380  -46.1410 H   0  0  0  0  0  0  0  0  0  0  0  0
   89.8880   95.9420  -44.8890 H   0  0  0  0  0  0  0  0  0  0  0  0
   92.9630   93.6270  -44.8780 H   0  0  0  0  0  0  0  0  0  0  0  0
   91.2760   93.0190  -44.8140 H   0  0  0  0  0  0  0  0  0  0  0  0
   92.2950   93.1910  -43.2750 H   0  0  0  0  0  0  0  0  0  0  0  0
   91.6810   97.5540  -39.8410 H   0  0  0  0  0  0  0  0  0  0  0  0
   92.5100  102.3970  -41.1790 H   0  0  0  0  0  0  0  0  0  0  0  0
   94.1010  101.6030  -41.5280 H   0  0  0  0  0  0  0  0  0  0  0  0
  1  2  1  0  0  0  0
  2  7  1  0  0  0  0
  3  2  2  0  0  0  0
  3  4  1  0  0  0  0
  4  5  2  0  0  0  0
  5  6  1  0  0  0  0
  5 29  1  0  0  0  0
  6  8  1  0  0  0  0
  7 30  1  0  0  0  0
  7  6  2  0  0  0  0
  8  9  2  0  0  0  0
  8 10  1  0  0  0  0
 10 31  1  0  0  0  0
 10 11  1  0  0  0  0
 11 32  1  0  0  0  0
 11 12  1  0  0  0  0
 12 17  2  0  0  0  0
 12 13  1  0  0  0  0
 13 27  1  0  0  0  0
 13 14  2  0  0  0  0
 14 15  1  0  0  0  0
 14 25  1  0  0  0  0
 15 24  1  0  0  0  0
 16 21  1  0  0  0  0
 16 15  2  0  0  0  0
 17 16  1  0  0  0  0
 18 19  1  0  0  0  0
 18 17  1  0  0  0  0
 19 37  1  0  0  0  0
 19 20  1  0  0  0  0
 20 21  1  0  0  0  0
 21 22  2  0  0  0  0
 23 20  1  0  0  0  0
 23 40  1  0  0  0  0
 24 41  1  0  0  0  0
 26 43  1  0  0  0  0
 26 42  1  0  0  0  0
 26 25  1  0  0  0  0
 27 26  1  0  0  0  0
 28  3  1  0  0  0  0
 33 11  1  0  0  0  0
 34 18  1  0  0  0  0
 35 18  1  0  0  0  0
 36 19  1  0  0  0  0
 38 23  1  0  0  0  0
 39 23  1  0  0  0  0
M  END
>  <Pose>
1

>  <Score>
-5.96

$$$$
