
 OpenBabel03212208273D

 48 44  0  0  1  0  0  0  0  0999 V2000
   91.5120   96.5360  -42.0860 B   0  0  0  0  0  0  0  0  0  0  0  0
   91.1670   98.2780  -42.7290 C   0  0  0  0  0  0  0  0  0  0  0  0
   91.2160   99.3550  -41.8590 C   0  0  0  0  0  0  0  0  0  0  0  0
   90.9630  100.5720  -42.3630 N   0  0  0  0  0  0  0  0  0  0  0  0
   90.6690  100.8030  -43.6520 C   0  0  0  0  0  0  0  0  0  0  0  0
   90.6210   99.7310  -44.5070 C   0  0  0  0  0  0  0  0  0  0  0  0
   90.8700   98.4420  -44.0660 C   0  0  1  0  0  0  0  0  0  0  0  0
   90.3060   99.9410  -45.9110 C   0  0  0  0  0  0  0  0  0  0  0  0
   90.1360  101.1090  -46.3630 O   0  0  0  0  0  0  0  0  0  0  0  0
   90.1800   98.8790  -46.7880 O   0  0  0  0  0  0  0  0  0  0  0  0
   92.3990   98.9020  -42.5050 N   0  0  0  0  0  0  0  0  0  0  0  0
   91.3960   99.8490  -42.0470 C   0  0  0  0  0  0  0  0  0  0  0  0
   90.0490   99.6080  -42.6900 C   0  0  0  0  0  0  0  0  0  0  0  0
   89.9400  100.4010  -43.9810 C   0  0  0  0  0  0  0  0  0  0  0  0
   90.7610   99.7600  -45.0770 C   0  0  0  0  0  0  0  0  0  0  0  0
   91.1530   98.4030  -44.6650 C   0  0  0  0  0  0  0  0  0  0  0  0
   91.8650   98.0520  -43.5440 C   0  0  1  0  0  0  0  0  0  0  0  0
   92.1380   96.7650  -43.3160 N   0  0  0  0  0  0  0  0  0  0  0  0
   91.7430   95.7950  -44.1450 C   0  0  0  0  0  0  0  0  0  0  0  0
   91.0320   96.1220  -45.2710 C   0  0  0  0  0  0  0  0  0  0  0  0
   90.7350   97.4450  -45.5320 C   0  0  0  0  0  0  0  0  0  0  0  0
   89.9880   97.7640  -46.7180 N   0  0  0  0  0  4  0  0  0  0  0  0
   90.5950   95.1530  -46.1700 C   0  0  0  0  0  0  0  0  0  0  0  0
   90.8980   93.8420  -45.8970 C   0  0  0  0  0  0  0  0  0  0  0  0
   91.6110   93.5160  -44.7700 C   0  0  0  0  0  0  0  0  0  0  0  0
   92.0430   94.4950  -43.8770 C   0  0  0  0  0  0  0  0  0  0  0  0
   92.7470   98.0450  -41.3770 C   0  0  0  0  0  0  0  0  0  0  0  0
   91.4530   99.1800  -40.8230 H   0  0  0  0  0  0  0  0  0  0  0  0
   90.4770  101.8070  -43.9820 H   0  0  0  0  0  0  0  0  0  0  0  0
   90.8410   97.5900  -44.7060 H   0  0  0  0  0  0  0  0  0  0  0  0
   93.2470   99.4080  -42.8490 H   0  0  0  0  0  0  0  0  0  0  0  0
   91.6820  100.8970  -42.2250 H   0  0  0  0  0  0  0  0  0  0  0  0
   91.2340   99.7610  -40.9410 H   0  0  0  0  0  0  0  0  0  0  0  0
   89.2630  100.0060  -42.0140 H   0  0  0  0  0  0  0  0  0  0  0  0
   89.9580   98.5230  -42.8680 H   0  0  0  0  0  0  0  0  0  0  0  0
   88.8860  100.4700  -44.2570 H   0  0  0  0  0  0  0  0  0  0  0  0
   90.3430  101.4080  -43.7880 H   0  0  0  0  0  0  0  0  0  0  0  0
   90.1690   99.7560  -46.0150 H   0  0  0  0  0  0  0  0  0  0  0  0
   91.6700  100.3850  -45.3130 H   0  0  0  0  0  0  0  0  0  0  0  0
   89.0130   98.0910  -46.6360 H   0  0  0  0  0  0  0  0  0  0  0  0
   90.4170   97.6700  -47.6670 H   0  0  0  0  0  0  0  0  0  0  0  0
   90.0370   95.4410  -47.0460 H   0  0  0  0  0  0  0  0  0  0  0  0
   90.5790   93.0510  -46.5690 H   0  0  0  0  0  0  0  0  0  0  0  0
   91.8520   92.4920  -44.5510 H   0  0  0  0  0  0  0  0  0  0  0  0
   92.6050   94.2620  -42.9840 H   0  0  0  0  0  0  0  0  0  0  0  0
   92.8280   98.6910  -40.4870 H   0  0  0  0  0  0  0  0  0  0  0  0
   93.6500   97.4560  -41.5940 H   0  0  0  0  0  0  0  0  0  0  0  0
   91.8840   97.3560  -41.2020 H   0  0  0  0  0  0  0  0  0  0  0  0
  3 33  1  0  0  0  0
  4 32  1  0  0  0  0
  4 12  1  0  0  0  0
  6 14  1  0  0  0  0
  7 16  1  1  0  0  0
  7 17  1  0  0  0  0
  7  2  1  0  0  0  0
  8 15  1  0  0  0  0
  9  8  2  0  0  0  0
 10 22  1  0  0  0  0
 10 38  1  0  0  0  0
 11 27  1  0  0  0  0
 12  3  1  0  0  0  0
 13  4  1  0  0  0  0
 13 34  1  0  0  0  0
 14  5  1  0  0  0  0
 15  6  1  0  0  0  0
 17 18  1  6  0  0  0
 17  2  1  0  0  0  0
 17 11  1  0  0  0  0
 18  1  1  0  0  0  0
 19 26  1  0  0  0  0
 19 18  1  0  0  0  0
 20 19  2  0  0  0  0
 21 20  1  0  0  0  0
 21 30  1  0  0  0  0
 22 40  1  0  0  0  0
 22 21  1  0  0  0  0
 23 24  2  0  0  0  0
 23 20  1  0  0  0  0
 24 25  1  0  0  0  0
 25 44  1  0  0  0  0
 25 26  2  0  0  0  0
 26 45  1  0  0  0  0
 27 48  1  0  0  0  0
 27 46  1  0  0  0  0
 31 11  1  0  0  0  0
 35 13  1  0  0  0  0
 36 14  1  0  0  0  0
 37  5  1  0  0  0  0
 41 22  1  0  0  0  0
 42 23  1  0  0  0  0
 43 24  1  0  0  0  0
 47 27  1  0  0  0  0
M  END
>  <Pose>
1

>  <Score>
-4.91

$$$$
