
 OpenBabel03212208273D

 57 60  0  0  0  0  0  0  0  0999 V2000
   92.4840   93.8930  -41.4600 B   0  0  0  0  0  0  0  0  0  0  0  0
   92.0310   93.9150  -43.3050 C   0  0  0  0  0  0  0  0  0  0  0  0
   91.6490   95.1040  -43.8970 C   0  0  0  0  0  0  0  0  0  0  0  0
   91.3010   95.1890  -45.2530 C   0  0  0  0  0  0  0  0  0  0  0  0
   91.3400   94.0550  -46.0250 C   0  0  0  0  0  0  0  0  0  0  0  0
   91.7210   92.8630  -45.4390 C   0  0  0  0  0  0  0  0  0  0  0  0
   92.0630   92.7780  -44.1080 C   0  0  0  0  0  0  0  0  0  0  0  0
   91.7860   91.2700  -46.4800 B   0  0  0  0  0  0  0  0  0  0  0  0
   90.8910   96.4640  -45.8290 C   0  0  0  0  0  0  0  0  0  0  0  0
   90.1890   96.3940  -46.8750 O   0  0  0  0  0  0  0  0  0  0  0  0
   91.2630   97.7460  -45.2410 C   0  0  0  0  0  0  0  0  0  0  0  0
   91.9710   97.4800  -43.8850 C   0  0  0  0  0  0  0  0  0  0  0  0
   91.5640   96.3240  -43.2500 O   0  0  0  0  0  0  0  0  0  0  0  0
   92.2070   98.5840  -45.9730 C   0  0  0  0  0  0  0  0  0  0  0  0
   91.9440   99.3350  -47.1110 N   0  0  0  0  0  4  0  0  0  0  0  0
   92.7110  100.5030  -47.4130 C   0  0  0  0  0  0  0  0  0  0  0  0
   92.6050  100.7010  -48.9470 C   0  0  0  0  0  0  0  0  0  0  0  0
   91.1960  101.2050  -49.1820 C   0  0  0  0  0  0  0  0  0  0  0  0
   90.2960  100.9310  -47.9970 C   0  0  0  0  0  0  0  0  0  0  0  0
   90.5370   99.5550  -47.4130 C   0  0  0  0  0  0  0  0  0  0  0  0
   89.9840   98.5230  -44.9720 C   0  0  0  0  0  0  0  0  0  0  0  0
   90.2010   99.7040  -44.1730 N   0  0  0  0  0  4  0  0  0  0  0  0
   89.5170   99.5140  -42.9010 C   0  0  0  0  0  0  0  0  0  0  0  0
   88.0880   99.1690  -43.1630 C   0  0  0  0  0  0  0  0  0  0  0  0
   87.3590  100.1180  -44.0420 C   0  0  0  0  0  0  0  0  0  0  0  0
   88.1660  100.7310  -45.1330 C   0  0  0  0  0  0  0  0  0  0  0  0
   89.6100  100.9120  -44.7210 C   0  0  0  0  0  0  0  0  0  0  0  0
   91.0710   94.0980  -47.0900 H   0  0  0  0  0  0  0  0  0  0  0  0
   92.3630   91.8470  -43.6440 H   0  0  0  0  0  0  0  0  0  0  0  0
   91.8990   98.3970  -43.2550 H   0  0  0  0  0  0  0  0  0  0  0  0
   93.0500   97.4080  -44.1280 H   0  0  0  0  0  0  0  0  0  0  0  0
   93.1290   97.9610  -46.2280 H   0  0  0  0  0  0  0  0  0  0  0  0
   92.6580   99.2880  -45.1900 H   0  0  0  0  0  0  0  0  0  0  0  0
   92.2360   98.6720  -47.9200 H   0  0  0  0  0  0  0  0  0  0  0  0
   93.7770  100.3750  -47.1890 H   0  0  0  0  0  0  0  0  0  0  0  0
   92.2730  101.4610  -47.0570 H   0  0  0  0  0  0  0  0  0  0  0  0
   92.7840   99.7400  -49.4640 H   0  0  0  0  0  0  0  0  0  0  0  0
   93.3650  101.4540  -49.2330 H   0  0  0  0  0  0  0  0  0  0  0  0
   91.2770  102.3260  -49.2510 H   0  0  0  0  0  0  0  0  0  0  0  0
   90.7720  100.8690  -50.1380 H   0  0  0  0  0  0  0  0  0  0  0  0
   89.2510  100.8930  -48.4260 H   0  0  0  0  0  0  0  0  0  0  0  0
   90.2690  101.7320  -47.2550 H   0  0  0  0  0  0  0  0  0  0  0  0
   90.1460   98.8390  -48.1990 H   0  0  0  0  0  0  0  0  0  0  0  0
   89.8630   99.4080  -46.5690 H   0  0  0  0  0  0  0  0  0  0  0  0
   89.4350   98.7190  -45.8960 H   0  0  0  0  0  0  0  0  0  0  0  0
   89.3730   97.8420  -44.3490 H   0  0  0  0  0  0  0  0  0  0  0  0
   91.2090   99.9020  -44.0470 H   0  0  0  0  0  0  0  0  0  0  0  0
   89.9800   98.7390  -42.2850 H   0  0  0  0  0  0  0  0  0  0  0  0
   89.5220  100.5090  -42.3830 H   0  0  0  0  0  0  0  0  0  0  0  0
   87.5730   99.1620  -42.1570 H   0  0  0  0  0  0  0  0  0  0  0  0
   87.9330   98.1440  -43.5530 H   0  0  0  0  0  0  0  0  0  0  0  0
   86.4970   99.5800  -44.5350 H   0  0  0  0  0  0  0  0  0  0  0  0
   86.8530  100.8940  -43.4010 H   0  0  0  0  0  0  0  0  0  0  0  0
   87.7690  101.7820  -45.2720 H   0  0  0  0  0  0  0  0  0  0  0  0
   88.0480  100.2610  -46.1240 H   0  0  0  0  0  0  0  0  0  0  0  0
   90.1980  101.4160  -45.4800 H   0  0  0  0  0  0  0  0  0  0  0  0
   89.5730  101.6350  -43.8500 H   0  0  0  0  0  0  0  0  0  0  0  0
  2  1  1  0  0  0  0
  3  2  1  0  0  0  0
  3 13  1  0  0  0  0
  4  3  2  0  0  0  0
  5  6  2  0  0  0  0
  5  4  1  0  0  0  0
  6  7  1  0  0  0  0
  7 29  1  0  0  0  0
  7  2  2  0  0  0  0
  8  6  1  0  0  0  0
  9  4  1  0  0  0  0
  9 11  1  0  0  0  0
 10  9  2  0  0  0  0
 11 21  1  0  0  0  0
 11 12  1  0  0  0  0
 12 30  1  0  0  0  0
 12 13  1  0  0  0  0
 14 11  1  0  0  0  0
 14 33  1  0  0  0  0
 15 14  1  0  0  0  0
 16 35  1  0  0  0  0
 16 15  1  0  0  0  0
 16 36  1  0  0  0  0
 17 16  1  0  0  0  0
 18 17  1  0  0  0  0
 18 19  1  0  0  0  0
 19 20  1  0  0  0  0
 19 42  1  0  0  0  0
 20 15  1  0  0  0  0
 20 44  1  0  0  0  0
 21 46  1  0  0  0  0
 21 22  1  0  0  0  0
 22 47  1  0  0  0  0
 22 23  1  0  0  0  0
 23 49  1  0  0  0  0
 23 48  1  0  0  0  0
 24 23  1  0  0  0  0
 24 50  1  0  0  0  0
 25 53  1  0  0  0  0
 25 24  1  0  0  0  0
 26 27  1  0  0  0  0
 26 25  1  0  0  0  0
 27 22  1  0  0  0  0
 27 57  1  0  0  0  0
 28  5  1  0  0  0  0
 31 12  1  0  0  0  0
 32 14  1  0  0  0  0
 34 15  1  0  0  0  0
 37 17  1  0  0  0  0
 38 17  1  0  0  0  0
 39 18  1  0  0  0  0
 40 18  1  0  0  0  0
 41 19  1  0  0  0  0
 43 20  1  0  0  0  0
 45 21  1  0  0  0  0
 51 24  1  0  0  0  0
 52 25  1  0  0  0  0
 54 26  1  0  0  0  0
 55 26  1  0  0  0  0
 56 27  1  0  0  0  0
M  END
>  <Pose>
1

>  <Score>
-5.05

$$$$
