
 OpenBabel03212208273D

 44 47  0  0  1  0  0  0  0  0999 V2000
   89.6220  100.9320  -45.7400 B   0  0  0  0  0  0  0  0  0  0  0  0
   90.5270   99.6570  -44.6360 C   0  0  0  0  0  0  0  0  0  0  0  0
   90.6110   98.3250  -44.9860 C   0  0  0  0  0  0  0  0  0  0  0  0
   91.2650   97.3950  -44.1960 C   0  0  0  0  0  0  0  0  0  0  0  0
   91.8340   97.8670  -43.0330 C   0  0  0  0  0  0  0  0  0  0  0  0
   91.7700   99.1880  -42.6510 C   0  0  0  0  0  0  0  0  0  0  0  0
   91.1120  100.1060  -43.4520 C   0  0  0  0  0  0  0  0  0  0  0  0
   92.5820   99.7780  -41.0240 B   0  0  0  0  0  0  0  0  0  0  0  0
   91.2080   96.0690  -44.7940 C   0  0  0  0  0  0  0  0  0  0  0  0
   91.6860   94.9550  -44.3810 N   0  0  0  0  0  0  0  0  0  0  0  0
   91.5390   93.7590  -45.0890 N   0  0  0  0  0  0  0  0  0  0  0  0
   91.9680   92.5640  -44.4700 C   0  0  0  0  0  0  0  0  0  0  0  0
   91.8170   92.3970  -43.2420 O   0  0  0  0  0  0  0  0  0  0  0  0
   92.6160   91.4530  -45.2370 C   0  0  0  0  0  0  0  0  0  0  0  0
   91.6720   90.7420  -46.0550 N   0  0  0  0  0  0  0  0  0  0  0  0
   91.4040   91.0920  -47.4060 C   0  0  0  0  0  0  0  0  0  0  0  0
   90.8230   92.1750  -47.6340 O   0  0  0  0  0  0  0  0  0  0  0  0
   91.7780   90.2330  -48.5700 C   0  0  2  0  0  0  0  0  0  0  0  0
   90.6880   89.5050  -49.0520 O   0  0  0  0  0  0  0  0  0  0  0  0
   90.5350   88.1260  -48.9300 C   0  0  0  0  0  0  0  0  0  0  0  0
   91.6630   87.3970  -48.6570 C   0  0  0  0  0  0  0  0  0  0  0  0
   91.5390   86.0140  -48.5300 C   0  0  0  0  0  0  0  0  0  0  0  0
   90.3340   85.3630  -48.6700 C   0  0  0  0  0  0  0  0  0  0  0  0
   89.2190   86.1310  -48.9450 C   0  0  0  0  0  0  0  0  0  0  0  0
   89.3350   87.4960  -49.0710 C   0  0  0  0  0  0  0  0  0  0  0  0
   92.8650   88.0340  -48.5170 O   0  0  0  0  0  0  0  0  0  0  0  0
   92.9930   89.4140  -48.3090 C   0  0  0  0  0  0  0  0  0  0  0  0
   90.4570   96.2300  -46.0430 C   0  0  0  0  0  0  0  0  0  0  0  0
   90.2040   95.2850  -46.8380 O   0  0  0  0  0  0  0  0  0  0  0  0
   90.1220   97.6020  -46.1100 N   0  0  0  0  0  0  0  0  0  0  0  0
   92.3530   97.1800  -42.3860 H   0  0  0  0  0  0  0  0  0  0  0  0
   91.0520  101.1340  -43.1760 H   0  0  0  0  0  0  0  0  0  0  0  0
   91.1190   93.8140  -46.0420 H   0  0  0  0  0  0  0  0  0  0  0  0
   93.3590   91.9450  -45.9020 H   0  0  0  0  0  0  0  0  0  0  0  0
   93.1860   90.7780  -44.5610 H   0  0  0  0  0  0  0  0  0  0  0  0
   91.1370   89.9240  -45.6810 H   0  0  0  0  0  0  0  0  0  0  0  0
   92.0300   90.9740  -49.3850 H   0  0  0  0  0  0  0  0  0  0  0  0
   92.4440   85.4590  -48.3140 H   0  0  0  0  0  0  0  0  0  0  0  0
   90.2820   84.2910  -48.5630 H   0  0  0  0  0  0  0  0  0  0  0  0
   88.2560   85.6040  -49.0550 H   0  0  0  0  0  0  0  0  0  0  0  0
   88.4460   88.0730  -49.2880 H   0  0  0  0  0  0  0  0  0  0  0  0
   93.8600   89.7850  -48.9380 H   0  0  0  0  0  0  0  0  0  0  0  0
   93.3130   89.5550  -47.2500 H   0  0  0  0  0  0  0  0  0  0  0  0
   89.5860   98.0320  -46.8820 H   0  0  0  0  0  0  0  0  0  0  0  0
  1  2  1  0  0  0  0
  2  7  1  0  0  0  0
  3  2  2  0  0  0  0
  3  4  1  0  0  0  0
  4  5  2  0  0  0  0
  5  6  1  0  0  0  0
  5 31  1  0  0  0  0
  6  8  1  0  0  0  0
  7 32  1  0  0  0  0
  7  6  2  0  0  0  0
  9 10  2  0  0  0  0
  9  4  1  0  0  0  0
 11 12  1  0  0  0  0
 11 10  1  0  0  0  0
 12 13  2  0  0  0  0
 14 35  1  0  0  0  0
 14 12  1  0  0  0  0
 15 36  1  0  0  0  0
 15 14  1  0  0  0  0
 16 15  1  0  0  0  0
 17 16  2  0  0  0  0
 18 37  1  6  0  0  0
 18 27  1  0  0  0  0
 18 16  1  0  0  0  0
 19 20  1  0  0  0  0
 19 18  1  0  0  0  0
 20 21  1  0  0  0  0
 21 22  2  0  0  0  0
 21 26  1  0  0  0  0
 22 38  1  0  0  0  0
 23 39  1  0  0  0  0
 23 22  1  0  0  0  0
 24 23  2  0  0  0  0
 25 24  1  0  0  0  0
 25 20  2  0  0  0  0
 26 27  1  0  0  0  0
 27 43  1  0  0  0  0
 28  9  1  0  0  0  0
 29 28  2  0  0  0  0
 30 28  1  0  0  0  0
 30  3  1  0  0  0  0
 33 11  1  0  0  0  0
 34 14  1  0  0  0  0
 40 24  1  0  0  0  0
 41 25  1  0  0  0  0
 42 27  1  0  0  0  0
 44 30  1  0  0  0  0
M  END
>  <Pose>
1

>  <Score>
-6.64

$$$$
