
 OpenBabel03212208273D

 56 59  0  0  1  0  0  0  0  0999 V2000
   89.6620   97.1230  -45.9090 B   0  0  0  0  0  0  0  0  0  0  0  0
   88.4700   98.0260  -44.7330 C   0  0  0  0  0  0  0  0  0  0  0  0
   87.1090   97.8430  -44.8780 C   0  0  0  0  0  0  0  0  0  0  0  0
   86.2220   98.4850  -44.0390 C   0  0  0  0  0  0  0  0  0  0  0  0
   86.7570   99.3050  -43.0660 C   0  0  0  0  0  0  0  0  0  0  0  0
   88.1190   99.4820  -42.9280 C   0  0  0  0  0  0  0  0  0  0  0  0
   89.0150   98.8440  -43.7630 C   0  0  0  0  0  0  0  0  0  0  0  0
   90.3920   99.0150  -43.6340 O   0  0  0  0  0  0  0  0  0  0  0  0
   91.1260   97.9820  -43.0040 C   0  0  0  0  0  0  0  0  0  0  0  0
   92.2880   98.5170  -42.2070 C   0  0  2  0  0  0  0  0  0  0  0  0
   92.4620   97.8730  -41.0090 O   0  0  0  0  0  0  0  0  0  0  0  0
   92.1870   99.9950  -42.0470 C   0  0  0  0  0  0  0  0  0  0  0  0
   93.3520  100.6000  -41.4410 N   0  0  0  0  0  4  0  0  0  0  0  0
   92.9130  101.2030  -40.1950 C   0  0  0  0  0  0  0  0  0  0  0  0
   93.9980  102.0970  -39.5770 C   0  0  0  0  0  0  0  0  0  0  0  0
   94.3590  103.0970  -40.5170 N   0  0  0  0  0  0  0  0  0  0  0  0
   93.6760  102.9920  -41.8240 C   0  0  0  0  0  0  0  0  0  0  0  0
   93.8750  101.6100  -42.3490 C   0  0  0  0  0  0  0  0  0  0  0  0
   95.2770  104.1280  -40.2900 C   0  0  0  0  0  0  0  0  0  0  0  0
   94.8190  105.0630  -39.4740 O   0  0  0  0  0  0  0  0  0  0  0  0
   96.6020  104.3580  -40.7680 C   0  0  0  0  0  0  0  0  0  0  0  0
   96.9830  104.5320  -42.0680 C   0  0  0  0  0  0  0  0  0  0  0  0
   98.2940  104.7530  -42.4680 C   0  0  0  0  0  0  0  0  0  0  0  0
   99.2880  104.8060  -41.5440 C   0  0  0  0  0  0  0  0  0  0  0  0
   98.9350  104.6340  -40.2210 C   0  0  0  0  0  0  0  0  0  0  0  0
   97.6400  104.4150  -39.8260 C   0  0  0  0  0  0  0  0  0  0  0  0
   84.8570   98.3020  -44.1850 C   0  0  0  0  0  0  0  0  0  0  0  0
   84.3210   97.4820  -45.1570 C   0  0  0  0  0  0  0  0  0  0  0  0
   85.2080   96.8390  -45.9970 C   0  0  0  0  0  0  0  0  0  0  0  0
   86.5690   97.0220  -45.8530 C   0  0  0  0  0  0  0  0  0  0  0  0
   86.0670   99.8130  -42.4040 H   0  0  0  0  0  0  0  0  0  0  0  0
   88.5370  100.1300  -42.1590 H   0  0  0  0  0  0  0  0  0  0  0  0
   90.4290   97.4580  -42.3200 H   0  0  0  0  0  0  0  0  0  0  0  0
   91.4630   97.2820  -43.7990 H   0  0  0  0  0  0  0  0  0  0  0  0
   93.2050   98.3280  -42.8380 H   0  0  0  0  0  0  0  0  0  0  0  0
   91.7640   98.0320  -40.3490 H   0  0  0  0  0  0  0  0  0  0  0  0
   91.3270  100.2100  -41.3560 H   0  0  0  0  0  0  0  0  0  0  0  0
   92.0320  100.4910  -43.0200 H   0  0  0  0  0  0  0  0  0  0  0  0
   94.1080   99.9200  -41.2130 H   0  0  0  0  0  0  0  0  0  0  0  0
   91.9570  101.7310  -40.3300 H   0  0  0  0  0  0  0  0  0  0  0  0
   92.7600  100.3740  -39.4730 H   0  0  0  0  0  0  0  0  0  0  0  0
   93.5100  102.5690  -38.7040 H   0  0  0  0  0  0  0  0  0  0  0  0
   94.8150  101.4370  -39.2300 H   0  0  0  0  0  0  0  0  0  0  0  0
   92.6040  103.1520  -41.6160 H   0  0  0  0  0  0  0  0  0  0  0  0
   94.0690  103.7230  -42.5260 H   0  0  0  0  0  0  0  0  0  0  0  0
   94.9520  101.4510  -42.5560 H   0  0  0  0  0  0  0  0  0  0  0  0
   93.3560  101.5540  -43.3390 H   0  0  0  0  0  0  0  0  0  0  0  0
   96.2750  104.5060  -42.8580 H   0  0  0  0  0  0  0  0  0  0  0  0
   98.5320  104.8840  -43.5210 H   0  0  0  0  0  0  0  0  0  0  0  0
  100.3190  104.9760  -41.8180 H   0  0  0  0  0  0  0  0  0  0  0  0
   99.7290  104.6760  -39.4870 H   0  0  0  0  0  0  0  0  0  0  0  0
   97.4780  104.2940  -38.7660 H   0  0  0  0  0  0  0  0  0  0  0  0
   84.1600   98.8040  -43.5270 H   0  0  0  0  0  0  0  0  0  0  0  0
   83.2470   97.3590  -45.2440 H   0  0  0  0  0  0  0  0  0  0  0  0
   84.7780   96.1950  -46.7610 H   0  0  0  0  0  0  0  0  0  0  0  0
   87.2650   96.5170  -46.5120 H   0  0  0  0  0  0  0  0  0  0  0  0
  1  2  1  0  0  0  0
  2  7  1  0  0  0  0
  3  2  2  0  0  0  0
  3  4  1  0  0  0  0
  4  5  2  0  0  0  0
  5  6  1  0  0  0  0
  5 31  1  0  0  0  0
  6 32  1  0  0  0  0
  7  8  1  0  0  0  0
  7  6  2  0  0  0  0
  8  9  1  0  0  0  0
  9 33  1  0  0  0  0
  9 10  1  0  0  0  0
 10 35  1  6  0  0  0
 10 12  1  0  0  0  0
 10 11  1  0  0  0  0
 11 36  1  0  0  0  0
 12 13  1  0  0  0  0
 12 37  1  0  0  0  0
 13 39  1  0  0  0  0
 13 14  1  0  0  0  0
 14 15  1  0  0  0  0
 14 41  1  0  0  0  0
 15 43  1  0  0  0  0
 15 42  1  0  0  0  0
 16 19  1  0  0  0  0
 16 15  1  0  0  0  0
 17 44  1  0  0  0  0
 17 16  1  0  0  0  0
 18 17  1  0  0  0  0
 18 13  1  0  0  0  0
 19 20  2  0  0  0  0
 21 19  1  0  0  0  0
 21 26  1  0  0  0  0
 22 21  2  0  0  0  0
 23 22  1  0  0  0  0
 23 24  2  0  0  0  0
 24 25  1  0  0  0  0
 25 26  2  0  0  0  0
 25 51  1  0  0  0  0
 26 52  1  0  0  0  0
 27  4  1  0  0  0  0
 27 53  1  0  0  0  0
 28 27  2  0  0  0  0
 29 30  2  0  0  0  0
 29 28  1  0  0  0  0
 30  3  1  0  0  0  0
 34  9  1  0  0  0  0
 38 12  1  0  0  0  0
 40 14  1  0  0  0  0
 45 17  1  0  0  0  0
 46 18  1  0  0  0  0
 47 18  1  0  0  0  0
 48 22  1  0  0  0  0
 49 23  1  0  0  0  0
 50 24  1  0  0  0  0
 54 28  1  0  0  0  0
 55 29  1  0  0  0  0
 56 30  1  0  0  0  0
M  END
>  <Pose>
1

>  <Score>
-5.13

$$$$
