
 OpenBabel03162216073D

 43 46  0  0  0  0  0  0  0  0999 V2000
   89.0190   96.2270  -47.6320 B   0  0  0  0  0  0  0  0  0  0  0  0
   87.9060   96.9350  -46.2600 C   0  0  0  0  0  0  0  0  0  0  0  0
   88.3730   97.7720  -45.2840 N   0  0  0  0  0  0  0  0  0  0  0  0
   87.2950   98.0440  -44.5220 C   0  0  0  0  0  0  0  0  0  0  0  0
   86.1710   97.3930  -45.0050 C   0  0  0  0  0  0  0  0  0  0  0  0
   86.5940   96.7110  -46.0910 N   0  0  0  0  0  0  0  0  0  0  0  0
   84.9490   97.4820  -44.4510 N   0  0  0  0  0  0  0  0  0  0  0  0
   84.8390   98.2620  -43.3610 C   0  0  0  0  0  0  0  0  0  0  0  0
   83.6990   98.3780  -42.7980 O   0  0  0  0  0  0  0  0  0  0  0  0
   85.9040   98.9130  -42.8590 N   0  0  0  0  0  0  0  0  0  0  0  0
   87.1430   98.8250  -43.4170 C   0  0  0  0  0  0  0  0  0  0  0  0
   88.1210   99.4380  -42.9410 O   0  0  0  0  0  0  0  0  0  0  0  0
   83.7810   96.7970  -44.9620 C   0  0  0  0  0  0  0  0  0  0  0  0
   89.7410   98.2340  -45.1750 C   0  0  0  0  0  0  0  0  0  0  0  0
   90.6770   97.2280  -44.5730 C   0  0  0  0  0  0  0  0  0  0  0  0
   92.1250   97.6270  -44.5940 C   0  0  0  0  0  0  0  0  0  0  0  0
   92.4060   98.5400  -43.4950 N   0  0  0  0  0  0  0  0  0  0  0  0
   92.8490   99.8170  -43.5550 C   0  0  0  0  0  0  0  0  0  0  0  0
   92.9870  100.3350  -42.2890 C   0  0  0  0  0  0  0  0  0  0  0  0
   92.6190   99.3460  -41.4520 N   0  0  0  0  0  0  0  0  0  0  0  0
   92.2710   98.2680  -42.1870 C   0  0  0  0  0  0  0  0  0  0  0  0
   91.6670   96.5810  -41.5260 B   0  0  0  0  0  0  0  0  0  0  0  0
   93.4120  101.5870  -42.0360 N   0  0  0  0  0  0  0  0  0  0  0  0
   93.7110  102.3520  -43.1140 C   0  0  0  0  0  0  0  0  0  0  0  0
   94.1100  103.5340  -42.8810 O   0  0  0  0  0  0  0  0  0  0  0  0
   93.5890  101.8840  -44.3740 N   0  0  0  0  0  0  0  0  0  0  0  0
   93.1620  100.6270  -44.6150 C   0  0  0  0  0  0  0  0  0  0  0  0
   93.0380  100.1610  -45.7740 O   0  0  0  0  0  0  0  0  0  0  0  0
   93.5430  102.0940  -40.6730 C   0  0  0  0  0  0  0  0  0  0  0  0
   85.8350   99.5210  -42.0150 H   0  0  0  0  0  0  0  0  0  0  0  0
   84.0600   95.9860  -45.6670 H   0  0  0  0  0  0  0  0  0  0  0  0
   83.2890   96.2670  -44.0970 H   0  0  0  0  0  0  0  0  0  0  0  0
   83.0780   97.4760  -45.4830 H   0  0  0  0  0  0  0  0  0  0  0  0
   89.7720   99.2130  -44.6480 H   0  0  0  0  0  0  0  0  0  0  0  0
   90.1040   98.3940  -46.2320 H   0  0  0  0  0  0  0  0  0  0  0  0
   90.5280   96.2130  -45.0040 H   0  0  0  0  0  0  0  0  0  0  0  0
   90.4010   97.1160  -43.4810 H   0  0  0  0  0  0  0  0  0  0  0  0
   92.7500   96.7120  -44.3740 H   0  0  0  0  0  0  0  0  0  0  0  0
   92.4210   98.0690  -45.5440 H   0  0  0  0  0  0  0  0  0  0  0  0
   93.8320  102.5170  -45.1610 H   0  0  0  0  0  0  0  0  0  0  0  0
   92.5530  102.1650  -40.1750 H   0  0  0  0  0  0  0  0  0  0  0  0
   94.1820  101.4330  -40.0550 H   0  0  0  0  0  0  0  0  0  0  0  0
   93.9490  103.1140  -40.7480 H   0  0  0  0  0  0  0  0  0  0  0  0
  1  2  1  0  0  0  0
  2  6  2  0  0  0  0
  2  3  1  0  0  0  0
  3 14  1  0  0  0  0
  3  4  1  0  0  0  0
  4 11  1  0  0  0  0
  5  4  2  0  0  0  0
  5  7  1  0  0  0  0
  6  5  1  0  0  0  0
  7  8  1  0  0  0  0
  8 10  1  0  0  0  0
  8  9  2  0  0  0  0
 10 30  1  0  0  0  0
 11 12  2  0  0  0  0
 11 10  1  0  0  0  0
 13  7  1  0  0  0  0
 13 32  1  0  0  0  0
 14 34  1  0  0  0  0
 14 15  1  0  0  0  0
 15 37  1  0  0  0  0
 16 15  1  0  0  0  0
 16 38  1  0  0  0  0
 16 17  1  0  0  0  0
 17 21  1  0  0  0  0
 18 17  1  0  0  0  0
 18 19  2  0  0  0  0
 19 23  1  0  0  0  0
 19 20  1  0  0  0  0
 21 22  1  0  0  0  0
 21 20  2  0  0  0  0
 23 29  1  0  0  0  0
 24 25  2  0  0  0  0
 24 23  1  0  0  0  0
 26 24  1  0  0  0  0
 27 26  1  0  0  0  0
 27 18  1  0  0  0  0
 28 27  2  0  0  0  0
 29 41  1  0  0  0  0
 29 42  1  0  0  0  0
 31 13  1  0  0  0  0
 33 13  1  0  0  0  0
 35 14  1  0  0  0  0
 36 15  1  0  0  0  0
 39 16  1  0  0  0  0
 40 26  1  0  0  0  0
 43 29  1  0  0  0  0
M  END
>  <Pose>
1

>  <Score>
-6.73

$$$$
