
 OpenBabel03212208273D

 37 40  0  0  1  0  0  0  0  0999 V2000
   92.4760   99.7350  -40.9710 B   0  0  0  0  0  0  0  0  0  0  0  0
   92.2480   97.9350  -41.5480 C   0  0  0  0  0  0  0  0  0  0  0  0
   92.4660   96.8110  -40.8300 N   0  0  0  0  0  0  0  0  0  0  0  0
   92.1800   95.7340  -41.5240 N   0  0  0  0  0  0  0  0  0  0  0  0
   91.7650   96.1640  -42.7290 C   0  0  0  0  0  0  0  0  0  0  0  0
   91.3390   95.5040  -43.8110 N   0  0  0  0  0  0  0  0  0  0  0  0
   90.9490   96.1540  -44.9230 C   0  0  0  0  0  0  0  0  0  0  0  0
   90.9790   97.4970  -44.9780 N   0  0  0  0  0  0  0  0  0  0  0  0
   91.4030   98.2420  -43.9110 C   0  0  0  0  0  0  0  0  0  0  0  0
   91.7930   97.5630  -42.7900 C   0  0  0  0  0  0  0  0  0  0  0  0
   91.4680   99.6690  -44.0490 N   0  0  0  0  0  0  0  0  0  0  0  0
   90.3150  100.4990  -43.8910 C   0  0  1  0  0  0  0  0  0  0  0  0
   90.3570  101.7270  -44.7160 C   0  0  0  0  0  0  0  0  0  0  0  0
   91.5350  102.0200  -45.3470 O   0  0  0  0  0  0  0  0  0  0  0  0
   92.6550  101.6920  -44.5910 C   0  0  0  0  0  0  0  0  0  0  0  0
   92.7570  100.2220  -44.3330 C   0  0  0  0  0  0  0  0  0  0  0  0
   89.0610   99.7270  -44.0400 C   0  0  0  0  0  0  0  0  0  0  0  0
   88.5150   99.3320  -45.1910 N   0  0  0  0  0  0  0  0  0  0  0  0
   87.3760   98.6570  -44.8640 C   0  0  0  0  0  0  0  0  0  0  0  0
   87.2910   98.6780  -43.5220 N   0  0  0  0  0  0  0  0  0  0  0  0
   88.3160   99.3270  -43.0500 O   0  0  0  0  0  0  0  0  0  0  0  0
   86.4130   98.0210  -45.7920 C   0  0  0  0  0  0  0  0  0  0  0  0
   92.2970   94.3630  -41.0640 C   0  0  0  0  0  0  0  0  0  0  0  0
   90.6130   95.5410  -45.7660 H   0  0  0  0  0  0  0  0  0  0  0  0
   90.3810  100.8770  -42.8000 H   0  0  0  0  0  0  0  0  0  0  0  0
   89.9640  102.6340  -44.1590 H   0  0  0  0  0  0  0  0  0  0  0  0
   89.5830  101.6000  -45.5330 H   0  0  0  0  0  0  0  0  0  0  0  0
   93.5420  101.9970  -45.1870 H   0  0  0  0  0  0  0  0  0  0  0  0
   92.7080  102.2950  -43.6500 H   0  0  0  0  0  0  0  0  0  0  0  0
   93.2890   99.6800  -45.1510 H   0  0  0  0  0  0  0  0  0  0  0  0
   93.3870  100.0170  -43.4140 H   0  0  0  0  0  0  0  0  0  0  0  0
   86.4000   98.6150  -46.7500 H   0  0  0  0  0  0  0  0  0  0  0  0
   85.3820   98.0290  -45.3970 H   0  0  0  0  0  0  0  0  0  0  0  0
   86.7100   96.9750  -46.0550 H   0  0  0  0  0  0  0  0  0  0  0  0
   92.9500   94.3310  -40.1710 H   0  0  0  0  0  0  0  0  0  0  0  0
   92.7650   93.7470  -41.8710 H   0  0  0  0  0  0  0  0  0  0  0  0
   91.3080   93.9450  -40.7460 H   0  0  0  0  0  0  0  0  0  0  0  0
  2  1  1  0  0  0  0
  2  3  2  0  0  0  0
  4 23  1  0  0  0  0
  4  3  1  0  0  0  0
  5  4  1  0  0  0  0
  6  5  1  0  0  0  0
  7  6  2  0  0  0  0
  8  7  1  0  0  0  0
  8  9  2  0  0  0  0
  9 10  1  0  0  0  0
 10  5  2  0  0  0  0
 10  2  1  0  0  0  0
 11  9  1  0  0  0  0
 11 12  1  0  0  0  0
 12 25  1  1  0  0  0
 13 26  1  0  0  0  0
 13 12  1  0  0  0  0
 14 13  1  0  0  0  0
 14 15  1  0  0  0  0
 15 16  1  0  0  0  0
 15 29  1  0  0  0  0
 16 11  1  0  0  0  0
 16 31  1  0  0  0  0
 17 12  1  0  0  0  0
 17 21  1  0  0  0  0
 18 19  1  0  0  0  0
 18 17  2  0  0  0  0
 19 20  2  0  0  0  0
 20 21  1  0  0  0  0
 22 33  1  0  0  0  0
 22 19  1  0  0  0  0
 23 37  1  0  0  0  0
 23 35  1  0  0  0  0
 24  7  1  0  0  0  0
 27 13  1  0  0  0  0
 28 15  1  0  0  0  0
 30 16  1  0  0  0  0
 32 22  1  0  0  0  0
 34 22  1  0  0  0  0
 36 23  1  0  0  0  0
M  END
>  <Pose>
1

>  <Score>
-4.49

$$$$
