
 OpenBabel03212208273D

 49 52  0  0  1  0  0  0  0  0999 V2000
   92.2930  103.9290  -35.5390 B   0  0  0  0  0  0  0  0  0  0  0  0
   92.5650  103.3540  -37.3560 C   0  0  0  0  0  0  0  0  0  0  0  0
   93.5950  102.6800  -37.7960 O   0  0  0  0  0  0  0  0  0  0  0  0
   93.4750  102.4420  -39.1030 C   0  0  0  0  0  0  0  0  0  0  0  0
   92.2850  103.0100  -39.4990 C   0  0  0  0  0  0  0  0  0  0  0  0
   91.6940  103.5930  -38.4070 C   0  0  0  0  0  0  0  0  0  0  0  0
   94.4440  101.7160  -39.9090 C   0  0  0  0  0  0  0  0  0  0  0  0
   95.6180  102.1320  -39.9890 O   0  0  0  0  0  0  0  0  0  0  0  0
   94.0720  100.5480  -40.5990 N   0  0  0  0  0  0  0  0  0  0  0  0
   92.7260  100.2960  -41.0720 C   0  0  1  0  0  0  0  0  0  0  0  0
   92.4330  101.2190  -42.1990 C   0  0  0  0  0  0  0  0  0  0  0  0
   92.4910   98.8680  -41.3490 C   0  0  0  0  0  0  0  0  0  0  0  0
   93.1230   98.0430  -40.6010 O   0  0  0  0  0  0  0  0  0  0  0  0
   91.6570   98.3230  -42.3310 N   0  0  0  0  0  0  0  0  0  0  0  0
   91.8510   98.5600  -43.7470 C   0  0  0  0  0  0  0  0  0  0  0  0
   92.1220   97.2410  -44.4020 C   0  0  0  0  0  0  0  0  0  0  0  0
   91.0830   96.2200  -44.0660 C   0  0  1  0  0  0  0  0  0  0  0  0
   90.5120   95.7210  -45.3050 N   0  0  0  0  0  0  0  0  0  0  0  0
   91.5550   95.0140  -46.0250 C   0  0  0  0  0  0  0  0  0  0  0  0
   91.6280   93.6150  -45.4030 C   0  0  0  0  0  0  0  0  0  0  0  0
   91.8950   93.8310  -43.9600 C   0  0  0  0  0  0  0  0  0  0  0  0
   92.3910   92.9780  -43.0440 N   0  0  0  0  0  0  0  0  0  0  0  0
   92.4480   93.6370  -41.8760 C   0  0  0  0  0  0  0  0  0  0  0  0
   91.9890   94.8850  -42.0770 N   0  0  0  0  0  0  0  0  0  0  0  0
   91.6370   95.0400  -43.3640 C   0  0  0  0  0  0  0  0  0  0  0  0
   89.9710   96.8680  -43.2420 C   0  0  0  0  0  0  0  0  0  0  0  0
   90.5240   97.4800  -41.9970 C   0  0  0  0  0  0  0  0  0  0  0  0
   91.9110  102.9830  -40.5040 H   0  0  0  0  0  0  0  0  0  0  0  0
   90.7460  104.1300  -38.3580 H   0  0  0  0  0  0  0  0  0  0  0  0
   94.7940   99.8210  -40.7840 H   0  0  0  0  0  0  0  0  0  0  0  0
   92.0320  100.5770  -40.2270 H   0  0  0  0  0  0  0  0  0  0  0  0
   93.3200  101.8630  -42.3750 H   0  0  0  0  0  0  0  0  0  0  0  0
   91.6020  101.9330  -42.0210 H   0  0  0  0  0  0  0  0  0  0  0  0
   92.2830  100.6850  -43.1660 H   0  0  0  0  0  0  0  0  0  0  0  0
   92.6010   99.3270  -43.9570 H   0  0  0  0  0  0  0  0  0  0  0  0
   90.8940   98.9760  -44.1830 H   0  0  0  0  0  0  0  0  0  0  0  0
   92.1140   97.4320  -45.5150 H   0  0  0  0  0  0  0  0  0  0  0  0
   93.1510   96.9090  -44.1550 H   0  0  0  0  0  0  0  0  0  0  0  0
   90.2120   96.5170  -45.9350 H   0  0  0  0  0  0  0  0  0  0  0  0
   91.3970   94.9810  -47.1050 H   0  0  0  0  0  0  0  0  0  0  0  0
   92.5640   95.4670  -45.8170 H   0  0  0  0  0  0  0  0  0  0  0  0
   90.6020   93.1750  -45.4750 H   0  0  0  0  0  0  0  0  0  0  0  0
   92.3850   92.9970  -45.8950 H   0  0  0  0  0  0  0  0  0  0  0  0
   92.6930   91.9780  -43.1610 H   0  0  0  0  0  0  0  0  0  0  0  0
   92.7930   93.2590  -40.9320 H   0  0  0  0  0  0  0  0  0  0  0  0
   89.2620   96.0470  -42.9850 H   0  0  0  0  0  0  0  0  0  0  0  0
   89.4540   97.5750  -43.9010 H   0  0  0  0  0  0  0  0  0  0  0  0
   89.7360   98.1910  -41.6090 H   0  0  0  0  0  0  0  0  0  0  0  0
   90.7510   96.7590  -41.2050 H   0  0  0  0  0  0  0  0  0  0  0  0
  2  1  1  0  0  0  0
  3  2  1  0  0  0  0
  4  3  1  0  0  0  0
  5  4  2  0  0  0  0
  5  6  1  0  0  0  0
  6 29  1  0  0  0  0
  6  2  2  0  0  0  0
  7  4  1  0  0  0  0
  8  7  2  0  0  0  0
  9  7  1  0  0  0  0
 10  9  1  0  0  0  0
 10 31  1  1  0  0  0
 11 33  1  0  0  0  0
 11 10  1  0  0  0  0
 12 10  1  0  0  0  0
 12 13  2  0  0  0  0
 14 27  1  0  0  0  0
 14 12  1  0  0  0  0
 15 14  1  0  0  0  0
 16 38  1  0  0  0  0
 16 17  1  0  0  0  0
 16 15  1  0  0  0  0
 17 25  1  1  0  0  0
 17 26  1  0  0  0  0
 18 17  1  0  0  0  0
 19 41  1  0  0  0  0
 19 20  1  0  0  0  0
 19 18  1  0  0  0  0
 20 21  1  0  0  0  0
 21 25  2  0  0  0  0
 21 22  1  0  0  0  0
 22 23  1  0  0  0  0
 23 45  1  0  0  0  0
 24 23  2  0  0  0  0
 25 24  1  0  0  0  0
 26 46  1  0  0  0  0
 26 27  1  0  0  0  0
 27 48  1  0  0  0  0
 27 49  1  0  0  0  0
 28  5  1  0  0  0  0
 30  9  1  0  0  0  0
 32 11  1  0  0  0  0
 34 11  1  0  0  0  0
 35 15  1  0  0  0  0
 36 15  1  0  0  0  0
 37 16  1  0  0  0  0
 39 18  1  0  0  0  0
 40 19  1  0  0  0  0
 42 20  1  0  0  0  0
 43 20  1  0  0  0  0
 44 22  1  0  0  0  0
 47 26  1  0  0  0  0
M  END
>  <Pose>
1

>  <Score>
-5.68

$$$$
