
 OpenBabel03212208273D

 53 56  0  0  0  0  0  0  0  0999 V2000
   83.6910   95.7420  -45.6830 B   0  0  0  0  0  0  0  0  0  0  0  0
   84.9220   96.9600  -44.8760 C   0  0  0  0  0  0  0  0  0  0  0  0
   86.0880   97.3060  -45.3600 O   0  0  0  0  0  0  0  0  0  0  0  0
   86.7130   98.1600  -44.5890 C   0  0  0  0  0  0  0  0  0  0  0  0
   85.8860   98.3880  -43.5160 C   0  0  0  0  0  0  0  0  0  0  0  0
   84.7520   97.6360  -43.6870 C   0  0  0  0  0  0  0  0  0  0  0  0
   88.0470   98.7580  -44.8280 C   0  0  0  0  0  0  0  0  0  0  0  0
   88.2650   99.9300  -44.4850 O   0  0  0  0  0  0  0  0  0  0  0  0
   89.0580   97.9790  -45.4490 N   0  0  0  0  0  0  0  0  0  0  0  0
   88.7090   96.8100  -46.2530 C   0  0  0  0  0  0  0  0  0  0  0  0
   89.9780   96.1190  -46.7460 C   0  0  0  0  0  0  0  0  0  0  0  0
   90.8400   95.9320  -45.5960 N   0  0  0  0  0  0  0  0  0  0  0  0
   91.2320   97.0870  -44.8340 C   0  0  0  0  0  0  0  0  0  0  0  0
   90.4680   98.2900  -45.3230 C   0  0  0  0  0  0  0  0  0  0  0  0
   91.3030   94.6310  -45.2120 C   0  0  0  0  0  0  0  0  0  0  0  0
   91.9000   94.4170  -44.0310 N   0  0  0  0  0  0  0  0  0  0  0  0
   92.3230   93.1910  -43.7000 C   0  0  0  0  0  0  0  0  0  0  0  0
   92.1700   92.1400  -44.5290 N   0  0  0  0  0  0  0  0  0  0  0  0
   91.5800   92.2870  -45.7290 C   0  0  0  0  0  0  0  0  0  0  0  0
   91.1500   93.5570  -46.0510 C   0  0  0  0  0  0  0  0  0  0  0  0
   91.3950   91.2140  -46.6350 N   0  0  0  0  0  0  0  0  0  0  0  0
   92.3610   90.9690  -47.6860 C   0  0  0  0  0  0  0  0  0  0  0  0
   92.0570   89.6040  -48.2670 C   0  0  0  0  0  0  0  0  0  0  0  0
   90.7320   89.6240  -48.8270 N   0  0  0  0  0  0  0  0  0  0  0  0
   89.7280   90.1880  -47.9820 C   0  0  0  0  0  0  0  0  0  0  0  0
   90.2580   90.3160  -46.5690 C   0  0  0  0  0  0  0  0  0  0  0  0
   90.7680   90.1690  -50.1600 C   0  0  0  0  0  0  0  0  0  0  0  0
   92.9810   92.9640  -42.3900 C   0  0  0  0  0  0  0  0  0  0  0  0
   86.0800   99.0400  -42.6800 H   0  0  0  0  0  0  0  0  0  0  0  0
   83.8730   97.5690  -43.0250 H   0  0  0  0  0  0  0  0  0  0  0  0
   88.0710   97.0930  -47.1050 H   0  0  0  0  0  0  0  0  0  0  0  0
   88.1310   96.1040  -45.6190 H   0  0  0  0  0  0  0  0  0  0  0  0
   89.7330   95.1550  -47.1960 H   0  0  0  0  0  0  0  0  0  0  0  0
   90.4580   96.8150  -47.4690 H   0  0  0  0  0  0  0  0  0  0  0  0
   91.0620   96.9100  -43.7440 H   0  0  0  0  0  0  0  0  0  0  0  0
   92.3240   97.2870  -45.0250 H   0  0  0  0  0  0  0  0  0  0  0  0
   90.6500   99.1660  -44.6870 H   0  0  0  0  0  0  0  0  0  0  0  0
   90.8410   98.5200  -46.3510 H   0  0  0  0  0  0  0  0  0  0  0  0
   90.6690   93.7260  -47.0040 H   0  0  0  0  0  0  0  0  0  0  0  0
   92.2680   91.7380  -48.4640 H   0  0  0  0  0  0  0  0  0  0  0  0
   93.3700   91.0050  -47.2240 H   0  0  0  0  0  0  0  0  0  0  0  0
   92.7910   89.4290  -49.0730 H   0  0  0  0  0  0  0  0  0  0  0  0
   92.1780   88.8330  -47.4890 H   0  0  0  0  0  0  0  0  0  0  0  0
   88.8200   89.5500  -47.9640 H   0  0  0  0  0  0  0  0  0  0  0  0
   89.4240   91.1890  -48.3250 H   0  0  0  0  0  0  0  0  0  0  0  0
   90.6390   89.3180  -46.2390 H   0  0  0  0  0  0  0  0  0  0  0  0
   89.4950   90.7150  -45.8740 H   0  0  0  0  0  0  0  0  0  0  0  0
   91.7880   90.2830  -50.5370 H   0  0  0  0  0  0  0  0  0  0  0  0
   90.2190   89.4610  -50.8350 H   0  0  0  0  0  0  0  0  0  0  0  0
   90.2440   91.1480  -50.1770 H   0  0  0  0  0  0  0  0  0  0  0  0
   92.6780   91.9670  -42.0090 H   0  0  0  0  0  0  0  0  0  0  0  0
   94.0830   93.0010  -42.5080 H   0  0  0  0  0  0  0  0  0  0  0  0
   92.6160   93.7040  -41.6560 H   0  0  0  0  0  0  0  0  0  0  0  0
  1  2  1  0  0  0  0
  2  6  2  0  0  0  0
  3  2  1  0  0  0  0
  3  4  1  0  0  0  0
  4  5  2  0  0  0  0
  5 29  1  0  0  0  0
  6  5  1  0  0  0  0
  6 30  1  0  0  0  0
  7  4  1  0  0  0  0
  7  8  2  0  0  0  0
  9 14  1  0  0  0  0
  9  7  1  0  0  0  0
 10 32  1  0  0  0  0
 10  9  1  0  0  0  0
 11 10  1  0  0  0  0
 11 12  1  0  0  0  0
 12 15  1  0  0  0  0
 12 13  1  0  0  0  0
 13 35  1  0  0  0  0
 14 13  1  0  0  0  0
 14 37  1  0  0  0  0
 15 16  1  0  0  0  0
 16 17  2  0  0  0  0
 17 28  1  0  0  0  0
 18 17  1  0  0  0  0
 19 18  2  0  0  0  0
 20 19  1  0  0  0  0
 20 15  2  0  0  0  0
 21 26  1  0  0  0  0
 21 19  1  0  0  0  0
 22 41  1  0  0  0  0
 22 21  1  0  0  0  0
 23 22  1  0  0  0  0
 23 43  1  0  0  0  0
 24 23  1  0  0  0  0
 24 25  1  0  0  0  0
 25 44  1  0  0  0  0
 25 26  1  0  0  0  0
 26 46  1  0  0  0  0
 26 47  1  0  0  0  0
 27 24  1  0  0  0  0
 28 51  1  0  0  0  0
 28 53  1  0  0  0  0
 31 10  1  0  0  0  0
 33 11  1  0  0  0  0
 34 11  1  0  0  0  0
 36 13  1  0  0  0  0
 38 14  1  0  0  0  0
 39 20  1  0  0  0  0
 40 22  1  0  0  0  0
 42 23  1  0  0  0  0
 45 25  1  0  0  0  0
 48 27  1  0  0  0  0
 49 27  1  0  0  0  0
 50 27  1  0  0  0  0
 52 28  1  0  0  0  0
M  END
>  <Pose>
1

>  <Score>
-4.83

$$$$
