
 OpenBabel03212208273D

 43 46  0  0  0  0  0  0  0  0999 V2000
   89.4020   91.4900  -51.5920 B   0  0  0  0  0  0  0  0  0  0  0  0
   90.4130   91.2490  -50.0050 C   0  0  0  0  0  0  0  0  0  0  0  0
   90.4690   92.0050  -48.9510 O   0  0  0  0  0  0  0  0  0  0  0  0
   91.2780   91.5290  -48.0380 C   0  0  0  0  0  0  0  0  0  0  0  0
   91.7960   90.3530  -48.5480 C   0  0  0  0  0  0  0  0  0  0  0  0
   91.2560   90.1530  -49.8100 C   0  0  0  0  0  0  0  0  0  0  0  0
   91.5910   92.1020  -46.7350 C   0  0  0  0  0  0  0  0  0  0  0  0
   92.3150   91.5440  -45.7380 N   0  0  0  0  0  0  0  0  0  0  0  0
   92.3730   92.3650  -44.7290 O   0  0  0  0  0  0  0  0  0  0  0  0
   91.7170   93.4640  -45.0010 C   0  0  0  0  0  0  0  0  0  0  0  0
   91.2350   93.2990  -46.2380 N   0  0  0  0  0  0  0  0  0  0  0  0
   91.5950   94.5830  -44.0740 C   0  0  0  0  0  0  0  0  0  0  0  0
   91.9910   94.4540  -42.8660 O   0  0  0  0  0  0  0  0  0  0  0  0
   91.0430   95.8330  -44.4690 N   0  0  0  0  0  0  0  0  0  0  0  0
   91.8640   96.9220  -44.8770 C   0  0  0  0  0  0  0  0  0  0  0  0
   91.7370   98.1290  -43.9720 C   0  0  0  0  0  0  0  0  0  0  0  0
   90.3550   98.3420  -43.5650 N   0  0  0  0  0  0  0  0  0  0  0  0
   89.4140   98.7440  -44.5290 C   0  0  0  0  0  0  0  0  0  0  0  0
   89.5940   99.9180  -45.0130 O   0  0  0  0  0  0  0  0  0  0  0  0
   88.2860   98.0010  -45.0310 C   0  0  0  0  0  0  0  0  0  0  0  0
   87.0590   98.1350  -44.3830 C   0  0  0  0  0  0  0  0  0  0  0  0
   85.9660   97.4470  -44.8460 C   0  0  0  0  0  0  0  0  0  0  0  0
   86.0750   96.6350  -45.9320 C   0  0  0  0  0  0  0  0  0  0  0  0
   84.9590   95.9370  -46.4000 C   0  0  0  0  0  0  0  0  0  0  0  0
   83.7330   96.0440  -45.7900 C   0  0  0  0  0  0  0  0  0  0  0  0
   83.6290   96.8630  -44.6950 C   0  0  0  0  0  0  0  0  0  0  0  0
   84.7200   97.5580  -44.2220 C   0  0  0  0  0  0  0  0  0  0  0  0
   87.2340   96.5320  -46.5150 O   0  0  0  0  0  0  0  0  0  0  0  0
   88.3310   97.1680  -46.1200 C   0  0  0  0  0  0  0  0  0  0  0  0
   89.3850   96.9790  -46.7710 O   0  0  0  0  0  0  0  0  0  0  0  0
   92.4880   89.7410  -48.0250 H   0  0  0  0  0  0  0  0  0  0  0  0
   91.4510   89.3230  -50.4840 H   0  0  0  0  0  0  0  0  0  0  0  0
   90.0120   95.9460  -44.4550 H   0  0  0  0  0  0  0  0  0  0  0  0
   91.5040   97.2520  -45.8900 H   0  0  0  0  0  0  0  0  0  0  0  0
   92.9200   96.6210  -45.0170 H   0  0  0  0  0  0  0  0  0  0  0  0
   92.3050   97.9010  -43.0460 H   0  0  0  0  0  0  0  0  0  0  0  0
   92.1860   99.0280  -44.4310 H   0  0  0  0  0  0  0  0  0  0  0  0
   90.0490   98.2010  -42.5850 H   0  0  0  0  0  0  0  0  0  0  0  0
   86.9510   98.7820  -43.5090 H   0  0  0  0  0  0  0  0  0  0  0  0
   85.0800   95.3030  -47.2630 H   0  0  0  0  0  0  0  0  0  0  0  0
   82.8970   95.4880  -46.1830 H   0  0  0  0  0  0  0  0  0  0  0  0
   82.6720   96.9530  -44.2090 H   0  0  0  0  0  0  0  0  0  0  0  0
   84.6480   98.2040  -43.3620 H   0  0  0  0  0  0  0  0  0  0  0  0
  1  2  1  0  0  0  0
  2  6  2  0  0  0  0
  2  3  1  0  0  0  0
  3  4  1  0  0  0  0
  4  7  1  0  0  0  0
  5  4  2  0  0  0  0
  5 31  1  0  0  0  0
  6  5  1  0  0  0  0
  7 11  1  0  0  0  0
  7  8  2  0  0  0  0
  8  9  1  0  0  0  0
 10  9  1  0  0  0  0
 10 12  1  0  0  0  0
 11 10  2  0  0  0  0
 12 13  2  0  0  0  0
 14 33  1  0  0  0  0
 14 12  1  0  0  0  0
 15 14  1  0  0  0  0
 15 16  1  0  0  0  0
 16 17  1  0  0  0  0
 16 36  1  0  0  0  0
 17 38  1  0  0  0  0
 18 17  1  0  0  0  0
 19 18  2  0  0  0  0
 20 18  1  0  0  0  0
 20 21  2  0  0  0  0
 21 39  1  0  0  0  0
 22 21  1  0  0  0  0
 22 27  1  0  0  0  0
 23 22  2  0  0  0  0
 24 23  1  0  0  0  0
 24 25  2  0  0  0  0
 25 26  1  0  0  0  0
 26 27  2  0  0  0  0
 26 42  1  0  0  0  0
 27 43  1  0  0  0  0
 28 29  1  0  0  0  0
 28 23  1  0  0  0  0
 29 20  1  0  0  0  0
 30 29  2  0  0  0  0
 32  6  1  0  0  0  0
 34 15  1  0  0  0  0
 35 15  1  0  0  0  0
 37 16  1  0  0  0  0
 40 24  1  0  0  0  0
 41 25  1  0  0  0  0
M  END
>  <Pose>
1

>  <Score>
-5.61

$$$$
