
 OpenBabel03212208273D

 43 46  0  0  0  0  0  0  0  0999 V2000
   91.5150   93.6360  -45.4530 B   0  0  0  0  0  0  0  0  0  0  0  0
   91.7370   94.3330  -43.7160 C   0  0  0  0  0  0  0  0  0  0  0  0
   91.7810   95.7100  -43.4790 C   0  0  0  0  0  0  0  0  0  0  0  0
   91.9450   96.1670  -42.1990 C   0  0  0  0  0  0  0  0  0  0  0  0
   92.0600   95.2040  -41.1930 C   0  0  0  0  0  0  0  0  0  0  0  0
   92.0130   93.9380  -41.4620 O   0  0  0  0  0  0  0  0  0  0  0  0
   91.8600   93.4740  -42.6520 C   0  0  0  0  0  0  0  0  0  0  0  0
   91.8280   92.2260  -42.8130 O   0  0  0  0  0  0  0  0  0  0  0  0
   92.0040   97.5740  -41.8500 C   0  0  0  0  0  0  0  0  0  0  0  0
   92.9150   97.8180  -40.9270 O   0  0  0  0  0  0  0  0  0  0  0  0
   91.2970   98.6790  -42.2990 N   0  0  0  0  0  0  0  0  0  0  0  0
   90.5250   98.5700  -43.5630 C   0  0  0  0  0  0  0  0  0  0  0  0
   89.0860   98.9380  -43.2850 C   0  0  0  0  0  0  0  0  0  0  0  0
   89.0250  100.2380  -42.7450 N   0  0  0  0  0  0  0  0  0  0  0  0
   90.3140  100.8210  -42.5910 C   0  0  0  0  0  0  0  0  0  0  0  0
   91.2120   99.9470  -41.6830 C   0  0  0  0  0  0  0  0  0  0  0  0
   88.0900  101.1320  -43.3520 C   0  0  0  0  0  0  0  0  0  0  0  0
   86.6680  100.8320  -43.1030 C   0  0  0  0  0  0  0  0  0  0  0  0
   86.0740   99.6360  -43.3450 C   0  0  0  0  0  0  0  0  0  0  0  0
   84.7390   99.4530  -43.0840 C   0  0  0  0  0  0  0  0  0  0  0  0
   84.0020  100.4880  -42.5740 C   0  0  0  0  0  0  0  0  0  0  0  0
   84.5830  101.7100  -42.3200 C   0  0  0  0  0  0  0  0  0  0  0  0
   85.9040  101.8630  -42.5880 C   0  0  0  0  0  0  0  0  0  0  0  0
   82.6920  100.0770  -42.3930 O   0  0  0  0  0  0  0  0  0  0  0  0
   82.5450   98.8810  -43.1450 C   0  0  0  0  0  0  0  0  0  0  0  0
   83.8610   98.3670  -43.2230 O   0  0  0  0  0  0  0  0  0  0  0  0
   91.6810   96.3360  -44.3340 H   0  0  0  0  0  0  0  0  0  0  0  0
   92.1940   95.5070  -40.1310 H   0  0  0  0  0  0  0  0  0  0  0  0
   90.5920   97.5110  -43.9050 H   0  0  0  0  0  0  0  0  0  0  0  0
   90.9490   99.2330  -44.3140 H   0  0  0  0  0  0  0  0  0  0  0  0
   88.5170   98.8720  -44.2630 H   0  0  0  0  0  0  0  0  0  0  0  0
   88.5850   98.1510  -42.6620 H   0  0  0  0  0  0  0  0  0  0  0  0
   90.8880  101.0270  -43.4890 H   0  0  0  0  0  0  0  0  0  0  0  0
   90.1560  101.7940  -42.0460 H   0  0  0  0  0  0  0  0  0  0  0  0
   90.7730   99.9880  -40.6760 H   0  0  0  0  0  0  0  0  0  0  0  0
   92.2200  100.4450  -41.6310 H   0  0  0  0  0  0  0  0  0  0  0  0
   88.2760  102.1510  -42.8980 H   0  0  0  0  0  0  0  0  0  0  0  0
   88.2440  101.2730  -44.4350 H   0  0  0  0  0  0  0  0  0  0  0  0
   86.6340   98.8100  -43.7410 H   0  0  0  0  0  0  0  0  0  0  0  0
   83.9930  102.5180  -41.9190 H   0  0  0  0  0  0  0  0  0  0  0  0
   86.3480  102.8330  -42.3810 H   0  0  0  0  0  0  0  0  0  0  0  0
   82.0840   99.0400  -44.1180 H   0  0  0  0  0  0  0  0  0  0  0  0
   81.9460   98.1260  -42.5910 H   0  0  0  0  0  0  0  0  0  0  0  0
  1  2  1  0  0  0  0
  2  3  2  0  0  0  0
  2  7  1  0  0  0  0
  3  4  1  0  0  0  0
  4  9  1  0  0  0  0
  4  5  2  0  0  0  0
  5 28  1  0  0  0  0
  6  5  1  0  0  0  0
  7  6  1  0  0  0  0
  8  7  2  0  0  0  0
  9 10  2  0  0  0  0
 11  9  1  0  0  0  0
 11 16  1  0  0  0  0
 12 13  1  0  0  0  0
 12 11  1  0  0  0  0
 13 14  1  0  0  0  0
 13 32  1  0  0  0  0
 14 15  1  0  0  0  0
 15 34  1  0  0  0  0
 15 16  1  0  0  0  0
 16 36  1  0  0  0  0
 16 35  1  0  0  0  0
 17 18  1  0  0  0  0
 17 37  1  0  0  0  0
 17 14  1  0  0  0  0
 18 23  1  0  0  0  0
 19 18  2  0  0  0  0
 19 20  1  0  0  0  0
 20 21  2  0  0  0  0
 21 24  1  0  0  0  0
 21 22  1  0  0  0  0
 22 40  1  0  0  0  0
 23 41  1  0  0  0  0
 23 22  2  0  0  0  0
 25 43  1  0  0  0  0
 25 24  1  0  0  0  0
 26 25  1  0  0  0  0
 26 20  1  0  0  0  0
 27  3  1  0  0  0  0
 29 12  1  0  0  0  0
 30 12  1  0  0  0  0
 31 13  1  0  0  0  0
 33 15  1  0  0  0  0
 38 17  1  0  0  0  0
 39 19  1  0  0  0  0
 42 25  1  0  0  0  0
M  END
>  <Pose>
1

>  <Score>
-4.68

$$$$
