
 OpenBabel03212208273D

 63 66  0  0  1  0  0  0  0  0999 V2000
   87.1210   96.9830  -47.2360 B   0  0  0  0  0  0  0  0  0  0  0  0
   86.1850   97.3590  -45.6220 C   0  0  0  0  0  0  0  0  0  0  0  0
   86.6580   98.3590  -44.8120 C   0  0  0  0  0  0  0  0  0  0  0  0
   86.0690   98.7010  -43.6520 N   0  0  0  0  0  0  0  0  0  0  0  0
   84.9550   97.9740  -43.3360 C   0  0  0  0  0  0  0  0  0  0  0  0
   84.3440   98.2370  -42.2590 O   0  0  0  0  0  0  0  0  0  0  0  0
   84.4730   97.0030  -44.0940 N   0  0  0  0  0  0  0  0  0  0  0  0
   85.0610   96.6620  -45.2530 C   0  0  0  0  0  0  0  0  0  0  0  0
   84.6350   95.7480  -46.0010 O   0  0  0  0  0  0  0  0  0  0  0  0
   86.5350   99.7370  -42.7870 C   0  0  2  0  0  0  0  0  0  0  0  0
   86.6850  101.0820  -43.5090 C   0  0  2  0  0  0  0  0  0  0  0  0
   88.0230  101.1390  -44.1630 C   0  0  0  0  0  0  0  0  0  0  0  0
   89.0880  101.0770  -43.0920 C   0  0  0  0  0  0  0  0  0  0  0  0
   88.6130  100.5660  -41.8980 O   0  0  0  0  0  0  0  0  0  0  0  0
   87.8030   99.4490  -42.0530 C   0  0  0  0  0  0  0  0  0  0  0  0
   90.2480  100.3370  -43.6500 C   0  0  0  0  0  0  0  0  0  0  0  0
   91.3550  100.2980  -42.5840 C   0  0  0  0  0  0  0  0  0  0  0  0
   91.8270  101.6310  -42.4020 N   0  0  0  0  0  0  0  0  0  0  0  0
   91.0060  102.6820  -43.0920 C   0  0  0  0  0  0  0  0  0  0  0  0
   89.5500  102.4930  -42.8250 C   0  0  0  0  0  0  0  0  0  0  0  0
   92.9300  102.0180  -41.6670 C   0  0  0  0  0  0  0  0  0  0  0  0
   94.0940  101.7960  -42.2410 O   0  0  0  0  0  0  0  0  0  0  0  0
   93.0300  102.6200  -40.3850 C   0  0  0  0  0  0  0  0  0  0  0  0
   94.2060  103.2960  -40.0120 C   0  0  0  0  0  0  0  0  0  0  0  0
   94.4160  103.9260  -38.8260 C   0  0  0  0  0  0  0  0  0  0  0  0
   93.3530  103.8920  -37.9000 C   0  0  0  0  0  0  0  0  0  0  0  0
   92.2120  103.2490  -38.2360 C   0  0  0  0  0  0  0  0  0  0  0  0
   92.0260  102.6050  -39.4720 C   0  0  0  0  0  0  0  0  0  0  0  0
   95.5740  104.5670  -38.4990 O   0  0  0  0  0  0  0  0  0  0  0  0
   96.4020  105.3810  -39.2130 C   0  0  0  0  0  0  0  0  0  0  0  0
   97.5940  104.6700  -39.7550 C   0  0  0  0  0  0  0  0  0  0  0  0
   97.3930  103.2240  -39.6450 N   0  0  0  0  0  0  0  0  0  0  0  0
   86.6530  102.0650  -42.5160 O   0  0  0  0  0  0  0  0  0  0  0  0
   85.5390  101.3300  -44.4360 C   0  0  0  0  0  0  0  0  0  0  0  0
   87.5250   98.8930  -45.1030 H   0  0  0  0  0  0  0  0  0  0  0  0
   83.6210   96.4660  -43.8280 H   0  0  0  0  0  0  0  0  0  0  0  0
   85.7100   99.9320  -42.0380 H   0  0  0  0  0  0  0  0  0  0  0  0
   88.1780  100.3840  -44.9570 H   0  0  0  0  0  0  0  0  0  0  0  0
   88.0740  102.1300  -44.7040 H   0  0  0  0  0  0  0  0  0  0  0  0
   88.4170   98.6450  -42.4540 H   0  0  0  0  0  0  0  0  0  0  0  0
   87.5390   99.1300  -41.0010 H   0  0  0  0  0  0  0  0  0  0  0  0
   90.6520  100.8690  -44.5180 H   0  0  0  0  0  0  0  0  0  0  0  0
   90.0100   99.3070  -43.9850 H   0  0  0  0  0  0  0  0  0  0  0  0
   92.1410   99.6260  -43.0420 H   0  0  0  0  0  0  0  0  0  0  0  0
   90.8970   99.8200  -41.7050 H   0  0  0  0  0  0  0  0  0  0  0  0
   91.2480  102.7280  -44.1530 H   0  0  0  0  0  0  0  0  0  0  0  0
   91.3510  103.6490  -42.6570 H   0  0  0  0  0  0  0  0  0  0  0  0
   89.3890  102.7800  -41.7450 H   0  0  0  0  0  0  0  0  0  0  0  0
   88.9780  103.2300  -43.4370 H   0  0  0  0  0  0  0  0  0  0  0  0
   94.9850  103.3260  -40.7440 H   0  0  0  0  0  0  0  0  0  0  0  0
   93.5340  104.3960  -36.9650 H   0  0  0  0  0  0  0  0  0  0  0  0
   91.3990  103.2330  -37.5060 H   0  0  0  0  0  0  0  0  0  0  0  0
   91.0720  102.1560  -39.5900 H   0  0  0  0  0  0  0  0  0  0  0  0
   96.8090  106.1940  -38.5250 H   0  0  0  0  0  0  0  0  0  0  0  0
   95.8460  105.8940  -40.0540 H   0  0  0  0  0  0  0  0  0  0  0  0
   97.8810  104.8640  -40.7770 H   0  0  0  0  0  0  0  0  0  0  0  0
   98.4670  104.8650  -39.0640 H   0  0  0  0  0  0  0  0  0  0  0  0
   98.2820  102.7050  -39.6710 H   0  0  0  0  0  0  0  0  0  0  0  0
   96.6630  102.8740  -40.2720 H   0  0  0  0  0  0  0  0  0  0  0  0
   87.0200  101.7510  -41.6520 H   0  0  0  0  0  0  0  0  0  0  0  0
   85.2750  100.4760  -45.0740 H   0  0  0  0  0  0  0  0  0  0  0  0
   84.6760  101.6750  -43.8210 H   0  0  0  0  0  0  0  0  0  0  0  0
   85.8130  102.1940  -45.0820 H   0  0  0  0  0  0  0  0  0  0  0  0
  1  2  1  0  0  0  0
  2  8  1  0  0  0  0
  2  3  2  0  0  0  0
  3  4  1  0  0  0  0
  4  5  1  0  0  0  0
  4 10  1  0  0  0  0
  5  6  2  0  0  0  0
  7 36  1  0  0  0  0
  7  5  1  0  0  0  0
  8  7  1  0  0  0  0
  9  8  2  0  0  0  0
 10 15  1  0  0  0  0
 10 37  1  1  0  0  0
 11 10  1  0  0  0  0
 11 33  1  1  0  0  0
 12 11  1  0  0  0  0
 12 13  1  0  0  0  0
 13 20  1  0  0  0  0
 13 14  1  0  0  0  0
 15 14  1  0  0  0  0
 15 41  1  0  0  0  0
 16 13  1  0  0  0  0
 16 17  1  0  0  0  0
 17 18  1  0  0  0  0
 17 45  1  0  0  0  0
 18 21  1  0  0  0  0
 19 20  1  0  0  0  0
 19 47  1  0  0  0  0
 19 18  1  0  0  0  0
 20 48  1  0  0  0  0
 21 23  1  0  0  0  0
 22 21  2  0  0  0  0
 23 24  2  0  0  0  0
 23 28  1  0  0  0  0
 24 25  1  0  0  0  0
 25 29  1  0  0  0  0
 25 26  2  0  0  0  0
 26 51  1  0  0  0  0
 27 26  1  0  0  0  0
 27 52  1  0  0  0  0
 28 27  2  0  0  0  0
 30 54  1  0  0  0  0
 30 29  1  0  0  0  0
 31 32  1  0  0  0  0
 31 30  1  0  0  0  0
 31 57  1  0  0  0  0
 33 60  1  0  0  0  0
 34 62  1  0  0  0  0
 34 11  1  0  0  0  0
 35  3  1  0  0  0  0
 38 12  1  0  0  0  0
 39 12  1  0  0  0  0
 40 15  1  0  0  0  0
 42 16  1  0  0  0  0
 43 16  1  0  0  0  0
 44 17  1  0  0  0  0
 46 19  1  0  0  0  0
 49 20  1  0  0  0  0
 50 24  1  0  0  0  0
 53 28  1  0  0  0  0
 55 30  1  0  0  0  0
 56 31  1  0  0  0  0
 58 32  1  0  0  0  0
 59 32  1  0  0  0  0
 61 34  1  0  0  0  0
 63 34  1  0  0  0  0
M  END
>  <Pose>
1

>  <Score>
-4.69

$$$$
