
 OpenBabel03212208273D

 63 66  0  0  1  0  0  0  0  0999 V2000
   92.6200  103.0300  -50.7520 B   0  0  0  0  0  0  0  0  0  0  0  0
   91.6080  101.4930  -50.2000 C   0  0  0  0  0  0  0  0  0  0  0  0
   91.2320  101.3460  -48.8850 C   0  0  0  0  0  0  0  0  0  0  0  0
   90.5320  100.2880  -48.4880 N   0  0  0  0  0  0  0  0  0  0  0  0
   90.1800   99.3450  -49.3570 C   0  0  0  0  0  0  0  0  0  0  0  0
   89.5090   98.3150  -49.0150 O   0  0  0  0  0  0  0  0  0  0  0  0
   90.5390   99.4700  -50.6440 N   0  0  0  0  0  0  0  0  0  0  0  0
   91.2460  100.5180  -51.1060 C   0  0  0  0  0  0  0  0  0  0  0  0
   91.5700  100.6070  -52.3270 O   0  0  0  0  0  0  0  0  0  0  0  0
   90.1440  100.1670  -47.0970 C   0  0  1  0  0  0  0  0  0  0  0  0
   91.1010   99.4230  -46.2540 C   0  0  1  0  0  0  0  0  0  0  0  0
   91.0940   99.8430  -44.7790 C   0  0  0  0  0  0  0  0  0  0  0  0
   91.3050  101.3320  -44.6510 C   0  0  2  0  0  0  0  0  0  0  0  0
   90.9710  101.9990  -45.8140 O   0  0  0  0  0  0  0  0  0  0  0  0
   89.8890  101.5150  -46.4820 C   0  0  0  0  0  0  0  0  0  0  0  0
   92.7590  101.5540  -44.2750 C   0  0  0  0  0  0  0  0  0  0  0  0
   92.9010  101.7040  -42.7850 C   0  0  0  0  0  0  0  0  0  0  0  0
   92.0210  100.7630  -42.1400 N   0  0  0  0  0  0  0  0  0  0  0  0
   90.5970  101.0280  -42.2810 C   0  0  0  0  0  0  0  0  0  0  0  0
   90.4110  101.8370  -43.5440 C   0  0  0  0  0  0  0  0  0  0  0  0
   92.5260   99.6820  -41.4120 C   0  0  0  0  0  0  0  0  0  0  0  0
   93.0270   99.9770  -40.2660 O   0  0  0  0  0  0  0  0  0  0  0  0
   92.5710   98.2670  -41.7650 C   0  0  1  0  0  0  0  0  0  0  0  0
   92.6420   97.4100  -40.5820 N   0  0  0  0  0  0  0  0  0  0  0  0
   91.3940   97.7650  -42.5700 C   0  0  0  0  0  0  0  0  0  0  0  0
   91.5390   96.2620  -42.6210 C   0  0  0  0  0  0  0  0  0  0  0  0
   91.6920   95.5440  -41.4640 C   0  0  0  0  0  0  0  0  0  0  0  0
   91.8230   94.1610  -41.5560 C   0  0  0  0  0  0  0  0  0  0  0  0
   91.8000   93.5100  -42.7690 C   0  0  0  0  0  0  0  0  0  0  0  0
   91.6420   94.2680  -43.9120 C   0  0  0  0  0  0  0  0  0  0  0  0
   91.5120   95.6410  -43.8530 C   0  0  0  0  0  0  0  0  0  0  0  0
   91.9330   92.1350  -42.8000 O   0  0  0  0  0  0  0  0  0  0  0  0
   90.6600   98.0750  -46.2170 O   0  0  0  0  0  0  0  0  0  0  0  0
   92.5070   99.3740  -46.7580 C   0  0  0  0  0  0  0  0  0  0  0  0
   91.5440  102.1450  -48.2090 H   0  0  0  0  0  0  0  0  0  0  0  0
   90.2560   98.7150  -51.3390 H   0  0  0  0  0  0  0  0  0  0  0  0
   89.1400   99.6350  -47.1270 H   0  0  0  0  0  0  0  0  0  0  0  0
   90.1460   99.5760  -44.2990 H   0  0  0  0  0  0  0  0  0  0  0  0
   91.9070   99.3210  -44.2670 H   0  0  0  0  0  0  0  0  0  0  0  0
   89.5510  102.2610  -47.2400 H   0  0  0  0  0  0  0  0  0  0  0  0
   89.0460  101.3910  -45.7380 H   0  0  0  0  0  0  0  0  0  0  0  0
   93.4030  100.7290  -44.6130 H   0  0  0  0  0  0  0  0  0  0  0  0
   93.1510  102.4980  -44.7150 H   0  0  0  0  0  0  0  0  0  0  0  0
   93.9630  101.6240  -42.4740 H   0  0  0  0  0  0  0  0  0  0  0  0
   92.6240  102.7600  -42.5340 H   0  0  0  0  0  0  0  0  0  0  0  0
   89.9800  100.1360  -42.3460 H   0  0  0  0  0  0  0  0  0  0  0  0
   90.2440  101.6390  -41.4320 H   0  0  0  0  0  0  0  0  0  0  0  0
   90.5710  102.9230  -43.3710 H   0  0  0  0  0  0  0  0  0  0  0  0
   89.3450  101.7340  -43.8140 H   0  0  0  0  0  0  0  0  0  0  0  0
   93.4860   98.0740  -42.3610 H   0  0  0  0  0  0  0  0  0  0  0  0
   92.6200   96.4010  -40.8470 H   0  0  0  0  0  0  0  0  0  0  0  0
   91.7850   97.5780  -39.9990 H   0  0  0  0  0  0  0  0  0  0  0  0
   90.4290   97.9740  -42.1140 H   0  0  0  0  0  0  0  0  0  0  0  0
   91.3830   98.1320  -43.5950 H   0  0  0  0  0  0  0  0  0  0  0  0
   91.7070   96.0670  -40.5260 H   0  0  0  0  0  0  0  0  0  0  0  0
   91.9440   93.5940  -40.6480 H   0  0  0  0  0  0  0  0  0  0  0  0
   91.6250   93.7750  -44.8590 H   0  0  0  0  0  0  0  0  0  0  0  0
   91.3880   96.2440  -44.7430 H   0  0  0  0  0  0  0  0  0  0  0  0
   91.1700   91.4840  -42.6180 H   0  0  0  0  0  0  0  0  0  0  0  0
   91.1400   97.5170  -46.8730 H   0  0  0  0  0  0  0  0  0  0  0  0
   92.9870  100.3410  -46.9220 H   0  0  0  0  0  0  0  0  0  0  0  0
   93.1190   98.8120  -46.0250 H   0  0  0  0  0  0  0  0  0  0  0  0
   92.5270   98.7310  -47.6880 H   0  0  0  0  0  0  0  0  0  0  0  0
  1  2  1  0  0  0  0
  2  3  2  0  0  0  0
  3  4  1  0  0  0  0
  3 35  1  0  0  0  0
  4 10  1  0  0  0  0
  5  6  2  0  0  0  0
  5  4  1  0  0  0  0
  7  5  1  0  0  0  0
  8  7  1  0  0  0  0
  8  2  1  0  0  0  0
  9  8  2  0  0  0  0
 10 37  1  1  0  0  0
 10 15  1  0  0  0  0
 10 11  1  0  0  0  0
 11 33  1  6  0  0  0
 11 12  1  0  0  0  0
 12 13  1  0  0  0  0
 12 38  1  0  0  0  0
 12 39  1  0  0  0  0
 13 14  1  6  0  0  0
 13 16  1  0  0  0  0
 13 20  1  0  0  0  0
 15 14  1  0  0  0  0
 15 41  1  0  0  0  0
 16 17  1  0  0  0  0
 17 45  1  0  0  0  0
 17 44  1  0  0  0  0
 17 18  1  0  0  0  0
 18 21  1  0  0  0  0
 19 18  1  0  0  0  0
 19 47  1  0  0  0  0
 20 48  1  0  0  0  0
 20 19  1  0  0  0  0
 21 22  2  0  0  0  0
 23 50  1  6  0  0  0
 23 21  1  0  0  0  0
 23 24  1  0  0  0  0
 24 52  1  0  0  0  0
 25 53  1  0  0  0  0
 25 23  1  0  0  0  0
 26 25  1  0  0  0  0
 26 27  1  0  0  0  0
 27 55  1  0  0  0  0
 28 27  2  0  0  0  0
 28 56  1  0  0  0  0
 29 28  1  0  0  0  0
 30 31  1  0  0  0  0
 30 29  2  0  0  0  0
 31 26  2  0  0  0  0
 32 29  1  0  0  0  0
 32 59  1  0  0  0  0
 34 11  1  0  0  0  0
 34 62  1  0  0  0  0
 36  7  1  0  0  0  0
 40 15  1  0  0  0  0
 42 16  1  0  0  0  0
 43 16  1  0  0  0  0
 46 19  1  0  0  0  0
 49 20  1  0  0  0  0
 51 24  1  0  0  0  0
 54 25  1  0  0  0  0
 57 30  1  0  0  0  0
 58 31  1  0  0  0  0
 60 33  1  0  0  0  0
 61 34  1  0  0  0  0
 63 34  1  0  0  0  0
M  END
>  <Pose>
1

>  <Score>
-5.15

$$$$
