
 OpenBabel03212208273D

 64 67  0  0  1  0  0  0  0  0999 V2000
   83.8610  100.6510  -45.9380 B   0  0  0  0  0  0  0  0  0  0  0  0
   84.6070   99.0990  -45.1500 C   0  0  0  0  0  0  0  0  0  0  0  0
   85.9920   98.9320  -45.1810 C   0  0  0  0  0  0  0  0  0  0  0  0
   86.5900   97.8650  -44.6460 N   0  0  0  0  0  0  0  0  0  0  0  0
   85.7700   96.9390  -44.0630 C   0  0  0  0  0  0  0  0  0  0  0  0
   86.2870   95.9140  -43.5430 O   0  0  0  0  0  0  0  0  0  0  0  0
   84.4340   97.0730  -44.0170 N   0  0  0  0  0  0  0  0  0  0  0  0
   83.8170   98.1420  -44.5520 C   0  0  0  0  0  0  0  0  0  0  0  0
   82.5510   98.2700  -44.5090 O   0  0  0  0  0  0  0  0  0  0  0  0
   87.9760   97.6220  -44.6360 C   0  0  1  0  0  0  0  0  0  0  0  0
   88.5400   97.3180  -46.0340 C   0  0  1  0  0  0  0  0  0  0  0  0
   89.8550   96.5800  -45.7490 C   0  0  0  0  0  0  0  0  0  0  0  0
   90.7100   97.3680  -44.7960 C   0  0  2  0  0  0  0  0  0  0  0  0
   90.1470   98.6070  -44.6030 O   0  0  0  0  0  0  0  0  0  0  0  0
   88.8880   98.5930  -44.0080 C   0  0  0  0  0  0  0  0  0  0  0  0
   92.0380   97.5950  -45.5060 C   0  0  0  0  0  0  0  0  0  0  0  0
   92.9360   96.4020  -45.2980 C   0  0  0  0  0  0  0  0  0  0  0  0
   92.1370   95.2120  -44.9600 N   0  0  0  0  0  0  0  0  0  0  0  0
   91.4860   95.2540  -43.6840 C   0  0  0  0  0  0  0  0  0  0  0  0
   90.9970   96.6890  -43.5050 C   0  0  0  0  0  0  0  0  0  0  0  0
   91.9910   94.1360  -45.8340 C   0  0  0  0  0  0  0  0  0  0  0  0
   91.7510   94.3280  -47.0890 O   0  0  0  0  0  0  0  0  0  0  0  0
   92.0930   92.7470  -45.4150 C   0  0  1  0  0  0  0  0  0  0  0  0
   91.8750   92.6170  -43.9940 N   0  0  0  0  0  0  0  0  0  0  0  0
   92.6810   93.0460  -42.9470 C   0  0  0  0  0  0  0  0  0  0  0  0
   93.9180   92.8930  -42.8720 O   0  0  0  0  0  0  0  0  0  0  0  0
   92.0820   93.7730  -41.7570 C   0  0  0  0  0  0  0  0  0  0  0  0
   91.0650   91.8420  -46.1630 C   0  0  0  0  0  0  0  0  0  0  0  0
   91.7010   91.2280  -47.3420 C   0  0  0  0  0  0  0  0  0  0  0  0
   91.2870   91.1760  -48.5980 N   0  0  0  0  0  0  0  0  0  0  0  0
   92.1740   90.5100  -49.3880 C   0  0  0  0  0  0  0  0  0  0  0  0
   93.1840   90.1330  -48.5810 N   0  0  0  0  0  0  0  0  0  0  0  0
   92.9140   90.5600  -47.3300 C   0  0  0  0  0  0  0  0  0  0  0  0
   87.7140   96.4840  -46.7570 O   0  0  0  0  0  0  0  0  0  0  0  0
   88.7580   98.5730  -46.8180 C   0  0  0  0  0  0  0  0  0  0  0  0
   86.6330   99.6690  -45.6490 H   0  0  0  0  0  0  0  0  0  0  0  0
   83.8740   96.3130  -43.5480 H   0  0  0  0  0  0  0  0  0  0  0  0
   88.1330   96.6430  -44.0810 H   0  0  0  0  0  0  0  0  0  0  0  0
   90.3380   96.3840  -46.7260 H   0  0  0  0  0  0  0  0  0  0  0  0
   89.5490   95.6070  -45.3220 H   0  0  0  0  0  0  0  0  0  0  0  0
   89.0670   98.3340  -42.9220 H   0  0  0  0  0  0  0  0  0  0  0  0
   88.5670   99.6480  -43.9760 H   0  0  0  0  0  0  0  0  0  0  0  0
   91.9290   97.7520  -46.5820 H   0  0  0  0  0  0  0  0  0  0  0  0
   92.4740   98.5220  -45.0790 H   0  0  0  0  0  0  0  0  0  0  0  0
   93.6370   96.5300  -44.4440 H   0  0  0  0  0  0  0  0  0  0  0  0
   93.5140   96.1600  -46.1990 H   0  0  0  0  0  0  0  0  0  0  0  0
   90.6260   94.5500  -43.5790 H   0  0  0  0  0  0  0  0  0  0  0  0
   92.2170   94.9910  -42.8970 H   0  0  0  0  0  0  0  0  0  0  0  0
   90.1650   96.6330  -42.7970 H   0  0  0  0  0  0  0  0  0  0  0  0
   91.8240   97.2340  -43.0050 H   0  0  0  0  0  0  0  0  0  0  0  0
   93.0440   92.2150  -45.6580 H   0  0  0  0  0  0  0  0  0  0  0  0
   90.9680   92.1190  -43.7340 H   0  0  0  0  0  0  0  0  0  0  0  0
   92.6280   93.5440  -40.8410 H   0  0  0  0  0  0  0  0  0  0  0  0
   92.1250   94.8670  -41.9450 H   0  0  0  0  0  0  0  0  0  0  0  0
   91.0210   93.4930  -41.6580 H   0  0  0  0  0  0  0  0  0  0  0  0
   90.6780   91.0720  -45.5070 H   0  0  0  0  0  0  0  0  0  0  0  0
   90.2140   92.5010  -46.4830 H   0  0  0  0  0  0  0  0  0  0  0  0
   92.0670   90.3320  -50.4560 H   0  0  0  0  0  0  0  0  0  0  0  0
   94.0190   89.5950  -48.9190 H   0  0  0  0  0  0  0  0  0  0  0  0
   93.5690   90.3840  -46.4890 H   0  0  0  0  0  0  0  0  0  0  0  0
   87.1910   95.9220  -46.1310 H   0  0  0  0  0  0  0  0  0  0  0  0
   88.1070   98.6250  -47.7340 H   0  0  0  0  0  0  0  0  0  0  0  0
   88.5210   99.5000  -46.2390 H   0  0  0  0  0  0  0  0  0  0  0  0
   89.7900   98.6690  -47.1610 H   0  0  0  0  0  0  0  0  0  0  0  0
  1  2  1  0  0  0  0
  2  8  1  0  0  0  0
  3  2  2  0  0  0  0
  3  4  1  0  0  0  0
  4 10  1  0  0  0  0
  4  5  1  0  0  0  0
  5  7  1  0  0  0  0
  5  6  2  0  0  0  0
  7 37  1  0  0  0  0
  8  9  2  0  0  0  0
  8  7  1  0  0  0  0
 10 38  1  1  0  0  0
 10 15  1  0  0  0  0
 11 34  1  6  0  0  0
 11 12  1  0  0  0  0
 11 10  1  0  0  0  0
 12 40  1  0  0  0  0
 12 13  1  0  0  0  0
 13 14  1  1  0  0  0
 13 20  1  0  0  0  0
 14 15  1  0  0  0  0
 15 42  1  0  0  0  0
 15 41  1  0  0  0  0
 16 17  1  0  0  0  0
 16 44  1  0  0  0  0
 16 13  1  0  0  0  0
 17 18  1  0  0  0  0
 17 45  1  0  0  0  0
 18 19  1  0  0  0  0
 19 47  1  0  0  0  0
 19 20  1  0  0  0  0
 19 48  1  0  0  0  0
 20 50  1  0  0  0  0
 20 49  1  0  0  0  0
 21 23  1  0  0  0  0
 21 18  1  0  0  0  0
 22 21  2  0  0  0  0
 23 51  1  6  0  0  0
 23 24  1  0  0  0  0
 24 52  1  0  0  0  0
 24 25  1  0  0  0  0
 25 26  2  0  0  0  0
 25 27  1  0  0  0  0
 27 55  1  0  0  0  0
 27 53  1  0  0  0  0
 28 56  1  0  0  0  0
 28 23  1  0  0  0  0
 29 33  2  0  0  0  0
 29 28  1  0  0  0  0
 30 29  1  0  0  0  0
 31 30  2  0  0  0  0
 31 32  1  0  0  0  0
 32 33  1  0  0  0  0
 33 60  1  0  0  0  0
 34 61  1  0  0  0  0
 35 63  1  0  0  0  0
 35 11  1  0  0  0  0
 36  3  1  0  0  0  0
 39 12  1  0  0  0  0
 43 16  1  0  0  0  0
 46 17  1  0  0  0  0
 54 27  1  0  0  0  0
 57 28  1  0  0  0  0
 58 31  1  0  0  0  0
 59 32  1  0  0  0  0
 62 35  1  0  0  0  0
 64 35  1  0  0  0  0
M  END
>  <Pose>
1

>  <Score>
-5.34

$$$$
