
 OpenBabel03212208273D

 40 43  0  0  0  0  0  0  0  0999 V2000
   90.8710   98.8650  -42.6830 B   0  0  0  0  0  0  0  0  0  0  0  0
   90.9260   97.3740  -43.8890 C   0  0  0  0  0  0  0  0  0  0  0  0
   91.3970   96.1420  -43.4930 C   0  0  0  0  0  0  0  0  0  0  0  0
   91.4520   95.0690  -44.3120 N   0  0  0  0  0  0  0  0  0  0  0  0
   91.0420   95.1410  -45.5910 C   0  0  0  0  0  0  0  0  0  0  0  0
   91.0900   94.0840  -46.4200 N   0  0  0  0  0  0  0  0  0  0  0  0
   91.5510   92.8690  -46.0370 C   0  0  0  0  0  0  0  0  0  0  0  0
   91.9780   92.7740  -44.7290 C   0  0  0  0  0  0  0  0  0  0  0  0
   91.9210   93.8790  -43.8850 C   0  0  0  0  0  0  0  0  0  0  0  0
   92.3030   93.8030  -42.7060 O   0  0  0  0  0  0  0  0  0  0  0  0
   91.5890   91.7170  -46.9740 C   0  0  0  0  0  0  0  0  0  0  0  0
   92.6500   90.8300  -46.7350 O   0  0  0  0  0  0  0  0  0  0  0  0
   93.1800   89.9490  -47.6530 C   0  0  0  0  0  0  0  0  0  0  0  0
   94.1380   89.2190  -47.3260 O   0  0  0  0  0  0  0  0  0  0  0  0
   92.5890   89.8950  -49.0100 C   0  0  0  0  0  0  0  0  0  0  0  0
   91.4430   89.0330  -49.0400 N   0  0  0  0  0  0  0  0  0  0  0  0
   91.4580   87.6250  -48.9500 C   0  0  0  0  0  0  0  0  0  0  0  0
   92.4360   86.8430  -48.8300 O   0  0  0  0  0  0  0  0  0  0  0  0
   90.0610   87.1440  -49.0230 C   0  0  0  0  0  0  0  0  0  0  0  0
   89.2520   88.2400  -49.1510 C   0  0  0  0  0  0  0  0  0  0  0  0
   87.8950   88.1210  -49.2430 C   0  0  0  0  0  0  0  0  0  0  0  0
   87.3420   86.8640  -49.2050 C   0  0  0  0  0  0  0  0  0  0  0  0
   88.1590   85.7570  -49.0750 C   0  0  0  0  0  0  0  0  0  0  0  0
   89.5290   85.8660  -48.9820 C   0  0  0  0  0  0  0  0  0  0  0  0
   90.0990   89.4350  -49.1640 C   0  0  0  0  0  0  0  0  0  0  0  0
   89.6600   90.6210  -49.2700 O   0  0  0  0  0  0  0  0  0  0  0  0
   90.5590   96.3790  -46.0210 C   0  0  0  0  0  0  0  0  0  0  0  0
   90.4980   97.4800  -45.1950 C   0  0  0  0  0  0  0  0  0  0  0  0
   91.7370   96.0560  -42.4590 H   0  0  0  0  0  0  0  0  0  0  0  0
   92.3610   91.8200  -44.3490 H   0  0  0  0  0  0  0  0  0  0  0  0
   90.6450   91.1390  -46.9380 H   0  0  0  0  0  0  0  0  0  0  0  0
   91.6870   92.0690  -48.0390 H   0  0  0  0  0  0  0  0  0  0  0  0
   93.3800   89.4220  -49.6590 H   0  0  0  0  0  0  0  0  0  0  0  0
   92.3710   90.9110  -49.4070 H   0  0  0  0  0  0  0  0  0  0  0  0
   87.2700   88.9900  -49.3430 H   0  0  0  0  0  0  0  0  0  0  0  0
   86.2690   86.7940  -49.2790 H   0  0  0  0  0  0  0  0  0  0  0  0
   87.6660   84.7950  -49.0520 H   0  0  0  0  0  0  0  0  0  0  0  0
   90.1720   85.0080  -48.8810 H   0  0  0  0  0  0  0  0  0  0  0  0
   90.2330   96.4270  -47.0460 H   0  0  0  0  0  0  0  0  0  0  0  0
   90.1240   98.4360  -45.5330 H   0  0  0  0  0  0  0  0  0  0  0  0
  2  3  1  0  0  0  0
  2  1  1  0  0  0  0
  3 29  1  0  0  0  0
  4  9  1  0  0  0  0
  4  3  1  0  0  0  0
  5  4  1  0  0  0  0
  6  7  2  0  0  0  0
  6  5  1  0  0  0  0
  7  8  1  0  0  0  0
  8 30  1  0  0  0  0
  8  9  1  0  0  0  0
  9 10  2  0  0  0  0
 11 31  1  0  0  0  0
 11 12  1  0  0  0  0
 11  7  1  0  0  0  0
 13 14  2  0  0  0  0
 13 12  1  0  0  0  0
 15 13  1  0  0  0  0
 16 15  1  0  0  0  0
 16 17  1  0  0  0  0
 17 18  2  0  0  0  0
 19 24  1  0  0  0  0
 19 17  1  0  0  0  0
 20 19  2  0  0  0  0
 21 22  2  0  0  0  0
 21 20  1  0  0  0  0
 22 23  1  0  0  0  0
 23 37  1  0  0  0  0
 23 24  2  0  0  0  0
 24 38  1  0  0  0  0
 25 20  1  0  0  0  0
 25 16  1  0  0  0  0
 26 25  2  0  0  0  0
 27  5  2  0  0  0  0
 27 28  1  0  0  0  0
 28  2  2  0  0  0  0
 32 11  1  0  0  0  0
 33 15  1  0  0  0  0
 34 15  1  0  0  0  0
 35 21  1  0  0  0  0
 36 22  1  0  0  0  0
 39 27  1  0  0  0  0
 40 28  1  0  0  0  0
M  END
>  <Pose>
1

>  <Score>
-6.34

$$$$
