
 OpenBabel03212208273D

 45 48  0  0  0  0  0  0  0  0999 V2000
   92.3000   93.3550  -42.1190 B   0  0  0  0  0  0  0  0  0  0  0  0
   91.7840   95.0810  -42.7550 C   0  0  0  0  0  0  0  0  0  0  0  0
   91.4100   95.2230  -44.0740 C   0  0  0  0  0  0  0  0  0  0  0  0
   91.0460   96.4350  -44.5250 N   0  0  0  0  0  0  0  0  0  0  0  0
   91.0360   97.5180  -43.7200 C   0  0  0  0  0  0  0  0  0  0  0  0
   90.6650   98.7310  -44.1950 N   0  0  0  0  0  0  0  0  0  0  0  0
   90.2940   98.9160  -45.4740 C   0  0  0  0  0  0  0  0  0  0  0  0
   90.2980   97.8240  -46.3090 C   0  0  0  0  0  0  0  0  0  0  0  0
   90.6800   96.5710  -45.8190 C   0  0  0  0  0  0  0  0  0  0  0  0
   90.6870   95.5780  -46.5640 O   0  0  0  0  0  0  0  0  0  0  0  0
   89.8900  100.2510  -45.9820 C   0  0  0  0  0  0  0  0  0  0  0  0
   89.4390  101.0330  -44.8930 O   0  0  0  0  0  0  0  0  0  0  0  0
   88.5690  102.0870  -45.0380 C   0  0  0  0  0  0  0  0  0  0  0  0
   89.0090  103.1600  -45.5270 O   0  0  0  0  0  0  0  0  0  0  0  0
   87.1320  102.0520  -44.6570 C   0  0  0  0  0  0  0  0  0  0  0  0
   86.7480  100.7990  -44.0770 N   0  0  0  0  0  0  0  0  0  0  0  0
   87.2640  100.2240  -42.8780 C   0  0  0  0  0  0  0  0  0  0  0  0
   88.1500  100.7500  -42.1440 O   0  0  0  0  0  0  0  0  0  0  0  0
   86.6090   98.9780  -42.6690 N   0  0  0  0  0  0  0  0  0  0  0  0
   85.7920   98.6830  -43.8190 C   0  0  0  0  0  0  0  0  0  0  0  0
   86.3420   97.5580  -44.6560 C   0  0  0  0  0  0  0  0  0  0  0  0
   85.1560   97.1110  -45.4510 C   0  0  0  0  0  0  0  0  0  0  0  0
   83.9260   97.6800  -44.8070 C   0  0  0  0  0  0  0  0  0  0  0  0
   84.4210   98.2080  -43.4780 C   0  0  0  0  0  0  0  0  0  0  0  0
   85.7690   99.9080  -44.6160 C   0  0  0  0  0  0  0  0  0  0  0  0
   85.0460  100.1830  -45.6020 O   0  0  0  0  0  0  0  0  0  0  0  0
   91.4090   97.3820  -42.3970 C   0  0  0  0  0  0  0  0  0  0  0  0
   91.7910   96.1620  -41.8870 C   0  0  0  0  0  0  0  0  0  0  0  0
   91.4020   94.3830  -44.7580 H   0  0  0  0  0  0  0  0  0  0  0  0
   90.0030   97.9440  -47.3440 H   0  0  0  0  0  0  0  0  0  0  0  0
   90.7660  100.7490  -46.4370 H   0  0  0  0  0  0  0  0  0  0  0  0
   89.0860  100.1340  -46.7440 H   0  0  0  0  0  0  0  0  0  0  0  0
   86.8950  102.9130  -43.9930 H   0  0  0  0  0  0  0  0  0  0  0  0
   86.5610  102.2360  -45.6050 H   0  0  0  0  0  0  0  0  0  0  0  0
   86.7240   98.4030  -41.8170 H   0  0  0  0  0  0  0  0  0  0  0  0
   87.1060   98.0130  -45.3500 H   0  0  0  0  0  0  0  0  0  0  0  0
   86.8090   96.7590  -44.0770 H   0  0  0  0  0  0  0  0  0  0  0  0
   85.0870   95.9890  -45.3820 H   0  0  0  0  0  0  0  0  0  0  0  0
   85.2630   97.4100  -46.5190 H   0  0  0  0  0  0  0  0  0  0  0  0
   83.1400   96.9060  -44.6570 H   0  0  0  0  0  0  0  0  0  0  0  0
   83.4490   98.4920  -45.4110 H   0  0  0  0  0  0  0  0  0  0  0  0
   83.7510   98.9940  -43.0770 H   0  0  0  0  0  0  0  0  0  0  0  0
   84.4670   97.3490  -42.7680 H   0  0  0  0  0  0  0  0  0  0  0  0
   91.3920   98.2650  -41.7790 H   0  0  0  0  0  0  0  0  0  0  0  0
   92.0860   96.0350  -40.8560 H   0  0  0  0  0  0  0  0  0  0  0  0
  2  1  1  0  0  0  0
  2 28  2  0  0  0  0
  3  2  1  0  0  0  0
  4  3  1  0  0  0  0
  4  5  1  0  0  0  0
  5 27  2  0  0  0  0
  6  5  1  0  0  0  0
  7  6  2  0  0  0  0
  8  9  1  0  0  0  0
  8  7  1  0  0  0  0
  9  4  1  0  0  0  0
 10  9  2  0  0  0  0
 11  7  1  0  0  0  0
 11 12  1  0  0  0  0
 13 12  1  0  0  0  0
 13 15  1  0  0  0  0
 14 13  2  0  0  0  0
 15 16  1  0  0  0  0
 15 33  1  0  0  0  0
 16 17  1  0  0  0  0
 17 19  1  0  0  0  0
 17 18  2  0  0  0  0
 19 35  1  0  0  0  0
 20 24  1  0  0  0  0
 20 19  1  0  0  0  0
 21 37  1  0  0  0  0
 21 20  1  0  0  0  0
 22 38  1  0  0  0  0
 22 23  1  0  0  0  0
 22 21  1  0  0  0  0
 23 40  1  0  0  0  0
 23 24  1  0  0  0  0
 24 42  1  0  0  0  0
 24 43  1  0  0  0  0
 25 16  1  0  0  0  0
 25 20  1  0  0  0  0
 26 25  2  0  0  0  0
 27 28  1  0  0  0  0
 27 44  1  0  0  0  0
 28 45  1  0  0  0  0
 29  3  1  0  0  0  0
 30  8  1  0  0  0  0
 31 11  1  0  0  0  0
 32 11  1  0  0  0  0
 34 15  1  0  0  0  0
 36 21  1  0  0  0  0
 39 22  1  0  0  0  0
 41 23  1  0  0  0  0
M  END
>  <Pose>
1

>  <Score>
-4.83

$$$$
