
 OpenBabel03212208273D

 47 50  0  0  0  0  0  0  0  0999 V2000
   91.8420  101.5180  -43.9160 B   0  0  0  0  0  0  0  0  0  0  0  0
   91.7620   99.7340  -43.2680 C   0  0  0  0  0  0  0  0  0  0  0  0
   91.7390   98.6500  -44.0750 C   0  0  0  0  0  0  0  0  0  0  0  0
   91.7710   97.3920  -43.6260 N   0  0  0  0  0  0  0  0  0  0  0  0
   91.8290   97.1900  -42.3100 C   0  0  0  0  0  0  0  0  0  0  0  0
   91.8540   95.9160  -41.8290 N   0  0  0  0  0  0  0  0  0  0  0  0
   91.8220   94.8460  -42.6100 C   0  0  0  0  0  0  0  0  0  0  0  0
   91.7630   95.0270  -43.9740 C   0  0  0  0  0  0  0  0  0  0  0  0
   91.7200   93.9520  -44.8390 C   0  0  0  0  0  0  0  0  0  0  0  0
   91.7350   92.6320  -44.3880 C   0  0  0  0  0  0  0  0  0  0  0  0
   91.7950   92.4630  -43.0210 C   0  0  0  0  0  0  0  0  0  0  0  0
   91.8380   93.5370  -42.1500 C   0  0  0  0  0  0  0  0  0  0  0  0
   91.7390   96.3340  -44.4440 C   0  0  0  0  0  0  0  0  0  0  0  0
   91.6840   96.5130  -45.6810 O   0  0  0  0  0  0  0  0  0  0  0  0
   91.8520   98.2590  -41.4800 N   0  0  0  0  0  0  0  0  0  0  0  0
   91.8210   99.5330  -41.8490 C   0  0  0  0  0  0  0  0  0  0  0  0
   91.7360  100.6480  -41.0760 N   0  0  0  0  0  0  0  0  0  0  0  0
   91.6510  101.7460  -40.3150 C   0  0  0  0  0  0  0  0  0  0  0  0
   90.6280  102.6730  -40.5520 C   0  0  0  0  0  0  0  0  0  0  0  0
   90.6500  103.8960  -39.9670 C   0  0  0  0  0  0  0  0  0  0  0  0
   91.6770  104.2470  -39.1250 C   0  0  0  0  0  0  0  0  0  0  0  0
   92.7100  103.3800  -38.8450 C   0  0  0  0  0  0  0  0  0  0  0  0
   92.6660  102.1470  -39.4530 C   0  0  0  0  0  0  0  0  0  0  0  0
   89.4230  102.3170  -41.3130 C   0  0  0  0  0  0  0  0  0  0  0  0
   88.6530  103.2500  -41.6540 O   0  0  0  0  0  0  0  0  0  0  0  0
   89.0610  101.0540  -41.6800 O   0  0  0  0  0  0  0  0  0  0  0  0
   88.6600  100.7220  -42.9960 C   0  0  0  0  0  0  0  0  0  0  0  0
   87.5950   99.6230  -42.9640 C   0  0  0  0  0  0  0  0  0  0  0  0
   86.2450  100.2510  -43.2180 C   0  0  0  0  0  0  0  0  0  0  0  0
   91.6910   98.7900  -45.1540 H   0  0  0  0  0  0  0  0  0  0  0  0
   91.6760   94.1610  -45.8870 H   0  0  0  0  0  0  0  0  0  0  0  0
   91.7010   91.8010  -45.0860 H   0  0  0  0  0  0  0  0  0  0  0  0
   91.8070   91.4460  -42.6330 H   0  0  0  0  0  0  0  0  0  0  0  0
   91.8820   93.4180  -41.0780 H   0  0  0  0  0  0  0  0  0  0  0  0
   91.8990   97.9630  -40.4520 H   0  0  0  0  0  0  0  0  0  0  0  0
   91.2620   99.9320  -40.0130 H   0  0  0  0  0  0  0  0  0  0  0  0
   89.8650  104.6520  -40.1320 H   0  0  0  0  0  0  0  0  0  0  0  0
   91.6680  105.2320  -38.6810 H   0  0  0  0  0  0  0  0  0  0  0  0
   93.4850  103.7140  -38.1760 H   0  0  0  0  0  0  0  0  0  0  0  0
   93.4900  101.4840  -39.2210 H   0  0  0  0  0  0  0  0  0  0  0  0
   88.2090  101.5600  -43.5550 H   0  0  0  0  0  0  0  0  0  0  0  0
   89.5090  100.3300  -43.5980 H   0  0  0  0  0  0  0  0  0  0  0  0
   87.7820   98.8660  -43.7490 H   0  0  0  0  0  0  0  0  0  0  0  0
   87.5610   99.1470  -41.9550 H   0  0  0  0  0  0  0  0  0  0  0  0
   85.7220  100.4270  -42.2620 H   0  0  0  0  0  0  0  0  0  0  0  0
   86.3550  101.2380  -43.7420 H   0  0  0  0  0  0  0  0  0  0  0  0
   85.6050   99.5750  -43.8220 H   0  0  0  0  0  0  0  0  0  0  0  0
  1  2  1  0  0  0  0
  2 16  2  0  0  0  0
  3  4  1  0  0  0  0
  3  2  1  0  0  0  0
  4  5  1  0  0  0  0
  5  6  2  0  0  0  0
  5 15  1  0  0  0  0
  7 12  1  0  0  0  0
  7  6  1  0  0  0  0
  8  7  2  0  0  0  0
  9 10  2  0  0  0  0
  9  8  1  0  0  0  0
 10 11  1  0  0  0  0
 11 33  1  0  0  0  0
 11 12  2  0  0  0  0
 12 34  1  0  0  0  0
 13  8  1  0  0  0  0
 13  4  1  0  0  0  0
 14 13  2  0  0  0  0
 15 35  1  0  0  0  0
 16 15  1  0  0  0  0
 16 17  1  0  0  0  0
 17 18  1  0  0  0  0
 17 36  1  0  0  0  0
 18 23  1  0  0  0  0
 19 18  2  0  0  0  0
 19 20  1  0  0  0  0
 20 21  2  0  0  0  0
 21 22  1  0  0  0  0
 21 38  1  0  0  0  0
 22 39  1  0  0  0  0
 23 40  1  0  0  0  0
 23 22  2  0  0  0  0
 24 19  1  0  0  0  0
 25 24  2  0  0  0  0
 26 24  1  0  0  0  0
 27 28  1  0  0  0  0
 27 26  1  0  0  0  0
 28 44  1  0  0  0  0
 29 28  1  0  0  0  0
 29 45  1  0  0  0  0
 30  3  1  0  0  0  0
 31  9  1  0  0  0  0
 32 10  1  0  0  0  0
 37 20  1  0  0  0  0
 41 27  1  0  0  0  0
 42 27  1  0  0  0  0
 43 28  1  0  0  0  0
 46 29  1  0  0  0  0
 47 29  1  0  0  0  0
M  END
>  <Pose>
1

>  <Score>
-5.87

$$$$
