
 OpenBabel03212208273D

 56 59  0  0  1  0  0  0  0  0999 V2000
   93.1180  102.1950  -46.9550 B   0  0  0  0  0  0  0  0  0  0  0  0
   92.8220  100.8720  -45.5890 C   0  0  0  0  0  0  0  0  0  0  0  0
   92.4510  101.2680  -44.3160 C   0  0  0  0  0  0  0  0  0  0  0  0
   92.2360  100.3160  -43.3230 C   0  0  0  0  0  0  0  0  0  0  0  0
   92.3840   98.9720  -43.5760 C   0  0  0  0  0  0  0  0  0  0  0  0
   92.7540   98.6140  -44.8530 C   0  0  0  0  0  0  0  0  0  0  0  0
   92.9730   99.5310  -45.8510 C   0  0  0  0  0  0  0  0  0  0  0  0
   92.1630   97.9710  -42.5550 C   0  0  0  0  0  0  0  0  0  0  0  0
   92.9420   97.9140  -41.5670 O   0  0  0  0  0  0  0  0  0  0  0  0
   91.0490   96.9880  -42.6090 C   0  0  0  0  0  0  0  0  0  0  0  0
   91.5090   95.6790  -42.9650 N   0  0  0  0  0  0  0  0  0  0  0  0
   91.6130   95.1840  -44.1770 N   0  0  0  0  0  0  0  0  0  0  0  0
   92.0800   93.9270  -44.1340 C   0  0  0  0  0  0  0  0  0  0  0  0
   92.2740   93.6270  -42.8420 N   0  0  0  0  0  0  0  0  0  0  0  0
   91.9160   94.7280  -42.1180 C   0  0  2  0  0  0  0  0  0  0  0  0
   91.9630   94.8530  -40.6620 C   0  0  0  0  0  0  0  0  0  0  0  0
   93.3450   94.6310  -40.0940 C   0  0  0  0  0  0  0  0  0  0  0  0
   93.7530   93.1750  -40.1530 C   0  0  0  0  0  0  0  0  0  0  0  0
   94.0420   92.6990  -41.5430 C   0  0  0  0  0  0  0  0  0  0  0  0
   92.7730   92.3710  -42.3170 C   0  0  0  0  0  0  0  0  0  0  0  0
   92.3400   93.0230  -45.2630 C   0  0  0  0  0  0  0  0  0  0  0  0
   91.1380   92.5220  -45.8550 N   0  0  0  0  0  0  0  0  0  0  0  0
   91.1050   91.8990  -47.1360 C   0  0  0  0  0  0  0  0  0  0  0  0
   91.7170   90.6910  -47.3820 C   0  0  0  0  0  0  0  0  0  0  0  0
   91.6750   90.0990  -48.6180 C   0  0  0  0  0  0  0  0  0  0  0  0
   91.0130   90.7140  -49.6350 C   0  0  0  0  0  0  0  0  0  0  0  0
   90.4000   91.9230  -49.3920 C   0  0  0  0  0  0  0  0  0  0  0  0
   90.4350   92.5270  -48.1530 C   0  0  0  0  0  0  0  0  0  0  0  0
   90.9550   90.1440  -50.8840 O   0  0  0  0  0  0  0  0  0  0  0  0
   89.7770   89.5910  -51.4180 C   0  0  0  0  0  0  0  0  0  0  0  0
   92.3370  102.3180  -44.1270 H   0  0  0  0  0  0  0  0  0  0  0  0
   91.9480  100.6480  -42.3420 H   0  0  0  0  0  0  0  0  0  0  0  0
   92.8780   97.5450  -45.0750 H   0  0  0  0  0  0  0  0  0  0  0  0
   93.2600   99.1910  -46.8260 H   0  0  0  0  0  0  0  0  0  0  0  0
   90.4460   97.0020  -41.6800 H   0  0  0  0  0  0  0  0  0  0  0  0
   90.3770   97.3450  -43.4430 H   0  0  0  0  0  0  0  0  0  0  0  0
   91.6360   95.8550  -40.3330 H   0  0  0  0  0  0  0  0  0  0  0  0
   91.2860   94.1240  -40.1310 H   0  0  0  0  0  0  0  0  0  0  0  0
   94.1120   95.2650  -40.5390 H   0  0  0  0  0  0  0  0  0  0  0  0
   93.2870   94.8980  -39.0100 H   0  0  0  0  0  0  0  0  0  0  0  0
   93.0510   92.5280  -39.6240 H   0  0  0  0  0  0  0  0  0  0  0  0
   94.7240   93.1100  -39.5840 H   0  0  0  0  0  0  0  0  0  0  0  0
   94.6030   93.4340  -42.1200 H   0  0  0  0  0  0  0  0  0  0  0  0
   94.6630   91.7660  -41.4560 H   0  0  0  0  0  0  0  0  0  0  0  0
   92.0350   91.8450  -41.6910 H   0  0  0  0  0  0  0  0  0  0  0  0
   93.0390   91.7110  -43.1570 H   0  0  0  0  0  0  0  0  0  0  0  0
   92.9550   92.1660  -44.8820 H   0  0  0  0  0  0  0  0  0  0  0  0
   92.9480   93.5140  -46.0400 H   0  0  0  0  0  0  0  0  0  0  0  0
   90.2420   92.6010  -45.3530 H   0  0  0  0  0  0  0  0  0  0  0  0
   92.2370   90.2390  -46.5270 H   0  0  0  0  0  0  0  0  0  0  0  0
   92.1660   89.1560  -48.7630 H   0  0  0  0  0  0  0  0  0  0  0  0
   89.8600   92.4420  -50.1880 H   0  0  0  0  0  0  0  0  0  0  0  0
   89.9370   93.4920  -47.9780 H   0  0  0  0  0  0  0  0  0  0  0  0
   90.0000   88.9730  -52.2970 H   0  0  0  0  0  0  0  0  0  0  0  0
   89.3010   88.9610  -50.6400 H   0  0  0  0  0  0  0  0  0  0  0  0
   89.0440   90.3800  -51.7020 H   0  0  0  0  0  0  0  0  0  0  0  0
  1  2  1  0  0  0  0
  2  3  1  0  0  0  0
  3 31  1  0  0  0  0
  3  4  2  0  0  0  0
  4 32  1  0  0  0  0
  5  4  1  0  0  0  0
  5  8  1  0  0  0  0
  6  5  2  0  0  0  0
  7  2  2  0  0  0  0
  7  6  1  0  0  0  0
  8  9  2  0  0  0  0
 10  8  1  0  0  0  0
 10 35  1  0  0  0  0
 11 10  1  0  0  0  0
 12 13  2  0  0  0  0
 12 11  1  0  0  0  0
 13 14  1  0  0  0  0
 14 20  1  0  0  0  0
 14 15  1  0  0  0  0
 15 11  1  1  0  0  0
 15 16  1  0  0  0  0
 16 37  1  0  0  0  0
 16 38  1  0  0  0  0
 16 17  1  0  0  0  0
 17 40  1  0  0  0  0
 18 17  1  0  0  0  0
 18 41  1  0  0  0  0
 18 42  1  0  0  0  0
 19 44  1  0  0  0  0
 19 18  1  0  0  0  0
 20 45  1  0  0  0  0
 20 19  1  0  0  0  0
 21 47  1  0  0  0  0
 21 13  1  0  0  0  0
 22 49  1  0  0  0  0
 22 21  1  0  0  0  0
 23 22  1  0  0  0  0
 24 23  1  0  0  0  0
 24 50  1  0  0  0  0
 25 24  2  0  0  0  0
 26 27  2  0  0  0  0
 26 25  1  0  0  0  0
 27 28  1  0  0  0  0
 28 53  1  0  0  0  0
 28 23  2  0  0  0  0
 29 26  1  0  0  0  0
 30 29  1  0  0  0  0
 30 55  1  0  0  0  0
 33  6  1  0  0  0  0
 34  7  1  0  0  0  0
 36 10  1  0  0  0  0
 39 17  1  0  0  0  0
 43 19  1  0  0  0  0
 46 20  1  0  0  0  0
 48 21  1  0  0  0  0
 51 25  1  0  0  0  0
 52 27  1  0  0  0  0
 54 30  1  0  0  0  0
 56 30  1  0  0  0  0
M  END
>  <Pose>
1

>  <Score>
-5.23

$$$$
