
 OpenBabel03212208273D

 53 56  0  0  1  0  0  0  0  0999 V2000
   86.3740   98.4580  -45.1790 B   0  0  0  0  0  0  0  0  0  0  0  0
   88.1820   98.8670  -44.7950 C   0  0  0  0  0  0  0  0  0  0  0  0
   89.1520   98.6220  -45.7500 C   0  0  0  0  0  0  0  0  0  0  0  0
   90.4730   98.9200  -45.4930 C   0  0  0  0  0  0  0  0  0  0  0  0
   90.8480   99.4640  -44.2860 C   0  0  0  0  0  0  0  0  0  0  0  0
   89.8910   99.7040  -43.3480 C   0  0  0  0  0  0  0  0  0  0  0  0
   88.5420   99.4090  -43.5870 C   0  0  0  0  0  0  0  0  0  0  0  0
   92.2640   99.7960  -43.9590 C   0  0  2  0  0  0  0  0  0  0  0  0
   92.5890   99.3860  -42.5950 N   0  0  0  0  0  4  0  0  0  0  0  0
   92.5160  100.4710  -41.7560 C   0  0  0  0  0  0  0  0  0  0  0  0
   93.0170  100.6400  -40.5570 C   0  0  0  0  0  0  0  0  0  0  0  0
   92.9950  101.7550  -39.5670 C   0  0  0  0  0  0  0  0  0  0  0  0
   92.4070  103.0280  -40.0890 C   0  0  0  0  0  0  0  0  0  0  0  0
   90.9960  102.8260  -40.5900 C   0  0  0  0  0  0  0  0  0  0  0  0
   91.0060  102.6090  -42.0900 C   0  0  0  0  0  0  0  0  0  0  0  0
   91.8540  101.5310  -42.4840 N   0  0  0  0  0  0  0  0  0  0  0  0
   92.2340  101.3570  -43.8920 C   0  0  0  0  0  0  0  0  0  0  0  0
   92.2480   98.1050  -42.2510 C   0  0  0  0  0  0  0  0  0  0  0  0
   92.5630   97.4850  -41.0800 C   0  0  0  0  0  0  0  0  0  0  0  0
   92.3390   96.1160  -40.8540 C   0  0  0  0  0  0  0  0  0  0  0  0
   91.7800   95.3280  -41.8250 C   0  0  0  0  0  0  0  0  0  0  0  0
   91.4530   95.9520  -43.0200 C   0  0  0  0  0  0  0  0  0  0  0  0
   91.6760   97.2950  -43.2380 C   0  0  0  0  0  0  0  0  0  0  0  0
   91.5610   93.9750  -41.6250 O   0  0  0  0  0  0  0  0  0  0  0  0
   92.2060   92.9380  -42.3190 C   0  0  0  0  0  0  0  0  0  0  0  0
   93.5960   92.8050  -41.6670 C   0  0  0  0  0  0  0  0  0  0  0  0
   93.1950   99.4520  -44.8610 O   0  0  0  0  0  0  0  0  0  0  0  0
   88.9190   98.2020  -46.7150 H   0  0  0  0  0  0  0  0  0  0  0  0
   91.1970   98.7110  -46.2860 H   0  0  0  0  0  0  0  0  0  0  0  0
   90.1710  100.1250  -42.4030 H   0  0  0  0  0  0  0  0  0  0  0  0
   87.7720   99.6000  -42.8520 H   0  0  0  0  0  0  0  0  0  0  0  0
   93.7180   99.2900  -42.7220 H   0  0  0  0  0  0  0  0  0  0  0  0
   93.6270   99.8230  -40.1780 H   0  0  0  0  0  0  0  0  0  0  0  0
   94.0270  101.9600  -39.2330 H   0  0  0  0  0  0  0  0  0  0  0  0
   92.3390  101.4280  -38.7150 H   0  0  0  0  0  0  0  0  0  0  0  0
   93.0490  103.5590  -40.7820 H   0  0  0  0  0  0  0  0  0  0  0  0
   92.3060  103.7030  -39.1870 H   0  0  0  0  0  0  0  0  0  0  0  0
   90.5060  102.0270  -40.0470 H   0  0  0  0  0  0  0  0  0  0  0  0
   90.4100  103.7810  -40.4210 H   0  0  0  0  0  0  0  0  0  0  0  0
   89.9860  102.6060  -42.5010 H   0  0  0  0  0  0  0  0  0  0  0  0
   91.4860  103.5500  -42.5020 H   0  0  0  0  0  0  0  0  0  0  0  0
   93.2150  101.7870  -44.0720 H   0  0  0  0  0  0  0  0  0  0  0  0
   91.4410  101.7490  -44.5190 H   0  0  0  0  0  0  0  0  0  0  0  0
   92.9740   98.0160  -40.2440 H   0  0  0  0  0  0  0  0  0  0  0  0
   92.6240   95.6980  -39.9060 H   0  0  0  0  0  0  0  0  0  0  0  0
   90.9940   95.3910  -43.8460 H   0  0  0  0  0  0  0  0  0  0  0  0
   91.4080   97.7020  -44.2250 H   0  0  0  0  0  0  0  0  0  0  0  0
   92.3600   93.2260  -43.4110 H   0  0  0  0  0  0  0  0  0  0  0  0
   91.6360   92.0050  -42.3170 H   0  0  0  0  0  0  0  0  0  0  0  0
   93.5310   91.8560  -41.1040 H   0  0  0  0  0  0  0  0  0  0  0  0
   93.7720   93.6210  -40.9450 H   0  0  0  0  0  0  0  0  0  0  0  0
   94.4100   92.8380  -42.4050 H   0  0  0  0  0  0  0  0  0  0  0  0
   94.0290   99.9400  -44.9250 H   0  0  0  0  0  0  0  0  0  0  0  0
  1  2  1  0  0  0  0
  2  7  1  0  0  0  0
  3  4  1  0  0  0  0
  3  2  2  0  0  0  0
  4  5  2  0  0  0  0
  5  8  1  0  0  0  0
  5  6  1  0  0  0  0
  6 30  1  0  0  0  0
  7  6  2  0  0  0  0
  7 31  1  0  0  0  0
  8 27  1  6  0  0  0
  8 17  1  0  0  0  0
  8  9  1  0  0  0  0
  9 18  1  0  0  0  0
  9 10  1  0  0  0  0
 10 11  2  0  0  0  0
 11 33  1  0  0  0  0
 11 12  1  0  0  0  0
 12 34  1  0  0  0  0
 12 35  1  0  0  0  0
 13 12  1  0  0  0  0
 13 37  1  0  0  0  0
 14 39  1  0  0  0  0
 14 13  1  0  0  0  0
 14 38  1  0  0  0  0
 15 14  1  0  0  0  0
 16 15  1  0  0  0  0
 16 10  1  0  0  0  0
 17 16  1  0  0  0  0
 18 19  1  0  0  0  0
 19 20  2  0  0  0  0
 19 44  1  0  0  0  0
 20 45  1  0  0  0  0
 21 24  1  0  0  0  0
 21 20  1  0  0  0  0
 22 21  2  0  0  0  0
 23 22  1  0  0  0  0
 23 18  2  0  0  0  0
 25 49  1  0  0  0  0
 25 26  1  0  0  0  0
 25 24  1  0  0  0  0
 26 50  1  0  0  0  0
 26 51  1  0  0  0  0
 28  3  1  0  0  0  0
 29  4  1  0  0  0  0
 32  9  1  0  0  0  0
 36 13  1  0  0  0  0
 40 15  1  0  0  0  0
 41 15  1  0  0  0  0
 42 17  1  0  0  0  0
 43 17  1  0  0  0  0
 46 22  1  0  0  0  0
 47 23  1  0  0  0  0
 48 25  1  0  0  0  0
 52 26  1  0  0  0  0
 53 27  1  0  0  0  0
M  END
>  <Pose>
1

>  <Score>
-5.23

$$$$
