
 OpenBabel03212208273D

 50 53  0  0  1  0  0  0  0  0999 V2000
   91.4270   93.8880  -45.6320 B   0  0  0  0  0  0  0  0  0  0  0  0
   91.6250   95.5230  -44.6580 C   0  0  0  0  0  0  0  0  0  0  0  0
   91.6110   95.5370  -43.2800 C   0  0  0  0  0  0  0  0  0  0  0  0
   91.7520   96.7360  -42.5920 C   0  0  0  0  0  0  0  0  0  0  0  0
   91.9090   97.9210  -43.2290 C   0  0  0  0  0  0  0  0  0  0  0  0
   91.9240   97.9120  -44.6400 C   0  0  0  0  0  0  0  0  0  0  0  0
   91.7840   96.7240  -45.3080 C   0  0  0  0  0  0  0  0  0  0  0  0
   92.0660   99.2490  -42.6400 C   0  0  2  0  0  0  0  0  0  0  0  0
   90.9370  100.1230  -42.6510 N   0  0  0  0  0  0  0  0  0  0  0  0
   89.6550   99.9130  -42.0540 C   0  0  0  0  0  0  0  0  0  0  0  0
   88.4620  100.2250  -42.8710 C   0  0  0  0  0  0  0  0  0  0  0  0
   88.6940  100.7790  -44.2310 C   0  0  0  0  0  0  0  0  0  0  0  0
   89.1810  102.2270  -44.1890 C   0  0  0  0  0  0  0  0  0  0  0  0
   90.6680  102.1730  -44.0360 C   0  0  0  0  0  0  0  0  0  0  0  0
   91.4040  101.2850  -43.3880 C   0  0  0  0  0  0  0  0  0  0  0  0
   92.8250  101.3240  -43.3230 N   0  0  0  0  0  4  0  0  0  0  0  0
   93.1300   99.9350  -43.5030 C   0  0  0  0  0  0  0  0  0  0  0  0
   93.2150  101.8290  -42.0720 C   0  0  0  0  0  0  0  0  0  0  0  0
   94.5610  102.1390  -41.8090 C   0  0  0  0  0  0  0  0  0  0  0  0
   94.9740  102.6290  -40.5990 C   0  0  0  0  0  0  0  0  0  0  0  0
   94.0730  102.8420  -39.5770 C   0  0  0  0  0  0  0  0  0  0  0  0
   92.7550  102.5470  -39.8100 C   0  0  0  0  0  0  0  0  0  0  0  0
   92.3400  102.0530  -41.0290 C   0  0  0  0  0  0  0  0  0  0  0  0
   94.5070  103.3470  -38.3360 O   0  0  0  0  0  0  0  0  0  0  0  0
   94.2250  102.6440  -37.1550 C   0  0  0  0  0  0  0  0  0  0  0  0
   92.5660   99.0360  -41.3400 O   0  0  0  0  0  0  0  0  0  0  0  0
   91.4880   94.6390  -42.7100 H   0  0  0  0  0  0  0  0  0  0  0  0
   91.7340   96.7460  -41.5140 H   0  0  0  0  0  0  0  0  0  0  0  0
   92.0470   98.8320  -45.2120 H   0  0  0  0  0  0  0  0  0  0  0  0
   91.7930   96.6970  -46.3900 H   0  0  0  0  0  0  0  0  0  0  0  0
   89.6420   98.8560  -41.6540 H   0  0  0  0  0  0  0  0  0  0  0  0
   89.5340  100.5140  -41.0930 H   0  0  0  0  0  0  0  0  0  0  0  0
   87.7120  100.8830  -42.3660 H   0  0  0  0  0  0  0  0  0  0  0  0
   87.8920   99.2580  -43.0260 H   0  0  0  0  0  0  0  0  0  0  0  0
   89.3770  100.1540  -44.8490 H   0  0  0  0  0  0  0  0  0  0  0  0
   87.7210  100.8040  -44.7670 H   0  0  0  0  0  0  0  0  0  0  0  0
   88.9730  102.6360  -45.2210 H   0  0  0  0  0  0  0  0  0  0  0  0
   88.6830  102.7720  -43.3930 H   0  0  0  0  0  0  0  0  0  0  0  0
   91.2100  102.9730  -44.5250 H   0  0  0  0  0  0  0  0  0  0  0  0
   93.1660  101.9180  -44.1190 H   0  0  0  0  0  0  0  0  0  0  0  0
   94.1420   99.6290  -43.2840 H   0  0  0  0  0  0  0  0  0  0  0  0
   92.9080   99.6810  -44.5700 H   0  0  0  0  0  0  0  0  0  0  0  0
   95.2290  101.9610  -42.6220 H   0  0  0  0  0  0  0  0  0  0  0  0
   96.0130  102.8640  -40.4110 H   0  0  0  0  0  0  0  0  0  0  0  0
   92.0330  102.7180  -38.9960 H   0  0  0  0  0  0  0  0  0  0  0  0
   91.2730  101.8370  -41.1640 H   0  0  0  0  0  0  0  0  0  0  0  0
   94.4540  101.5610  -37.2250 H   0  0  0  0  0  0  0  0  0  0  0  0
   93.1540  102.8040  -36.8970 H   0  0  0  0  0  0  0  0  0  0  0  0
   94.8290  103.0410  -36.3220 H   0  0  0  0  0  0  0  0  0  0  0  0
   93.5470   98.9550  -41.4540 H   0  0  0  0  0  0  0  0  0  0  0  0
  1  2  1  0  0  0  0
  2  3  1  0  0  0  0
  3 27  1  0  0  0  0
  3  4  2  0  0  0  0
  4 28  1  0  0  0  0
  5  8  1  0  0  0  0
  5  4  1  0  0  0  0
  6  5  2  0  0  0  0
  7  2  2  0  0  0  0
  7  6  1  0  0  0  0
  8 26  1  1  0  0  0
  9  8  1  0  0  0  0
  9 10  1  0  0  0  0
 10 31  1  0  0  0  0
 10 32  1  0  0  0  0
 11 33  1  0  0  0  0
 11 10  1  0  0  0  0
 12 13  1  0  0  0  0
 12 11  1  0  0  0  0
 13 14  1  0  0  0  0
 13 38  1  0  0  0  0
 14 15  2  0  0  0  0
 15 16  1  0  0  0  0
 15  9  1  0  0  0  0
 16 18  1  0  0  0  0
 17 16  1  0  0  0  0
 17 41  1  0  0  0  0
 17  8  1  0  0  0  0
 18 19  2  0  0  0  0
 18 23  1  0  0  0  0
 19 20  1  0  0  0  0
 20 44  1  0  0  0  0
 20 21  2  0  0  0  0
 21 24  1  0  0  0  0
 22 21  1  0  0  0  0
 22 45  1  0  0  0  0
 23 22  2  0  0  0  0
 24 25  1  0  0  0  0
 25 48  1  0  0  0  0
 25 49  1  0  0  0  0
 29  6  1  0  0  0  0
 30  7  1  0  0  0  0
 34 11  1  0  0  0  0
 35 12  1  0  0  0  0
 36 12  1  0  0  0  0
 37 13  1  0  0  0  0
 39 14  1  0  0  0  0
 40 16  1  0  0  0  0
 42 17  1  0  0  0  0
 43 19  1  0  0  0  0
 46 23  1  0  0  0  0
 47 25  1  0  0  0  0
 50 26  1  0  0  0  0
M  END
>  <Pose>
1

>  <Score>
-3.92

$$$$
