
 OpenBabel03212208273D

 56 59  0  0  1  0  0  0  0  0999 V2000
   84.2170   97.9930  -43.6740 B   0  0  0  0  0  0  0  0  0  0  0  0
   85.8580   97.7170  -44.5920 C   0  0  0  0  0  0  0  0  0  0  0  0
   85.9270   96.8120  -45.6470 C   0  0  0  0  0  0  0  0  0  0  0  0
   87.1090   96.6130  -46.3080 C   0  0  0  0  0  0  0  0  0  0  0  0
   88.2390   97.3060  -45.9320 C   0  0  0  0  0  0  0  0  0  0  0  0
   88.1540   98.1990  -44.8850 C   0  0  0  0  0  0  0  0  0  0  0  0
   86.9820   98.4230  -44.2000 C   0  0  0  0  0  0  0  0  0  0  0  0
   89.4800   97.0980  -46.6180 N   0  0  0  0  0  0  0  0  0  0  0  0
   90.7650   97.1730  -45.9520 C   0  0  0  0  0  0  0  0  0  0  0  0
   91.1560   95.8780  -45.3080 C   0  0  0  0  0  0  0  0  0  0  0  0
   91.5890   95.6350  -44.0600 N   0  0  0  0  0  0  0  0  0  0  0  0
   91.8120   94.3120  -43.9470 C   0  0  1  0  0  0  0  0  0  0  0  0
   91.5110   93.7230  -45.1510 N   0  0  0  0  0  0  0  0  0  0  0  0
   91.1180   94.7020  -45.9470 N   0  0  0  0  0  0  0  0  0  0  0  0
   91.6310   92.3710  -45.5290 C   0  0  0  0  0  0  0  0  0  0  0  0
   91.1960   91.9840  -46.8450 C   0  0  2  0  0  0  0  0  0  0  0  0
   90.6350   92.9920  -47.5140 O   0  0  0  0  0  0  0  0  0  0  0  0
   91.2290   90.7610  -47.5970 C   0  0  0  0  0  0  0  0  0  0  0  0
   90.0710   90.2950  -48.2580 C   0  0  0  0  0  0  0  0  0  0  0  0
   90.0450   89.1340  -48.9840 C   0  0  0  0  0  0  0  0  0  0  0  0
   91.1680   88.3540  -49.1040 C   0  0  0  0  0  0  0  0  0  0  0  0
   92.3110   88.7700  -48.4800 C   0  0  0  0  0  0  0  0  0  0  0  0
   92.3240   89.9650  -47.7370 C   0  0  0  0  0  0  0  0  0  0  0  0
   91.1400   87.1730  -49.8440 O   0  0  0  0  0  0  0  0  0  0  0  0
   90.5070   86.0060  -49.3800 C   0  0  0  0  0  0  0  0  0  0  0  0
   92.2900   93.4770  -42.8410 C   0  0  0  0  0  0  0  0  0  0  0  0
   91.8760   93.9400  -41.4700 C   0  0  0  0  0  0  0  0  0  0  0  0
   92.3870   95.2970  -41.1140 C   0  0  0  0  0  0  0  0  0  0  0  0
   91.4110   96.3020  -41.6810 C   0  0  0  0  0  0  0  0  0  0  0  0
   91.7530   96.6780  -43.1020 C   0  0  0  0  0  0  0  0  0  0  0  0
   85.0060   96.2840  -45.9090 H   0  0  0  0  0  0  0  0  0  0  0  0
   87.1540   95.9180  -47.1180 H   0  0  0  0  0  0  0  0  0  0  0  0
   89.0310   98.7410  -44.5910 H   0  0  0  0  0  0  0  0  0  0  0  0
   86.8870   99.1190  -43.3770 H   0  0  0  0  0  0  0  0  0  0  0  0
   89.4140   96.8870  -47.6380 H   0  0  0  0  0  0  0  0  0  0  0  0
   91.5700   97.5140  -46.6590 H   0  0  0  0  0  0  0  0  0  0  0  0
   90.7090   97.9710  -45.1810 H   0  0  0  0  0  0  0  0  0  0  0  0
   91.1830   91.6820  -44.7250 H   0  0  0  0  0  0  0  0  0  0  0  0
   92.7340   92.0240  -45.4600 H   0  0  0  0  0  0  0  0  0  0  0  0
   89.1830   90.9050  -48.1660 H   0  0  0  0  0  0  0  0  0  0  0  0
   89.1200   88.8330  -49.4690 H   0  0  0  0  0  0  0  0  0  0  0  0
   93.2080   88.1630  -48.5660 H   0  0  0  0  0  0  0  0  0  0  0  0
   93.2480   90.1900  -47.2940 H   0  0  0  0  0  0  0  0  0  0  0  0
   90.8610   85.7830  -48.3460 H   0  0  0  0  0  0  0  0  0  0  0  0
   90.8290   85.1620  -50.0240 H   0  0  0  0  0  0  0  0  0  0  0  0
   89.4030   86.0860  -49.4100 H   0  0  0  0  0  0  0  0  0  0  0  0
   93.3960   93.3980  -42.8430 H   0  0  0  0  0  0  0  0  0  0  0  0
   91.8660   92.4580  -42.9600 H   0  0  0  0  0  0  0  0  0  0  0  0
   92.3170   93.2160  -40.7470 H   0  0  0  0  0  0  0  0  0  0  0  0
   90.7800   93.8930  -41.3180 H   0  0  0  0  0  0  0  0  0  0  0  0
   92.3750   95.4110  -39.9990 H   0  0  0  0  0  0  0  0  0  0  0  0
   93.3770   95.5070  -41.5250 H   0  0  0  0  0  0  0  0  0  0  0  0
   91.5060   97.2260  -41.0740 H   0  0  0  0  0  0  0  0  0  0  0  0
   90.3500   95.9700  -41.5800 H   0  0  0  0  0  0  0  0  0  0  0  0
   92.8150   97.0010  -43.0950 H   0  0  0  0  0  0  0  0  0  0  0  0
   91.0640   97.5080  -43.3660 H   0  0  0  0  0  0  0  0  0  0  0  0
  2  7  1  0  0  0  0
  2  1  1  0  0  0  0
  3  2  2  0  0  0  0
  4  5  2  0  0  0  0
  4  3  1  0  0  0  0
  5  6  1  0  0  0  0
  6 33  1  0  0  0  0
  6  7  2  0  0  0  0
  7 34  1  0  0  0  0
  8  9  1  0  0  0  0
  8  5  1  0  0  0  0
  9 10  1  0  0  0  0
  9 37  1  0  0  0  0
 10 11  1  0  0  0  0
 11 12  1  0  0  0  0
 11 30  1  0  0  0  0
 12 13  1  6  0  0  0
 12 26  1  0  0  0  0
 14 10  2  0  0  0  0
 14 13  1  0  0  0  0
 15 39  1  0  0  0  0
 15 13  1  0  0  0  0
 15 38  1  0  0  0  0
 16 17  1  1  0  0  0
 16 15  1  0  0  0  0
 18 16  1  0  0  0  0
 19 40  1  0  0  0  0
 19 18  2  0  0  0  0
 20 19  1  0  0  0  0
 21 20  2  0  0  0  0
 21 22  1  0  0  0  0
 22 23  2  0  0  0  0
 23 18  1  0  0  0  0
 23 43  1  0  0  0  0
 24 25  1  0  0  0  0
 24 21  1  0  0  0  0
 25 44  1  0  0  0  0
 26 27  1  0  0  0  0
 27 50  1  0  0  0  0
 27 28  1  0  0  0  0
 27 49  1  0  0  0  0
 28 51  1  0  0  0  0
 29 54  1  0  0  0  0
 29 28  1  0  0  0  0
 29 53  1  0  0  0  0
 30 55  1  0  0  0  0
 30 29  1  0  0  0  0
 31  3  1  0  0  0  0
 32  4  1  0  0  0  0
 35  8  1  0  0  0  0
 36  9  1  0  0  0  0
 41 20  1  0  0  0  0
 42 22  1  0  0  0  0
 45 25  1  0  0  0  0
 46 25  1  0  0  0  0
 47 26  1  0  0  0  0
 48 26  1  0  0  0  0
 52 28  1  0  0  0  0
 56 30  1  0  0  0  0
M  END
>  <Pose>
1

>  <Score>
-6.02

$$$$
