
 OpenBabel03212208273D

 55 58  0  0  1  0  0  0  0  0999 V2000
   91.7830   91.4510  -46.5650 B   0  0  0  0  0  0  0  0  0  0  0  0
   91.7180   92.9550  -45.3810 C   0  0  0  0  0  0  0  0  0  0  0  0
   91.3070   94.2000  -45.8160 C   0  0  0  0  0  0  0  0  0  0  0  0
   91.2620   95.2790  -44.9610 C   0  0  0  0  0  0  0  0  0  0  0  0
   91.6470   95.0550  -43.6560 C   0  0  0  0  0  0  0  0  0  0  0  0
   92.0570   93.8130  -43.2160 C   0  0  0  0  0  0  0  0  0  0  0  0
   92.1010   92.7360  -44.0750 C   0  0  0  0  0  0  0  0  0  0  0  0
   92.5460   91.3990  -43.5880 C   0  0  0  0  0  0  0  0  0  0  0  0
   91.5920   96.1620  -42.8110 O   0  0  0  0  0  0  0  0  0  0  0  0
   91.4870   97.4740  -43.2510 C   0  0  0  0  0  0  0  0  0  0  0  0
   90.7140   97.6710  -44.5110 C   0  0  2  0  0  0  0  0  0  0  0  0
   90.8150   96.5670  -45.5030 C   0  0  2  0  0  0  0  0  0  0  0  0
   89.5660   96.3340  -46.1280 O   0  0  0  0  0  0  0  0  0  0  0  0
   91.2960   98.8590  -45.1440 N   0  0  0  0  0  4  0  0  0  0  0  0
   92.1470   98.5530  -46.2420 C   0  0  0  0  0  0  0  0  0  0  0  0
   92.3570   99.8720  -47.0020 C   0  0  0  0  0  0  0  0  0  0  0  0
   93.0340  100.7150  -46.1370 O   0  0  0  0  0  0  0  0  0  0  0  0
   92.3290  100.9880  -44.9710 C   0  0  0  0  0  0  0  0  0  0  0  0
   91.9970   99.6930  -44.2160 C   0  0  0  0  0  0  0  0  0  0  0  0
   89.2560   97.9950  -44.2580 C   0  0  0  0  0  0  0  0  0  0  0  0
   88.9660   99.3960  -44.2490 N   0  0  0  0  0  4  0  0  0  0  0  0
   88.0520   99.7870  -45.3080 C   0  0  0  0  0  0  0  0  0  0  0  0
   86.9740  100.7330  -44.8020 C   0  0  0  0  0  0  0  0  0  0  0  0
   86.1580  100.1420  -43.8520 O   0  0  0  0  0  0  0  0  0  0  0  0
   86.8710   99.2510  -43.0550 C   0  0  0  0  0  0  0  0  0  0  0  0
   88.2950   99.7630  -42.9910 C   0  0  0  0  0  0  0  0  0  0  0  0
   91.0130   94.3270  -46.8630 H   0  0  0  0  0  0  0  0  0  0  0  0
   92.3530   93.6630  -42.1870 H   0  0  0  0  0  0  0  0  0  0  0  0
   93.6570   91.3320  -43.5850 H   0  0  0  0  0  0  0  0  0  0  0  0
   92.2010   91.1980  -42.5620 H   0  0  0  0  0  0  0  0  0  0  0  0
   92.1840   90.6320  -44.3050 H   0  0  0  0  0  0  0  0  0  0  0  0
   91.0520   98.0810  -42.4260 H   0  0  0  0  0  0  0  0  0  0  0  0
   92.5420   97.8680  -43.3600 H   0  0  0  0  0  0  0  0  0  0  0  0
   91.4990   96.8220  -46.3650 H   0  0  0  0  0  0  0  0  0  0  0  0
   88.9590   95.8160  -45.5600 H   0  0  0  0  0  0  0  0  0  0  0  0
   90.4810   99.4050  -45.5040 H   0  0  0  0  0  0  0  0  0  0  0  0
   91.7600   97.8400  -46.9660 H   0  0  0  0  0  0  0  0  0  0  0  0
   93.1780   98.2800  -45.8770 H   0  0  0  0  0  0  0  0  0  0  0  0
   92.9900   99.6600  -47.8620 H   0  0  0  0  0  0  0  0  0  0  0  0
   91.3450  100.2320  -47.2560 H   0  0  0  0  0  0  0  0  0  0  0  0
   92.9410  101.6680  -44.3630 H   0  0  0  0  0  0  0  0  0  0  0  0
   91.3510  101.4140  -45.2800 H   0  0  0  0  0  0  0  0  0  0  0  0
   92.9800   99.2880  -43.9000 H   0  0  0  0  0  0  0  0  0  0  0  0
   91.4000   99.9920  -43.3340 H   0  0  0  0  0  0  0  0  0  0  0  0
   88.5730   97.4950  -44.9630 H   0  0  0  0  0  0  0  0  0  0  0  0
   89.0060   97.5780  -43.2400 H   0  0  0  0  0  0  0  0  0  0  0  0
   89.7850  100.0180  -44.3140 H   0  0  0  0  0  0  0  0  0  0  0  0
   87.5180   98.8780  -45.6620 H   0  0  0  0  0  0  0  0  0  0  0  0
   88.5610  100.3200  -46.1370 H   0  0  0  0  0  0  0  0  0  0  0  0
   87.3730  101.7140  -44.5040 H   0  0  0  0  0  0  0  0  0  0  0  0
   86.3180  100.9310  -45.6940 H   0  0  0  0  0  0  0  0  0  0  0  0
   86.8160   98.2600  -43.5540 H   0  0  0  0  0  0  0  0  0  0  0  0
   86.3960   99.2400  -42.0600 H   0  0  0  0  0  0  0  0  0  0  0  0
   88.3050  100.8690  -42.8990 H   0  0  0  0  0  0  0  0  0  0  0  0
   88.8480   99.3660  -42.1150 H   0  0  0  0  0  0  0  0  0  0  0  0
  1  2  1  0  0  0  0
  2  7  1  0  0  0  0
  3  2  2  0  0  0  0
  3  4  1  0  0  0  0
  4  5  2  0  0  0  0
  5  6  1  0  0  0  0
  5  9  1  0  0  0  0
  6 28  1  0  0  0  0
  7  8  1  0  0  0  0
  7  6  2  0  0  0  0
  8 29  1  0  0  0  0
  8 30  1  0  0  0  0
 10  9  1  0  0  0  0
 10 32  1  0  0  0  0
 11 20  1  1  0  0  0
 11 10  1  0  0  0  0
 12 34  1  6  0  0  0
 12  4  1  0  0  0  0
 12 11  1  0  0  0  0
 13 35  1  0  0  0  0
 13 12  1  0  0  0  0
 14 11  1  0  0  0  0
 14 19  1  0  0  0  0
 15 38  1  0  0  0  0
 15 14  1  0  0  0  0
 16 15  1  0  0  0  0
 16 17  1  0  0  0  0
 17 18  1  0  0  0  0
 18 41  1  0  0  0  0
 18 19  1  0  0  0  0
 19 43  1  0  0  0  0
 19 44  1  0  0  0  0
 20 21  1  0  0  0  0
 20 46  1  0  0  0  0
 21 26  1  0  0  0  0
 22 23  1  0  0  0  0
 22 21  1  0  0  0  0
 23 50  1  0  0  0  0
 23 24  1  0  0  0  0
 24 25  1  0  0  0  0
 25 26  1  0  0  0  0
 25 53  1  0  0  0  0
 26 54  1  0  0  0  0
 26 55  1  0  0  0  0
 27  3  1  0  0  0  0
 31  8  1  0  0  0  0
 33 10  1  0  0  0  0
 36 14  1  0  0  0  0
 37 15  1  0  0  0  0
 39 16  1  0  0  0  0
 40 16  1  0  0  0  0
 42 18  1  0  0  0  0
 45 20  1  0  0  0  0
 47 21  1  0  0  0  0
 48 22  1  0  0  0  0
 49 22  1  0  0  0  0
 51 23  1  0  0  0  0
 52 25  1  0  0  0  0
M  END
>  <Pose>
1

>  <Score>
-3.67

$$$$
