
 OpenBabel03212208273D

 50 53  0  0  0  0  0  0  0  0999 V2000
   92.8000  102.6550  -42.9710 F   0  0  0  0  0  0  0  0  0  0  0  0
   92.5100  101.4680  -43.5730 C   0  0  0  0  0  0  0  0  0  0  0  0
   92.3650  100.3030  -42.8500 C   0  0  0  0  0  0  0  0  0  0  0  0
   92.0710   99.1110  -43.4800 C   0  0  0  0  0  0  0  0  0  0  0  0
   91.9100   99.0290  -44.8530 C   0  0  0  0  0  0  0  0  0  0  0  0
   92.0560  100.1990  -45.5680 C   0  0  0  0  0  0  0  0  0  0  0  0
   92.3530  101.4000  -44.9380 C   0  0  0  0  0  0  0  0  0  0  0  0
   91.6000   97.7730  -45.5230 C   0  0  0  0  0  0  0  0  0  0  0  0
   90.4140   97.2800  -45.4790 N   0  0  0  0  0  0  0  0  0  0  0  0
   90.0480   96.0910  -46.0930 N   0  0  0  0  0  0  0  0  0  0  0  0
   90.6770   94.8730  -45.7440 C   0  0  0  0  0  0  0  0  0  0  0  0
   91.2040   94.7200  -44.5100 N   0  0  0  0  0  4  0  0  0  0  0  0
   91.8210   93.5800  -44.1110 C   0  0  0  0  0  0  0  0  0  0  0  0
   91.8860   92.5940  -45.0080 N   0  0  0  0  0  0  0  0  0  0  0  0
   91.3840   92.6750  -46.2520 C   0  0  0  0  0  0  0  0  0  0  0  0
   90.7850   93.8320  -46.5870 N   0  0  0  0  0  0  0  0  0  0  0  0
   91.4900   91.5820  -47.1540 N   0  0  0  0  0  0  0  0  0  0  0  0
   90.8670   91.6860  -48.4590 C   0  0  0  0  0  0  0  0  0  0  0  0
   91.0740   90.3960  -49.2210 C   0  0  0  0  0  0  0  0  0  0  0  0
   92.3630   89.9460  -49.2290 O   0  0  0  0  0  0  0  0  0  0  0  0
   93.0570   90.0410  -48.0520 C   0  0  0  0  0  0  0  0  0  0  0  0
   92.1820   90.3640  -46.8530 C   0  0  0  0  0  0  0  0  0  0  0  0
   92.3600   93.4720  -42.7980 N   0  0  0  0  0  0  0  0  0  0  0  0
   92.1440   94.4440  -41.7520 C   0  0  0  0  0  0  0  0  0  0  0  0
   93.5560   94.8130  -41.2980 C   0  0  0  0  0  0  0  0  0  0  0  0
   94.1150   93.7480  -40.6940 O   0  0  0  0  0  0  0  0  0  0  0  0
   94.0360   92.5350  -41.2540 C   0  0  0  0  0  0  0  0  0  0  0  0
   93.1790   92.3380  -42.4420 C   0  0  0  0  0  0  0  0  0  0  0  0
   92.5820  100.3870  -40.9540 B   0  0  0  0  0  0  0  0  0  0  0  0
   91.9540   98.1800  -42.9140 H   0  0  0  0  0  0  0  0  0  0  0  0
   91.9300  100.1400  -46.6540 H   0  0  0  0  0  0  0  0  0  0  0  0
   92.4650  102.3140  -45.5200 H   0  0  0  0  0  0  0  0  0  0  0  0
   92.3780   97.2650  -46.0570 H   0  0  0  0  0  0  0  0  0  0  0  0
   89.3080   96.0890  -46.8150 H   0  0  0  0  0  0  0  0  0  0  0  0
   89.7490   91.8010  -48.3570 H   0  0  0  0  0  0  0  0  0  0  0  0
   91.3360   92.5240  -48.9830 H   0  0  0  0  0  0  0  0  0  0  0  0
   90.8030   90.6310  -50.2900 H   0  0  0  0  0  0  0  0  0  0  0  0
   90.3480   89.6300  -48.9000 H   0  0  0  0  0  0  0  0  0  0  0  0
   93.7760   90.8940  -48.1390 H   0  0  0  0  0  0  0  0  0  0  0  0
   93.6190   89.0910  -47.8950 H   0  0  0  0  0  0  0  0  0  0  0  0
   91.4310   89.5470  -46.7940 H   0  0  0  0  0  0  0  0  0  0  0  0
   92.8110   90.4440  -45.9650 H   0  0  0  0  0  0  0  0  0  0  0  0
   91.6890   93.9020  -40.8980 H   0  0  0  0  0  0  0  0  0  0  0  0
   91.5730   95.3250  -42.0730 H   0  0  0  0  0  0  0  0  0  0  0  0
   94.1050   95.1530  -42.1950 H   0  0  0  0  0  0  0  0  0  0  0  0
   93.4990   95.6590  -40.5550 H   0  0  0  0  0  0  0  0  0  0  0  0
   93.7070   91.8000  -40.4590 H   0  0  0  0  0  0  0  0  0  0  0  0
   95.0860   92.1850  -41.4950 H   0  0  0  0  0  0  0  0  0  0  0  0
   92.4530   91.4820  -42.3000 H   0  0  0  0  0  0  0  0  0  0  0  0
   93.7950   92.0020  -43.3290 H   0  0  0  0  0  0  0  0  0  0  0  0
  2  1  1  0  0  0  0
  2  3  1  0  0  0  0
  3 29  1  0  0  0  0
  4 30  1  0  0  0  0
  4  3  2  0  0  0  0
  5  4  1  0  0  0  0
  6  7  1  0  0  0  0
  6  5  2  0  0  0  0
  7  2  2  0  0  0  0
  8  9  2  0  0  0  0
  8  5  1  0  0  0  0
 10 11  1  0  0  0  0
 10  9  1  0  0  0  0
 11 12  2  0  0  0  0
 12 13  2  0  0  0  0
 13 23  1  0  0  0  0
 14 13  1  0  0  0  0
 15 14  2  0  0  0  0
 16 15  1  0  0  0  0
 16 11  1  0  0  0  0
 17 22  1  0  0  0  0
 17 15  1  0  0  0  0
 18 35  1  0  0  0  0
 18 17  1  0  0  0  0
 19 38  1  0  0  0  0
 19 18  1  0  0  0  0
 20 19  1  0  0  0  0
 20 21  1  0  0  0  0
 21 40  1  0  0  0  0
 21 22  1  0  0  0  0
 22 41  1  0  0  0  0
 22 42  1  0  0  0  0
 23 28  1  0  0  0  0
 23 24  1  0  0  0  0
 24 25  1  0  0  0  0
 24 43  1  0  0  0  0
 25 26  1  0  0  0  0
 25 46  1  0  0  0  0
 27 26  1  0  0  0  0
 27 47  1  0  0  0  0
 28 49  1  0  0  0  0
 28 27  1  0  0  0  0
 31  6  1  0  0  0  0
 32  7  1  0  0  0  0
 33  8  1  0  0  0  0
 34 10  1  0  0  0  0
 36 18  1  0  0  0  0
 37 19  1  0  0  0  0
 39 21  1  0  0  0  0
 44 24  1  0  0  0  0
 45 25  1  0  0  0  0
 48 27  1  0  0  0  0
 50 28  1  0  0  0  0
M  END
>  <Pose>
1

>  <Score>
-6.08

$$$$
