
 OpenBabel03212208273D

 41 44  0  0  0  0  0  0  0  0999 V2000
   87.0010   98.9930  -42.8270 F   0  0  0  0  0  0  0  0  0  0  0  0
   87.5180  100.2410  -42.6550 C   0  0  0  0  0  0  0  0  0  0  0  0
   88.8680  100.3390  -42.2780 C   0  0  0  0  0  0  0  0  0  0  0  0
   89.3890  101.5830  -42.1050 C   0  0  0  0  0  0  0  0  0  0  0  0
   88.6360  102.7640  -42.2860 C   0  0  0  0  0  0  0  0  0  0  0  0
   87.3180  102.6250  -42.6540 C   0  0  0  0  0  0  0  0  0  0  0  0
   86.7670  101.3740  -42.8360 C   0  0  0  0  0  0  0  0  0  0  0  0
   86.5430  103.7180  -42.8430 F   0  0  0  0  0  0  0  0  0  0  0  0
   89.6010   99.1550  -42.1040 N   0  0  0  0  0  0  0  0  0  0  0  0
   90.1600   98.3990  -43.1310 C   0  0  0  0  0  0  0  0  0  0  0  0
   89.5450   98.0410  -44.1400 O   0  0  0  0  0  0  0  0  0  0  0  0
   91.6100   97.9720  -43.0320 C   0  0  0  0  0  0  0  0  0  0  0  0
   91.6740   96.6510  -42.4460 N   0  0  0  0  0  0  0  0  0  0  0  0
   91.6270   96.4300  -41.1450 N   0  0  0  0  0  0  0  0  0  0  0  0
   91.7160   95.1200  -40.9960 N   0  0  0  0  0  0  0  0  0  0  0  0
   91.8180   94.5010  -42.1890 C   0  0  0  0  0  0  0  0  0  0  0  0
   91.7900   95.4840  -43.1040 C   0  0  0  0  0  0  0  0  0  0  0  0
   91.8950   94.8370  -44.3130 C   0  0  0  0  0  0  0  0  0  0  0  0
   91.9050   95.4130  -45.4340 O   0  0  0  0  0  0  0  0  0  0  0  0
   91.9840   93.5010  -44.1600 N   0  0  0  0  0  0  0  0  0  0  0  0
   91.9380   93.2830  -42.8350 C   0  0  0  0  0  0  0  0  0  0  0  0
   91.9940   92.1530  -42.2830 O   0  0  0  0  0  0  0  0  0  0  0  0
   92.1050   92.5410  -45.2250 C   0  0  0  0  0  0  0  0  0  0  0  0
   93.1150   91.5990  -45.2150 C   0  0  0  0  0  0  0  0  0  0  0  0
   93.2690   90.6600  -46.2140 C   0  0  0  0  0  0  0  0  0  0  0  0
   92.3590   90.6910  -47.2530 C   0  0  0  0  0  0  0  0  0  0  0  0
   91.3270   91.6120  -47.3160 C   0  0  0  0  0  0  0  0  0  0  0  0
   91.2300   92.5240  -46.2840 C   0  0  0  0  0  0  0  0  0  0  0  0
   92.5930   89.3750  -48.6330 B   0  0  0  0  0  0  0  0  0  0  0  0
   90.4010  101.7490  -41.8200 H   0  0  0  0  0  0  0  0  0  0  0  0
   89.0860  103.7330  -42.1380 H   0  0  0  0  0  0  0  0  0  0  0  0
   85.7150  101.2740  -43.1300 H   0  0  0  0  0  0  0  0  0  0  0  0
   89.7590   98.7790  -41.1070 H   0  0  0  0  0  0  0  0  0  0  0  0
   92.1540   98.6910  -42.3770 H   0  0  0  0  0  0  0  0  0  0  0  0
   92.0380   98.0410  -44.0330 H   0  0  0  0  0  0  0  0  0  0  0  0
   91.5380   97.1460  -40.3670 H   0  0  0  0  0  0  0  0  0  0  0  0
   91.7040   94.6570  -40.0490 H   0  0  0  0  0  0  0  0  0  0  0  0
   93.7960   91.6230  -44.3760 H   0  0  0  0  0  0  0  0  0  0  0  0
   94.0800   89.9180  -46.1860 H   0  0  0  0  0  0  0  0  0  0  0  0
   90.6530   91.5800  -48.1560 H   0  0  0  0  0  0  0  0  0  0  0  0
   90.4230   93.2470  -46.3290 H   0  0  0  0  0  0  0  0  0  0  0  0
  1  2  1  0  0  0  0
  2  3  1  0  0  0  0
  3  4  2  0  0  0  0
  3  9  1  0  0  0  0
  4 30  1  0  0  0  0
  5 31  1  0  0  0  0
  5  4  1  0  0  0  0
  6  5  2  0  0  0  0
  7  2  2  0  0  0  0
  7  6  1  0  0  0  0
  8  6  1  0  0  0  0
  9 33  1  0  0  0  0
 10 12  1  0  0  0  0
 10  9  1  0  0  0  0
 11 10  2  0  0  0  0
 12 13  1  0  0  0  0
 12 34  1  0  0  0  0
 13 14  1  0  0  0  0
 14 15  1  0  0  0  0
 14 36  1  0  0  0  0
 15 37  1  0  0  0  0
 16 15  1  0  0  0  0
 17 13  1  0  0  0  0
 17 16  2  0  0  0  0
 18 20  1  0  0  0  0
 18 17  1  0  0  0  0
 19 18  2  0  0  0  0
 20 21  1  0  0  0  0
 21 22  2  0  0  0  0
 21 16  1  0  0  0  0
 23 24  1  0  0  0  0
 23 20  1  0  0  0  0
 24 38  1  0  0  0  0
 25 39  1  0  0  0  0
 25 24  2  0  0  0  0
 26 25  1  0  0  0  0
 27 26  2  0  0  0  0
 27 28  1  0  0  0  0
 28 23  2  0  0  0  0
 29 26  1  0  0  0  0
 32  7  1  0  0  0  0
 35 12  1  0  0  0  0
 40 27  1  0  0  0  0
 41 28  1  0  0  0  0
M  END
>  <Pose>
1

>  <Score>
-7.49

$$$$
