
 OpenBabel03212208273D

 41 44  0  0  0  0  0  0  0  0999 V2000
   92.6180   89.7610  -48.0820 F   0  0  0  0  0  0  0  0  0  0  0  0
   92.4870   90.6840  -47.0830 C   0  0  0  0  0  0  0  0  0  0  0  0
   93.4070   90.7300  -46.0740 C   0  0  0  0  0  0  0  0  0  0  0  0
   93.2830   91.6700  -45.0490 C   0  0  0  0  0  0  0  0  0  0  0  0
   92.2440   92.5720  -45.0150 C   0  0  0  0  0  0  0  0  0  0  0  0
   91.3280   92.4990  -46.0530 C   0  0  0  0  0  0  0  0  0  0  0  0
   91.4400   91.5770  -47.0690 C   0  0  0  0  0  0  0  0  0  0  0  0
   92.0710   93.5580  -43.9990 N   0  0  0  0  0  0  0  0  0  0  0  0
   91.7920   94.8650  -44.1370 C   0  0  0  0  0  0  0  0  0  0  0  0
   91.6380   95.3890  -45.2730 O   0  0  0  0  0  0  0  0  0  0  0  0
   91.7050   95.5120  -42.9190 C   0  0  0  0  0  0  0  0  0  0  0  0
   91.9380   94.5660  -42.0130 C   0  0  0  0  0  0  0  0  0  0  0  0
   91.8670   95.1510  -40.8140 N   0  0  0  0  0  0  0  0  0  0  0  0
   91.5950   96.4300  -40.9890 N   0  0  0  0  0  0  0  0  0  0  0  0
   91.4870   96.6930  -42.2880 N   0  0  0  0  0  0  0  0  0  0  0  0
   91.1990   97.9360  -42.9420 C   0  0  0  0  0  0  0  0  0  0  0  0
   92.3460   98.6040  -43.5670 C   0  0  0  0  0  0  0  0  0  0  0  0
   92.7360   98.1670  -44.6600 O   0  0  0  0  0  0  0  0  0  0  0  0
   92.9640   99.6920  -42.9440 N   0  0  0  0  0  0  0  0  0  0  0  0
   92.4150  100.6380  -42.0460 C   0  0  0  0  0  0  0  0  0  0  0  0
   91.0710  100.9240  -42.0190 C   0  0  0  0  0  0  0  0  0  0  0  0
   90.4930  101.8520  -41.1480 C   0  0  0  0  0  0  0  0  0  0  0  0
   91.3440  102.4940  -40.2850 C   0  0  0  0  0  0  0  0  0  0  0  0
   92.6900  102.2260  -40.2900 C   0  0  0  0  0  0  0  0  0  0  0  0
   93.2320  101.3120  -41.1550 C   0  0  0  0  0  0  0  0  0  0  0  0
   90.6150  103.7860  -39.0540 B   0  0  0  0  0  0  0  0  0  0  0  0
   92.1630   93.3680  -42.6580 C   0  0  0  0  0  0  0  0  0  0  0  0
   92.4190   92.2340  -42.1620 O   0  0  0  0  0  0  0  0  0  0  0  0
   94.2250   90.0240  -46.0980 H   0  0  0  0  0  0  0  0  0  0  0  0
   94.0120   91.6920  -44.2690 H   0  0  0  0  0  0  0  0  0  0  0  0
   90.5000   93.2200  -46.0220 H   0  0  0  0  0  0  0  0  0  0  0  0
   90.7180   91.5340  -47.8690 H   0  0  0  0  0  0  0  0  0  0  0  0
   92.0100   94.6370  -39.9010 H   0  0  0  0  0  0  0  0  0  0  0  0
   91.4790   97.1350  -40.2470 H   0  0  0  0  0  0  0  0  0  0  0  0
   90.7970   98.6420  -42.1550 H   0  0  0  0  0  0  0  0  0  0  0  0
   90.3340   97.8360  -43.6600 H   0  0  0  0  0  0  0  0  0  0  0  0
   94.0120   99.8670  -43.1550 H   0  0  0  0  0  0  0  0  0  0  0  0
   90.3430  100.4520  -42.6730 H   0  0  0  0  0  0  0  0  0  0  0  0
   89.4300  102.0590  -41.1480 H   0  0  0  0  0  0  0  0  0  0  0  0
   93.3560  102.7440  -39.5990 H   0  0  0  0  0  0  0  0  0  0  0  0
   94.3240  101.1120  -41.1400 H   0  0  0  0  0  0  0  0  0  0  0  0
  1  2  1  0  0  0  0
  2  7  2  0  0  0  0
  2  3  1  0  0  0  0
  3  4  2  0  0  0  0
  4  5  1  0  0  0  0
  4 30  1  0  0  0  0
  5  8  1  0  0  0  0
  6 31  1  0  0  0  0
  6  5  2  0  0  0  0
  7  6  1  0  0  0  0
  8 27  1  0  0  0  0
  9  8  1  0  0  0  0
  9 11  1  0  0  0  0
 10  9  2  0  0  0  0
 11 15  1  0  0  0  0
 11 12  2  0  0  0  0
 12 13  1  0  0  0  0
 13 33  1  0  0  0  0
 14 13  1  0  0  0  0
 14 34  1  0  0  0  0
 15 14  1  0  0  0  0
 16 15  1  0  0  0  0
 16 35  1  0  0  0  0
 17 19  1  0  0  0  0
 17 16  1  0  0  0  0
 18 17  2  0  0  0  0
 19 20  1  0  0  0  0
 20 21  2  0  0  0  0
 20 25  1  0  0  0  0
 21 22  1  0  0  0  0
 22 23  2  0  0  0  0
 23 26  1  0  0  0  0
 24 23  1  0  0  0  0
 24 40  1  0  0  0  0
 25 41  1  0  0  0  0
 25 24  2  0  0  0  0
 27 28  2  0  0  0  0
 27 12  1  0  0  0  0
 29  3  1  0  0  0  0
 32  7  1  0  0  0  0
 36 16  1  0  0  0  0
 37 19  1  0  0  0  0
 38 21  1  0  0  0  0
 39 22  1  0  0  0  0
M  END
>  <Pose>
1

>  <Score>
-7.20

$$$$
