
 OpenBabel03212208273D

 38 41  0  0  1  0  0  0  0  0999 V2000
   94.7540  101.8440  -40.1480 I   0  0  0  0  0  0  0  0  0  0  0  0
   92.6880  102.0090  -40.5510 C   0  0  0  0  0  0  0  0  0  0  0  0
   92.0540  101.0260  -41.3430 C   0  0  0  0  0  0  0  0  0  0  0  0
   90.7190  101.1170  -41.6180 C   0  0  0  0  0  0  0  0  0  0  0  0
   90.0200  102.2040  -41.0880 C   0  0  0  0  0  0  0  0  0  0  0  0
   90.6070  103.1700  -40.3200 C   0  0  0  0  0  0  0  0  0  0  0  0
   91.9690  103.0650  -40.0490 C   0  0  0  0  0  0  0  0  0  0  0  0
   92.8230   99.9520  -41.8350 N   0  0  0  0  0  0  0  0  0  0  0  0
   92.3730   98.7830  -42.4830 C   0  0  1  0  0  0  0  0  0  0  0  0
   91.9580   98.6930  -43.7410 N   0  0  0  0  0  0  0  0  0  0  0  0
   91.5320   97.5730  -44.3490 C   0  0  0  0  0  0  0  0  0  0  0  0
   91.0780   97.2000  -45.5520 N   0  0  0  0  0  0  0  0  0  0  0  0
   90.8080   95.9270  -45.5610 O   0  0  0  0  0  0  0  0  0  0  0  0
   91.0680   95.4190  -44.3900 N   0  0  0  0  0  0  0  0  0  0  0  0
   91.5220   96.3970  -43.5920 C   0  0  0  0  0  0  0  0  0  0  0  0
   91.9250   96.4270  -42.3340 N   0  0  0  0  0  0  0  0  0  0  0  0
   92.3410   97.5660  -41.7740 C   0  0  0  0  0  0  0  0  0  0  0  0
   92.6700   97.2740  -40.5270 N   0  0  0  0  0  0  0  0  0  0  0  0
   92.4630   95.9640  -40.3060 N   0  0  0  0  0  0  0  0  0  0  0  0
   91.9930   95.4070  -41.4320 C   0  0  0  0  0  0  0  0  0  0  0  0
   91.6070   93.9960  -41.6980 C   0  0  0  0  0  0  0  0  0  0  0  0
   92.6710   93.2160  -42.3730 C   0  0  0  0  0  0  0  0  0  0  0  0
   93.8730   93.2720  -42.0400 O   0  0  0  0  0  0  0  0  0  0  0  0
   92.3260   92.3970  -43.4120 O   0  0  0  0  0  0  0  0  0  0  0  0
   92.3730   92.7400  -44.7510 C   0  0  0  0  0  0  0  0  0  0  0  0
   91.4660   91.9950  -45.6530 C   0  0  0  0  0  0  0  0  0  0  0  0
   90.1630  100.4140  -42.2090 H   0  0  0  0  0  0  0  0  0  0  0  0
   88.9510  102.2900  -41.3000 H   0  0  0  0  0  0  0  0  0  0  0  0
   90.0430  103.9990  -39.9260 H   0  0  0  0  0  0  0  0  0  0  0  0
   92.4230  103.8350  -39.4410 H   0  0  0  0  0  0  0  0  0  0  0  0
   93.8880  100.0580  -41.6870 H   0  0  0  0  0  0  0  0  0  0  0  0
   90.6340   93.9170  -42.2170 H   0  0  0  0  0  0  0  0  0  0  0  0
   91.4520   93.4740  -40.7030 H   0  0  0  0  0  0  0  0  0  0  0  0
   92.1790   93.8480  -44.8050 H   0  0  0  0  0  0  0  0  0  0  0  0
   93.4270   92.6410  -45.1410 H   0  0  0  0  0  0  0  0  0  0  0  0
   90.7460   92.7360  -46.1110 H   0  0  0  0  0  0  0  0  0  0  0  0
   90.8110   91.2770  -45.1080 H   0  0  0  0  0  0  0  0  0  0  0  0
   92.0370   91.5140  -46.4570 H   0  0  0  0  0  0  0  0  0  0  0  0
  2  1  1  0  0  0  0
  2  7  1  0  0  0  0
  3  2  2  0  0  0  0
  4  3  1  0  0  0  0
  4  5  2  0  0  0  0
  5  6  1  0  0  0  0
  6  7  2  0  0  0  0
  6 29  1  0  0  0  0
  7 30  1  0  0  0  0
  8 31  1  0  0  0  0
  8  3  1  0  0  0  0
  9  8  1  6  0  0  0
  9 17  1  0  0  0  0
 10  9  1  0  0  0  0
 11 10  2  0  0  0  0
 11 15  1  0  0  0  0
 12 11  1  0  0  0  0
 13 12  1  0  0  0  0
 13 14  1  0  0  0  0
 14 15  2  0  0  0  0
 15 16  1  0  0  0  0
 16 17  1  0  0  0  0
 16 20  1  0  0  0  0
 17 18  2  0  0  0  0
 18 19  1  0  0  0  0
 20 19  2  0  0  0  0
 21 20  1  0  0  0  0
 21 33  1  0  0  0  0
 22 23  2  0  0  0  0
 22 21  1  0  0  0  0
 24 22  1  0  0  0  0
 25 24  1  0  0  0  0
 26 37  1  0  0  0  0
 26 25  1  0  0  0  0
 27  4  1  0  0  0  0
 28  5  1  0  0  0  0
 32 21  1  0  0  0  0
 34 25  1  0  0  0  0
 35 25  1  0  0  0  0
 36 26  1  0  0  0  0
 38 26  1  0  0  0  0
M  END
>  <Pose>
1

>  <Score>
-6.79

$$$$
