
 OpenBabel03212208273D

 34 37  0  0  0  0  0  0  0  0999 V2000
   89.5440   93.6300  -45.8670 I   0  0  0  0  0  0  0  0  0  0  0  0
   91.2790   92.4250  -46.0020 C   0  0  0  0  0  0  0  0  0  0  0  0
   92.2470   92.5960  -45.0330 C   0  0  0  0  0  0  0  0  0  0  0  0
   93.3700   91.8020  -45.1390 C   0  0  0  0  0  0  0  0  0  0  0  0
   93.5100   90.8830  -46.1650 C   0  0  0  0  0  0  0  0  0  0  0  0
   92.5360   90.7210  -47.1280 C   0  0  0  0  0  0  0  0  0  0  0  0
   91.4100   91.5110  -47.0290 C   0  0  0  0  0  0  0  0  0  0  0  0
   92.0890   93.5480  -43.9800 N   0  0  0  0  0  0  0  0  0  0  0  0
   91.8910   94.8750  -44.0660 C   0  0  0  0  0  0  0  0  0  0  0  0
   91.8060   95.5320  -45.1470 O   0  0  0  0  0  0  0  0  0  0  0  0
   91.7870   95.4520  -42.8170 C   0  0  0  0  0  0  0  0  0  0  0  0
   91.9240   94.4570  -41.9550 C   0  0  0  0  0  0  0  0  0  0  0  0
   91.8190   95.0370  -40.7360 N   0  0  0  0  0  0  0  0  0  0  0  0
   91.6250   96.3370  -40.8560 N   0  0  0  0  0  0  0  0  0  0  0  0
   91.6020   96.6160  -42.1340 N   0  0  0  0  0  0  0  0  0  0  0  0
   91.4200   97.8800  -42.7580 C   0  0  0  0  0  0  0  0  0  0  0  0
   90.5200   98.0670  -43.7840 C   0  0  0  0  0  0  0  0  0  0  0  0
   90.3670   99.3130  -44.3720 C   0  0  0  0  0  0  0  0  0  0  0  0
   91.0980  100.4080  -43.9610 C   0  0  0  0  0  0  0  0  0  0  0  0
   91.9990  100.2220  -42.9330 C   0  0  0  0  0  0  0  0  0  0  0  0
   92.1580   98.9910  -42.3450 C   0  0  0  0  0  0  0  0  0  0  0  0
   92.1110   93.2790  -42.6610 C   0  0  0  0  0  0  0  0  0  0  0  0
   92.2750   92.1360  -42.1240 O   0  0  0  0  0  0  0  0  0  0  0  0
   94.1320   91.9320  -44.3840 H   0  0  0  0  0  0  0  0  0  0  0  0
   94.3980   90.2720  -46.2290 H   0  0  0  0  0  0  0  0  0  0  0  0
   92.6750   89.9930  -47.9170 H   0  0  0  0  0  0  0  0  0  0  0  0
   90.6420   91.3780  -47.7940 H   0  0  0  0  0  0  0  0  0  0  0  0
   91.8800   94.5470  -39.8190 H   0  0  0  0  0  0  0  0  0  0  0  0
   91.5120   97.0190  -40.0790 H   0  0  0  0  0  0  0  0  0  0  0  0
   89.9330   97.2240  -44.1260 H   0  0  0  0  0  0  0  0  0  0  0  0
   89.6510   99.4210  -45.1740 H   0  0  0  0  0  0  0  0  0  0  0  0
   90.9520  101.3710  -44.4440 H   0  0  0  0  0  0  0  0  0  0  0  0
   92.5740  101.0870  -42.6120 H   0  0  0  0  0  0  0  0  0  0  0  0
   92.8520   98.8220  -41.5460 H   0  0  0  0  0  0  0  0  0  0  0  0
  2  1  1  0  0  0  0
  2  3  1  0  0  0  0
  3  8  1  0  0  0  0
  4  3  2  0  0  0  0
  4 24  1  0  0  0  0
  5  4  1  0  0  0  0
  6  7  1  0  0  0  0
  6  5  2  0  0  0  0
  7  2  2  0  0  0  0
  8 22  1  0  0  0  0
  9  8  1  0  0  0  0
  9 11  1  0  0  0  0
 10  9  2  0  0  0  0
 11 15  1  0  0  0  0
 11 12  2  0  0  0  0
 12 13  1  0  0  0  0
 13 28  1  0  0  0  0
 14 13  1  0  0  0  0
 14 29  1  0  0  0  0
 15 14  1  0  0  0  0
 16 21  1  0  0  0  0
 16 15  1  0  0  0  0
 17 16  2  0  0  0  0
 18 19  2  0  0  0  0
 18 17  1  0  0  0  0
 19 20  1  0  0  0  0
 20 33  1  0  0  0  0
 20 21  2  0  0  0  0
 21 34  1  0  0  0  0
 22 23  2  0  0  0  0
 22 12  1  0  0  0  0
 25  5  1  0  0  0  0
 26  6  1  0  0  0  0
 27  7  1  0  0  0  0
 30 17  1  0  0  0  0
 31 18  1  0  0  0  0
 32 19  1  0  0  0  0
M  END
>  <Pose>
1

>  <Score>
-4.94

$$$$
