
 OpenBabel03212208273D

 50 53  0  0  0  0  0  0  0  0999 V2000
   91.7820   91.8240  -46.0910 I   0  0  0  0  0  0  0  0  0  0  0  0
   91.9390   93.0960  -44.4370 C   0  0  0  0  0  0  0  0  0  0  0  0
   91.6460   94.4230  -44.4970 C   0  0  0  0  0  0  0  0  0  0  0  0
   91.7730   95.2210  -43.3510 C   0  0  0  0  0  0  0  0  0  0  0  0
   92.1840   94.7340  -42.1450 C   0  0  0  0  0  0  0  0  0  0  0  0
   92.4800   93.3630  -42.1120 C   0  0  0  0  0  0  0  0  0  0  0  0
   92.3570   92.5770  -43.2320 C   0  0  0  0  0  0  0  0  0  0  0  0
   92.3490   95.4610  -40.9170 C   0  0  0  0  0  0  0  0  0  0  0  0
   92.6050   96.6850  -40.7630 N   0  0  0  0  0  0  0  0  0  0  0  0
   92.7760   97.5630  -41.7810 N   0  0  0  0  0  0  0  0  0  0  0  0
   92.0440   98.8120  -41.7690 C   0  0  0  0  0  0  0  0  0  0  0  0
   90.7490   98.8400  -42.1260 N   0  0  0  0  0  4  0  0  0  0  0  0
   90.0530   99.9840  -42.1230 C   0  0  0  0  0  0  0  0  0  0  0  0
   90.7120  101.0920  -41.7470 N   0  0  0  0  0  0  0  0  0  0  0  0
   92.0100  101.1040  -41.3820 C   0  0  0  0  0  0  0  0  0  0  0  0
   92.6740   99.9340  -41.4000 N   0  0  0  0  0  0  0  0  0  0  0  0
   92.6310  102.3220  -40.9970 N   0  0  0  0  0  0  0  0  0  0  0  0
   93.7170  102.8530  -41.7880 C   0  0  0  0  0  0  0  0  0  0  0  0
   94.6710  103.5100  -40.7810 C   0  0  0  0  0  0  0  0  0  0  0  0
   94.0140  104.5800  -40.2310 O   0  0  0  0  0  0  0  0  0  0  0  0
   92.8770  104.3000  -39.5260 C   0  0  0  0  0  0  0  0  0  0  0  0
   92.1910  103.0190  -39.8380 C   0  0  0  0  0  0  0  0  0  0  0  0
   88.6760  100.0380  -42.4970 N   0  0  0  0  0  0  0  0  0  0  0  0
   87.9840   98.9420  -43.1050 C   0  0  0  0  0  0  0  0  0  0  0  0
   86.5980   99.4430  -43.5190 C   0  0  0  0  0  0  0  0  0  0  0  0
   86.6760  100.6320  -44.2240 O   0  0  0  0  0  0  0  0  0  0  0  0
   87.1530  101.6810  -43.4770 C   0  0  0  0  0  0  0  0  0  0  0  0
   87.9280  101.2600  -42.2540 C   0  0  0  0  0  0  0  0  0  0  0  0
   91.3180   94.8380  -45.4370 H   0  0  0  0  0  0  0  0  0  0  0  0
   91.5220   96.2350  -43.5000 H   0  0  0  0  0  0  0  0  0  0  0  0
   92.8120   92.9030  -41.1960 H   0  0  0  0  0  0  0  0  0  0  0  0
   92.6070   91.5240  -43.1210 H   0  0  0  0  0  0  0  0  0  0  0  0
   92.2440   94.9040  -39.9470 H   0  0  0  0  0  0  0  0  0  0  0  0
   93.4100   97.3410  -42.5790 H   0  0  0  0  0  0  0  0  0  0  0  0
   93.3320  103.6070  -42.4880 H   0  0  0  0  0  0  0  0  0  0  0  0
   94.2910  102.0510  -42.2970 H   0  0  0  0  0  0  0  0  0  0  0  0
   94.9830  102.7450  -40.0690 H   0  0  0  0  0  0  0  0  0  0  0  0
   95.5230  103.8860  -41.3650 H   0  0  0  0  0  0  0  0  0  0  0  0
   93.0390  104.4410  -38.4160 H   0  0  0  0  0  0  0  0  0  0  0  0
   92.1430  105.1250  -39.7730 H   0  0  0  0  0  0  0  0  0  0  0  0
   91.0710  103.1360  -39.9260 H   0  0  0  0  0  0  0  0  0  0  0  0
   92.3020  102.3610  -38.9240 H   0  0  0  0  0  0  0  0  0  0  0  0
   88.5060   98.4750  -43.9460 H   0  0  0  0  0  0  0  0  0  0  0  0
   87.8130   98.1740  -42.3080 H   0  0  0  0  0  0  0  0  0  0  0  0
   85.9850   99.5320  -42.5840 H   0  0  0  0  0  0  0  0  0  0  0  0
   86.1030   98.6970  -44.1710 H   0  0  0  0  0  0  0  0  0  0  0  0
   86.3340  102.3590  -43.1120 H   0  0  0  0  0  0  0  0  0  0  0  0
   87.8540  102.2680  -44.1300 H   0  0  0  0  0  0  0  0  0  0  0  0
   87.2130  101.1070  -41.4170 H   0  0  0  0  0  0  0  0  0  0  0  0
   88.6200  102.1100  -42.0140 H   0  0  0  0  0  0  0  0  0  0  0  0
  1  2  1  0  0  0  0
  2  7  1  0  0  0  0
  3  2  2  0  0  0  0
  3  4  1  0  0  0  0
  4  5  2  0  0  0  0
  5  6  1  0  0  0  0
  5  8  1  0  0  0  0
  6 31  1  0  0  0  0
  7 32  1  0  0  0  0
  7  6  2  0  0  0  0
  8  9  2  0  0  0  0
  8 33  1  0  0  0  0
 10 11  1  0  0  0  0
 10  9  1  0  0  0  0
 11 16  1  0  0  0  0
 12 13  2  0  0  0  0
 12 11  2  0  0  0  0
 13 14  1  0  0  0  0
 14 15  2  0  0  0  0
 15 17  1  0  0  0  0
 16 15  1  0  0  0  0
 17 22  1  0  0  0  0
 18 17  1  0  0  0  0
 18 19  1  0  0  0  0
 19 20  1  0  0  0  0
 19 37  1  0  0  0  0
 20 21  1  0  0  0  0
 21 39  1  0  0  0  0
 22 21  1  0  0  0  0
 22 42  1  0  0  0  0
 23 28  1  0  0  0  0
 23 13  1  0  0  0  0
 24 23  1  0  0  0  0
 24 44  1  0  0  0  0
 25 24  1  0  0  0  0
 25 45  1  0  0  0  0
 26 25  1  0  0  0  0
 26 27  1  0  0  0  0
 27 47  1  0  0  0  0
 27 28  1  0  0  0  0
 28 50  1  0  0  0  0
 28 49  1  0  0  0  0
 29  3  1  0  0  0  0
 30  4  1  0  0  0  0
 34 10  1  0  0  0  0
 35 18  1  0  0  0  0
 36 18  1  0  0  0  0
 38 19  1  0  0  0  0
 40 21  1  0  0  0  0
 41 22  1  0  0  0  0
 43 24  1  0  0  0  0
 46 25  1  0  0  0  0
 48 27  1  0  0  0  0
M  END
>  <Pose>
1

>  <Score>
-6.39

$$$$
