
 OpenBabel03212208273D

 40 43  0  0  0  0  0  0  0  0999 V2000
   91.5860   91.3880  -46.6560 I   0  0  0  0  0  0  0  0  0  0  0  0
   92.1640   92.5410  -45.0190 C   0  0  0  0  0  0  0  0  0  0  0  0
   92.8450   92.0400  -43.9090 C   0  0  0  0  0  0  0  0  0  0  0  0
   93.0390   93.0400  -43.0470 N   0  0  0  0  0  0  0  0  0  0  0  0
   92.5160   94.1140  -43.5690 N   0  0  0  0  0  0  0  0  0  0  0  0
   91.9580   93.8600  -44.8000 C   0  0  0  0  0  0  0  0  0  0  0  0
   91.3220   94.9120  -45.6140 C   0  0  0  0  0  0  0  0  0  0  0  0
   90.2590   94.5580  -46.2320 O   0  0  0  0  0  0  0  0  0  0  0  0
   91.7940   96.2120  -45.7390 N   0  0  0  0  0  0  0  0  0  0  0  0
   91.8430   97.2040  -44.7320 C   0  0  0  0  0  0  0  0  0  0  0  0
   92.4150   98.4340  -45.0730 C   0  0  0  0  0  0  0  0  0  0  0  0
   92.9540   98.8770  -46.2220 N   0  0  0  0  0  0  0  0  0  0  0  0
   93.3560  100.1010  -46.0420 O   0  0  0  0  0  0  0  0  0  0  0  0
   93.1080  100.4830  -44.8280 N   0  0  0  0  0  0  0  0  0  0  0  0
   92.5150   99.4650  -44.1760 C   0  0  0  0  0  0  0  0  0  0  0  0
   92.0400   99.3050  -42.8920 C   0  0  0  0  0  0  0  0  0  0  0  0
   91.4800   98.0950  -42.5690 C   0  0  0  0  0  0  0  0  0  0  0  0
   91.3750   97.0340  -43.4780 C   0  0  0  0  0  0  0  0  0  0  0  0
   92.1520  100.3830  -41.9790 N   0  0  0  0  0  0  0  0  0  0  0  0
   91.0380  100.7480  -41.1280 C   0  0  0  0  0  0  0  0  0  0  0  0
   91.4620  101.8500  -40.2210 C   0  0  0  0  0  0  0  0  0  0  0  0
   92.6610  101.6260  -39.5740 O   0  0  0  0  0  0  0  0  0  0  0  0
   93.7200  101.3790  -40.3890 C   0  0  0  0  0  0  0  0  0  0  0  0
   93.3590  101.1740  -41.8380 C   0  0  0  0  0  0  0  0  0  0  0  0
   93.7230   92.9110  -41.7530 C   0  0  0  0  0  0  0  0  0  0  0  0
   93.1750   91.0170  -43.7450 H   0  0  0  0  0  0  0  0  0  0  0  0
   92.1660   96.4640  -46.7080 H   0  0  0  0  0  0  0  0  0  0  0  0
   91.1090   97.9730  -41.5630 H   0  0  0  0  0  0  0  0  0  0  0  0
   90.9120   96.1270  -43.1070 H   0  0  0  0  0  0  0  0  0  0  0  0
   90.7630   99.8350  -40.5610 H   0  0  0  0  0  0  0  0  0  0  0  0
   90.1760  101.1240  -41.7350 H   0  0  0  0  0  0  0  0  0  0  0  0
   90.6400  102.0420  -39.5020 H   0  0  0  0  0  0  0  0  0  0  0  0
   91.5950  102.7720  -40.8490 H   0  0  0  0  0  0  0  0  0  0  0  0
   94.4150  102.2440  -40.3430 H   0  0  0  0  0  0  0  0  0  0  0  0
   94.3100  100.4960  -40.0230 H   0  0  0  0  0  0  0  0  0  0  0  0
   94.1820  100.5920  -42.3030 H   0  0  0  0  0  0  0  0  0  0  0  0
   93.2760  102.1280  -42.3910 H   0  0  0  0  0  0  0  0  0  0  0  0
   94.4530   92.1000  -41.8490 H   0  0  0  0  0  0  0  0  0  0  0  0
   94.2810   93.8640  -41.6010 H   0  0  0  0  0  0  0  0  0  0  0  0
   92.9740   92.7180  -40.9690 H   0  0  0  0  0  0  0  0  0  0  0  0
  1  2  1  0  0  0  0
  2  6  1  0  0  0  0
  2  3  2  0  0  0  0
  3 26  1  0  0  0  0
  3  4  1  0  0  0  0
  4 25  1  0  0  0  0
  5  4  1  0  0  0  0
  6  5  2  0  0  0  0
  7  6  1  0  0  0  0
  8  7  2  0  0  0  0
  9  7  1  0  0  0  0
  9 10  1  0  0  0  0
 10 18  2  0  0  0  0
 11 10  1  0  0  0  0
 11 15  1  0  0  0  0
 12 13  1  0  0  0  0
 12 11  2  0  0  0  0
 13 14  1  0  0  0  0
 14 15  2  0  0  0  0
 15 16  1  0  0  0  0
 16 17  2  0  0  0  0
 16 19  1  0  0  0  0
 17 28  1  0  0  0  0
 18 29  1  0  0  0  0
 18 17  1  0  0  0  0
 19 24  1  0  0  0  0
 19 20  1  0  0  0  0
 20 30  1  0  0  0  0
 20 21  1  0  0  0  0
 21 22  1  0  0  0  0
 21 32  1  0  0  0  0
 23 34  1  0  0  0  0
 23 35  1  0  0  0  0
 23 22  1  0  0  0  0
 24 23  1  0  0  0  0
 25 39  1  0  0  0  0
 25 40  1  0  0  0  0
 27  9  1  0  0  0  0
 31 20  1  0  0  0  0
 33 21  1  0  0  0  0
 36 24  1  0  0  0  0
 37 24  1  0  0  0  0
 38 25  1  0  0  0  0
M  END
>  <Pose>
1

>  <Score>
-6.06

$$$$
