
 OpenBabel03212208273D

 44 47  0  0  1  0  0  0  0  0999 V2000
   90.1100   97.4210  -45.9590 I   0  0  0  0  0  0  0  0  0  0  0  0
   90.7300   95.4520  -45.5350 C   0  0  0  0  0  0  0  0  0  0  0  0
   91.2880   95.0120  -44.3700 C   0  0  0  0  0  0  0  0  0  0  0  0
   91.5170   93.6530  -44.5840 C   0  0  0  0  0  0  0  0  0  0  0  0
   91.1280   93.2710  -45.8010 N   0  0  0  0  0  0  0  0  0  0  0  0
   90.6460   94.3650  -46.3890 C   0  0  0  0  0  0  0  0  0  0  0  0
   91.1940   91.9710  -46.3980 C   0  0  2  0  0  0  0  0  0  0  0  0
   92.4900   91.5290  -46.6330 O   0  0  0  0  0  0  0  0  0  0  0  0
   92.2800   90.3390  -47.3240 C   0  0  1  0  0  0  0  0  0  0  0  0
   91.1310   90.5800  -48.2750 C   0  0  2  0  0  0  0  0  0  0  0  0
   90.6250   91.9540  -47.8200 C   0  0  0  0  0  0  0  0  0  0  0  0
   90.0810   89.6870  -48.0540 O   0  0  0  0  0  0  0  0  0  0  0  0
   93.5010   90.0200  -48.1980 C   0  0  0  0  0  0  0  0  0  0  0  0
   93.3840   88.7080  -48.6750 O   0  0  0  0  0  0  0  0  0  0  0  0
   92.0710   92.9500  -43.5820 N   0  0  0  0  0  0  0  0  0  0  0  0
   92.3920   93.5370  -42.4180 C   0  0  0  0  0  0  0  0  0  0  0  0
   92.1700   94.8400  -42.2170 N   0  0  0  0  0  0  0  0  0  0  0  0
   91.6100   95.6300  -43.1840 C   0  0  0  0  0  0  0  0  0  0  0  0
   91.3970   97.0120  -42.9140 N   0  0  0  0  0  0  0  0  0  0  0  0
   92.1640   97.6320  -41.8860 C   0  0  0  0  0  0  0  0  0  0  0  0
   92.9330   96.8960  -41.2170 O   0  0  0  0  0  0  0  0  0  0  0  0
   92.1150   99.0330  -41.5710 C   0  0  0  0  0  0  0  0  0  0  0  0
   91.2090   99.8650  -42.1690 C   0  0  0  0  0  0  0  0  0  0  0  0
   91.1460  101.2280  -41.8700 C   0  0  0  0  0  0  0  0  0  0  0  0
   92.0110  101.7530  -40.9560 C   0  0  0  0  0  0  0  0  0  0  0  0
   92.9300  100.9440  -40.3400 C   0  0  0  0  0  0  0  0  0  0  0  0
   92.9760   99.5810  -40.6540 C   0  0  0  0  0  0  0  0  0  0  0  0
   90.2290   94.4590  -47.3970 H   0  0  0  0  0  0  0  0  0  0  0  0
   90.6120   91.2340  -45.8310 H   0  0  0  0  0  0  0  0  0  0  0  0
   92.0860   89.4990  -46.6240 H   0  0  0  0  0  0  0  0  0  0  0  0
   91.4250   90.5830  -49.3320 H   0  0  0  0  0  0  0  0  0  0  0  0
   91.1540   92.7170  -48.4180 H   0  0  0  0  0  0  0  0  0  0  0  0
   89.5360   92.0250  -47.8350 H   0  0  0  0  0  0  0  0  0  0  0  0
   90.4290   89.0320  -47.3730 H   0  0  0  0  0  0  0  0  0  0  0  0
   93.5490   90.6870  -49.0670 H   0  0  0  0  0  0  0  0  0  0  0  0
   94.4060   90.0820  -47.5820 H   0  0  0  0  0  0  0  0  0  0  0  0
   93.6370   88.6590  -49.6510 H   0  0  0  0  0  0  0  0  0  0  0  0
   92.8440   92.9310  -41.6180 H   0  0  0  0  0  0  0  0  0  0  0  0
   90.7300   97.6190  -43.3980 H   0  0  0  0  0  0  0  0  0  0  0  0
   90.4790   99.5350  -42.9130 H   0  0  0  0  0  0  0  0  0  0  0  0
   90.4300  101.8680  -42.3470 H   0  0  0  0  0  0  0  0  0  0  0  0
   92.0020  102.8230  -40.6850 H   0  0  0  0  0  0  0  0  0  0  0  0
   93.6000  101.3730  -39.6250 H   0  0  0  0  0  0  0  0  0  0  0  0
   93.7100   99.0050  -40.1440 H   0  0  0  0  0  0  0  0  0  0  0  0
  1  2  1  0  0  0  0
  2  3  1  0  0  0  0
  3 18  1  0  0  0  0
  4  3  2  0  0  0  0
  4 15  1  0  0  0  0
  5  4  1  0  0  0  0
  6  5  1  0  0  0  0
  6  2  2  0  0  0  0
  7 29  1  1  0  0  0
  7  5  1  0  0  0  0
  8  7  1  0  0  0  0
  9  8  1  0  0  0  0
  9 30  1  1  0  0  0
 10 31  1  6  0  0  0
 10 12  1  0  0  0  0
 10 11  1  0  0  0  0
 10  9  1  0  0  0  0
 11  7  1  0  0  0  0
 12 34  1  0  0  0  0
 13 36  1  0  0  0  0
 13  9  1  0  0  0  0
 14 13  1  0  0  0  0
 15 16  2  0  0  0  0
 16 17  1  0  0  0  0
 16 38  1  0  0  0  0
 18 19  1  0  0  0  0
 18 17  2  0  0  0  0
 19 20  1  0  0  0  0
 20 22  1  0  0  0  0
 20 21  2  0  0  0  0
 22 27  1  0  0  0  0
 23 24  1  0  0  0  0
 23 22  2  0  0  0  0
 24 25  2  0  0  0  0
 25 42  1  0  0  0  0
 25 26  1  0  0  0  0
 26 43  1  0  0  0  0
 27 26  2  0  0  0  0
 27 44  1  0  0  0  0
 28  6  1  0  0  0  0
 32 11  1  0  0  0  0
 33 11  1  0  0  0  0
 35 13  1  0  0  0  0
 37 14  1  0  0  0  0
 39 19  1  0  0  0  0
 40 23  1  0  0  0  0
 41 24  1  0  0  0  0
M  END
>  <Pose>
1

>  <Score>
-6.60

$$$$
