
 OpenBabel03212208273D

 35 39  0  0  0  0  0  0  0  0999 V2000
   88.9670   93.5530  -49.7540 B   0  0  0  0  0  0  0  0  0  0  0  0
   88.4920   95.3290  -49.2460 C   0  0  0  0  0  0  0  0  0  0  0  0
   88.9460   95.8930  -48.0390 C   0  0  0  0  0  0  0  0  0  0  0  0
   88.6290   97.1580  -47.6400 C   0  0  0  0  0  0  0  0  0  0  0  0
   87.8130   97.9150  -48.4830 C   0  0  0  0  0  0  0  0  0  0  0  0
   87.3720   97.3680  -49.6520 C   0  0  0  0  0  0  0  0  0  0  0  0
   87.6900   96.0890  -50.0620 C   0  0  0  0  0  0  0  0  0  0  0  0
   87.2000   95.5910  -51.2810 O   0  0  0  0  0  0  0  0  0  0  0  0
   86.2570   98.3950  -50.8100 B   0  0  0  0  0  0  0  0  0  0  0  0
   89.1150   97.7150  -46.3850 C   0  0  0  0  0  0  0  0  0  0  0  0
   89.9390   98.8280  -46.7260 O   0  0  0  0  0  0  0  0  0  0  0  0
   89.4630  100.0000  -46.2060 C   0  0  0  0  0  0  0  0  0  0  0  0
   89.9880  101.1280  -46.3480 O   0  0  0  0  0  0  0  0  0  0  0  0
   88.2580   99.6520  -45.4780 C   0  0  0  0  0  0  0  0  0  0  0  0
   88.0170   98.2990  -45.5620 C   0  0  0  0  0  0  0  0  0  0  0  0
   86.9230   97.8030  -44.9330 C   0  0  0  0  0  0  0  0  0  0  0  0
   86.0870   98.6480  -44.2350 C   0  0  0  0  0  0  0  0  0  0  0  0
   86.3240  100.0030  -44.1490 C   0  0  0  0  0  0  0  0  0  0  0  0
   87.4250  100.5200  -44.7780 C   0  0  0  0  0  0  0  0  0  0  0  0
   89.9550   96.7990  -45.6200 C   0  0  0  0  0  0  0  0  0  0  0  0
   90.2380   95.5410  -46.0740 C   0  0  0  0  0  0  0  0  0  0  0  0
   91.0510   94.6690  -45.3210 C   0  0  0  0  0  0  0  0  0  0  0  0
   91.5570   95.1070  -44.1200 C   0  0  0  0  0  0  0  0  0  0  0  0
   91.2750   96.3830  -43.6530 C   0  0  0  0  0  0  0  0  0  0  0  0
   90.4850   97.2220  -44.3880 C   0  0  0  0  0  0  0  0  0  0  0  0
   91.9690   97.0040  -41.9910 B   0  0  0  0  0  0  0  0  0  0  0  0
   92.3560   94.2400  -43.3900 O   0  0  0  0  0  0  0  0  0  0  0  0
   91.4240   92.9160  -45.9890 B   0  0  0  0  0  0  0  0  0  0  0  0
   89.7550   95.0470  -47.2780 O   0  0  0  0  0  0  0  0  0  0  0  0
   87.5750   98.9170  -48.1440 H   0  0  0  0  0  0  0  0  0  0  0  0
   86.7040   96.7500  -44.9780 H   0  0  0  0  0  0  0  0  0  0  0  0
   85.1970   98.2830  -43.7170 H   0  0  0  0  0  0  0  0  0  0  0  0
   85.6670  100.6810  -43.5970 H   0  0  0  0  0  0  0  0  0  0  0  0
   87.6320  101.5760  -44.7250 H   0  0  0  0  0  0  0  0  0  0  0  0
   90.2280   98.2260  -44.0800 H   0  0  0  0  0  0  0  0  0  0  0  0
  1  2  1  0  0  0  0
  2  3  1  0  0  0  0
  3  4  2  0  0  0  0
  3 29  1  0  0  0  0
  4 10  1  0  0  0  0
  5 30  1  0  0  0  0
  5  4  1  0  0  0  0
  6  5  2  0  0  0  0
  7  6  1  0  0  0  0
  7  2  2  0  0  0  0
  8  7  1  0  0  0  0
  9  6  1  0  0  0  0
 10 20  1  0  0  0  0
 10 15  1  0  0  0  0
 11 10  1  0  0  0  0
 11 12  1  0  0  0  0
 12 14  1  0  0  0  0
 13 12  2  0  0  0  0
 14 19  1  0  0  0  0
 15 14  2  0  0  0  0
 15 16  1  0  0  0  0
 16 17  2  0  0  0  0
 17 18  1  0  0  0  0
 17 32  1  0  0  0  0
 18 33  1  0  0  0  0
 19 34  1  0  0  0  0
 19 18  2  0  0  0  0
 20 25  1  0  0  0  0
 21 20  2  0  0  0  0
 21 22  1  0  0  0  0
 22 23  2  0  0  0  0
 23 24  1  0  0  0  0
 23 27  1  0  0  0  0
 24 26  1  0  0  0  0
 25 35  1  0  0  0  0
 25 24  2  0  0  0  0
 28 22  1  0  0  0  0
 29 21  1  0  0  0  0
 31 16  1  0  0  0  0
M  END
>  <Pose>
1

>  <Score>
-4.12

$$$$
