
 OpenBabel03212208273D

 35 39  0  0  0  0  0  0  0  0999 V2000
   91.9370   95.1200  -41.5330 I   0  0  0  0  0  0  0  0  0  0  0  0
   91.9940   97.1440  -42.1320 C   0  0  0  0  0  0  0  0  0  0  0  0
   91.4710   97.4510  -43.3850 C   0  0  0  0  0  0  0  0  0  0  0  0
   91.4930   98.7430  -43.7970 C   0  0  0  0  0  0  0  0  0  0  0  0
   92.0380   99.7160  -42.9540 C   0  0  0  0  0  0  0  0  0  0  0  0
   92.5570   99.4220  -41.7130 C   0  0  0  0  0  0  0  0  0  0  0  0
   92.5300   98.1050  -41.3000 C   0  0  0  0  0  0  0  0  0  0  0  0
   93.0490   97.7860  -40.0540 O   0  0  0  0  0  0  0  0  0  0  0  0
   93.3720  100.9360  -40.4720 I   0  0  0  0  0  0  0  0  0  0  0  0
   90.9760   99.1720  -45.0830 C   0  0  0  0  0  0  0  0  0  0  0  0
   91.9960   99.7970  -45.8750 O   0  0  0  0  0  0  0  0  0  0  0  0
   91.6620  101.0770  -46.2310 C   0  0  0  0  0  0  0  0  0  0  0  0
   92.3100  101.9180  -46.9190 O   0  0  0  0  0  0  0  0  0  0  0  0
   90.3510  101.3320  -45.6520 C   0  0  0  0  0  0  0  0  0  0  0  0
   89.9470  100.2190  -44.9790 C   0  0  0  0  0  0  0  0  0  0  0  0
   88.7140  100.1990  -44.3270 C   0  0  0  0  0  0  0  0  0  0  0  0
   87.8810  101.2970  -44.3470 C   0  0  0  0  0  0  0  0  0  0  0  0
   88.2960  102.4330  -45.0350 C   0  0  0  0  0  0  0  0  0  0  0  0
   89.5080  102.4560  -45.6790 C   0  0  0  0  0  0  0  0  0  0  0  0
   90.0080  103.8700  -46.5260 Cl  0  0  0  0  0  0  0  0  0  0  0  0
   87.2900  103.8530  -45.1000 Cl  0  0  0  0  0  0  0  0  0  0  0  0
   86.3420  101.2360  -43.5190 Cl  0  0  0  0  0  0  0  0  0  0  0  0
   88.2620   98.7510  -43.4910 Cl  0  0  0  0  0  0  0  0  0  0  0  0
   90.4290   98.0350  -45.8720 C   0  0  0  0  0  0  0  0  0  0  0  0
   90.4230   96.7560  -45.4300 C   0  0  0  0  0  0  0  0  0  0  0  0
   89.8800   95.7870  -46.2710 C   0  0  0  0  0  0  0  0  0  0  0  0
   89.3610   96.0800  -47.5120 C   0  0  0  0  0  0  0  0  0  0  0  0
   89.3840   97.3960  -47.9300 C   0  0  0  0  0  0  0  0  0  0  0  0
   89.9110   98.3750  -47.1280 C   0  0  0  0  0  0  0  0  0  0  0  0
   88.5970   97.8760  -49.8230 I   0  0  0  0  0  0  0  0  0  0  0  0
   88.8260   95.1270  -48.3390 O   0  0  0  0  0  0  0  0  0  0  0  0
   89.8640   93.8000  -45.5960 I   0  0  0  0  0  0  0  0  0  0  0  0
   90.9360   96.4250  -44.1890 O   0  0  0  0  0  0  0  0  0  0  0  0
   92.0740  100.7620  -43.2500 H   0  0  0  0  0  0  0  0  0  0  0  0
   89.9130   99.3800  -47.4820 H   0  0  0  0  0  0  0  0  0  0  0  0
  2  1  1  0  0  0  0
  2  7  1  0  0  0  0
  3  2  2  0  0  0  0
  4  3  1  0  0  0  0
  4  5  2  0  0  0  0
  5  6  1  0  0  0  0
  6  7  2  0  0  0  0
  6  9  1  0  0  0  0
  7  8  1  0  0  0  0
 10 15  1  0  0  0  0
 10  4  1  0  0  0  0
 11 10  1  0  0  0  0
 12 11  1  0  0  0  0
 12 14  1  0  0  0  0
 13 12  2  0  0  0  0
 14 15  1  0  0  0  0
 15 16  2  0  0  0  0
 16 23  1  0  0  0  0
 17 16  1  0  0  0  0
 17 22  1  0  0  0  0
 18 17  2  0  0  0  0
 19 14  2  0  0  0  0
 19 18  1  0  0  0  0
 20 19  1  0  0  0  0
 21 18  1  0  0  0  0
 24 25  1  0  0  0  0
 24 10  1  0  0  0  0
 25 33  1  0  0  0  0
 26 32  1  0  0  0  0
 26 25  2  0  0  0  0
 27 26  1  0  0  0  0
 28 27  2  0  0  0  0
 28 29  1  0  0  0  0
 29 24  2  0  0  0  0
 30 28  1  0  0  0  0
 31 27  1  0  0  0  0
 33  3  1  0  0  0  0
 34  5  1  0  0  0  0
 35 29  1  0  0  0  0
M  END
>  <Pose>
1

>  <Score>
-4.94

$$$$
