
 OpenBabel03212208273D

 35 39  0  0  0  0  0  0  0  0999 V2000
   91.8540   94.9020  -41.6250 I   0  0  0  0  0  0  0  0  0  0  0  0
   91.8110   96.9420  -42.1950 C   0  0  0  0  0  0  0  0  0  0  0  0
   91.2690   97.2200  -43.4620 C   0  0  0  0  0  0  0  0  0  0  0  0
   91.2300   98.5220  -43.8520 C   0  0  0  0  0  0  0  0  0  0  0  0
   91.7250   99.5140  -42.9860 C   0  0  0  0  0  0  0  0  0  0  0  0
   92.2520   99.2400  -41.7510 C   0  0  0  0  0  0  0  0  0  0  0  0
   92.2910   97.9210  -41.3560 C   0  0  0  0  0  0  0  0  0  0  0  0
   92.8180   97.6070  -40.1120 O   0  0  0  0  0  0  0  0  0  0  0  0
   92.9790  100.7860  -40.4960 I   0  0  0  0  0  0  0  0  0  0  0  0
   90.6840   98.9150  -45.1560 C   0  0  0  0  0  0  0  0  0  0  0  0
   91.5940   99.7130  -45.8880 O   0  0  0  0  0  0  0  0  0  0  0  0
   91.0930  100.9570  -46.1660 C   0  0  0  0  0  0  0  0  0  0  0  0
   91.6350  101.9060  -46.7930 O   0  0  0  0  0  0  0  0  0  0  0  0
   89.7570  101.0190  -45.5900 C   0  0  0  0  0  0  0  0  0  0  0  0
   89.5080   99.8250  -44.9940 C   0  0  0  0  0  0  0  0  0  0  0  0
   88.2710   99.6420  -44.3640 C   0  0  0  0  0  0  0  0  0  0  0  0
   87.3410  100.6560  -44.3570 C   0  0  0  0  0  0  0  0  0  0  0  0
   87.5920  101.8700  -44.9600 C   0  0  0  0  0  0  0  0  0  0  0  0
   88.8020  102.0600  -45.5820 C   0  0  0  0  0  0  0  0  0  0  0  0
   90.2050   97.7730  -45.9540 C   0  0  0  0  0  0  0  0  0  0  0  0
   90.2710   96.4980  -45.5100 C   0  0  0  0  0  0  0  0  0  0  0  0
   89.8000   95.4690  -46.3190 C   0  0  0  0  0  0  0  0  0  0  0  0
   89.2730   95.7360  -47.5510 C   0  0  0  0  0  0  0  0  0  0  0  0
   89.1890   97.0210  -48.0350 C   0  0  0  0  0  0  0  0  0  0  0  0
   89.6600   98.0150  -47.2220 C   0  0  0  0  0  0  0  0  0  0  0  0
   88.3730   97.4270  -49.9420 I   0  0  0  0  0  0  0  0  0  0  0  0
   88.8090   94.6890  -48.3380 O   0  0  0  0  0  0  0  0  0  0  0  0
   89.9080   93.4670  -45.6110 I   0  0  0  0  0  0  0  0  0  0  0  0
   90.8030   96.1670  -44.2530 O   0  0  0  0  0  0  0  0  0  0  0  0
   91.6830  100.5600  -43.3220 H   0  0  0  0  0  0  0  0  0  0  0  0
   88.1160   98.6820  -43.9070 H   0  0  0  0  0  0  0  0  0  0  0  0
   86.4060  100.4750  -43.8640 H   0  0  0  0  0  0  0  0  0  0  0  0
   86.8620  102.6900  -44.9640 H   0  0  0  0  0  0  0  0  0  0  0  0
   89.0530  102.9970  -46.0730 H   0  0  0  0  0  0  0  0  0  0  0  0
   89.6060   99.0340  -47.5770 H   0  0  0  0  0  0  0  0  0  0  0  0
  2  1  1  0  0  0  0
  2  7  1  0  0  0  0
  3  2  2  0  0  0  0
  4  3  1  0  0  0  0
  4  5  2  0  0  0  0
  5  6  1  0  0  0  0
  6  7  2  0  0  0  0
  6  9  1  0  0  0  0
  7  8  1  0  0  0  0
 10 15  1  0  0  0  0
 10  4  1  0  0  0  0
 11 10  1  0  0  0  0
 12 11  1  0  0  0  0
 12 14  1  0  0  0  0
 13 12  2  0  0  0  0
 14 19  2  0  0  0  0
 14 15  1  0  0  0  0
 15 16  2  0  0  0  0
 16 17  1  0  0  0  0
 16 31  1  0  0  0  0
 17 32  1  0  0  0  0
 18 17  2  0  0  0  0
 19 18  1  0  0  0  0
 20 21  1  0  0  0  0
 20 10  1  0  0  0  0
 21 29  1  0  0  0  0
 22 28  1  0  0  0  0
 22 21  2  0  0  0  0
 23 22  1  0  0  0  0
 24 23  2  0  0  0  0
 24 25  1  0  0  0  0
 25 20  2  0  0  0  0
 26 24  1  0  0  0  0
 27 23  1  0  0  0  0
 29  3  1  0  0  0  0
 30  5  1  0  0  0  0
 33 18  1  0  0  0  0
 34 19  1  0  0  0  0
 35 25  1  0  0  0  0
M  END
>  <Pose>
1

>  <Score>
-4.69

$$$$
