
 OpenBabel03212208273D

 46 51  0  0  1  0  0  0  0  0999 V2000
   92.0170  101.1240  -47.3880 P   0  0  2  0  0  0  0  0  0  0  0  0
   93.0450  101.8120  -48.6070 S   0  0  0  0  0  0  0  0  0  0  0  0
   93.0070  100.5610  -46.1270 O   0  0  0  0  0  0  0  0  0  0  0  0
   92.5680   99.2760  -45.8220 C   0  0  2  0  0  0  0  0  0  0  0  0
   91.0390   99.3450  -45.8100 C   0  0  2  0  0  0  0  0  0  0  0  0
   90.6720   98.4250  -44.8660 O   0  0  0  0  0  0  0  0  0  0  0  0
   91.6130   98.4610  -43.8390 C   0  0  2  0  0  0  0  0  0  0  0  0
   92.9250   98.8440  -44.4320 C   0  0  2  0  0  0  0  0  0  0  0  0
   93.5130   99.9000  -43.7250 O   0  0  0  0  0  0  0  0  0  0  0  0
   91.6600   97.1860  -43.1280 N   0  0  0  0  0  0  0  0  0  0  0  0
   91.6900   95.9380  -43.6580 C   0  0  0  0  0  0  0  0  0  0  0  0
   91.7310   94.9870  -42.6610 C   0  0  0  0  0  0  0  0  0  0  0  0
   91.7260   95.6860  -41.5070 N   0  0  0  0  0  0  0  0  0  0  0  0
   91.6840   97.0020  -41.7960 C   0  0  0  0  0  0  0  0  0  0  0  0
   91.6580   98.4570  -40.5540 B   0  0  0  0  0  0  0  0  0  0  0  0
   91.7660   93.6480  -42.9980 C   0  0  0  0  0  0  0  0  0  0  0  0
   91.8030   92.7770  -42.1010 O   0  0  0  0  0  0  0  0  0  0  0  0
   91.7600   93.2290  -44.2840 N   0  0  0  0  0  0  0  0  0  0  0  0
   91.7200   94.1730  -45.2410 C   0  0  0  0  0  0  0  0  0  0  0  0
   91.7240   93.5090  -46.4100 N   0  0  0  0  0  0  0  0  0  0  0  0
   91.7650   92.1770  -46.2270 C   0  0  0  0  0  0  0  0  0  0  0  0
   91.7890   91.9950  -44.8600 C   0  0  0  0  0  0  0  0  0  0  0  0
   91.7820   91.1320  -47.2590 C   0  0  0  0  0  0  0  0  0  0  0  0
   90.6770   90.9220  -48.0530 C   0  0  0  0  0  0  0  0  0  0  0  0
   90.6630   89.9420  -49.0380 C   0  0  0  0  0  0  0  0  0  0  0  0
   91.7870   89.1670  -49.2160 C   0  0  0  0  0  0  0  0  0  0  0  0
   92.9190   89.3450  -48.4370 C   0  0  0  0  0  0  0  0  0  0  0  0
   92.8770   90.3320  -47.4760 C   0  0  0  0  0  0  0  0  0  0  0  0
   91.6860   95.5000  -44.9280 N   0  0  0  0  0  0  0  0  0  0  0  0
   90.5890   99.0020  -47.2090 C   0  0  0  0  0  0  0  0  0  0  0  0
   91.1660   99.8600  -48.1170 O   0  0  0  0  0  0  0  0  0  0  0  0
   90.8850  102.2490  -46.8320 O   0  0  0  0  0  0  0  0  0  0  0  0
   92.9430   98.5670  -46.5720 H   0  0  0  0  0  0  0  0  0  0  0  0
   90.6750  100.3330  -45.5080 H   0  0  0  0  0  0  0  0  0  0  0  0
   91.2280   99.2350  -43.1110 H   0  0  0  0  0  0  0  0  0  0  0  0
   93.6020   97.9890  -44.4730 H   0  0  0  0  0  0  0  0  0  0  0  0
   94.4730   99.7630  -43.5890 H   0  0  0  0  0  0  0  0  0  0  0  0
   91.8240   91.0510  -44.3210 H   0  0  0  0  0  0  0  0  0  0  0  0
   89.7970   91.5290  -47.9140 H   0  0  0  0  0  0  0  0  0  0  0  0
   89.7960   89.7720  -49.6660 H   0  0  0  0  0  0  0  0  0  0  0  0
   91.8010   88.3980  -49.9740 H   0  0  0  0  0  0  0  0  0  0  0  0
   93.7960   88.7200  -48.5970 H   0  0  0  0  0  0  0  0  0  0  0  0
   93.7480   90.4850  -46.8630 H   0  0  0  0  0  0  0  0  0  0  0  0
   91.6540   96.2300  -45.6750 H   0  0  0  0  0  0  0  0  0  0  0  0
   89.4870   98.9260  -47.3000 H   0  0  0  0  0  0  0  0  0  0  0  0
   90.9760   97.9660  -47.4320 H   0  0  0  0  0  0  0  0  0  0  0  0
  1  2  1  6  0  0  0
  1 32  2  0  0  0  0
  1  3  1  0  0  0  0
  3  4  1  0  0  0  0
  4 33  1  6  0  0  0
  4  5  1  0  0  0  0
  4  8  1  0  0  0  0
  5 34  1  1  0  0  0
  5  6  1  0  0  0  0
  6  7  1  0  0  0  0
  7 10  1  0  0  0  0
  7 35  1  1  0  0  0
  8 36  1  6  0  0  0
  8  7  1  0  0  0  0
  8  9  1  0  0  0  0
  9 37  1  0  0  0  0
 10 14  1  0  0  0  0
 11 10  1  0  0  0  0
 11 12  2  0  0  0  0
 12 13  1  0  0  0  0
 14 13  2  0  0  0  0
 14 15  1  0  0  0  0
 16 12  1  0  0  0  0
 16 17  2  0  0  0  0
 18 16  1  0  0  0  0
 19 29  1  0  0  0  0
 19 18  1  0  0  0  0
 20 21  1  0  0  0  0
 20 19  2  0  0  0  0
 21 22  2  0  0  0  0
 22 38  1  0  0  0  0
 22 18  1  0  0  0  0
 23 21  1  0  0  0  0
 24 39  1  0  0  0  0
 24 23  2  0  0  0  0
 25 24  1  0  0  0  0
 26 25  2  0  0  0  0
 26 27  1  0  0  0  0
 27 28  2  0  0  0  0
 28 23  1  0  0  0  0
 28 43  1  0  0  0  0
 29 11  1  0  0  0  0
 30  5  1  0  0  0  0
 31  1  1  0  0  0  0
 31 30  1  0  0  0  0
 40 25  1  0  0  0  0
 41 26  1  0  0  0  0
 42 27  1  0  0  0  0
 44 29  1  0  0  0  0
 45 30  1  0  0  0  0
 46 30  1  0  0  0  0
M  END
>  <Pose>
1

>  <Score>
-6.63

$$$$
