
 OpenBabel03212208273D

 33 36  0  0  1  0  0  0  0  0999 V2000
   91.7590   96.1120  -45.2310 P   0  0  2  0  0  0  0  0  0  0  0  0
   90.1000   96.1930  -45.7660 S   0  0  0  0  0  0  0  0  0  0  0  0
   91.8410   96.4430  -43.5580 O   0  0  0  0  0  0  0  0  0  0  0  0
   91.6050   97.7870  -43.4070 C   0  0  2  0  0  0  0  0  0  0  0  0
   92.7180   98.5630  -44.1240 C   0  0  2  0  0  0  0  0  0  0  0  0
   92.5210   99.8310  -43.5800 O   0  0  0  0  0  0  0  0  0  0  0  0
   92.4140   99.6430  -42.2230 C   0  0  2  0  0  0  0  0  0  0  0  0
   91.8260   98.2740  -41.9880 C   0  0  2  0  0  0  0  0  0  0  0  0
   92.8440   97.4780  -41.4470 O   0  0  0  0  0  0  0  0  0  0  0  0
   91.5380  100.6080  -41.5860 N   0  0  0  0  0  0  0  0  0  0  0  0
   91.9400  101.4870  -40.6340 C   0  0  0  0  0  0  0  0  0  0  0  0
   93.1470  101.7090  -40.0520 N   0  0  0  0  0  0  0  0  0  0  0  0
   93.3010  102.6600  -39.1100 C   0  0  0  0  0  0  0  0  0  0  0  0
   92.2380  103.4110  -38.7320 N   0  0  0  0  0  0  0  0  0  0  0  0
   91.0270  103.2220  -39.2850 C   0  0  0  0  0  0  0  0  0  0  0  0
   90.8550  102.2500  -40.2530 C   0  0  0  0  0  0  0  0  0  0  0  0
   89.7980  101.8320  -40.9740 N   0  0  0  0  0  0  0  0  0  0  0  0
   90.2280  100.8350  -41.7780 C   0  0  0  0  0  0  0  0  0  0  0  0
   89.1840   99.8350  -43.0420 B   0  0  0  0  0  0  0  0  0  0  0  0
   89.9140  104.0240  -38.8760 N   0  0  0  0  0  0  0  0  0  0  0  0
   92.5360   98.5270  -45.6090 C   0  0  0  0  0  0  0  0  0  0  0  0
   92.7090   97.2230  -46.0390 O   0  0  0  0  0  0  0  0  0  0  0  0
   92.3080   94.5540  -45.4800 O   0  0  0  0  0  0  0  0  0  0  0  0
   90.6590   98.1220  -43.8320 H   0  0  0  0  0  0  0  0  0  0  0  0
   93.6740   98.1430  -43.7840 H   0  0  0  0  0  0  0  0  0  0  0  0
   93.4220   99.7640  -41.7620 H   0  0  0  0  0  0  0  0  0  0  0  0
   90.9160   98.2820  -41.3870 H   0  0  0  0  0  0  0  0  0  0  0  0
   93.7360   97.7490  -41.7330 H   0  0  0  0  0  0  0  0  0  0  0  0
   94.2920  102.8030  -38.6680 H   0  0  0  0  0  0  0  0  0  0  0  0
   88.9500  103.5930  -38.8980 H   0  0  0  0  0  0  0  0  0  0  0  0
   90.0210  105.0080  -38.5600 H   0  0  0  0  0  0  0  0  0  0  0  0
   93.3040   99.1460  -46.0710 H   0  0  0  0  0  0  0  0  0  0  0  0
   91.5370   98.9400  -45.8450 H   0  0  0  0  0  0  0  0  0  0  0  0
  1  2  1  6  0  0  0
  1  3  1  0  0  0  0
  3  4  1  0  0  0  0
  4 24  1  6  0  0  0
  4  8  1  0  0  0  0
  5 25  1  1  0  0  0
  5  6  1  0  0  0  0
  5  4  1  0  0  0  0
  6  7  1  0  0  0  0
  7  8  1  0  0  0  0
  7 26  1  1  0  0  0
  7 10  1  0  0  0  0
  8  9  1  0  0  0  0
  8 27  1  1  0  0  0
 10 11  1  0  0  0  0
 11 16  2  0  0  0  0
 11 12  1  0  0  0  0
 12 13  2  0  0  0  0
 13 14  1  0  0  0  0
 13 29  1  0  0  0  0
 15 20  1  0  0  0  0
 15 14  2  0  0  0  0
 16 15  1  0  0  0  0
 17 16  1  0  0  0  0
 18 10  1  0  0  0  0
 18 17  2  0  0  0  0
 19 18  1  0  0  0  0
 20 31  1  0  0  0  0
 21  5  1  0  0  0  0
 22 21  1  0  0  0  0
 22  1  1  0  0  0  0
 23  1  2  0  0  0  0
 28  9  1  0  0  0  0
 30 20  1  0  0  0  0
 32 21  1  0  0  0  0
 33 21  1  0  0  0  0
M  END
>  <Pose>
1

>  <Score>
-5.80

$$$$
