
 OpenBabel03212208273D

 54 57  0  0  0  0  0  0  0  0999 V2000
   91.4080   95.3230  -44.7090 S   0  0  0  0  0  0  0  0  0  0  0  0
   92.4480   95.4250  -45.8190 O   0  0  0  0  0  0  0  0  0  0  0  0
   91.4800   93.9210  -44.2070 O   0  0  0  0  0  0  0  0  0  0  0  0
   89.8950   95.6720  -45.4530 N   0  0  0  0  0  0  0  0  0  0  0  0
   89.8350   97.0150  -45.9950 C   0  0  0  0  0  0  0  0  0  0  0  0
   88.8010   97.7630  -45.1650 C   0  0  0  0  0  0  0  0  0  0  0  0
   87.5460   98.0040  -45.9600 C   0  0  0  0  0  0  0  0  0  0  0  0
   86.4250   97.7230  -45.1440 N   0  0  0  0  0  0  0  0  0  0  0  0
   85.7900   98.8350  -44.5300 C   0  0  0  0  0  0  0  0  0  0  0  0
   84.9870   98.3330  -43.3420 C   0  0  0  0  0  0  0  0  0  0  0  0
   84.3120   97.1670  -43.6420 O   0  0  0  0  0  0  0  0  0  0  0  0
   84.1760   96.9390  -45.0060 C   0  0  0  0  0  0  0  0  0  0  0  0
   85.5800   96.6620  -45.5520 C   0  0  0  0  0  0  0  0  0  0  0  0
   91.7610   96.4850  -43.4580 C   0  0  0  0  0  0  0  0  0  0  0  0
   91.8540   97.8420  -43.7840 C   0  0  0  0  0  0  0  0  0  0  0  0
   92.1360   98.7760  -42.8120 C   0  0  0  0  0  0  0  0  0  0  0  0
   92.3390   98.4320  -41.4880 C   0  0  0  0  0  0  0  0  0  0  0  0
   92.2510   97.1080  -41.1590 C   0  0  0  0  0  0  0  0  0  0  0  0
   91.9650   96.1530  -42.1410 C   0  0  0  0  0  0  0  0  0  0  0  0
   91.8330   94.2990  -41.6690 B   0  0  0  0  0  0  0  0  0  0  0  0
   92.6090   99.6630  -40.6950 C   0  0  0  0  0  0  0  0  0  0  0  0
   92.0340  100.7600  -41.6170 C   0  0  0  0  0  0  0  0  0  0  0  0
   92.2810  100.2030  -42.9370 N   0  0  0  0  0  0  0  0  0  0  0  0
   92.6100  100.8570  -44.1470 C   0  0  0  0  0  0  0  0  0  0  0  0
   93.0420  100.2490  -45.1540 O   0  0  0  0  0  0  0  0  0  0  0  0
   92.4390  102.3270  -44.2300 C   0  0  0  0  0  0  0  0  0  0  0  0
   93.3490  103.0070  -45.1680 C   0  0  0  0  0  0  0  0  0  0  0  0
   93.4780  103.2350  -43.6820 C   0  0  0  0  0  0  0  0  0  0  0  0
   89.7310   94.9640  -46.1950 H   0  0  0  0  0  0  0  0  0  0  0  0
   89.6130   97.0480  -47.0690 H   0  0  0  0  0  0  0  0  0  0  0  0
   90.8250   97.4920  -45.7430 H   0  0  0  0  0  0  0  0  0  0  0  0
   88.5480   97.2080  -44.2320 H   0  0  0  0  0  0  0  0  0  0  0  0
   89.2530   98.7620  -44.9510 H   0  0  0  0  0  0  0  0  0  0  0  0
   87.5000   97.3230  -46.8530 H   0  0  0  0  0  0  0  0  0  0  0  0
   87.5230   99.0330  -46.3440 H   0  0  0  0  0  0  0  0  0  0  0  0
   85.0760   99.2830  -45.2460 H   0  0  0  0  0  0  0  0  0  0  0  0
   86.5630   99.5540  -44.2130 H   0  0  0  0  0  0  0  0  0  0  0  0
   85.6750   98.1320  -42.4920 H   0  0  0  0  0  0  0  0  0  0  0  0
   84.3100   99.1430  -42.9940 H   0  0  0  0  0  0  0  0  0  0  0  0
   83.5100   96.0670  -45.1390 H   0  0  0  0  0  0  0  0  0  0  0  0
   83.7150   97.7970  -45.5430 H   0  0  0  0  0  0  0  0  0  0  0  0
   85.8890   95.6650  -45.2280 H   0  0  0  0  0  0  0  0  0  0  0  0
   85.4510   96.6270  -46.6600 H   0  0  0  0  0  0  0  0  0  0  0  0
   91.6960   98.1300  -44.8280 H   0  0  0  0  0  0  0  0  0  0  0  0
   92.3980   96.7520  -40.1440 H   0  0  0  0  0  0  0  0  0  0  0  0
   93.6700   99.8420  -40.5120 H   0  0  0  0  0  0  0  0  0  0  0  0
   92.0570   99.7000  -39.7470 H   0  0  0  0  0  0  0  0  0  0  0  0
   90.9320  100.8040  -41.4970 H   0  0  0  0  0  0  0  0  0  0  0  0
   92.5210  101.7150  -41.4310 H   0  0  0  0  0  0  0  0  0  0  0  0
   91.3810  102.6980  -44.1690 H   0  0  0  0  0  0  0  0  0  0  0  0
   94.2500  102.4750  -45.5800 H   0  0  0  0  0  0  0  0  0  0  0  0
   93.0080  103.8110  -45.8200 H   0  0  0  0  0  0  0  0  0  0  0  0
   94.3400  102.8530  -43.1160 H   0  0  0  0  0  0  0  0  0  0  0  0
   93.1420  104.2430  -43.3680 H   0  0  0  0  0  0  0  0  0  0  0  0
  1  3  2  0  0  0  0
  1 14  1  0  0  0  0
  2  1  2  0  0  0  0
  4  1  1  0  0  0  0
  5 31  1  0  0  0  0
  5  4  1  0  0  0  0
  5  6  1  0  0  0  0
  6 33  1  0  0  0  0
  6 32  1  0  0  0  0
  7  6  1  0  0  0  0
  7  8  1  0  0  0  0
  8  9  1  0  0  0  0
  9 37  1  0  0  0  0
  9 10  1  0  0  0  0
 10 39  1  0  0  0  0
 10 38  1  0  0  0  0
 11 10  1  0  0  0  0
 12 11  1  0  0  0  0
 13 42  1  0  0  0  0
 13  8  1  0  0  0  0
 13 12  1  0  0  0  0
 14 19  1  0  0  0  0
 15 14  2  0  0  0  0
 15 16  1  0  0  0  0
 16 17  2  0  0  0  0
 17 18  1  0  0  0  0
 17 21  1  0  0  0  0
 18 45  1  0  0  0  0
 19 20  1  0  0  0  0
 19 18  2  0  0  0  0
 21 46  1  0  0  0  0
 21 47  1  0  0  0  0
 22 48  1  0  0  0  0
 22 49  1  0  0  0  0
 22 21  1  0  0  0  0
 23 16  1  0  0  0  0
 23 22  1  0  0  0  0
 24 23  1  0  0  0  0
 25 24  2  0  0  0  0
 26 50  1  0  0  0  0
 26 24  1  0  0  0  0
 26 28  1  0  0  0  0
 27 26  1  0  0  0  0
 27 28  1  0  0  0  0
 28 54  1  0  0  0  0
 28 53  1  0  0  0  0
 29  4  1  0  0  0  0
 30  5  1  0  0  0  0
 34  7  1  0  0  0  0
 35  7  1  0  0  0  0
 36  9  1  0  0  0  0
 40 12  1  0  0  0  0
 41 12  1  0  0  0  0
 43 13  1  0  0  0  0
 44 15  1  0  0  0  0
 51 27  1  0  0  0  0
 52 27  1  0  0  0  0
M  END
>  <Pose>
1

>  <Score>
-5.54

$$$$
