
 OpenBabel03212208273D

 54 57  0  0  0  0  0  0  0  0999 V2000
   92.1810   98.2480  -44.7920 S   0  0  0  0  0  0  0  0  0  0  0  0
   92.5430   96.8460  -45.2820 O   0  0  0  0  0  0  0  0  0  0  0  0
   93.5130   98.8780  -44.4570 O   0  0  0  0  0  0  0  0  0  0  0  0
   91.2470   98.0760  -43.4110 N   0  0  0  0  0  0  0  0  0  0  0  0
   90.4260   99.1030  -42.9540 C   0  0  0  0  0  0  0  0  0  0  0  0
   91.0780  100.0970  -42.0720 C   0  0  0  0  0  0  0  0  0  0  0  0
   90.6520  101.2750  -41.9990 O   0  0  0  0  0  0  0  0  0  0  0  0
   92.1970   99.6370  -41.3230 N   0  0  0  0  0  0  0  0  0  0  0  0
   92.3980   98.2340  -41.2780 C   0  0  0  0  0  0  0  0  0  0  0  0
   93.0060   97.7510  -40.2820 O   0  0  0  0  0  0  0  0  0  0  0  0
   91.9190   97.3380  -42.3510 C   0  0  0  0  0  0  0  0  0  0  0  0
   93.0650  100.5780  -40.6480 C   0  0  0  0  0  0  0  0  0  0  0  0
   93.7360  101.5600  -41.5450 C   0  0  0  0  0  0  0  0  0  0  0  0
   94.6230  102.5210  -40.8920 C   0  0  0  0  0  0  0  0  0  0  0  0
   95.5530  103.2440  -41.5870 C   0  0  0  0  0  0  0  0  0  0  0  0
   96.3550  104.1230  -40.9140 C   0  0  0  0  0  0  0  0  0  0  0  0
   96.2560  104.3070  -39.5400 C   0  0  0  0  0  0  0  0  0  0  0  0
   95.3180  103.5720  -38.8670 C   0  0  0  0  0  0  0  0  0  0  0  0
   94.4960  102.6800  -39.5120 C   0  0  0  0  0  0  0  0  0  0  0  0
   91.4470   99.0620  -46.1470 C   0  0  0  0  0  0  0  0  0  0  0  0
   92.2760   99.7810  -47.0180 C   0  0  0  0  0  0  0  0  0  0  0  0
   91.8130  100.5190  -48.0840 C   0  0  0  0  0  0  0  0  0  0  0  0
   90.4610  100.5780  -48.3420 C   0  0  0  0  0  0  0  0  0  0  0  0
   89.6330   99.8790  -47.4990 C   0  0  0  0  0  0  0  0  0  0  0  0
   90.1110   99.1270  -46.4140 C   0  0  0  0  0  0  0  0  0  0  0  0
   88.8640   98.1100  -45.3700 B   0  0  0  0  0  0  0  0  0  0  0  0
   90.1940  101.4210  -49.5330 C   0  0  0  0  0  0  0  0  0  0  0  0
   91.5730  101.4640  -50.1950 C   0  0  0  0  0  0  0  0  0  0  0  0
   92.4860  101.3070  -49.0680 N   0  0  0  0  0  0  0  0  0  0  0  0
   93.7770  101.8600  -49.0010 C   0  0  0  0  0  0  0  0  0  0  0  0
   94.6560  101.4610  -49.8410 O   0  0  0  0  0  0  0  0  0  0  0  0
   94.2320  102.8860  -48.0330 C   0  0  0  0  0  0  0  0  0  0  0  0
   89.5890   98.6060  -42.3270 H   0  0  0  0  0  0  0  0  0  0  0  0
   89.8570   99.5790  -43.7540 H   0  0  0  0  0  0  0  0  0  0  0  0
   92.7730   96.7360  -42.7040 H   0  0  0  0  0  0  0  0  0  0  0  0
   91.1750   96.6460  -41.9180 H   0  0  0  0  0  0  0  0  0  0  0  0
   93.8260  100.0190  -40.0420 H   0  0  0  0  0  0  0  0  0  0  0  0
   92.4760  101.1710  -39.9020 H   0  0  0  0  0  0  0  0  0  0  0  0
   92.9300  102.1380  -42.0530 H   0  0  0  0  0  0  0  0  0  0  0  0
   94.2480  100.9970  -42.3600 H   0  0  0  0  0  0  0  0  0  0  0  0
   95.6510  103.1250  -42.6380 H   0  0  0  0  0  0  0  0  0  0  0  0
   97.1120  104.7230  -41.4250 H   0  0  0  0  0  0  0  0  0  0  0  0
   96.9000  105.0100  -39.0140 H   0  0  0  0  0  0  0  0  0  0  0  0
   95.2060  103.6840  -37.7890 H   0  0  0  0  0  0  0  0  0  0  0  0
   93.7750  102.1280  -38.9260 H   0  0  0  0  0  0  0  0  0  0  0  0
   93.3460   99.7190  -46.8030 H   0  0  0  0  0  0  0  0  0  0  0  0
   88.5560   99.8870  -47.6500 H   0  0  0  0  0  0  0  0  0  0  0  0
   89.8790  102.4410  -49.2880 H   0  0  0  0  0  0  0  0  0  0  0  0
   89.4590  100.9520  -50.2240 H   0  0  0  0  0  0  0  0  0  0  0  0
   91.7310  102.4390  -50.6780 H   0  0  0  0  0  0  0  0  0  0  0  0
   91.6880  100.6010  -50.8610 H   0  0  0  0  0  0  0  0  0  0  0  0
   95.2150  103.3290  -48.3670 H   0  0  0  0  0  0  0  0  0  0  0  0
   94.4590  102.4650  -47.0320 H   0  0  0  0  0  0  0  0  0  0  0  0
   93.4760  103.6980  -47.9190 H   0  0  0  0  0  0  0  0  0  0  0  0
  1  3  2  0  0  0  0
  1  4  1  0  0  0  0
  2  1  2  0  0  0  0
  4  5  1  0  0  0  0
  4 11  1  0  0  0  0
  5 33  1  0  0  0  0
  5  6  1  0  0  0  0
  6  7  2  0  0  0  0
  6  8  1  0  0  0  0
  8  9  1  0  0  0  0
  8 12  1  0  0  0  0
  9 10  2  0  0  0  0
 11 36  1  0  0  0  0
 11  9  1  0  0  0  0
 12 37  1  0  0  0  0
 12 38  1  0  0  0  0
 13 14  1  0  0  0  0
 13 12  1  0  0  0  0
 14 19  1  0  0  0  0
 15 16  1  0  0  0  0
 15 14  2  0  0  0  0
 16 17  2  0  0  0  0
 17 43  1  0  0  0  0
 17 18  1  0  0  0  0
 18 44  1  0  0  0  0
 19 45  1  0  0  0  0
 19 18  2  0  0  0  0
 20  1  1  0  0  0  0
 21 46  1  0  0  0  0
 21 20  2  0  0  0  0
 22 21  1  0  0  0  0
 23 22  2  0  0  0  0
 23 24  1  0  0  0  0
 24 25  2  0  0  0  0
 25 20  1  0  0  0  0
 25 26  1  0  0  0  0
 27 48  1  0  0  0  0
 27 23  1  0  0  0  0
 28 27  1  0  0  0  0
 28 29  1  0  0  0  0
 29 30  1  0  0  0  0
 29 22  1  0  0  0  0
 30 32  1  0  0  0  0
 31 30  2  0  0  0  0
 32 54  1  0  0  0  0
 32 53  1  0  0  0  0
 34  5  1  0  0  0  0
 35 11  1  0  0  0  0
 39 13  1  0  0  0  0
 40 13  1  0  0  0  0
 41 15  1  0  0  0  0
 42 16  1  0  0  0  0
 47 24  1  0  0  0  0
 49 27  1  0  0  0  0
 50 28  1  0  0  0  0
 51 28  1  0  0  0  0
 52 32  1  0  0  0  0
M  END
>  <Pose>
1

>  <Score>
-4.73

$$$$
