
 OpenBabel03212208273D

 41 44  0  0  0  0  0  0  0  0999 V2000
   91.9740   93.8470  -42.2380 S   0  0  0  0  0  0  0  0  0  0  0  0
   92.9630   93.8280  -41.1080 O   0  0  0  0  0  0  0  0  0  0  0  0
   90.6620   93.3650  -41.6650 O   0  0  0  0  0  0  0  0  0  0  0  0
   92.5350   92.8440  -43.4740 N   0  0  0  0  0  0  0  0  0  0  0  0
   91.7980   91.6820  -43.8240 C   0  0  0  0  0  0  0  0  0  0  0  0
   91.4410   92.2630  -45.1360 C   0  0  0  0  0  0  0  0  0  0  0  0
   92.3900   93.3570  -44.7900 C   0  0  0  0  0  0  0  0  0  0  0  0
   91.8520   91.5140  -46.3080 N   0  0  0  0  0  0  0  0  0  0  0  0
   92.9650   90.8580  -46.5050 N   0  0  0  0  0  0  0  0  0  0  0  0
   92.9670   90.2980  -47.7230 N   0  0  0  0  0  0  0  0  0  0  0  0
   91.8110   90.6030  -48.3380 C   0  0  0  0  0  0  0  0  0  0  0  0
   91.1130   91.3790  -47.4230 C   0  0  0  0  0  0  0  0  0  0  0  0
   91.3630   90.1990  -49.7120 C   0  0  0  0  0  0  0  0  0  0  0  0
   90.4230   89.1030  -49.5680 N   0  0  0  0  0  0  0  0  0  0  0  0
   88.9960   89.2250  -49.5340 C   0  0  0  0  0  0  0  0  0  0  0  0
   88.4610   87.8240  -49.4520 C   0  0  0  0  0  0  0  0  0  0  0  0
   89.5870   86.8730  -49.6970 C   0  0  0  0  0  0  0  0  0  0  0  0
   90.7930   87.7340  -49.4380 C   0  0  0  0  0  0  0  0  0  0  0  0
   91.9150   87.2730  -49.1580 O   0  0  0  0  0  0  0  0  0  0  0  0
   91.7890   95.5310  -42.7230 C   0  0  0  0  0  0  0  0  0  0  0  0
   91.3960   96.1420  -44.2760 S   0  0  0  0  0  0  0  0  0  0  0  0
   91.4100   97.8140  -43.9250 C   0  0  0  0  0  0  0  0  0  0  0  0
   91.7250   97.8400  -42.5910 C   0  0  0  0  0  0  0  0  0  0  0  0
   91.9170   96.6680  -41.9820 C   0  0  0  0  0  0  0  0  0  0  0  0
   91.0730   99.3120  -45.0880 B   0  0  0  0  0  0  0  0  0  0  0  0
   90.9520   91.5210  -43.1020 H   0  0  0  0  0  0  0  0  0  0  0  0
   92.4370   90.7640  -43.8570 H   0  0  0  0  0  0  0  0  0  0  0  0
   90.3660   92.5310  -45.1660 H   0  0  0  0  0  0  0  0  0  0  0  0
   92.0150   94.3920  -44.9020 H   0  0  0  0  0  0  0  0  0  0  0  0
   93.3460   93.2680  -45.3550 H   0  0  0  0  0  0  0  0  0  0  0  0
   90.1230   91.7920  -47.6190 H   0  0  0  0  0  0  0  0  0  0  0  0
   90.8850   91.0560  -50.2410 H   0  0  0  0  0  0  0  0  0  0  0  0
   92.2410   89.8360  -50.2610 H   0  0  0  0  0  0  0  0  0  0  0  0
   88.6800   89.8110  -48.6430 H   0  0  0  0  0  0  0  0  0  0  0  0
   88.5750   89.6860  -50.4680 H   0  0  0  0  0  0  0  0  0  0  0  0
   87.9450   87.6490  -48.4820 H   0  0  0  0  0  0  0  0  0  0  0  0
   87.6850   87.6270  -50.2390 H   0  0  0  0  0  0  0  0  0  0  0  0
   89.5620   86.0350  -48.9540 H   0  0  0  0  0  0  0  0  0  0  0  0
   89.6070   86.4430  -50.7170 H   0  0  0  0  0  0  0  0  0  0  0  0
   91.8050   98.8200  -42.0800 H   0  0  0  0  0  0  0  0  0  0  0  0
   92.1750   96.5780  -40.9080 H   0  0  0  0  0  0  0  0  0  0  0  0
  1  3  2  0  0  0  0
  1  2  2  0  0  0  0
  4  1  1  0  0  0  0
  5  4  1  0  0  0  0
  5 26  1  0  0  0  0
  6  7  1  0  0  0  0
  6  5  1  0  0  0  0
  7  4  1  0  0  0  0
  8  6  1  0  0  0  0
  9  8  1  0  0  0  0
 10  9  2  0  0  0  0
 11 10  1  0  0  0  0
 11 12  2  0  0  0  0
 12  8  1  0  0  0  0
 13 14  1  0  0  0  0
 13 11  1  0  0  0  0
 14 15  1  0  0  0  0
 14 18  1  0  0  0  0
 15 16  1  0  0  0  0
 15 34  1  0  0  0  0
 16 36  1  0  0  0  0
 17 16  1  0  0  0  0
 17 18  1  0  0  0  0
 17 38  1  0  0  0  0
 18 19  2  0  0  0  0
 20  1  1  0  0  0  0
 20 24  2  0  0  0  0
 21 22  1  0  0  0  0
 21 20  1  0  0  0  0
 22 23  2  0  0  0  0
 23 40  1  0  0  0  0
 23 24  1  0  0  0  0
 24 41  1  0  0  0  0
 25 22  1  0  0  0  0
 27  5  1  0  0  0  0
 28  6  1  0  0  0  0
 29  7  1  0  0  0  0
 30  7  1  0  0  0  0
 31 12  1  0  0  0  0
 32 13  1  0  0  0  0
 33 13  1  0  0  0  0
 35 15  1  0  0  0  0
 37 16  1  0  0  0  0
 39 17  1  0  0  0  0
M  END
>  <Pose>
1

>  <Score>
-6.74

$$$$
