
 OpenBabel03212208273D

 50 53  0  0  0  0  0  0  0  0999 V2000
   90.9230  101.4510  -45.4600 S   0  0  0  0  0  0  0  0  0  0  0  0
   90.0040  102.6350  -45.3420 O   0  0  0  0  0  0  0  0  0  0  0  0
   90.0330  100.2510  -45.7360 O   0  0  0  0  0  0  0  0  0  0  0  0
   91.7590  101.2450  -44.0010 N   0  0  0  0  0  0  0  0  0  0  0  0
   90.9620  100.9920  -42.8490 C   0  0  0  0  0  0  0  0  0  0  0  0
   90.9300   99.6410  -42.3030 C   0  0  0  0  0  0  0  0  0  0  0  0
   91.9370   98.6950  -42.7440 N   0  0  0  0  0  0  0  0  0  0  0  0
   92.7620   98.9810  -43.8770 C   0  0  0  0  0  0  0  0  0  0  0  0
   92.9490  100.4790  -44.0830 C   0  0  0  0  0  0  0  0  0  0  0  0
   92.0890   97.5150  -42.0140 C   0  0  0  0  0  0  0  0  0  0  0  0
   92.8450   97.7310  -40.9160 O   0  0  0  0  0  0  0  0  0  0  0  0
   91.6260   96.1680  -42.1800 C   0  0  0  0  0  0  0  0  0  0  0  0
   91.5330   95.5500  -43.5010 C   0  0  0  0  0  0  0  0  0  0  0  0
   91.8950   94.2410  -43.7060 C   0  0  0  0  0  0  0  0  0  0  0  0
   91.7950   93.6610  -44.9700 C   0  0  0  0  0  0  0  0  0  0  0  0
   91.3310   94.4030  -46.0150 C   0  0  0  0  0  0  0  0  0  0  0  0
   90.9590   95.7340  -45.8130 C   0  0  0  0  0  0  0  0  0  0  0  0
   91.0580   96.2960  -44.5800 C   0  0  0  0  0  0  0  0  0  0  0  0
   92.5570   93.1790  -42.2530 B   0  0  0  0  0  0  0  0  0  0  0  0
   91.9510  101.7690  -46.8420 C   0  0  0  0  0  0  0  0  0  0  0  0
   93.3100  102.0190  -46.6570 C   0  0  0  0  0  0  0  0  0  0  0  0
   94.1670  102.2890  -47.7020 C   0  0  0  0  0  0  0  0  0  0  0  0
   93.7080  102.3230  -48.9990 C   0  0  0  0  0  0  0  0  0  0  0  0
   92.3660  102.0770  -49.1900 C   0  0  0  0  0  0  0  0  0  0  0  0
   91.4950  101.8050  -48.1410 C   0  0  0  0  0  0  0  0  0  0  0  0
   94.5760  102.6010  -50.0740 O   0  0  0  0  0  0  0  0  0  0  0  0
   95.9800  102.3150  -49.9410 C   0  0  0  0  0  0  0  0  0  0  0  0
   96.3770  102.8420  -48.6100 C   0  0  0  0  0  0  0  0  0  0  0  0
   97.4070  103.5330  -48.4420 O   0  0  0  0  0  0  0  0  0  0  0  0
   95.5630  102.5560  -47.4860 N   0  0  0  0  0  0  0  0  0  0  0  0
   89.9050  101.2880  -43.1200 H   0  0  0  0  0  0  0  0  0  0  0  0
   91.2630  101.7590  -42.0740 H   0  0  0  0  0  0  0  0  0  0  0  0
   91.0020   99.6800  -41.1750 H   0  0  0  0  0  0  0  0  0  0  0  0
   89.9330   99.1240  -42.4830 H   0  0  0  0  0  0  0  0  0  0  0  0
   92.3080   98.5150  -44.7620 H   0  0  0  0  0  0  0  0  0  0  0  0
   93.7920   98.5800  -43.8170 H   0  0  0  0  0  0  0  0  0  0  0  0
   93.4300  100.6170  -45.0590 H   0  0  0  0  0  0  0  0  0  0  0  0
   93.6100  100.8150  -43.2370 H   0  0  0  0  0  0  0  0  0  0  0  0
   92.2720   95.4740  -41.5180 H   0  0  0  0  0  0  0  0  0  0  0  0
   90.6080   96.0790  -41.6890 H   0  0  0  0  0  0  0  0  0  0  0  0
   92.0990   92.6280  -45.0620 H   0  0  0  0  0  0  0  0  0  0  0  0
   91.2550   93.9520  -46.9810 H   0  0  0  0  0  0  0  0  0  0  0  0
   90.5890   96.2890  -46.6860 H   0  0  0  0  0  0  0  0  0  0  0  0
   90.7790   97.3290  -44.3840 H   0  0  0  0  0  0  0  0  0  0  0  0
   93.6840  101.9950  -45.6380 H   0  0  0  0  0  0  0  0  0  0  0  0
   91.9930  102.1030  -50.2250 H   0  0  0  0  0  0  0  0  0  0  0  0
   90.4390  101.6130  -48.3280 H   0  0  0  0  0  0  0  0  0  0  0  0
   96.1240  101.1940  -49.8680 H   0  0  0  0  0  0  0  0  0  0  0  0
   96.4710  102.7710  -50.7880 H   0  0  0  0  0  0  0  0  0  0  0  0
   95.8980  102.5270  -46.5130 H   0  0  0  0  0  0  0  0  0  0  0  0
  1  2  2  0  0  0  0
  1  4  1  0  0  0  0
  3  1  2  0  0  0  0
  4  5  1  0  0  0  0
  5  6  1  0  0  0  0
  5 32  1  0  0  0  0
  6 33  1  0  0  0  0
  7  6  1  0  0  0  0
  7 10  1  0  0  0  0
  8 36  1  0  0  0  0
  8  7  1  0  0  0  0
  9  4  1  0  0  0  0
  9  8  1  0  0  0  0
  9 38  1  0  0  0  0
 10 11  2  0  0  0  0
 12 10  1  0  0  0  0
 12 40  1  0  0  0  0
 12 39  1  0  0  0  0
 13 12  1  0  0  0  0
 14 13  1  0  0  0  0
 14 19  1  0  0  0  0
 15 14  2  0  0  0  0
 16 17  2  0  0  0  0
 16 15  1  0  0  0  0
 17 18  1  0  0  0  0
 18 44  1  0  0  0  0
 18 13  2  0  0  0  0
 20 21  1  0  0  0  0
 20  1  1  0  0  0  0
 21 45  1  0  0  0  0
 22 30  1  0  0  0  0
 22 21  2  0  0  0  0
 23 22  1  0  0  0  0
 24 23  2  0  0  0  0
 24 25  1  0  0  0  0
 25 20  2  0  0  0  0
 26 27  1  0  0  0  0
 26 23  1  0  0  0  0
 27 48  1  0  0  0  0
 27 28  1  0  0  0  0
 28 29  2  0  0  0  0
 28 30  1  0  0  0  0
 30 50  1  0  0  0  0
 31  5  1  0  0  0  0
 34  6  1  0  0  0  0
 35  8  1  0  0  0  0
 37  9  1  0  0  0  0
 41 15  1  0  0  0  0
 42 16  1  0  0  0  0
 43 17  1  0  0  0  0
 46 24  1  0  0  0  0
 47 25  1  0  0  0  0
 49 27  1  0  0  0  0
M  END
>  <Pose>
1

>  <Score>
-5.79

$$$$
