
 OpenBabel03212208273D

 53 56  0  0  0  0  0  0  0  0999 V2000
   91.6660   97.2950  -45.5940 S   0  0  0  0  0  0  0  0  0  0  0  0
   93.1930   97.3400  -45.7410 O   0  0  0  0  0  0  0  0  0  0  0  0
   91.1850   98.1540  -46.7670 O   0  0  0  0  0  0  0  0  0  0  0  0
   91.1790   95.7180  -45.7380 N   0  0  0  0  0  0  0  0  0  0  0  0
   90.3820   95.2440  -46.7680 C   0  0  0  0  0  0  0  0  0  0  0  0
   89.8990   93.8180  -46.3860 C   0  0  0  0  0  0  0  0  0  0  0  0
   91.0280   93.0090  -46.0180 N   0  0  0  0  0  0  0  0  0  0  0  0
   91.8340   93.4800  -44.9150 C   0  0  0  0  0  0  0  0  0  0  0  0
   91.3570   94.8770  -44.5860 C   0  0  0  0  0  0  0  0  0  0  0  0
   91.3740   91.8080  -46.6670 C   0  0  0  0  0  0  0  0  0  0  0  0
   91.4360   90.7500  -46.0010 O   0  0  0  0  0  0  0  0  0  0  0  0
   91.6600   91.7800  -48.1020 C   0  0  0  0  0  0  0  0  0  0  0  0
   91.4590   90.4370  -48.6400 N   0  0  0  0  0  0  0  0  0  0  0  0
   92.2580   89.2810  -48.5060 C   0  0  0  0  0  0  0  0  0  0  0  0
   93.3510   89.2190  -47.8530 O   0  0  0  0  0  0  0  0  0  0  0  0
   91.6180   88.2330  -49.2230 N   0  0  0  0  0  0  0  0  0  0  0  0
   90.2370   88.6100  -49.3770 C   0  0  0  0  0  0  0  0  0  0  0  0
   89.3530   88.1280  -48.2740 C   0  0  0  0  0  0  0  0  0  0  0  0
   87.9610   88.3130  -48.8900 C   0  0  0  0  0  0  0  0  0  0  0  0
   88.1560   87.9530  -50.3370 C   0  0  0  0  0  0  0  0  0  0  0  0
   89.6200   88.0200  -50.6240 C   0  0  0  0  0  0  0  0  0  0  0  0
   90.3180   90.0880  -49.4510 C   0  0  0  0  0  0  0  0  0  0  0  0
   89.5560   90.8550  -50.0820 O   0  0  0  0  0  0  0  0  0  0  0  0
   91.3220   98.1290  -44.1110 C   0  0  0  0  0  0  0  0  0  0  0  0
   90.1440   98.7420  -43.7780 C   0  0  0  0  0  0  0  0  0  0  0  0
   89.9860   99.4350  -42.5720 C   0  0  0  0  0  0  0  0  0  0  0  0
   90.9960   99.5350  -41.6680 C   0  0  0  0  0  0  0  0  0  0  0  0
   92.1860   98.9300  -41.9700 C   0  0  0  0  0  0  0  0  0  0  0  0
   92.3460   98.2500  -43.1530 C   0  0  0  0  0  0  0  0  0  0  0  0
   88.6590   98.5940  -44.9490 B   0  0  0  0  0  0  0  0  0  0  0  0
   90.8340   95.2040  -47.7790 H   0  0  0  0  0  0  0  0  0  0  0  0
   89.4330   95.8090  -46.8420 H   0  0  0  0  0  0  0  0  0  0  0  0
   89.2030   93.9400  -45.5490 H   0  0  0  0  0  0  0  0  0  0  0  0
   89.3430   93.4630  -47.2570 H   0  0  0  0  0  0  0  0  0  0  0  0
   91.5910   92.8590  -44.0100 H   0  0  0  0  0  0  0  0  0  0  0  0
   92.9090   93.4300  -45.0800 H   0  0  0  0  0  0  0  0  0  0  0  0
   92.0160   95.3900  -43.8640 H   0  0  0  0  0  0  0  0  0  0  0  0
   90.3680   94.7700  -44.0950 H   0  0  0  0  0  0  0  0  0  0  0  0
   92.6780   92.1760  -48.3420 H   0  0  0  0  0  0  0  0  0  0  0  0
   90.9640   92.4410  -48.6940 H   0  0  0  0  0  0  0  0  0  0  0  0
   92.1340   87.3760  -49.5440 H   0  0  0  0  0  0  0  0  0  0  0  0
   89.5140   87.0460  -48.1410 H   0  0  0  0  0  0  0  0  0  0  0  0
   89.4480   88.7180  -47.3410 H   0  0  0  0  0  0  0  0  0  0  0  0
   87.6820   89.3870  -48.8270 H   0  0  0  0  0  0  0  0  0  0  0  0
   87.2260   87.6720  -48.3800 H   0  0  0  0  0  0  0  0  0  0  0  0
   87.6350   88.6520  -51.0100 H   0  0  0  0  0  0  0  0  0  0  0  0
   87.8330   86.9040  -50.4670 H   0  0  0  0  0  0  0  0  0  0  0  0
   90.0800   87.0430  -50.8320 H   0  0  0  0  0  0  0  0  0  0  0  0
   89.8460   88.6810  -51.5050 H   0  0  0  0  0  0  0  0  0  0  0  0
   89.0350   99.8860  -42.3900 H   0  0  0  0  0  0  0  0  0  0  0  0
   90.8100  100.0810  -40.7610 H   0  0  0  0  0  0  0  0  0  0  0  0
   92.9880   99.0100  -41.2480 H   0  0  0  0  0  0  0  0  0  0  0  0
   93.2880   97.7730  -43.3880 H   0  0  0  0  0  0  0  0  0  0  0  0
  1 24  1  0  0  0  0
  2  1  2  0  0  0  0
  3  1  2  0  0  0  0
  4  1  1  0  0  0  0
  4  9  1  0  0  0  0
  5  6  1  0  0  0  0
  5  4  1  0  0  0  0
  6  7  1  0  0  0  0
  6 33  1  0  0  0  0
  7  8  1  0  0  0  0
  8  9  1  0  0  0  0
  8 35  1  0  0  0  0
  9 38  1  0  0  0  0
  9 37  1  0  0  0  0
 10  7  1  0  0  0  0
 10 11  2  0  0  0  0
 12 10  1  0  0  0  0
 13 14  1  0  0  0  0
 13 12  1  0  0  0  0
 14 15  2  0  0  0  0
 16 14  1  0  0  0  0
 17 16  1  0  0  0  0
 17 18  1  0  0  0  0
 18 42  1  0  0  0  0
 18 43  1  0  0  0  0
 19 44  1  0  0  0  0
 19 45  1  0  0  0  0
 19 18  1  0  0  0  0
 20 19  1  0  0  0  0
 21 20  1  0  0  0  0
 21 17  1  0  0  0  0
 22 17  1  0  0  0  0
 22 13  1  0  0  0  0
 23 22  2  0  0  0  0
 24 25  2  0  0  0  0
 24 29  1  0  0  0  0
 25 26  1  0  0  0  0
 26 50  1  0  0  0  0
 26 27  2  0  0  0  0
 27 51  1  0  0  0  0
 28 27  1  0  0  0  0
 28 52  1  0  0  0  0
 29 28  2  0  0  0  0
 30 25  1  0  0  0  0
 31  5  1  0  0  0  0
 32  5  1  0  0  0  0
 34  6  1  0  0  0  0
 36  8  1  0  0  0  0
 39 12  1  0  0  0  0
 40 12  1  0  0  0  0
 41 16  1  0  0  0  0
 46 20  1  0  0  0  0
 47 20  1  0  0  0  0
 48 21  1  0  0  0  0
 49 21  1  0  0  0  0
 53 29  1  0  0  0  0
M  END
>  <Pose>
1

>  <Score>
-4.90

$$$$
