
 OpenBabel03212208273D

 47 50  0  0  0  0  0  0  0  0999 V2000
   84.2890   99.1610  -43.5900 S   0  0  0  0  0  0  0  0  0  0  0  0
   83.6170  100.4300  -43.2380 O   0  0  0  0  0  0  0  0  0  0  0  0
   83.8890   98.1390  -42.5330 O   0  0  0  0  0  0  0  0  0  0  0  0
   83.8570   98.5310  -45.0980 N   0  0  0  0  0  0  0  0  0  0  0  0
   83.6420   97.1550  -45.1900 C   0  0  0  0  0  0  0  0  0  0  0  0
   83.8300   96.5310  -46.5270 C   0  0  0  0  0  0  0  0  0  0  0  0
   84.7340   97.2240  -47.3890 N   0  0  0  0  0  0  0  0  0  0  0  0
   85.3790   98.4270  -46.9100 C   0  0  0  0  0  0  0  0  0  0  0  0
   84.2780   99.2430  -46.2350 C   0  0  0  0  0  0  0  0  0  0  0  0
   85.0240   96.7790  -48.7020 C   0  0  0  0  0  0  0  0  0  0  0  0
   84.2100   96.9920  -49.6560 O   0  0  0  0  0  0  0  0  0  0  0  0
   86.2440   96.0610  -49.0490 C   0  0  0  0  0  0  0  0  0  0  0  0
   86.2400   94.7240  -49.4010 C   0  0  0  0  0  0  0  0  0  0  0  0
   87.3850   94.0370  -49.7310 C   0  0  0  0  0  0  0  0  0  0  0  0
   88.5880   94.7260  -49.7050 C   0  0  0  0  0  0  0  0  0  0  0  0
   88.6510   96.0560  -49.3630 C   0  0  0  0  0  0  0  0  0  0  0  0
   87.4770   96.6990  -49.0400 C   0  0  0  0  0  0  0  0  0  0  0  0
   84.5480   93.8400  -49.4150 B   0  0  0  0  0  0  0  0  0  0  0  0
   86.0390   99.3020  -43.4680 C   0  0  0  0  0  0  0  0  0  0  0  0
   86.6300  100.2550  -42.6640 C   0  0  0  0  0  0  0  0  0  0  0  0
   87.9990  100.3900  -42.5460 C   0  0  0  0  0  0  0  0  0  0  0  0
   88.8440   99.5560  -43.2480 C   0  0  0  0  0  0  0  0  0  0  0  0
   88.2540   98.5960  -44.0560 C   0  0  0  0  0  0  0  0  0  0  0  0
   86.8850   98.4660  -44.1680 C   0  0  0  0  0  0  0  0  0  0  0  0
   90.2300   99.6680  -43.1500 O   0  0  0  0  0  0  0  0  0  0  0  0
   90.8980  100.7640  -42.5540 C   0  0  0  0  0  0  0  0  0  0  0  0
   90.0250  101.5030  -41.6080 C   0  0  0  0  0  0  0  0  0  0  0  0
   90.5900  102.2180  -40.7420 O   0  0  0  0  0  0  0  0  0  0  0  0
   88.6120  101.3720  -41.7210 N   0  0  0  0  0  0  0  0  0  0  0  0
   82.5920   96.9270  -44.8430 H   0  0  0  0  0  0  0  0  0  0  0  0
   84.3030   96.6360  -44.4340 H   0  0  0  0  0  0  0  0  0  0  0  0
   82.8370   96.3440  -47.0060 H   0  0  0  0  0  0  0  0  0  0  0  0
   84.2580   95.4960  -46.3770 H   0  0  0  0  0  0  0  0  0  0  0  0
   85.8540   99.0000  -47.7300 H   0  0  0  0  0  0  0  0  0  0  0  0
   86.1360   98.1840  -46.1550 H   0  0  0  0  0  0  0  0  0  0  0  0
   84.7210  100.2150  -45.9930 H   0  0  0  0  0  0  0  0  0  0  0  0
   83.4280   99.3250  -46.9600 H   0  0  0  0  0  0  0  0  0  0  0  0
   87.3690   92.9730  -50.0100 H   0  0  0  0  0  0  0  0  0  0  0  0
   89.4900   94.1680  -49.9700 H   0  0  0  0  0  0  0  0  0  0  0  0
   89.6150   96.5730  -49.3510 H   0  0  0  0  0  0  0  0  0  0  0  0
   87.5180   97.7430  -48.7700 H   0  0  0  0  0  0  0  0  0  0  0  0
   85.9820  100.9150  -42.1100 H   0  0  0  0  0  0  0  0  0  0  0  0
   88.9160   97.9380  -44.6090 H   0  0  0  0  0  0  0  0  0  0  0  0
   86.4290   97.7220  -44.7970 H   0  0  0  0  0  0  0  0  0  0  0  0
   91.2340  101.4950  -43.3400 H   0  0  0  0  0  0  0  0  0  0  0  0
   91.8210  100.3900  -42.0690 H   0  0  0  0  0  0  0  0  0  0  0  0
   87.9870  102.0110  -41.1840 H   0  0  0  0  0  0  0  0  0  0  0  0
  1 19  1  0  0  0  0
  1  2  2  0  0  0  0
  1  3  2  0  0  0  0
  4  1  1  0  0  0  0
  5  4  1  0  0  0  0
  5 30  1  0  0  0  0
  5 31  1  0  0  0  0
  6 33  1  0  0  0  0
  6  5  1  0  0  0  0
  7  8  1  0  0  0  0
  7  6  1  0  0  0  0
  8  9  1  0  0  0  0
  8 35  1  0  0  0  0
  9 36  1  0  0  0  0
  9  4  1  0  0  0  0
 10  7  1  0  0  0  0
 11 10  2  0  0  0  0
 12 17  1  0  0  0  0
 12 10  1  0  0  0  0
 13 12  2  0  0  0  0
 14 15  2  0  0  0  0
 14 13  1  0  0  0  0
 15 16  1  0  0  0  0
 16 40  1  0  0  0  0
 16 17  2  0  0  0  0
 17 41  1  0  0  0  0
 18 13  1  0  0  0  0
 19 20  1  0  0  0  0
 20 21  2  0  0  0  0
 20 42  1  0  0  0  0
 21 29  1  0  0  0  0
 22 25  1  0  0  0  0
 22 21  1  0  0  0  0
 23 22  2  0  0  0  0
 24 23  1  0  0  0  0
 24 19  2  0  0  0  0
 25 26  1  0  0  0  0
 26 46  1  0  0  0  0
 26 27  1  0  0  0  0
 27 28  2  0  0  0  0
 29 27  1  0  0  0  0
 29 47  1  0  0  0  0
 32  6  1  0  0  0  0
 34  8  1  0  0  0  0
 37  9  1  0  0  0  0
 38 14  1  0  0  0  0
 39 15  1  0  0  0  0
 43 23  1  0  0  0  0
 44 24  1  0  0  0  0
 45 26  1  0  0  0  0
M  END
>  <Pose>
1

>  <Score>
-4.83

$$$$
