
 OpenBabel03212208273D

 49 52  0  0  1  0  0  0  0  0999 V2000
   91.8900   97.7090  -42.1230 S   0  0  0  0  0  0  0  0  0  0  0  0
   91.0000   96.7420  -41.4240 O   0  0  0  0  0  0  0  0  0  0  0  0
   93.2290   97.7140  -41.4290 O   0  0  0  0  0  0  0  0  0  0  0  0
   92.1220   97.2450  -43.7330 N   0  0  0  0  0  0  0  0  0  0  0  0
   92.2610   98.2880  -44.6760 C   0  0  0  0  0  0  0  0  0  0  0  0
   91.0950   98.5970  -45.5200 C   0  0  0  0  0  0  0  0  0  0  0  0
   90.3950   97.4160  -45.9270 N   0  0  0  0  0  0  0  0  0  0  0  0
   90.9090   96.1300  -45.5550 C   0  0  0  0  0  0  0  0  0  0  0  0
   91.4380   96.0770  -44.1560 C   0  0  0  0  0  0  0  0  0  0  0  0
   89.2110   97.5050  -46.6870 C   0  0  0  0  0  0  0  0  0  0  0  0
   89.2920   97.5170  -47.9360 O   0  0  0  0  0  0  0  0  0  0  0  0
   87.8780   97.5860  -46.1020 C   0  0  1  0  0  0  0  0  0  0  0  0
   86.9890   96.5400  -46.2700 C   0  0  0  0  0  0  0  0  0  0  0  0
   85.7620   96.6130  -45.7310 N   0  0  0  0  0  0  0  0  0  0  0  0
   85.3450   97.6810  -45.0180 C   0  0  2  0  0  0  0  0  0  0  0  0
   86.1850   98.7150  -44.8360 N   0  0  0  0  0  0  0  0  0  0  0  0
   85.7690   99.7950  -44.1170 C   0  0  0  0  0  0  0  0  0  0  0  0
   84.5050   99.8620  -43.5670 C   0  0  0  0  0  0  0  0  0  0  0  0
   83.6230   98.8080  -43.7420 C   0  0  0  0  0  0  0  0  0  0  0  0
   84.0670   97.7290  -44.4710 C   0  0  0  0  0  0  0  0  0  0  0  0
   84.0160  101.0200  -42.7780 C   0  0  0  0  0  0  0  0  0  0  0  0
   87.4340   98.6680  -45.3700 C   0  0  0  0  0  0  0  0  0  0  0  0
   88.2080   99.6230  -45.2020 O   0  0  0  0  0  0  0  0  0  0  0  0
   91.2350   99.3230  -42.0530 C   0  0  0  0  0  0  0  0  0  0  0  0
   91.8310  100.2800  -41.2580 C   0  0  0  0  0  0  0  0  0  0  0  0
   91.2570  101.5470  -41.2490 C   0  0  0  0  0  0  0  0  0  0  0  0
   90.1460  101.8510  -41.9920 C   0  0  0  0  0  0  0  0  0  0  0  0
   89.5540  100.8810  -42.7890 C   0  0  0  0  0  0  0  0  0  0  0  0
   90.1160   99.6000  -42.8120 C   0  0  0  0  0  0  0  0  0  0  0  0
   92.0320  102.9100  -40.1730 B   0  0  0  0  0  0  0  0  0  0  0  0
   92.5730   99.2150  -44.1290 H   0  0  0  0  0  0  0  0  0  0  0  0
   93.1270   98.0440  -45.3440 H   0  0  0  0  0  0  0  0  0  0  0  0
   90.4130   99.2690  -44.9170 H   0  0  0  0  0  0  0  0  0  0  0  0
   91.3580   99.1510  -46.4630 H   0  0  0  0  0  0  0  0  0  0  0  0
   90.1370   95.3510  -45.7170 H   0  0  0  0  0  0  0  0  0  0  0  0
   91.7210   95.8850  -46.3030 H   0  0  0  0  0  0  0  0  0  0  0  0
   92.1170   95.2040  -44.0690 H   0  0  0  0  0  0  0  0  0  0  0  0
   90.5880   95.8890  -43.4690 H   0  0  0  0  0  0  0  0  0  0  0  0
   87.3120   95.6660  -46.8460 H   0  0  0  0  0  0  0  0  0  0  0  0
   86.4500  100.6230  -43.9760 H   0  0  0  0  0  0  0  0  0  0  0  0
   82.6220   98.8020  -43.3350 H   0  0  0  0  0  0  0  0  0  0  0  0
   83.3900   96.8990  -44.6170 H   0  0  0  0  0  0  0  0  0  0  0  0
   84.2750  100.8890  -41.6940 H   0  0  0  0  0  0  0  0  0  0  0  0
   82.9070  101.1220  -42.8670 H   0  0  0  0  0  0  0  0  0  0  0  0
   84.5230  101.9610  -43.0830 H   0  0  0  0  0  0  0  0  0  0  0  0
   92.7030  100.0440  -40.6730 H   0  0  0  0  0  0  0  0  0  0  0  0
   89.7350  102.8500  -41.9540 H   0  0  0  0  0  0  0  0  0  0  0  0
   88.6820  101.1330  -43.3680 H   0  0  0  0  0  0  0  0  0  0  0  0
   89.6710   98.8360  -43.4230 H   0  0  0  0  0  0  0  0  0  0  0  0
  1 24  1  0  0  0  0
  1  3  2  0  0  0  0
  1  2  2  0  0  0  0
  4  1  1  0  0  0  0
  5 31  1  0  0  0  0
  5  4  1  0  0  0  0
  6 33  1  0  0  0  0
  6  5  1  0  0  0  0
  7  8  1  0  0  0  0
  7  6  1  0  0  0  0
  8  9  1  0  0  0  0
  9 37  1  0  0  0  0
  9  4  1  0  0  0  0
  9 38  1  0  0  0  0
 10  7  1  0  0  0  0
 11 10  2  0  0  0  0
 12 10  1  1  0  0  0
 12 22  1  0  0  0  0
 13 12  1  0  0  0  0
 13 14  2  0  0  0  0
 15 14  1  1  0  0  0
 15 16  1  0  0  0  0
 15 20  1  0  0  0  0
 16 17  1  0  0  0  0
 17 40  1  0  0  0  0
 17 18  2  0  0  0  0
 18 21  1  0  0  0  0
 19 18  1  0  0  0  0
 19 41  1  0  0  0  0
 20 19  2  0  0  0  0
 21 43  1  0  0  0  0
 22 23  2  0  0  0  0
 22 16  1  0  0  0  0
 24 25  1  0  0  0  0
 25 26  2  0  0  0  0
 25 46  1  0  0  0  0
 26 30  1  0  0  0  0
 27 47  1  0  0  0  0
 27 26  1  0  0  0  0
 28 27  2  0  0  0  0
 29 28  1  0  0  0  0
 29 24  2  0  0  0  0
 32  5  1  0  0  0  0
 34  6  1  0  0  0  0
 35  8  1  0  0  0  0
 36  8  1  0  0  0  0
 39 13  1  0  0  0  0
 42 20  1  0  0  0  0
 44 21  1  0  0  0  0
 45 21  1  0  0  0  0
 48 28  1  0  0  0  0
 49 29  1  0  0  0  0
M  END
>  <Pose>
1

>  <Score>
-5.30

$$$$
