
 OpenBabel03212208273D

 53 56  0  0  0  0  0  0  0  0999 V2000
   90.3140  100.1110  -43.8990 S   0  0  0  0  0  0  0  0  0  0  0  0
   90.6380  100.9690  -45.1110 O   0  0  0  0  0  0  0  0  0  0  0  0
   88.8630  100.3100  -43.5670 O   0  0  0  0  0  0  0  0  0  0  0  0
   90.5710   98.4580  -44.3400 N   0  0  0  0  0  0  0  0  0  0  0  0
   91.9180   98.3210  -44.7800 C   0  0  0  0  0  0  0  0  0  0  0  0
   92.1020   97.2520  -45.8360 C   0  0  0  0  0  0  0  0  0  0  0  0
   91.0570   96.2860  -45.6580 N   0  0  0  0  0  0  0  0  0  0  0  0
   89.6970   96.7060  -45.8280 C   0  0  0  0  0  0  0  0  0  0  0  0
   89.5830   98.1270  -45.3390 C   0  0  0  0  0  0  0  0  0  0  0  0
   91.3730   94.9580  -45.3260 C   0  0  0  0  0  0  0  0  0  0  0  0
   91.4470   93.9780  -46.2430 N   0  0  0  0  0  0  0  0  0  0  0  0
   91.7370   92.7140  -45.9940 C   0  0  0  0  0  0  0  0  0  0  0  0
   91.9910   92.3620  -44.6790 C   0  0  0  0  0  0  0  0  0  0  0  0
   91.9290   93.3310  -43.7030 C   0  0  0  0  0  0  0  0  0  0  0  0
   91.6250   94.5960  -44.0450 N   0  0  0  0  0  0  0  0  0  0  0  0
   92.1950   92.9930  -42.2790 C   0  0  0  0  0  0  0  0  0  0  0  0
   91.7820   91.7750  -47.0520 N   0  0  0  0  0  0  0  0  0  0  0  0
   91.6230   90.3470  -46.8640 C   0  0  0  0  0  0  0  0  0  0  0  0
   91.1550   89.7900  -48.2070 C   0  0  0  0  0  0  0  0  0  0  0  0
   90.2020   90.6800  -48.7080 O   0  0  0  0  0  0  0  0  0  0  0  0
   90.7500   91.8450  -49.1960 C   0  0  0  0  0  0  0  0  0  0  0  0
   91.9950   92.2500  -48.4000 C   0  0  0  0  0  0  0  0  0  0  0  0
   91.3490  100.5910  -42.5850 C   0  0  0  0  0  0  0  0  0  0  0  0
   91.3740  101.9270  -42.2110 C   0  0  0  0  0  0  0  0  0  0  0  0
   92.1680  102.3800  -41.1810 C   0  0  0  0  0  0  0  0  0  0  0  0
   92.9640  101.4940  -40.4970 C   0  0  0  0  0  0  0  0  0  0  0  0
   92.9680  100.1550  -40.8390 C   0  0  0  0  0  0  0  0  0  0  0  0
   92.1530   99.7290  -41.8850 C   0  0  0  0  0  0  0  0  0  0  0  0
   94.0570  102.1360  -39.0740 B   0  0  0  0  0  0  0  0  0  0  0  0
   92.3950   99.2540  -45.1240 H   0  0  0  0  0  0  0  0  0  0  0  0
   92.5330   97.9840  -43.8970 H   0  0  0  0  0  0  0  0  0  0  0  0
   93.1110   96.8180  -45.8280 H   0  0  0  0  0  0  0  0  0  0  0  0
   91.9960   97.7750  -46.8290 H   0  0  0  0  0  0  0  0  0  0  0  0
   88.9930   96.0290  -45.2970 H   0  0  0  0  0  0  0  0  0  0  0  0
   89.3710   96.7070  -46.8970 H   0  0  0  0  0  0  0  0  0  0  0  0
   88.5850   98.2340  -44.8620 H   0  0  0  0  0  0  0  0  0  0  0  0
   89.6180   98.8720  -46.1650 H   0  0  0  0  0  0  0  0  0  0  0  0
   92.2300   91.3360  -44.4660 H   0  0  0  0  0  0  0  0  0  0  0  0
   93.1800   93.4140  -41.9490 H   0  0  0  0  0  0  0  0  0  0  0  0
   91.4230   93.4830  -41.6570 H   0  0  0  0  0  0  0  0  0  0  0  0
   92.1150   91.9060  -42.0980 H   0  0  0  0  0  0  0  0  0  0  0  0
   92.5670   89.8410  -46.5880 H   0  0  0  0  0  0  0  0  0  0  0  0
   90.8130   90.1300  -46.1200 H   0  0  0  0  0  0  0  0  0  0  0  0
   90.7060   88.8030  -48.0880 H   0  0  0  0  0  0  0  0  0  0  0  0
   92.0110   89.7250  -48.9000 H   0  0  0  0  0  0  0  0  0  0  0  0
   90.0210   92.6990  -49.0780 H   0  0  0  0  0  0  0  0  0  0  0  0
   90.9910   91.7700  -50.2640 H   0  0  0  0  0  0  0  0  0  0  0  0
   92.8950   91.7710  -48.8560 H   0  0  0  0  0  0  0  0  0  0  0  0
   92.1380   93.3440  -48.4260 H   0  0  0  0  0  0  0  0  0  0  0  0
   90.7420  102.6230  -42.7550 H   0  0  0  0  0  0  0  0  0  0  0  0
   92.1820  103.4230  -40.8940 H   0  0  0  0  0  0  0  0  0  0  0  0
   93.5940   99.4490  -40.3030 H   0  0  0  0  0  0  0  0  0  0  0  0
   92.1460   98.6780  -42.1670 H   0  0  0  0  0  0  0  0  0  0  0  0
  1  3  2  0  0  0  0
  1 23  1  0  0  0  0
  2  1  2  0  0  0  0
  4  1  1  0  0  0  0
  5  4  1  0  0  0  0
  5 31  1  0  0  0  0
  6 32  1  0  0  0  0
  6  7  1  0  0  0  0
  6  5  1  0  0  0  0
  7 10  1  0  0  0  0
  8  7  1  0  0  0  0
  8  9  1  0  0  0  0
  8 34  1  0  0  0  0
  9 36  1  0  0  0  0
  9  4  1  0  0  0  0
 10 15  1  0  0  0  0
 11 12  1  0  0  0  0
 11 10  2  0  0  0  0
 12 13  2  0  0  0  0
 13 38  1  0  0  0  0
 13 14  1  0  0  0  0
 14 16  1  0  0  0  0
 15 14  2  0  0  0  0
 16 41  1  0  0  0  0
 16 39  1  0  0  0  0
 16 40  1  0  0  0  0
 17 18  1  0  0  0  0
 17 12  1  0  0  0  0
 18 42  1  0  0  0  0
 18 43  1  0  0  0  0
 19 44  1  0  0  0  0
 19 18  1  0  0  0  0
 20 19  1  0  0  0  0
 21 46  1  0  0  0  0
 21 20  1  0  0  0  0
 21 22  1  0  0  0  0
 22 17  1  0  0  0  0
 23 24  2  0  0  0  0
 23 28  1  0  0  0  0
 24 25  1  0  0  0  0
 25 51  1  0  0  0  0
 25 26  2  0  0  0  0
 26 29  1  0  0  0  0
 27 26  1  0  0  0  0
 27 52  1  0  0  0  0
 28 27  2  0  0  0  0
 30  5  1  0  0  0  0
 33  6  1  0  0  0  0
 35  8  1  0  0  0  0
 37  9  1  0  0  0  0
 45 19  1  0  0  0  0
 47 21  1  0  0  0  0
 48 22  1  0  0  0  0
 49 22  1  0  0  0  0
 50 24  1  0  0  0  0
 53 28  1  0  0  0  0
M  END
>  <Pose>
1

>  <Score>
-5.10

$$$$
