
 OpenBabel03212208273D

 37 40  0  0  0  0  0  0  0  0999 V2000
   92.3950  100.4940  -41.1350 S   0  0  0  0  0  0  0  0  0  0  0  0
   93.0420   99.2110  -40.6250 O   0  0  0  0  0  0  0  0  0  0  0  0
   91.4720  100.9510  -40.0650 O   0  0  0  0  0  0  0  0  0  0  0  0
   91.6300  100.1650  -42.5840 N   0  0  0  0  0  0  0  0  0  0  0  0
   90.3250   99.6260  -42.5700 C   0  0  0  0  0  0  0  0  0  0  0  0
   90.2210   98.1370  -42.7920 C   0  0  0  0  0  0  0  0  0  0  0  0
   91.4820   97.5250  -43.0680 N   0  0  0  0  0  0  0  0  0  0  0  0
   92.5870   98.2230  -43.7020 C   0  0  0  0  0  0  0  0  0  0  0  0
   92.3980   99.7110  -43.6760 C   0  0  0  0  0  0  0  0  0  0  0  0
   91.7040   96.1660  -42.7130 C   0  0  0  0  0  0  0  0  0  0  0  0
   91.9780   95.8460  -41.4140 N   0  0  0  0  0  0  0  0  0  0  0  0
   92.1810   94.5770  -41.0580 C   0  0  0  0  0  0  0  0  0  0  0  0
   92.1260   93.5780  -41.9370 N   0  0  0  0  0  0  0  0  0  0  0  0
   91.8610   93.8680  -43.2080 C   0  0  0  0  0  0  0  0  0  0  0  0
   91.7490   93.0900  -44.2880 N   0  0  0  0  0  0  0  0  0  0  0  0
   91.4690   93.8810  -45.3620 C   0  0  0  0  0  0  0  0  0  0  0  0
   91.4020   95.1540  -44.9730 N   0  0  0  0  0  0  0  0  0  0  0  0
   91.6380   95.1730  -43.6530 C   0  0  0  0  0  0  0  0  0  0  0  0
   93.7150  101.6630  -41.2420 C   0  0  0  0  0  0  0  0  0  0  0  0
   94.7460  102.2440  -40.0160 S   0  0  0  0  0  0  0  0  0  0  0  0
   95.7050  103.3080  -40.9370 C   0  0  0  0  0  0  0  0  0  0  0  0
   95.1840  103.1760  -42.2010 C   0  0  0  0  0  0  0  0  0  0  0  0
   94.1600  102.3280  -42.3500 C   0  0  0  0  0  0  0  0  0  0  0  0
   97.1540  104.4180  -40.3760 B   0  0  0  0  0  0  0  0  0  0  0  0
   89.7190   99.9140  -41.6780 H   0  0  0  0  0  0  0  0  0  0  0  0
   89.7720  100.1200  -43.4260 H   0  0  0  0  0  0  0  0  0  0  0  0
   89.4290   97.9400  -43.5420 H   0  0  0  0  0  0  0  0  0  0  0  0
   89.8080   97.6800  -41.8490 H   0  0  0  0  0  0  0  0  0  0  0  0
   93.5380   97.9800  -43.1920 H   0  0  0  0  0  0  0  0  0  0  0  0
   92.6670   97.8530  -44.7480 H   0  0  0  0  0  0  0  0  0  0  0  0
   93.3740  100.2350  -43.6810 H   0  0  0  0  0  0  0  0  0  0  0  0
   91.8590   99.9930  -44.6240 H   0  0  0  0  0  0  0  0  0  0  0  0
   92.3990   94.3160  -40.0270 H   0  0  0  0  0  0  0  0  0  0  0  0
   91.3300   93.4920  -46.3570 H   0  0  0  0  0  0  0  0  0  0  0  0
   91.2040   95.9600  -45.5950 H   0  0  0  0  0  0  0  0  0  0  0  0
   95.6270  103.7710  -43.0370 H   0  0  0  0  0  0  0  0  0  0  0  0
   93.6750  102.1580  -43.3360 H   0  0  0  0  0  0  0  0  0  0  0  0
  1  2  2  0  0  0  0
  1  3  2  0  0  0  0
  4  5  1  0  0  0  0
  4  1  1  0  0  0  0
  5 25  1  0  0  0  0
  6  5  1  0  0  0  0
  6 28  1  0  0  0  0
  7  6  1  0  0  0  0
  7 10  1  0  0  0  0
  8  9  1  0  0  0  0
  8 29  1  0  0  0  0
  8  7  1  0  0  0  0
  9  4  1  0  0  0  0
 10 11  1  0  0  0  0
 11 12  2  0  0  0  0
 12 33  1  0  0  0  0
 13 12  1  0  0  0  0
 14 13  2  0  0  0  0
 15 14  1  0  0  0  0
 16 17  1  0  0  0  0
 16 15  2  0  0  0  0
 17 18  1  0  0  0  0
 18 14  1  0  0  0  0
 18 10  2  0  0  0  0
 19  1  1  0  0  0  0
 19 20  1  0  0  0  0
 21 24  1  0  0  0  0
 21 20  1  0  0  0  0
 22 21  2  0  0  0  0
 23 22  1  0  0  0  0
 23 19  2  0  0  0  0
 26  5  1  0  0  0  0
 27  6  1  0  0  0  0
 30  8  1  0  0  0  0
 31  9  1  0  0  0  0
 32  9  1  0  0  0  0
 34 16  1  0  0  0  0
 35 17  1  0  0  0  0
 36 22  1  0  0  0  0
 37 23  1  0  0  0  0
M  END
>  <Pose>
1

>  <Score>
-5.81

$$$$
