
 OpenBabel03212208273D

 40 43  0  0  1  0  0  0  0  0999 V2000
   89.4180   99.6970  -43.9130 S   0  0  0  0  0  0  0  0  0  0  0  0
   87.9690   99.5770  -43.5160 O   0  0  0  0  0  0  0  0  0  0  0  0
   89.4410  100.5710  -45.1590 O   0  0  0  0  0  0  0  0  0  0  0  0
   90.1170   98.2020  -44.3170 N   0  0  0  0  0  0  0  0  0  0  0  0
   89.2970   97.5090  -45.2530 C   0  0  0  0  0  0  0  0  0  0  0  0
   90.0900   96.6110  -46.1800 C   0  0  0  0  0  0  0  0  0  0  0  0
   91.1950   96.0830  -45.4210 N   0  0  0  0  0  0  0  0  0  0  0  0
   92.1870   97.0420  -45.0050 C   0  0  0  0  0  0  0  0  0  0  0  0
   91.5020   98.3070  -44.6290 C   0  0  0  0  0  0  0  0  0  0  0  0
   91.3280   94.7150  -45.0890 C   0  0  1  0  0  0  0  0  0  0  0  0
   91.2760   93.7520  -46.0090 C   0  0  0  0  0  0  0  0  0  0  0  0
   91.4100   92.3380  -45.7090 C   0  0  0  0  0  0  0  0  0  0  0  0
   91.3490   91.4250  -46.6640 C   0  0  0  0  0  0  0  0  0  0  0  0
   91.6070   91.9470  -44.3670 N   0  0  0  0  0  0  0  0  0  0  0  0
   91.6580   93.0100  -43.4040 C   0  0  0  0  0  0  0  0  0  0  0  0
   91.5290   94.3050  -43.7330 N   0  0  0  0  0  0  0  0  0  0  0  0
   91.6210   95.0480  -42.6270 N   0  0  0  0  0  0  0  0  0  0  0  0
   91.8100   94.2410  -41.5680 C   0  0  0  0  0  0  0  0  0  0  0  0
   91.8310   92.9900  -42.0580 N   0  0  0  0  0  0  0  0  0  0  0  0
   90.3390  100.5660  -42.6870 C   0  0  0  0  0  0  0  0  0  0  0  0
   91.9470  100.2710  -42.2270 S   0  0  0  0  0  0  0  0  0  0  0  0
   92.1200  101.4720  -41.0340 C   0  0  0  0  0  0  0  0  0  0  0  0
   90.8950  102.0840  -41.0240 C   0  0  0  0  0  0  0  0  0  0  0  0
   89.9670  101.6090  -41.8890 C   0  0  0  0  0  0  0  0  0  0  0  0
   93.6500  101.9010  -39.9370 B   0  0  0  0  0  0  0  0  0  0  0  0
   88.5720   98.1540  -45.7910 H   0  0  0  0  0  0  0  0  0  0  0  0
   88.6470   96.8050  -44.6520 H   0  0  0  0  0  0  0  0  0  0  0  0
   89.4720   95.8390  -46.6530 H   0  0  0  0  0  0  0  0  0  0  0  0
   90.5190   97.2570  -46.9730 H   0  0  0  0  0  0  0  0  0  0  0  0
   92.8690   96.6470  -44.2270 H   0  0  0  0  0  0  0  0  0  0  0  0
   92.8710   97.2350  -45.8850 H   0  0  0  0  0  0  0  0  0  0  0  0
   92.0080   98.6660  -43.6830 H   0  0  0  0  0  0  0  0  0  0  0  0
   91.7410   99.0920  -45.3690 H   0  0  0  0  0  0  0  0  0  0  0  0
   91.1260   94.0590  -47.0320 H   0  0  0  0  0  0  0  0  0  0  0  0
   91.1970   91.7280  -47.7000 H   0  0  0  0  0  0  0  0  0  0  0  0
   91.4450   90.3690  -46.4670 H   0  0  0  0  0  0  0  0  0  0  0  0
   91.7130   90.9740  -44.0500 H   0  0  0  0  0  0  0  0  0  0  0  0
   91.9240   94.5310  -40.5190 H   0  0  0  0  0  0  0  0  0  0  0  0
   90.7200  102.9350  -40.3160 H   0  0  0  0  0  0  0  0  0  0  0  0
   88.9490  102.0740  -41.9230 H   0  0  0  0  0  0  0  0  0  0  0  0
  1  2  2  0  0  0  0
  1 20  1  0  0  0  0
  3  1  2  0  0  0  0
  4  1  1  0  0  0  0
  5 27  1  0  0  0  0
  5  4  1  0  0  0  0
  6  7  1  0  0  0  0
  6  5  1  0  0  0  0
  7  8  1  0  0  0  0
  8  9  1  0  0  0  0
  8 30  1  0  0  0  0
  9  4  1  0  0  0  0
  9 32  1  0  0  0  0
 10  7  1  6  0  0  0
 10 16  1  0  0  0  0
 11 12  2  0  0  0  0
 11 10  1  0  0  0  0
 12 14  1  0  0  0  0
 13 36  1  0  0  0  0
 13 12  1  0  0  0  0
 14 37  1  0  0  0  0
 14 15  1  0  0  0  0
 15 19  2  0  0  0  0
 16 15  1  0  0  0  0
 16 17  1  0  0  0  0
 17 18  2  0  0  0  0
 18 38  1  0  0  0  0
 19 18  1  0  0  0  0
 20 21  1  0  0  0  0
 20 24  2  0  0  0  0
 21 22  1  0  0  0  0
 22 23  2  0  0  0  0
 22 25  1  0  0  0  0
 23 39  1  0  0  0  0
 24 23  1  0  0  0  0
 26  5  1  0  0  0  0
 28  6  1  0  0  0  0
 29  6  1  0  0  0  0
 31  8  1  0  0  0  0
 33  9  1  0  0  0  0
 34 11  1  0  0  0  0
 35 13  1  0  0  0  0
 40 24  1  0  0  0  0
M  END
>  <Pose>
1

>  <Score>
-6.18

$$$$
