
 OpenBabel03212208273D

 43 46  0  0  0  0  0  0  0  0999 V2000
   91.9060  100.6010  -41.3630 S   0  0  0  0  0  0  0  0  0  0  0  0
   92.3320   99.1980  -40.9480 O   0  0  0  0  0  0  0  0  0  0  0  0
   90.7220  100.9440  -40.5080 O   0  0  0  0  0  0  0  0  0  0  0  0
   91.4660  100.5340  -43.0050 N   0  0  0  0  0  0  0  0  0  0  0  0
   92.5310  100.3550  -43.9180 C   0  0  0  0  0  0  0  0  0  0  0  0
   92.8010   98.9570  -44.3480 C   0  0  0  0  0  0  0  0  0  0  0  0
   91.5520   98.2220  -44.6060 N   0  0  0  0  0  0  0  0  0  0  0  0
   90.3600   99.0430  -44.6060 C   0  0  0  0  0  0  0  0  0  0  0  0
   90.3060   99.7230  -43.2510 C   0  0  0  0  0  0  0  0  0  0  0  0
   91.5640   96.8270  -44.8330 C   0  0  0  0  0  0  0  0  0  0  0  0
   91.7860   95.9780  -43.7550 C   0  0  0  0  0  0  0  0  0  0  0  0
   91.7960   94.6040  -43.9900 C   0  0  0  0  0  0  0  0  0  0  0  0
   91.6000   94.1040  -45.2030 N   0  0  0  0  0  0  0  0  0  0  0  0
   91.6670   92.7670  -45.1050 C   0  0  0  0  0  0  0  0  0  0  0  0
   91.9070   92.4690  -43.8130 N   0  0  0  0  0  0  0  0  0  0  0  0
   91.9870   93.5940  -43.1240 N   0  0  0  0  0  0  0  0  0  0  0  0
   91.5070   91.7800  -46.2210 C   0  0  0  0  0  0  0  0  0  0  0  0
   91.3910   94.8890  -46.2230 N   0  0  0  0  0  0  0  0  0  0  0  0
   91.3710   96.2370  -46.0490 C   0  0  0  0  0  0  0  0  0  0  0  0
   93.2690  101.6420  -41.0520 C   0  0  0  0  0  0  0  0  0  0  0  0
   93.9450  102.2860  -42.0790 C   0  0  0  0  0  0  0  0  0  0  0  0
   95.0220  103.1080  -41.8330 C   0  0  0  0  0  0  0  0  0  0  0  0
   95.4340  103.2910  -40.5220 C   0  0  0  0  0  0  0  0  0  0  0  0
   94.7930  102.6720  -39.4660 C   0  0  0  0  0  0  0  0  0  0  0  0
   93.7220  101.8590  -39.7560 C   0  0  0  0  0  0  0  0  0  0  0  0
   96.9340  104.4370  -40.1970 B   0  0  0  0  0  0  0  0  0  0  0  0
   92.3180  100.9800  -44.8340 H   0  0  0  0  0  0  0  0  0  0  0  0
   93.4510  100.7930  -43.4850 H   0  0  0  0  0  0  0  0  0  0  0  0
   93.3450   98.9790  -45.3180 H   0  0  0  0  0  0  0  0  0  0  0  0
   93.4420   98.4160  -43.6310 H   0  0  0  0  0  0  0  0  0  0  0  0
   89.4260   98.5030  -44.7410 H   0  0  0  0  0  0  0  0  0  0  0  0
   90.4850   99.8730  -45.3620 H   0  0  0  0  0  0  0  0  0  0  0  0
   89.3800  100.3190  -43.1230 H   0  0  0  0  0  0  0  0  0  0  0  0
   90.2800   98.9190  -42.4870 H   0  0  0  0  0  0  0  0  0  0  0  0
   91.9510   96.3320  -42.7490 H   0  0  0  0  0  0  0  0  0  0  0  0
   91.6870   92.2840  -47.2010 H   0  0  0  0  0  0  0  0  0  0  0  0
   92.2510   90.9890  -46.1210 H   0  0  0  0  0  0  0  0  0  0  0  0
   90.4880   91.3450  -46.2270 H   0  0  0  0  0  0  0  0  0  0  0  0
   91.1970   96.8260  -46.9120 H   0  0  0  0  0  0  0  0  0  0  0  0
   93.5870  102.1140  -43.0940 H   0  0  0  0  0  0  0  0  0  0  0  0
   95.4990  103.5760  -42.6750 H   0  0  0  0  0  0  0  0  0  0  0  0
   95.1640  102.8560  -38.4670 H   0  0  0  0  0  0  0  0  0  0  0  0
   93.2230  101.3770  -38.9460 H   0  0  0  0  0  0  0  0  0  0  0  0
  1 20  1  0  0  0  0
  1  2  2  0  0  0  0
  1  3  2  0  0  0  0
  4  1  1  0  0  0  0
  5 28  1  0  0  0  0
  5  4  1  0  0  0  0
  6  5  1  0  0  0  0
  6 30  1  0  0  0  0
  7  6  1  0  0  0  0
  8  7  1  0  0  0  0
  8  9  1  0  0  0  0
  9 33  1  0  0  0  0
  9  4  1  0  0  0  0
  9 34  1  0  0  0  0
 10  7  1  0  0  0  0
 10 11  2  0  0  0  0
 11 35  1  0  0  0  0
 12 11  1  0  0  0  0
 12 16  2  0  0  0  0
 13 14  1  0  0  0  0
 13 12  1  0  0  0  0
 14 15  2  0  0  0  0
 15 16  1  0  0  0  0
 17 37  1  0  0  0  0
 17 14  1  0  0  0  0
 18 19  2  0  0  0  0
 18 13  1  0  0  0  0
 19 10  1  0  0  0  0
 20 25  1  0  0  0  0
 21 22  1  0  0  0  0
 21 20  2  0  0  0  0
 22 23  2  0  0  0  0
 23 26  1  0  0  0  0
 23 24  1  0  0  0  0
 24 42  1  0  0  0  0
 25 24  2  0  0  0  0
 25 43  1  0  0  0  0
 27  5  1  0  0  0  0
 29  6  1  0  0  0  0
 31  8  1  0  0  0  0
 32  8  1  0  0  0  0
 36 17  1  0  0  0  0
 38 17  1  0  0  0  0
 39 19  1  0  0  0  0
 40 21  1  0  0  0  0
 41 22  1  0  0  0  0
M  END
>  <Pose>
1

>  <Score>
-5.40

$$$$
