
 OpenBabel03212208273D

 57 60  0  0  1  0  0  0  0  0999 V2000
   92.4960   99.6070  -44.9700 S   0  0  0  0  0  0  0  0  0  0  0  0
   93.7930   98.8820  -45.1390 O   0  0  0  0  0  0  0  0  0  0  0  0
   92.7230  100.6270  -43.8610 O   0  0  0  0  0  0  0  0  0  0  0  0
   91.1780   98.6000  -44.5990 N   0  0  0  0  0  0  0  0  0  0  0  0
   90.0270   99.3890  -44.3120 C   0  0  0  0  0  0  0  0  0  0  0  0
   89.4350   99.1670  -42.9380 C   0  0  0  0  0  0  0  0  0  0  0  0
   90.4860   99.1420  -41.9180 N   0  0  0  0  0  0  0  0  0  0  0  0
   91.6100   98.3080  -42.2830 C   0  0  0  0  0  0  0  0  0  0  0  0
   92.6110   98.1950  -41.5720 O   0  0  0  0  0  0  0  0  0  0  0  0
   91.4030   97.6210  -43.6010 C   0  0  2  0  0  0  0  0  0  0  0  0
   92.4180   96.5820  -43.8730 C   0  0  0  0  0  0  0  0  0  0  0  0
   91.8710   95.2500  -43.5190 C   0  0  0  0  0  0  0  0  0  0  0  0
   91.4330   95.1140  -42.3450 O   0  0  0  0  0  0  0  0  0  0  0  0
   91.8410   94.1720  -44.4550 N   0  0  0  0  0  0  0  0  0  0  0  0
   92.3830   92.8840  -44.1180 C   0  0  0  0  0  0  0  0  0  0  0  0
   91.7130   91.7370  -44.8070 C   0  0  0  0  0  0  0  0  0  0  0  0
   91.1990   92.0600  -46.1270 N   0  0  0  0  0  0  0  0  0  0  0  0
   90.3590   93.2480  -46.1700 C   0  0  0  0  0  0  0  0  0  0  0  0
   91.2570   94.3930  -45.7520 C   0  0  0  0  0  0  0  0  0  0  0  0
   91.4380   91.3250  -47.2950 C   0  0  0  0  0  0  0  0  0  0  0  0
   92.3490   90.2920  -47.2710 C   0  0  0  0  0  0  0  0  0  0  0  0
   92.5940   89.5760  -48.4320 C   0  0  0  0  0  0  0  0  0  0  0  0
   91.9650   89.8510  -49.6210 C   0  0  0  0  0  0  0  0  0  0  0  0
   91.0550   90.8830  -49.6400 C   0  0  0  0  0  0  0  0  0  0  0  0
   90.8050   91.6040  -48.4820 C   0  0  0  0  0  0  0  0  0  0  0  0
   92.2040  100.5490  -46.4210 C   0  0  0  0  0  0  0  0  0  0  0  0
   91.2560  100.1830  -47.3700 C   0  0  0  0  0  0  0  0  0  0  0  0
   91.0150  100.8990  -48.5090 C   0  0  0  0  0  0  0  0  0  0  0  0
   91.7220  102.0440  -48.7640 C   0  0  0  0  0  0  0  0  0  0  0  0
   92.6850  102.4450  -47.8300 C   0  0  0  0  0  0  0  0  0  0  0  0
   92.9030  101.7010  -46.6960 C   0  0  0  0  0  0  0  0  0  0  0  0
   91.4300  103.0840  -50.3300 B   0  0  0  0  0  0  0  0  0  0  0  0
   89.2140   99.1340  -45.0410 H   0  0  0  0  0  0  0  0  0  0  0  0
   90.1780  100.4830  -44.4090 H   0  0  0  0  0  0  0  0  0  0  0  0
   88.8300   98.2480  -42.9360 H   0  0  0  0  0  0  0  0  0  0  0  0
   88.7680  100.0140  -42.7040 H   0  0  0  0  0  0  0  0  0  0  0  0
   90.4630   99.6460  -41.0320 H   0  0  0  0  0  0  0  0  0  0  0  0
   90.4200   97.0800  -43.4640 H   0  0  0  0  0  0  0  0  0  0  0  0
   93.3080   96.8360  -43.2220 H   0  0  0  0  0  0  0  0  0  0  0  0
   92.8370   96.5770  -44.8970 H   0  0  0  0  0  0  0  0  0  0  0  0
   93.4830   92.8240  -44.3200 H   0  0  0  0  0  0  0  0  0  0  0  0
   92.3060   92.6740  -43.0150 H   0  0  0  0  0  0  0  0  0  0  0  0
   92.4390   90.9210  -44.9000 H   0  0  0  0  0  0  0  0  0  0  0  0
   90.8520   91.3440  -44.2130 H   0  0  0  0  0  0  0  0  0  0  0  0
   89.5880   93.1640  -45.3670 H   0  0  0  0  0  0  0  0  0  0  0  0
   89.9190   93.4790  -47.1260 H   0  0  0  0  0  0  0  0  0  0  0  0
   92.0950   94.5380  -46.4650 H   0  0  0  0  0  0  0  0  0  0  0  0
   90.6910   95.3440  -45.7460 H   0  0  0  0  0  0  0  0  0  0  0  0
   92.9010   89.9890  -46.3750 H   0  0  0  0  0  0  0  0  0  0  0  0
   93.3100   88.7600  -48.4230 H   0  0  0  0  0  0  0  0  0  0  0  0
   92.1670   89.2780  -50.5300 H   0  0  0  0  0  0  0  0  0  0  0  0
   90.5420   91.1200  -50.5700 H   0  0  0  0  0  0  0  0  0  0  0  0
   90.0790   92.3980  -48.5960 H   0  0  0  0  0  0  0  0  0  0  0  0
   90.6760   99.2940  -47.2110 H   0  0  0  0  0  0  0  0  0  0  0  0
   90.2650  100.6000  -49.2510 H   0  0  0  0  0  0  0  0  0  0  0  0
   93.2210  103.3510  -48.0660 H   0  0  0  0  0  0  0  0  0  0  0  0
   93.6480  102.0330  -45.9970 H   0  0  0  0  0  0  0  0  0  0  0  0
  1  4  1  0  0  0  0
  1  3  2  0  0  0  0
  2  1  2  0  0  0  0
  4  5  1  0  0  0  0
  4 10  1  0  0  0  0
  5  6  1  0  0  0  0
  6 35  1  0  0  0  0
  6 36  1  0  0  0  0
  6  7  1  0  0  0  0
  7 37  1  0  0  0  0
  8  7  1  0  0  0  0
  8  9  2  0  0  0  0
 10 38  1  1  0  0  0
 10  8  1  0  0  0  0
 11 10  1  0  0  0  0
 11 12  1  0  0  0  0
 11 39  1  0  0  0  0
 12 13  2  0  0  0  0
 14 15  1  0  0  0  0
 14 12  1  0  0  0  0
 15 42  1  0  0  0  0
 16 44  1  0  0  0  0
 16 15  1  0  0  0  0
 17 16  1  0  0  0  0
 18 17  1  0  0  0  0
 18 19  1  0  0  0  0
 18 45  1  0  0  0  0
 19 48  1  0  0  0  0
 19 14  1  0  0  0  0
 20 21  1  0  0  0  0
 20 17  1  0  0  0  0
 21 49  1  0  0  0  0
 22 50  1  0  0  0  0
 22 21  2  0  0  0  0
 23 22  1  0  0  0  0
 24 23  2  0  0  0  0
 24 25  1  0  0  0  0
 25 20  2  0  0  0  0
 26  1  1  0  0  0  0
 27 54  1  0  0  0  0
 27 26  2  0  0  0  0
 28 27  1  0  0  0  0
 29 28  2  0  0  0  0
 29 30  1  0  0  0  0
 30 31  2  0  0  0  0
 31 26  1  0  0  0  0
 31 57  1  0  0  0  0
 32 29  1  0  0  0  0
 33  5  1  0  0  0  0
 34  5  1  0  0  0  0
 40 11  1  0  0  0  0
 41 15  1  0  0  0  0
 43 16  1  0  0  0  0
 46 18  1  0  0  0  0
 47 19  1  0  0  0  0
 51 23  1  0  0  0  0
 52 24  1  0  0  0  0
 53 25  1  0  0  0  0
 55 28  1  0  0  0  0
 56 30  1  0  0  0  0
M  END
>  <Pose>
1

>  <Score>
-5.31

$$$$
