
 OpenBabel03212208273D

 51 54  0  0  0  0  0  0  0  0999 V2000
   91.8990   91.2660  -46.9080 S   0  0  0  0  0  0  0  0  0  0  0  0
   93.1780   90.5440  -46.6530 O   0  0  0  0  0  0  0  0  0  0  0  0
   90.7740   90.3500  -46.4700 O   0  0  0  0  0  0  0  0  0  0  0  0
   91.6770   91.5910  -48.5700 N   0  0  0  0  0  0  0  0  0  0  0  0
   90.4080   92.2020  -48.8640 C   0  0  0  0  0  0  0  0  0  0  0  0
   90.1560   91.9860  -50.3600 C   0  0  0  0  0  0  0  0  0  0  0  0
   89.8070   90.6760  -50.6060 O   0  0  0  0  0  0  0  0  0  0  0  0
   90.3360   89.8630  -49.5880 C   0  0  0  0  0  0  0  0  0  0  0  0
   91.7520   90.3560  -49.3280 C   0  0  0  0  0  0  0  0  0  0  0  0
   91.7680   92.7130  -45.9200 C   0  0  0  0  0  0  0  0  0  0  0  0
   90.9930   93.7800  -46.2720 C   0  0  0  0  0  0  0  0  0  0  0  0
   90.9080   94.9140  -45.4700 C   0  0  0  0  0  0  0  0  0  0  0  0
   91.5960   95.0060  -44.2970 C   0  0  0  0  0  0  0  0  0  0  0  0
   92.3840   93.9290  -43.9320 C   0  0  0  0  0  0  0  0  0  0  0  0
   92.4680   92.8030  -44.7310 C   0  0  0  0  0  0  0  0  0  0  0  0
   91.5580   96.1740  -43.3840 C   0  0  0  0  0  0  0  0  0  0  0  0
   91.4160   97.3920  -44.0810 O   0  0  0  0  0  0  0  0  0  0  0  0
   90.4700   98.3500  -43.8120 C   0  0  0  0  0  0  0  0  0  0  0  0
   89.5870   98.5890  -44.6590 O   0  0  0  0  0  0  0  0  0  0  0  0
   90.4850   99.0890  -42.5520 C   0  0  0  0  0  0  0  0  0  0  0  0
   91.5670  100.0220  -42.4440 N   0  0  0  0  0  0  0  0  0  0  0  0
   92.2500  100.2900  -41.2120 C   0  0  0  0  0  0  0  0  0  0  0  0
   91.9960   99.7540  -40.0950 O   0  0  0  0  0  0  0  0  0  0  0  0
   93.2910  101.2820  -41.4500 C   0  0  0  0  0  0  0  0  0  0  0  0
   93.2700  101.6310  -42.7750 C   0  0  0  0  0  0  0  0  0  0  0  0
   94.1630  102.5620  -43.2700 C   0  0  0  0  0  0  0  0  0  0  0  0
   95.0940  103.1630  -42.4440 C   0  0  0  0  0  0  0  0  0  0  0  0
   95.1260  102.8220  -41.1080 C   0  0  0  0  0  0  0  0  0  0  0  0
   94.2240  101.8890  -40.6400 C   0  0  0  0  0  0  0  0  0  0  0  0
   96.3920  103.6230  -39.9300 B   0  0  0  0  0  0  0  0  0  0  0  0
   92.1950  100.8490  -43.4100 C   0  0  0  0  0  0  0  0  0  0  0  0
   91.8620  100.8850  -44.6150 O   0  0  0  0  0  0  0  0  0  0  0  0
   90.5260   93.2950  -48.7100 H   0  0  0  0  0  0  0  0  0  0  0  0
   89.5800   91.8510  -48.2500 H   0  0  0  0  0  0  0  0  0  0  0  0
   91.0950   92.2860  -50.8870 H   0  0  0  0  0  0  0  0  0  0  0  0
   89.3630   92.6500  -50.7420 H   0  0  0  0  0  0  0  0  0  0  0  0
   89.7110   89.8640  -48.6930 H   0  0  0  0  0  0  0  0  0  0  0  0
   90.3320   88.8320  -49.9920 H   0  0  0  0  0  0  0  0  0  0  0  0
   92.3460   89.6440  -48.7370 H   0  0  0  0  0  0  0  0  0  0  0  0
   92.2100   90.5030  -50.3310 H   0  0  0  0  0  0  0  0  0  0  0  0
   90.4380   93.7220  -47.2060 H   0  0  0  0  0  0  0  0  0  0  0  0
   90.2870   95.7360  -45.7850 H   0  0  0  0  0  0  0  0  0  0  0  0
   92.9380   93.9810  -43.0060 H   0  0  0  0  0  0  0  0  0  0  0  0
   93.0970   91.9690  -44.4190 H   0  0  0  0  0  0  0  0  0  0  0  0
   90.7070   96.0930  -42.6760 H   0  0  0  0  0  0  0  0  0  0  0  0
   92.5110   96.1740  -42.7920 H   0  0  0  0  0  0  0  0  0  0  0  0
   89.5170   99.6490  -42.3910 H   0  0  0  0  0  0  0  0  0  0  0  0
   90.5570   98.4070  -41.6540 H   0  0  0  0  0  0  0  0  0  0  0  0
   94.1220  102.8170  -44.3240 H   0  0  0  0  0  0  0  0  0  0  0  0
   95.8010  103.9050  -42.8490 H   0  0  0  0  0  0  0  0  0  0  0  0
   94.2220  101.5980  -39.5900 H   0  0  0  0  0  0  0  0  0  0  0  0
  1  2  2  0  0  0  0
  1  3  2  0  0  0  0
  1 10  1  0  0  0  0
  4  1  1  0  0  0  0
  5 33  1  0  0  0  0
  5  4  1  0  0  0  0
  5 34  1  0  0  0  0
  6  5  1  0  0  0  0
  7  6  1  0  0  0  0
  7  8  1  0  0  0  0
  8  9  1  0  0  0  0
  8 37  1  0  0  0  0
  9 39  1  0  0  0  0
  9  4  1  0  0  0  0
 10 15  1  0  0  0  0
 11 10  2  0  0  0  0
 11 12  1  0  0  0  0
 12 13  2  0  0  0  0
 13 14  1  0  0  0  0
 13 16  1  0  0  0  0
 14 43  1  0  0  0  0
 15 44  1  0  0  0  0
 15 14  2  0  0  0  0
 16 46  1  0  0  0  0
 16 45  1  0  0  0  0
 17 18  1  0  0  0  0
 17 16  1  0  0  0  0
 18 20  1  0  0  0  0
 19 18  2  0  0  0  0
 20 21  1  0  0  0  0
 20 47  1  0  0  0  0
 20 48  1  0  0  0  0
 21 22  1  0  0  0  0
 22 23  2  0  0  0  0
 24 22  1  0  0  0  0
 24 29  1  0  0  0  0
 25 24  2  0  0  0  0
 26 25  1  0  0  0  0
 26 27  2  0  0  0  0
 27 28  1  0  0  0  0
 28 29  2  0  0  0  0
 28 30  1  0  0  0  0
 29 51  1  0  0  0  0
 31 25  1  0  0  0  0
 31 21  1  0  0  0  0
 32 31  2  0  0  0  0
 35  6  1  0  0  0  0
 36  6  1  0  0  0  0
 38  8  1  0  0  0  0
 40  9  1  0  0  0  0
 41 11  1  0  0  0  0
 42 12  1  0  0  0  0
 49 26  1  0  0  0  0
 50 27  1  0  0  0  0
M  END
>  <Pose>
1

>  <Score>
-5.36

$$$$
