
 OpenBabel03212208273D

 43 46  0  0  0  0  0  0  0  0999 V2000
   89.8750   86.6520  -49.0970 S   0  0  0  0  0  0  0  0  0  0  0  0
   91.0780   85.8350  -49.4860 O   0  0  0  0  0  0  0  0  0  0  0  0
   89.7100   86.5290  -47.6170 O   0  0  0  0  0  0  0  0  0  0  0  0
   88.5130   86.0450  -49.9340 N   0  0  0  0  0  0  0  0  0  0  0  0
   88.6390   86.0470  -51.3430 C   0  0  0  0  0  0  0  0  0  0  0  0
   87.4030   86.3430  -52.1270 C   0  0  0  0  0  0  0  0  0  0  0  0
   86.3160   85.7790  -51.4210 O   0  0  0  0  0  0  0  0  0  0  0  0
   86.1390   86.6280  -50.3240 C   0  0  0  0  0  0  0  0  0  0  0  0
   87.2680   86.4310  -49.3770 C   0  0  0  0  0  0  0  0  0  0  0  0
   90.2110   88.3260  -49.5580 C   0  0  0  0  0  0  0  0  0  0  0  0
   90.3730   88.8130  -50.8000 N   0  0  0  0  0  0  0  0  0  0  0  0
   90.6140   90.1340  -50.7140 C   0  0  0  0  0  0  0  0  0  0  0  0
   90.6130   90.5270  -49.4310 N   0  0  0  0  0  0  0  0  0  0  0  0
   90.3650   89.4160  -48.7180 C   0  0  0  0  0  0  0  0  0  0  0  0
   90.8350   91.8690  -48.9340 C   0  0  0  0  0  0  0  0  0  0  0  0
   91.1900   91.8940  -47.4960 C   0  0  0  0  0  0  0  0  0  0  0  0
   91.5500   90.8140  -46.7770 N   0  0  0  0  0  0  0  0  0  0  0  0
   91.7910   91.1910  -45.5580 O   0  0  0  0  0  0  0  0  0  0  0  0
   91.6100   92.4760  -45.4220 C   0  0  0  0  0  0  0  0  0  0  0  0
   91.2340   92.9190  -46.6320 N   0  0  0  0  0  0  0  0  0  0  0  0
   91.7940   93.2320  -44.1820 C   0  0  0  0  0  0  0  0  0  0  0  0
   91.5230   94.5820  -44.1020 C   0  0  0  0  0  0  0  0  0  0  0  0
   91.7030   95.2880  -42.9150 C   0  0  0  0  0  0  0  0  0  0  0  0
   92.1580   94.6600  -41.7780 C   0  0  0  0  0  0  0  0  0  0  0  0
   92.4290   93.3110  -41.8540 C   0  0  0  0  0  0  0  0  0  0  0  0
   92.2490   92.6050  -43.0460 C   0  0  0  0  0  0  0  0  0  0  0  0
   91.3220   97.1600  -42.8260 B   0  0  0  0  0  0  0  0  0  0  0  0
   89.4790   86.7150  -51.6660 H   0  0  0  0  0  0  0  0  0  0  0  0
   88.9620   85.0060  -51.6480 H   0  0  0  0  0  0  0  0  0  0  0  0
   87.4280   85.7940  -53.0970 H   0  0  0  0  0  0  0  0  0  0  0  0
   87.2110   87.4080  -52.3120 H   0  0  0  0  0  0  0  0  0  0  0  0
   86.0750   87.6530  -50.7380 H   0  0  0  0  0  0  0  0  0  0  0  0
   85.1880   86.4380  -49.7980 H   0  0  0  0  0  0  0  0  0  0  0  0
   86.9560   85.6300  -48.6500 H   0  0  0  0  0  0  0  0  0  0  0  0
   87.4220   87.3360  -48.7340 H   0  0  0  0  0  0  0  0  0  0  0  0
   90.7860   90.8050  -51.5470 H   0  0  0  0  0  0  0  0  0  0  0  0
   90.2970   89.3740  -47.6430 H   0  0  0  0  0  0  0  0  0  0  0  0
   89.9080   92.4440  -49.0870 H   0  0  0  0  0  0  0  0  0  0  0  0
   91.6450   92.3980  -49.4760 H   0  0  0  0  0  0  0  0  0  0  0  0
   91.1660   95.0800  -44.9920 H   0  0  0  0  0  0  0  0  0  0  0  0
   92.2950   95.2240  -40.8540 H   0  0  0  0  0  0  0  0  0  0  0  0
   92.7880   92.7800  -40.9840 H   0  0  0  0  0  0  0  0  0  0  0  0
   92.4560   91.5450  -43.1280 H   0  0  0  0  0  0  0  0  0  0  0  0
  1  3  2  0  0  0  0
  2  1  2  0  0  0  0
  4  9  1  0  0  0  0
  4  1  1  0  0  0  0
  5  4  1  0  0  0  0
  6  7  1  0  0  0  0
  6  5  1  0  0  0  0
  7  8  1  0  0  0  0
  8 33  1  0  0  0  0
  8  9  1  0  0  0  0
  9 35  1  0  0  0  0
  9 34  1  0  0  0  0
 10  1  1  0  0  0  0
 10 14  2  0  0  0  0
 11 12  2  0  0  0  0
 11 10  1  0  0  0  0
 12 13  1  0  0  0  0
 13 15  1  0  0  0  0
 13 14  1  0  0  0  0
 14 37  1  0  0  0  0
 15 16  1  0  0  0  0
 16 17  2  0  0  0  0
 16 20  1  0  0  0  0
 17 18  1  0  0  0  0
 18 19  1  0  0  0  0
 19 21  1  0  0  0  0
 20 19  2  0  0  0  0
 21 22  2  0  0  0  0
 21 26  1  0  0  0  0
 22 23  1  0  0  0  0
 23 27  1  0  0  0  0
 23 24  2  0  0  0  0
 24 41  1  0  0  0  0
 25 24  1  0  0  0  0
 25 42  1  0  0  0  0
 26 25  2  0  0  0  0
 28  5  1  0  0  0  0
 29  5  1  0  0  0  0
 30  6  1  0  0  0  0
 31  6  1  0  0  0  0
 32  8  1  0  0  0  0
 36 12  1  0  0  0  0
 38 15  1  0  0  0  0
 39 15  1  0  0  0  0
 40 22  1  0  0  0  0
 43 26  1  0  0  0  0
M  END
>  <Pose>
1

>  <Score>
-5.69

$$$$
