
 OpenBabel03212208273D

 37 40  0  0  0  0  0  0  0  0999 V2000
   91.2050   90.8150  -48.0300 S   0  0  0  0  0  0  0  0  0  0  0  0
   92.7220   89.8240  -47.9710 C   0  0  0  0  0  0  0  0  0  0  0  0
   92.4200   88.4670  -48.5140 C   0  0  0  0  0  0  0  0  0  0  0  0
   93.3370   87.7540  -49.0330 O   0  0  0  0  0  0  0  0  0  0  0  0
   91.1180   87.9280  -48.4740 N   0  0  0  0  0  0  0  0  0  0  0  0
   90.5550   87.2680  -49.5930 C   0  0  0  0  0  0  0  0  0  0  0  0
   90.9710   86.1350  -50.1830 N   0  0  0  0  0  0  0  0  0  0  0  0
   90.1980   85.8360  -51.1900 O   0  0  0  0  0  0  0  0  0  0  0  0
   89.2900   86.7480  -51.2690 N   0  0  0  0  0  0  0  0  0  0  0  0
   89.4390   87.6760  -50.3150 C   0  0  0  0  0  0  0  0  0  0  0  0
   88.6240   88.8110  -50.1120 N   0  0  0  0  0  0  0  0  0  0  0  0
   91.3300   92.1050  -46.7740 C   0  0  0  0  0  0  0  0  0  0  0  0
   91.2510   93.4060  -47.1020 N   0  0  0  0  0  0  0  0  0  0  0  0
   91.3370   94.3920  -46.2240 N   0  0  0  0  0  0  0  0  0  0  0  0
   91.5130   94.1380  -44.9100 C   0  0  0  0  0  0  0  0  0  0  0  0
   91.5960   92.8090  -44.5490 C   0  0  0  0  0  0  0  0  0  0  0  0
   91.7690   92.8050  -43.2120 N   0  0  0  0  0  0  0  0  0  0  0  0
   91.7980   94.0550  -42.7230 C   0  0  0  0  0  0  0  0  0  0  0  0
   91.6360   94.9270  -43.7790 C   0  0  0  0  0  0  0  0  0  0  0  0
   91.6190   96.3040  -43.6170 C   0  0  0  0  0  0  0  0  0  0  0  0
   91.7730   96.7850  -42.3290 C   0  0  0  0  0  0  0  0  0  0  0  0
   91.9350   95.9340  -41.2540 C   0  0  0  0  0  0  0  0  0  0  0  0
   91.9490   94.5720  -41.4370 C   0  0  0  0  0  0  0  0  0  0  0  0
   91.7490   98.6850  -42.1060 B   0  0  0  0  0  0  0  0  0  0  0  0
   91.9030   91.5880  -42.4360 C   0  0  0  0  0  0  0  0  0  0  0  0
   91.5050   91.8080  -45.4750 N   0  0  0  0  0  0  0  0  0  0  0  0
   93.5590   90.3100  -48.4890 H   0  0  0  0  0  0  0  0  0  0  0  0
   92.9400   89.6590  -46.8760 H   0  0  0  0  0  0  0  0  0  0  0  0
   90.5680   88.0240  -47.5940 H   0  0  0  0  0  0  0  0  0  0  0  0
   89.0120   89.6330  -49.6120 H   0  0  0  0  0  0  0  0  0  0  0  0
   87.6400   88.8620  -50.4450 H   0  0  0  0  0  0  0  0  0  0  0  0
   91.4910   96.9670  -44.4710 H   0  0  0  0  0  0  0  0  0  0  0  0
   92.0540   96.3320  -40.2460 H   0  0  0  0  0  0  0  0  0  0  0  0
   92.0750   93.8750  -40.6160 H   0  0  0  0  0  0  0  0  0  0  0  0
   91.2500   90.8030  -42.8330 H   0  0  0  0  0  0  0  0  0  0  0  0
   92.9650   91.2770  -42.3490 H   0  0  0  0  0  0  0  0  0  0  0  0
   91.5580   91.8150  -41.4020 H   0  0  0  0  0  0  0  0  0  0  0  0
  1  2  1  0  0  0  0
  1 12  1  0  0  0  0
  2 28  1  0  0  0  0
  3  5  1  0  0  0  0
  3  2  1  0  0  0  0
  4  3  2  0  0  0  0
  5 29  1  0  0  0  0
  6  5  1  0  0  0  0
  7  6  2  0  0  0  0
  8  7  1  0  0  0  0
  9  8  1  0  0  0  0
  9 10  2  0  0  0  0
 10 11  1  0  0  0  0
 10  6  1  0  0  0  0
 11 30  1  0  0  0  0
 12 26  1  0  0  0  0
 13 12  2  0  0  0  0
 13 14  1  0  0  0  0
 14 15  1  0  0  0  0
 15 16  2  0  0  0  0
 15 19  1  0  0  0  0
 16 17  1  0  0  0  0
 17 18  1  0  0  0  0
 17 25  1  0  0  0  0
 18 23  1  0  0  0  0
 19 20  1  0  0  0  0
 19 18  2  0  0  0  0
 20 21  2  0  0  0  0
 21 24  1  0  0  0  0
 21 22  1  0  0  0  0
 22 33  1  0  0  0  0
 23 22  2  0  0  0  0
 23 34  1  0  0  0  0
 25 36  1  0  0  0  0
 25 37  1  0  0  0  0
 26 16  1  0  0  0  0
 27  2  1  0  0  0  0
 31 11  1  0  0  0  0
 32 20  1  0  0  0  0
 35 25  1  0  0  0  0
M  END
>  <Pose>
1

>  <Score>
-8.12

$$$$
