
 OpenBabel03212208273D

 47 50  0  0  1  0  0  0  0  0999 V2000
   91.7520   99.5250  -42.2100 S   0  0  0  0  0  0  0  0  0  0  0  0
   90.1130  100.1820  -41.6740 C   0  0  0  0  0  0  0  0  0  0  0  0
   90.0130  101.6150  -42.0330 C   0  0  0  0  0  0  0  0  0  0  0  0
   90.6610  102.6270  -41.3680 C   0  0  0  0  0  0  0  0  0  0  0  0
   90.4360  103.9320  -41.6420 C   0  0  0  0  0  0  0  0  0  0  0  0
   89.5350  104.3240  -42.6250 C   0  0  0  0  0  0  0  0  0  0  0  0
   88.8540  103.3160  -43.3220 C   0  0  0  0  0  0  0  0  0  0  0  0
   89.0900  101.9870  -43.0300 C   0  0  0  0  0  0  0  0  0  0  0  0
   92.0040  102.0770  -40.1230 B   0  0  0  0  0  0  0  0  0  0  0  0
   91.6280   97.7740  -42.5990 C   0  0  0  0  0  0  0  0  0  0  0  0
   91.4810   97.2490  -43.8150 N   0  0  0  0  0  0  0  0  0  0  0  0
   91.5220   95.8980  -43.6660 C   0  0  0  0  0  0  0  0  0  0  0  0
   91.5090   94.8150  -44.4580 N   0  0  0  0  0  0  0  0  0  0  0  0
   91.6350   93.5460  -44.0530 C   0  0  0  0  0  0  0  0  0  0  0  0
   91.7830   93.3150  -42.6920 N   0  0  0  0  0  0  0  0  0  0  0  0
   91.8090   94.3120  -41.8430 C   0  0  0  0  0  0  0  0  0  0  0  0
   91.6860   95.6140  -42.2820 C   0  0  0  0  0  0  0  0  0  0  0  0
   91.7470   96.7990  -41.6860 N   0  0  0  0  0  0  0  0  0  0  0  0
   91.9430   94.1380  -40.4880 O   0  0  0  0  0  0  0  0  0  0  0  0
   91.6670   92.4030  -44.9210 N   0  0  0  0  0  0  0  0  0  0  0  0
   91.2700   97.8740  -45.0810 C   0  0  2  0  0  0  0  0  0  0  0  0
   92.3460   98.6830  -45.5090 O   0  0  0  0  0  0  0  0  0  0  0  0
   91.7450   99.2650  -46.6490 C   0  0  1  0  0  0  0  0  0  0  0  0
   90.5440   99.9330  -45.9310 C   0  0  2  0  0  0  0  0  0  0  0  0
   90.0160   98.6720  -45.2330 C   0  0  1  0  0  0  0  0  0  0  0  0
   89.1180   98.0550  -46.1420 O   0  0  0  0  0  0  0  0  0  0  0  0
   89.6450  100.4780  -46.8070 O   0  0  0  0  0  0  0  0  0  0  0  0
   92.6280  100.2540  -47.3100 C   0  0  0  0  0  0  0  0  0  0  0  0
   93.2090   99.7090  -48.4610 O   0  0  0  0  0  0  0  0  0  0  0  0
   89.9830  100.0000  -40.6420 H   0  0  0  0  0  0  0  0  0  0  0  0
   89.3700   99.5810  -42.3290 H   0  0  0  0  0  0  0  0  0  0  0  0
   90.9690  104.6870  -41.0930 H   0  0  0  0  0  0  0  0  0  0  0  0
   89.3870  105.3650  -42.8560 H   0  0  0  0  0  0  0  0  0  0  0  0
   88.1260  103.5670  -44.0960 H   0  0  0  0  0  0  0  0  0  0  0  0
   88.5420  101.2370  -43.5340 H   0  0  0  0  0  0  0  0  0  0  0  0
   92.8370   94.0580  -40.0170 H   0  0  0  0  0  0  0  0  0  0  0  0
   92.1050   92.3420  -45.8380 H   0  0  0  0  0  0  0  0  0  0  0  0
   91.1400   91.5250  -44.5830 H   0  0  0  0  0  0  0  0  0  0  0  0
   91.2370   97.0730  -45.8720 H   0  0  0  0  0  0  0  0  0  0  0  0
   91.3420   98.4960  -47.3100 H   0  0  0  0  0  0  0  0  0  0  0  0
   90.9040  100.6730  -45.1940 H   0  0  0  0  0  0  0  0  0  0  0  0
   89.4450   98.8860  -44.3600 H   0  0  0  0  0  0  0  0  0  0  0  0
   89.6570   97.3530  -46.5710 H   0  0  0  0  0  0  0  0  0  0  0  0
   90.1180  100.8830  -47.5730 H   0  0  0  0  0  0  0  0  0  0  0  0
   93.5180  100.3930  -46.6170 H   0  0  0  0  0  0  0  0  0  0  0  0
   92.1830  101.2300  -47.4410 H   0  0  0  0  0  0  0  0  0  0  0  0
   93.0720   98.7130  -48.4160 H   0  0  0  0  0  0  0  0  0  0  0  0
  1  2  1  0  0  0  0
  2 30  1  0  0  0  0
  3  2  1  0  0  0  0
  3  4  1  0  0  0  0
  4  9  1  0  0  0  0
  5  4  2  0  0  0  0
  5 32  1  0  0  0  0
  6  5  1  0  0  0  0
  7  8  1  0  0  0  0
  7  6  2  0  0  0  0
  8  3  2  0  0  0  0
 10  1  1  0  0  0  0
 10 18  2  0  0  0  0
 11 12  1  0  0  0  0
 11 10  1  0  0  0  0
 12 17  2  0  0  0  0
 13 14  2  0  0  0  0
 13 12  1  0  0  0  0
 14 15  1  0  0  0  0
 15 16  2  0  0  0  0
 16 19  1  0  0  0  0
 17 16  1  0  0  0  0
 17 18  1  0  0  0  0
 19 36  1  0  0  0  0
 20 38  1  0  0  0  0
 20 14  1  0  0  0  0
 21 39  1  6  0  0  0
 21 11  1  0  0  0  0
 22 21  1  0  0  0  0
 23 40  1  6  0  0  0
 23 24  1  0  0  0  0
 23 22  1  0  0  0  0
 24 25  1  0  0  0  0
 24 41  1  1  0  0  0
 25 21  1  0  0  0  0
 25 42  1  1  0  0  0
 26 25  1  0  0  0  0
 27 24  1  0  0  0  0
 28 23  1  0  0  0  0
 28 45  1  0  0  0  0
 29 47  1  0  0  0  0
 29 28  1  0  0  0  0
 31  2  1  0  0  0  0
 33  6  1  0  0  0  0
 34  7  1  0  0  0  0
 35  8  1  0  0  0  0
 37 20  1  0  0  0  0
 43 26  1  0  0  0  0
 44 27  1  0  0  0  0
 46 28  1  0  0  0  0
M  END
>  <Pose>
1

>  <Score>
-6.48

$$$$
