
 OpenBabel03212208273D

 52 56  0  0  1  0  0  0  0  0999 V2000
   91.2230   96.9910  -45.0450 S   0  0  0  0  0  0  0  0  0  0  0  0
   91.3690   98.7060  -45.5230 C   0  0  0  0  0  0  0  0  0  0  0  0
   92.4860   99.2310  -45.8750 N   0  0  0  0  0  0  0  0  0  0  0  0
   92.6780  100.5800  -46.2660 C   0  0  0  0  0  0  0  0  0  0  0  0
   93.5180  100.9520  -47.0900 O   0  0  0  0  0  0  0  0  0  0  0  0
   91.7280  101.5750  -45.5640 C   0  0  1  0  0  0  0  0  0  0  0  0
   90.4100  100.9640  -45.9140 C   0  0  0  0  0  0  0  0  0  0  0  0
   89.4780  101.5240  -46.4950 O   0  0  0  0  0  0  0  0  0  0  0  0
   90.2370   99.6070  -45.5340 N   0  0  0  0  0  0  0  0  0  0  0  0
   88.9650   99.1510  -45.1750 C   0  0  0  0  0  0  0  0  0  0  0  0
   88.4320   99.6060  -43.9630 C   0  0  0  0  0  0  0  0  0  0  0  0
   87.1840   99.2020  -43.5430 C   0  0  0  0  0  0  0  0  0  0  0  0
   86.4480   98.3280  -44.3370 C   0  0  0  0  0  0  0  0  0  0  0  0
   86.9890   97.8790  -45.5490 C   0  0  0  0  0  0  0  0  0  0  0  0
   88.2360   98.2930  -45.9520 C   0  0  0  0  0  0  0  0  0  0  0  0
   84.7340   97.7500  -43.7990 B   0  0  0  0  0  0  0  0  0  0  0  0
   92.0930  101.5060  -44.1550 C   0  0  1  0  0  0  0  0  0  0  0  0
   93.5060  101.7650  -43.9160 N   0  0  0  0  0  4  0  0  0  0  0  0
   93.9210  101.1480  -42.6680 C   0  0  0  0  0  0  0  0  0  0  0  0
   92.7800  100.6940  -41.7950 C   0  0  0  0  0  0  0  0  0  0  0  0
   91.7210  101.7640  -41.8200 C   0  0  0  0  0  0  0  0  0  0  0  0
   91.3700  102.2150  -43.1140 C   0  0  0  0  0  0  0  0  0  0  0  0
   90.4340  103.2040  -43.2480 C   0  0  0  0  0  0  0  0  0  0  0  0
   89.8640  103.7200  -42.0870 C   0  0  0  0  0  0  0  0  0  0  0  0
   90.2200  103.2640  -40.8400 C   0  0  0  0  0  0  0  0  0  0  0  0
   91.1660  102.2670  -40.6880 C   0  0  0  0  0  0  0  0  0  0  0  0
   89.4920  103.9600  -39.8970 O   0  0  0  0  0  0  0  0  0  0  0  0
   88.8790  105.0600  -40.5230 C   0  0  0  0  0  0  0  0  0  0  0  0
   88.9200  104.6940  -41.9020 O   0  0  0  0  0  0  0  0  0  0  0  0
   90.0590  103.6900  -44.4930 O   0  0  0  0  0  0  0  0  0  0  0  0
   90.8580  104.6950  -45.1060 C   0  0  0  0  0  0  0  0  0  0  0  0
   93.8640  103.1410  -43.8800 C   0  0  0  0  0  0  0  0  0  0  0  0
   91.8630  102.4860  -46.1250 H   0  0  0  0  0  0  0  0  0  0  0  0
   88.9870  100.2890  -43.3240 H   0  0  0  0  0  0  0  0  0  0  0  0
   86.7940   99.5650  -42.6070 H   0  0  0  0  0  0  0  0  0  0  0  0
   86.4540   97.2020  -46.1960 H   0  0  0  0  0  0  0  0  0  0  0  0
   88.6500   97.9520  -46.8730 H   0  0  0  0  0  0  0  0  0  0  0  0
   92.0160  100.3950  -43.8760 H   0  0  0  0  0  0  0  0  0  0  0  0
   94.0290  101.2960  -44.6850 H   0  0  0  0  0  0  0  0  0  0  0  0
   94.5450  101.8450  -42.0730 H   0  0  0  0  0  0  0  0  0  0  0  0
   94.5650  100.2450  -42.8480 H   0  0  0  0  0  0  0  0  0  0  0  0
   92.3840   99.7010  -42.0290 H   0  0  0  0  0  0  0  0  0  0  0  0
   93.1690  100.6760  -40.7410 H   0  0  0  0  0  0  0  0  0  0  0  0
   91.4600  101.8940  -39.7060 H   0  0  0  0  0  0  0  0  0  0  0  0
   87.8320  105.1950  -40.1830 H   0  0  0  0  0  0  0  0  0  0  0  0
   89.5050  105.9580  -40.3410 H   0  0  0  0  0  0  0  0  0  0  0  0
   90.3810  105.6850  -44.8790 H   0  0  0  0  0  0  0  0  0  0  0  0
   90.9730  104.5640  -46.1830 H   0  0  0  0  0  0  0  0  0  0  0  0
   91.8500  104.7150  -44.6350 H   0  0  0  0  0  0  0  0  0  0  0  0
   94.8990  103.2070  -43.4830 H   0  0  0  0  0  0  0  0  0  0  0  0
   93.8790  103.6400  -44.8650 H   0  0  0  0  0  0  0  0  0  0  0  0
   93.2370  103.7120  -43.1390 H   0  0  0  0  0  0  0  0  0  0  0  0
  2  1  2  0  0  0  0
  3  2  1  0  0  0  0
  4  3  1  0  0  0  0
  4  6  1  0  0  0  0
  5  4  2  0  0  0  0
  6 33  1  6  0  0  0
  6 17  1  0  0  0  0
  7  6  1  0  0  0  0
  7  9  1  0  0  0  0
  8  7  2  0  0  0  0
  9  2  1  0  0  0  0
  9 10  1  0  0  0  0
 10 11  1  0  0  0  0
 11 12  2  0  0  0  0
 11 34  1  0  0  0  0
 12 35  1  0  0  0  0
 13 16  1  0  0  0  0
 13 12  1  0  0  0  0
 14 13  2  0  0  0  0
 15 14  1  0  0  0  0
 15 10  2  0  0  0  0
 17 18  1  0  0  0  0
 17 38  1  1  0  0  0
 17 22  1  0  0  0  0
 18 32  1  0  0  0  0
 18 19  1  0  0  0  0
 19 40  1  0  0  0  0
 19 20  1  0  0  0  0
 20 43  1  0  0  0  0
 21 20  1  0  0  0  0
 21 26  1  0  0  0  0
 22 21  2  0  0  0  0
 23 22  1  0  0  0  0
 23 24  2  0  0  0  0
 24 29  1  0  0  0  0
 24 25  1  0  0  0  0
 25 26  2  0  0  0  0
 25 27  1  0  0  0  0
 26 44  1  0  0  0  0
 28 46  1  0  0  0  0
 28 45  1  0  0  0  0
 28 27  1  0  0  0  0
 29 28  1  0  0  0  0
 30 23  1  0  0  0  0
 31 47  1  0  0  0  0
 31 49  1  0  0  0  0
 31 30  1  0  0  0  0
 32 50  1  0  0  0  0
 32 52  1  0  0  0  0
 36 14  1  0  0  0  0
 37 15  1  0  0  0  0
 39 18  1  0  0  0  0
 41 19  1  0  0  0  0
 42 20  1  0  0  0  0
 48 31  1  0  0  0  0
 51 32  1  0  0  0  0
M  END
>  <Pose>
1

>  <Score>
-4.23

$$$$
