
 OpenBabel03212208273D

 36 39  0  0  1  0  0  0  0  0999 V2000
   91.2510  100.8740  -41.2590 S   0  0  0  0  0  0  0  0  0  0  0  0
   92.5140   99.7930  -40.8740 C   0  0  0  0  0  0  0  0  0  0  0  0
   93.4640  100.6190  -40.3320 C   0  0  0  0  0  0  0  0  0  0  0  0
   93.1820  101.9220  -40.2550 C   0  0  0  0  0  0  0  0  0  0  0  0
   91.9610  102.3280  -40.7260 C   0  0  0  0  0  0  0  0  0  0  0  0
   94.3960  103.2450  -39.5220 B   0  0  0  0  0  0  0  0  0  0  0  0
   92.5910   98.3270  -41.0660 C   0  0  0  0  0  0  0  0  0  0  0  0
   92.9580   97.6640  -40.0650 O   0  0  0  0  0  0  0  0  0  0  0  0
   92.2680   97.7340  -42.3080 N   0  0  0  0  0  0  0  0  0  0  0  0
   91.3550   98.3670  -43.2480 C   0  0  2  0  0  0  0  0  0  0  0  0
   90.4390   97.3630  -43.9000 C   0  0  0  0  0  0  0  0  0  0  0  0
   91.3530   96.6660  -44.7920 N   0  0  0  0  0  0  0  0  0  0  0  0
   92.1070   97.7060  -45.4520 C   0  0  0  0  0  0  0  0  0  0  0  0
   92.1790   98.8260  -44.4320 C   0  0  0  0  0  0  0  0  0  0  0  0
   91.4420   95.2400  -44.9410 C   0  0  0  0  0  0  0  0  0  0  0  0
   91.2910   94.6560  -46.1440 N   0  0  0  0  0  0  0  0  0  0  0  0
   91.3780   93.3180  -46.2520 C   0  0  0  0  0  0  0  0  0  0  0  0
   91.6190   92.5140  -45.1680 C   0  0  0  0  0  0  0  0  0  0  0  0
   91.7730   93.0810  -43.9600 N   0  0  0  0  0  0  0  0  0  0  0  0
   91.6830   94.4220  -43.8630 C   0  0  0  0  0  0  0  0  0  0  0  0
   91.8770   94.6880  -42.5560 N   0  0  0  0  0  0  0  0  0  0  0  0
   92.0770   93.5770  -41.8700 N   0  0  0  0  0  0  0  0  0  0  0  0
   92.0160   92.5520  -42.7370 C   0  0  0  0  0  0  0  0  0  0  0  0
   94.4200  100.1700  -39.9840 H   0  0  0  0  0  0  0  0  0  0  0  0
   91.5140  103.3320  -40.7650 H   0  0  0  0  0  0  0  0  0  0  0  0
   92.7070   96.8160  -42.5400 H   0  0  0  0  0  0  0  0  0  0  0  0
   90.7640   99.1590  -42.7900 H   0  0  0  0  0  0  0  0  0  0  0  0
   89.9300   96.6990  -43.2020 H   0  0  0  0  0  0  0  0  0  0  0  0
   89.7270   97.9340  -44.5280 H   0  0  0  0  0  0  0  0  0  0  0  0
   93.0950   97.4060  -45.8100 H   0  0  0  0  0  0  0  0  0  0  0  0
   91.4830   98.0670  -46.2950 H   0  0  0  0  0  0  0  0  0  0  0  0
   93.2510   98.9630  -44.1640 H   0  0  0  0  0  0  0  0  0  0  0  0
   91.7380   99.7640  -44.8330 H   0  0  0  0  0  0  0  0  0  0  0  0
   91.2530   92.8570  -47.2350 H   0  0  0  0  0  0  0  0  0  0  0  0
   91.6910   91.4350  -45.2510 H   0  0  0  0  0  0  0  0  0  0  0  0
   92.1320   91.5100  -42.5250 H   0  0  0  0  0  0  0  0  0  0  0  0
  1  2  1  0  0  0  0
  1  5  1  0  0  0  0
  2  3  2  0  0  0  0
  3  4  1  0  0  0  0
  3 24  1  0  0  0  0
  4  6  1  0  0  0  0
  5  4  2  0  0  0  0
  7  2  1  0  0  0  0
  7  8  2  0  0  0  0
  9  7  1  0  0  0  0
 10 27  1  1  0  0  0
 10  9  1  0  0  0  0
 11 10  1  0  0  0  0
 11 28  1  0  0  0  0
 12 11  1  0  0  0  0
 13 12  1  0  0  0  0
 13 14  1  0  0  0  0
 14 32  1  0  0  0  0
 14 10  1  0  0  0  0
 15 12  1  0  0  0  0
 15 20  1  0  0  0  0
 16 15  2  0  0  0  0
 17 16  1  0  0  0  0
 17 18  2  0  0  0  0
 18 19  1  0  0  0  0
 19 20  1  0  0  0  0
 19 23  1  0  0  0  0
 20 21  2  0  0  0  0
 21 22  1  0  0  0  0
 23 36  1  0  0  0  0
 23 22  2  0  0  0  0
 25  5  1  0  0  0  0
 26  9  1  0  0  0  0
 29 11  1  0  0  0  0
 30 13  1  0  0  0  0
 31 13  1  0  0  0  0
 33 14  1  0  0  0  0
 34 17  1  0  0  0  0
 35 18  1  0  0  0  0
M  END
>  <Pose>
1

>  <Score>
-6.35

$$$$
