
 OpenBabel03212208273D

 34 37  0  0  1  0  0  0  0  0999 V2000
   91.6770   99.0980  -42.2780 S   0  0  0  0  0  0  0  0  0  0  0  0
   90.1890   99.2600  -43.0820 C   0  0  0  0  0  0  0  0  0  0  0  0
   90.2630   98.3250  -44.0810 C   0  0  0  0  0  0  0  0  0  0  0  0
   91.3990   97.5950  -44.1470 C   0  0  0  0  0  0  0  0  0  0  0  0
   92.3630   97.8550  -43.2150 C   0  0  0  0  0  0  0  0  0  0  0  0
   91.5990   96.5240  -45.2050 C   0  0  1  0  0  0  0  0  0  0  0  0
   90.6030   95.3650  -45.0650 C   0  0  1  0  0  0  0  0  0  0  0  0
   90.5270   96.3320  -46.1840 C   0  0  0  0  0  0  0  0  0  0  0  0
   91.2250   94.0140  -45.2990 C   0  0  0  0  0  0  0  0  0  0  0  0
   91.0980   93.2290  -46.3840 N   0  0  0  0  0  0  0  0  0  0  0  0
   91.8040   92.0960  -46.2230 C   0  0  0  0  0  0  0  0  0  0  0  0
   92.3680   92.2090  -45.0080 N   0  0  0  0  0  0  0  0  0  0  0  0
   92.0100   93.3570  -44.4780 O   0  0  0  0  0  0  0  0  0  0  0  0
   91.9460   90.9720  -47.1470 C   0  0  0  0  0  0  0  0  0  0  0  0
   90.9510   90.3580  -47.8100 N   0  0  0  0  0  0  0  0  0  0  0  0
   91.4430   89.3720  -48.5660 N   0  0  0  0  0  0  0  0  0  0  0  0
   92.7840   89.3410  -48.3950 C   0  0  0  0  0  0  0  0  0  0  0  0
   93.0680   90.3330  -47.5180 N   0  0  0  0  0  0  0  0  0  0  0  0
   90.6790   88.4830  -49.4260 C   0  0  0  0  0  0  0  0  0  0  0  0
   90.7400   87.1170  -48.8650 C   0  0  0  0  0  0  0  0  0  0  0  0
   91.6600   86.3560  -49.2380 O   0  0  0  0  0  0  0  0  0  0  0  0
   89.7720   86.6930  -47.9260 N   0  0  0  0  0  0  0  0  0  0  0  0
   88.7200  100.4580  -42.7120 B   0  0  0  0  0  0  0  0  0  0  0  0
   89.3950   98.2100  -44.7860 H   0  0  0  0  0  0  0  0  0  0  0  0
   93.3470   97.3490  -43.1300 H   0  0  0  0  0  0  0  0  0  0  0  0
   92.6160   96.2910  -45.5220 H   0  0  0  0  0  0  0  0  0  0  0  0
   89.8700   95.4010  -44.2600 H   0  0  0  0  0  0  0  0  0  0  0  0
   90.7890   95.9050  -47.1870 H   0  0  0  0  0  0  0  0  0  0  0  0
   89.6400   97.0030  -46.1730 H   0  0  0  0  0  0  0  0  0  0  0  0
   93.4560   88.6480  -48.8770 H   0  0  0  0  0  0  0  0  0  0  0  0
   91.0800   88.5530  -50.4550 H   0  0  0  0  0  0  0  0  0  0  0  0
   89.6030   88.7740  -49.4420 H   0  0  0  0  0  0  0  0  0  0  0  0
   88.9510   86.0880  -48.2080 H   0  0  0  0  0  0  0  0  0  0  0  0
   89.7980   86.9400  -46.9070 H   0  0  0  0  0  0  0  0  0  0  0  0
  2 23  1  0  0  0  0
  2  1  1  0  0  0  0
  3  2  2  0  0  0  0
  4  3  1  0  0  0  0
  4  5  2  0  0  0  0
  5 25  1  0  0  0  0
  5  1  1  0  0  0  0
  6 26  1  6  0  0  0
  6  7  1  0  0  0  0
  6  4  1  0  0  0  0
  7 27  1  1  0  0  0
  8 29  1  0  0  0  0
  8  6  1  0  0  0  0
  8  7  1  0  0  0  0
  9  7  1  0  0  0  0
  9 13  1  0  0  0  0
 10 11  1  0  0  0  0
 10  9  2  0  0  0  0
 11 12  2  0  0  0  0
 12 13  1  0  0  0  0
 14 11  1  0  0  0  0
 15 14  2  0  0  0  0
 16 17  1  0  0  0  0
 16 15  1  0  0  0  0
 17 18  2  0  0  0  0
 18 14  1  0  0  0  0
 19 20  1  0  0  0  0
 19 16  1  0  0  0  0
 20 22  1  0  0  0  0
 21 20  2  0  0  0  0
 22 34  1  0  0  0  0
 24  3  1  0  0  0  0
 28  8  1  0  0  0  0
 30 17  1  0  0  0  0
 31 19  1  0  0  0  0
 32 19  1  0  0  0  0
 33 22  1  0  0  0  0
M  END
>  <Pose>
1

>  <Score>
-7.18

$$$$
