
 OpenBabel03212208273D

 51 54  0  0  0  0  0  0  0  0999 V2000
   92.1850   98.6960  -42.4050 S   0  0  0  0  0  0  0  0  0  0  0  0
   91.9460  100.3300  -42.0020 C   0  0  0  0  0  0  0  0  0  0  0  0
   91.5310  100.8760  -43.1850 C   0  0  0  0  0  0  0  0  0  0  0  0
   91.4320  100.0660  -44.2410 C   0  0  0  0  0  0  0  0  0  0  0  0
   91.7540   98.7440  -44.0620 C   0  0  0  0  0  0  0  0  0  0  0  0
   91.7170   97.6670  -45.0570 C   0  0  0  0  0  0  0  0  0  0  0  0
   92.6230   97.6600  -45.9260 O   0  0  0  0  0  0  0  0  0  0  0  0
   90.6610   96.6250  -45.0460 C   0  0  0  0  0  0  0  0  0  0  0  0
   91.2110   95.3020  -44.8880 N   0  0  0  0  0  0  0  0  0  0  0  0
   91.6350   94.7840  -43.7110 C   0  0  0  0  0  0  0  0  0  0  0  0
   92.0990   93.5190  -43.9050 C   0  0  0  0  0  0  0  0  0  0  0  0
   92.5910   92.7810  -42.8430 C   0  0  0  0  0  0  0  0  0  0  0  0
   92.6050   93.3450  -41.5880 C   0  0  0  0  0  0  0  0  0  0  0  0
   92.1450   94.6180  -41.3660 C   0  0  0  0  0  0  0  0  0  0  0  0
   91.6610   95.3250  -42.4450 C   0  0  0  0  0  0  0  0  0  0  0  0
   91.9560   93.2550  -45.2070 N   0  0  0  0  0  0  0  0  0  0  0  0
   91.4110   94.3520  -45.8060 C   0  0  0  0  0  0  0  0  0  0  0  0
   91.1630   94.3460  -47.0630 N   0  0  0  0  0  0  0  0  0  0  0  0
   92.3440   92.0050  -45.8470 C   0  0  0  0  0  0  0  0  0  0  0  0
   91.2360   91.6100  -46.8350 C   0  0  0  0  0  0  0  0  0  0  0  0
   91.2490   90.2040  -47.1220 N   0  0  0  0  0  4  0  0  0  0  0  0
   90.2210   89.7820  -48.0530 C   0  0  0  0  0  0  0  0  0  0  0  0
   90.2250   90.6090  -49.3080 C   0  0  0  0  0  0  0  0  0  0  0  0
   91.5830   90.7730  -49.9040 C   0  0  0  0  0  0  0  0  0  0  0  0
   92.7250   90.6950  -48.9560 C   0  0  0  0  0  0  0  0  0  0  0  0
   92.5130   89.8740  -47.7330 C   0  0  0  0  0  0  0  0  0  0  0  0
   92.2050  101.1640  -40.3060 B   0  0  0  0  0  0  0  0  0  0  0  0
   91.2940  101.9680  -43.2150 H   0  0  0  0  0  0  0  0  0  0  0  0
   91.1000  100.4290  -45.2410 H   0  0  0  0  0  0  0  0  0  0  0  0
   90.0120   96.7020  -45.9580 H   0  0  0  0  0  0  0  0  0  0  0  0
   89.9600   96.8300  -44.1990 H   0  0  0  0  0  0  0  0  0  0  0  0
   92.9510   91.7770  -43.0390 H   0  0  0  0  0  0  0  0  0  0  0  0
   92.9830   92.8040  -40.7310 H   0  0  0  0  0  0  0  0  0  0  0  0
   92.1430   95.0920  -40.3900 H   0  0  0  0  0  0  0  0  0  0  0  0
   91.2920   96.3230  -42.3120 H   0  0  0  0  0  0  0  0  0  0  0  0
   90.7520   95.0780  -47.6390 H   0  0  0  0  0  0  0  0  0  0  0  0
   92.4970   91.1760  -45.1270 H   0  0  0  0  0  0  0  0  0  0  0  0
   93.2520   92.1490  -46.4820 H   0  0  0  0  0  0  0  0  0  0  0  0
   91.4710   92.1540  -47.7760 H   0  0  0  0  0  0  0  0  0  0  0  0
   90.2940   91.9410  -46.3540 H   0  0  0  0  0  0  0  0  0  0  0  0
   91.0880   89.6530  -46.2520 H   0  0  0  0  0  0  0  0  0  0  0  0
   90.4230   88.7250  -48.2930 H   0  0  0  0  0  0  0  0  0  0  0  0
   89.2310   89.8790  -47.5690 H   0  0  0  0  0  0  0  0  0  0  0  0
   89.7160   91.6010  -49.1360 H   0  0  0  0  0  0  0  0  0  0  0  0
   89.5770   90.0810  -50.0400 H   0  0  0  0  0  0  0  0  0  0  0  0
   91.7160   90.0120  -50.7100 H   0  0  0  0  0  0  0  0  0  0  0  0
   91.6180   91.7890  -50.3960 H   0  0  0  0  0  0  0  0  0  0  0  0
   93.6070   90.2920  -49.5410 H   0  0  0  0  0  0  0  0  0  0  0  0
   93.0520   91.7210  -48.6670 H   0  0  0  0  0  0  0  0  0  0  0  0
   92.5830   88.7910  -47.9770 H   0  0  0  0  0  0  0  0  0  0  0  0
   93.2950   90.1690  -46.9940 H   0  0  0  0  0  0  0  0  0  0  0  0
  1  2  1  0  0  0  0
  2 27  1  0  0  0  0
  3  2  2  0  0  0  0
  4  5  2  0  0  0  0
  4  3  1  0  0  0  0
  5  1  1  0  0  0  0
  6  8  1  0  0  0  0
  6  5  1  0  0  0  0
  7  6  2  0  0  0  0
  8  9  1  0  0  0  0
  8 31  1  0  0  0  0
  9 10  1  0  0  0  0
 10 15  1  0  0  0  0
 11 10  2  0  0  0  0
 11 12  1  0  0  0  0
 12 13  2  0  0  0  0
 13 14  1  0  0  0  0
 13 33  1  0  0  0  0
 14 34  1  0  0  0  0
 15 35  1  0  0  0  0
 15 14  2  0  0  0  0
 16 11  1  0  0  0  0
 17 16  1  0  0  0  0
 17  9  1  0  0  0  0
 18 17  2  0  0  0  0
 19 16  1  0  0  0  0
 19 37  1  0  0  0  0
 20 40  1  0  0  0  0
 20 19  1  0  0  0  0
 21 20  1  0  0  0  0
 21 41  1  0  0  0  0
 22 43  1  0  0  0  0
 22 21  1  0  0  0  0
 23 44  1  0  0  0  0
 23 22  1  0  0  0  0
 24 23  1  0  0  0  0
 24 25  1  0  0  0  0
 25 49  1  0  0  0  0
 25 26  1  0  0  0  0
 26 21  1  0  0  0  0
 26 51  1  0  0  0  0
 28  3  1  0  0  0  0
 29  4  1  0  0  0  0
 30  8  1  0  0  0  0
 32 12  1  0  0  0  0
 36 18  1  0  0  0  0
 38 19  1  0  0  0  0
 39 20  1  0  0  0  0
 42 22  1  0  0  0  0
 45 23  1  0  0  0  0
 46 24  1  0  0  0  0
 47 24  1  0  0  0  0
 48 25  1  0  0  0  0
 50 26  1  0  0  0  0
M  END
>  <Pose>
1

>  <Score>
-5.49

$$$$
