
 OpenBabel03212208273D

 39 42  0  0  1  0  0  0  0  0999 V2000
   92.9110   99.2900  -45.7660 S   0  0  0  0  0  0  0  0  0  0  0  0
   92.2140   98.9240  -44.2400 C   0  0  0  0  0  0  0  0  0  0  0  0
   90.8740   99.0610  -44.4850 C   0  0  0  0  0  0  0  0  0  0  0  0
   90.5040   99.4090  -45.7270 C   0  0  0  0  0  0  0  0  0  0  0  0
   91.4950   99.5990  -46.6520 C   0  0  0  0  0  0  0  0  0  0  0  0
   91.0600   99.9880  -48.0350 C   0  0  0  0  0  0  0  0  0  0  0  0
   90.0970   98.9910  -48.4980 N   0  0  0  0  0  4  0  0  0  0  0  0
   89.0040   98.7980  -47.5960 C   0  0  0  0  0  0  0  0  0  0  0  0
   89.1270   99.6410  -46.3320 C   0  0  0  0  0  0  0  0  0  0  0  0
   90.8370   97.7310  -48.5690 C   0  0  0  0  0  0  0  0  0  0  0  0
   90.0060   98.7980  -43.3040 C   0  0  0  0  0  0  0  0  0  0  0  0
   88.7460   98.8900  -43.3950 O   0  0  0  0  0  0  0  0  0  0  0  0
   90.6160   98.4430  -42.0730 N   0  0  0  0  0  0  0  0  0  0  0  0
   91.9310   97.8850  -41.9470 C   0  0  2  0  0  0  0  0  0  0  0  0
   92.7500   98.5540  -42.9460 N   0  0  0  0  0  0  0  0  0  0  0  0
   91.9580   96.4220  -42.1850 C   0  0  0  0  0  0  0  0  0  0  0  0
   92.1480   95.5200  -41.1570 C   0  0  0  0  0  0  0  0  0  0  0  0
   92.1750   94.1580  -41.3590 C   0  0  0  0  0  0  0  0  0  0  0  0
   92.0100   93.6500  -42.6310 C   0  0  0  0  0  0  0  0  0  0  0  0
   91.8200   94.5290  -43.6700 C   0  0  0  0  0  0  0  0  0  0  0  0
   91.7930   95.8940  -43.4600 C   0  0  0  0  0  0  0  0  0  0  0  0
   91.5940   93.7780  -45.4240 B   0  0  0  0  0  0  0  0  0  0  0  0
   92.0370   92.2790  -42.8410 O   0  0  0  0  0  0  0  0  0  0  0  0
   92.4360   92.9300  -39.9390 B   0  0  0  0  0  0  0  0  0  0  0  0
   90.6600  101.0080  -48.0740 H   0  0  0  0  0  0  0  0  0  0  0  0
   91.9280   99.9020  -48.7250 H   0  0  0  0  0  0  0  0  0  0  0  0
   89.8060   99.2020  -49.4740 H   0  0  0  0  0  0  0  0  0  0  0  0
   88.9380   97.7330  -47.2230 H   0  0  0  0  0  0  0  0  0  0  0  0
   88.0180   99.0080  -48.0400 H   0  0  0  0  0  0  0  0  0  0  0  0
   88.3300   99.4010  -45.6330 H   0  0  0  0  0  0  0  0  0  0  0  0
   89.1360  100.7000  -46.6610 H   0  0  0  0  0  0  0  0  0  0  0  0
   91.9280   97.9040  -48.7090 H   0  0  0  0  0  0  0  0  0  0  0  0
   90.7580   97.2130  -47.5690 H   0  0  0  0  0  0  0  0  0  0  0  0
   90.4120   97.0400  -49.3020 H   0  0  0  0  0  0  0  0  0  0  0  0
   90.0460   98.6090  -41.1960 H   0  0  0  0  0  0  0  0  0  0  0  0
   92.3280   98.0920  -40.9420 H   0  0  0  0  0  0  0  0  0  0  0  0
   93.7480   98.7920  -42.7770 H   0  0  0  0  0  0  0  0  0  0  0  0
   92.2780   95.9050  -40.1580 H   0  0  0  0  0  0  0  0  0  0  0  0
   91.6440   96.5690  -44.2800 H   0  0  0  0  0  0  0  0  0  0  0  0
  1  2  1  0  0  0  0
  2 15  1  0  0  0  0
  3  2  2  0  0  0  0
  3 11  1  0  0  0  0
  4  3  1  0  0  0  0
  5  1  1  0  0  0  0
  5  4  2  0  0  0  0
  6  5  1  0  0  0  0
  7  6  1  0  0  0  0
  7  8  1  0  0  0  0
  8 28  1  0  0  0  0
  8  9  1  0  0  0  0
  9  4  1  0  0  0  0
  9 30  1  0  0  0  0
 10  7  1  0  0  0  0
 10 33  1  0  0  0  0
 11 13  1  0  0  0  0
 12 11  2  0  0  0  0
 13 14  1  0  0  0  0
 13 35  1  0  0  0  0
 14 36  1  1  0  0  0
 15 37  1  0  0  0  0
 15 14  1  0  0  0  0
 16 14  1  0  0  0  0
 16 17  1  0  0  0  0
 17 38  1  0  0  0  0
 18 17  2  0  0  0  0
 18 24  1  0  0  0  0
 19 18  1  0  0  0  0
 20 21  1  0  0  0  0
 20 19  2  0  0  0  0
 21 16  2  0  0  0  0
 22 20  1  0  0  0  0
 23 19  1  0  0  0  0
 25  6  1  0  0  0  0
 26  6  1  0  0  0  0
 27  7  1  0  0  0  0
 29  8  1  0  0  0  0
 31  9  1  0  0  0  0
 32 10  1  0  0  0  0
 34 10  1  0  0  0  0
 39 21  1  0  0  0  0
M  END
>  <Pose>
1

>  <Score>
-5.30

$$$$
