
 OpenBabel03212208273D

 46 49  0  0  1  0  0  0  0  0999 V2000
   91.7330   94.6060  -45.4340 S   0  0  0  0  0  0  0  0  0  0  0  0
   91.6970   96.2640  -45.0300 C   0  0  0  0  0  0  0  0  0  0  0  0
   91.7360   96.2480  -43.6630 C   0  0  0  0  0  0  0  0  0  0  0  0
   91.7880   95.0330  -43.0620 C   0  0  0  0  0  0  0  0  0  0  0  0
   91.7950   93.9320  -43.8810 C   0  0  0  0  0  0  0  0  0  0  0  0
   91.8470   92.5410  -43.3420 C   0  0  0  0  0  0  0  0  0  0  0  0
   92.5660   92.4160  -42.1200 N   0  0  0  0  0  4  0  0  0  0  0  0
   92.8550   93.6240  -41.4260 C   0  0  0  0  0  0  0  0  0  0  0  0
   91.8400   94.7160  -41.5620 C   0  0  0  0  0  0  0  0  0  0  0  0
   91.9470   91.4260  -41.2470 C   0  0  0  0  0  0  0  0  0  0  0  0
   91.7240   97.6110  -43.0480 C   0  0  0  0  0  0  0  0  0  0  0  0
   91.7560   97.7290  -41.7800 O   0  0  0  0  0  0  0  0  0  0  0  0
   91.6750   98.7560  -43.8770 N   0  0  0  0  0  0  0  0  0  0  0  0
   91.0690   98.6950  -45.1880 C   0  0  1  0  0  0  0  0  0  0  0  0
   91.6380   97.4950  -45.7990 N   0  0  0  0  0  0  0  0  0  0  0  0
   89.6060   98.5170  -44.9910 C   0  0  0  0  0  0  0  0  0  0  0  0
   88.8640   97.7580  -45.8700 C   0  0  0  0  0  0  0  0  0  0  0  0
   87.5080   97.5810  -45.7050 C   0  0  0  0  0  0  0  0  0  0  0  0
   86.8670   98.1800  -44.6280 C   0  0  0  0  0  0  0  0  0  0  0  0
   87.5840   98.9440  -43.7330 C   0  0  0  0  0  0  0  0  0  0  0  0
   88.9210   99.1000  -43.9230 C   0  0  0  0  0  0  0  0  0  0  0  0
   86.9000   99.5180  -42.6770 O   0  0  0  0  0  0  0  0  0  0  0  0
   86.2280  100.7380  -42.7040 C   0  0  0  0  0  0  0  0  0  0  0  0
   84.7470  100.5510  -42.9510 C   0  0  0  0  0  0  0  0  0  0  0  0
   85.4970   98.0150  -44.4400 O   0  0  0  0  0  0  0  0  0  0  0  0
   86.4690   96.5340  -46.9120 B   0  0  0  0  0  0  0  0  0  0  0  0
   90.7860   92.2420  -43.1550 H   0  0  0  0  0  0  0  0  0  0  0  0
   92.2180   91.8720  -44.1410 H   0  0  0  0  0  0  0  0  0  0  0  0
   93.5100   91.9840  -42.3710 H   0  0  0  0  0  0  0  0  0  0  0  0
   93.8520   94.0300  -41.6920 H   0  0  0  0  0  0  0  0  0  0  0  0
   92.9190   93.3760  -40.3300 H   0  0  0  0  0  0  0  0  0  0  0  0
   90.8410   94.4190  -41.2050 H   0  0  0  0  0  0  0  0  0  0  0  0
   92.2410   95.5910  -41.0250 H   0  0  0  0  0  0  0  0  0  0  0  0
   92.6960   90.7980  -40.7310 H   0  0  0  0  0  0  0  0  0  0  0  0
   91.2950   90.7670  -41.8750 H   0  0  0  0  0  0  0  0  0  0  0  0
   91.3280   91.9040  -40.4620 H   0  0  0  0  0  0  0  0  0  0  0  0
   92.0810   99.6580  -43.5420 H   0  0  0  0  0  0  0  0  0  0  0  0
   91.3080   99.5720  -45.7980 H   0  0  0  0  0  0  0  0  0  0  0  0
   92.0130   97.4480  -46.7610 H   0  0  0  0  0  0  0  0  0  0  0  0
   89.3350   97.2860  -46.7090 H   0  0  0  0  0  0  0  0  0  0  0  0
   89.5030   99.6870  -43.2470 H   0  0  0  0  0  0  0  0  0  0  0  0
   86.4140  101.2590  -41.7400 H   0  0  0  0  0  0  0  0  0  0  0  0
   86.6260  101.3920  -43.5070 H   0  0  0  0  0  0  0  0  0  0  0  0
   84.5540   99.4620  -43.0350 H   0  0  0  0  0  0  0  0  0  0  0  0
   84.1420  101.0440  -42.1580 H   0  0  0  0  0  0  0  0  0  0  0  0
   84.4590  100.9690  -43.9540 H   0  0  0  0  0  0  0  0  0  0  0  0
  1  2  1  0  0  0  0
  1  5  1  0  0  0  0
  2  3  2  0  0  0  0
  3  4  1  0  0  0  0
  3 11  1  0  0  0  0
  4  9  1  0  0  0  0
  5  6  1  0  0  0  0
  5  4  2  0  0  0  0
  6 27  1  0  0  0  0
  6  7  1  0  0  0  0
  7  8  1  0  0  0  0
  7 10  1  0  0  0  0
  8 31  1  0  0  0  0
  9  8  1  0  0  0  0
  9 32  1  0  0  0  0
  9 33  1  0  0  0  0
 10 34  1  0  0  0  0
 10 36  1  0  0  0  0
 11 12  2  0  0  0  0
 13 37  1  0  0  0  0
 13 11  1  0  0  0  0
 14 38  1  6  0  0  0
 14 16  1  0  0  0  0
 14 13  1  0  0  0  0
 15 14  1  0  0  0  0
 15  2  1  0  0  0  0
 16 21  1  0  0  0  0
 17 18  1  0  0  0  0
 17 16  2  0  0  0  0
 18 19  2  0  0  0  0
 19 25  1  0  0  0  0
 19 20  1  0  0  0  0
 20 22  1  0  0  0  0
 21 20  2  0  0  0  0
 21 41  1  0  0  0  0
 23 22  1  0  0  0  0
 23 42  1  0  0  0  0
 24 23  1  0  0  0  0
 24 45  1  0  0  0  0
 26 18  1  0  0  0  0
 28  6  1  0  0  0  0
 29  7  1  0  0  0  0
 30  8  1  0  0  0  0
 35 10  1  0  0  0  0
 39 15  1  0  0  0  0
 40 17  1  0  0  0  0
 43 23  1  0  0  0  0
 44 24  1  0  0  0  0
 46 24  1  0  0  0  0
M  END
>  <Pose>
1

>  <Score>
-5.24

$$$$
