
 OpenBabel03212208273D

 40 43  0  0  1  0  0  0  0  0999 V2000
   89.7180  101.5320  -42.1700 S   0  0  0  0  0  0  0  0  0  0  0  0
   89.0690  100.6270  -43.5990 C   0  0  2  0  0  0  0  0  0  0  0  0
   89.4420   99.2280  -43.1910 C   0  0  0  0  0  0  0  0  0  0  0  0
   90.6630   99.1900  -42.4450 N   0  0  0  0  0  0  0  0  0  0  0  0
   91.0080  100.3370  -41.8380 C   0  0  2  0  0  0  0  0  0  0  0  0
   92.1740  100.1690  -41.2040 N   0  0  0  0  0  0  0  0  0  0  0  0
   92.5900   98.8980  -41.4000 C   0  0  0  0  0  0  0  0  0  0  0  0
   91.6490   98.2670  -42.1790 C   0  0  0  0  0  0  0  0  0  0  0  0
   91.7400   96.8940  -42.6150 C   0  0  0  0  0  0  0  0  0  0  0  0
   91.8690   95.9000  -41.6300 C   0  0  0  0  0  0  0  0  0  0  0  0
   91.9200   94.5730  -41.9720 C   0  0  0  0  0  0  0  0  0  0  0  0
   91.8510   94.1330  -43.2700 C   0  0  0  0  0  0  0  0  0  0  0  0
   91.7240   95.0860  -44.2530 C   0  0  0  0  0  0  0  0  0  0  0  0
   91.6710   96.4420  -43.9060 C   0  0  0  0  0  0  0  0  0  0  0  0
   91.9120   92.7460  -43.5400 N   0  0  0  0  0  0  0  0  0  0  0  0
   92.1840   91.9380  -42.6450 O   0  0  0  0  0  0  0  0  0  0  0  0
   91.6660   92.3010  -44.8030 O   0  0  0  0  0  0  0  0  0  0  0  0
   92.8760  101.1450  -40.4440 C   0  0  0  0  0  0  0  0  0  0  0  0
   94.2500  101.2150  -40.4390 C   0  0  0  0  0  0  0  0  0  0  0  0
   94.9550  102.1520  -39.7120 C   0  0  0  0  0  0  0  0  0  0  0  0
   94.2710  103.0710  -38.9470 C   0  0  0  0  0  0  0  0  0  0  0  0
   92.8880  103.0310  -38.9270 C   0  0  0  0  0  0  0  0  0  0  0  0
   92.2070  102.0830  -39.6640 C   0  0  0  0  0  0  0  0  0  0  0  0
   95.2150  104.3850  -37.9250 B   0  0  0  0  0  0  0  0  0  0  0  0
   89.8350  100.9610  -44.8560 C   0  0  0  0  0  0  0  0  0  0  0  0
   87.9820  100.7430  -43.7160 H   0  0  0  0  0  0  0  0  0  0  0  0
   88.5950   98.8340  -42.5820 H   0  0  0  0  0  0  0  0  0  0  0  0
   89.5510   98.6140  -44.1270 H   0  0  0  0  0  0  0  0  0  0  0  0
   93.5230   98.4640  -40.9940 H   0  0  0  0  0  0  0  0  0  0  0  0
   91.9320   96.1910  -40.5850 H   0  0  0  0  0  0  0  0  0  0  0  0
   92.0200   93.8420  -41.1690 H   0  0  0  0  0  0  0  0  0  0  0  0
   91.6660   94.7910  -45.2940 H   0  0  0  0  0  0  0  0  0  0  0  0
   91.5460   97.1200  -44.7150 H   0  0  0  0  0  0  0  0  0  0  0  0
   94.7960  100.4840  -41.0490 H   0  0  0  0  0  0  0  0  0  0  0  0
   96.0330  102.1340  -39.7670 H   0  0  0  0  0  0  0  0  0  0  0  0
   92.3320  103.7530  -38.3260 H   0  0  0  0  0  0  0  0  0  0  0  0
   91.1230  102.0120  -39.6810 H   0  0  0  0  0  0  0  0  0  0  0  0
   89.5840  101.9480  -45.2520 H   0  0  0  0  0  0  0  0  0  0  0  0
   90.9160  100.9220  -44.5890 H   0  0  0  0  0  0  0  0  0  0  0  0
   89.6110  100.1910  -45.6170 H   0  0  0  0  0  0  0  0  0  0  0  0
  2 26  1  6  0  0  0
  2  3  1  0  0  0  0
  2  1  1  0  0  0  0
  3 27  1  0  0  0  0
  3  4  1  0  0  0  0
  4  8  1  0  0  0  0
  4  5  1  0  0  0  0
  5  1  1  1  0  0  0
  5  6  1  0  0  0  0
  6 18  1  0  0  0  0
  7  6  1  0  0  0  0
  7 29  1  0  0  0  0
  8  7  2  0  0  0  0
  9  8  1  0  0  0  0
  9 10  1  0  0  0  0
 10 30  1  0  0  0  0
 11 10  2  0  0  0  0
 11 31  1  0  0  0  0
 12 11  1  0  0  0  0
 13 14  1  0  0  0  0
 13 12  2  0  0  0  0
 14  9  2  0  0  0  0
 15 12  1  0  0  0  0
 15 16  2  0  0  0  0
 17 15  2  0  0  0  0
 18 19  2  0  0  0  0
 18 23  1  0  0  0  0
 19 20  1  0  0  0  0
 20 21  2  0  0  0  0
 21 22  1  0  0  0  0
 21 24  1  0  0  0  0
 22 36  1  0  0  0  0
 23 22  2  0  0  0  0
 25 39  1  0  0  0  0
 25  2  1  0  0  0  0
 28  3  1  0  0  0  0
 32 13  1  0  0  0  0
 33 14  1  0  0  0  0
 34 19  1  0  0  0  0
 35 20  1  0  0  0  0
 37 23  1  0  0  0  0
 38 25  1  0  0  0  0
 40 25  1  0  0  0  0
M  END
>  <Pose>
1

>  <Score>
-4.89

$$$$
