
 OpenBabel03212208273D

 45 48  0  0  1  0  0  0  0  0999 V2000
   91.4710   96.9520  -42.4900 S   0  0  0  0  0  0  0  0  0  0  0  0
   91.6070   95.2950  -43.2670 C   0  0  0  0  0  0  0  0  0  0  0  0
   92.1930   95.5740  -44.6530 C   0  0  0  0  0  0  0  0  0  0  0  0
   91.1480   96.3450  -45.4520 C   0  0  0  0  0  0  0  0  0  0  0  0
   91.2860   97.7380  -45.1050 N   0  0  1  0  0  0  0  0  0  0  0  0
   91.4320   98.1040  -43.8580 C   0  0  2  0  0  0  0  0  0  0  0  0
   91.5620   99.5500  -43.8470 N   0  0  0  0  0  0  0  0  0  0  0  0
   90.6530   99.9260  -44.9080 C   0  0  2  0  0  0  0  0  0  0  0  0
   91.3180   98.9420  -45.9410 C   0  0  0  0  0  0  0  0  0  0  0  0
   90.7260  101.2170  -45.3270 O   0  0  0  0  0  0  0  0  0  0  0  0
   89.3070   99.4260  -44.6050 C   0  0  0  0  0  0  0  0  0  0  0  0
   88.7540   99.4650  -43.3370 C   0  0  0  0  0  0  0  0  0  0  0  0
   87.4730   98.9360  -43.1190 C   0  0  0  0  0  0  0  0  0  0  0  0
   86.7450   98.3820  -44.1040 C   0  0  0  0  0  0  0  0  0  0  0  0
   87.2770   98.3290  -45.4090 C   0  0  0  0  0  0  0  0  0  0  0  0
   88.5430   98.8610  -45.5820 C   0  0  0  0  0  0  0  0  0  0  0  0
   85.4480   97.8340  -43.9250 O   0  0  0  0  0  0  0  0  0  0  0  0
   84.4240   98.6050  -43.3320 C   0  0  0  0  0  0  0  0  0  0  0  0
   92.4290  100.3190  -43.0440 C   0  0  0  0  0  0  0  0  0  0  0  0
   92.3790  100.1170  -41.6430 C   0  0  0  0  0  0  0  0  0  0  0  0
   93.1540  100.8620  -40.7700 C   0  0  0  0  0  0  0  0  0  0  0  0
   94.0020  101.8320  -41.2310 C   0  0  0  0  0  0  0  0  0  0  0  0
   94.0720  102.0530  -42.5910 C   0  0  0  0  0  0  0  0  0  0  0  0
   93.2830  101.2890  -43.4720 C   0  0  0  0  0  0  0  0  0  0  0  0
   95.0740  102.8990  -40.0650 B   0  0  0  0  0  0  0  0  0  0  0  0
   92.3390   94.7320  -42.6620 H   0  0  0  0  0  0  0  0  0  0  0  0
   90.6210   94.8160  -43.3440 H   0  0  0  0  0  0  0  0  0  0  0  0
   92.5310   94.6590  -45.1430 H   0  0  0  0  0  0  0  0  0  0  0  0
   93.0870   96.2380  -44.4660 H   0  0  0  0  0  0  0  0  0  0  0  0
   91.3510   96.1990  -46.5370 H   0  0  0  0  0  0  0  0  0  0  0  0
   90.1250   95.9840  -45.2890 H   0  0  0  0  0  0  0  0  0  0  0  0
   90.7790   98.8810  -46.8580 H   0  0  0  0  0  0  0  0  0  0  0  0
   92.3670   99.2990  -45.9920 H   0  0  0  0  0  0  0  0  0  0  0  0
   91.4050  101.6970  -44.7600 H   0  0  0  0  0  0  0  0  0  0  0  0
   89.3040   99.8940  -42.5280 H   0  0  0  0  0  0  0  0  0  0  0  0
   87.0840   98.9890  -42.1090 H   0  0  0  0  0  0  0  0  0  0  0  0
   86.7140   97.8880  -46.2000 H   0  0  0  0  0  0  0  0  0  0  0  0
   88.9140   98.8070  -46.5980 H   0  0  0  0  0  0  0  0  0  0  0  0
   83.4570   98.1410  -43.5890 H   0  0  0  0  0  0  0  0  0  0  0  0
   84.3790   99.6490  -43.6980 H   0  0  0  0  0  0  0  0  0  0  0  0
   84.5350   98.6480  -42.2090 H   0  0  0  0  0  0  0  0  0  0  0  0
   91.7270   99.3700  -41.2470 H   0  0  0  0  0  0  0  0  0  0  0  0
   93.1030  100.6950  -39.6950 H   0  0  0  0  0  0  0  0  0  0  0  0
   94.7270  102.8150  -42.9700 H   0  0  0  0  0  0  0  0  0  0  0  0
   93.3530  101.4900  -44.5400 H   0  0  0  0  0  0  0  0  0  0  0  0
  2 26  1  0  0  0  0
  2  1  1  0  0  0  0
  3 29  1  0  0  0  0
  3  2  1  0  0  0  0
  4 31  1  0  0  0  0
  4  5  1  0  0  0  0
  4  3  1  0  0  0  0
  5  9  1  6  0  0  0
  5  6  1  0  0  0  0
  6  7  1  0  0  0  0
  6  1  1  6  0  0  0
  7 19  1  0  0  0  0
  8 10  1  6  0  0  0
  8 11  1  0  0  0  0
  8  7  1  0  0  0  0
  9  8  1  0  0  0  0
 10 34  1  0  0  0  0
 11 12  1  0  0  0  0
 12 13  2  0  0  0  0
 12 35  1  0  0  0  0
 13 36  1  0  0  0  0
 14 17  1  0  0  0  0
 14 13  1  0  0  0  0
 15 14  2  0  0  0  0
 16 15  1  0  0  0  0
 16 11  2  0  0  0  0
 17 18  1  0  0  0  0
 18 41  1  0  0  0  0
 19 20  1  0  0  0  0
 20 42  1  0  0  0  0
 20 21  2  0  0  0  0
 21 43  1  0  0  0  0
 22 21  1  0  0  0  0
 22 25  1  0  0  0  0
 23 22  2  0  0  0  0
 24 19  2  0  0  0  0
 24 23  1  0  0  0  0
 27  2  1  0  0  0  0
 28  3  1  0  0  0  0
 30  4  1  0  0  0  0
 32  9  1  0  0  0  0
 33  9  1  0  0  0  0
 37 15  1  0  0  0  0
 38 16  1  0  0  0  0
 39 18  1  0  0  0  0
 40 18  1  0  0  0  0
 44 23  1  0  0  0  0
 45 24  1  0  0  0  0
M  END
>  <Pose>
1

>  <Score>
-4.09

$$$$
