
 OpenBabel03212208273D

 49 52  0  0  1  0  0  0  0  0999 V2000
   92.1310   97.9760  -41.8890 S   0  0  0  0  0  0  0  0  0  0  0  0
   92.3340   99.6260  -41.2620 C   0  0  0  0  0  0  0  0  0  0  0  0
   91.4340  100.5750  -42.0280 C   0  0  0  0  0  0  0  0  0  0  0  0
   91.8170  100.5520  -43.4980 C   0  0  0  0  0  0  0  0  0  0  0  0
   91.3410   99.3340  -44.1120 N   0  0  2  0  0  0  0  0  0  0  0  0
   90.5030   99.1000  -45.2430 C   0  0  2  0  0  0  0  0  0  0  0  0
   91.1250   97.8120  -45.7590 C   0  0  0  0  0  0  0  0  0  0  0  0
   91.4980   97.1220  -44.5450 N   0  0  0  0  0  0  0  0  0  0  0  0
   91.6640   98.0160  -43.6340 C   0  0  2  0  0  0  0  0  0  0  0  0
   91.6240   95.7200  -44.3530 C   0  0  0  0  0  0  0  0  0  0  0  0
   91.3220   94.9040  -45.4350 C   0  0  0  0  0  0  0  0  0  0  0  0
   91.3980   93.5130  -45.3150 C   0  0  0  0  0  0  0  0  0  0  0  0
   91.7740   92.9480  -44.1090 C   0  0  0  0  0  0  0  0  0  0  0  0
   92.0820   93.7260  -43.0180 C   0  0  0  0  0  0  0  0  0  0  0  0
   91.9860   95.1190  -43.2040 C   0  0  0  0  0  0  0  0  0  0  0  0
   92.4650   93.2230  -41.7870 O   0  0  0  0  0  0  0  0  0  0  0  0
   93.7350   92.7380  -41.4570 C   0  0  0  0  0  0  0  0  0  0  0  0
   90.9440   95.4710  -46.6330 O   0  0  0  0  0  0  0  0  0  0  0  0
   89.6240   95.5360  -47.1200 C   0  0  0  0  0  0  0  0  0  0  0  0
   90.6430  100.1290  -46.1690 O   0  0  0  0  0  0  0  0  0  0  0  0
   89.0860   98.8190  -44.9420 C   0  0  0  0  0  0  0  0  0  0  0  0
   88.1650   98.3110  -45.8020 C   0  0  0  0  0  0  0  0  0  0  0  0
   86.8350   98.1180  -45.4200 C   0  0  0  0  0  0  0  0  0  0  0  0
   86.4040   98.4390  -44.1500 C   0  0  0  0  0  0  0  0  0  0  0  0
   87.3180   98.9480  -43.2800 C   0  0  0  0  0  0  0  0  0  0  0  0
   88.6190   99.1360  -43.6540 C   0  0  0  0  0  0  0  0  0  0  0  0
   84.5740   98.1740  -43.6410 B   0  0  0  0  0  0  0  0  0  0  0  0
   92.0750   99.6950  -40.1720 H   0  0  0  0  0  0  0  0  0  0  0  0
   93.3920   99.9770  -41.4280 H   0  0  0  0  0  0  0  0  0  0  0  0
   90.3740  100.2510  -41.9140 H   0  0  0  0  0  0  0  0  0  0  0  0
   91.5680  101.6070  -41.6730 H   0  0  0  0  0  0  0  0  0  0  0  0
   91.2950  101.4290  -43.9670 H   0  0  0  0  0  0  0  0  0  0  0  0
   92.9170  100.6280  -43.5650 H   0  0  0  0  0  0  0  0  0  0  0  0
   90.3330   97.3510  -46.3490 H   0  0  0  0  0  0  0  0  0  0  0  0
   92.0110   98.0610  -46.3710 H   0  0  0  0  0  0  0  0  0  0  0  0
   91.1580   92.8870  -46.1770 H   0  0  0  0  0  0  0  0  0  0  0  0
   91.8390   91.8700  -43.9860 H   0  0  0  0  0  0  0  0  0  0  0  0
   92.2280   95.6850  -42.3380 H   0  0  0  0  0  0  0  0  0  0  0  0
   93.8800   92.7490  -40.3310 H   0  0  0  0  0  0  0  0  0  0  0  0
   93.7300   91.6630  -41.8010 H   0  0  0  0  0  0  0  0  0  0  0  0
   94.5670   93.3180  -41.9030 H   0  0  0  0  0  0  0  0  0  0  0  0
   89.1050   94.5900  -46.9340 H   0  0  0  0  0  0  0  0  0  0  0  0
   89.0310   96.3100  -46.5670 H   0  0  0  0  0  0  0  0  0  0  0  0
   89.6090   95.7240  -48.2220 H   0  0  0  0  0  0  0  0  0  0  0  0
   91.3860   99.9330  -46.7850 H   0  0  0  0  0  0  0  0  0  0  0  0
   88.4610   98.0510  -46.7920 H   0  0  0  0  0  0  0  0  0  0  0  0
   86.1050   97.7000  -46.1400 H   0  0  0  0  0  0  0  0  0  0  0  0
   86.9500   99.1890  -42.2890 H   0  0  0  0  0  0  0  0  0  0  0  0
   89.3100   99.5440  -42.9360 H   0  0  0  0  0  0  0  0  0  0  0  0
  1  2  1  0  0  0  0
  2 28  1  0  0  0  0
  3 30  1  0  0  0  0
  3 31  1  0  0  0  0
  3  2  1  0  0  0  0
  4  3  1  0  0  0  0
  5  9  1  0  0  0  0
  5  4  1  1  0  0  0
  6 20  1  6  0  0  0
  6 21  1  0  0  0  0
  6  5  1  0  0  0  0
  7  6  1  0  0  0  0
  7  8  1  0  0  0  0
  8 10  1  0  0  0  0
  8  9  1  0  0  0  0
  9  1  1  1  0  0  0
 10 15  1  0  0  0  0
 11 12  1  0  0  0  0
 11 10  2  0  0  0  0
 12 13  2  0  0  0  0
 13 37  1  0  0  0  0
 13 14  1  0  0  0  0
 14 16  1  0  0  0  0
 15 14  2  0  0  0  0
 15 38  1  0  0  0  0
 16 17  1  0  0  0  0
 17 39  1  0  0  0  0
 18 11  1  0  0  0  0
 19 42  1  0  0  0  0
 19 18  1  0  0  0  0
 19 43  1  0  0  0  0
 21 26  1  0  0  0  0
 22 23  1  0  0  0  0
 22 21  2  0  0  0  0
 23 24  2  0  0  0  0
 24 27  1  0  0  0  0
 24 25  1  0  0  0  0
 25 48  1  0  0  0  0
 26 25  2  0  0  0  0
 26 49  1  0  0  0  0
 29  2  1  0  0  0  0
 32  4  1  0  0  0  0
 33  4  1  0  0  0  0
 34  7  1  0  0  0  0
 35  7  1  0  0  0  0
 36 12  1  0  0  0  0
 40 17  1  0  0  0  0
 41 17  1  0  0  0  0
 44 19  1  0  0  0  0
 45 20  1  0  0  0  0
 46 22  1  0  0  0  0
 47 23  1  0  0  0  0
M  END
>  <Pose>
1

>  <Score>
-5.38

$$$$
