
 OpenBabel03212208273D

 43 46  0  0  1  0  0  0  0  0999 V2000
   90.2310  100.3130  -42.4400 S   0  0  0  0  0  0  0  0  0  0  0  0
   91.4590  101.6800  -42.5440 C   0  0  0  0  0  0  0  0  0  0  0  0
   92.4300  101.3870  -43.6750 C   0  0  0  0  0  0  0  0  0  0  0  0
   92.8980   99.9550  -43.6310 C   0  0  0  0  0  0  0  0  0  0  0  0
   91.9170   99.1060  -44.2290 N   0  0  2  0  0  0  0  0  0  0  0  0
   91.9110   97.9740  -45.1380 C   0  0  1  0  0  0  0  0  0  0  0  0
   90.5620   98.0960  -45.8260 C   0  0  0  0  0  0  0  0  0  0  0  0
   89.7680   98.7830  -44.7880 N   0  0  0  0  0  0  0  0  0  0  0  0
   90.5310   99.3340  -43.9300 C   0  0  1  0  0  0  0  0  0  0  0  0
   88.3440   98.8310  -44.7740 C   0  0  0  0  0  0  0  0  0  0  0  0
   87.5730   99.6740  -44.0290 C   0  0  0  0  0  0  0  0  0  0  0  0
   86.1850   99.6790  -44.0780 C   0  0  0  0  0  0  0  0  0  0  0  0
   85.5290   98.7970  -44.9130 C   0  0  0  0  0  0  0  0  0  0  0  0
   86.2830   97.9220  -45.6870 C   0  0  0  0  0  0  0  0  0  0  0  0
   87.6710   97.9360  -45.6200 C   0  0  0  0  0  0  0  0  0  0  0  0
   83.6220   98.7230  -45.0470 B   0  0  0  0  0  0  0  0  0  0  0  0
   92.9610   98.0120  -46.0340 O   0  0  0  0  0  0  0  0  0  0  0  0
   91.9330   96.6850  -44.4070 C   0  0  0  0  0  0  0  0  0  0  0  0
   91.9650   96.6800  -43.0270 C   0  0  0  0  0  0  0  0  0  0  0  0
   91.9850   95.4430  -42.3810 C   0  0  0  0  0  0  0  0  0  0  0  0
   91.9720   94.2780  -43.0860 C   0  0  0  0  0  0  0  0  0  0  0  0
   91.9380   94.2680  -44.4680 C   0  0  0  0  0  0  0  0  0  0  0  0
   91.9190   95.5130  -45.1100 C   0  0  0  0  0  0  0  0  0  0  0  0
   92.0180   95.4270  -40.9630 N   0  0  0  0  0  0  0  0  0  0  0  0
   92.5090   96.3660  -40.3070 O   0  0  0  0  0  0  0  0  0  0  0  0
   91.5090   94.3760  -40.2550 O   0  0  0  0  0  0  0  0  0  0  0  0
   91.9600  101.8190  -41.5860 H   0  0  0  0  0  0  0  0  0  0  0  0
   90.9240  102.6070  -42.8140 H   0  0  0  0  0  0  0  0  0  0  0  0
   93.3230  102.0400  -43.5430 H   0  0  0  0  0  0  0  0  0  0  0  0
   92.0000  101.5930  -44.6590 H   0  0  0  0  0  0  0  0  0  0  0  0
   93.9010   99.8720  -44.0780 H   0  0  0  0  0  0  0  0  0  0  0  0
   92.9800   99.6510  -42.5450 H   0  0  0  0  0  0  0  0  0  0  0  0
   90.6100   98.6930  -46.7420 H   0  0  0  0  0  0  0  0  0  0  0  0
   90.0900   97.1080  -46.0260 H   0  0  0  0  0  0  0  0  0  0  0  0
   88.0400  100.3740  -43.3580 H   0  0  0  0  0  0  0  0  0  0  0  0
   85.5850  100.3550  -43.4820 H   0  0  0  0  0  0  0  0  0  0  0  0
   85.7480   97.2400  -46.3390 H   0  0  0  0  0  0  0  0  0  0  0  0
   88.2370   97.2420  -46.2360 H   0  0  0  0  0  0  0  0  0  0  0  0
   92.7590   97.7320  -46.9380 H   0  0  0  0  0  0  0  0  0  0  0  0
   91.9760   97.6010  -42.4720 H   0  0  0  0  0  0  0  0  0  0  0  0
   91.9870   93.3200  -42.5860 H   0  0  0  0  0  0  0  0  0  0  0  0
   91.9230   93.3470  -44.9990 H   0  0  0  0  0  0  0  0  0  0  0  0
   91.8940   95.4830  -46.1870 H   0  0  0  0  0  0  0  0  0  0  0  0
  2  1  1  0  0  0  0
  2 27  1  0  0  0  0
  3  4  1  0  0  0  0
  3 29  1  0  0  0  0
  3  2  1  0  0  0  0
  4 32  1  0  0  0  0
  5  9  1  0  0  0  0
  5  4  1  6  0  0  0
  6 17  1  6  0  0  0
  6 18  1  0  0  0  0
  6  5  1  0  0  0  0
  7  6  1  0  0  0  0
  7  8  1  0  0  0  0
  8 10  1  0  0  0  0
  8  9  1  0  0  0  0
  9  1  1  1  0  0  0
 10 11  1  0  0  0  0
 11 35  1  0  0  0  0
 12 11  2  0  0  0  0
 12 36  1  0  0  0  0
 13 12  1  0  0  0  0
 14 15  1  0  0  0  0
 14 13  2  0  0  0  0
 15 10  2  0  0  0  0
 16 13  1  0  0  0  0
 18 19  1  0  0  0  0
 19 40  1  0  0  0  0
 19 20  2  0  0  0  0
 20 24  1  0  0  0  0
 21 41  1  0  0  0  0
 21 20  1  0  0  0  0
 22 21  2  0  0  0  0
 23 22  1  0  0  0  0
 23 18  2  0  0  0  0
 24 25  2  0  0  0  0
 24 26  2  0  0  0  0
 28  2  1  0  0  0  0
 30  3  1  0  0  0  0
 31  4  1  0  0  0  0
 33  7  1  0  0  0  0
 34  7  1  0  0  0  0
 37 14  1  0  0  0  0
 38 15  1  0  0  0  0
 39 17  1  0  0  0  0
 42 22  1  0  0  0  0
 43 23  1  0  0  0  0
M  END
>  <Pose>
1

>  <Score>
-5.42

$$$$
