
 OpenBabel03212208273D

 41 44  0  0  1  0  0  0  0  0999 V2000
   90.8960  101.4020  -40.8800 S   0  0  0  0  0  0  0  0  0  0  0  0
   91.9340  102.9310  -40.8430 C   0  0  0  0  0  0  0  0  0  0  0  0
   92.9990  102.8650  -41.9070 C   0  0  0  0  0  0  0  0  0  0  0  0
   93.4310  101.4570  -42.2530 C   0  0  0  0  0  0  0  0  0  0  0  0
   92.4730  100.7190  -42.9800 N   0  0  1  0  0  0  0  0  0  0  0  0
   92.3800   99.7310  -44.0690 C   0  0  1  0  0  0  0  0  0  0  0  0
   91.1110  100.2460  -44.7050 C   0  0  0  0  0  0  0  0  0  0  0  0
   90.2980  100.5330  -43.5330 N   0  0  0  0  0  0  0  0  0  0  0  0
   91.0730  100.8730  -42.6150 C   0  0  1  0  0  0  0  0  0  0  0  0
   88.8650  100.3790  -43.4510 C   0  0  0  0  0  0  0  0  0  0  0  0
   88.0170  101.2440  -42.8340 C   0  0  0  0  0  0  0  0  0  0  0  0
   86.6470  101.0330  -42.7370 C   0  0  0  0  0  0  0  0  0  0  0  0
   86.0970   99.9040  -43.2830 C   0  0  0  0  0  0  0  0  0  0  0  0
   86.9550   99.0230  -43.9130 C   0  0  0  0  0  0  0  0  0  0  0  0
   88.3030   99.2320  -44.0060 C   0  0  0  0  0  0  0  0  0  0  0  0
   84.2170   99.5270  -43.1950 B   0  0  0  0  0  0  0  0  0  0  0  0
   93.4200   99.8000  -44.9450 O   0  0  0  0  0  0  0  0  0  0  0  0
   92.1410   98.3560  -43.5170 C   0  0  0  0  0  0  0  0  0  0  0  0
   92.2190   98.0660  -42.1690 C   0  0  0  0  0  0  0  0  0  0  0  0
   91.9760   96.7670  -41.7400 C   0  0  0  0  0  0  0  0  0  0  0  0
   91.6540   95.7360  -42.6130 C   0  0  0  0  0  0  0  0  0  0  0  0
   91.5750   96.0170  -43.9500 C   0  0  0  0  0  0  0  0  0  0  0  0
   91.8210   97.3190  -44.3840 C   0  0  0  0  0  0  0  0  0  0  0  0
   91.2360  103.7450  -41.1940 H   0  0  0  0  0  0  0  0  0  0  0  0
   92.2920  103.1160  -39.8240 H   0  0  0  0  0  0  0  0  0  0  0  0
   93.9060  103.3970  -41.4910 H   0  0  0  0  0  0  0  0  0  0  0  0
   92.6780  103.3450  -42.8560 H   0  0  0  0  0  0  0  0  0  0  0  0
   94.4560  101.4480  -42.6760 H   0  0  0  0  0  0  0  0  0  0  0  0
   93.5280  100.9520  -41.2320 H   0  0  0  0  0  0  0  0  0  0  0  0
   90.6680   99.6220  -45.4500 H   0  0  0  0  0  0  0  0  0  0  0  0
   91.3870  101.2560  -45.1480 H   0  0  0  0  0  0  0  0  0  0  0  0
   88.4040  102.1670  -42.3770 H   0  0  0  0  0  0  0  0  0  0  0  0
   86.0140  101.7550  -42.2340 H   0  0  0  0  0  0  0  0  0  0  0  0
   86.5100   98.1210  -44.3430 H   0  0  0  0  0  0  0  0  0  0  0  0
   88.9630   98.5170  -44.5160 H   0  0  0  0  0  0  0  0  0  0  0  0
   94.1950  100.3450  -44.6610 H   0  0  0  0  0  0  0  0  0  0  0  0
   92.4750   98.8590  -41.4750 H   0  0  0  0  0  0  0  0  0  0  0  0
   92.0470   96.5760  -40.6850 H   0  0  0  0  0  0  0  0  0  0  0  0
   91.4690   94.7330  -42.2480 H   0  0  0  0  0  0  0  0  0  0  0  0
   91.3180   95.2530  -44.6660 H   0  0  0  0  0  0  0  0  0  0  0  0
   91.7650   97.5450  -45.4390 H   0  0  0  0  0  0  0  0  0  0  0  0
  1  2  1  0  0  0  0
  2 25  1  0  0  0  0
  3 26  1  0  0  0  0
  3  2  1  0  0  0  0
  4  3  1  0  0  0  0
  4 29  1  0  0  0  0
  5  9  1  0  0  0  0
  5  4  1  1  0  0  0
  6 17  1  6  0  0  0
  6 18  1  0  0  0  0
  6  5  1  0  0  0  0
  7  6  1  0  0  0  0
  7  8  1  0  0  0  0
  8 10  1  0  0  0  0
  8  9  1  0  0  0  0
  9  1  1  1  0  0  0
 10 11  1  0  0  0  0
 11 12  2  0  0  0  0
 11 32  1  0  0  0  0
 12 33  1  0  0  0  0
 13 16  1  0  0  0  0
 13 12  1  0  0  0  0
 14 13  2  0  0  0  0
 15 14  1  0  0  0  0
 15 10  2  0  0  0  0
 17 36  1  0  0  0  0
 18 19  1  0  0  0  0
 19 20  2  0  0  0  0
 19 37  1  0  0  0  0
 20 38  1  0  0  0  0
 21 39  1  0  0  0  0
 21 20  1  0  0  0  0
 22 21  2  0  0  0  0
 23 22  1  0  0  0  0
 23 18  2  0  0  0  0
 24  2  1  0  0  0  0
 27  3  1  0  0  0  0
 28  4  1  0  0  0  0
 30  7  1  0  0  0  0
 31  7  1  0  0  0  0
 34 14  1  0  0  0  0
 35 15  1  0  0  0  0
 40 22  1  0  0  0  0
 41 23  1  0  0  0  0
M  END
>  <Pose>
1

>  <Score>
-4.21

$$$$
