
 OpenBabel03212208273D

 41 44  0  0  1  0  0  0  0  0999 V2000
   90.6590   96.7230  -45.7880 S   0  0  0  0  0  0  0  0  0  0  0  0
   89.3840   97.7270  -46.5980 C   0  0  0  0  0  0  0  0  0  0  0  0
   88.6500   98.4700  -45.4770 C   0  0  0  0  0  0  0  0  0  0  0  0
   89.6460   99.4440  -44.8280 C   0  0  0  0  0  0  0  0  0  0  0  0
   90.4200   98.6920  -43.8330 N   0  0  1  0  0  0  0  0  0  0  0  0
   90.8480   98.9800  -42.5250 C   0  0  2  0  0  0  0  0  0  0  0  0
   91.2870   97.6350  -41.9550 C   0  0  0  0  0  0  0  0  0  0  0  0
   91.2980   96.7600  -43.0860 N   0  0  0  0  0  0  0  0  0  0  0  0
   90.8500   97.3670  -44.1090 C   0  0  1  0  0  0  0  0  0  0  0  0
   91.7190   95.3900  -42.9900 C   0  0  0  0  0  0  0  0  0  0  0  0
   91.8870   94.6690  -44.1280 C   0  0  0  0  0  0  0  0  0  0  0  0
   92.3260   93.3540  -44.0080 C   0  0  0  0  0  0  0  0  0  0  0  0
   92.5930   92.7630  -42.7930 C   0  0  0  0  0  0  0  0  0  0  0  0
   92.4050   93.5350  -41.6650 C   0  0  0  0  0  0  0  0  0  0  0  0
   91.9730   94.8360  -41.7460 C   0  0  0  0  0  0  0  0  0  0  0  0
   89.7360   99.3720  -41.7460 O   0  0  0  0  0  0  0  0  0  0  0  0
   91.9210   99.9510  -42.3220 C   0  0  0  0  0  0  0  0  0  0  0  0
   92.1220  100.3850  -41.0130 C   0  0  0  0  0  0  0  0  0  0  0  0
   93.1140  101.2750  -40.6440 C   0  0  0  0  0  0  0  0  0  0  0  0
   93.9610  101.7800  -41.5920 C   0  0  0  0  0  0  0  0  0  0  0  0
   93.7770  101.3620  -42.8980 C   0  0  0  0  0  0  0  0  0  0  0  0
   92.7750  100.4640  -43.2550 C   0  0  0  0  0  0  0  0  0  0  0  0
   95.3730  103.0150  -41.1420 B   0  0  0  0  0  0  0  0  0  0  0  0
   89.8830   98.4480  -47.2660 H   0  0  0  0  0  0  0  0  0  0  0  0
   88.6510   97.0780  -47.1250 H   0  0  0  0  0  0  0  0  0  0  0  0
   87.8130   99.0250  -45.8910 H   0  0  0  0  0  0  0  0  0  0  0  0
   88.3150   97.7180  -44.7400 H   0  0  0  0  0  0  0  0  0  0  0  0
   90.2630   99.9240  -45.5800 H   0  0  0  0  0  0  0  0  0  0  0  0
   89.0220  100.2120  -44.3430 H   0  0  0  0  0  0  0  0  0  0  0  0
   90.5580   97.2850  -41.2010 H   0  0  0  0  0  0  0  0  0  0  0  0
   92.3300   97.6990  -41.5580 H   0  0  0  0  0  0  0  0  0  0  0  0
   91.6950   95.0620  -45.1430 H   0  0  0  0  0  0  0  0  0  0  0  0
   92.4500   92.7910  -44.9140 H   0  0  0  0  0  0  0  0  0  0  0  0
   92.9450   91.7230  -42.7170 H   0  0  0  0  0  0  0  0  0  0  0  0
   92.6060   93.0970  -40.6870 H   0  0  0  0  0  0  0  0  0  0  0  0
   91.8180   95.4690  -40.8610 H   0  0  0  0  0  0  0  0  0  0  0  0
   89.4900   98.5810  -41.1990 H   0  0  0  0  0  0  0  0  0  0  0  0
   91.4380   99.9800  -40.2680 H   0  0  0  0  0  0  0  0  0  0  0  0
   93.2290  101.5860  -39.5980 H   0  0  0  0  0  0  0  0  0  0  0  0
   94.4560  101.7630  -43.6400 H   0  0  0  0  0  0  0  0  0  0  0  0
   92.6500  100.1600  -44.2910 H   0  0  0  0  0  0  0  0  0  0  0  0
  2  1  1  0  0  0  0
  2  3  1  0  0  0  0
  3  4  1  0  0  0  0
  3 27  1  0  0  0  0
  4 29  1  0  0  0  0
  5  4  1  1  0  0  0
  5  6  1  0  0  0  0
  6 17  1  0  0  0  0
  6  7  1  0  0  0  0
  6 16  1  1  0  0  0
  7 31  1  0  0  0  0
  7 30  1  0  0  0  0
  8 10  1  0  0  0  0
  8  7  1  0  0  0  0
  9  1  1  1  0  0  0
  9  5  1  0  0  0  0
  9  8  1  0  0  0  0
 10 15  1  0  0  0  0
 11 12  1  0  0  0  0
 11 10  2  0  0  0  0
 12 13  2  0  0  0  0
 13 34  1  0  0  0  0
 13 14  1  0  0  0  0
 14 35  1  0  0  0  0
 15 14  2  0  0  0  0
 15 36  1  0  0  0  0
 16 37  1  0  0  0  0
 17 18  1  0  0  0  0
 18 19  2  0  0  0  0
 18 38  1  0  0  0  0
 19 39  1  0  0  0  0
 20 23  1  0  0  0  0
 20 19  1  0  0  0  0
 21 20  2  0  0  0  0
 22 21  1  0  0  0  0
 22 17  2  0  0  0  0
 24  2  1  0  0  0  0
 25  2  1  0  0  0  0
 26  3  1  0  0  0  0
 28  4  1  0  0  0  0
 32 11  1  0  0  0  0
 33 12  1  0  0  0  0
 40 21  1  0  0  0  0
 41 22  1  0  0  0  0
M  END
>  <Pose>
1

>  <Score>
-4.16

$$$$
