
 OpenBabel03212208273D

 45 49  0  0  1  0  0  0  0  0999 V2000
   84.3120  101.3350  -41.4910 S   0  0  0  0  0  0  0  0  0  0  0  0
   84.0430  102.8240  -42.5670 C   0  0  0  0  0  0  0  0  0  0  0  0
   85.0720  102.4860  -43.6150 C   0  0  0  0  0  0  0  0  0  0  0  0
   85.0220  101.0860  -43.9290 N   0  0  0  0  0  0  0  0  0  0  0  0
   84.6490  100.2460  -42.8590 C   0  0  0  0  0  0  0  0  0  0  0  0
   84.5890   98.9910  -43.0020 N   0  0  0  0  0  0  0  0  0  0  0  0
   84.9200   98.3300  -44.2390 C   0  0  0  0  0  0  0  0  0  0  0  0
   84.5000   97.1850  -44.5380 O   0  0  0  0  0  0  0  0  0  0  0  0
   85.8030   99.0650  -45.1860 C   0  0  1  0  0  0  0  0  0  0  0  0
   85.3360  100.4700  -45.2060 C   0  0  0  0  0  0  0  0  0  0  0  0
   85.1910  101.1650  -46.2410 O   0  0  0  0  0  0  0  0  0  0  0  0
   87.2010   98.9210  -44.6950 C   0  0  2  0  0  0  0  0  0  0  0  0
   87.9540  100.2250  -44.6020 C   0  0  2  0  0  0  0  0  0  0  0  0
   89.0820  100.3430  -45.5400 C   0  0  0  0  0  0  0  0  0  0  0  0
   88.8600  100.5890  -46.7770 O   0  0  0  0  0  0  0  0  0  0  0  0
   90.4430  100.1790  -45.0700 N   0  0  0  0  0  0  0  0  0  0  0  0
   91.6180  100.0300  -45.8830 C   0  0  0  0  0  0  0  0  0  0  0  0
   92.6500   99.1840  -45.1810 C   0  0  0  0  0  0  0  0  0  0  0  0
   92.4420   99.9280  -43.4960 S   0  0  0  0  0  0  0  0  0  0  0  0
   90.6790  100.1850  -43.6770 C   0  0  0  0  0  0  0  0  0  0  0  0
   89.7470  100.3320  -42.8170 N   0  0  0  0  0  0  0  0  0  0  0  0
   88.3750  100.5010  -43.2060 C   0  0  0  0  0  0  0  0  0  0  0  0
   87.5590  100.8860  -42.3310 O   0  0  0  0  0  0  0  0  0  0  0  0
   87.9070   97.9260  -45.5340 C   0  0  0  0  0  0  0  0  0  0  0  0
   89.1080   97.3680  -45.1170 C   0  0  0  0  0  0  0  0  0  0  0  0
   89.7730   96.4370  -45.8880 C   0  0  0  0  0  0  0  0  0  0  0  0
   89.2530   96.0380  -47.1000 C   0  0  0  0  0  0  0  0  0  0  0  0
   88.0750   96.5870  -47.5060 C   0  0  0  0  0  0  0  0  0  0  0  0
   87.3990   97.5190  -46.7460 C   0  0  0  0  0  0  0  0  0  0  0  0
   91.4240   95.6640  -45.3240 B   0  0  0  0  0  0  0  0  0  0  0  0
   83.0390  102.8010  -42.9910 H   0  0  0  0  0  0  0  0  0  0  0  0
   84.3250  103.7270  -42.0350 H   0  0  0  0  0  0  0  0  0  0  0  0
   84.8370  103.0870  -44.5150 H   0  0  0  0  0  0  0  0  0  0  0  0
   86.0670  102.7550  -43.1870 H   0  0  0  0  0  0  0  0  0  0  0  0
   85.7260   98.6230  -46.2130 H   0  0  0  0  0  0  0  0  0  0  0  0
   87.1600   98.5230  -43.6420 H   0  0  0  0  0  0  0  0  0  0  0  0
   87.2430  101.0740  -44.8450 H   0  0  0  0  0  0  0  0  0  0  0  0
   92.1180  101.0040  -46.0890 H   0  0  0  0  0  0  0  0  0  0  0  0
   91.3760   99.4890  -46.8210 H   0  0  0  0  0  0  0  0  0  0  0  0
   92.3940   98.1140  -45.1510 H   0  0  0  0  0  0  0  0  0  0  0  0
   93.6400   99.4080  -45.5700 H   0  0  0  0  0  0  0  0  0  0  0  0
   89.5300   97.6680  -44.1720 H   0  0  0  0  0  0  0  0  0  0  0  0
   89.7720   95.2980  -47.7250 H   0  0  0  0  0  0  0  0  0  0  0  0
   87.6360   96.2890  -48.4680 H   0  0  0  0  0  0  0  0  0  0  0  0
   86.4480   97.9210  -47.1350 H   0  0  0  0  0  0  0  0  0  0  0  0
  2 32  1  0  0  0  0
  2  1  1  0  0  0  0
  3 34  1  0  0  0  0
  3  2  1  0  0  0  0
  4  3  1  0  0  0  0
  4  5  1  0  0  0  0
  5  1  1  0  0  0  0
  6  5  2  0  0  0  0
  7  6  1  0  0  0  0
  8  7  2  0  0  0  0
  9 35  1  6  0  0  0
  9 12  1  0  0  0  0
  9  7  1  0  0  0  0
 10  9  1  0  0  0  0
 10  4  1  0  0  0  0
 11 10  2  0  0  0  0
 12 13  1  0  0  0  0
 12 36  1  1  0  0  0
 13 37  1  6  0  0  0
 13 22  1  0  0  0  0
 14 16  1  0  0  0  0
 14 13  1  0  0  0  0
 15 14  2  0  0  0  0
 16 20  1  0  0  0  0
 17 18  1  0  0  0  0
 17 16  1  0  0  0  0
 18 40  1  0  0  0  0
 18 19  1  0  0  0  0
 20 19  1  0  0  0  0
 20 21  2  0  0  0  0
 22 21  1  0  0  0  0
 22 23  2  0  0  0  0
 24 25  1  0  0  0  0
 24 12  1  0  0  0  0
 25 42  1  0  0  0  0
 26 30  1  0  0  0  0
 26 25  2  0  0  0  0
 27 26  1  0  0  0  0
 28 27  2  0  0  0  0
 28 29  1  0  0  0  0
 29 24  2  0  0  0  0
 31  2  1  0  0  0  0
 33  3  1  0  0  0  0
 38 17  1  0  0  0  0
 39 17  1  0  0  0  0
 41 18  1  0  0  0  0
 43 27  1  0  0  0  0
 44 28  1  0  0  0  0
 45 29  1  0  0  0  0
M  END
>  <Pose>
1

>  <Score>
-3.74

$$$$
