
 OpenBabel03212208273D

 45 49  0  0  1  0  0  0  0  0999 V2000
   91.1710  100.1420  -49.3300 S   0  0  0  0  0  0  0  0  0  0  0  0
   89.5350  100.9330  -49.0050 C   0  0  0  0  0  0  0  0  0  0  0  0
   89.8680  101.6350  -47.7270 C   0  0  0  0  0  0  0  0  0  0  0  0
   90.7320  100.8650  -46.9150 N   0  0  0  0  0  0  0  0  0  0  0  0
   91.6000   99.9730  -47.5780 C   0  0  0  0  0  0  0  0  0  0  0  0
   92.4600   99.2130  -46.9790 N   0  0  0  0  0  0  0  0  0  0  0  0
   92.6170   99.2700  -45.5340 C   0  0  0  0  0  0  0  0  0  0  0  0
   93.7580   98.9130  -45.1500 O   0  0  0  0  0  0  0  0  0  0  0  0
   91.4860   99.7170  -44.7700 C   0  0  1  0  0  0  0  0  0  0  0  0
   90.8480  100.8920  -45.4740 C   0  0  0  0  0  0  0  0  0  0  0  0
   90.4270  101.8730  -44.8350 O   0  0  0  0  0  0  0  0  0  0  0  0
   90.4690   98.8020  -44.2300 C   0  0  2  0  0  0  0  0  0  0  0  0
   89.9250   98.9570  -42.8750 C   0  0  1  0  0  0  0  0  0  0  0  0
   91.0960   98.8340  -41.8990 C   0  0  0  0  0  0  0  0  0  0  0  0
   91.5510   97.7030  -41.6120 O   0  0  0  0  0  0  0  0  0  0  0  0
   91.6760  100.0200  -41.3090 N   0  0  0  0  0  0  0  0  0  0  0  0
   92.9380  100.1370  -40.6640 C   0  0  0  0  0  0  0  0  0  0  0  0
   93.5080  101.5250  -40.8170 C   0  0  0  0  0  0  0  0  0  0  0  0
   91.9180  102.4530  -40.5850 S   0  0  0  0  0  0  0  0  0  0  0  0
   90.9020  101.2050  -41.3550 C   0  0  0  0  0  0  0  0  0  0  0  0
   89.7400  101.2800  -41.8740 N   0  0  0  0  0  0  0  0  0  0  0  0
   89.1390  100.0900  -42.4670 C   0  0  0  0  0  0  0  0  0  0  0  0
   87.9010  100.1320  -42.5860 O   0  0  0  0  0  0  0  0  0  0  0  0
   90.7260   97.3610  -44.6160 C   0  0  0  0  0  0  0  0  0  0  0  0
   90.1500   96.8160  -45.7380 C   0  0  0  0  0  0  0  0  0  0  0  0
   90.4020   95.5050  -46.0520 C   0  0  0  0  0  0  0  0  0  0  0  0
   91.2030   94.7050  -45.3000 C   0  0  0  0  0  0  0  0  0  0  0  0
   91.7920   95.2200  -44.1720 C   0  0  0  0  0  0  0  0  0  0  0  0
   91.5360   96.5540  -43.8530 C   0  0  0  0  0  0  0  0  0  0  0  0
   91.5500   92.8720  -45.7470 B   0  0  0  0  0  0  0  0  0  0  0  0
   89.3780  101.6650  -49.8220 H   0  0  0  0  0  0  0  0  0  0  0  0
   88.7470  100.1830  -48.9210 H   0  0  0  0  0  0  0  0  0  0  0  0
   90.2900  102.6480  -47.9600 H   0  0  0  0  0  0  0  0  0  0  0  0
   88.8930  101.7900  -47.2010 H   0  0  0  0  0  0  0  0  0  0  0  0
   91.9400  100.2340  -43.8390 H   0  0  0  0  0  0  0  0  0  0  0  0
   89.5440   99.0380  -44.9110 H   0  0  0  0  0  0  0  0  0  0  0  0
   89.3390   97.9970  -42.6060 H   0  0  0  0  0  0  0  0  0  0  0  0
   92.8680   99.9050  -39.5700 H   0  0  0  0  0  0  0  0  0  0  0  0
   93.6720   99.4570  -41.1480 H   0  0  0  0  0  0  0  0  0  0  0  0
   93.8680  101.7270  -41.8250 H   0  0  0  0  0  0  0  0  0  0  0  0
   94.1990  101.7550  -40.0110 H   0  0  0  0  0  0  0  0  0  0  0  0
   89.4980   97.4350  -46.3740 H   0  0  0  0  0  0  0  0  0  0  0  0
   89.9420   95.0860  -46.9400 H   0  0  0  0  0  0  0  0  0  0  0  0
   92.4410   94.6030  -43.5490 H   0  0  0  0  0  0  0  0  0  0  0  0
   92.0210   96.9260  -42.9520 H   0  0  0  0  0  0  0  0  0  0  0  0
  1  2  1  0  0  0  0
  1  5  1  0  0  0  0
  2 32  1  0  0  0  0
  2  3  1  0  0  0  0
  3 34  1  0  0  0  0
  3  4  1  0  0  0  0
  4 10  1  0  0  0  0
  5  6  2  0  0  0  0
  5  4  1  0  0  0  0
  6  7  1  0  0  0  0
  7  8  2  0  0  0  0
  7  9  1  0  0  0  0
  9 12  1  0  0  0  0
  9 35  1  1  0  0  0
 10 11  2  0  0  0  0
 10  9  1  0  0  0  0
 12 36  1  6  0  0  0
 12 13  1  0  0  0  0
 13 37  1  1  0  0  0
 13 22  1  0  0  0  0
 13 14  1  0  0  0  0
 14 15  2  0  0  0  0
 14 16  1  0  0  0  0
 16 17  1  0  0  0  0
 17 38  1  0  0  0  0
 18 17  1  0  0  0  0
 18 19  1  0  0  0  0
 18 41  1  0  0  0  0
 20 16  1  0  0  0  0
 20 19  1  0  0  0  0
 21 20  2  0  0  0  0
 22 21  1  0  0  0  0
 23 22  2  0  0  0  0
 24 12  1  0  0  0  0
 24 29  1  0  0  0  0
 25 24  2  0  0  0  0
 26 25  1  0  0  0  0
 26 27  2  0  0  0  0
 27 28  1  0  0  0  0
 28 29  2  0  0  0  0
 28 44  1  0  0  0  0
 29 45  1  0  0  0  0
 30 27  1  0  0  0  0
 31  2  1  0  0  0  0
 33  3  1  0  0  0  0
 39 17  1  0  0  0  0
 40 18  1  0  0  0  0
 42 25  1  0  0  0  0
 43 26  1  0  0  0  0
M  END
>  <Pose>
1

>  <Score>
-4.36

$$$$
