
 OpenBabel03212208273D

 25 28  0  0  0  0  0  0  0  0999 V2000
   92.3600   93.5360  -41.8650 S   0  0  0  0  0  0  0  0  0  0  0  0
   92.3530   95.1130  -41.1850 C   0  0  0  0  0  0  0  0  0  0  0  0
   91.9530   95.8420  -42.2260 N   0  0  0  0  0  0  0  0  0  0  0  0
   91.9260   97.1290  -41.7410 C   0  0  0  0  0  0  0  0  0  0  0  0
   92.3010   97.1300  -40.4630 N   0  0  0  0  0  0  0  0  0  0  0  0
   92.5730   95.8990  -40.0830 N   0  0  0  0  0  0  0  0  0  0  0  0
   91.5460   98.3370  -42.5030 C   0  0  0  0  0  0  0  0  0  0  0  0
   90.2620   98.5810  -42.8240 N   0  0  0  0  0  0  0  0  0  0  0  0
   89.9260   99.6890  -43.5210 C   0  0  0  0  0  0  0  0  0  0  0  0
   90.8890  100.5790  -43.9100 C   0  0  0  0  0  0  0  0  0  0  0  0
   92.1570  100.3250  -43.5830 N   0  0  0  0  0  0  0  0  0  0  0  0
   92.5200   99.2250  -42.8880 C   0  0  0  0  0  0  0  0  0  0  0  0
   91.7050   95.2610  -43.3300 N   0  0  0  0  0  0  0  0  0  0  0  0
   91.8390   93.9550  -43.4550 C   0  0  0  0  0  0  0  0  0  0  0  0
   91.6120   93.0870  -44.6150 C   0  0  0  0  0  0  0  0  0  0  0  0
   91.7770   91.7600  -44.6660 N   0  0  0  0  0  0  0  0  0  0  0  0
   91.4700   91.3240  -45.8990 N   0  0  0  0  0  0  0  0  0  0  0  0
   91.1030   92.3790  -46.6520 C   0  0  0  0  0  0  0  0  0  0  0  0
   91.1940   93.5050  -45.8300 C   0  0  0  0  0  0  0  0  0  0  0  0
   90.7880   95.2560  -46.3990 B   0  0  0  0  0  0  0  0  0  0  0  0
   88.8990   99.8430  -43.7540 H   0  0  0  0  0  0  0  0  0  0  0  0
   90.6240  101.4520  -44.4570 H   0  0  0  0  0  0  0  0  0  0  0  0
   93.5610   99.0250  -42.6270 H   0  0  0  0  0  0  0  0  0  0  0  0
   91.5160   90.3250  -46.2040 H   0  0  0  0  0  0  0  0  0  0  0  0
   90.8060   92.3050  -47.6860 H   0  0  0  0  0  0  0  0  0  0  0  0
  1  2  1  0  0  0  0
  2  6  2  0  0  0  0
  3  4  1  0  0  0  0
  3  2  1  0  0  0  0
  4  5  2  0  0  0  0
  5  6  1  0  0  0  0
  7  4  1  0  0  0  0
  8  7  1  0  0  0  0
  9  8  2  0  0  0  0
 10 11  2  0  0  0  0
 10  9  1  0  0  0  0
 11 12  1  0  0  0  0
 12 23  1  0  0  0  0
 12  7  2  0  0  0  0
 13  3  1  0  0  0  0
 14 13  2  0  0  0  0
 14  1  1  0  0  0  0
 15 14  1  0  0  0  0
 16 15  2  0  0  0  0
 17 16  1  0  0  0  0
 18 17  1  0  0  0  0
 18 19  2  0  0  0  0
 19 15  1  0  0  0  0
 20 19  1  0  0  0  0
 21  9  1  0  0  0  0
 22 10  1  0  0  0  0
 24 17  1  0  0  0  0
 25 18  1  0  0  0  0
M  END
>  <Pose>
1

>  <Score>
-6.45

$$$$
