
 OpenBabel03212208273D

 45 49  0  0  1  0  0  0  0  0999 V2000
   91.6650  101.6550  -40.5040 S   0  0  0  0  0  0  0  0  0  0  0  0
   90.6370  100.5460  -41.4530 C   0  0  0  0  0  0  0  0  0  0  0  0
   89.3800  100.6020  -41.7530 N   0  0  0  0  0  0  0  0  0  0  0  0
   88.7890   99.5520  -42.5520 C   0  0  0  0  0  0  0  0  0  0  0  0
   87.6160   99.1850  -42.5000 O   0  0  0  0  0  0  0  0  0  0  0  0
   89.7200   98.8510  -43.5400 C   0  0  2  0  0  0  0  0  0  0  0  0
   90.8510   98.4430  -42.6490 C   0  0  0  0  0  0  0  0  0  0  0  0
   91.2650   97.2520  -42.5570 O   0  0  0  0  0  0  0  0  0  0  0  0
   91.4830   99.4910  -41.8580 N   0  0  0  0  0  0  0  0  0  0  0  0
   92.7870   99.5710  -41.4510 N   0  0  0  0  0  0  0  0  0  0  0  0
   93.1600  100.6910  -40.6750 C   0  0  0  0  0  0  0  0  0  0  0  0
   94.3500  100.9940  -40.1670 C   0  0  0  0  0  0  0  0  0  0  0  0
   90.1400   99.8520  -44.5790 C   0  0  1  0  0  0  0  0  0  0  0  0
   90.5410   99.3340  -45.9020 C   0  0  2  0  0  0  0  0  0  0  0  0
   90.2520   97.9410  -46.2070 C   0  0  0  0  0  0  0  0  0  0  0  0
   89.2580   97.6420  -46.9520 O   0  0  0  0  0  0  0  0  0  0  0  0
   91.0700   96.8620  -45.6840 N   0  0  0  0  0  0  0  0  0  0  0  0
   90.7210   95.5640  -45.4920 N   0  0  0  0  0  0  0  0  0  0  0  0
   91.7110   94.6940  -44.9720 C   0  0  0  0  0  0  0  0  0  0  0  0
   91.6400   93.4090  -44.7000 C   0  0  0  0  0  0  0  0  0  0  0  0
   93.1530   95.7310  -44.7430 S   0  0  0  0  0  0  0  0  0  0  0  0
   92.3900   97.2250  -45.3470 C   0  0  0  0  0  0  0  0  0  0  0  0
   92.8650   98.4130  -45.4790 N   0  0  0  0  0  0  0  0  0  0  0  0
   92.0500   99.4780  -45.9950 C   0  0  0  0  0  0  0  0  0  0  0  0
   92.4950  100.5130  -46.5140 O   0  0  0  0  0  0  0  0  0  0  0  0
   89.1220  100.9300  -44.7390 C   0  0  0  0  0  0  0  0  0  0  0  0
   89.4000  102.2310  -44.3850 C   0  0  0  0  0  0  0  0  0  0  0  0
   88.4640  103.2290  -44.5290 C   0  0  0  0  0  0  0  0  0  0  0  0
   87.2210  102.9270  -45.0380 C   0  0  0  0  0  0  0  0  0  0  0  0
   86.8990  101.6200  -45.4090 C   0  0  0  0  0  0  0  0  0  0  0  0
   87.8640  100.6470  -45.2490 C   0  0  0  0  0  0  0  0  0  0  0  0
   85.9000  104.2930  -45.2510 B   0  0  0  0  0  0  0  0  0  0  0  0
   89.1900   97.9890  -43.9300 H   0  0  0  0  0  0  0  0  0  0  0  0
   93.5360   98.8270  -41.6830 H   0  0  0  0  0  0  0  0  0  0  0  0
   94.4450  101.9030  -39.5940 H   0  0  0  0  0  0  0  0  0  0  0  0
   95.2040  100.3800  -40.3040 H   0  0  0  0  0  0  0  0  0  0  0  0
   91.0620  100.3680  -44.1540 H   0  0  0  0  0  0  0  0  0  0  0  0
   90.1300   99.9370  -46.7570 H   0  0  0  0  0  0  0  0  0  0  0  0
   89.7510   95.1440  -45.7070 H   0  0  0  0  0  0  0  0  0  0  0  0
   92.5000   92.9100  -44.3060 H   0  0  0  0  0  0  0  0  0  0  0  0
   90.7400   92.8510  -44.8620 H   0  0  0  0  0  0  0  0  0  0  0  0
   90.3590  102.5260  -43.9800 H   0  0  0  0  0  0  0  0  0  0  0  0
   88.6750  104.2480  -44.2550 H   0  0  0  0  0  0  0  0  0  0  0  0
   85.9200  101.3760  -45.8120 H   0  0  0  0  0  0  0  0  0  0  0  0
   87.6850   99.6040  -45.5170 H   0  0  0  0  0  0  0  0  0  0  0  0
  2  1  1  0  0  0  0
  3  2  2  0  0  0  0
  4  5  2  0  0  0  0
  4  3  1  0  0  0  0
  6 33  1  6  0  0  0
  6  7  1  0  0  0  0
  6  4  1  0  0  0  0
  7  8  2  0  0  0  0
  7  9  1  0  0  0  0
  9  2  1  0  0  0  0
  9 10  1  0  0  0  0
 10 11  1  0  0  0  0
 11  1  1  0  0  0  0
 11 12  2  0  0  0  0
 12 35  1  0  0  0  0
 13 37  1  1  0  0  0
 13  6  1  0  0  0  0
 14 38  1  6  0  0  0
 14 13  1  0  0  0  0
 15 14  1  0  0  0  0
 15 17  1  0  0  0  0
 16 15  2  0  0  0  0
 17 18  1  0  0  0  0
 17 22  1  0  0  0  0
 18 19  1  0  0  0  0
 19 21  1  0  0  0  0
 19 20  2  0  0  0  0
 20 40  1  0  0  0  0
 22 21  1  0  0  0  0
 23 22  2  0  0  0  0
 24 14  1  0  0  0  0
 24 23  1  0  0  0  0
 25 24  2  0  0  0  0
 26 13  1  0  0  0  0
 26 27  1  0  0  0  0
 27 42  1  0  0  0  0
 28 27  2  0  0  0  0
 28 43  1  0  0  0  0
 29 28  1  0  0  0  0
 30 31  1  0  0  0  0
 30 29  2  0  0  0  0
 31 26  2  0  0  0  0
 32 29  1  0  0  0  0
 34 10  1  0  0  0  0
 36 12  1  0  0  0  0
 39 18  1  0  0  0  0
 41 20  1  0  0  0  0
 44 30  1  0  0  0  0
 45 31  1  0  0  0  0
M  END
>  <Pose>
1

>  <Score>
-4.39

$$$$
