
 OpenBabel03212208273D

 47 50  0  0  0  0  0  0  0  0999 V2000
   91.9650   92.8400  -42.8190 S   0  0  0  0  0  0  0  0  0  0  0  0
   91.9570   94.5130  -42.4520 C   0  0  0  0  0  0  0  0  0  0  0  0
   92.1280   95.2410  -41.3050 N   0  0  0  0  0  0  0  0  0  0  0  0
   92.1010   96.5830  -41.3240 C   0  0  0  0  0  0  0  0  0  0  0  0
   92.2480   97.3250  -40.3340 O   0  0  0  0  0  0  0  0  0  0  0  0
   91.8920   97.1450  -42.5610 C   0  0  0  0  0  0  0  0  0  0  0  0
   91.7200   96.4280  -43.7080 C   0  0  0  0  0  0  0  0  0  0  0  0
   91.7550   95.0560  -43.6560 N   0  0  0  0  0  0  0  0  0  0  0  0
   91.6360   94.2670  -44.6530 N   0  0  0  0  0  0  0  0  0  0  0  0
   91.7050   92.9730  -44.5210 C   0  0  0  0  0  0  0  0  0  0  0  0
   91.6170   91.9260  -45.5160 N   0  0  0  0  0  0  0  0  0  0  0  0
   91.5900   92.2430  -46.8930 C   0  0  0  0  0  0  0  0  0  0  0  0
   91.4010   90.9910  -47.7160 C   0  0  0  0  0  0  0  0  0  0  0  0
   90.4830   90.1490  -47.0840 O   0  0  0  0  0  0  0  0  0  0  0  0
   91.0630   89.5670  -45.9500 C   0  0  0  0  0  0  0  0  0  0  0  0
   91.5610   90.6040  -44.9910 C   0  0  0  0  0  0  0  0  0  0  0  0
   91.5190   97.1690  -44.9520 C   0  0  0  0  0  0  0  0  0  0  0  0
   92.4130   98.0110  -45.3330 O   0  0  0  0  0  0  0  0  0  0  0  0
   90.3940   97.0400  -45.7910 N   0  0  0  0  0  0  0  0  0  0  0  0
   89.6080   98.2190  -46.1340 C   0  0  0  0  0  0  0  0  0  0  0  0
   88.5780   98.4820  -45.0990 C   0  0  0  0  0  0  0  0  0  0  0  0
   88.9280   99.1960  -43.9640 C   0  0  0  0  0  0  0  0  0  0  0  0
   87.9930   99.4090  -42.9820 C   0  0  0  0  0  0  0  0  0  0  0  0
   86.7110   98.9360  -43.0800 C   0  0  0  0  0  0  0  0  0  0  0  0
   86.3530   98.2240  -44.2090 C   0  0  0  0  0  0  0  0  0  0  0  0
   87.2980   98.0120  -45.1990 C   0  0  0  0  0  0  0  0  0  0  0  0
   84.5860   97.5360  -44.4270 B   0  0  0  0  0  0  0  0  0  0  0  0
   90.2200   99.6650  -43.8760 O   0  0  0  0  0  0  0  0  0  0  0  0
   90.7080  100.0630  -42.5950 C   0  0  0  0  0  0  0  0  0  0  0  0
   91.8680   98.2410  -42.6000 H   0  0  0  0  0  0  0  0  0  0  0  0
   92.5330   92.7750  -47.1990 H   0  0  0  0  0  0  0  0  0  0  0  0
   90.7510   92.9230  -47.1820 H   0  0  0  0  0  0  0  0  0  0  0  0
   92.3910   90.4690  -47.7360 H   0  0  0  0  0  0  0  0  0  0  0  0
   91.0100   91.2320  -48.7090 H   0  0  0  0  0  0  0  0  0  0  0  0
   90.3020   88.8810  -45.4740 H   0  0  0  0  0  0  0  0  0  0  0  0
   91.8770   88.8840  -46.3090 H   0  0  0  0  0  0  0  0  0  0  0  0
   90.9590   90.5680  -44.0330 H   0  0  0  0  0  0  0  0  0  0  0  0
   92.6200   90.3040  -44.7170 H   0  0  0  0  0  0  0  0  0  0  0  0
   90.1030   96.1180  -46.1690 H   0  0  0  0  0  0  0  0  0  0  0  0
   89.0420   98.0280  -47.0960 H   0  0  0  0  0  0  0  0  0  0  0  0
   90.2230   99.1070  -46.3260 H   0  0  0  0  0  0  0  0  0  0  0  0
   88.2840   99.9720  -42.0890 H   0  0  0  0  0  0  0  0  0  0  0  0
   85.9610   99.0990  -42.3040 H   0  0  0  0  0  0  0  0  0  0  0  0
   86.9510   97.4400  -46.0610 H   0  0  0  0  0  0  0  0  0  0  0  0
   91.7580  100.3960  -42.6830 H   0  0  0  0  0  0  0  0  0  0  0  0
   90.1310  100.9100  -42.1820 H   0  0  0  0  0  0  0  0  0  0  0  0
   90.5840   99.2160  -41.9030 H   0  0  0  0  0  0  0  0  0  0  0  0
  1  2  1  0  0  0  0
  2  3  2  0  0  0  0
  4  3  1  0  0  0  0
  4  5  2  0  0  0  0
  6  4  1  0  0  0  0
  7  8  1  0  0  0  0
  7  6  2  0  0  0  0
  8  2  1  0  0  0  0
  9 10  2  0  0  0  0
  9  8  1  0  0  0  0
 10  1  1  0  0  0  0
 11 16  1  0  0  0  0
 11 10  1  0  0  0  0
 12 11  1  0  0  0  0
 13 14  1  0  0  0  0
 13 12  1  0  0  0  0
 14 15  1  0  0  0  0
 15 35  1  0  0  0  0
 15 16  1  0  0  0  0
 16 38  1  0  0  0  0
 16 37  1  0  0  0  0
 17  7  1  0  0  0  0
 18 17  2  0  0  0  0
 19 17  1  0  0  0  0
 20 19  1  0  0  0  0
 20 21  1  0  0  0  0
 21 22  1  0  0  0  0
 22 28  1  0  0  0  0
 22 23  2  0  0  0  0
 23 42  1  0  0  0  0
 24 23  1  0  0  0  0
 24 43  1  0  0  0  0
 25 24  2  0  0  0  0
 26 21  2  0  0  0  0
 26 25  1  0  0  0  0
 27 25  1  0  0  0  0
 28 29  1  0  0  0  0
 29 46  1  0  0  0  0
 29 47  1  0  0  0  0
 30  6  1  0  0  0  0
 31 12  1  0  0  0  0
 32 12  1  0  0  0  0
 33 13  1  0  0  0  0
 34 13  1  0  0  0  0
 36 15  1  0  0  0  0
 39 19  1  0  0  0  0
 40 20  1  0  0  0  0
 41 20  1  0  0  0  0
 44 26  1  0  0  0  0
 45 29  1  0  0  0  0
M  END
>  <Pose>
1

>  <Score>
-6.23

$$$$
