
 OpenBabel03212208273D

 40 43  0  0  1  0  0  0  0  0999 V2000
   91.4860   98.0010  -42.3920 S   0  0  0  0  0  0  0  0  0  0  0  0
   91.8230   98.4810  -44.0810 C   0  0  1  0  0  0  0  0  0  0  0  0
   91.6370   98.1130  -45.3060 N   0  0  0  0  0  0  0  0  0  0  0  0
   92.2140   99.0260  -46.2200 C   0  0  0  0  0  0  0  0  0  0  0  0
   92.8220  100.0860  -45.3610 C   0  0  0  0  0  0  0  0  0  0  0  0
   92.5360   99.6880  -43.9620 N   0  0  0  0  0  0  0  0  0  0  0  0
   92.7660  100.1480  -42.6610 C   0  0  0  0  0  0  0  0  0  0  0  0
   92.3020   99.4180  -41.6720 C   0  0  0  0  0  0  0  0  0  0  0  0
   93.4900  101.4180  -42.3260 C   0  0  0  0  0  0  0  0  0  0  0  0
   94.1250  101.5860  -41.1160 C   0  0  0  0  0  0  0  0  0  0  0  0
   94.8010  102.7330  -40.7560 C   0  0  0  0  0  0  0  0  0  0  0  0
   94.8680  103.7950  -41.6290 C   0  0  0  0  0  0  0  0  0  0  0  0
   94.2440  103.6530  -42.8360 C   0  0  0  0  0  0  0  0  0  0  0  0
   93.5570  102.4780  -43.1930 C   0  0  0  0  0  0  0  0  0  0  0  0
   90.8930   96.8840  -45.6340 C   0  0  0  0  0  0  0  0  0  0  0  0
   89.6840   97.2980  -46.3740 C   0  0  0  0  0  0  0  0  0  0  0  0
   89.6950   97.4270  -47.6150 O   0  0  0  0  0  0  0  0  0  0  0  0
   88.4450   97.5650  -45.6580 C   0  0  0  0  0  0  0  0  0  0  0  0
   87.2340   97.0180  -46.0860 C   0  0  0  0  0  0  0  0  0  0  0  0
   86.0430   97.2630  -45.4290 C   0  0  0  0  0  0  0  0  0  0  0  0
   86.0810   98.0710  -44.3240 C   0  0  0  0  0  0  0  0  0  0  0  0
   87.2540   98.6360  -43.8590 C   0  0  0  0  0  0  0  0  0  0  0  0
   88.4450   98.3740  -44.5400 C   0  0  0  0  0  0  0  0  0  0  0  0
   84.4220   98.4030  -43.4190 B   0  0  0  0  0  0  0  0  0  0  0  0
   91.4660   99.4410  -46.9530 H   0  0  0  0  0  0  0  0  0  0  0  0
   92.9570   98.4970  -46.8740 H   0  0  0  0  0  0  0  0  0  0  0  0
   92.2970  101.0340  -45.6030 H   0  0  0  0  0  0  0  0  0  0  0  0
   93.9030  100.0840  -45.5740 H   0  0  0  0  0  0  0  0  0  0  0  0
   92.3750   99.5970  -40.5820 H   0  0  0  0  0  0  0  0  0  0  0  0
   94.1150  100.7890  -40.3750 H   0  0  0  0  0  0  0  0  0  0  0  0
   95.2820  102.8100  -39.7940 H   0  0  0  0  0  0  0  0  0  0  0  0
   95.3950  104.6890  -41.3450 H   0  0  0  0  0  0  0  0  0  0  0  0
   94.2610  104.4580  -43.5700 H   0  0  0  0  0  0  0  0  0  0  0  0
   93.0880  102.4210  -44.1550 H   0  0  0  0  0  0  0  0  0  0  0  0
   91.5800   96.3410  -46.3440 H   0  0  0  0  0  0  0  0  0  0  0  0
   90.7020   96.2830  -44.7480 H   0  0  0  0  0  0  0  0  0  0  0  0
   87.2350   96.3890  -46.9520 H   0  0  0  0  0  0  0  0  0  0  0  0
   85.1190   96.8450  -45.7590 H   0  0  0  0  0  0  0  0  0  0  0  0
   87.2870   99.2690  -42.9950 H   0  0  0  0  0  0  0  0  0  0  0  0
   89.3450   98.8290  -44.1530 H   0  0  0  0  0  0  0  0  0  0  0  0
  1  8  1  0  0  0  0
  2  6  1  0  0  0  0
  2  1  1  6  0  0  0
  3  2  1  0  0  0  0
  4  5  1  0  0  0  0
  4  3  1  0  0  0  0
  5  6  1  0  0  0  0
  6  7  1  0  0  0  0
  7  9  1  0  0  0  0
  7  8  2  0  0  0  0
  8 29  1  0  0  0  0
  9 10  1  0  0  0  0
 10 11  2  0  0  0  0
 10 30  1  0  0  0  0
 11 31  1  0  0  0  0
 12 32  1  0  0  0  0
 12 11  1  0  0  0  0
 13 12  2  0  0  0  0
 14 13  1  0  0  0  0
 14  9  2  0  0  0  0
 15  3  1  0  0  0  0
 15 36  1  0  0  0  0
 16 18  1  0  0  0  0
 16 15  1  0  0  0  0
 17 16  2  0  0  0  0
 18 23  1  0  0  0  0
 19 18  2  0  0  0  0
 19 20  1  0  0  0  0
 20 21  2  0  0  0  0
 21 22  1  0  0  0  0
 21 24  1  0  0  0  0
 22 39  1  0  0  0  0
 23 40  1  0  0  0  0
 23 22  2  0  0  0  0
 25  4  1  0  0  0  0
 26  4  1  0  0  0  0
 27  5  1  0  0  0  0
 28  5  1  0  0  0  0
 33 13  1  0  0  0  0
 34 14  1  0  0  0  0
 35 15  1  0  0  0  0
 37 19  1  0  0  0  0
 38 20  1  0  0  0  0
M  END
>  <Pose>
1

>  <Score>
-4.63

$$$$
