
 OpenBabel03212208273D

 63 66  0  0  1  0  0  0  0  0999 V2000
   93.8080  101.1400  -40.1480 B   0  0  0  0  0  0  0  0  0  0  0  0
   93.4700  101.6050  -41.9810 C   0  0  0  0  0  0  0  0  0  0  0  0
   92.4770  100.9380  -42.7080 C   0  0  0  0  0  0  0  0  0  0  0  0
   92.2140  101.2540  -44.0330 C   0  0  0  0  0  0  0  0  0  0  0  0
   92.9710  102.2470  -44.5920 C   0  0  0  0  0  0  0  0  0  0  0  0
   93.9610  102.9190  -43.8870 C   0  0  0  0  0  0  0  0  0  0  0  0
   94.2090  102.5950  -42.5740 C   0  0  0  0  0  0  0  0  0  0  0  0
   91.1800  100.5190  -44.7770 C   0  0  1  0  0  0  0  0  0  0  0  0
   91.3150  100.7580  -46.2000 N   0  0  0  0  0  0  0  0  0  0  0  0
   92.3560   99.9150  -46.6620 C   0  0  0  0  0  0  0  0  0  0  0  0
   93.0620  100.1270  -47.6540 O   0  0  0  0  0  0  0  0  0  0  0  0
   92.4100   98.7710  -45.7350 C   0  0  0  0  0  0  0  0  0  0  0  0
   93.1830   97.7830  -45.7800 O   0  0  0  0  0  0  0  0  0  0  0  0
   91.3660   99.0290  -44.7520 C   0  0  0  0  0  0  0  0  0  0  0  0
   90.7260   98.1060  -44.0480 C   0  0  0  0  0  0  0  0  0  0  0  0
   89.7140   98.5920  -43.1870 O   0  0  0  0  0  0  0  0  0  0  0  0
   91.0130   96.6780  -44.1220 C   0  0  0  0  0  0  0  0  0  0  0  0
   91.5290   95.9400  -43.0990 C   0  0  0  0  0  0  0  0  0  0  0  0
   91.8220   94.5750  -43.2730 C   0  0  0  0  0  0  0  0  0  0  0  0
   91.6090   93.9210  -44.4560 C   0  0  0  0  0  0  0  0  0  0  0  0
   91.0850   94.6650  -45.4920 C   0  0  0  0  0  0  0  0  0  0  0  0
   90.7950   95.9950  -45.3340 C   0  0  0  0  0  0  0  0  0  0  0  0
   91.8960   92.5670  -44.6340 O   0  0  0  0  0  0  0  0  0  0  0  0
   91.7760   91.9700  -45.8990 C   0  0  0  0  0  0  0  0  0  0  0  0
   91.7470   96.5510  -41.7680 C   0  0  0  0  0  0  0  0  0  0  0  0
   90.5110  101.7000  -46.9500 C   0  0  0  0  0  0  0  0  0  0  0  0
   89.0510  101.6310  -46.6310 C   0  0  0  0  0  0  0  0  0  0  0  0
   88.3230  100.4620  -47.1790 C   0  0  0  0  0  0  0  0  0  0  0  0
   87.5940   99.6940  -46.2330 N   0  0  0  0  0  4  0  0  0  0  0  0
   86.4650  100.4200  -45.6270 C   0  0  0  0  0  0  0  0  0  0  0  0
   86.1910   99.7020  -44.3040 C   0  0  0  0  0  0  0  0  0  0  0  0
   86.8530   98.4900  -44.2220 O   0  0  0  0  0  0  0  0  0  0  0  0
   86.6170   97.7160  -45.3580 C   0  0  0  0  0  0  0  0  0  0  0  0
   87.0970   98.4290  -46.6360 C   0  0  0  0  0  0  0  0  0  0  0  0
   91.9420  100.1800  -42.1830 H   0  0  0  0  0  0  0  0  0  0  0  0
   92.8150  102.5120  -45.6100 H   0  0  0  0  0  0  0  0  0  0  0  0
   94.5500  103.6990  -44.3380 H   0  0  0  0  0  0  0  0  0  0  0  0
   94.9740  103.0900  -41.9700 H   0  0  0  0  0  0  0  0  0  0  0  0
   90.1950  100.8290  -44.3690 H   0  0  0  0  0  0  0  0  0  0  0  0
   92.2400   94.0020  -42.4370 H   0  0  0  0  0  0  0  0  0  0  0  0
   90.9150   94.1360  -46.4370 H   0  0  0  0  0  0  0  0  0  0  0  0
   90.3850   96.5570  -46.1560 H   0  0  0  0  0  0  0  0  0  0  0  0
   90.7230   92.0270  -46.2870 H   0  0  0  0  0  0  0  0  0  0  0  0
   92.0180   90.9030  -45.8780 H   0  0  0  0  0  0  0  0  0  0  0  0
   92.3950   92.4510  -46.6870 H   0  0  0  0  0  0  0  0  0  0  0  0
   92.0650   97.6000  -41.7870 H   0  0  0  0  0  0  0  0  0  0  0  0
   92.5830   96.0050  -41.2320 H   0  0  0  0  0  0  0  0  0  0  0  0
   90.8560   96.3780  -41.0980 H   0  0  0  0  0  0  0  0  0  0  0  0
   90.8620  102.7220  -46.6660 H   0  0  0  0  0  0  0  0  0  0  0  0
   90.6640  101.6310  -48.0420 H   0  0  0  0  0  0  0  0  0  0  0  0
   88.9830  101.7090  -45.5090 H   0  0  0  0  0  0  0  0  0  0  0  0
   88.5660  102.5890  -46.9920 H   0  0  0  0  0  0  0  0  0  0  0  0
   89.0840   99.7830  -47.6390 H   0  0  0  0  0  0  0  0  0  0  0  0
   87.6730  100.8080  -48.0110 H   0  0  0  0  0  0  0  0  0  0  0  0
   88.2520   99.5130  -45.4150 H   0  0  0  0  0  0  0  0  0  0  0  0
   86.6780  101.4800  -45.4730 H   0  0  0  0  0  0  0  0  0  0  0  0
   85.6060  100.3080  -46.3300 H   0  0  0  0  0  0  0  0  0  0  0  0
   86.5980  100.3320  -43.4600 H   0  0  0  0  0  0  0  0  0  0  0  0
   85.1130   99.6490  -44.1220 H   0  0  0  0  0  0  0  0  0  0  0  0
   85.5260   97.5120  -45.3840 H   0  0  0  0  0  0  0  0  0  0  0  0
   87.1060   96.7230  -45.2380 H   0  0  0  0  0  0  0  0  0  0  0  0
   86.2140   98.4730  -47.3010 H   0  0  0  0  0  0  0  0  0  0  0  0
   87.9040   97.7950  -47.0460 H   0  0  0  0  0  0  0  0  0  0  0  0
  2  1  1  0  0  0  0
  3 35  1  0  0  0  0
  3  2  2  0  0  0  0
  4  3  1  0  0  0  0
  5  4  2  0  0  0  0
  5  6  1  0  0  0  0
  6  7  2  0  0  0  0
  7  2  1  0  0  0  0
  7 38  1  0  0  0  0
  8 14  1  0  0  0  0
  8 39  1  1  0  0  0
  8  4  1  0  0  0  0
  9  8  1  0  0  0  0
 10  9  1  0  0  0  0
 10 12  1  0  0  0  0
 11 10  2  0  0  0  0
 12 14  1  0  0  0  0
 13 12  2  0  0  0  0
 14 15  2  0  0  0  0
 15 16  1  0  0  0  0
 17 15  1  0  0  0  0
 17 18  1  0  0  0  0
 18 25  1  0  0  0  0
 19 18  2  0  0  0  0
 19 40  1  0  0  0  0
 20 19  1  0  0  0  0
 21 22  1  0  0  0  0
 21 20  2  0  0  0  0
 22 17  2  0  0  0  0
 23 20  1  0  0  0  0
 24 44  1  0  0  0  0
 24 23  1  0  0  0  0
 25 47  1  0  0  0  0
 25 48  1  0  0  0  0
 26 49  1  0  0  0  0
 26 27  1  0  0  0  0
 26  9  1  0  0  0  0
 27 51  1  0  0  0  0
 28 27  1  0  0  0  0
 28 29  1  0  0  0  0
 29 30  1  0  0  0  0
 29 55  1  0  0  0  0
 30 56  1  0  0  0  0
 30 31  1  0  0  0  0
 31 32  1  0  0  0  0
 31 59  1  0  0  0  0
 31 58  1  0  0  0  0
 33 61  1  0  0  0  0
 33 32  1  0  0  0  0
 34 29  1  0  0  0  0
 34 33  1  0  0  0  0
 36  5  1  0  0  0  0
 37  6  1  0  0  0  0
 41 21  1  0  0  0  0
 42 22  1  0  0  0  0
 43 24  1  0  0  0  0
 45 24  1  0  0  0  0
 46 25  1  0  0  0  0
 50 26  1  0  0  0  0
 52 27  1  0  0  0  0
 53 28  1  0  0  0  0
 54 28  1  0  0  0  0
 57 30  1  0  0  0  0
 60 33  1  0  0  0  0
 62 34  1  0  0  0  0
 63 34  1  0  0  0  0
M  END
>  <Pose>
1

>  <Score>
-4.68

$$$$
