
 OpenBabel03212208273D

 48 51  0  0  1  0  0  0  0  0999 V2000
   90.2290   90.6420  -50.6910 B   0  0  0  0  0  0  0  0  0  0  0  0
   91.1990   90.7150  -49.0430 C   0  0  0  0  0  0  0  0  0  0  0  0
   90.8920   91.6620  -48.1050 C   0  0  0  0  0  0  0  0  0  0  0  0
   91.5900   91.7220  -46.9060 C   0  0  0  0  0  0  0  0  0  0  0  0
   92.5830   90.8170  -46.6970 C   0  0  0  0  0  0  0  0  0  0  0  0
   92.8870   89.8610  -47.6540 C   0  0  0  0  0  0  0  0  0  0  0  0
   92.1940   89.8030  -48.8380 C   0  0  0  0  0  0  0  0  0  0  0  0
   91.2640   92.7330  -45.9140 C   0  0  0  0  0  0  0  0  0  0  0  0
   90.2750   92.5140  -45.1220 O   0  0  0  0  0  0  0  0  0  0  0  0
   91.9920   93.9340  -45.7980 N   0  0  0  0  0  0  0  0  0  0  0  0
   91.4200   94.9880  -44.9790 C   0  0  2  0  0  0  0  0  0  0  0  0
   92.1030   96.3180  -45.2290 C   0  0  0  0  0  0  0  0  0  0  0  0
   91.8620   97.0420  -43.9960 N   0  0  0  0  0  0  0  0  0  0  0  0
   91.2820   96.1760  -42.9900 C   0  0  1  0  0  0  0  0  0  0  0  0
   91.6730   94.7870  -43.5120 C   0  0  0  0  0  0  0  0  0  0  0  0
   91.9120   96.4690  -41.7040 C   0  0  0  0  0  0  0  0  0  0  0  0
   92.4240   95.5750  -41.0140 O   0  0  0  0  0  0  0  0  0  0  0  0
   91.9210   97.8170  -41.2620 N   0  0  0  0  0  0  0  0  0  0  0  0
   91.8790   98.8850  -42.2340 C   0  0  1  0  0  0  0  0  0  0  0  0
   92.0880   98.4080  -43.6200 C   0  0  0  0  0  0  0  0  0  0  0  0
   92.4770   99.2150  -44.5050 O   0  0  0  0  0  0  0  0  0  0  0  0
   90.6330   99.7370  -42.1080 C   0  0  0  0  0  0  0  0  0  0  0  0
   90.9090  101.1020  -41.6300 C   0  0  0  0  0  0  0  0  0  0  0  0
   91.6210  101.2900  -40.4600 C   0  0  0  0  0  0  0  0  0  0  0  0
   91.8830  102.5630  -40.0070 C   0  0  0  0  0  0  0  0  0  0  0  0
   91.4600  103.6950  -40.6770 C   0  0  0  0  0  0  0  0  0  0  0  0
   90.7500  103.5100  -41.8440 C   0  0  0  0  0  0  0  0  0  0  0  0
   90.4780  102.2400  -42.3150 C   0  0  0  0  0  0  0  0  0  0  0  0
   90.1000   92.4020  -48.2450 H   0  0  0  0  0  0  0  0  0  0  0  0
   93.1530   90.8400  -45.7650 H   0  0  0  0  0  0  0  0  0  0  0  0
   93.6730   89.1430  -47.4900 H   0  0  0  0  0  0  0  0  0  0  0  0
   92.4110   89.0640  -49.6100 H   0  0  0  0  0  0  0  0  0  0  0  0
   92.8950   94.0340  -46.2820 H   0  0  0  0  0  0  0  0  0  0  0  0
   90.3560   95.1300  -45.1520 H   0  0  0  0  0  0  0  0  0  0  0  0
   93.2000   96.2090  -45.3770 H   0  0  0  0  0  0  0  0  0  0  0  0
   91.6660   96.8480  -46.1030 H   0  0  0  0  0  0  0  0  0  0  0  0
   90.1770   96.2610  -42.9320 H   0  0  0  0  0  0  0  0  0  0  0  0
   90.9770   94.0820  -43.0320 H   0  0  0  0  0  0  0  0  0  0  0  0
   92.7280   94.6320  -43.2600 H   0  0  0  0  0  0  0  0  0  0  0  0
   91.9580   98.0760  -40.2500 H   0  0  0  0  0  0  0  0  0  0  0  0
   92.7300   99.5740  -41.9500 H   0  0  0  0  0  0  0  0  0  0  0  0
   90.1230   99.7510  -43.0890 H   0  0  0  0  0  0  0  0  0  0  0  0
   89.9800   99.2460  -41.3700 H   0  0  0  0  0  0  0  0  0  0  0  0
   91.9960  100.4680  -39.8610 H   0  0  0  0  0  0  0  0  0  0  0  0
   92.4390  102.7170  -39.0920 H   0  0  0  0  0  0  0  0  0  0  0  0
   91.6880  104.6890  -40.2850 H   0  0  0  0  0  0  0  0  0  0  0  0
   90.4160  104.4040  -42.3740 H   0  0  0  0  0  0  0  0  0  0  0  0
   89.9170  102.1310  -43.2350 H   0  0  0  0  0  0  0  0  0  0  0  0
  1  2  1  0  0  0  0
  2  7  2  0  0  0  0
  2  3  1  0  0  0  0
  3  4  2  0  0  0  0
  4  5  1  0  0  0  0
  4  8  1  0  0  0  0
  5 30  1  0  0  0  0
  6 31  1  0  0  0  0
  6  5  2  0  0  0  0
  7  6  1  0  0  0  0
  8 10  1  0  0  0  0
  8  9  2  0  0  0  0
 10 11  1  0  0  0  0
 11 34  1  6  0  0  0
 11 15  1  0  0  0  0
 12 11  1  0  0  0  0
 12 13  1  0  0  0  0
 13 20  1  0  0  0  0
 13 14  1  0  0  0  0
 14 37  1  1  0  0  0
 14 16  1  0  0  0  0
 15 39  1  0  0  0  0
 15 38  1  0  0  0  0
 15 14  1  0  0  0  0
 16 18  1  0  0  0  0
 16 17  2  0  0  0  0
 18 40  1  0  0  0  0
 19 22  1  0  0  0  0
 19 41  1  1  0  0  0
 19 18  1  0  0  0  0
 20 19  1  0  0  0  0
 21 20  2  0  0  0  0
 22 23  1  0  0  0  0
 22 43  1  0  0  0  0
 23 24  1  0  0  0  0
 24 25  2  0  0  0  0
 24 44  1  0  0  0  0
 25 45  1  0  0  0  0
 26 46  1  0  0  0  0
 26 25  1  0  0  0  0
 27 26  2  0  0  0  0
 28 27  1  0  0  0  0
 28 23  2  0  0  0  0
 29  3  1  0  0  0  0
 32  7  1  0  0  0  0
 33 10  1  0  0  0  0
 35 12  1  0  0  0  0
 36 12  1  0  0  0  0
 42 22  1  0  0  0  0
 47 27  1  0  0  0  0
 48 28  1  0  0  0  0
M  END
>  <Pose>
1

>  <Score>
-6.05

$$$$
