
 OpenBabel03212208273D

 61 64  0  0  1  0  0  0  0  0999 V2000
   89.0960  105.3630  -43.6150 B   0  0  0  0  0  0  0  0  0  0  0  0
   89.3010  103.5620  -43.0180 C   0  0  0  0  0  0  0  0  0  0  0  0
   90.4750  102.8740  -43.0680 C   0  0  0  0  0  0  0  0  0  0  0  0
   90.6630  101.5690  -42.6470 C   0  0  0  0  0  0  0  0  0  0  0  0
   89.5580  100.9020  -42.1260 C   0  0  0  0  0  0  0  0  0  0  0  0
   88.3500  101.5700  -42.0600 C   0  0  0  0  0  0  0  0  0  0  0  0
   88.1940  102.8760  -42.4910 C   0  0  0  0  0  0  0  0  0  0  0  0
   91.9960  100.9750  -42.7950 C   0  0  1  0  0  0  0  0  0  0  0  0
   92.9200  101.5740  -41.9060 N   0  0  0  0  0  0  0  0  0  0  0  0
   93.3480  100.6210  -40.9470 C   0  0  0  0  0  0  0  0  0  0  0  0
   94.1050  100.8730  -39.9580 O   0  0  0  0  0  0  0  0  0  0  0  0
   92.7860   99.3340  -41.2950 C   0  0  0  0  0  0  0  0  0  0  0  0
   93.0080   98.3060  -40.6000 O   0  0  0  0  0  0  0  0  0  0  0  0
   91.9950   99.5190  -42.4960 C   0  0  0  0  0  0  0  0  0  0  0  0
   91.3690   98.5550  -43.1320 C   0  0  0  0  0  0  0  0  0  0  0  0
   90.5930   98.8670  -44.2250 O   0  0  0  0  0  0  0  0  0  0  0  0
   91.4870   97.1810  -42.7110 C   0  0  0  0  0  0  0  0  0  0  0  0
   91.7250   96.1090  -43.5890 C   0  0  0  0  0  0  0  0  0  0  0  0
   91.8170   94.9760  -42.8820 N   0  0  0  0  0  0  0  0  0  0  0  0
   91.6460   95.2980  -41.6130 N   0  0  0  0  0  0  0  0  0  0  0  0
   91.4460   96.6160  -41.4670 C   0  0  0  0  0  0  0  0  0  0  0  0
   92.0650   93.6690  -43.3790 C   0  0  0  0  0  0  0  0  0  0  0  0
   92.7210   92.7570  -42.5630 C   0  0  0  0  0  0  0  0  0  0  0  0
   92.9860   91.4670  -42.9770 C   0  0  0  0  0  0  0  0  0  0  0  0
   92.6010   91.0260  -44.2440 C   0  0  0  0  0  0  0  0  0  0  0  0
   91.9470   91.9350  -45.0570 C   0  0  0  0  0  0  0  0  0  0  0  0
   91.6960   93.2100  -44.6220 C   0  0  0  0  0  0  0  0  0  0  0  0
   91.8520   96.2590  -45.0680 C   0  0  0  0  0  0  0  0  0  0  0  0
   93.4180  102.9780  -41.9460 C   0  0  0  0  0  0  0  0  0  0  0  0
   93.8360  103.3260  -43.3520 C   0  0  0  0  0  0  0  0  0  0  0  0
   95.2030  103.9270  -43.4350 C   0  0  0  0  0  0  0  0  0  0  0  0
   95.8490  103.8540  -44.7040 N   0  0  0  0  0  4  0  0  0  0  0  0
   95.1270  104.3820  -45.8150 C   0  0  0  0  0  0  0  0  0  0  0  0
   97.1490  104.5420  -44.6520 C   0  0  0  0  0  0  0  0  0  0  0  0
   91.3320  103.4340  -43.4900 H   0  0  0  0  0  0  0  0  0  0  0  0
   89.6650   99.8860  -41.7920 H   0  0  0  0  0  0  0  0  0  0  0  0
   87.4850  101.0420  -41.6490 H   0  0  0  0  0  0  0  0  0  0  0  0
   87.2470  103.4020  -42.4410 H   0  0  0  0  0  0  0  0  0  0  0  0
   92.3510  101.1530  -43.8420 H   0  0  0  0  0  0  0  0  0  0  0  0
   91.2940   97.1500  -40.5270 H   0  0  0  0  0  0  0  0  0  0  0  0
   93.0150   93.1290  -41.5660 H   0  0  0  0  0  0  0  0  0  0  0  0
   93.4960   90.7780  -42.3150 H   0  0  0  0  0  0  0  0  0  0  0  0
   92.8250   90.0000  -44.5470 H   0  0  0  0  0  0  0  0  0  0  0  0
   91.6530   91.5760  -46.0450 H   0  0  0  0  0  0  0  0  0  0  0  0
   91.1800   93.8860  -45.2890 H   0  0  0  0  0  0  0  0  0  0  0  0
   92.4010   97.1980  -45.3210 H   0  0  0  0  0  0  0  0  0  0  0  0
   90.8730   96.1910  -45.5760 H   0  0  0  0  0  0  0  0  0  0  0  0
   92.4830   95.4320  -45.4760 H   0  0  0  0  0  0  0  0  0  0  0  0
   92.6590  103.6600  -41.5210 H   0  0  0  0  0  0  0  0  0  0  0  0
   94.3610  103.0050  -41.3290 H   0  0  0  0  0  0  0  0  0  0  0  0
   93.9330  102.3200  -43.8640 H   0  0  0  0  0  0  0  0  0  0  0  0
   93.0590  103.8410  -43.9190 H   0  0  0  0  0  0  0  0  0  0  0  0
   95.9020  103.4430  -42.6820 H   0  0  0  0  0  0  0  0  0  0  0  0
   95.1590  105.0080  -43.1090 H   0  0  0  0  0  0  0  0  0  0  0  0
   96.0990  102.8410  -44.9180 H   0  0  0  0  0  0  0  0  0  0  0  0
   95.7170  105.1580  -46.3740 H   0  0  0  0  0  0  0  0  0  0  0  0
   94.0940  104.7270  -45.6130 H   0  0  0  0  0  0  0  0  0  0  0  0
   94.9980  103.5530  -46.5720 H   0  0  0  0  0  0  0  0  0  0  0  0
   97.9790  103.8580  -44.8960 H   0  0  0  0  0  0  0  0  0  0  0  0
   97.2780  104.9110  -43.6100 H   0  0  0  0  0  0  0  0  0  0  0  0
   97.1300  105.4440  -45.3040 H   0  0  0  0  0  0  0  0  0  0  0  0
  1  2  1  0  0  0  0
  2  7  1  0  0  0  0
  3  2  2  0  0  0  0
  3  4  1  0  0  0  0
  4  5  2  0  0  0  0
  5  6  1  0  0  0  0
  5 36  1  0  0  0  0
  6 37  1  0  0  0  0
  7 38  1  0  0  0  0
  7  6  2  0  0  0  0
  8 39  1  6  0  0  0
  8  4  1  0  0  0  0
  8 14  1  0  0  0  0
  8  9  1  0  0  0  0
  9 10  1  0  0  0  0
 10 11  2  0  0  0  0
 12 10  1  0  0  0  0
 12 13  2  0  0  0  0
 14 12  1  0  0  0  0
 15 17  1  0  0  0  0
 15 14  2  0  0  0  0
 16 15  1  0  0  0  0
 17 21  1  0  0  0  0
 18 19  1  0  0  0  0
 18 17  2  0  0  0  0
 19 20  1  0  0  0  0
 20 21  2  0  0  0  0
 21 40  1  0  0  0  0
 22 19  1  0  0  0  0
 22 23  1  0  0  0  0
 23 41  1  0  0  0  0
 24 23  2  0  0  0  0
 24 42  1  0  0  0  0
 25 24  1  0  0  0  0
 26 27  1  0  0  0  0
 26 25  2  0  0  0  0
 27 22  2  0  0  0  0
 28 18  1  0  0  0  0
 29  9  1  0  0  0  0
 29 49  1  0  0  0  0
 29 50  1  0  0  0  0
 30 29  1  0  0  0  0
 31 30  1  0  0  0  0
 31 54  1  0  0  0  0
 31 53  1  0  0  0  0
 32 34  1  0  0  0  0
 32 31  1  0  0  0  0
 33 57  1  0  0  0  0
 33 32  1  0  0  0  0
 34 60  1  0  0  0  0
 35  3  1  0  0  0  0
 43 25  1  0  0  0  0
 44 26  1  0  0  0  0
 45 27  1  0  0  0  0
 46 28  1  0  0  0  0
 47 28  1  0  0  0  0
 48 28  1  0  0  0  0
 51 30  1  0  0  0  0
 52 30  1  0  0  0  0
 55 32  1  0  0  0  0
 56 33  1  0  0  0  0
 58 33  1  0  0  0  0
 59 34  1  0  0  0  0
 61 34  1  0  0  0  0
M  END
>  <Pose>
1

>  <Score>
-4.82

$$$$
