
 OpenBabel03212208273D

 60 63  0  0  1  0  0  0  0  0999 V2000
   85.2440   98.4940  -44.1450 B   0  0  0  0  0  0  0  0  0  0  0  0
   87.0300   98.8370  -44.7300 C   0  0  0  0  0  0  0  0  0  0  0  0
   88.0720   98.6470  -43.8770 C   0  0  0  0  0  0  0  0  0  0  0  0
   89.3850   98.8940  -44.2890 C   0  0  0  0  0  0  0  0  0  0  0  0
   89.5830   99.3330  -45.5800 C   0  0  0  0  0  0  0  0  0  0  0  0
   88.5180   99.5270  -46.4520 C   0  0  0  0  0  0  0  0  0  0  0  0
   87.2390   99.2750  -46.0150 C   0  0  0  0  0  0  0  0  0  0  0  0
   90.4610   98.6710  -43.3150 C   0  0  1  0  0  0  0  0  0  0  0  0
   91.4480   97.6870  -43.7180 N   0  0  0  0  0  0  0  0  0  0  0  0
   92.3820   98.3350  -44.6090 C   0  0  0  0  0  0  0  0  0  0  0  0
   93.0970   97.8100  -45.4710 O   0  0  0  0  0  0  0  0  0  0  0  0
   92.2960   99.7510  -44.2670 C   0  0  0  0  0  0  0  0  0  0  0  0
   92.9250  100.7260  -44.7780 O   0  0  0  0  0  0  0  0  0  0  0  0
   91.3270   99.8990  -43.1940 C   0  0  0  0  0  0  0  0  0  0  0  0
   91.1930  100.8960  -42.3350 C   0  0  0  0  0  0  0  0  0  0  0  0
   90.1120  100.8280  -41.4100 O   0  0  0  0  0  0  0  0  0  0  0  0
   92.1060  102.0120  -42.3160 C   0  0  0  0  0  0  0  0  0  0  0  0
   93.2830  102.1220  -41.6640 N   0  0  0  0  0  0  0  0  0  0  0  0
   93.8240  103.3300  -41.9570 C   0  0  0  0  0  0  0  0  0  0  0  0
   92.9940  104.0020  -42.8010 N   0  0  0  0  0  0  0  0  0  0  0  0
   91.9390  103.1810  -43.0140 C   0  0  0  0  0  0  0  0  0  0  0  0
   90.7800  103.5220  -43.8850 C   0  0  0  0  0  0  0  0  0  0  0  0
   95.0160  103.7890  -41.4590 C   0  0  0  0  0  0  0  0  0  0  0  0
   95.7090  102.9650  -40.6000 C   0  0  0  0  0  0  0  0  0  0  0  0
   95.1610  101.7360  -40.2970 C   0  0  0  0  0  0  0  0  0  0  0  0
   93.9660  101.3260  -40.8250 C   0  0  0  0  0  0  0  0  0  0  0  0
   95.5660  105.1280  -41.8180 C   0  0  0  0  0  0  0  0  0  0  0  0
   91.5000   96.2920  -43.3150 C   0  0  0  0  0  0  0  0  0  0  0  0
   91.2060   96.0590  -41.8720 C   0  0  0  0  0  0  0  0  0  0  0  0
   92.3870   95.6080  -41.0510 C   0  0  0  0  0  0  0  0  0  0  0  0
   92.4090   94.1660  -40.9780 N   0  0  0  0  0  4  0  0  0  0  0  0
   91.4140   93.5980  -41.8690 C   0  0  0  0  0  0  0  0  0  0  0  0
   93.6990   93.7030  -41.4490 C   0  0  0  0  0  0  0  0  0  0  0  0
   87.8470   98.2990  -42.8690 H   0  0  0  0  0  0  0  0  0  0  0  0
   90.5970   99.5400  -45.9400 H   0  0  0  0  0  0  0  0  0  0  0  0
   88.6890   99.8750  -47.4720 H   0  0  0  0  0  0  0  0  0  0  0  0
   86.3970   99.4230  -46.6880 H   0  0  0  0  0  0  0  0  0  0  0  0
   90.0130   98.4200  -42.3300 H   0  0  0  0  0  0  0  0  0  0  0  0
   89.8570  103.6110  -43.2910 H   0  0  0  0  0  0  0  0  0  0  0  0
   90.6370  102.7580  -44.6740 H   0  0  0  0  0  0  0  0  0  0  0  0
   90.9350  104.4850  -44.3920 H   0  0  0  0  0  0  0  0  0  0  0  0
   96.6670  103.2890  -40.1760 H   0  0  0  0  0  0  0  0  0  0  0  0
   95.7230  101.0780  -39.6050 H   0  0  0  0  0  0  0  0  0  0  0  0
   93.5410  100.3570  -40.5780 H   0  0  0  0  0  0  0  0  0  0  0  0
   94.8440  105.6730  -42.4410 H   0  0  0  0  0  0  0  0  0  0  0  0
   96.5600  105.0210  -42.3170 H   0  0  0  0  0  0  0  0  0  0  0  0
   95.6610  105.6820  -40.8470 H   0  0  0  0  0  0  0  0  0  0  0  0
   92.5290   95.9360  -43.5170 H   0  0  0  0  0  0  0  0  0  0  0  0
   90.8300   95.6700  -43.9420 H   0  0  0  0  0  0  0  0  0  0  0  0
   90.3670   95.3370  -41.7230 H   0  0  0  0  0  0  0  0  0  0  0  0
   90.8500   97.0070  -41.4100 H   0  0  0  0  0  0  0  0  0  0  0  0
   93.3540   95.9160  -41.5000 H   0  0  0  0  0  0  0  0  0  0  0  0
   92.3380   96.0110  -40.0360 H   0  0  0  0  0  0  0  0  0  0  0  0
   92.3100   93.8130  -40.0010 H   0  0  0  0  0  0  0  0  0  0  0  0
   91.7220   92.5640  -42.1940 H   0  0  0  0  0  0  0  0  0  0  0  0
   91.4810   94.2030  -42.8200 H   0  0  0  0  0  0  0  0  0  0  0  0
   90.3970   93.6280  -41.4740 H   0  0  0  0  0  0  0  0  0  0  0  0
   93.7710   92.5870  -41.3770 H   0  0  0  0  0  0  0  0  0  0  0  0
   94.5380   94.1960  -40.9160 H   0  0  0  0  0  0  0  0  0  0  0  0
   93.7700   93.9740  -42.5220 H   0  0  0  0  0  0  0  0  0  0  0  0
  2  1  1  0  0  0  0
  2  3  1  0  0  0  0
  3 34  1  0  0  0  0
  4  3  2  0  0  0  0
  4  8  1  0  0  0  0
  5  4  1  0  0  0  0
  6  7  1  0  0  0  0
  6  5  2  0  0  0  0
  7  2  2  0  0  0  0
  8 14  1  0  0  0  0
  8 38  1  1  0  0  0
  9 28  1  0  0  0  0
  9  8  1  0  0  0  0
 10 12  1  0  0  0  0
 10  9  1  0  0  0  0
 11 10  2  0  0  0  0
 12 14  1  0  0  0  0
 13 12  2  0  0  0  0
 14 15  2  0  0  0  0
 15 17  1  0  0  0  0
 15 16  1  0  0  0  0
 17 18  1  0  0  0  0
 18 26  1  0  0  0  0
 19 18  1  0  0  0  0
 19 23  1  0  0  0  0
 20 19  2  0  0  0  0
 21 20  1  0  0  0  0
 21 17  2  0  0  0  0
 22 39  1  0  0  0  0
 22 21  1  0  0  0  0
 23 24  2  0  0  0  0
 24 25  1  0  0  0  0
 24 42  1  0  0  0  0
 25 43  1  0  0  0  0
 26 44  1  0  0  0  0
 26 25  2  0  0  0  0
 27 23  1  0  0  0  0
 27 47  1  0  0  0  0
 28 29  1  0  0  0  0
 29 50  1  0  0  0  0
 29 51  1  0  0  0  0
 29 30  1  0  0  0  0
 30 31  1  0  0  0  0
 30 53  1  0  0  0  0
 31 54  1  0  0  0  0
 32 57  1  0  0  0  0
 32 31  1  0  0  0  0
 33 58  1  0  0  0  0
 33 31  1  0  0  0  0
 33 59  1  0  0  0  0
 35  5  1  0  0  0  0
 36  6  1  0  0  0  0
 37  7  1  0  0  0  0
 40 22  1  0  0  0  0
 41 22  1  0  0  0  0
 45 27  1  0  0  0  0
 46 27  1  0  0  0  0
 48 28  1  0  0  0  0
 49 28  1  0  0  0  0
 52 30  1  0  0  0  0
 55 32  1  0  0  0  0
 56 32  1  0  0  0  0
 60 33  1  0  0  0  0
M  END
>  <Pose>
1

>  <Score>
-4.82

$$$$
