
 OpenBabel03212208273D

 31 34  0  0  1  0  0  0  0  0999 V2000
   91.0040   97.9070  -45.1820 B   0  0  0  0  0  0  0  0  0  0  0  0
   91.5360   97.4600  -43.3970 C   0  0  0  0  0  0  0  0  0  0  0  0
   91.9220   98.5030  -42.5870 C   0  0  0  0  0  0  0  0  0  0  0  0
   92.3110   98.1700  -41.2890 C   0  0  0  0  0  0  0  0  0  0  0  0
   92.2990   96.8610  -40.8650 C   0  0  0  0  0  0  0  0  0  0  0  0
   91.9110   95.8120  -41.6810 C   0  0  0  0  0  0  0  0  0  0  0  0
   91.5250   96.1350  -42.9670 C   0  0  0  0  0  0  0  0  0  0  0  0
   91.9070   94.4690  -41.2130 N   0  0  0  0  0  0  0  0  0  0  0  0
   90.8220   93.9680  -40.8700 O   0  0  0  0  0  0  0  0  0  0  0  0
   93.0240   93.6840  -41.1140 O   0  0  0  0  0  0  0  0  0  0  0  0
   91.9180   99.8460  -43.0490 N   0  0  0  0  0  0  0  0  0  0  0  0
   92.6030  100.4560  -44.1270 C   0  0  0  0  0  0  0  0  0  0  0  0
   93.1130   99.8780  -45.1080 O   0  0  0  0  0  0  0  0  0  0  0  0
   92.6460  101.9230  -43.9460 C   0  0  2  0  0  0  0  0  0  0  0  0
   93.9730  102.2420  -43.2910 C   0  0  2  0  0  0  0  0  0  0  0  0
   93.7090  101.7850  -41.9730 O   0  0  0  0  0  0  0  0  0  0  0  0
   92.6190  102.6610  -41.7220 C   0  0  2  0  0  0  0  0  0  0  0  0
   91.6740  102.2160  -42.8070 C   0  0  2  0  0  0  0  0  0  0  0  0
   91.1460  100.8830  -42.4390 C   0  0  0  0  0  0  0  0  0  0  0  0
   90.1420  100.6790  -41.6820 O   0  0  0  0  0  0  0  0  0  0  0  0
   93.2620  103.9550  -42.0330 C   0  0  0  0  0  0  0  0  0  0  0  0
   94.0930  103.6990  -43.0400 C   0  0  0  0  0  0  0  0  0  0  0  0
   92.6230   98.9720  -40.6260 H   0  0  0  0  0  0  0  0  0  0  0  0
   92.6020   96.5940  -39.8480 H   0  0  0  0  0  0  0  0  0  0  0  0
   91.2140   95.3700  -43.6470 H   0  0  0  0  0  0  0  0  0  0  0  0
   92.4410  102.4960  -44.8440 H   0  0  0  0  0  0  0  0  0  0  0  0
   94.8280  101.7660  -43.7480 H   0  0  0  0  0  0  0  0  0  0  0  0
   92.2370  102.5640  -40.7110 H   0  0  0  0  0  0  0  0  0  0  0  0
   90.9080  102.9330  -43.0850 H   0  0  0  0  0  0  0  0  0  0  0  0
   93.0810  104.8960  -41.5350 H   0  0  0  0  0  0  0  0  0  0  0  0
   94.7340  104.3960  -43.5800 H   0  0  0  0  0  0  0  0  0  0  0  0
  1  2  1  0  0  0  0
  2  7  2  0  0  0  0
  2  3  1  0  0  0  0
  3  4  2  0  0  0  0
  4  5  1  0  0  0  0
  4 23  1  0  0  0  0
  5 24  1  0  0  0  0
  6  8  1  0  0  0  0
  6  5  2  0  0  0  0
  7  6  1  0  0  0  0
  8 10  2  0  0  0  0
  8  9  2  0  0  0  0
 11  3  1  0  0  0  0
 11 19  1  0  0  0  0
 12 14  1  0  0  0  0
 12 11  1  0  0  0  0
 13 12  2  0  0  0  0
 14 26  1  6  0  0  0
 14 15  1  0  0  0  0
 14 18  1  0  0  0  0
 15 27  1  6  0  0  0
 15 22  1  0  0  0  0
 15 16  1  0  0  0  0
 16 17  1  0  0  0  0
 17 28  1  1  0  0  0
 18 29  1  6  0  0  0
 18 19  1  0  0  0  0
 18 17  1  0  0  0  0
 19 20  2  0  0  0  0
 21 17  1  0  0  0  0
 21 30  1  0  0  0  0
 22 21  2  0  0  0  0
 25  7  1  0  0  0  0
 31 22  1  0  0  0  0
M  END
>  <Pose>
1

>  <Score>
-4.06

$$$$
