
 OpenBabel03212208273D

 54 57  0  0  1  0  0  0  0  0999 V2000
   91.9070   92.9920  -43.9250 B   0  0  0  0  0  0  0  0  0  0  0  0
   91.9220   94.5270  -42.7650 C   0  0  0  0  0  0  0  0  0  0  0  0
   91.4580   95.7620  -43.2240 C   0  0  0  0  0  0  0  0  0  0  0  0
   91.4440   96.8880  -42.4410 C   0  0  0  0  0  0  0  0  0  0  0  0
   91.9280   96.7330  -41.1310 C   0  0  0  0  0  0  0  0  0  0  0  0
   92.3880   95.5230  -40.6660 C   0  0  0  0  0  0  0  0  0  0  0  0
   92.3900   94.4080  -41.4740 C   0  0  0  0  0  0  0  0  0  0  0  0
   90.9770   98.2100  -42.8710 C   0  0  1  0  0  0  0  0  0  0  0  0
   91.9880   99.2440  -42.8280 N   0  0  0  0  0  0  0  0  0  0  0  0
   92.7780   99.0950  -43.9940 C   0  0  0  0  0  0  0  0  0  0  0  0
   93.9770   99.4270  -44.1630 O   0  0  0  0  0  0  0  0  0  0  0  0
   91.9110   98.4640  -44.9900 C   0  0  0  0  0  0  0  0  0  0  0  0
   92.1740   98.1350  -46.1700 O   0  0  0  0  0  0  0  0  0  0  0  0
   90.6140   98.2750  -44.3220 C   0  0  0  0  0  0  0  0  0  0  0  0
   89.4540   98.1660  -44.9290 C   0  0  0  0  0  0  0  0  0  0  0  0
   88.3320   97.9440  -44.1200 O   0  0  0  0  0  0  0  0  0  0  0  0
   89.3110   98.2760  -46.3940 C   0  0  0  0  0  0  0  0  0  0  0  0
   89.4320   99.3270  -47.1500 O   0  0  0  0  0  0  0  0  0  0  0  0
   89.2360   99.0380  -48.4170 C   0  0  0  0  0  0  0  0  0  0  0  0
   88.9600   97.6850  -48.5300 C   0  0  0  0  0  0  0  0  0  0  0  0
   89.0130   97.2170  -47.2310 C   0  0  0  0  0  0  0  0  0  0  0  0
   88.7140   97.1230  -49.7640 C   0  0  0  0  0  0  0  0  0  0  0  0
   88.7320   97.8660  -50.9230 C   0  0  0  0  0  0  0  0  0  0  0  0
   89.0050   99.2130  -50.8270 C   0  0  0  0  0  0  0  0  0  0  0  0
   89.2540   99.7850  -49.5810 C   0  0  0  0  0  0  0  0  0  0  0  0
   92.2150  100.2950  -41.8380 C   0  0  0  0  0  0  0  0  0  0  0  0
   90.9590  101.1230  -41.6450 C   0  0  0  0  0  0  0  0  0  0  0  0
   89.7200  100.4260  -42.1440 C   0  0  0  0  0  0  0  0  0  0  0  0
   88.6050  101.3140  -42.0680 N   0  0  0  0  0  4  0  0  0  0  0  0
   88.9300  102.6750  -42.4370 C   0  0  0  0  0  0  0  0  0  0  0  0
   87.4550  100.9200  -42.8240 C   0  0  0  0  0  0  0  0  0  0  0  0
   91.0950   95.8220  -44.2360 H   0  0  0  0  0  0  0  0  0  0  0  0
   91.9280   97.6080  -40.4870 H   0  0  0  0  0  0  0  0  0  0  0  0
   92.7610   95.4050  -39.6530 H   0  0  0  0  0  0  0  0  0  0  0  0
   92.7530   93.4320  -41.1230 H   0  0  0  0  0  0  0  0  0  0  0  0
   90.1040   98.5030  -42.2380 H   0  0  0  0  0  0  0  0  0  0  0  0
   88.8610   96.2010  -46.9340 H   0  0  0  0  0  0  0  0  0  0  0  0
   88.5010   96.0710  -49.8470 H   0  0  0  0  0  0  0  0  0  0  0  0
   88.5450   97.4720  -51.9110 H   0  0  0  0  0  0  0  0  0  0  0  0
   89.0230   99.8200  -51.7350 H   0  0  0  0  0  0  0  0  0  0  0  0
   89.4630  100.8480  -49.5570 H   0  0  0  0  0  0  0  0  0  0  0  0
   92.4860   99.8900  -40.8440 H   0  0  0  0  0  0  0  0  0  0  0  0
   93.0340  100.9550  -42.1660 H   0  0  0  0  0  0  0  0  0  0  0  0
   91.0940  102.0140  -42.3020 H   0  0  0  0  0  0  0  0  0  0  0  0
   90.8490  101.4700  -40.6170 H   0  0  0  0  0  0  0  0  0  0  0  0
   89.4790   99.5220  -41.5410 H   0  0  0  0  0  0  0  0  0  0  0  0
   89.8520  100.1270  -43.2080 H   0  0  0  0  0  0  0  0  0  0  0  0
   88.3060  101.3550  -41.0480 H   0  0  0  0  0  0  0  0  0  0  0  0
   88.2080  103.3630  -41.9150 H   0  0  0  0  0  0  0  0  0  0  0  0
   88.7600  102.8180  -43.5190 H   0  0  0  0  0  0  0  0  0  0  0  0
   89.9600  102.8930  -42.1230 H   0  0  0  0  0  0  0  0  0  0  0  0
   87.4800  101.2440  -43.8810 H   0  0  0  0  0  0  0  0  0  0  0  0
   86.5640  101.4090  -42.3820 H   0  0  0  0  0  0  0  0  0  0  0  0
   87.2480   99.8120  -42.7290 H   0  0  0  0  0  0  0  0  0  0  0  0
  1  2  1  0  0  0  0
  2  7  1  0  0  0  0
  3  2  2  0  0  0  0
  3  4  1  0  0  0  0
  4  5  2  0  0  0  0
  5  6  1  0  0  0  0
  5 33  1  0  0  0  0
  6 34  1  0  0  0  0
  7 35  1  0  0  0  0
  7  6  2  0  0  0  0
  8  9  1  0  0  0  0
  8  4  1  0  0  0  0
  8 36  1  1  0  0  0
  9 26  1  0  0  0  0
 10  9  1  0  0  0  0
 11 10  2  0  0  0  0
 12 14  1  0  0  0  0
 12 10  1  0  0  0  0
 13 12  2  0  0  0  0
 14  8  1  0  0  0  0
 15 14  2  0  0  0  0
 15 16  1  0  0  0  0
 17 15  1  0  0  0  0
 18 17  1  0  0  0  0
 19 18  1  0  0  0  0
 20 19  1  0  0  0  0
 20 21  1  0  0  0  0
 21 37  1  0  0  0  0
 21 17  2  0  0  0  0
 22 20  2  0  0  0  0
 23 24  2  0  0  0  0
 23 22  1  0  0  0  0
 24 25  1  0  0  0  0
 25 41  1  0  0  0  0
 25 19  2  0  0  0  0
 26 27  1  0  0  0  0
 26 42  1  0  0  0  0
 27 45  1  0  0  0  0
 28 29  1  0  0  0  0
 28 27  1  0  0  0  0
 28 46  1  0  0  0  0
 29 48  1  0  0  0  0
 30 51  1  0  0  0  0
 30 29  1  0  0  0  0
 30 49  1  0  0  0  0
 31 54  1  0  0  0  0
 31 53  1  0  0  0  0
 31 29  1  0  0  0  0
 32  3  1  0  0  0  0
 38 22  1  0  0  0  0
 39 23  1  0  0  0  0
 40 24  1  0  0  0  0
 43 26  1  0  0  0  0
 44 27  1  0  0  0  0
 47 28  1  0  0  0  0
 50 30  1  0  0  0  0
 52 31  1  0  0  0  0
M  END
>  <Pose>
1

>  <Score>
-4.83

$$$$
