
 OpenBabel03212208273D

 47 50  0  0  0  0  0  0  0  0999 V2000
   92.7770   88.9850  -48.5990 B   0  0  0  0  0  0  0  0  0  0  0  0
   91.6670   90.3710  -49.2390 C   0  0  0  0  0  0  0  0  0  0  0  0
   90.8040   91.0080  -48.3800 C   0  0  0  0  0  0  0  0  0  0  0  0
   90.0210   92.0150  -48.7700 C   0  0  0  0  0  0  0  0  0  0  0  0
   90.0620   92.4770  -50.1220 C   0  0  0  0  0  0  0  0  0  0  0  0
   90.9230   91.8880  -50.9850 C   0  0  0  0  0  0  0  0  0  0  0  0
   91.7320   90.8310  -50.5580 C   0  0  0  0  0  0  0  0  0  0  0  0
   91.0130   90.7340  -46.8690 C   0  0  0  0  0  0  0  0  0  0  0  0
   91.7180   91.6370  -46.3860 N   0  0  0  0  0  0  0  0  0  0  0  0
   92.3710   92.2820  -45.4770 N   0  0  0  0  0  0  0  0  0  0  0  0
   91.5980   93.6130  -45.3390 C   0  0  0  0  0  0  0  0  0  0  0  0
   91.0240   93.9390  -46.3710 O   0  0  0  0  0  0  0  0  0  0  0  0
   91.5940   94.3490  -44.1410 C   0  0  0  0  0  0  0  0  0  0  0  0
   91.9510   94.0300  -42.9340 N   0  0  0  0  0  0  0  0  0  0  0  0
   92.0390   95.0940  -42.2140 N   0  0  0  0  0  0  0  0  0  0  0  0
   91.7300   96.2410  -42.9330 N   0  0  0  0  0  0  0  0  0  0  0  0
   91.4430   95.8120  -44.1420 C   0  0  0  0  0  0  0  0  0  0  0  0
   90.8780   96.3720  -45.3670 C   0  0  0  0  0  0  0  0  0  0  0  0
   89.9210   97.2860  -45.5610 N   0  0  0  0  0  0  0  0  0  0  0  0
   90.5160   98.5900  -45.8170 C   0  0  0  0  0  0  0  0  0  0  0  0
   89.8010   99.1710  -47.0000 C   0  0  0  0  0  0  0  0  0  0  0  0
   88.8040   98.1070  -47.4450 C   0  0  0  0  0  0  0  0  0  0  0  0
   88.6880   97.2650  -46.1500 C   0  0  0  0  0  0  0  0  0  0  0  0
   91.8490   97.4610  -42.2690 C   0  0  0  0  0  0  0  0  0  0  0  0
   92.9120   97.7190  -41.4030 N   0  0  0  0  0  0  0  0  0  0  0  0
   92.7140   98.8490  -40.8520 O   0  0  0  0  0  0  0  0  0  0  0  0
   91.6340   99.3900  -41.2540 N   0  0  0  0  0  0  0  0  0  0  0  0
   91.0670   98.5330  -42.1490 C   0  0  0  0  0  0  0  0  0  0  0  0
   89.8160   98.8570  -42.7680 N   0  0  0  0  0  0  0  0  0  0  0  0
   89.3100   92.4450  -48.0890 H   0  0  0  0  0  0  0  0  0  0  0  0
   89.4250   93.2370  -50.4590 H   0  0  0  0  0  0  0  0  0  0  0  0
   91.0320   92.2320  -52.0470 H   0  0  0  0  0  0  0  0  0  0  0  0
   92.4510   90.4210  -51.2700 H   0  0  0  0  0  0  0  0  0  0  0  0
   90.6400   89.9240  -46.4220 H   0  0  0  0  0  0  0  0  0  0  0  0
   93.1950   92.2130  -44.8870 H   0  0  0  0  0  0  0  0  0  0  0  0
   91.5120   96.1990  -46.3080 H   0  0  0  0  0  0  0  0  0  0  0  0
   90.1450   95.3440  -45.7140 H   0  0  0  0  0  0  0  0  0  0  0  0
   91.5980   98.5100  -45.9140 H   0  0  0  0  0  0  0  0  0  0  0  0
   90.3790   99.2840  -44.9250 H   0  0  0  0  0  0  0  0  0  0  0  0
   89.3200  100.1350  -46.7720 H   0  0  0  0  0  0  0  0  0  0  0  0
   90.5500   99.4010  -47.8160 H   0  0  0  0  0  0  0  0  0  0  0  0
   87.8670   98.5710  -47.7050 H   0  0  0  0  0  0  0  0  0  0  0  0
   89.2770   97.4380  -48.1570 H   0  0  0  0  0  0  0  0  0  0  0  0
   87.9680   97.8990  -45.5220 H   0  0  0  0  0  0  0  0  0  0  0  0
   88.2200   96.3000  -46.3830 H   0  0  0  0  0  0  0  0  0  0  0  0
   88.9860   98.8900  -42.1600 H   0  0  0  0  0  0  0  0  0  0  0  0
   89.7500   98.9830  -43.7760 H   0  0  0  0  0  0  0  0  0  0  0  0
  2  1  1  0  0  0  0
  2  3  1  0  0  0  0
  3  8  1  0  0  0  0
  4  3  2  0  0  0  0
  4 30  1  0  0  0  0
  5  4  1  0  0  0  0
  6  7  1  0  0  0  0
  6  5  2  0  0  0  0
  7  2  2  0  0  0  0
  8 34  1  0  0  0  0
  8  9  1  0  0  0  0
  9 10  1  0  0  0  0
 10 11  1  0  0  0  0
 10 35  1  0  0  0  0
 11 13  1  0  0  0  0
 12 11  2  0  0  0  0
 13 14  1  0  0  0  0
 14 15  2  0  0  0  0
 16 24  1  0  0  0  0
 16 15  1  0  0  0  0
 17 13  2  0  0  0  0
 17 16  1  0  0  0  0
 18 17  1  0  0  0  0
 19 18  1  0  0  0  0
 20 19  1  0  0  0  0
 20 39  1  0  0  0  0
 21 40  1  0  0  0  0
 21 20  1  0  0  0  0
 22 21  1  0  0  0  0
 22 23  1  0  0  0  0
 23 19  1  0  0  0  0
 23 44  1  0  0  0  0
 24 28  1  0  0  0  0
 24 25  2  0  0  0  0
 25 26  1  0  0  0  0
 27 26  1  0  0  0  0
 28 27  2  0  0  0  0
 29 46  1  0  0  0  0
 29 28  1  0  0  0  0
 31  5  1  0  0  0  0
 32  6  1  0  0  0  0
 33  7  1  0  0  0  0
 36 18  1  0  0  0  0
 37 18  1  0  0  0  0
 38 20  1  0  0  0  0
 41 21  1  0  0  0  0
 42 22  1  0  0  0  0
 43 22  1  0  0  0  0
 45 23  1  0  0  0  0
 47 29  1  0  0  0  0
M  END
>  <Pose>
1

>  <Score>
-6.99

$$$$
