
 OpenBabel03212208273D

 52 55  0  0  1  0  0  0  0  0999 V2000
   92.3890   92.9600  -42.6830 B   0  0  0  0  0  0  0  0  0  0  0  0
   91.8200   94.4290  -43.8080 C   0  0  0  0  0  0  0  0  0  0  0  0
   91.7020   95.6930  -43.3050 C   0  0  0  0  0  0  0  0  0  0  0  0
   91.2980   96.7510  -44.0680 C   0  0  0  0  0  0  0  0  0  0  0  0
   91.0060   96.4680  -45.4120 C   0  0  0  0  0  0  0  0  0  0  0  0
   91.1140   95.2160  -45.9510 C   0  0  0  0  0  0  0  0  0  0  0  0
   91.5260   94.1920  -45.1310 C   0  0  0  0  0  0  0  0  0  0  0  0
   91.1330   98.1070  -43.6110 C   0  0  2  0  0  0  0  0  0  0  0  0
   91.9530   98.4380  -42.6390 O   0  0  0  0  0  0  0  0  0  0  0  0
   90.2080   99.1590  -44.0500 C   0  0  0  0  0  0  0  0  0  0  0  0
   88.8430   98.7090  -44.2170 N   0  0  0  0  0  0  0  0  0  0  0  0
   88.3950   97.9900  -45.2970 C   0  0  0  0  0  0  0  0  0  0  0  0
   87.0530   97.8180  -45.1170 C   0  0  0  0  0  0  0  0  0  0  0  0
   86.3190   97.1070  -46.0700 C   0  0  0  0  0  0  0  0  0  0  0  0
   86.9610   96.5920  -47.1760 C   0  0  0  0  0  0  0  0  0  0  0  0
   88.3150   96.7660  -47.3620 C   0  0  0  0  0  0  0  0  0  0  0  0
   89.0390   97.4780  -46.4020 C   0  0  0  0  0  0  0  0  0  0  0  0
   86.7110   98.4240  -43.9580 N   0  0  0  0  0  0  0  0  0  0  0  0
   87.7900   98.9740  -43.3980 C   0  0  2  0  0  0  0  0  0  0  0  0
   87.8010   99.7160  -42.3130 N   0  0  0  0  0  0  0  0  0  0  0  0
   85.3350   98.4610  -43.4920 C   0  0  0  0  0  0  0  0  0  0  0  0
   84.7060   99.7920  -43.4440 C   0  0  0  0  0  0  0  0  0  0  0  0
   84.1620  100.2630  -42.2210 N   0  0  0  0  0  0  0  0  0  0  0  0
   82.8250  100.8690  -42.4470 C   0  0  0  0  0  0  0  0  0  0  0  0
   82.8680  101.9630  -43.4630 C   0  0  0  0  0  0  0  0  0  0  0  0
   83.6000  103.0110  -42.9020 O   0  0  0  0  0  0  0  0  0  0  0  0
   84.8650  102.6160  -42.5460 C   0  0  0  0  0  0  0  0  0  0  0  0
   84.9280  101.3930  -41.6710 C   0  0  0  0  0  0  0  0  0  0  0  0
   91.9490   95.8340  -42.2820 H   0  0  0  0  0  0  0  0  0  0  0  0
   90.6800   97.2450  -46.1000 H   0  0  0  0  0  0  0  0  0  0  0  0
   90.8760   95.0260  -47.0100 H   0  0  0  0  0  0  0  0  0  0  0  0
   91.6180   93.1860  -45.5460 H   0  0  0  0  0  0  0  0  0  0  0  0
   90.2130  100.0350  -43.3270 H   0  0  0  0  0  0  0  0  0  0  0  0
   90.5570   99.5590  -45.0500 H   0  0  0  0  0  0  0  0  0  0  0  0
   85.2540   96.9730  -45.9130 H   0  0  0  0  0  0  0  0  0  0  0  0
   86.3710   96.0460  -47.8950 H   0  0  0  0  0  0  0  0  0  0  0  0
   88.7960   96.3520  -48.2360 H   0  0  0  0  0  0  0  0  0  0  0  0
   90.0910   97.6190  -46.5560 H   0  0  0  0  0  0  0  0  0  0  0  0
   86.9800   99.8770  -41.7370 H   0  0  0  0  0  0  0  0  0  0  0  0
   88.6800  100.1830  -42.0500 H   0  0  0  0  0  0  0  0  0  0  0  0
   84.7380   97.7460  -44.0980 H   0  0  0  0  0  0  0  0  0  0  0  0
   85.3190   98.0380  -42.4610 H   0  0  0  0  0  0  0  0  0  0  0  0
   83.9590   99.8820  -44.2960 H   0  0  0  0  0  0  0  0  0  0  0  0
   85.5000  100.5350  -43.7620 H   0  0  0  0  0  0  0  0  0  0  0  0
   82.0720  100.0910  -42.6540 H   0  0  0  0  0  0  0  0  0  0  0  0
   82.5750  101.3270  -41.4720 H   0  0  0  0  0  0  0  0  0  0  0  0
   81.8300  102.3330  -43.5880 H   0  0  0  0  0  0  0  0  0  0  0  0
   83.2290  101.6840  -44.4540 H   0  0  0  0  0  0  0  0  0  0  0  0
   85.2860  103.4580  -41.9200 H   0  0  0  0  0  0  0  0  0  0  0  0
   85.4930  102.5360  -43.4580 H   0  0  0  0  0  0  0  0  0  0  0  0
   85.9680  101.1670  -41.4680 H   0  0  0  0  0  0  0  0  0  0  0  0
   84.3540  101.6640  -40.7320 H   0  0  0  0  0  0  0  0  0  0  0  0
  2  3  1  0  0  0  0
  2  1  1  0  0  0  0
  3 29  1  0  0  0  0
  4  8  1  0  0  0  0
  4  3  2  0  0  0  0
  5  4  1  0  0  0  0
  6  5  2  0  0  0  0
  6  7  1  0  0  0  0
  7  2  2  0  0  0  0
  8  9  1  1  0  0  0
 10  8  1  0  0  0  0
 10 33  1  0  0  0  0
 11 10  1  0  0  0  0
 11 19  1  0  0  0  0
 12 13  1  0  0  0  0
 12 11  1  0  0  0  0
 13 18  1  0  0  0  0
 14 35  1  0  0  0  0
 14 13  2  0  0  0  0
 15 14  1  0  0  0  0
 16 15  2  0  0  0  0
 16 17  1  0  0  0  0
 17 12  2  0  0  0  0
 18 21  1  0  0  0  0
 18 19  1  0  0  0  0
 19 20  1  6  0  0  0
 20 40  1  0  0  0  0
 20 39  1  0  0  0  0
 21 22  1  0  0  0  0
 21 42  1  0  0  0  0
 22 23  1  0  0  0  0
 23 28  1  0  0  0  0
 24 23  1  0  0  0  0
 24 46  1  0  0  0  0
 25 26  1  0  0  0  0
 25 24  1  0  0  0  0
 26 27  1  0  0  0  0
 27 49  1  0  0  0  0
 27 28  1  0  0  0  0
 28 51  1  0  0  0  0
 28 52  1  0  0  0  0
 30  5  1  0  0  0  0
 31  6  1  0  0  0  0
 32  7  1  0  0  0  0
 34 10  1  0  0  0  0
 36 15  1  0  0  0  0
 37 16  1  0  0  0  0
 38 17  1  0  0  0  0
 41 21  1  0  0  0  0
 43 22  1  0  0  0  0
 44 22  1  0  0  0  0
 45 24  1  0  0  0  0
 47 25  1  0  0  0  0
 48 25  1  0  0  0  0
 50 27  1  0  0  0  0
M  END
>  <Pose>
1

>  <Score>
-4.54

$$$$
