
 OpenBabel03212208273D

 51 54  0  0  1  0  0  0  0  0999 V2000
   84.0130  100.3160  -44.3860 B   0  0  0  0  0  0  0  0  0  0  0  0
   85.9000  100.0580  -44.5930 C   0  0  0  0  0  0  0  0  0  0  0  0
   86.5060  100.1070  -45.8230 C   0  0  0  0  0  0  0  0  0  0  0  0
   87.8590   99.9200  -45.9440 C   0  0  0  0  0  0  0  0  0  0  0  0
   88.7000   99.6700  -44.8440 C   0  0  0  0  0  0  0  0  0  0  0  0
   88.0790   99.6250  -43.6350 C   0  0  0  0  0  0  0  0  0  0  0  0
   86.7160   99.8140  -43.5120 C   0  0  0  0  0  0  0  0  0  0  0  0
   90.1030   99.4700  -45.1020 C   0  0  1  0  0  0  0  0  0  0  0  0
   91.0620  100.0230  -44.1910 N   0  0  0  0  0  0  0  0  0  0  0  0
   92.3180   99.4040  -44.6010 C   0  0  0  0  0  0  0  0  0  0  0  0
   93.4630   99.8760  -44.4280 O   0  0  0  0  0  0  0  0  0  0  0  0
   91.9940   98.1440  -45.2440 C   0  0  0  0  0  0  0  0  0  0  0  0
   92.7730   97.2840  -45.7520 O   0  0  0  0  0  0  0  0  0  0  0  0
   90.5320   98.0450  -45.1970 C   0  0  0  0  0  0  0  0  0  0  0  0
   89.8350   96.9450  -45.2700 C   0  0  0  0  0  0  0  0  0  0  0  0
   88.4380   97.0410  -45.2670 O   0  0  0  0  0  0  0  0  0  0  0  0
   90.4820   95.6200  -45.3490 C   0  0  0  0  0  0  0  0  0  0  0  0
   90.2560   94.7080  -46.2880 O   0  0  0  0  0  0  0  0  0  0  0  0
   90.9740   93.6320  -46.0940 C   0  0  0  0  0  0  0  0  0  0  0  0
   91.7460   93.7870  -44.9620 C   0  0  0  0  0  0  0  0  0  0  0  0
   91.4130   95.0540  -44.5130 C   0  0  0  0  0  0  0  0  0  0  0  0
   92.5930   92.7840  -44.5470 C   0  0  0  0  0  0  0  0  0  0  0  0
   92.7210   91.5870  -45.2180 C   0  0  0  0  0  0  0  0  0  0  0  0
   91.9470   91.4270  -46.3530 C   0  0  0  0  0  0  0  0  0  0  0  0
   91.0950   92.4210  -46.7820 C   0  0  0  0  0  0  0  0  0  0  0  0
   90.9740  101.0080  -43.1360 C   0  0  0  0  0  0  0  0  0  0  0  0
   90.7210  100.5390  -41.7660 C   0  0  0  0  0  0  0  0  0  0  0  0
   91.8230   99.9400  -41.0580 N   0  0  0  0  0  4  0  0  0  0  0  0
   92.2830   98.7290  -41.6750 C   0  0  0  0  0  0  0  0  0  0  0  0
   92.8610  100.8520  -40.6710 C   0  0  0  0  0  0  0  0  0  0  0  0
   85.8790  100.2980  -46.6850 H   0  0  0  0  0  0  0  0  0  0  0  0
   88.2700   99.9710  -46.9490 H   0  0  0  0  0  0  0  0  0  0  0  0
   88.6450   99.4190  -42.7520 H   0  0  0  0  0  0  0  0  0  0  0  0
   86.2470   99.7710  -42.5270 H   0  0  0  0  0  0  0  0  0  0  0  0
   90.3820   99.8980  -46.1150 H   0  0  0  0  0  0  0  0  0  0  0  0
   91.8130   95.5240  -43.6280 H   0  0  0  0  0  0  0  0  0  0  0  0
   93.1880   92.9240  -43.6600 H   0  0  0  0  0  0  0  0  0  0  0  0
   93.3790   90.7840  -44.9110 H   0  0  0  0  0  0  0  0  0  0  0  0
   92.0050   90.5100  -46.9230 H   0  0  0  0  0  0  0  0  0  0  0  0
   90.4910   92.2970  -47.6700 H   0  0  0  0  0  0  0  0  0  0  0  0
   90.2460  101.8170  -43.4010 H   0  0  0  0  0  0  0  0  0  0  0  0
   91.9710  101.5520  -43.1270 H   0  0  0  0  0  0  0  0  0  0  0  0
   89.9050   99.7920  -41.7550 H   0  0  0  0  0  0  0  0  0  0  0  0
   90.3980  101.4240  -41.1390 H   0  0  0  0  0  0  0  0  0  0  0  0
   91.3790   99.6140  -40.1320 H   0  0  0  0  0  0  0  0  0  0  0  0
   91.6320   98.5460  -42.5510 H   0  0  0  0  0  0  0  0  0  0  0  0
   93.3690   98.7180  -41.9030 H   0  0  0  0  0  0  0  0  0  0  0  0
   92.1340   97.8150  -41.0300 H   0  0  0  0  0  0  0  0  0  0  0  0
   92.6820  101.9050  -40.9410 H   0  0  0  0  0  0  0  0  0  0  0  0
   93.0120  100.8760  -39.5500 H   0  0  0  0  0  0  0  0  0  0  0  0
   93.8670  100.4850  -41.0390 H   0  0  0  0  0  0  0  0  0  0  0  0
  2  1  1  0  0  0  0
  2  7  1  0  0  0  0
  3  2  2  0  0  0  0
  4  3  1  0  0  0  0
  4  5  2  0  0  0  0
  5  6  1  0  0  0  0
  6  7  2  0  0  0  0
  6 33  1  0  0  0  0
  7 34  1  0  0  0  0
  8 35  1  6  0  0  0
  8  5  1  0  0  0  0
  8  9  1  0  0  0  0
  9 26  1  0  0  0  0
 10 11  2  0  0  0  0
 10  9  1  0  0  0  0
 12 14  1  0  0  0  0
 12 10  1  0  0  0  0
 13 12  2  0  0  0  0
 14  8  1  0  0  0  0
 15 16  1  0  0  0  0
 15 14  2  0  0  0  0
 17 15  1  0  0  0  0
 17 21  2  0  0  0  0
 18 19  1  0  0  0  0
 18 17  1  0  0  0  0
 19 20  1  0  0  0  0
 20 22  2  0  0  0  0
 20 21  1  0  0  0  0
 21 36  1  0  0  0  0
 22 37  1  0  0  0  0
 23 38  1  0  0  0  0
 23 22  1  0  0  0  0
 24 23  2  0  0  0  0
 25 24  1  0  0  0  0
 25 19  2  0  0  0  0
 26 42  1  0  0  0  0
 26 27  1  0  0  0  0
 27 43  1  0  0  0  0
 27 44  1  0  0  0  0
 27 28  1  0  0  0  0
 28 30  1  0  0  0  0
 28 45  1  0  0  0  0
 29 28  1  0  0  0  0
 29 48  1  0  0  0  0
 30 50  1  0  0  0  0
 31  3  1  0  0  0  0
 32  4  1  0  0  0  0
 39 24  1  0  0  0  0
 40 25  1  0  0  0  0
 41 26  1  0  0  0  0
 46 29  1  0  0  0  0
 47 29  1  0  0  0  0
 49 30  1  0  0  0  0
 51 30  1  0  0  0  0
M  END
>  <Pose>
1

>  <Score>
-4.90

$$$$
