
 OpenBabel03212208273D

 55 58  0  0  1  0  0  0  0  0999 V2000
   85.1180   96.2120  -46.9850 B   0  0  0  0  0  0  0  0  0  0  0  0
   85.1140   97.4840  -45.5520 C   0  0  0  0  0  0  0  0  0  0  0  0
   84.4550   97.1650  -44.3860 C   0  0  0  0  0  0  0  0  0  0  0  0
   84.4400   98.0660  -43.3460 C   0  0  0  0  0  0  0  0  0  0  0  0
   85.0610   99.3060  -43.3910 C   0  0  0  0  0  0  0  0  0  0  0  0
   85.7120   99.5950  -44.5690 C   0  0  0  0  0  0  0  0  0  0  0  0
   85.7370   98.6880  -45.6410 C   0  0  0  0  0  0  0  0  0  0  0  0
   84.9890  100.1470  -42.2850 N   0  0  0  0  0  0  0  0  0  0  0  0
   85.3480  101.5020  -42.1820 C   0  0  0  0  0  0  0  0  0  0  0  0
   84.7100  102.2800  -41.4450 O   0  0  0  0  0  0  0  0  0  0  0  0
   86.4910  102.0880  -42.9290 C   0  0  0  0  0  0  0  0  0  0  0  0
   87.7370  101.7630  -42.3010 N   0  0  0  0  0  0  0  0  0  0  0  0
   88.6440  100.8000  -42.8070 C   0  0  0  0  0  0  0  0  0  0  0  0
   88.5850  100.5260  -44.0360 O   0  0  0  0  0  0  0  0  0  0  0  0
   89.6210  100.1480  -41.8950 C   0  0  2  0  0  0  0  0  0  0  0  0
   90.2380  101.0970  -41.1710 O   0  0  0  0  0  0  0  0  0  0  0  0
   91.4900  100.8490  -40.7030 C   0  0  2  0  0  0  0  0  0  0  0  0
   92.0470  102.0730  -40.3040 O   0  0  0  0  0  0  0  0  0  0  0  0
   92.6740  102.6180  -41.3980 C   0  0  0  0  0  0  0  0  0  0  0  0
   92.7070  101.6760  -42.4060 O   0  0  0  0  0  0  0  0  0  0  0  0
   92.4700  100.4320  -41.7760 C   0  0  2  0  0  0  0  0  0  0  0  0
   91.9030   99.4290  -42.7050 C   0  0  1  0  0  0  0  0  0  0  0  0
   92.4990   98.1610  -42.5200 O   0  0  0  0  0  0  0  0  0  0  0  0
   91.4980   97.2240  -42.5680 C   0  0  0  0  0  0  0  0  0  0  0  0
   90.3950   97.8780  -42.0840 O   0  0  0  0  0  0  0  0  0  0  0  0
   90.4610   99.1700  -42.6280 C   0  0  1  0  0  0  0  0  0  0  0  0
   91.9200   96.0760  -41.6430 C   0  0  0  0  0  0  0  0  0  0  0  0
   91.3080   96.6160  -43.9330 C   0  0  0  0  0  0  0  0  0  0  0  0
   94.1280  102.9850  -41.0970 C   0  0  0  0  0  0  0  0  0  0  0  0
   92.0030  103.8950  -41.8780 C   0  0  0  0  0  0  0  0  0  0  0  0
   83.9400   96.1940  -44.2860 H   0  0  0  0  0  0  0  0  0  0  0  0
   83.9070   97.7610  -42.4570 H   0  0  0  0  0  0  0  0  0  0  0  0
   86.2150  100.5190  -44.6970 H   0  0  0  0  0  0  0  0  0  0  0  0
   86.2590   98.9720  -46.5290 H   0  0  0  0  0  0  0  0  0  0  0  0
   84.6100   99.7090  -41.3830 H   0  0  0  0  0  0  0  0  0  0  0  0
   86.5030  101.5810  -43.9390 H   0  0  0  0  0  0  0  0  0  0  0  0
   86.3630  103.1640  -43.1410 H   0  0  0  0  0  0  0  0  0  0  0  0
   87.9910  102.2630  -41.4220 H   0  0  0  0  0  0  0  0  0  0  0  0
   88.9790   99.5430  -41.1830 H   0  0  0  0  0  0  0  0  0  0  0  0
   91.5450  100.1870  -39.8160 H   0  0  0  0  0  0  0  0  0  0  0  0
   93.3890  100.0870  -41.2590 H   0  0  0  0  0  0  0  0  0  0  0  0
   92.2130   99.7240  -43.7500 H   0  0  0  0  0  0  0  0  0  0  0  0
   90.0590   99.0630  -43.6680 H   0  0  0  0  0  0  0  0  0  0  0  0
   91.2380   95.2400  -41.8380 H   0  0  0  0  0  0  0  0  0  0  0  0
   91.9490   96.4060  -40.5940 H   0  0  0  0  0  0  0  0  0  0  0  0
   92.9550   95.8120  -41.9450 H   0  0  0  0  0  0  0  0  0  0  0  0
   90.2770   96.3350  -44.1520 H   0  0  0  0  0  0  0  0  0  0  0  0
   91.6850   97.2920  -44.7300 H   0  0  0  0  0  0  0  0  0  0  0  0
   91.9180   95.6730  -44.0470 H   0  0  0  0  0  0  0  0  0  0  0  0
   94.1660  103.4650  -40.1120 H   0  0  0  0  0  0  0  0  0  0  0  0
   94.7940  102.1100  -41.2090 H   0  0  0  0  0  0  0  0  0  0  0  0
   94.4190  103.7370  -41.8610 H   0  0  0  0  0  0  0  0  0  0  0  0
   92.6480  104.7870  -41.7400 H   0  0  0  0  0  0  0  0  0  0  0  0
   91.0520  104.0820  -41.3240 H   0  0  0  0  0  0  0  0  0  0  0  0
   91.7730  103.8470  -42.9710 H   0  0  0  0  0  0  0  0  0  0  0  0
  1  2  1  0  0  0  0
  2  3  1  0  0  0  0
  3 31  1  0  0  0  0
  3  4  2  0  0  0  0
  4 32  1  0  0  0  0
  5  4  1  0  0  0  0
  5  8  1  0  0  0  0
  6  5  2  0  0  0  0
  7  2  2  0  0  0  0
  7  6  1  0  0  0  0
  8  9  1  0  0  0  0
  8 35  1  0  0  0  0
  9 10  2  0  0  0  0
 11 12  1  0  0  0  0
 11  9  1  0  0  0  0
 12 38  1  0  0  0  0
 13 12  1  0  0  0  0
 13 15  1  0  0  0  0
 14 13  2  0  0  0  0
 15 39  1  1  0  0  0
 15 16  1  0  0  0  0
 16 17  1  0  0  0  0
 17 18  1  0  0  0  0
 17 40  1  1  0  0  0
 19 29  1  0  0  0  0
 19 18  1  0  0  0  0
 20 21  1  0  0  0  0
 20 19  1  0  0  0  0
 21 41  1  1  0  0  0
 21 17  1  0  0  0  0
 22 42  1  6  0  0  0
 22 26  1  0  0  0  0
 22 23  1  0  0  0  0
 22 21  1  0  0  0  0
 24 23  1  0  0  0  0
 24 25  1  0  0  0  0
 24 27  1  0  0  0  0
 26 43  1  6  0  0  0
 26 25  1  0  0  0  0
 26 15  1  0  0  0  0
 27 45  1  0  0  0  0
 28 24  1  0  0  0  0
 29 50  1  0  0  0  0
 30 53  1  0  0  0  0
 30 19  1  0  0  0  0
 30 54  1  0  0  0  0
 33  6  1  0  0  0  0
 34  7  1  0  0  0  0
 36 11  1  0  0  0  0
 37 11  1  0  0  0  0
 44 27  1  0  0  0  0
 46 27  1  0  0  0  0
 47 28  1  0  0  0  0
 48 28  1  0  0  0  0
 49 28  1  0  0  0  0
 51 29  1  0  0  0  0
 52 29  1  0  0  0  0
 55 30  1  0  0  0  0
M  END
>  <Pose>
1

>  <Score>
-5.33

$$$$
