
 OpenBabel03212208273D

 50 53  0  0  1  0  0  0  0  0999 V2000
   83.8580   95.0370  -46.4260 Cl  0  0  0  0  0  0  0  0  0  0  0  0
   85.0160   96.2020  -45.7980 C   0  0  0  0  0  0  0  0  0  0  0  0
   84.7330   96.9720  -44.6910 C   0  0  0  0  0  0  0  0  0  0  0  0
   85.6470   97.8880  -44.2020 C   0  0  0  0  0  0  0  0  0  0  0  0
   86.8810   98.0780  -44.7900 C   0  0  0  0  0  0  0  0  0  0  0  0
   87.1680   97.3080  -45.8980 C   0  0  0  0  0  0  0  0  0  0  0  0
   86.2460   96.3800  -46.3960 C   0  0  0  0  0  0  0  0  0  0  0  0
   87.8290   99.0510  -44.2510 C   0  0  0  0  0  0  0  0  0  0  0  0
   87.6010  100.2270  -43.6200 N   0  0  0  0  0  0  0  0  0  0  0  0
   88.7890  100.7820  -43.3020 C   0  0  1  0  0  0  0  0  0  0  0  0
   89.8010   99.9890  -43.7130 N   0  0  0  0  0  0  0  0  0  0  0  0
   89.2000   98.9270  -44.2960 C   0  0  0  0  0  0  0  0  0  0  0  0
   91.2270  100.2030  -43.5740 C   0  0  0  0  0  0  0  0  0  0  0  0
   91.6160  100.1180  -42.1370 C   0  0  0  0  0  0  0  0  0  0  0  0
   91.1790  100.9780  -41.3700 O   0  0  0  0  0  0  0  0  0  0  0  0
   92.4510   99.0700  -41.7470 N   0  0  0  0  0  0  0  0  0  0  0  0
   92.1630   97.6930  -41.9360 C   0  0  0  0  0  0  0  0  0  0  0  0
   92.3430   96.8130  -40.8610 C   0  0  0  0  0  0  0  0  0  0  0  0
   92.0950   95.4860  -41.0120 C   0  0  0  0  0  0  0  0  0  0  0  0
   91.6610   94.9680  -42.2210 C   0  0  0  0  0  0  0  0  0  0  0  0
   91.4890   95.8340  -43.2630 C   0  0  0  0  0  0  0  0  0  0  0  0
   91.7370   97.2070  -43.1390 C   0  0  0  0  0  0  0  0  0  0  0  0
   91.3960   93.5140  -42.3620 C   0  0  0  0  0  0  0  0  0  0  0  0
   92.3570   92.9560  -43.4160 C   0  0  0  0  0  0  0  0  0  0  0  0
   88.5680  102.0770  -42.6090 C   0  0  0  0  0  0  0  0  0  0  0  0
   87.0930  102.2190  -42.4530 C   0  0  0  0  0  0  0  0  0  0  0  0
   86.5080  101.0670  -43.1830 C   0  0  0  0  0  0  0  0  0  0  0  0
   83.7680   96.8300  -44.2260 H   0  0  0  0  0  0  0  0  0  0  0  0
   85.3990   98.4840  -43.3270 H   0  0  0  0  0  0  0  0  0  0  0  0
   88.1210   97.4160  -46.3950 H   0  0  0  0  0  0  0  0  0  0  0  0
   86.4680   95.7800  -47.2590 H   0  0  0  0  0  0  0  0  0  0  0  0
   89.7450   98.0800  -44.7440 H   0  0  0  0  0  0  0  0  0  0  0  0
   91.5160  101.1760  -44.0200 H   0  0  0  0  0  0  0  0  0  0  0  0
   91.7250   99.4190  -44.1880 H   0  0  0  0  0  0  0  0  0  0  0  0
   93.3950   99.2620  -41.2700 H   0  0  0  0  0  0  0  0  0  0  0  0
   92.6870   97.2110  -39.8940 H   0  0  0  0  0  0  0  0  0  0  0  0
   92.2370   94.7920  -40.1650 H   0  0  0  0  0  0  0  0  0  0  0  0
   91.1490   95.4830  -44.2400 H   0  0  0  0  0  0  0  0  0  0  0  0
   91.5840   97.8340  -44.0340 H   0  0  0  0  0  0  0  0  0  0  0  0
   90.3460   93.3520  -42.6600 H   0  0  0  0  0  0  0  0  0  0  0  0
   91.5920   92.9940  -41.4080 H   0  0  0  0  0  0  0  0  0  0  0  0
   93.3750   92.9350  -43.0100 H   0  0  0  0  0  0  0  0  0  0  0  0
   92.2400   93.5370  -44.3390 H   0  0  0  0  0  0  0  0  0  0  0  0
   92.0640   91.9050  -43.6480 H   0  0  0  0  0  0  0  0  0  0  0  0
   89.0330  102.9150  -43.1710 H   0  0  0  0  0  0  0  0  0  0  0  0
   89.0270  102.0360  -41.5820 H   0  0  0  0  0  0  0  0  0  0  0  0
   86.8040  102.2200  -41.3600 H   0  0  0  0  0  0  0  0  0  0  0  0
   86.7490  103.2110  -42.8790 H   0  0  0  0  0  0  0  0  0  0  0  0
   85.8950  101.4140  -44.0500 H   0  0  0  0  0  0  0  0  0  0  0  0
   85.8860  100.4880  -42.4430 H   0  0  0  0  0  0  0  0  0  0  0  0
  1  2  1  0  0  0  0
  2  3  1  0  0  0  0
  3 28  1  0  0  0  0
  3  4  2  0  0  0  0
  4 29  1  0  0  0  0
  5  8  1  0  0  0  0
  5  4  1  0  0  0  0
  6  5  2  0  0  0  0
  7  6  1  0  0  0  0
  7  2  2  0  0  0  0
  8  9  1  0  0  0  0
  9 10  1  0  0  0  0
  9 27  1  0  0  0  0
 10 11  1  6  0  0  0
 10 25  1  0  0  0  0
 11 13  1  0  0  0  0
 12  8  2  0  0  0  0
 12 11  1  0  0  0  0
 13 14  1  0  0  0  0
 14 16  1  0  0  0  0
 14 15  2  0  0  0  0
 16 35  1  0  0  0  0
 17 16  1  0  0  0  0
 17 18  1  0  0  0  0
 18 36  1  0  0  0  0
 19 18  2  0  0  0  0
 19 37  1  0  0  0  0
 20 19  1  0  0  0  0
 21 22  1  0  0  0  0
 21 20  2  0  0  0  0
 22 17  2  0  0  0  0
 23 20  1  0  0  0  0
 23 41  1  0  0  0  0
 24 42  1  0  0  0  0
 24 23  1  0  0  0  0
 25 26  1  0  0  0  0
 25 46  1  0  0  0  0
 26 47  1  0  0  0  0
 27 26  1  0  0  0  0
 27 50  1  0  0  0  0
 30  6  1  0  0  0  0
 31  7  1  0  0  0  0
 32 12  1  0  0  0  0
 33 13  1  0  0  0  0
 34 13  1  0  0  0  0
 38 21  1  0  0  0  0
 39 22  1  0  0  0  0
 40 23  1  0  0  0  0
 43 24  1  0  0  0  0
 44 24  1  0  0  0  0
 45 25  1  0  0  0  0
 48 26  1  0  0  0  0
 49 27  1  0  0  0  0
M  END
>  <Pose>
1

>  <Score>
-5.14

$$$$
