
 OpenBabel03212208273D

 42 45  0  0  1  0  0  0  0  0999 V2000
   85.4300   97.6780  -44.1860 Cl  0  0  0  0  0  0  0  0  0  0  0  0
   85.3480   99.3170  -43.5870 C   0  0  0  0  0  0  0  0  0  0  0  0
   86.5350   99.9950  -43.4050 C   0  0  0  0  0  0  0  0  0  0  0  0
   86.4350  101.2810  -42.9320 C   0  0  0  0  0  0  0  0  0  0  0  0
   85.2280  101.8800  -42.6520 C   0  0  0  0  0  0  0  0  0  0  0  0
   84.0330  101.1750  -42.8450 C   0  0  0  0  0  0  0  0  0  0  0  0
   84.1090   99.8890  -43.3150 C   0  0  0  0  0  0  0  0  0  0  0  0
   87.8310   99.3910  -43.6920 C   0  0  0  0  0  0  0  0  0  0  0  0
   88.2690   98.9130  -44.8690 N   0  0  0  0  0  0  0  0  0  0  0  0
   89.4930   98.4500  -44.7240 O   0  0  0  0  0  0  0  0  0  0  0  0
   89.8830   98.6050  -43.4840 C   0  0  0  0  0  0  0  0  0  0  0  0
   88.8510   99.1900  -42.8390 N   0  0  0  0  0  0  0  0  0  0  0  0
   91.2080   98.2180  -42.8770 C   0  0  0  0  0  0  0  0  0  0  0  0
   90.9980   97.4600  -41.6560 N   0  0  0  0  0  0  0  0  0  0  0  0
   91.8600   96.4120  -41.2890 C   0  0  0  0  0  0  0  0  0  0  0  0
   92.9890   96.6790  -40.8210 O   0  0  0  0  0  0  0  0  0  0  0  0
   91.4430   95.0120  -41.4530 C   0  0  1  0  0  0  0  0  0  0  0  0
   90.3280   94.8640  -42.4730 C   0  0  0  0  0  0  0  0  0  0  0  0
   90.0470   93.4290  -42.7680 C   0  0  0  0  0  0  0  0  0  0  0  0
   90.8090   92.8590  -43.9190 C   0  0  0  0  0  0  0  0  0  0  0  0
   92.1560   93.5480  -44.1190 C   0  0  0  0  0  0  0  0  0  0  0  0
   92.8700   93.4690  -42.8660 N   0  0  0  0  0  0  0  0  0  0  0  0
   93.9440   92.7460  -42.6900 N   0  0  0  0  0  0  0  0  0  0  0  0
   94.3480   92.8880  -41.4520 N   0  0  0  0  0  0  0  0  0  0  0  0
   93.5100   93.7120  -40.8530 N   0  0  0  0  0  0  0  0  0  0  0  0
   92.5620   94.0970  -41.7250 C   0  0  0  0  0  0  0  0  0  0  0  0
   87.3320  101.8510  -42.7740 H   0  0  0  0  0  0  0  0  0  0  0  0
   85.1390  102.8890  -42.2820 H   0  0  0  0  0  0  0  0  0  0  0  0
   83.0710  101.6260  -42.6310 H   0  0  0  0  0  0  0  0  0  0  0  0
   83.1830   99.3440  -43.4640 H   0  0  0  0  0  0  0  0  0  0  0  0
   91.8000   99.1240  -42.6780 H   0  0  0  0  0  0  0  0  0  0  0  0
   91.7500   97.6200  -43.6360 H   0  0  0  0  0  0  0  0  0  0  0  0
   90.1950   97.6950  -41.0400 H   0  0  0  0  0  0  0  0  0  0  0  0
   90.9920   94.6730  -40.4850 H   0  0  0  0  0  0  0  0  0  0  0  0
   89.3980   95.2990  -42.0010 H   0  0  0  0  0  0  0  0  0  0  0  0
   90.5230   95.4950  -43.3480 H   0  0  0  0  0  0  0  0  0  0  0  0
   88.9390   93.3120  -42.9340 H   0  0  0  0  0  0  0  0  0  0  0  0
   90.2570   92.8360  -41.8490 H   0  0  0  0  0  0  0  0  0  0  0  0
   90.9470   91.7740  -43.7290 H   0  0  0  0  0  0  0  0  0  0  0  0
   90.2690   92.9690  -44.8880 H   0  0  0  0  0  0  0  0  0  0  0  0
   92.7070   92.9820  -44.8950 H   0  0  0  0  0  0  0  0  0  0  0  0
   92.0270   94.5970  -44.3830 H   0  0  0  0  0  0  0  0  0  0  0  0
  1  2  1  0  0  0  0
  2  3  2  0  0  0  0
  2  7  1  0  0  0  0
  3  4  1  0  0  0  0
  4 27  1  0  0  0  0
  4  5  2  0  0  0  0
  5 28  1  0  0  0  0
  6  5  1  0  0  0  0
  6 29  1  0  0  0  0
  7  6  2  0  0  0  0
  8  3  1  0  0  0  0
  8 12  1  0  0  0  0
  9 10  1  0  0  0  0
  9  8  2  0  0  0  0
 10 11  1  0  0  0  0
 11 13  1  0  0  0  0
 11 12  2  0  0  0  0
 13 31  1  0  0  0  0
 13 14  1  0  0  0  0
 14 15  1  0  0  0  0
 14 33  1  0  0  0  0
 15 16  2  0  0  0  0
 17 15  1  0  0  0  0
 17 34  1  1  0  0  0
 18 35  1  0  0  0  0
 18 17  1  0  0  0  0
 19 18  1  0  0  0  0
 19 38  1  0  0  0  0
 20 39  1  0  0  0  0
 20 19  1  0  0  0  0
 21 20  1  0  0  0  0
 21 22  1  0  0  0  0
 22 23  1  0  0  0  0
 22 26  1  0  0  0  0
 23 24  2  0  0  0  0
 24 25  1  0  0  0  0
 26 17  1  0  0  0  0
 26 25  2  0  0  0  0
 30  7  1  0  0  0  0
 32 13  1  0  0  0  0
 36 18  1  0  0  0  0
 37 19  1  0  0  0  0
 40 20  1  0  0  0  0
 41 21  1  0  0  0  0
 42 21  1  0  0  0  0
M  END
>  <Pose>
1

>  <Score>
-5.12

$$$$
