
 OpenBabel03212208273D

 51 54  0  0  1  0  0  0  0  0999 V2000
   93.2170  102.1330  -39.6610 B   0  0  0  0  0  0  0  0  0  0  0  0
   93.0480  101.3690  -41.4010 C   0  0  0  0  0  0  0  0  0  0  0  0
   92.5340  100.0990  -41.5800 C   0  0  0  0  0  0  0  0  0  0  0  0
   92.3920   99.5040  -42.8150 C   0  0  0  0  0  0  0  0  0  0  0  0
   92.8050  100.2690  -43.9100 C   0  0  0  0  0  0  0  0  0  0  0  0
   93.3160  101.5310  -43.7330 C   0  0  0  0  0  0  0  0  0  0  0  0
   93.4510  102.1140  -42.4900 C   0  0  0  0  0  0  0  0  0  0  0  0
   94.0130  103.4880  -42.3560 C   0  0  0  0  0  0  0  0  0  0  0  0
   92.6450   99.6380  -45.1360 O   0  0  0  0  0  0  0  0  0  0  0  0
   92.3190   98.2700  -45.2960 C   0  0  0  0  0  0  0  0  0  0  0  0
   91.1970   97.8560  -44.2880 C   0  0  2  0  0  0  0  0  0  0  0  0
   91.8670   98.1580  -43.0000 C   0  0  0  0  0  0  0  0  0  0  0  0
   92.0400   97.3830  -42.0430 O   0  0  0  0  0  0  0  0  0  0  0  0
   90.7410   96.5870  -44.4680 N   0  0  0  0  0  0  0  0  0  0  0  0
   91.5230   95.4380  -44.2980 C   0  0  0  0  0  0  0  0  0  0  0  0
   91.9710   94.9100  -45.6440 C   0  0  0  0  0  0  0  0  0  0  0  0
   90.7900   94.4750  -46.2900 O   0  0  0  0  0  0  0  0  0  0  0  0
   90.1290   95.6660  -46.6380 C   0  0  0  0  0  0  0  0  0  0  0  0
   89.6820   96.3500  -45.3440 C   0  0  0  0  0  0  0  0  0  0  0  0
   90.1290   98.8580  -44.5480 C   0  0  0  0  0  0  0  0  0  0  0  0
   88.9970   98.8900  -43.6760 N   0  0  0  0  0  0  0  0  0  0  0  0
   89.0930   99.6220  -42.4700 C   0  0  0  0  0  0  0  0  0  0  0  0
   88.9830  101.1300  -42.7430 C   0  0  0  0  0  0  0  0  0  0  0  0
   87.6780  101.3310  -43.2050 O   0  0  0  0  0  0  0  0  0  0  0  0
   87.6070  100.7540  -44.4790 C   0  0  0  0  0  0  0  0  0  0  0  0
   87.8160   99.2710  -44.4520 C   0  0  0  0  0  0  0  0  0  0  0  0
   92.2080   99.4970  -40.7140 H   0  0  0  0  0  0  0  0  0  0  0  0
   93.6260  102.0950  -44.6040 H   0  0  0  0  0  0  0  0  0  0  0  0
   94.5960  103.6050  -41.4220 H   0  0  0  0  0  0  0  0  0  0  0  0
   94.6280  103.6670  -43.2670 H   0  0  0  0  0  0  0  0  0  0  0  0
   93.1930  104.2350  -42.3860 H   0  0  0  0  0  0  0  0  0  0  0  0
   91.9720   98.1440  -46.3340 H   0  0  0  0  0  0  0  0  0  0  0  0
   93.2170   97.6330  -45.1230 H   0  0  0  0  0  0  0  0  0  0  0  0
   92.3780   95.4900  -43.6290 H   0  0  0  0  0  0  0  0  0  0  0  0
   90.8610   94.6310  -43.8760 H   0  0  0  0  0  0  0  0  0  0  0  0
   92.4940   95.6610  -46.2300 H   0  0  0  0  0  0  0  0  0  0  0  0
   92.5610   93.9900  -45.4590 H   0  0  0  0  0  0  0  0  0  0  0  0
   89.2060   95.3940  -47.1770 H   0  0  0  0  0  0  0  0  0  0  0  0
   90.8310   96.2520  -47.2270 H   0  0  0  0  0  0  0  0  0  0  0  0
   89.0280   95.5450  -44.8580 H   0  0  0  0  0  0  0  0  0  0  0  0
   88.9800   97.1360  -45.5910 H   0  0  0  0  0  0  0  0  0  0  0  0
   89.7070   98.7750  -45.5910 H   0  0  0  0  0  0  0  0  0  0  0  0
   90.5320   99.9190  -44.5250 H   0  0  0  0  0  0  0  0  0  0  0  0
   90.0020   99.4840  -41.9170 H   0  0  0  0  0  0  0  0  0  0  0  0
   88.1880   99.3930  -41.8520 H   0  0  0  0  0  0  0  0  0  0  0  0
   89.1300  101.6150  -41.7430 H   0  0  0  0  0  0  0  0  0  0  0  0
   89.7440  101.4810  -43.4540 H   0  0  0  0  0  0  0  0  0  0  0  0
   86.5490  100.9330  -44.8180 H   0  0  0  0  0  0  0  0  0  0  0  0
   88.2620  101.2770  -45.2000 H   0  0  0  0  0  0  0  0  0  0  0  0
   86.9160   98.7520  -44.0950 H   0  0  0  0  0  0  0  0  0  0  0  0
   88.0040   98.9240  -45.4880 H   0  0  0  0  0  0  0  0  0  0  0  0
  2  1  1  0  0  0  0
  3  2  1  0  0  0  0
  3 27  1  0  0  0  0
  4  3  2  0  0  0  0
  5  6  2  0  0  0  0
  5  4  1  0  0  0  0
  6  7  1  0  0  0  0
  7  8  1  0  0  0  0
  7  2  2  0  0  0  0
  8 29  1  0  0  0  0
  9  5  1  0  0  0  0
 10  9  1  0  0  0  0
 10 33  1  0  0  0  0
 10 11  1  0  0  0  0
 11 20  1  6  0  0  0
 11 12  1  0  0  0  0
 12  4  1  0  0  0  0
 12 13  2  0  0  0  0
 14 15  1  0  0  0  0
 14 11  1  0  0  0  0
 15 35  1  0  0  0  0
 15 34  1  0  0  0  0
 16 37  1  0  0  0  0
 16 15  1  0  0  0  0
 17 16  1  0  0  0  0
 18 17  1  0  0  0  0
 18 19  1  0  0  0  0
 19 40  1  0  0  0  0
 19 14  1  0  0  0  0
 20 43  1  0  0  0  0
 20 21  1  0  0  0  0
 21 22  1  0  0  0  0
 22 44  1  0  0  0  0
 22 45  1  0  0  0  0
 23 22  1  0  0  0  0
 23 46  1  0  0  0  0
 24 23  1  0  0  0  0
 25 26  1  0  0  0  0
 25 24  1  0  0  0  0
 26 50  1  0  0  0  0
 26 21  1  0  0  0  0
 28  6  1  0  0  0  0
 30  8  1  0  0  0  0
 31  8  1  0  0  0  0
 32 10  1  0  0  0  0
 36 16  1  0  0  0  0
 38 18  1  0  0  0  0
 39 18  1  0  0  0  0
 41 19  1  0  0  0  0
 42 20  1  0  0  0  0
 47 23  1  0  0  0  0
 48 25  1  0  0  0  0
 49 25  1  0  0  0  0
 51 26  1  0  0  0  0
M  END
>  <Pose>
1

>  <Score>
-3.94

$$$$
