
 OpenBabel03212208273D

 36 39  0  0  1  0  0  0  0  0999 V2000
   86.4190  100.7690  -42.8200 B   0  0  0  0  0  0  0  0  0  0  0  0
   88.2460  100.7690  -43.4320 C   0  0  0  0  0  0  0  0  0  0  0  0
   89.0590   99.6850  -43.2300 C   0  0  0  0  0  0  0  0  0  0  0  0
   90.3630   99.7080  -43.6780 C   0  0  0  0  0  0  0  0  0  0  0  0
   90.7950  100.8370  -44.3180 C   0  0  0  0  0  0  0  0  0  0  0  0
   89.9580  101.9520  -44.5250 C   0  0  0  0  0  0  0  0  0  0  0  0
   88.6650  101.9120  -44.0740 C   0  0  0  0  0  0  0  0  0  0  0  0
   92.1560  100.7100  -44.7190 N   0  0  0  0  0  0  0  0  0  0  0  0
   92.6070   99.4460  -44.3170 C   0  0  0  0  0  0  0  0  0  0  0  0
   93.7760   98.9920  -44.5100 O   0  0  0  0  0  0  0  0  0  0  0  0
   91.4780   98.7310  -43.6250 C   0  0  2  0  0  0  0  0  0  0  0  0
   91.2250   97.5290  -44.4110 C   0  0  0  0  0  0  0  0  0  0  0  0
   91.4120   96.2890  -43.8850 C   0  0  0  0  0  0  0  0  0  0  0  0
   91.0900   95.3960  -44.8670 N   0  0  0  0  0  0  0  0  0  0  0  0
   90.7210   96.0330  -45.9580 N   0  0  0  0  0  0  0  0  0  0  0  0
   90.7880   97.3420  -45.7260 C   0  0  0  0  0  0  0  0  0  0  0  0
   90.4730   98.4830  -46.6410 C   0  0  0  0  0  0  0  0  0  0  0  0
   91.8500   96.0810  -42.5720 O   0  0  0  0  0  0  0  0  0  0  0  0
   92.0910   97.2300  -41.8260 C   0  0  0  0  0  0  0  0  0  0  0  0
   91.9310   98.4470  -42.2760 C   0  0  0  0  0  0  0  0  0  0  0  0
   92.2330   99.5460  -41.3430 C   0  0  0  0  0  0  0  0  0  0  0  0
   92.4870  100.4270  -40.6190 N   0  0  0  0  0  0  0  0  0  0  0  0
   92.5500   97.0760  -40.4530 N   0  0  0  0  0  0  0  0  0  0  0  0
   92.9580  101.7180  -45.4300 C   0  0  0  0  0  0  0  0  0  0  0  0
   88.7010   98.8030  -42.7250 H   0  0  0  0  0  0  0  0  0  0  0  0
   90.3030  102.8430  -45.0320 H   0  0  0  0  0  0  0  0  0  0  0  0
   87.9890  102.7680  -44.2220 H   0  0  0  0  0  0  0  0  0  0  0  0
   90.4160   95.6290  -46.8810 H   0  0  0  0  0  0  0  0  0  0  0  0
   90.1530   98.0210  -47.6110 H   0  0  0  0  0  0  0  0  0  0  0  0
   89.5800   99.0550  -46.2890 H   0  0  0  0  0  0  0  0  0  0  0  0
   91.3410   99.1040  -46.8630 H   0  0  0  0  0  0  0  0  0  0  0  0
   91.9710   97.5700  -39.7440 H   0  0  0  0  0  0  0  0  0  0  0  0
   93.3700   96.5330  -40.1920 H   0  0  0  0  0  0  0  0  0  0  0  0
   93.8190  101.9710  -44.7800 H   0  0  0  0  0  0  0  0  0  0  0  0
   93.3710  101.1810  -46.3150 H   0  0  0  0  0  0  0  0  0  0  0  0
   92.3550  102.5750  -45.7280 H   0  0  0  0  0  0  0  0  0  0  0  0
  2  3  1  0  0  0  0
  2  1  1  0  0  0  0
  3 25  1  0  0  0  0
  4 11  1  0  0  0  0
  4  3  2  0  0  0  0
  5  4  1  0  0  0  0
  6  5  2  0  0  0  0
  6  7  1  0  0  0  0
  7  2  2  0  0  0  0
  8  5  1  0  0  0  0
  8  9  1  0  0  0  0
  9 11  1  0  0  0  0
 10  9  2  0  0  0  0
 11 12  1  6  0  0  0
 11 20  1  0  0  0  0
 12 13  1  0  0  0  0
 13 18  1  0  0  0  0
 14 13  2  0  0  0  0
 15 16  1  0  0  0  0
 15 14  1  0  0  0  0
 16 12  2  0  0  0  0
 17 30  1  0  0  0  0
 17 16  1  0  0  0  0
 18 19  1  0  0  0  0
 19 23  1  0  0  0  0
 20 19  2  0  0  0  0
 20 21  1  0  0  0  0
 21 22  3  0  0  0  0
 23 33  1  0  0  0  0
 23 32  1  0  0  0  0
 24 34  1  0  0  0  0
 24  8  1  0  0  0  0
 26  6  1  0  0  0  0
 27  7  1  0  0  0  0
 28 15  1  0  0  0  0
 29 17  1  0  0  0  0
 31 17  1  0  0  0  0
 35 24  1  0  0  0  0
 36 24  1  0  0  0  0
M  END
>  <Pose>
1

>  <Score>
-4.73

$$$$
