
 OpenBabel03212208273D

 38 41  0  0  0  0  0  0  0  0999 V2000
   91.2930   95.5230  -45.7990 B   0  0  0  0  0  0  0  0  0  0  0  0
   91.5720   95.3640  -43.9330 C   0  0  0  0  0  0  0  0  0  0  0  0
   91.9000   94.1540  -43.4230 C   0  0  0  0  0  0  0  0  0  0  0  0
   92.0810   92.9540  -44.0100 N   0  0  0  0  0  0  0  0  0  0  0  0
   92.3880   92.1360  -43.0070 N   0  0  0  0  0  0  0  0  0  0  0  0
   92.4080   92.7490  -41.8560 N   0  0  0  0  0  0  0  0  0  0  0  0
   92.1000   94.0560  -42.0640 C   0  0  0  0  0  0  0  0  0  0  0  0
   91.9700   95.1690  -41.2390 C   0  0  0  0  0  0  0  0  0  0  0  0
   91.6450   96.3720  -41.7400 N   0  0  0  0  0  0  0  0  0  0  0  0
   91.4510   96.4560  -43.0740 C   0  0  0  0  0  0  0  0  0  0  0  0
   91.4980   97.5620  -40.9180 C   0  0  0  0  0  0  0  0  0  0  0  0
   92.5500   98.5570  -41.1090 C   0  0  0  0  0  0  0  0  0  0  0  0
   93.5840   98.4270  -40.3850 O   0  0  0  0  0  0  0  0  0  0  0  0
   92.5240   99.6770  -42.0450 C   0  0  0  0  0  0  0  0  0  0  0  0
   92.5800   99.4200  -43.3860 C   0  0  0  0  0  0  0  0  0  0  0  0
   92.5630  100.4520  -44.2870 C   0  0  0  0  0  0  0  0  0  0  0  0
   92.4900  101.7740  -43.8870 C   0  0  0  0  0  0  0  0  0  0  0  0
   92.4350  102.0010  -42.5140 C   0  0  0  0  0  0  0  0  0  0  0  0
   92.4510  100.9740  -41.6110 C   0  0  0  0  0  0  0  0  0  0  0  0
   92.4710  102.8290  -44.7760 C   0  0  0  0  0  0  0  0  0  0  0  0
   92.5290  102.5320  -46.1200 C   0  0  0  0  0  0  0  0  0  0  0  0
   92.6020  101.2170  -46.5310 C   0  0  0  0  0  0  0  0  0  0  0  0
   92.6200  100.1690  -45.6400 C   0  0  0  0  0  0  0  0  0  0  0  0
   91.9910   92.5460  -45.3600 C   0  0  0  0  0  0  0  0  0  0  0  0
   92.1350   95.0390  -40.1960 H   0  0  0  0  0  0  0  0  0  0  0  0
   91.1890   97.4130  -43.4990 H   0  0  0  0  0  0  0  0  0  0  0  0
   90.5090   98.0560  -41.1170 H   0  0  0  0  0  0  0  0  0  0  0  0
   91.4840   97.2520  -39.8570 H   0  0  0  0  0  0  0  0  0  0  0  0
   92.6380   98.4020  -43.7880 H   0  0  0  0  0  0  0  0  0  0  0  0
   92.3780  103.0540  -42.2010 H   0  0  0  0  0  0  0  0  0  0  0  0
   92.4090  101.1900  -40.5380 H   0  0  0  0  0  0  0  0  0  0  0  0
   92.4140  103.8420  -44.4000 H   0  0  0  0  0  0  0  0  0  0  0  0
   92.5150  103.3530  -46.8420 H   0  0  0  0  0  0  0  0  0  0  0  0
   92.6470  101.0020  -47.5920 H   0  0  0  0  0  0  0  0  0  0  0  0
   92.6780   99.1290  -45.9760 H   0  0  0  0  0  0  0  0  0  0  0  0
   91.9540   91.4380  -45.4050 H   0  0  0  0  0  0  0  0  0  0  0  0
   92.9400   92.8200  -45.9120 H   0  0  0  0  0  0  0  0  0  0  0  0
   91.1720   92.9070  -45.9610 H   0  0  0  0  0  0  0  0  0  0  0  0
  1  2  1  0  0  0  0
  2  3  1  0  0  0  0
  2 10  2  0  0  0  0
  3  7  2  0  0  0  0
  4  3  1  0  0  0  0
  4  5  1  0  0  0  0
  5  6  2  0  0  0  0
  7  6  1  0  0  0  0
  7  8  1  0  0  0  0
  8 25  1  0  0  0  0
  9  8  1  0  0  0  0
  9 11  1  0  0  0  0
 10  9  1  0  0  0  0
 11 28  1  0  0  0  0
 12 11  1  0  0  0  0
 12 13  2  0  0  0  0
 14 19  1  0  0  0  0
 14 12  1  0  0  0  0
 15 14  2  0  0  0  0
 16 17  1  0  0  0  0
 16 15  1  0  0  0  0
 17 18  1  0  0  0  0
 18 30  1  0  0  0  0
 18 19  2  0  0  0  0
 19 31  1  0  0  0  0
 20 32  1  0  0  0  0
 20 17  2  0  0  0  0
 21 20  1  0  0  0  0
 22 21  2  0  0  0  0
 22 23  1  0  0  0  0
 23 16  2  0  0  0  0
 24  4  1  0  0  0  0
 26 10  1  0  0  0  0
 27 11  1  0  0  0  0
 29 15  1  0  0  0  0
 33 21  1  0  0  0  0
 34 22  1  0  0  0  0
 35 23  1  0  0  0  0
 36 24  1  0  0  0  0
 37 24  1  0  0  0  0
 38 24  1  0  0  0  0
M  END
>  <Pose>
1

>  <Score>
-5.18

$$$$
