
 OpenBabel03212208273D

 66 69  0  0  1  0  0  0  0  0999 V2000
   91.9550   94.8920  -41.0980 B   0  0  0  0  0  0  0  0  0  0  0  0
   91.7320   94.8970  -43.0010 C   0  0  0  0  0  0  0  0  0  0  0  0
   91.4930   96.0800  -43.6590 C   0  0  0  0  0  0  0  0  0  0  0  0
   91.3240   96.1280  -45.0530 C   0  0  0  0  0  0  0  0  0  0  0  0
   91.4090   94.9270  -45.7230 C   0  0  0  0  0  0  0  0  0  0  0  0
   91.6460   93.7270  -45.0880 C   0  0  0  0  0  0  0  0  0  0  0  0
   91.8100   93.7060  -43.7220 C   0  0  0  0  0  0  0  0  0  0  0  0
   92.0700   92.4650  -42.9470 C   0  0  0  0  0  0  0  0  0  0  0  0
   91.7600   92.0800  -46.0430 B   0  0  0  0  0  0  0  0  0  0  0  0
   91.0710   97.3960  -45.7040 C   0  0  0  0  0  0  0  0  0  0  0  0
   91.0240   97.4640  -46.9370 O   0  0  0  0  0  0  0  0  0  0  0  0
   90.8710   98.6050  -44.8850 C   0  0  1  0  0  0  0  0  0  0  0  0
   91.7360   98.4570  -43.6520 C   0  0  0  0  0  0  0  0  0  0  0  0
   91.4140   97.2730  -42.9470 O   0  0  0  0  0  0  0  0  0  0  0  0
   91.1620   99.8820  -45.6140 C   0  0  0  0  0  0  0  0  0  0  0  0
   92.4810  100.0370  -46.0920 N   0  0  0  0  0  4  0  0  0  0  0  0
   92.4830  100.0640  -47.5250 C   0  0  0  0  0  0  0  0  0  0  0  0
   91.9100  101.2910  -48.1370 C   0  0  2  0  0  0  0  0  0  0  0  0
   91.6110  102.4150  -47.2220 C   0  0  0  0  0  0  0  0  0  0  0  0
   92.3480  102.4440  -45.9410 C   0  0  0  0  0  0  0  0  0  0  0  0
   93.1690  101.2210  -45.6550 C   0  0  0  0  0  0  0  0  0  0  0  0
   90.6010  100.8960  -48.8300 C   0  0  0  0  0  0  0  0  0  0  0  0
   89.4210   98.5770  -44.4470 C   0  0  0  0  0  0  0  0  0  0  0  0
   88.4750   98.9220  -45.4520 N   0  0  0  0  0  4  0  0  0  0  0  0
   87.9920  100.2860  -45.2470 C   0  0  0  0  0  0  0  0  0  0  0  0
   86.6420  100.3280  -44.5930 C   0  0  1  0  0  0  0  0  0  0  0  0
   86.5810   99.2950  -43.4910 C   0  0  0  0  0  0  0  0  0  0  0  0
   86.6430   97.9420  -44.1290 C   0  0  0  0  0  0  0  0  0  0  0  0
   87.3020   98.0750  -45.4790 C   0  0  0  0  0  0  0  0  0  0  0  0
   86.5180  101.6960  -43.9090 C   0  0  0  0  0  0  0  0  0  0  0  0
   91.2860   94.9060  -46.8030 H   0  0  0  0  0  0  0  0  0  0  0  0
   93.0720   92.5650  -42.4730 H   0  0  0  0  0  0  0  0  0  0  0  0
   91.9530   91.5570  -43.5400 H   0  0  0  0  0  0  0  0  0  0  0  0
   91.3410   92.4840  -42.0870 H   0  0  0  0  0  0  0  0  0  0  0  0
   92.8020   98.3910  -43.9170 H   0  0  0  0  0  0  0  0  0  0  0  0
   91.6490   99.3600  -42.9860 H   0  0  0  0  0  0  0  0  0  0  0  0
   90.4740   99.9040  -46.4850 H   0  0  0  0  0  0  0  0  0  0  0  0
   90.8460  100.7240  -44.9650 H   0  0  0  0  0  0  0  0  0  0  0  0
   93.0700   99.2180  -45.7970 H   0  0  0  0  0  0  0  0  0  0  0  0
   93.5600   99.9240  -47.8410 H   0  0  0  0  0  0  0  0  0  0  0  0
   91.9720   99.1460  -47.8820 H   0  0  0  0  0  0  0  0  0  0  0  0
   92.5840  101.6150  -48.9640 H   0  0  0  0  0  0  0  0  0  0  0  0
   91.8320  103.3750  -47.7740 H   0  0  0  0  0  0  0  0  0  0  0  0
   90.5030  102.4930  -47.0090 H   0  0  0  0  0  0  0  0  0  0  0  0
   91.6570  102.6370  -45.0680 H   0  0  0  0  0  0  0  0  0  0  0  0
   93.0660  103.3160  -45.8910 H   0  0  0  0  0  0  0  0  0  0  0  0
   93.5270  101.2260  -44.6340 H   0  0  0  0  0  0  0  0  0  0  0  0
   94.0880  101.3040  -46.3090 H   0  0  0  0  0  0  0  0  0  0  0  0
   90.4340  101.5210  -49.7420 H   0  0  0  0  0  0  0  0  0  0  0  0
   90.6050   99.8180  -49.0390 H   0  0  0  0  0  0  0  0  0  0  0  0
   89.7770  101.0990  -48.1200 H   0  0  0  0  0  0  0  0  0  0  0  0
   89.3480   99.3220  -43.6040 H   0  0  0  0  0  0  0  0  0  0  0  0
   89.2020   97.5900  -43.9490 H   0  0  0  0  0  0  0  0  0  0  0  0
   88.9090   98.9050  -46.3790 H   0  0  0  0  0  0  0  0  0  0  0  0
   87.9440  100.8500  -46.1930 H   0  0  0  0  0  0  0  0  0  0  0  0
   88.6890  100.8520  -44.5730 H   0  0  0  0  0  0  0  0  0  0  0  0
   85.8010  100.2640  -45.2950 H   0  0  0  0  0  0  0  0  0  0  0  0
   85.6240   99.4500  -42.9530 H   0  0  0  0  0  0  0  0  0  0  0  0
   87.4000   99.4940  -42.7930 H   0  0  0  0  0  0  0  0  0  0  0  0
   87.1020   97.1620  -43.5260 H   0  0  0  0  0  0  0  0  0  0  0  0
   85.5860   97.6050  -44.3340 H   0  0  0  0  0  0  0  0  0  0  0  0
   86.5840   98.5730  -46.1950 H   0  0  0  0  0  0  0  0  0  0  0  0
   87.4610   97.0700  -45.8720 H   0  0  0  0  0  0  0  0  0  0  0  0
   87.1210  102.4520  -44.4650 H   0  0  0  0  0  0  0  0  0  0  0  0
   86.8130  101.6370  -42.8400 H   0  0  0  0  0  0  0  0  0  0  0  0
   85.4660  102.0480  -43.9200 H   0  0  0  0  0  0  0  0  0  0  0  0
  2  1  1  0  0  0  0
  3  2  1  0  0  0  0
  3 14  1  0  0  0  0
  4  3  2  0  0  0  0
  5  6  2  0  0  0  0
  5  4  1  0  0  0  0
  6  7  1  0  0  0  0
  7  2  2  0  0  0  0
  7  8  1  0  0  0  0
  8 32  1  0  0  0  0
  8 34  1  0  0  0  0
  9  6  1  0  0  0  0
 10  4  1  0  0  0  0
 10 12  1  0  0  0  0
 11 10  2  0  0  0  0
 12 15  1  6  0  0  0
 12 23  1  0  0  0  0
 12 13  1  0  0  0  0
 13 36  1  0  0  0  0
 13 14  1  0  0  0  0
 15 38  1  0  0  0  0
 16 39  1  0  0  0  0
 16 21  1  0  0  0  0
 16 15  1  0  0  0  0
 17 16  1  0  0  0  0
 18 42  1  6  0  0  0
 18 17  1  0  0  0  0
 18 19  1  0  0  0  0
 19 44  1  0  0  0  0
 19 20  1  0  0  0  0
 20 46  1  0  0  0  0
 20 21  1  0  0  0  0
 20 45  1  0  0  0  0
 21 47  1  0  0  0  0
 22 18  1  0  0  0  0
 22 51  1  0  0  0  0
 23 53  1  0  0  0  0
 23 52  1  0  0  0  0
 24 25  1  0  0  0  0
 24 23  1  0  0  0  0
 25 26  1  0  0  0  0
 25 56  1  0  0  0  0
 26 57  1  6  0  0  0
 26 30  1  0  0  0  0
 26 27  1  0  0  0  0
 27 58  1  0  0  0  0
 27 59  1  0  0  0  0
 28 60  1  0  0  0  0
 28 27  1  0  0  0  0
 29 24  1  0  0  0  0
 29 28  1  0  0  0  0
 30 65  1  0  0  0  0
 31  5  1  0  0  0  0
 33  8  1  0  0  0  0
 35 13  1  0  0  0  0
 37 15  1  0  0  0  0
 40 17  1  0  0  0  0
 41 17  1  0  0  0  0
 43 19  1  0  0  0  0
 48 21  1  0  0  0  0
 49 22  1  0  0  0  0
 50 22  1  0  0  0  0
 54 24  1  0  0  0  0
 55 25  1  0  0  0  0
 61 28  1  0  0  0  0
 62 29  1  0  0  0  0
 63 29  1  0  0  0  0
 64 30  1  0  0  0  0
 66 30  1  0  0  0  0
M  END
>  <Pose>
1

>  <Score>
-4.89

$$$$
