
 OpenBabel03212208273D

 56 59  0  0  1  0  0  0  0  0999 V2000
   91.4760   94.6030  -45.4070 B   0  0  0  0  0  0  0  0  0  0  0  0
   91.7630   95.0200  -43.5790 C   0  0  0  0  0  0  0  0  0  0  0  0
   91.5750   96.3300  -43.1300 C   0  0  0  0  0  0  0  0  0  0  0  0
   91.7620   96.6660  -41.8120 C   0  0  0  0  0  0  0  0  0  0  0  0
   92.1420   95.6660  -40.9490 C   0  0  0  0  0  0  0  0  0  0  0  0
   92.3380   94.3520  -41.3700 C   0  0  0  0  0  0  0  0  0  0  0  0
   92.1410   94.0240  -42.7140 C   0  0  0  0  0  0  0  0  0  0  0  0
   92.3410   92.6230  -43.1750 C   0  0  0  0  0  0  0  0  0  0  0  0
   92.7710   93.3100  -40.4010 C   0  0  0  0  0  0  0  0  0  0  0  0
   91.5460   98.0260  -41.2380 C   0  0  2  0  0  0  0  0  0  0  0  0
   91.3150   99.1000  -42.2560 C   0  0  2  0  0  0  0  0  0  0  0  0
   91.8490   98.6270  -43.5960 C   0  0  0  0  0  0  0  0  0  0  0  0
   91.2000   97.3800  -43.9570 O   0  0  0  0  0  0  0  0  0  0  0  0
   92.1110  100.2340  -41.8390 N   0  0  0  0  0  0  0  0  0  0  0  0
   91.3990  101.1690  -41.0340 C   0  0  0  0  0  0  0  0  0  0  0  0
   92.0300  102.5260  -40.9050 C   0  0  0  0  0  0  0  0  0  0  0  0
   92.6500  102.9920  -42.0330 O   0  0  0  0  0  0  0  0  0  0  0  0
   93.6260  102.0570  -42.4050 C   0  0  0  0  0  0  0  0  0  0  0  0
   92.7970  100.8570  -42.9320 C   0  0  0  0  0  0  0  0  0  0  0  0
   89.9010   99.4510  -42.5220 C   0  0  0  0  0  0  0  0  0  0  0  0
   89.4550  100.0530  -43.6940 N   0  0  0  0  0  0  0  0  0  0  0  0
   88.3840   99.2010  -44.3170 C   0  0  0  0  0  0  0  0  0  0  0  0
   87.2780   98.9460  -43.3620 C   0  0  0  0  0  0  0  0  0  0  0  0
   87.0460   99.9520  -42.4620 O   0  0  0  0  0  0  0  0  0  0  0  0
   87.4430  101.2000  -42.8430 C   0  0  0  0  0  0  0  0  0  0  0  0
   88.7210  101.3020  -43.6100 C   0  0  0  0  0  0  0  0  0  0  0  0
   92.7020   98.3330  -40.4550 O   0  0  0  0  0  0  0  0  0  0  0  0
   92.3210   95.8300  -39.8740 H   0  0  0  0  0  0  0  0  0  0  0  0
   93.3620   92.2470  -43.0630 H   0  0  0  0  0  0  0  0  0  0  0  0
   92.0940   92.5710  -44.2620 H   0  0  0  0  0  0  0  0  0  0  0  0
   91.6010   92.0130  -42.5790 H   0  0  0  0  0  0  0  0  0  0  0  0
   93.8510   93.5170  -40.1560 H   0  0  0  0  0  0  0  0  0  0  0  0
   92.2090   93.3130  -39.4590 H   0  0  0  0  0  0  0  0  0  0  0  0
   92.7390   92.3230  -40.9170 H   0  0  0  0  0  0  0  0  0  0  0  0
   90.7580   97.8930  -40.4980 H   0  0  0  0  0  0  0  0  0  0  0  0
   92.9150   98.4600  -43.6450 H   0  0  0  0  0  0  0  0  0  0  0  0
   91.4690   99.3520  -44.3580 H   0  0  0  0  0  0  0  0  0  0  0  0
   91.3330  100.7730  -40.0030 H   0  0  0  0  0  0  0  0  0  0  0  0
   90.4230  101.3410  -41.5270 H   0  0  0  0  0  0  0  0  0  0  0  0
   92.6870  102.6170  -40.0160 H   0  0  0  0  0  0  0  0  0  0  0  0
   91.1990  103.2540  -40.6920 H   0  0  0  0  0  0  0  0  0  0  0  0
   94.1730  102.4550  -43.2620 H   0  0  0  0  0  0  0  0  0  0  0  0
   94.2380  101.7400  -41.5430 H   0  0  0  0  0  0  0  0  0  0  0  0
   92.0710  101.3580  -43.6200 H   0  0  0  0  0  0  0  0  0  0  0  0
   93.5280  100.2180  -43.4250 H   0  0  0  0  0  0  0  0  0  0  0  0
   89.6720  100.2090  -41.6720 H   0  0  0  0  0  0  0  0  0  0  0  0
   89.2300   98.6050  -42.2200 H   0  0  0  0  0  0  0  0  0  0  0  0
   88.8470   98.2860  -44.7300 H   0  0  0  0  0  0  0  0  0  0  0  0
   88.0070   99.7730  -45.1840 H   0  0  0  0  0  0  0  0  0  0  0  0
   86.3190   98.6830  -43.8990 H   0  0  0  0  0  0  0  0  0  0  0  0
   87.5460   98.0290  -42.7800 H   0  0  0  0  0  0  0  0  0  0  0  0
   87.5510  101.8110  -41.9260 H   0  0  0  0  0  0  0  0  0  0  0  0
   86.5720  101.6440  -43.4070 H   0  0  0  0  0  0  0  0  0  0  0  0
   88.3680  101.4440  -44.7030 H   0  0  0  0  0  0  0  0  0  0  0  0
   89.2910  102.2000  -43.4460 H   0  0  0  0  0  0  0  0  0  0  0  0
   92.3740   98.6860  -39.5910 H   0  0  0  0  0  0  0  0  0  0  0  0
  1  2  1  0  0  0  0
  2  3  2  0  0  0  0
  2  7  1  0  0  0  0
  3  4  1  0  0  0  0
  4 10  1  0  0  0  0
  4  5  2  0  0  0  0
  5 28  1  0  0  0  0
  6  5  1  0  0  0  0
  6  9  1  0  0  0  0
  7  6  2  0  0  0  0
  8 29  1  0  0  0  0
  8  7  1  0  0  0  0
  8 31  1  0  0  0  0
  9 32  1  0  0  0  0
  9 33  1  0  0  0  0
 10 35  1  1  0  0  0
 10 27  1  0  0  0  0
 11 20  1  6  0  0  0
 11 14  1  0  0  0  0
 11 10  1  0  0  0  0
 12 11  1  0  0  0  0
 13 12  1  0  0  0  0
 13  3  1  0  0  0  0
 14 15  1  0  0  0  0
 15 16  1  0  0  0  0
 15 38  1  0  0  0  0
 16 41  1  0  0  0  0
 16 40  1  0  0  0  0
 17 16  1  0  0  0  0
 18 17  1  0  0  0  0
 18 43  1  0  0  0  0
 19 18  1  0  0  0  0
 19 14  1  0  0  0  0
 20 47  1  0  0  0  0
 20 46  1  0  0  0  0
 21 26  1  0  0  0  0
 21 20  1  0  0  0  0
 22 21  1  0  0  0  0
 22 23  1  0  0  0  0
 23 51  1  0  0  0  0
 23 24  1  0  0  0  0
 25 24  1  0  0  0  0
 25 52  1  0  0  0  0
 26 55  1  0  0  0  0
 26 25  1  0  0  0  0
 27 56  1  0  0  0  0
 30  8  1  0  0  0  0
 34  9  1  0  0  0  0
 36 12  1  0  0  0  0
 37 12  1  0  0  0  0
 39 15  1  0  0  0  0
 42 18  1  0  0  0  0
 44 19  1  0  0  0  0
 45 19  1  0  0  0  0
 48 22  1  0  0  0  0
 49 22  1  0  0  0  0
 50 23  1  0  0  0  0
 53 25  1  0  0  0  0
 54 26  1  0  0  0  0
M  END
>  <Pose>
1

>  <Score>
-4.13

$$$$
