
 OpenBabel03212208273D

 45 48  0  0  0  0  0  0  0  0999 V2000
   83.6020  100.0270  -43.6990 B   0  0  0  0  0  0  0  0  0  0  0  0
   85.1300   99.4530  -44.6930 C   0  0  0  0  0  0  0  0  0  0  0  0
   85.9300  100.3140  -45.4020 C   0  0  0  0  0  0  0  0  0  0  0  0
   86.9150   99.5560  -45.9800 C   0  0  0  0  0  0  0  0  0  0  0  0
   86.7290   98.2460  -45.6380 N   0  0  0  0  0  0  0  0  0  0  0  0
   85.6310   98.1900  -44.8480 C   0  0  0  0  0  0  0  0  0  0  0  0
   85.0720   96.9540  -44.2550 C   0  0  0  0  0  0  0  0  0  0  0  0
   87.5710   97.1960  -46.0940 C   0  0  0  0  0  0  0  0  0  0  0  0
   88.9970   97.2520  -45.8420 C   0  0  0  0  0  0  0  0  0  0  0  0
   89.6130   96.1470  -46.2500 O   0  0  0  0  0  0  0  0  0  0  0  0
   89.8360   98.1970  -45.2720 N   0  0  0  0  0  0  0  0  0  0  0  0
   89.5560   99.0840  -44.2000 C   0  0  0  0  0  0  0  0  0  0  0  0
   90.3220   98.6460  -42.9510 C   0  0  0  0  0  0  0  0  0  0  0  0
   91.6410   98.0120  -43.3580 C   0  0  0  0  0  0  0  0  0  0  0  0
   92.5880   98.3780  -42.3190 N   0  0  0  0  0  0  0  0  0  0  0  0
   92.5080   97.3450  -41.3150 C   0  0  0  0  0  0  0  0  0  0  0  0
   92.9130   97.4350  -40.1290 O   0  0  0  0  0  0  0  0  0  0  0  0
   91.8800   96.2030  -41.9290 N   0  0  0  0  0  0  0  0  0  0  0  0
   91.5850   96.5370  -43.2790 C   0  0  0  0  0  0  0  0  0  0  0  0
   91.3330   95.7140  -44.1900 O   0  0  0  0  0  0  0  0  0  0  0  0
   92.1510   98.5280  -44.6660 C   0  0  0  0  0  0  0  0  0  0  0  0
   91.2120   98.3290  -45.8110 C   0  0  0  0  0  0  0  0  0  0  0  0
   87.8840  100.1770  -46.7680 C   0  0  0  0  0  0  0  0  0  0  0  0
   87.8570  101.5510  -46.9680 C   0  0  0  0  0  0  0  0  0  0  0  0
   86.8670  102.2910  -46.3830 C   0  0  0  0  0  0  0  0  0  0  0  0
   85.9080  101.6860  -45.6040 C   0  0  0  0  0  0  0  0  0  0  0  0
   84.6960   97.1250  -43.2210 H   0  0  0  0  0  0  0  0  0  0  0  0
   84.1940   96.6450  -44.8710 H   0  0  0  0  0  0  0  0  0  0  0  0
   85.8240   96.1280  -44.2330 H   0  0  0  0  0  0  0  0  0  0  0  0
   87.3930   97.0790  -47.2170 H   0  0  0  0  0  0  0  0  0  0  0  0
   87.1290   96.2220  -45.7050 H   0  0  0  0  0  0  0  0  0  0  0  0
   88.5370   99.3360  -43.9710 H   0  0  0  0  0  0  0  0  0  0  0  0
   90.0280  100.0870  -44.4880 H   0  0  0  0  0  0  0  0  0  0  0  0
   90.4700   99.5620  -42.3430 H   0  0  0  0  0  0  0  0  0  0  0  0
   89.6930   97.9620  -42.3800 H   0  0  0  0  0  0  0  0  0  0  0  0
   93.2080   99.2140  -42.2900 H   0  0  0  0  0  0  0  0  0  0  0  0
   91.6820   95.3050  -41.4660 H   0  0  0  0  0  0  0  0  0  0  0  0
   92.4430   99.5940  -44.5100 H   0  0  0  0  0  0  0  0  0  0  0  0
   93.1050   97.9810  -44.8790 H   0  0  0  0  0  0  0  0  0  0  0  0
   91.4610   97.5290  -46.5040 H   0  0  0  0  0  0  0  0  0  0  0  0
   91.1840   99.3010  -46.3860 H   0  0  0  0  0  0  0  0  0  0  0  0
   88.6500   99.5560  -47.2150 H   0  0  0  0  0  0  0  0  0  0  0  0
   88.6310  101.9980  -47.5910 H   0  0  0  0  0  0  0  0  0  0  0  0
   86.8480  103.3500  -46.5380 H   0  0  0  0  0  0  0  0  0  0  0  0
   85.1170  102.2430  -45.1300 H   0  0  0  0  0  0  0  0  0  0  0  0
  2  1  1  0  0  0  0
  3  2  1  0  0  0  0
  4  5  1  0  0  0  0
  4  3  2  0  0  0  0
  5  6  1  0  0  0  0
  6  2  2  0  0  0  0
  6  7  1  0  0  0  0
  7 29  1  0  0  0  0
  7 27  1  0  0  0  0
  8  9  1  0  0  0  0
  8 31  1  0  0  0  0
  8  5  1  0  0  0  0
  9 11  1  0  0  0  0
 10  9  2  0  0  0  0
 11 12  1  0  0  0  0
 12 32  1  0  0  0  0
 12 13  1  0  0  0  0
 13 35  1  0  0  0  0
 13 34  1  0  0  0  0
 14 19  1  0  0  0  0
 14 13  1  0  0  0  0
 14 15  1  0  0  0  0
 15 36  1  0  0  0  0
 15 16  1  0  0  0  0
 16 17  2  0  0  0  0
 18 37  1  0  0  0  0
 18 16  1  0  0  0  0
 19 18  1  0  0  0  0
 20 19  2  0  0  0  0
 21 38  1  0  0  0  0
 21 14  1  0  0  0  0
 22 11  1  0  0  0  0
 22 21  1  0  0  0  0
 23  4  1  0  0  0  0
 24 23  2  0  0  0  0
 24 25  1  0  0  0  0
 25 26  2  0  0  0  0
 26  3  1  0  0  0  0
 26 45  1  0  0  0  0
 28  7  1  0  0  0  0
 30  8  1  0  0  0  0
 33 12  1  0  0  0  0
 39 21  1  0  0  0  0
 40 22  1  0  0  0  0
 41 22  1  0  0  0  0
 42 23  1  0  0  0  0
 43 24  1  0  0  0  0
 44 25  1  0  0  0  0
M  END
>  <Pose>
1

>  <Score>
-4.72

$$$$
