
 OpenBabel03212208273D

 46 49  0  0  0  0  0  0  0  0999 V2000
   90.6090   99.5110  -42.7840 B   0  0  0  0  0  0  0  0  0  0  0  0
   91.0110   97.6730  -43.1100 C   0  0  0  0  0  0  0  0  0  0  0  0
   90.7760   97.0620  -44.2970 N   0  0  0  0  0  0  0  0  0  0  0  0
   91.1940   95.7890  -44.1190 C   0  0  0  0  0  0  0  0  0  0  0  0
   91.6830   95.6040  -42.8420 C   0  0  0  0  0  0  0  0  0  0  0  0
   91.5540   96.8080  -42.2350 N   0  0  0  0  0  0  0  0  0  0  0  0
   92.1640   94.4160  -42.4110 N   0  0  0  0  0  0  0  0  0  0  0  0
   92.1560   93.3860  -43.2750 C   0  0  0  0  0  0  0  0  0  0  0  0
   92.5880   92.2500  -42.9440 O   0  0  0  0  0  0  0  0  0  0  0  0
   91.6810   93.5300  -44.5430 N   0  0  0  0  0  0  0  0  0  0  0  0
   91.2020   94.7040  -44.9790 C   0  0  0  0  0  0  0  0  0  0  0  0
   90.7560   94.8870  -46.1330 O   0  0  0  0  0  0  0  0  0  0  0  0
   92.6750   94.2400  -41.0640 C   0  0  0  0  0  0  0  0  0  0  0  0
   90.2080   97.6150  -45.5030 C   0  0  0  0  0  0  0  0  0  0  0  0
   88.7420   97.2320  -45.6530 C   0  0  0  0  0  0  0  0  0  0  0  0
   88.4120   96.9050  -47.0850 C   0  0  0  0  0  0  0  0  0  0  0  0
   87.0810   97.4110  -47.5550 C   0  0  0  0  0  0  0  0  0  0  0  0
   86.5510   98.3570  -46.6310 N   0  0  0  0  0  0  0  0  0  0  0  0
   85.8680   98.1830  -45.5010 C   0  0  0  0  0  0  0  0  0  0  0  0
   85.6110   99.4270  -44.9370 C   0  0  0  0  0  0  0  0  0  0  0  0
   86.1560  100.3170  -45.7620 N   0  0  0  0  0  0  0  0  0  0  0  0
   86.7290   99.6920  -46.7920 C   0  0  0  0  0  0  0  0  0  0  0  0
   87.6300  100.5820  -48.2180 B   0  0  0  0  0  0  0  0  0  0  0  0
   84.9300   99.5330  -43.7920 N   0  0  0  0  0  0  0  0  0  0  0  0
   84.4740   98.4380  -43.1540 C   0  0  0  0  0  0  0  0  0  0  0  0
   83.8360   98.5450  -42.0780 O   0  0  0  0  0  0  0  0  0  0  0  0
   84.7140   97.2350  -43.6860 N   0  0  0  0  0  0  0  0  0  0  0  0
   85.3930   97.0850  -44.8330 C   0  0  0  0  0  0  0  0  0  0  0  0
   85.6040   95.9550  -45.3150 O   0  0  0  0  0  0  0  0  0  0  0  0
   84.6470  100.8260  -43.1790 C   0  0  0  0  0  0  0  0  0  0  0  0
   91.6910   92.7040  -45.1860 H   0  0  0  0  0  0  0  0  0  0  0  0
   92.9630   95.2090  -40.6060 H   0  0  0  0  0  0  0  0  0  0  0  0
   91.8620   93.8240  -40.4030 H   0  0  0  0  0  0  0  0  0  0  0  0
   93.5800   93.6000  -41.0300 H   0  0  0  0  0  0  0  0  0  0  0  0
   90.7930   97.3640  -46.3850 H   0  0  0  0  0  0  0  0  0  0  0  0
   90.2170   98.7270  -45.3760 H   0  0  0  0  0  0  0  0  0  0  0  0
   88.5430   96.2760  -45.0850 H   0  0  0  0  0  0  0  0  0  0  0  0
   88.0670   98.0010  -45.2590 H   0  0  0  0  0  0  0  0  0  0  0  0
   89.2480   97.2320  -47.7420 H   0  0  0  0  0  0  0  0  0  0  0  0
   88.3770   95.7860  -47.2460 H   0  0  0  0  0  0  0  0  0  0  0  0
   87.2520   97.8630  -48.5640 H   0  0  0  0  0  0  0  0  0  0  0  0
   86.4210   96.5410  -47.7350 H   0  0  0  0  0  0  0  0  0  0  0  0
   84.3720   96.3480  -43.2160 H   0  0  0  0  0  0  0  0  0  0  0  0
   85.2340  101.5920  -43.7320 H   0  0  0  0  0  0  0  0  0  0  0  0
   85.0190  100.7560  -42.1320 H   0  0  0  0  0  0  0  0  0  0  0  0
   83.5690  101.0580  -43.1930 H   0  0  0  0  0  0  0  0  0  0  0  0
  2  1  1  0  0  0  0
  2  6  2  0  0  0  0
  3  4  1  0  0  0  0
  3  2  1  0  0  0  0
  4  5  2  0  0  0  0
  5  7  1  0  0  0  0
  5  6  1  0  0  0  0
  7 13  1  0  0  0  0
  8  9  2  0  0  0  0
  8  7  1  0  0  0  0
 10  8  1  0  0  0  0
 11 10  1  0  0  0  0
 11  4  1  0  0  0  0
 12 11  2  0  0  0  0
 13 34  1  0  0  0  0
 13 32  1  0  0  0  0
 13 33  1  0  0  0  0
 14 36  1  0  0  0  0
 14  3  1  0  0  0  0
 15 14  1  0  0  0  0
 15 38  1  0  0  0  0
 15 37  1  0  0  0  0
 16 15  1  0  0  0  0
 17 16  1  0  0  0  0
 17 18  1  0  0  0  0
 18 19  1  0  0  0  0
 19 20  2  0  0  0  0
 19 28  1  0  0  0  0
 20 24  1  0  0  0  0
 21 20  1  0  0  0  0
 22 18  1  0  0  0  0
 22 21  2  0  0  0  0
 23 22  1  0  0  0  0
 24 30  1  0  0  0  0
 24 25  1  0  0  0  0
 25 26  2  0  0  0  0
 27 43  1  0  0  0  0
 27 25  1  0  0  0  0
 28 27  1  0  0  0  0
 29 28  2  0  0  0  0
 30 45  1  0  0  0  0
 31 10  1  0  0  0  0
 35 14  1  0  0  0  0
 39 16  1  0  0  0  0
 40 16  1  0  0  0  0
 41 17  1  0  0  0  0
 42 17  1  0  0  0  0
 44 30  1  0  0  0  0
 46 30  1  0  0  0  0
M  END
>  <Pose>
1

>  <Score>
-6.71

$$$$
