
 OpenBabel03212208273D

 47 50  0  0  0  0  0  0  0  0999 V2000
   84.9700   96.8650  -46.1800 B   0  0  0  0  0  0  0  0  0  0  0  0
   85.1930   98.1880  -44.8170 C   0  0  0  0  0  0  0  0  0  0  0  0
   86.2810   98.9120  -44.5650 N   0  0  0  0  0  0  0  0  0  0  0  0
   85.9440   99.7470  -43.5430 C   0  0  0  0  0  0  0  0  0  0  0  0
   84.6340   99.4860  -43.2060 C   0  0  0  0  0  0  0  0  0  0  0  0
   84.1730   98.5230  -43.9930 N   0  0  0  0  0  0  0  0  0  0  0  0
   84.0550  100.2020  -42.2020 N   0  0  0  0  0  0  0  0  0  0  0  0
   84.7720  101.1340  -41.5780 C   0  0  0  0  0  0  0  0  0  0  0  0
   84.2080  101.7830  -40.6500 O   0  0  0  0  0  0  0  0  0  0  0  0
   86.0490  101.3970  -41.8990 N   0  0  0  0  0  0  0  0  0  0  0  0
   86.6850  100.7140  -42.8930 C   0  0  0  0  0  0  0  0  0  0  0  0
   87.8790  100.9690  -43.1880 O   0  0  0  0  0  0  0  0  0  0  0  0
   82.6800   99.9580  -41.8170 C   0  0  0  0  0  0  0  0  0  0  0  0
   87.5810   98.8920  -45.1460 C   0  0  0  0  0  0  0  0  0  0  0  0
   88.4520   97.7360  -44.8780 C   0  0  0  0  0  0  0  0  0  0  0  0
   89.4250   97.3440  -45.7380 O   0  0  0  0  0  0  0  0  0  0  0  0
   89.6240   95.9740  -45.6870 C   0  0  0  0  0  0  0  0  0  0  0  0
   91.0970   95.6930  -45.6400 C   0  0  0  0  0  0  0  0  0  0  0  0
   91.4440   94.8190  -44.5650 N   0  0  0  0  0  0  0  0  0  0  0  0
   91.6320   95.1810  -43.2890 C   0  0  0  0  0  0  0  0  0  0  0  0
   91.9530   94.0640  -42.5840 C   0  0  0  0  0  0  0  0  0  0  0  0
   91.9550   93.0500  -43.4460 N   0  0  0  0  0  0  0  0  0  0  0  0
   91.6440   93.4780  -44.6800 C   0  0  0  0  0  0  0  0  0  0  0  0
   91.4930   92.4920  -46.2970 B   0  0  0  0  0  0  0  0  0  0  0  0
   92.1930   94.1470  -41.2640 N   0  0  0  0  0  0  0  0  0  0  0  0
   92.1100   95.3320  -40.6640 C   0  0  0  0  0  0  0  0  0  0  0  0
   92.3370   95.3950  -39.4260 O   0  0  0  0  0  0  0  0  0  0  0  0
   91.7970   96.4330  -41.3340 N   0  0  0  0  0  0  0  0  0  0  0  0
   91.5510   96.4000  -42.6460 C   0  0  0  0  0  0  0  0  0  0  0  0
   91.2530   97.4790  -43.2520 O   0  0  0  0  0  0  0  0  0  0  0  0
   92.5380   92.9680  -40.4960 C   0  0  0  0  0  0  0  0  0  0  0  0
   86.5990  102.1300  -41.4010 H   0  0  0  0  0  0  0  0  0  0  0  0
   82.0670   99.7250  -42.7170 H   0  0  0  0  0  0  0  0  0  0  0  0
   82.2370  100.8320  -41.3290 H   0  0  0  0  0  0  0  0  0  0  0  0
   82.6210   99.1080  -41.0900 H   0  0  0  0  0  0  0  0  0  0  0  0
   87.4080   98.9220  -46.2680 H   0  0  0  0  0  0  0  0  0  0  0  0
   88.1250   99.8800  -44.9860 H   0  0  0  0  0  0  0  0  0  0  0  0
   88.9990   97.8800  -43.8710 H   0  0  0  0  0  0  0  0  0  0  0  0
   87.8000   96.8290  -44.5850 H   0  0  0  0  0  0  0  0  0  0  0  0
   89.2200   95.5390  -46.6620 H   0  0  0  0  0  0  0  0  0  0  0  0
   89.0240   95.5450  -44.9010 H   0  0  0  0  0  0  0  0  0  0  0  0
   91.3750   95.2660  -46.6440 H   0  0  0  0  0  0  0  0  0  0  0  0
   91.5990   96.6870  -45.5510 H   0  0  0  0  0  0  0  0  0  0  0  0
   91.7360   97.3530  -40.8460 H   0  0  0  0  0  0  0  0  0  0  0  0
   91.6120   92.5470  -40.0760 H   0  0  0  0  0  0  0  0  0  0  0  0
   93.0460   92.2310  -41.1420 H   0  0  0  0  0  0  0  0  0  0  0  0
   93.2510   93.3170  -39.7000 H   0  0  0  0  0  0  0  0  0  0  0  0
  1  2  1  0  0  0  0
  2  3  1  0  0  0  0
  2  6  2  0  0  0  0
  3  4  1  0  0  0  0
  4  5  2  0  0  0  0
  4 11  1  0  0  0  0
  5  7  1  0  0  0  0
  6  5  1  0  0  0  0
  7 13  1  0  0  0  0
  7  8  1  0  0  0  0
  8  9  2  0  0  0  0
 10  8  1  0  0  0  0
 10 32  1  0  0  0  0
 11 10  1  0  0  0  0
 12 11  2  0  0  0  0
 13 34  1  0  0  0  0
 13 35  1  0  0  0  0
 14 37  1  0  0  0  0
 14 15  1  0  0  0  0
 14  3  1  0  0  0  0
 15 39  1  0  0  0  0
 15 38  1  0  0  0  0
 16 17  1  0  0  0  0
 16 15  1  0  0  0  0
 17 18  1  0  0  0  0
 17 41  1  0  0  0  0
 18 43  1  0  0  0  0
 18 19  1  0  0  0  0
 19 20  1  0  0  0  0
 20 29  1  0  0  0  0
 20 21  2  0  0  0  0
 21 25  1  0  0  0  0
 22 21  1  0  0  0  0
 23 19  1  0  0  0  0
 23 22  2  0  0  0  0
 24 23  1  0  0  0  0
 25 26  1  0  0  0  0
 25 31  1  0  0  0  0
 26 27  2  0  0  0  0
 28 44  1  0  0  0  0
 28 26  1  0  0  0  0
 29 28  1  0  0  0  0
 30 29  2  0  0  0  0
 31 45  1  0  0  0  0
 31 47  1  0  0  0  0
 33 13  1  0  0  0  0
 36 14  1  0  0  0  0
 40 17  1  0  0  0  0
 42 18  1  0  0  0  0
 46 31  1  0  0  0  0
M  END
>  <Pose>
1

>  <Score>
-6.41

$$$$
