
 OpenBabel03212208273D

 51 54  0  0  0  0  0  0  0  0999 V2000
   85.5160   95.7570  -46.6440 Cl  0  0  0  0  0  0  0  0  0  0  0  0
   85.7120   97.3180  -47.4080 C   0  0  0  0  0  0  0  0  0  0  0  0
   85.5720   98.4560  -46.6690 C   0  0  0  0  0  0  0  0  0  0  0  0
   85.7370   99.6580  -47.3210 C   0  0  0  0  0  0  0  0  0  0  0  0
   86.0320   99.7310  -48.6580 C   0  0  0  0  0  0  0  0  0  0  0  0
   86.1710   98.5740  -49.3950 C   0  0  0  0  0  0  0  0  0  0  0  0
   86.0070   97.3690  -48.7500 C   0  0  0  0  0  0  0  0  0  0  0  0
   85.2570   98.4670  -45.2290 C   0  0  0  0  0  0  0  0  0  0  0  0
   86.3330   98.8780  -44.3950 N   0  0  0  0  0  0  0  0  0  0  0  0
   86.2850   99.7930  -43.4350 N   0  0  0  0  0  0  0  0  0  0  0  0
   87.4630   99.9420  -42.8530 C   0  0  0  0  0  0  0  0  0  0  0  0
   88.3300   99.0470  -43.4960 C   0  0  0  0  0  0  0  0  0  0  0  0
   87.6070   98.3860  -44.4630 C   0  0  0  0  0  0  0  0  0  0  0  0
   88.0640   97.3740  -45.2980 N   0  0  0  0  0  0  0  0  0  0  0  0
   89.2490   96.8290  -45.6780 C   0  0  0  0  0  0  0  0  0  0  0  0
   89.0370   96.1460  -46.8520 O   0  0  0  0  0  0  0  0  0  0  0  0
   90.6450   96.7180  -45.2870 C   0  0  0  0  0  0  0  0  0  0  0  0
   91.4250   97.7200  -44.6980 N   0  0  0  0  0  0  0  0  0  0  0  0
   92.2330   98.6840  -45.4920 C   0  0  0  0  0  0  0  0  0  0  0  0
   93.1640   99.3210  -44.4820 C   0  0  0  0  0  0  0  0  0  0  0  0
   92.3400  100.0970  -43.4890 C   0  0  0  0  0  0  0  0  0  0  0  0
   91.5400   99.1330  -42.6390 C   0  0  0  0  0  0  0  0  0  0  0  0
   91.5380   97.7810  -43.2690 C   0  0  0  0  0  0  0  0  0  0  0  0
   91.7360   96.6910  -42.5240 C   0  0  0  0  0  0  0  0  0  0  0  0
   91.8330   96.7730  -41.0920 N   0  0  0  0  0  0  0  0  0  0  0  0
   92.1050   95.4950  -40.5710 N   0  0  0  0  0  0  0  0  0  0  0  0
   92.1830   94.5910  -41.6500 C   0  0  0  0  0  0  0  0  0  0  0  0
   92.4050   93.3590  -41.6420 O   0  0  0  0  0  0  0  0  0  0  0  0
   91.9520   95.3550  -42.8470 N   0  0  0  0  0  0  0  0  0  0  0  0
   85.6340  100.5810  -46.7740 H   0  0  0  0  0  0  0  0  0  0  0  0
   86.1560  100.6850  -49.1450 H   0  0  0  0  0  0  0  0  0  0  0  0
   86.4040   98.6360  -50.4510 H   0  0  0  0  0  0  0  0  0  0  0  0
   86.1170   96.4670  -49.3270 H   0  0  0  0  0  0  0  0  0  0  0  0
   84.7890   97.4920  -44.9380 H   0  0  0  0  0  0  0  0  0  0  0  0
   84.4090   99.2070  -45.1110 H   0  0  0  0  0  0  0  0  0  0  0  0
   87.7740  100.5970  -42.0420 H   0  0  0  0  0  0  0  0  0  0  0  0
   89.3610   98.9280  -43.2340 H   0  0  0  0  0  0  0  0  0  0  0  0
   87.1880   96.8050  -45.7140 H   0  0  0  0  0  0  0  0  0  0  0  0
   90.5790   95.8190  -44.5380 H   0  0  0  0  0  0  0  0  0  0  0  0
   91.2520   96.2710  -46.1770 H   0  0  0  0  0  0  0  0  0  0  0  0
   92.9110   98.1060  -46.1650 H   0  0  0  0  0  0  0  0  0  0  0  0
   91.6690   99.4510  -45.9750 H   0  0  0  0  0  0  0  0  0  0  0  0
   93.8590  100.0330  -45.0170 H   0  0  0  0  0  0  0  0  0  0  0  0
   93.7890   98.5680  -43.9600 H   0  0  0  0  0  0  0  0  0  0  0  0
   93.0060  100.7130  -42.8340 H   0  0  0  0  0  0  0  0  0  0  0  0
   91.6860  100.7860  -44.0440 H   0  0  0  0  0  0  0  0  0  0  0  0
   91.9270   99.1150  -41.5940 H   0  0  0  0  0  0  0  0  0  0  0  0
   90.5090   99.4890  -42.5660 H   0  0  0  0  0  0  0  0  0  0  0  0
   91.7350   97.5750  -40.4410 H   0  0  0  0  0  0  0  0  0  0  0  0
   92.2320   95.2230  -39.5640 H   0  0  0  0  0  0  0  0  0  0  0  0
   91.9740   94.9560  -43.7990 H   0  0  0  0  0  0  0  0  0  0  0  0
  2  3  1  0  0  0  0
  2  1  1  0  0  0  0
  3  8  1  0  0  0  0
  4 30  1  0  0  0  0
  4  3  2  0  0  0  0
  5  4  1  0  0  0  0
  6  7  1  0  0  0  0
  6  5  2  0  0  0  0
  7  2  2  0  0  0  0
  8 35  1  0  0  0  0
  8 34  1  0  0  0  0
  8  9  1  0  0  0  0
  9 10  1  0  0  0  0
 10 11  2  0  0  0  0
 11 36  1  0  0  0  0
 12 37  1  0  0  0  0
 12 11  1  0  0  0  0
 13  9  1  0  0  0  0
 13 12  2  0  0  0  0
 14 13  1  0  0  0  0
 15 14  1  0  0  0  0
 15 17  1  0  0  0  0
 16 15  2  0  0  0  0
 17 18  1  0  0  0  0
 17 39  1  0  0  0  0
 18 23  1  0  0  0  0
 19 18  1  0  0  0  0
 19 20  1  0  0  0  0
 20 44  1  0  0  0  0
 20 21  1  0  0  0  0
 21 45  1  0  0  0  0
 21 22  1  0  0  0  0
 22 48  1  0  0  0  0
 22 47  1  0  0  0  0
 23 22  1  0  0  0  0
 23 24  2  0  0  0  0
 24 25  1  0  0  0  0
 25 26  1  0  0  0  0
 25 49  1  0  0  0  0
 26 50  1  0  0  0  0
 27 28  2  0  0  0  0
 27 26  1  0  0  0  0
 29 24  1  0  0  0  0
 29 27  1  0  0  0  0
 31  5  1  0  0  0  0
 32  6  1  0  0  0  0
 33  7  1  0  0  0  0
 38 14  1  0  0  0  0
 40 17  1  0  0  0  0
 41 19  1  0  0  0  0
 42 19  1  0  0  0  0
 43 20  1  0  0  0  0
 46 21  1  0  0  0  0
 51 29  1  0  0  0  0
M  END
>  <Pose>
1

>  <Score>
-6.08

$$$$
