
 OpenBabel03212208273D

 41 44  0  0  0  0  0  0  0  0999 V2000
   88.7330   86.0550  -48.8500 B   0  0  0  0  0  0  0  0  0  0  0  0
   90.3960   86.9940  -48.8580 C   0  0  0  0  0  0  0  0  0  0  0  0
   91.5350   86.3200  -48.4760 C   0  0  0  0  0  0  0  0  0  0  0  0
   92.7280   86.9590  -48.4690 N   0  0  0  0  0  0  0  0  0  0  0  0
   92.7680   88.2510  -48.8430 C   0  0  0  0  0  0  0  0  0  0  0  0
   91.6780   88.9770  -49.2320 C   0  0  0  0  0  0  0  0  0  0  0  0
   90.4560   88.3340  -49.2410 C   0  0  0  0  0  0  0  0  0  0  0  0
   91.8340   90.3720  -49.6170 C   0  0  0  0  0  0  0  0  0  0  0  0
   91.6660   90.6690  -50.8450 O   0  0  0  0  0  0  0  0  0  0  0  0
   92.1610   91.3920  -48.6840 N   0  0  0  0  0  0  0  0  0  0  0  0
   91.1230   91.8430  -47.7710 C   0  0  0  0  0  0  0  0  0  0  0  0
   91.2990   91.2140  -46.4070 C   0  0  0  0  0  0  0  0  0  0  0  0
   91.5190   92.3250  -45.4730 N   0  0  0  0  0  0  0  0  0  0  0  0
   91.8310   92.2660  -44.1900 N   0  0  0  0  0  0  0  0  0  0  0  0
   91.9470   93.4860  -43.6830 N   0  0  0  0  0  0  0  0  0  0  0  0
   91.7080   94.3900  -44.6460 C   0  0  0  0  0  0  0  0  0  0  0  0
   91.4390   93.6490  -45.7720 C   0  0  0  0  0  0  0  0  0  0  0  0
   91.7290   95.8370  -44.5290 C   0  0  0  0  0  0  0  0  0  0  0  0
   91.4450   96.5690  -43.4360 N   0  0  0  0  0  0  0  0  0  0  0  0
   91.5770   97.8730  -43.7280 C   0  0  0  0  0  0  0  0  0  0  0  0
   91.9460   97.9220  -45.0180 N   0  0  0  0  0  0  0  0  0  0  0  0
   92.0260   96.7040  -45.4600 O   0  0  0  0  0  0  0  0  0  0  0  0
   91.3600   99.0180  -42.8180 C   0  0  0  0  0  0  0  0  0  0  0  0
   92.3930   99.4730  -42.0320 C   0  0  0  0  0  0  0  0  0  0  0  0
   92.2080  100.5160  -41.2010 N   0  0  0  0  0  0  0  0  0  0  0  0
   91.0300  101.1640  -41.0860 C   0  0  0  0  0  0  0  0  0  0  0  0
   89.9990  100.7000  -41.8800 C   0  0  0  0  0  0  0  0  0  0  0  0
   90.1450   99.6430  -42.7400 C   0  0  0  0  0  0  0  0  0  0  0  0
   91.5100   85.2650  -48.1690 H   0  0  0  0  0  0  0  0  0  0  0  0
   93.7570   88.7190  -48.8200 H   0  0  0  0  0  0  0  0  0  0  0  0
   89.5560   88.8510  -49.5380 H   0  0  0  0  0  0  0  0  0  0  0  0
   93.1160   91.8000  -48.6620 H   0  0  0  0  0  0  0  0  0  0  0  0
   91.2700   92.9470  -47.6330 H   0  0  0  0  0  0  0  0  0  0  0  0
   90.1250   91.6450  -48.2070 H   0  0  0  0  0  0  0  0  0  0  0  0
   90.3710   90.6740  -46.1590 H   0  0  0  0  0  0  0  0  0  0  0  0
   92.1910   90.5730  -46.3460 H   0  0  0  0  0  0  0  0  0  0  0  0
   91.2020   94.0410  -46.7450 H   0  0  0  0  0  0  0  0  0  0  0  0
   93.3690   98.9660  -42.1020 H   0  0  0  0  0  0  0  0  0  0  0  0
   90.8990  102.0050  -40.4080 H   0  0  0  0  0  0  0  0  0  0  0  0
   89.0360  101.2000  -41.8130 H   0  0  0  0  0  0  0  0  0  0  0  0
   89.3340   99.2730  -43.3680 H   0  0  0  0  0  0  0  0  0  0  0  0
  2  1  1  0  0  0  0
  2  3  1  0  0  0  0
  3  4  2  0  0  0  0
  3 29  1  0  0  0  0
  5 30  1  0  0  0  0
  5  4  1  0  0  0  0
  6  5  2  0  0  0  0
  7  6  1  0  0  0  0
  7  2  2  0  0  0  0
  8  6  1  0  0  0  0
  8 10  1  0  0  0  0
  9  8  2  0  0  0  0
 10 32  1  0  0  0  0
 10 11  1  0  0  0  0
 11 33  1  0  0  0  0
 11 12  1  0  0  0  0
 12 36  1  0  0  0  0
 12 35  1  0  0  0  0
 12 13  1  0  0  0  0
 13 14  1  0  0  0  0
 14 15  2  0  0  0  0
 16 18  1  0  0  0  0
 16 15  1  0  0  0  0
 17 13  1  0  0  0  0
 17 16  2  0  0  0  0
 18 19  2  0  0  0  0
 20 19  1  0  0  0  0
 20 23  1  0  0  0  0
 21 20  2  0  0  0  0
 22 21  1  0  0  0  0
 22 18  1  0  0  0  0
 23 28  2  0  0  0  0
 23 24  1  0  0  0  0
 24 25  2  0  0  0  0
 25 26  1  0  0  0  0
 26 39  1  0  0  0  0
 27 40  1  0  0  0  0
 27 26  2  0  0  0  0
 28 27  1  0  0  0  0
 31  7  1  0  0  0  0
 34 11  1  0  0  0  0
 37 17  1  0  0  0  0
 38 24  1  0  0  0  0
 41 28  1  0  0  0  0
M  END
>  <Pose>
1

>  <Score>
-8.60

$$$$
