
 OpenBabel03212208273D

 59 63  0  0  1  0  0  0  0  0999 V2000
   91.5420   95.7140  -44.9160 B   0  0  0  0  0  0  0  0  0  0  0  0
   90.8550   97.4820  -44.8400 C   0  0  0  0  0  0  0  0  0  0  0  0
   90.6890   98.1200  -43.6310 C   0  0  0  0  0  0  0  0  0  0  0  0
   90.1790   99.4240  -43.5710 C   0  0  0  0  0  0  0  0  0  0  0  0
   89.8720   99.9870  -44.7900 C   0  0  0  0  0  0  0  0  0  0  0  0
   90.0230   99.3920  -46.0090 C   0  0  0  0  0  0  0  0  0  0  0  0
   90.5280   98.1040  -46.0280 C   0  0  0  0  0  0  0  0  0  0  0  0
   89.9550  100.0660  -42.2910 C   0  0  2  0  0  0  0  0  0  0  0  0
   88.7990  100.7900  -41.9880 N   0  0  0  0  0  0  0  0  0  0  0  0
   89.2210  102.1470  -41.6530 C   0  0  0  0  0  0  0  0  0  0  0  0
   88.4910  103.1500  -41.4540 O   0  0  0  0  0  0  0  0  0  0  0  0
   90.6720  102.2010  -41.5680 C   0  0  0  0  0  0  0  0  0  0  0  0
   91.3770  103.2310  -41.3010 O   0  0  0  0  0  0  0  0  0  0  0  0
   91.1400  100.8700  -41.8500 C   0  0  0  0  0  0  0  0  0  0  0  0
   92.3920  100.4690  -41.7760 C   0  0  0  0  0  0  0  0  0  0  0  0
   92.6180   99.1290  -42.1680 O   0  0  0  0  0  0  0  0  0  0  0  0
   93.5250  101.2610  -41.3330 C   0  0  0  0  0  0  0  0  0  0  0  0
   94.2230  102.2520  -41.9090 N   0  0  0  0  0  0  0  0  0  0  0  0
   95.2420  102.6770  -41.1460 C   0  0  0  0  0  0  0  0  0  0  0  0
   95.2000  101.9250  -40.0240 N   0  0  0  0  0  0  0  0  0  0  0  0
   94.1830  101.0630  -40.1000 C   0  0  0  0  0  0  0  0  0  0  0  0
   93.7890  100.0700  -39.0910 C   0  0  0  0  0  0  0  0  0  0  0  0
   96.0820  103.7020  -41.5370 C   0  0  0  0  0  0  0  0  0  0  0  0
   95.8700  104.3060  -42.7470 C   0  0  0  0  0  0  0  0  0  0  0  0
   94.8200  103.8690  -43.5330 C   0  0  0  0  0  0  0  0  0  0  0  0
   94.0020  102.8460  -43.1130 C   0  0  0  0  0  0  0  0  0  0  0  0
   87.4560  100.3470  -41.8930 C   0  0  0  0  0  0  0  0  0  0  0  0
   86.6140  100.1970  -43.0770 C   0  0  0  0  0  0  0  0  0  0  0  0
   85.3550   99.5160  -43.0010 N   0  0  0  0  0  4  0  0  0  0  0  0
   84.3710  100.3830  -43.6490 C   0  0  0  0  0  0  0  0  0  0  0  0
   84.2530  100.1310  -45.1180 C   0  0  0  0  0  0  0  0  0  0  0  0
   85.3060   99.3240  -45.5760 O   0  0  0  0  0  0  0  0  0  0  0  0
   85.1210   98.1020  -44.9670 C   0  0  0  0  0  0  0  0  0  0  0  0
   85.3880   98.1870  -43.5100 C   0  0  0  0  0  0  0  0  0  0  0  0
   90.9330   97.6660  -42.6900 H   0  0  0  0  0  0  0  0  0  0  0  0
   89.4720  101.0040  -44.7750 H   0  0  0  0  0  0  0  0  0  0  0  0
   89.7660   99.8730  -46.9490 H   0  0  0  0  0  0  0  0  0  0  0  0
   90.6440   97.6330  -47.0010 H   0  0  0  0  0  0  0  0  0  0  0  0
   89.9090   99.1640  -41.5330 H   0  0  0  0  0  0  0  0  0  0  0  0
   92.6890   99.9360  -38.9920 H   0  0  0  0  0  0  0  0  0  0  0  0
   94.3040   99.1100  -39.3320 H   0  0  0  0  0  0  0  0  0  0  0  0
   94.1670  100.3950  -38.0970 H   0  0  0  0  0  0  0  0  0  0  0  0
   96.8980  104.0400  -40.9270 H   0  0  0  0  0  0  0  0  0  0  0  0
   96.4820  105.1180  -43.1290 H   0  0  0  0  0  0  0  0  0  0  0  0
   94.6140  104.3220  -44.5050 H   0  0  0  0  0  0  0  0  0  0  0  0
   93.1620  102.4940  -43.7290 H   0  0  0  0  0  0  0  0  0  0  0  0
   86.9320  101.0670  -41.1870 H   0  0  0  0  0  0  0  0  0  0  0  0
   87.4270   99.3830  -41.3140 H   0  0  0  0  0  0  0  0  0  0  0  0
   86.3730  101.2570  -43.4160 H   0  0  0  0  0  0  0  0  0  0  0  0
   87.1850   99.8160  -43.9790 H   0  0  0  0  0  0  0  0  0  0  0  0
   84.9960   99.4680  -42.0020 H   0  0  0  0  0  0  0  0  0  0  0  0
   83.3920  100.1950  -43.1810 H   0  0  0  0  0  0  0  0  0  0  0  0
   84.6170  101.4580  -43.4630 H   0  0  0  0  0  0  0  0  0  0  0  0
   83.2910   99.6050  -45.3550 H   0  0  0  0  0  0  0  0  0  0  0  0
   84.3280  101.0980  -45.6550 H   0  0  0  0  0  0  0  0  0  0  0  0
   85.8760   97.4130  -45.4640 H   0  0  0  0  0  0  0  0  0  0  0  0
   84.0860   97.7090  -45.1930 H   0  0  0  0  0  0  0  0  0  0  0  0
   86.3640   97.6750  -43.3090 H   0  0  0  0  0  0  0  0  0  0  0  0
   84.5640   97.6030  -42.9970 H   0  0  0  0  0  0  0  0  0  0  0  0
  1  2  1  0  0  0  0
  2  3  1  0  0  0  0
  3  4  2  0  0  0  0
  3 35  1  0  0  0  0
  4  8  1  0  0  0  0
  5 36  1  0  0  0  0
  5  4  1  0  0  0  0
  6  5  2  0  0  0  0
  7  6  1  0  0  0  0
  7  2  2  0  0  0  0
  8  9  1  0  0  0  0
  8 14  1  0  0  0  0
  8 39  1  1  0  0  0
  9 27  1  0  0  0  0
  9 10  1  0  0  0  0
 10 12  1  0  0  0  0
 10 11  2  0  0  0  0
 12 13  2  0  0  0  0
 14 15  2  0  0  0  0
 14 12  1  0  0  0  0
 15 17  1  0  0  0  0
 16 15  1  0  0  0  0
 17 21  2  0  0  0  0
 18 17  1  0  0  0  0
 18 19  1  0  0  0  0
 19 20  2  0  0  0  0
 21 20  1  0  0  0  0
 21 22  1  0  0  0  0
 22 40  1  0  0  0  0
 22 42  1  0  0  0  0
 23 19  1  0  0  0  0
 23 43  1  0  0  0  0
 24 23  2  0  0  0  0
 25 26  2  0  0  0  0
 25 24  1  0  0  0  0
 26 18  1  0  0  0  0
 27 48  1  0  0  0  0
 27 47  1  0  0  0  0
 28 29  1  0  0  0  0
 28 27  1  0  0  0  0
 29 51  1  0  0  0  0
 30 53  1  0  0  0  0
 30 52  1  0  0  0  0
 30 29  1  0  0  0  0
 31 30  1  0  0  0  0
 32 31  1  0  0  0  0
 32 33  1  0  0  0  0
 33 34  1  0  0  0  0
 34 58  1  0  0  0  0
 34 29  1  0  0  0  0
 34 59  1  0  0  0  0
 37  6  1  0  0  0  0
 38  7  1  0  0  0  0
 41 22  1  0  0  0  0
 44 24  1  0  0  0  0
 45 25  1  0  0  0  0
 46 26  1  0  0  0  0
 49 28  1  0  0  0  0
 50 28  1  0  0  0  0
 54 31  1  0  0  0  0
 55 31  1  0  0  0  0
 56 33  1  0  0  0  0
 57 33  1  0  0  0  0
M  END
>  <Pose>
1

>  <Score>
-4.39

$$$$
