
 OpenBabel03212208273D

 56 59  0  0  1  0  0  0  0  0999 V2000
   92.3240  101.2980  -40.7420 B   0  0  0  0  0  0  0  0  0  0  0  0
   92.2210   99.8920  -42.0520 C   0  0  0  0  0  0  0  0  0  0  0  0
   91.8420   98.6180  -41.6650 C   0  0  0  0  0  0  0  0  0  0  0  0
   91.7660   97.5960  -42.6070 C   0  0  0  0  0  0  0  0  0  0  0  0
   92.0610   97.8200  -43.9320 C   0  0  0  0  0  0  0  0  0  0  0  0
   92.4350   99.0990  -44.2810 C   0  0  0  0  0  0  0  0  0  0  0  0
   92.5190  100.1250  -43.3730 C   0  0  0  0  0  0  0  0  0  0  0  0
   91.9860   96.7680  -44.9230 C   0  0  0  0  0  0  0  0  0  0  0  0
   92.9540   96.5900  -45.7090 O   0  0  0  0  0  0  0  0  0  0  0  0
   90.8090   95.8720  -45.0670 C   0  0  0  0  0  0  0  0  0  0  0  0
   91.1940   94.4940  -45.1400 N   0  0  0  0  0  0  0  0  0  0  0  0
   91.1570   93.7200  -46.2010 N   0  0  0  0  0  0  0  0  0  0  0  0
   91.5920   92.4870  -45.9010 C   0  0  0  0  0  0  0  0  0  0  0  0
   91.9130   92.4930  -44.5990 N   0  0  0  0  0  0  0  0  0  0  0  0
   91.6620   93.7510  -44.1310 C   0  0  2  0  0  0  0  0  0  0  0  0
   91.8660   94.2150  -42.7600 C   0  0  0  0  0  0  0  0  0  0  0  0
   93.2940   94.0640  -42.2910 C   0  0  0  0  0  0  0  0  0  0  0  0
   93.6540   92.6170  -42.0360 C   0  0  0  0  0  0  0  0  0  0  0  0
   93.7830   91.8110  -43.2910 C   0  0  0  0  0  0  0  0  0  0  0  0
   92.4310   91.3740  -43.8370 C   0  0  0  0  0  0  0  0  0  0  0  0
   91.7080   91.3290  -46.7980 C   0  0  0  0  0  0  0  0  0  0  0  0
   91.3220   91.6330  -48.1420 N   0  0  0  0  0  0  0  0  0  0  0  0
   90.7950   90.6580  -49.0370 C   0  0  0  0  0  0  0  0  0  0  0  0
   90.2370   90.9970  -50.2480 C   0  0  0  0  0  0  0  0  0  0  0  0
   89.7380   90.0490  -51.1040 C   0  0  0  0  0  0  0  0  0  0  0  0
   89.7900   88.7360  -50.7550 C   0  0  0  0  0  0  0  0  0  0  0  0
   90.3480   88.3920  -49.5430 C   0  0  0  0  0  0  0  0  0  0  0  0
   90.8540   89.3370  -48.6750 C   0  0  0  0  0  0  0  0  0  0  0  0
   89.2970   87.7630  -51.5920 O   0  0  0  0  0  0  0  0  0  0  0  0
   88.3510   88.0280  -52.5980 C   0  0  0  0  0  0  0  0  0  0  0  0
   91.6130   98.4510  -40.6300 H   0  0  0  0  0  0  0  0  0  0  0  0
   91.4690   96.6150  -42.2840 H   0  0  0  0  0  0  0  0  0  0  0  0
   92.6750   99.2970  -45.3350 H   0  0  0  0  0  0  0  0  0  0  0  0
   92.8160  101.1000  -43.7050 H   0  0  0  0  0  0  0  0  0  0  0  0
   90.0450   96.0720  -44.2920 H   0  0  0  0  0  0  0  0  0  0  0  0
   90.3480   96.1430  -46.0620 H   0  0  0  0  0  0  0  0  0  0  0  0
   91.6020   95.2820  -42.6520 H   0  0  0  0  0  0  0  0  0  0  0  0
   91.2300   93.6680  -42.0070 H   0  0  0  0  0  0  0  0  0  0  0  0
   94.0260   94.5350  -42.9470 H   0  0  0  0  0  0  0  0  0  0  0  0
   93.3570   94.5830  -41.3030 H   0  0  0  0  0  0  0  0  0  0  0  0
   92.9950   92.1500  -41.3010 H   0  0  0  0  0  0  0  0  0  0  0  0
   94.6780   92.6390  -41.5630 H   0  0  0  0  0  0  0  0  0  0  0  0
   94.2990   92.3580  -44.0790 H   0  0  0  0  0  0  0  0  0  0  0  0
   94.3840   90.8950  -43.0420 H   0  0  0  0  0  0  0  0  0  0  0  0
   91.7500   91.0490  -43.0350 H   0  0  0  0  0  0  0  0  0  0  0  0
   92.5890   90.5210  -44.5150 H   0  0  0  0  0  0  0  0  0  0  0  0
   91.0510   90.5150  -46.3950 H   0  0  0  0  0  0  0  0  0  0  0  0
   92.7330   90.9230  -46.7990 H   0  0  0  0  0  0  0  0  0  0  0  0
   91.4180   92.5930  -48.5030 H   0  0  0  0  0  0  0  0  0  0  0  0
   90.2200   92.0700  -50.4800 H   0  0  0  0  0  0  0  0  0  0  0  0
   89.3130   90.3610  -52.0390 H   0  0  0  0  0  0  0  0  0  0  0  0
   90.4050   87.3450  -49.2340 H   0  0  0  0  0  0  0  0  0  0  0  0
   91.2970   89.0430  -47.7130 H   0  0  0  0  0  0  0  0  0  0  0  0
   87.9070   87.0970  -52.9720 H   0  0  0  0  0  0  0  0  0  0  0  0
   87.5520   88.6670  -52.1700 H   0  0  0  0  0  0  0  0  0  0  0  0
   88.8010   88.5860  -53.4500 H   0  0  0  0  0  0  0  0  0  0  0  0
  2  3  1  0  0  0  0
  2  1  1  0  0  0  0
  3 31  1  0  0  0  0
  4 32  1  0  0  0  0
  4  3  2  0  0  0  0
  5  4  1  0  0  0  0
  6  5  2  0  0  0  0
  6  7  1  0  0  0  0
  7  2  2  0  0  0  0
  8  5  1  0  0  0  0
  9  8  2  0  0  0  0
 10  8  1  0  0  0  0
 10 35  1  0  0  0  0
 11 10  1  0  0  0  0
 12 13  2  0  0  0  0
 12 11  1  0  0  0  0
 13 14  1  0  0  0  0
 14 15  1  0  0  0  0
 14 20  1  0  0  0  0
 15 11  1  1  0  0  0
 15 16  1  0  0  0  0
 16 37  1  0  0  0  0
 16 17  1  0  0  0  0
 16 38  1  0  0  0  0
 17 18  1  0  0  0  0
 17 40  1  0  0  0  0
 18 42  1  0  0  0  0
 18 41  1  0  0  0  0
 19 44  1  0  0  0  0
 19 18  1  0  0  0  0
 20 19  1  0  0  0  0
 20 45  1  0  0  0  0
 21 47  1  0  0  0  0
 21 13  1  0  0  0  0
 22 21  1  0  0  0  0
 23 28  1  0  0  0  0
 23 22  1  0  0  0  0
 24 23  2  0  0  0  0
 25 26  2  0  0  0  0
 25 24  1  0  0  0  0
 26 27  1  0  0  0  0
 27 52  1  0  0  0  0
 27 28  2  0  0  0  0
 28 53  1  0  0  0  0
 29 26  1  0  0  0  0
 30 55  1  0  0  0  0
 30 29  1  0  0  0  0
 33  6  1  0  0  0  0
 34  7  1  0  0  0  0
 36 10  1  0  0  0  0
 39 17  1  0  0  0  0
 43 19  1  0  0  0  0
 46 20  1  0  0  0  0
 48 21  1  0  0  0  0
 49 22  1  0  0  0  0
 50 24  1  0  0  0  0
 51 25  1  0  0  0  0
 54 30  1  0  0  0  0
 56 30  1  0  0  0  0
M  END
>  <Pose>
1

>  <Score>
-5.19

$$$$
