
 OpenBabel03212208273D

 48 51  0  0  1  0  0  0  0  0999 V2000
   94.2830  101.3580  -39.7240 Cl  0  0  0  0  0  0  0  0  0  0  0  0
   92.8690  102.2960  -40.1790 C   0  0  0  0  0  0  0  0  0  0  0  0
   92.0500  101.8800  -41.2260 C   0  0  0  0  0  0  0  0  0  0  0  0
   90.9510  102.5950  -41.6320 C   0  0  0  0  0  0  0  0  0  0  0  0
   90.6940  103.7770  -40.9270 C   0  0  0  0  0  0  0  0  0  0  0  0
   91.4990  104.2100  -39.8790 C   0  0  0  0  0  0  0  0  0  0  0  0
   92.5880  103.4680  -39.5080 C   0  0  0  0  0  0  0  0  0  0  0  0
   90.0480  102.1240  -42.6220 N   0  0  0  0  0  4  0  0  0  0  0  0
   89.5620  100.7810  -42.4280 C   0  0  0  0  0  0  0  0  0  0  0  0
   89.7060   99.9730  -43.6490 C   0  0  2  0  0  0  0  0  0  0  0  0
   90.2610  100.8950  -44.5980 N   0  0  0  0  0  0  0  0  0  0  0  0
   90.2690  100.9180  -46.0420 C   0  0  0  0  0  0  0  0  0  0  0  0
   91.6260  100.8930  -46.6680 C   0  0  0  0  0  0  0  0  0  0  0  0
   92.7630  101.0900  -45.7270 C   0  0  0  0  0  0  0  0  0  0  0  0
   92.8130  102.5860  -45.3460 C   0  0  0  0  0  0  0  0  0  0  0  0
   91.9210  102.6810  -44.1210 C   0  0  0  0  0  0  0  0  0  0  0  0
   90.8560  101.9720  -43.8240 C   0  0  0  0  0  0  0  0  0  0  0  0
   88.4170   99.6220  -44.1380 O   0  0  0  0  0  0  0  0  0  0  0  0
   90.4210   98.7250  -43.5390 C   0  0  0  0  0  0  0  0  0  0  0  0
   91.1750   98.3670  -42.4210 C   0  0  0  0  0  0  0  0  0  0  0  0
   91.8420   97.1550  -42.3110 C   0  0  0  0  0  0  0  0  0  0  0  0
   91.7540   96.2470  -43.3660 C   0  0  0  0  0  0  0  0  0  0  0  0
   91.0280   96.5580  -44.4790 C   0  0  0  0  0  0  0  0  0  0  0  0
   90.3680   97.7950  -44.5530 C   0  0  0  0  0  0  0  0  0  0  0  0
   92.5880   96.8600  -41.1470 N   0  0  0  0  0  0  0  0  0  0  0  0
   93.0760   97.8080  -40.4570 O   0  0  0  0  0  0  0  0  0  0  0  0
   92.8240   95.6090  -40.7140 O   0  0  0  0  0  0  0  0  0  0  0  0
   92.3800  100.9520  -41.7230 H   0  0  0  0  0  0  0  0  0  0  0  0
   89.8360  104.3610  -41.2130 H   0  0  0  0  0  0  0  0  0  0  0  0
   91.2780  105.1480  -39.3380 H   0  0  0  0  0  0  0  0  0  0  0  0
   93.2240  103.7850  -38.7070 H   0  0  0  0  0  0  0  0  0  0  0  0
   89.3660  102.8460  -42.8250 H   0  0  0  0  0  0  0  0  0  0  0  0
   89.8700  100.4290  -41.4640 H   0  0  0  0  0  0  0  0  0  0  0  0
   88.4290  100.9460  -42.2970 H   0  0  0  0  0  0  0  0  0  0  0  0
   89.6260  100.1590  -46.5230 H   0  0  0  0  0  0  0  0  0  0  0  0
   89.8190  101.9000  -46.4430 H   0  0  0  0  0  0  0  0  0  0  0  0
   91.7150  101.6150  -47.5120 H   0  0  0  0  0  0  0  0  0  0  0  0
   91.8150   99.8780  -47.1630 H   0  0  0  0  0  0  0  0  0  0  0  0
   92.7380  100.4810  -44.8010 H   0  0  0  0  0  0  0  0  0  0  0  0
   93.7630  100.9060  -46.2130 H   0  0  0  0  0  0  0  0  0  0  0  0
   92.4280  103.1830  -46.1640 H   0  0  0  0  0  0  0  0  0  0  0  0
   93.8380  102.8530  -45.0140 H   0  0  0  0  0  0  0  0  0  0  0  0
   92.2490  103.4390  -43.4320 H   0  0  0  0  0  0  0  0  0  0  0  0
   87.9940   99.0690  -43.4020 H   0  0  0  0  0  0  0  0  0  0  0  0
   91.2280   99.0640  -41.6330 H   0  0  0  0  0  0  0  0  0  0  0  0
   92.2890   95.3120  -43.2360 H   0  0  0  0  0  0  0  0  0  0  0  0
   90.9650   95.8320  -45.3130 H   0  0  0  0  0  0  0  0  0  0  0  0
   89.8240   97.9290  -45.4830 H   0  0  0  0  0  0  0  0  0  0  0  0
  2  1  1  0  0  0  0
  2  7  1  0  0  0  0
  3  2  2  0  0  0  0
  4  3  1  0  0  0  0
  4  5  2  0  0  0  0
  5  6  1  0  0  0  0
  6  7  2  0  0  0  0
  6 30  1  0  0  0  0
  7 31  1  0  0  0  0
  8  9  1  0  0  0  0
  8  4  1  0  0  0  0
  9 34  1  0  0  0  0
  9 33  1  0  0  0  0
 10 18  1  6  0  0  0
 10 19  1  0  0  0  0
 10  9  1  0  0  0  0
 11 17  1  0  0  0  0
 11 10  1  0  0  0  0
 12 11  1  0  0  0  0
 13 12  1  0  0  0  0
 13 14  1  0  0  0  0
 14 15  1  0  0  0  0
 14 39  1  0  0  0  0
 15 42  1  0  0  0  0
 15 16  1  0  0  0  0
 16 17  2  0  0  0  0
 16 43  1  0  0  0  0
 17  8  1  0  0  0  0
 18 44  1  0  0  0  0
 19 20  1  0  0  0  0
 20 21  2  0  0  0  0
 20 45  1  0  0  0  0
 21 25  1  0  0  0  0
 22 46  1  0  0  0  0
 22 21  1  0  0  0  0
 23 22  2  0  0  0  0
 24 23  1  0  0  0  0
 24 19  2  0  0  0  0
 25 27  2  0  0  0  0
 25 26  2  0  0  0  0
 28  3  1  0  0  0  0
 29  5  1  0  0  0  0
 32  8  1  0  0  0  0
 35 12  1  0  0  0  0
 36 12  1  0  0  0  0
 37 13  1  0  0  0  0
 38 13  1  0  0  0  0
 40 14  1  0  0  0  0
 41 15  1  0  0  0  0
 47 23  1  0  0  0  0
 48 24  1  0  0  0  0
M  END
>  <Pose>
1

>  <Score>
-4.17

$$$$
