
 OpenBabel03212208273D

 54 58  0  0  0  0  0  0  0  0999 V2000
   92.3210   95.5600  -40.1030 F   0  0  0  0  0  0  0  0  0  0  0  0
   92.0420   95.5990  -41.4180 C   0  0  0  0  0  0  0  0  0  0  0  0
   92.0930   94.3580  -42.0470 C   0  0  0  0  0  0  0  0  0  0  0  0
   91.8210   94.2440  -43.3920 C   0  0  0  0  0  0  0  0  0  0  0  0
   91.5000   95.3870  -44.0850 C   0  0  0  0  0  0  0  0  0  0  0  0
   91.4530   96.6170  -43.4390 C   0  0  0  0  0  0  0  0  0  0  0  0
   91.7230   96.7440  -42.1030 C   0  0  0  0  0  0  0  0  0  0  0  0
   91.6750   97.9970  -41.4920 N   0  0  0  0  0  4  0  0  0  0  0  0
   91.6900   99.1270  -42.3850 C   0  0  0  0  0  0  0  0  0  0  0  0
   91.4830  100.4330  -41.5820 C   0  0  0  0  0  0  0  0  0  0  0  0
   92.6000  100.5320  -40.7290 N   0  0  0  0  0  0  0  0  0  0  0  0
   92.5460   99.4500  -39.6700 C   0  0  0  0  0  0  0  0  0  0  0  0
   92.6580   98.1930  -40.4780 C   0  0  0  0  0  0  0  0  0  0  0  0
   93.6880  101.3380  -40.7070 C   0  0  0  0  0  0  0  0  0  0  0  0
   94.5940  101.0340  -39.8090 O   0  0  0  0  0  0  0  0  0  0  0  0
   94.0360  102.4840  -41.5000 C   0  0  0  0  0  0  0  0  0  0  0  0
   93.8350  102.5790  -42.8390 C   0  0  0  0  0  0  0  0  0  0  0  0
   94.1370  103.7300  -43.5560 C   0  0  0  0  0  0  0  0  0  0  0  0
   94.6570  104.8120  -42.8960 C   0  0  0  0  0  0  0  0  0  0  0  0
   94.8800  104.7700  -41.5490 C   0  0  0  0  0  0  0  0  0  0  0  0
   94.5740  103.6280  -40.8730 C   0  0  0  0  0  0  0  0  0  0  0  0
   93.8560  103.8070  -45.2980 Cl  0  0  0  0  0  0  0  0  0  0  0  0
   91.2370   95.2510  -45.4010 N   0  0  0  0  0  0  0  0  0  0  0  0
   91.2800   94.0630  -46.0310 C   0  0  0  0  0  0  0  0  0  0  0  0
   91.5980   92.9010  -45.3640 C   0  0  0  0  0  0  0  0  0  0  0  0
   91.8740   92.9920  -44.0200 C   0  0  0  0  0  0  0  0  0  0  0  0
   92.1700   91.9730  -43.3540 O   0  0  0  0  0  0  0  0  0  0  0  0
   91.6420   91.6060  -46.0700 C   0  0  0  0  0  0  0  0  0  0  0  0
   90.6220   90.9350  -46.2950 O   0  0  0  0  0  0  0  0  0  0  0  0
   92.8670   91.1400  -46.4910 O   0  0  0  0  0  0  0  0  0  0  0  0
   90.8960   96.4810  -46.1250 C   0  0  0  0  0  0  0  0  0  0  0  0
   89.6840   97.2390  -45.7990 C   0  0  0  0  0  0  0  0  0  0  0  0
   89.5840   96.3650  -46.9690 C   0  0  0  0  0  0  0  0  0  0  0  0
   92.3430   93.4460  -41.5250 H   0  0  0  0  0  0  0  0  0  0  0  0
   91.1900   97.4600  -44.0790 H   0  0  0  0  0  0  0  0  0  0  0  0
   90.7320   98.0490  -40.9960 H   0  0  0  0  0  0  0  0  0  0  0  0
   92.6980   99.2260  -42.8150 H   0  0  0  0  0  0  0  0  0  0  0  0
   90.8530   99.1570  -43.1030 H   0  0  0  0  0  0  0  0  0  0  0  0
   91.2340  101.2180  -42.2660 H   0  0  0  0  0  0  0  0  0  0  0  0
   90.5180  100.2870  -40.9710 H   0  0  0  0  0  0  0  0  0  0  0  0
   91.5240   99.5230  -39.2660 H   0  0  0  0  0  0  0  0  0  0  0  0
   93.3320   99.5870  -38.9380 H   0  0  0  0  0  0  0  0  0  0  0  0
   92.5420   97.3430  -39.7430 H   0  0  0  0  0  0  0  0  0  0  0  0
   93.7030   98.1170  -40.8260 H   0  0  0  0  0  0  0  0  0  0  0  0
   93.4680  101.7640  -43.4390 H   0  0  0  0  0  0  0  0  0  0  0  0
   94.8860  105.7000  -43.4730 H   0  0  0  0  0  0  0  0  0  0  0  0
   95.2940  105.6580  -41.0890 H   0  0  0  0  0  0  0  0  0  0  0  0
   94.7520  103.5960  -39.7930 H   0  0  0  0  0  0  0  0  0  0  0  0
   91.0610   94.0070  -47.0860 H   0  0  0  0  0  0  0  0  0  0  0  0
   91.7240   96.9770  -46.6640 H   0  0  0  0  0  0  0  0  0  0  0  0
   89.0670   97.0230  -44.9030 H   0  0  0  0  0  0  0  0  0  0  0  0
   89.7390   98.3520  -45.9880 H   0  0  0  0  0  0  0  0  0  0  0  0
   89.0420   95.4020  -46.8840 H   0  0  0  0  0  0  0  0  0  0  0  0
   89.6490   96.7290  -48.0120 H   0  0  0  0  0  0  0  0  0  0  0  0
  2  1  1  0  0  0  0
  3 34  1  0  0  0  0
  3  2  1  0  0  0  0
  4  3  2  0  0  0  0
  5  6  2  0  0  0  0
  5  4  1  0  0  0  0
  6  7  1  0  0  0  0
  7  8  1  0  0  0  0
  7  2  2  0  0  0  0
  8 36  1  0  0  0  0
  8 13  1  0  0  0  0
  9 10  1  0  0  0  0
  9  8  1  0  0  0  0
 10 40  1  0  0  0  0
 10 11  1  0  0  0  0
 11 14  1  0  0  0  0
 11 12  1  0  0  0  0
 12 41  1  0  0  0  0
 12 42  1  0  0  0  0
 13 43  1  0  0  0  0
 13 12  1  0  0  0  0
 14 15  2  0  0  0  0
 16 21  1  0  0  0  0
 16 14  1  0  0  0  0
 17 16  2  0  0  0  0
 18 19  2  0  0  0  0
 18 17  1  0  0  0  0
 19 20  1  0  0  0  0
 20 47  1  0  0  0  0
 20 21  2  0  0  0  0
 21 48  1  0  0  0  0
 22 18  1  0  0  0  0
 23  5  1  0  0  0  0
 24 23  1  0  0  0  0
 24 25  2  0  0  0  0
 25 26  1  0  0  0  0
 26  4  1  0  0  0  0
 26 27  2  0  0  0  0
 28 25  1  0  0  0  0
 29 28  1  0  0  0  0
 30 28  2  0  0  0  0
 31 32  1  0  0  0  0
 31 23  1  0  0  0  0
 32 51  1  0  0  0  0
 33 53  1  0  0  0  0
 33 31  1  0  0  0  0
 33 32  1  0  0  0  0
 35  6  1  0  0  0  0
 37  9  1  0  0  0  0
 38  9  1  0  0  0  0
 39 10  1  0  0  0  0
 44 13  1  0  0  0  0
 45 17  1  0  0  0  0
 46 19  1  0  0  0  0
 49 24  1  0  0  0  0
 50 31  1  0  0  0  0
 52 32  1  0  0  0  0
 54 33  1  0  0  0  0
M  END
>  <Pose>
1

>  <Score>
-5.08

$$$$
