
 OpenBabel03212208273D

 51 54  0  0  0  0  0  0  0  0999 V2000
   91.4620   91.3170  -47.7140 Cl  0  0  0  0  0  0  0  0  0  0  0  0
   91.7750   91.9900  -46.1220 C   0  0  0  0  0  0  0  0  0  0  0  0
   92.2600   91.1740  -45.1140 C   0  0  0  0  0  0  0  0  0  0  0  0
   92.5040   91.7100  -43.8720 C   0  0  0  0  0  0  0  0  0  0  0  0
   92.2780   93.0410  -43.5990 C   0  0  0  0  0  0  0  0  0  0  0  0
   91.7970   93.8290  -44.6110 C   0  0  0  0  0  0  0  0  0  0  0  0
   91.5380   93.3180  -45.8850 C   0  0  0  0  0  0  0  0  0  0  0  0
   92.5470   93.5680  -42.2400 C   0  0  0  0  0  0  0  0  0  0  0  0
   93.1340   92.7840  -41.4650 O   0  0  0  0  0  0  0  0  0  0  0  0
   92.1760   94.8460  -41.8500 N   0  0  0  0  0  0  0  0  0  0  0  0
   92.5490   95.6290  -40.7340 C   0  0  0  0  0  0  0  0  0  0  0  0
   92.2070   97.0610  -40.7290 C   0  0  0  0  0  0  0  0  0  0  0  0
   92.7770   97.9700  -41.6430 N   0  0  0  0  0  0  0  0  0  0  0  0
   92.4820   99.3690  -41.4510 C   0  0  0  0  0  0  0  0  0  0  0  0
   92.6300   99.8680  -40.3250 O   0  0  0  0  0  0  0  0  0  0  0  0
   92.0090  100.2220  -42.5670 C   0  0  0  0  0  0  0  0  0  0  0  0
   91.0000  101.2010  -42.0120 C   0  0  0  0  0  0  0  0  0  0  0  0
   89.7500  100.4170  -41.6830 C   0  0  0  0  0  0  0  0  0  0  0  0
   89.1760  100.0350  -42.9700 N   0  0  0  0  0  0  0  0  0  0  0  0
   90.0300   99.7140  -44.0630 C   0  0  0  0  0  0  0  0  0  0  0  0
   91.4500   99.4570  -43.7100 C   0  0  0  0  0  0  0  0  0  0  0  0
   87.7660  100.0010  -43.0720 C   0  0  0  0  0  0  0  0  0  0  0  0
   87.0670   98.8540  -43.1760 N   0  0  0  0  0  0  0  0  0  0  0  0
   85.7520   98.8050  -43.2730 N   0  0  0  0  0  0  0  0  0  0  0  0
   84.9070   97.7850  -43.3810 N   0  0  0  0  0  0  0  0  0  0  0  0
   83.6760   98.2150  -43.4510 N   0  0  0  0  0  0  0  0  0  0  0  0
   83.7010   99.5290  -43.3870 N   0  0  0  0  0  0  0  0  0  0  0  0
   84.9930   99.9060  -43.2770 C   0  0  0  0  0  0  0  0  0  0  0  0
   85.6520  101.1180  -43.1730 C   0  0  0  0  0  0  0  0  0  0  0  0
   87.0280  101.1710  -43.0710 C   0  0  0  0  0  0  0  0  0  0  0  0
   92.4410   90.1190  -45.3270 H   0  0  0  0  0  0  0  0  0  0  0  0
   92.8870   91.0850  -43.0640 H   0  0  0  0  0  0  0  0  0  0  0  0
   91.5930   94.8670  -44.4820 H   0  0  0  0  0  0  0  0  0  0  0  0
   91.1600   93.9360  -46.6830 H   0  0  0  0  0  0  0  0  0  0  0  0
   91.4630   95.3070  -42.5690 H   0  0  0  0  0  0  0  0  0  0  0  0
   92.1430   95.1450  -39.7910 H   0  0  0  0  0  0  0  0  0  0  0  0
   93.6810   95.5350  -40.6470 H   0  0  0  0  0  0  0  0  0  0  0  0
   92.2710   97.4620  -39.6550 H   0  0  0  0  0  0  0  0  0  0  0  0
   91.0720   97.1390  -40.8920 H   0  0  0  0  0  0  0  0  0  0  0  0
   93.4050   97.7690  -42.4170 H   0  0  0  0  0  0  0  0  0  0  0  0
   92.8550  100.8600  -42.9340 H   0  0  0  0  0  0  0  0  0  0  0  0
   90.7470  101.9060  -42.8360 H   0  0  0  0  0  0  0  0  0  0  0  0
   91.3930  101.7550  -41.1400 H   0  0  0  0  0  0  0  0  0  0  0  0
   89.0150  101.0440  -41.1250 H   0  0  0  0  0  0  0  0  0  0  0  0
   89.9360   99.4760  -41.1460 H   0  0  0  0  0  0  0  0  0  0  0  0
   90.0110  100.5740  -44.7910 H   0  0  0  0  0  0  0  0  0  0  0  0
   89.6560   98.8250  -44.6320 H   0  0  0  0  0  0  0  0  0  0  0  0
   92.1370   99.5860  -44.5970 H   0  0  0  0  0  0  0  0  0  0  0  0
   91.5750   98.3610  -43.4560 H   0  0  0  0  0  0  0  0  0  0  0  0
   85.0440  102.0210  -43.1770 H   0  0  0  0  0  0  0  0  0  0  0  0
   87.5340  102.1330  -42.9880 H   0  0  0  0  0  0  0  0  0  0  0  0
  1  2  1  0  0  0  0
  2  7  2  0  0  0  0
  2  3  1  0  0  0  0
  3  4  2  0  0  0  0
  4  5  1  0  0  0  0
  4 32  1  0  0  0  0
  5  8  1  0  0  0  0
  6 33  1  0  0  0  0
  6  5  2  0  0  0  0
  7  6  1  0  0  0  0
  8 10  1  0  0  0  0
  8  9  2  0  0  0  0
 10 11  1  0  0  0  0
 11 12  1  0  0  0  0
 11 37  1  0  0  0  0
 11 36  1  0  0  0  0
 12 38  1  0  0  0  0
 13 14  1  0  0  0  0
 13 12  1  0  0  0  0
 14 15  2  0  0  0  0
 16 17  1  0  0  0  0
 16 14  1  0  0  0  0
 17 18  1  0  0  0  0
 17 43  1  0  0  0  0
 18 45  1  0  0  0  0
 18 44  1  0  0  0  0
 19 18  1  0  0  0  0
 20 21  1  0  0  0  0
 20 19  1  0  0  0  0
 21 49  1  0  0  0  0
 21 16  1  0  0  0  0
 22 30  1  0  0  0  0
 22 19  1  0  0  0  0
 23 22  2  0  0  0  0
 24 23  1  0  0  0  0
 25 24  1  0  0  0  0
 26 27  1  0  0  0  0
 26 25  2  0  0  0  0
 27 28  2  0  0  0  0
 28 24  1  0  0  0  0
 28 29  1  0  0  0  0
 29 30  2  0  0  0  0
 30 51  1  0  0  0  0
 31  3  1  0  0  0  0
 34  7  1  0  0  0  0
 35 10  1  0  0  0  0
 39 12  1  0  0  0  0
 40 13  1  0  0  0  0
 41 16  1  0  0  0  0
 42 17  1  0  0  0  0
 46 20  1  0  0  0  0
 47 20  1  0  0  0  0
 48 21  1  0  0  0  0
 50 29  1  0  0  0  0
M  END
>  <Pose>
1

>  <Score>
-6.27

$$$$
