
 OpenBabel03212208273D

 53 56  0  0  1  0  0  0  0  0999 V2000
   96.3940  104.3880  -40.2620 B   0  0  0  0  0  0  0  0  0  0  0  0
   94.9680  103.3170  -40.9810 C   0  0  0  0  0  0  0  0  0  0  0  0
   94.9280  102.9710  -42.3110 C   0  0  0  0  0  0  0  0  0  0  0  0
   93.9400  102.2130  -42.8750 C   0  0  0  0  0  0  0  0  0  0  0  0
   92.9140  101.7640  -42.0660 C   0  0  0  0  0  0  0  0  0  0  0  0
   92.9290  102.0960  -40.7300 C   0  0  0  0  0  0  0  0  0  0  0  0
   93.9470  102.8720  -40.1660 C   0  0  0  0  0  0  0  0  0  0  0  0
   91.8370  100.9270  -42.5810 C   0  0  0  0  0  0  0  0  0  0  0  0
   91.7070   99.6720  -42.2020 C   0  0  0  0  0  0  0  0  0  0  0  0
   90.6870   98.6520  -42.6080 C   0  0  2  0  0  0  0  0  0  0  0  0
   91.4790   97.4850  -42.7530 N   0  0  0  0  0  0  0  0  0  0  0  0
   92.3530   97.5160  -41.5840 C   0  0  0  0  0  0  0  0  0  0  0  0
   92.8790   96.5390  -40.9910 O   0  0  0  0  0  0  0  0  0  0  0  0
   92.5010   98.9230  -41.2290 C   0  0  0  0  0  0  0  0  0  0  0  0
   93.1650   99.4670  -40.2850 O   0  0  0  0  0  0  0  0  0  0  0  0
   91.5130   96.3910  -43.7040 C   0  0  0  0  0  0  0  0  0  0  0  0
   91.1640   96.6950  -45.1090 C   0  0  0  0  0  0  0  0  0  0  0  0
   91.4530   95.6050  -46.0470 N   0  0  0  0  0  4  0  0  0  0  0  0
   90.2430   95.0120  -46.5030 C   0  0  0  0  0  0  0  0  0  0  0  0
   90.0070   93.5930  -46.1190 C   0  0  0  0  0  0  0  0  0  0  0  0
   91.1430   92.8350  -45.9060 O   0  0  0  0  0  0  0  0  0  0  0  0
   91.8120   93.4740  -44.8370 C   0  0  0  0  0  0  0  0  0  0  0  0
   92.3840   94.7260  -45.4030 C   0  0  0  0  0  0  0  0  0  0  0  0
   89.7670   99.0970  -43.6000 C   0  0  0  0  0  0  0  0  0  0  0  0
   88.5530   99.6070  -43.2080 C   0  0  0  0  0  0  0  0  0  0  0  0
   87.6200  100.0720  -44.1040 C   0  0  0  0  0  0  0  0  0  0  0  0
   87.8790  100.0430  -45.4670 C   0  0  0  0  0  0  0  0  0  0  0  0
   89.1040   99.5270  -45.8410 C   0  0  0  0  0  0  0  0  0  0  0  0
   90.0330   99.0630  -44.9360 C   0  0  0  0  0  0  0  0  0  0  0  0
   86.7030  100.6310  -46.6160 Cl  0  0  0  0  0  0  0  0  0  0  0  0
   90.9670  101.5170  -43.4810 O   0  0  0  0  0  0  0  0  0  0  0  0
   95.7370  103.3300  -42.9300 H   0  0  0  0  0  0  0  0  0  0  0  0
   93.8940  101.9330  -43.9170 H   0  0  0  0  0  0  0  0  0  0  0  0
   92.1560  101.7560  -40.0370 H   0  0  0  0  0  0  0  0  0  0  0  0
   93.9210  103.1140  -39.1010 H   0  0  0  0  0  0  0  0  0  0  0  0
   90.1130   98.4840  -41.6360 H   0  0  0  0  0  0  0  0  0  0  0  0
   92.5650   95.9540  -43.7420 H   0  0  0  0  0  0  0  0  0  0  0  0
   90.9380   95.5020  -43.2990 H   0  0  0  0  0  0  0  0  0  0  0  0
   91.6000   97.5840  -45.5600 H   0  0  0  0  0  0  0  0  0  0  0  0
   90.0210   96.7620  -45.1150 H   0  0  0  0  0  0  0  0  0  0  0  0
   91.9590   96.0820  -46.8560 H   0  0  0  0  0  0  0  0  0  0  0  0
   89.3610   95.6520  -46.2010 H   0  0  0  0  0  0  0  0  0  0  0  0
   90.2500   95.0330  -47.6340 H   0  0  0  0  0  0  0  0  0  0  0  0
   89.4460   93.5820  -45.1390 H   0  0  0  0  0  0  0  0  0  0  0  0
   89.3760   93.0340  -46.8340 H   0  0  0  0  0  0  0  0  0  0  0  0
   91.1490   93.6410  -43.9770 H   0  0  0  0  0  0  0  0  0  0  0  0
   92.6210   92.8080  -44.5030 H   0  0  0  0  0  0  0  0  0  0  0  0
   92.9630   95.2430  -44.5940 H   0  0  0  0  0  0  0  0  0  0  0  0
   93.1610   94.4160  -46.1570 H   0  0  0  0  0  0  0  0  0  0  0  0
   88.2780   99.6610  -42.1310 H   0  0  0  0  0  0  0  0  0  0  0  0
   86.6680  100.4720  -43.7910 H   0  0  0  0  0  0  0  0  0  0  0  0
   89.2870   99.5130  -46.9180 H   0  0  0  0  0  0  0  0  0  0  0  0
   90.9630   98.6970  -45.3600 H   0  0  0  0  0  0  0  0  0  0  0  0
  2  1  1  0  0  0  0
  2  7  1  0  0  0  0
  3  2  2  0  0  0  0
  4  3  1  0  0  0  0
  4  5  2  0  0  0  0
  5  6  1  0  0  0  0
  6  7  2  0  0  0  0
  6 34  1  0  0  0  0
  7 35  1  0  0  0  0
  8  9  2  0  0  0  0
  8  5  1  0  0  0  0
  9 14  1  0  0  0  0
 10  9  1  0  0  0  0
 10 36  1  1  0  0  0
 11 10  1  0  0  0  0
 11 12  1  0  0  0  0
 12 14  1  0  0  0  0
 12 13  2  0  0  0  0
 14 15  2  0  0  0  0
 16 38  1  0  0  0  0
 16 11  1  0  0  0  0
 17 16  1  0  0  0  0
 18 23  1  0  0  0  0
 18 17  1  0  0  0  0
 19 42  1  0  0  0  0
 19 20  1  0  0  0  0
 19 18  1  0  0  0  0
 20 21  1  0  0  0  0
 20 44  1  0  0  0  0
 21 22  1  0  0  0  0
 22 47  1  0  0  0  0
 22 46  1  0  0  0  0
 23 22  1  0  0  0  0
 23 48  1  0  0  0  0
 24 25  1  0  0  0  0
 24 10  1  0  0  0  0
 25 50  1  0  0  0  0
 26 51  1  0  0  0  0
 26 25  2  0  0  0  0
 27 26  1  0  0  0  0
 28 27  2  0  0  0  0
 28 29  1  0  0  0  0
 29 24  2  0  0  0  0
 30 27  1  0  0  0  0
 31  8  1  0  0  0  0
 32  3  1  0  0  0  0
 33  4  1  0  0  0  0
 37 16  1  0  0  0  0
 39 17  1  0  0  0  0
 40 17  1  0  0  0  0
 41 18  1  0  0  0  0
 43 19  1  0  0  0  0
 45 20  1  0  0  0  0
 49 23  1  0  0  0  0
 52 28  1  0  0  0  0
 53 29  1  0  0  0  0
M  END
>  <Pose>
1

>  <Score>
-4.68

$$$$
