
 OpenBabel03212208273D

 49 52  0  0  0  0  0  0  0  0999 V2000
   96.1750  104.7190  -47.2450 Cl  0  0  0  0  0  0  0  0  0  0  0  0
   95.3290  103.3180  -47.8840 C   0  0  0  0  0  0  0  0  0  0  0  0
   95.8400  102.6920  -48.9870 C   0  0  0  0  0  0  0  0  0  0  0  0
   95.1710  101.5740  -49.4950 C   0  0  0  0  0  0  0  0  0  0  0  0
   94.0320  101.1380  -48.8840 C   0  0  0  0  0  0  0  0  0  0  0  0
   93.5230  101.7540  -47.7910 C   0  0  0  0  0  0  0  0  0  0  0  0
   94.1900  102.8810  -47.2720 C   0  0  0  0  0  0  0  0  0  0  0  0
   93.3260   99.9380  -49.4400 C   0  0  0  0  0  0  0  0  0  0  0  0
   94.0220   99.2240  -50.2080 O   0  0  0  0  0  0  0  0  0  0  0  0
   92.0370   99.7380  -49.0750 N   0  0  0  0  0  0  0  0  0  0  0  0
   90.7340   99.5350  -48.7050 C   0  0  0  0  0  0  0  0  0  0  0  0
   90.4270   99.4720  -47.2780 C   0  0  0  0  0  0  0  0  0  0  0  0
   89.9460  100.5900  -46.7840 O   0  0  0  0  0  0  0  0  0  0  0  0
   90.5470   98.4490  -46.3480 N   0  0  0  0  0  0  0  0  0  0  0  0
   89.8750   97.1940  -46.4360 C   0  0  0  0  0  0  0  0  0  0  0  0
   90.0070   96.4870  -45.0670 C   0  0  0  0  0  0  0  0  0  0  0  0
   91.4710   96.1190  -44.9170 C   0  0  0  0  0  0  0  0  0  0  0  0
   91.8400   95.2490  -45.9570 N   0  0  0  0  0  0  0  0  0  0  0  0
   91.6290   93.8700  -45.8480 C   0  0  0  0  0  0  0  0  0  0  0  0
   91.8190   93.2470  -44.5160 C   0  0  0  0  0  0  0  0  0  0  0  0
   91.8210   94.2170  -43.4000 C   0  0  0  0  0  0  0  0  0  0  0  0
   91.9760   93.9690  -42.0850 N   0  0  0  0  0  0  0  0  0  0  0  0
   91.9120   95.1330  -41.4330 C   0  0  0  0  0  0  0  0  0  0  0  0
   91.7170   96.1160  -42.3410 N   0  0  0  0  0  0  0  0  0  0  0  0
   91.6580   95.5640  -43.5670 C   0  0  0  0  0  0  0  0  0  0  0  0
   92.2910   97.4100  -45.0810 C   0  0  0  0  0  0  0  0  0  0  0  0
   91.4140   98.6280  -45.1720 C   0  0  0  0  0  0  0  0  0  0  0  0
   96.7370  103.0350  -49.4710 H   0  0  0  0  0  0  0  0  0  0  0  0
   95.5330  101.0520  -50.3630 H   0  0  0  0  0  0  0  0  0  0  0  0
   92.6230  101.4390  -47.2750 H   0  0  0  0  0  0  0  0  0  0  0  0
   93.7940  103.3830  -46.4020 H   0  0  0  0  0  0  0  0  0  0  0  0
   92.4310   98.8970  -48.0590 H   0  0  0  0  0  0  0  0  0  0  0  0
   90.3400   98.5490  -49.1700 H   0  0  0  0  0  0  0  0  0  0  0  0
   89.9890  100.2700  -49.1930 H   0  0  0  0  0  0  0  0  0  0  0  0
   90.3080   96.5280  -47.1780 H   0  0  0  0  0  0  0  0  0  0  0  0
   88.7810   97.4020  -46.6050 H   0  0  0  0  0  0  0  0  0  0  0  0
   89.3790   95.5740  -45.0990 H   0  0  0  0  0  0  0  0  0  0  0  0
   89.6530   97.1780  -44.3090 H   0  0  0  0  0  0  0  0  0  0  0  0
   92.1040   95.6340  -46.8560 H   0  0  0  0  0  0  0  0  0  0  0  0
   92.3610   93.3630  -46.5500 H   0  0  0  0  0  0  0  0  0  0  0  0
   90.6240   93.6080  -46.2950 H   0  0  0  0  0  0  0  0  0  0  0  0
   92.7980   92.6860  -44.4540 H   0  0  0  0  0  0  0  0  0  0  0  0
   91.0500   92.4430  -44.3720 H   0  0  0  0  0  0  0  0  0  0  0  0
   92.0020   95.2770  -40.3630 H   0  0  0  0  0  0  0  0  0  0  0  0
   91.6260   97.1240  -42.1200 H   0  0  0  0  0  0  0  0  0  0  0  0
   93.0190   97.5270  -44.2470 H   0  0  0  0  0  0  0  0  0  0  0  0
   92.9060   97.3730  -46.0210 H   0  0  0  0  0  0  0  0  0  0  0  0
   92.1080   99.4950  -45.3350 H   0  0  0  0  0  0  0  0  0  0  0  0
   90.8240   98.8220  -44.2740 H   0  0  0  0  0  0  0  0  0  0  0  0
  2  7  1  0  0  0  0
  2  1  1  0  0  0  0
  3  2  2  0  0  0  0
  4  3  1  0  0  0  0
  4  5  2  0  0  0  0
  5  6  1  0  0  0  0
  6 30  1  0  0  0  0
  6  7  2  0  0  0  0
  7 31  1  0  0  0  0
  8 10  1  0  0  0  0
  8  5  1  0  0  0  0
  9  8  2  0  0  0  0
 10 11  1  0  0  0  0
 10 32  1  0  0  0  0
 11 12  1  0  0  0  0
 12 13  2  0  0  0  0
 12 14  1  0  0  0  0
 14 27  1  0  0  0  0
 15 14  1  0  0  0  0
 15 16  1  0  0  0  0
 16 17  1  0  0  0  0
 16 38  1  0  0  0  0
 17 25  1  0  0  0  0
 18 19  1  0  0  0  0
 18 17  1  0  0  0  0
 19 20  1  0  0  0  0
 20 42  1  0  0  0  0
 20 43  1  0  0  0  0
 20 21  1  0  0  0  0
 21 22  1  0  0  0  0
 22 23  2  0  0  0  0
 23 44  1  0  0  0  0
 24 45  1  0  0  0  0
 24 23  1  0  0  0  0
 25 21  2  0  0  0  0
 25 24  1  0  0  0  0
 26 17  1  0  0  0  0
 26 46  1  0  0  0  0
 27 26  1  0  0  0  0
 27 49  1  0  0  0  0
 28  3  1  0  0  0  0
 29  4  1  0  0  0  0
 33 11  1  0  0  0  0
 34 11  1  0  0  0  0
 35 15  1  0  0  0  0
 36 15  1  0  0  0  0
 37 16  1  0  0  0  0
 39 18  1  0  0  0  0
 40 19  1  0  0  0  0
 41 19  1  0  0  0  0
 47 26  1  0  0  0  0
 48 27  1  0  0  0  0
M  END
>  <Pose>
1

>  <Score>
-5.42

$$$$
