
 OpenBabel03212208273D

 41 38  0  0  1  0  0  0  0  0999 V2000
   91.4040  100.8830  -46.8680 Cl  0  0  0  0  0  0  0  0  0  0  0  0
   91.8520   99.8980  -45.4920 C   0  0  0  0  0  0  0  0  0  0  0  0
   91.5220   98.5640  -45.4790 C   0  0  0  0  0  0  0  0  0  0  0  0
   90.8830   97.7430  -46.3290 N   0  0  0  0  0  0  0  0  0  0  0  0
   90.8120   96.4880  -45.8450 C   0  0  0  0  0  0  0  0  0  0  0  0
   91.4440   96.5300  -44.6200 C   0  0  0  0  0  0  0  0  0  0  0  0
   91.8900   97.8110  -44.3770 C   0  0  0  0  0  0  0  0  0  0  0  0
   92.5690   98.4170  -43.3400 C   0  0  0  0  0  0  0  0  0  0  0  0
   92.9110   99.7460  -43.3280 C   0  0  0  0  0  0  0  0  0  0  0  0
   92.5390  100.4990  -44.4370 C   0  0  0  0  0  0  0  0  0  0  0  0
   91.4980   95.2450  -43.8800 C   0  0  0  0  0  0  0  0  0  0  0  0
   92.0240   94.2930  -44.8320 N   0  0  0  0  0  0  0  0  0  0  0  0
   91.1730   94.0090  -45.9210 C   0  0  0  0  0  0  0  0  0  0  0  0
   90.2690   95.1750  -46.2520 C   0  0  0  0  0  0  0  0  0  0  0  0
   92.7830   93.2560  -44.2740 C   0  0  0  0  0  0  0  0  0  0  0  0
   92.4440   92.9820  -42.8410 C   0  0  2  0  0  0  0  0  0  0  0  0
   93.6340   92.9320  -41.9470 C   0  0  0  0  0  0  0  0  0  0  0  0
   93.4950   93.8660  -40.8830 N   0  0  0  0  0  0  0  0  0  0  0  0
   92.2810   94.5950  -41.0530 C   0  0  0  0  0  0  0  0  0  0  0  0
   91.6310   94.1330  -42.3120 C   0  0  0  0  0  0  0  0  0  0  0  0
   91.6460   91.8370  -42.7220 O   0  0  0  0  0  0  0  0  0  0  0  0
   90.4710   98.0030  -47.2690 H   0  0  0  0  0  0  0  0  0  0  0  0
   92.8440   97.8080  -42.4950 H   0  0  0  0  0  0  0  0  0  0  0  0
   93.4460  100.2160  -42.5090 H   0  0  0  0  0  0  0  0  0  0  0  0
   92.8000  101.5490  -44.4460 H   0  0  0  0  0  0  0  0  0  0  0  0
   90.4290   95.0050  -43.6110 H   0  0  0  0  0  0  0  0  0  0  0  0
   92.1570   95.2610  -43.0150 H   0  0  0  0  0  0  0  0  0  0  0  0
   91.7630   93.8130  -46.8590 H   0  0  0  0  0  0  0  0  0  0  0  0
   90.4940   93.1350  -45.7410 H   0  0  0  0  0  0  0  0  0  0  0  0
   90.0730   95.2030  -47.3460 H   0  0  0  0  0  0  0  0  0  0  0  0
   89.2620   95.0380  -45.7840 H   0  0  0  0  0  0  0  0  0  0  0  0
   93.8820   93.3670  -44.3530 H   0  0  0  0  0  0  0  0  0  0  0  0
   92.5520   92.3040  -44.8400 H   0  0  0  0  0  0  0  0  0  0  0  0
   93.8980   91.9070  -41.5940 H   0  0  0  0  0  0  0  0  0  0  0  0
   94.5260   93.2590  -42.5570 H   0  0  0  0  0  0  0  0  0  0  0  0
   93.5790   93.4390  -39.9300 H   0  0  0  0  0  0  0  0  0  0  0  0
   91.6320   94.5050  -40.1590 H   0  0  0  0  0  0  0  0  0  0  0  0
   92.4830   95.6930  -41.1700 H   0  0  0  0  0  0  0  0  0  0  0  0
   90.5890   93.8100  -42.0340 H   0  0  0  0  0  0  0  0  0  0  0  0
   91.5330   94.9400  -43.0760 H   0  0  0  0  0  0  0  0  0  0  0  0
   90.7270   92.1190  -42.9740 H   0  0  0  0  0  0  0  0  0  0  0  0
  1  2  1  0  0  0  0
  2  3  2  0  0  0  0
  2 10  1  0  0  0  0
  3  7  1  0  0  0  0
  4  5  1  0  0  0  0
  4  3  1  0  0  0  0
  5  6  2  0  0  0  0
  6  7  1  0  0  0  0
  7  8  2  0  0  0  0
  8  9  1  0  0  0  0
  8 23  1  0  0  0  0
  9 24  1  0  0  0  0
 10  9  2  0  0  0  0
 11 40  1  0  0  0  0
 12 15  1  0  0  0  0
 13 29  1  0  0  0  0
 13 12  1  0  0  0  0
 14 13  1  0  0  0  0
 14  5  1  0  0  0  0
 14 31  1  0  0  0  0
 15 16  1  0  0  0  0
 16 21  1  6  0  0  0
 16 17  1  0  0  0  0
 17 34  1  0  0  0  0
 17 18  1  0  0  0  0
 18 36  1  0  0  0  0
 19 18  1  0  0  0  0
 19 37  1  0  0  0  0
 20 39  1  0  0  0  0
 22  4  1  0  0  0  0
 25 10  1  0  0  0  0
 28 13  1  0  0  0  0
 30 14  1  0  0  0  0
 32 15  1  0  0  0  0
 33 15  1  0  0  0  0
 35 17  1  0  0  0  0
 38 19  1  0  0  0  0
 41 21  1  0  0  0  0
M  END
>  <Pose>
1

>  <Score>
-4.85

$$$$
