
 OpenBabel03212208273D

 43 46  0  0  0  0  0  0  0  0999 V2000
   90.2060   91.1720  -50.9120 B   0  0  0  0  0  0  0  0  0  0  0  0
   91.2450   90.8590  -49.3450 C   0  0  0  0  0  0  0  0  0  0  0  0
   91.1300   91.7130  -48.2390 C   0  0  0  0  0  0  0  0  0  0  0  0
   91.8840   91.4770  -47.1150 C   0  0  0  0  0  0  0  0  0  0  0  0
   92.7370   90.4040  -47.1010 C   0  0  0  0  0  0  0  0  0  0  0  0
   92.8580   89.5450  -48.2000 C   0  0  0  0  0  0  0  0  0  0  0  0
   92.1000   89.7890  -49.3200 C   0  0  0  0  0  0  0  0  0  0  0  0
   91.7830   92.3290  -45.9870 N   0  0  0  0  0  0  0  0  0  0  0  0
   91.7340   91.9420  -44.7080 N   0  0  0  0  0  0  0  0  0  0  0  0
   91.6400   92.9850  -43.9140 N   0  0  0  0  0  0  0  0  0  0  0  0
   91.6220   94.1030  -44.6540 C   0  0  0  0  0  0  0  0  0  0  0  0
   91.7140   93.6710  -45.9560 C   0  0  0  0  0  0  0  0  0  0  0  0
   91.5270   95.5020  -44.1760 C   0  0  0  0  0  0  0  0  0  0  0  0
   91.5750   95.6450  -42.9040 O   0  0  0  0  0  0  0  0  0  0  0  0
   91.3950   96.6130  -45.0100 N   0  0  0  0  0  0  0  0  0  0  0  0
   90.1230   96.9040  -45.6110 C   0  0  0  0  0  0  0  0  0  0  0  0
   89.6080   98.1930  -45.0330 C   0  0  0  0  0  0  0  0  0  0  0  0
   90.6690   99.1590  -44.9970 N   0  0  0  0  0  0  0  0  0  0  0  0
   91.8440   98.8420  -45.8320 C   0  0  0  0  0  0  0  0  0  0  0  0
   92.4570   97.5360  -45.3440 C   0  0  0  0  0  0  0  0  0  0  0  0
   90.7200  100.3470  -44.2680 C   0  0  0  0  0  0  0  0  0  0  0  0
   90.0000  101.3140  -44.7470 O   0  0  0  0  0  0  0  0  0  0  0  0
   91.4530  100.6790  -43.0520 C   0  0  0  0  0  0  0  0  0  0  0  0
   92.1230   99.7000  -42.1970 C   0  0  0  0  0  0  0  0  0  0  0  0
   92.9320  100.7480  -42.9560 C   0  0  0  0  0  0  0  0  0  0  0  0
   90.4340   92.5340  -48.3340 H   0  0  0  0  0  0  0  0  0  0  0  0
   93.3560   90.1610  -46.2530 H   0  0  0  0  0  0  0  0  0  0  0  0
   93.5260   88.7010  -48.1960 H   0  0  0  0  0  0  0  0  0  0  0  0
   92.1900   89.1220  -50.1820 H   0  0  0  0  0  0  0  0  0  0  0  0
   91.7260   94.3160  -46.8210 H   0  0  0  0  0  0  0  0  0  0  0  0
   89.4000   96.0720  -45.5270 H   0  0  0  0  0  0  0  0  0  0  0  0
   90.3160   97.0110  -46.7040 H   0  0  0  0  0  0  0  0  0  0  0  0
   88.7270   98.5660  -45.6220 H   0  0  0  0  0  0  0  0  0  0  0  0
   89.2660   98.0330  -43.9910 H   0  0  0  0  0  0  0  0  0  0  0  0
   91.4910   98.8090  -46.8680 H   0  0  0  0  0  0  0  0  0  0  0  0
   92.5810   99.6300  -45.6660 H   0  0  0  0  0  0  0  0  0  0  0  0
   93.1100   97.6880  -44.4850 H   0  0  0  0  0  0  0  0  0  0  0  0
   93.0300   97.1100  -46.1760 H   0  0  0  0  0  0  0  0  0  0  0  0
   90.9920  101.5620  -42.4650 H   0  0  0  0  0  0  0  0  0  0  0  0
   92.1040   99.8410  -41.0660 H   0  0  0  0  0  0  0  0  0  0  0  0
   92.3130   98.6470  -42.4520 H   0  0  0  0  0  0  0  0  0  0  0  0
   93.6330  100.4450  -43.7160 H   0  0  0  0  0  0  0  0  0  0  0  0
   93.3870  101.5510  -42.2950 H   0  0  0  0  0  0  0  0  0  0  0  0
  1  2  1  0  0  0  0
  2  7  2  0  0  0  0
  2  3  1  0  0  0  0
  3  4  2  0  0  0  0
  4  5  1  0  0  0  0
  4  8  1  0  0  0  0
  5 27  1  0  0  0  0
  6 28  1  0  0  0  0
  6  5  2  0  0  0  0
  7  6  1  0  0  0  0
  8 12  1  0  0  0  0
  8  9  1  0  0  0  0
  9 10  2  0  0  0  0
 11 13  1  0  0  0  0
 11 10  1  0  0  0  0
 12 11  2  0  0  0  0
 13 14  2  0  0  0  0
 15 13  1  0  0  0  0
 16 31  1  0  0  0  0
 16 17  1  0  0  0  0
 16 15  1  0  0  0  0
 17 18  1  0  0  0  0
 17 34  1  0  0  0  0
 18 21  1  0  0  0  0
 19 36  1  0  0  0  0
 19 20  1  0  0  0  0
 19 18  1  0  0  0  0
 20 15  1  0  0  0  0
 20 37  1  0  0  0  0
 21 23  1  0  0  0  0
 22 21  2  0  0  0  0
 23 25  1  0  0  0  0
 23 39  1  0  0  0  0
 23 24  1  0  0  0  0
 24 40  1  0  0  0  0
 25 43  1  0  0  0  0
 25 24  1  0  0  0  0
 26  3  1  0  0  0  0
 29  7  1  0  0  0  0
 30 12  1  0  0  0  0
 32 16  1  0  0  0  0
 33 17  1  0  0  0  0
 35 19  1  0  0  0  0
 38 20  1  0  0  0  0
 41 24  1  0  0  0  0
 42 25  1  0  0  0  0
M  END
>  <Pose>
1

>  <Score>
-5.33

$$$$
