
 OpenBabel03212208273D

 44 47  0  0  1  0  0  0  0  0999 V2000
   91.9890   92.7430  -45.1340 B   0  0  0  0  0  0  0  0  0  0  0  0
   91.8570   93.9030  -43.6310 C   0  0  0  0  0  0  0  0  0  0  0  0
   91.6280   95.2670  -43.7850 C   0  0  0  0  0  0  0  0  0  0  0  0
   91.5340   96.1020  -42.6910 C   0  0  0  0  0  0  0  0  0  0  0  0
   91.6800   95.5040  -41.4450 C   0  0  0  0  0  0  0  0  0  0  0  0
   91.9050   94.1650  -41.2730 C   0  0  0  0  0  0  0  0  0  0  0  0
   91.9960   93.3510  -42.3760 C   0  0  0  0  0  0  0  0  0  0  0  0
   91.3030   97.5070  -42.7960 N   0  0  0  0  0  0  0  0  0  0  0  0
   92.1270   98.4990  -42.1950 C   0  0  0  0  0  0  0  0  0  0  0  0
   92.8660   98.2770  -41.2060 O   0  0  0  0  0  0  0  0  0  0  0  0
   91.9190   99.7320  -42.9450 C   0  0  2  0  0  0  0  0  0  0  0  0
   90.4930   99.5980  -43.4360 C   0  0  0  0  0  0  0  0  0  0  0  0
   90.2370   98.1470  -43.5090 C   0  0  0  0  0  0  0  0  0  0  0  0
   89.2790   97.5630  -44.0800 O   0  0  0  0  0  0  0  0  0  0  0  0
   92.8340  100.0050  -43.9790 N   0  0  0  0  0  0  0  0  0  0  0  0
   92.8850  101.3140  -44.4920 C   0  0  0  0  0  0  0  0  0  0  0  0
   92.0260  101.3750  -45.7630 C   0  0  0  0  0  0  0  0  0  0  0  0
   91.7780  100.0290  -46.2530 N   0  0  0  0  0  0  0  0  0  0  0  0
   92.7700   98.9780  -46.1480 C   0  0  0  0  0  0  0  0  0  0  0  0
   93.3630   98.9760  -44.7590 C   0  0  0  0  0  0  0  0  0  0  0  0
   90.5200   99.6820  -46.8480 C   0  0  0  0  0  0  0  0  0  0  0  0
   90.4630   99.1080  -48.0680 N   0  0  0  0  0  0  0  0  0  0  0  0
   89.2790   98.7680  -48.6140 C   0  0  0  0  0  0  0  0  0  0  0  0
   88.0800   98.9940  -47.9470 C   0  0  0  0  0  0  0  0  0  0  0  0
   88.1460   99.5810  -46.6960 C   0  0  0  0  0  0  0  0  0  0  0  0
   89.3580   99.8970  -46.2060 N   0  0  0  0  0  0  0  0  0  0  0  0
   91.5220   95.6760  -44.7770 H   0  0  0  0  0  0  0  0  0  0  0  0
   91.6090   96.1570  -40.5760 H   0  0  0  0  0  0  0  0  0  0  0  0
   92.0200   93.7040  -40.2860 H   0  0  0  0  0  0  0  0  0  0  0  0
   92.1750   92.2950  -42.2330 H   0  0  0  0  0  0  0  0  0  0  0  0
   91.9250  100.6010  -42.2270 H   0  0  0  0  0  0  0  0  0  0  0  0
   89.8220  100.0060  -42.6630 H   0  0  0  0  0  0  0  0  0  0  0  0
   90.3550  100.0990  -44.4190 H   0  0  0  0  0  0  0  0  0  0  0  0
   93.9210  101.5450  -44.8130 H   0  0  0  0  0  0  0  0  0  0  0  0
   92.5820  102.0930  -43.8100 H   0  0  0  0  0  0  0  0  0  0  0  0
   91.0350  101.8400  -45.5250 H   0  0  0  0  0  0  0  0  0  0  0  0
   92.5120  101.9200  -46.5760 H   0  0  0  0  0  0  0  0  0  0  0  0
   93.5550   99.1040  -46.9490 H   0  0  0  0  0  0  0  0  0  0  0  0
   92.2820   97.9700  -46.2690 H   0  0  0  0  0  0  0  0  0  0  0  0
   93.2940   97.9830  -44.2710 H   0  0  0  0  0  0  0  0  0  0  0  0
   94.4690   99.1680  -44.9000 H   0  0  0  0  0  0  0  0  0  0  0  0
   89.2150   98.3020  -49.5970 H   0  0  0  0  0  0  0  0  0  0  0  0
   87.1330   98.7060  -48.4170 H   0  0  0  0  0  0  0  0  0  0  0  0
   87.2200   99.7680  -46.1380 H   0  0  0  0  0  0  0  0  0  0  0  0
  1  2  1  0  0  0  0
  2  7  1  0  0  0  0
  3  2  2  0  0  0  0
  3  4  1  0  0  0  0
  4  5  2  0  0  0  0
  5  6  1  0  0  0  0
  5 28  1  0  0  0  0
  6 29  1  0  0  0  0
  7 30  1  0  0  0  0
  7  6  2  0  0  0  0
  8  4  1  0  0  0  0
  8  9  1  0  0  0  0
  9 10  2  0  0  0  0
 11 31  1  1  0  0  0
 11  9  1  0  0  0  0
 12 11  1  0  0  0  0
 12 32  1  0  0  0  0
 13 12  1  0  0  0  0
 13  8  1  0  0  0  0
 14 13  2  0  0  0  0
 15 11  1  0  0  0  0
 16 15  1  0  0  0  0
 16 35  1  0  0  0  0
 17 36  1  0  0  0  0
 17 16  1  0  0  0  0
 18 19  1  0  0  0  0
 18 17  1  0  0  0  0
 19 20  1  0  0  0  0
 20 40  1  0  0  0  0
 20 15  1  0  0  0  0
 21 18  1  0  0  0  0
 21 26  1  0  0  0  0
 22 21  2  0  0  0  0
 23 22  1  0  0  0  0
 23 24  2  0  0  0  0
 24 25  1  0  0  0  0
 25 26  2  0  0  0  0
 25 44  1  0  0  0  0
 27  3  1  0  0  0  0
 33 12  1  0  0  0  0
 34 16  1  0  0  0  0
 37 17  1  0  0  0  0
 38 19  1  0  0  0  0
 39 19  1  0  0  0  0
 41 20  1  0  0  0  0
 42 23  1  0  0  0  0
 43 24  1  0  0  0  0
M  END
>  <Pose>
1

>  <Score>
-4.67

$$$$
