
 OpenBabel03212208273D

 46 49  0  0  1  0  0  0  0  0999 V2000
   91.8920  103.6690  -37.1470 Cl  0  0  0  0  0  0  0  0  0  0  0  0
   92.6070  102.8000  -38.4790 C   0  0  0  0  0  0  0  0  0  0  0  0
   93.9650  102.5780  -38.4690 C   0  0  0  0  0  0  0  0  0  0  0  0
   94.5130  101.8930  -39.5240 C   0  0  0  0  0  0  0  0  0  0  0  0
   93.6860  101.4440  -40.5640 C   0  0  0  0  0  0  0  0  0  0  0  0
   92.3400  101.6420  -40.6120 C   0  0  0  0  0  0  0  0  0  0  0  0
   91.8310  102.3540  -39.4980 C   0  0  0  0  0  0  0  0  0  0  0  0
   91.4420  101.2100  -41.6500 C   0  0  1  0  0  0  0  0  0  0  0  0
   91.2110  102.1230  -42.5720 O   0  0  0  0  0  0  0  0  0  0  0  0
   90.7500   99.9610  -41.8650 C   0  0  0  0  0  0  0  0  0  0  0  0
   91.2140   99.0040  -42.8110 N   0  0  0  0  0  0  0  0  0  0  0  0
   91.8700   99.2790  -43.9820 C   0  0  1  0  0  0  0  0  0  0  0  0
   92.0770   98.1030  -44.5810 N   0  0  0  0  0  0  0  0  0  0  0  0
   91.5910   97.0760  -43.8640 C   0  0  0  0  0  0  0  0  0  0  0  0
   91.0420   97.6560  -42.7350 C   0  0  0  0  0  0  0  0  0  0  0  0
   91.6120   95.6440  -44.1610 C   0  0  0  0  0  0  0  0  0  0  0  0
   91.8300   94.6570  -43.2350 C   0  0  0  0  0  0  0  0  0  0  0  0
   91.8330   93.3020  -43.5980 C   0  0  0  0  0  0  0  0  0  0  0  0
   91.6200   92.8960  -44.8960 C   0  0  0  0  0  0  0  0  0  0  0  0
   91.4010   93.8800  -45.8340 C   0  0  0  0  0  0  0  0  0  0  0  0
   91.3970   95.2120  -45.4750 C   0  0  0  0  0  0  0  0  0  0  0  0
   91.6200   91.5590  -45.2690 O   0  0  0  0  0  0  0  0  0  0  0  0
   91.7070   91.1940  -46.6350 C   0  0  0  0  0  0  0  0  0  0  0  0
   92.7770   98.2950  -45.8470 C   0  0  0  0  0  0  0  0  0  0  0  0
   93.0820   99.7630  -45.9110 C   0  0  0  0  0  0  0  0  0  0  0  0
   92.4000  100.4210  -44.7650 C   0  0  0  0  0  0  0  0  0  0  0  0
   94.9910  103.1390  -37.1690 Cl  0  0  0  0  0  0  0  0  0  0  0  0
   95.5670  101.7180  -39.5220 H   0  0  0  0  0  0  0  0  0  0  0  0
   94.2070  100.9260  -41.3250 H   0  0  0  0  0  0  0  0  0  0  0  0
   90.7740  102.5540  -39.4560 H   0  0  0  0  0  0  0  0  0  0  0  0
   90.6090   99.4000  -40.8590 H   0  0  0  0  0  0  0  0  0  0  0  0
   89.6310  100.1670  -42.0960 H   0  0  0  0  0  0  0  0  0  0  0  0
   90.5500   97.1450  -41.9100 H   0  0  0  0  0  0  0  0  0  0  0  0
   92.0010   94.9280  -42.2160 H   0  0  0  0  0  0  0  0  0  0  0  0
   92.0060   92.5310  -42.8580 H   0  0  0  0  0  0  0  0  0  0  0  0
   91.2300   93.5770  -46.8680 H   0  0  0  0  0  0  0  0  0  0  0  0
   91.2240   95.9880  -46.2220 H   0  0  0  0  0  0  0  0  0  0  0  0
   92.7540   91.4260  -46.9620 H   0  0  0  0  0  0  0  0  0  0  0  0
   91.5230   90.1060  -46.7370 H   0  0  0  0  0  0  0  0  0  0  0  0
   91.0080   91.7970  -47.2530 H   0  0  0  0  0  0  0  0  0  0  0  0
   93.7610   97.7680  -45.8730 H   0  0  0  0  0  0  0  0  0  0  0  0
   92.1470   97.9520  -46.6910 H   0  0  0  0  0  0  0  0  0  0  0  0
   94.1770   99.9820  -45.8540 H   0  0  0  0  0  0  0  0  0  0  0  0
   92.7130  100.1350  -46.9100 H   0  0  0  0  0  0  0  0  0  0  0  0
   93.0630  101.0490  -44.1380 H   0  0  0  0  0  0  0  0  0  0  0  0
   91.5770  101.0870  -45.1320 H   0  0  0  0  0  0  0  0  0  0  0  0
  2  3  1  0  0  0  0
  2  1  1  0  0  0  0
  3 27  1  0  0  0  0
  4 28  1  0  0  0  0
  4  3  2  0  0  0  0
  5  4  1  0  0  0  0
  6  5  2  0  0  0  0
  6  7  1  0  0  0  0
  7 30  1  0  0  0  0
  7  2  2  0  0  0  0
  8  9  1  6  0  0  0
  8  6  1  0  0  0  0
 10  8  1  0  0  0  0
 10 31  1  0  0  0  0
 11 15  1  0  0  0  0
 11 10  1  0  0  0  0
 12 26  1  6  0  0  0
 12 11  1  0  0  0  0
 13 12  1  0  0  0  0
 13 14  1  0  0  0  0
 14 15  2  0  0  0  0
 15 33  1  0  0  0  0
 16 14  1  0  0  0  0
 16 17  1  0  0  0  0
 17 34  1  0  0  0  0
 18 17  2  0  0  0  0
 18 35  1  0  0  0  0
 19 18  1  0  0  0  0
 20 21  1  0  0  0  0
 20 19  2  0  0  0  0
 21 16  2  0  0  0  0
 22 19  1  0  0  0  0
 23 22  1  0  0  0  0
 24 13  1  0  0  0  0
 25 43  1  0  0  0  0
 25 24  1  0  0  0  0
 25 26  1  0  0  0  0
 26 45  1  0  0  0  0
 29  5  1  0  0  0  0
 32 10  1  0  0  0  0
 36 20  1  0  0  0  0
 37 21  1  0  0  0  0
 38 23  1  0  0  0  0
 39 23  1  0  0  0  0
 40 23  1  0  0  0  0
 41 24  1  0  0  0  0
 42 24  1  0  0  0  0
 44 25  1  0  0  0  0
 46 26  1  0  0  0  0
M  END
>  <Pose>
1

>  <Score>
-4.60

$$$$
