
 OpenBabel03212208273D

 44 47  0  0  1  0  0  0  0  0999 V2000
   89.7210   99.9710  -42.8410 Cl  0  0  0  0  0  0  0  0  0  0  0  0
   90.7270   99.0260  -43.9170 C   0  0  0  0  0  0  0  0  0  0  0  0
   91.4390   99.6770  -44.8820 C   0  0  0  0  0  0  0  0  0  0  0  0
   92.2380   98.9590  -45.7410 C   0  0  0  0  0  0  0  0  0  0  0  0
   92.3040   97.5690  -45.6050 C   0  0  0  0  0  0  0  0  0  0  0  0
   91.5890   96.9070  -44.6340 C   0  0  0  0  0  0  0  0  0  0  0  0
   90.8040   97.6420  -43.7950 C   0  0  0  0  0  0  0  0  0  0  0  0
   91.6930   95.4490  -44.5610 C   0  0  0  0  0  0  0  0  0  0  0  0
   91.8240   94.6300  -43.4860 N   0  0  0  0  0  0  0  0  0  0  0  0
   91.8810   93.3600  -43.9000 C   0  0  2  0  0  0  0  0  0  0  0  0
   91.7920   93.3100  -45.2640 N   0  0  0  0  0  0  0  0  0  0  0  0
   91.6770   94.5910  -45.6510 C   0  0  0  0  0  0  0  0  0  0  0  0
   91.7700   92.1330  -46.0830 C   0  0  0  0  0  0  0  0  0  0  0  0
   91.2070   92.1190  -47.4050 C   0  0  1  0  0  0  0  0  0  0  0  0
   90.9190   93.3340  -47.8620 O   0  0  0  0  0  0  0  0  0  0  0  0
   90.8850   91.0780  -48.3480 C   0  0  0  0  0  0  0  0  0  0  0  0
   91.5530   89.8350  -48.2750 C   0  0  0  0  0  0  0  0  0  0  0  0
   91.3140   88.7870  -49.1240 C   0  0  0  0  0  0  0  0  0  0  0  0
   90.3590   88.9860  -50.1000 C   0  0  0  0  0  0  0  0  0  0  0  0
   89.6940   90.1890  -50.1920 C   0  0  0  0  0  0  0  0  0  0  0  0
   89.9420   91.2540  -49.3240 C   0  0  0  0  0  0  0  0  0  0  0  0
   91.9950   87.5490  -49.0340 N   0  0  0  0  0  0  0  0  0  0  0  0
   93.1840   87.5360  -48.6960 O   0  0  0  0  0  0  0  0  0  0  0  0
   91.3770   86.3650  -49.3090 O   0  0  0  0  0  0  0  0  0  0  0  0
   92.0130   92.4330  -42.7540 C   0  0  0  0  0  0  0  0  0  0  0  0
   92.5680   93.3420  -41.6920 C   0  0  0  0  0  0  0  0  0  0  0  0
   91.9340   94.6720  -42.0270 C   0  0  0  0  0  0  0  0  0  0  0  0
   91.3690  101.4300  -45.0700 Cl  0  0  0  0  0  0  0  0  0  0  0  0
   92.7890   99.4880  -46.4920 H   0  0  0  0  0  0  0  0  0  0  0  0
   92.9500   97.0630  -46.3100 H   0  0  0  0  0  0  0  0  0  0  0  0
   90.1980   97.2220  -43.0110 H   0  0  0  0  0  0  0  0  0  0  0  0
   91.5850   94.9050  -46.6970 H   0  0  0  0  0  0  0  0  0  0  0  0
   92.8460   91.7450  -46.0830 H   0  0  0  0  0  0  0  0  0  0  0  0
   91.2550   91.3490  -45.4310 H   0  0  0  0  0  0  0  0  0  0  0  0
   92.3090   89.6740  -47.5050 H   0  0  0  0  0  0  0  0  0  0  0  0
   90.1610   88.1630  -50.7800 H   0  0  0  0  0  0  0  0  0  0  0  0
   88.9370   90.3370  -50.9700 H   0  0  0  0  0  0  0  0  0  0  0  0
   89.3720   92.1470  -49.4750 H   0  0  0  0  0  0  0  0  0  0  0  0
   92.7500   91.6320  -42.9330 H   0  0  0  0  0  0  0  0  0  0  0  0
   91.0210   92.0130  -42.4340 H   0  0  0  0  0  0  0  0  0  0  0  0
   93.6680   93.3910  -41.8510 H   0  0  0  0  0  0  0  0  0  0  0  0
   92.3100   93.0220  -40.6610 H   0  0  0  0  0  0  0  0  0  0  0  0
   90.9350   94.6900  -41.5430 H   0  0  0  0  0  0  0  0  0  0  0  0
   92.5900   95.5060  -41.6760 H   0  0  0  0  0  0  0  0  0  0  0  0
  2  7  1  0  0  0  0
  2  1  1  0  0  0  0
  3  2  2  0  0  0  0
  4  5  2  0  0  0  0
  4  3  1  0  0  0  0
  5  6  1  0  0  0  0
  6  8  1  0  0  0  0
  6  7  2  0  0  0  0
  7 31  1  0  0  0  0
  8  9  1  0  0  0  0
  9 27  1  0  0  0  0
 10 11  1  1  0  0  0
 10  9  1  0  0  0  0
 10 25  1  0  0  0  0
 12 11  1  0  0  0  0
 12  8  2  0  0  0  0
 13 33  1  0  0  0  0
 13 34  1  0  0  0  0
 13 11  1  0  0  0  0
 14 15  1  6  0  0  0
 14 13  1  0  0  0  0
 16 17  1  0  0  0  0
 16 14  1  0  0  0  0
 17 35  1  0  0  0  0
 18 22  1  0  0  0  0
 18 17  2  0  0  0  0
 19 18  1  0  0  0  0
 20 19  2  0  0  0  0
 20 21  1  0  0  0  0
 21 16  2  0  0  0  0
 22 23  2  0  0  0  0
 24 22  2  0  0  0  0
 25 40  1  0  0  0  0
 25 26  1  0  0  0  0
 26 42  1  0  0  0  0
 27 26  1  0  0  0  0
 27 44  1  0  0  0  0
 27 43  1  0  0  0  0
 28  3  1  0  0  0  0
 29  4  1  0  0  0  0
 30  5  1  0  0  0  0
 32 12  1  0  0  0  0
 36 19  1  0  0  0  0
 37 20  1  0  0  0  0
 38 21  1  0  0  0  0
 39 25  1  0  0  0  0
 41 26  1  0  0  0  0
M  END
>  <Pose>
1

>  <Score>
-5.81

$$$$
