
 OpenBabel03212208273D

 44 47  0  0  1  0  0  0  0  0999 V2000
   91.4230   91.2520  -50.4970 Cl  0  0  0  0  0  0  0  0  0  0  0  0
   91.4980   91.3330  -48.7650 C   0  0  0  0  0  0  0  0  0  0  0  0
   91.7510   90.2110  -48.0230 C   0  0  0  0  0  0  0  0  0  0  0  0
   91.7970   90.3360  -46.6550 C   0  0  0  0  0  0  0  0  0  0  0  0
   91.5970   91.5520  -46.0580 C   0  0  0  0  0  0  0  0  0  0  0  0
   91.3380   92.7180  -46.7850 C   0  0  0  0  0  0  0  0  0  0  0  0
   91.2940   92.5750  -48.1320 C   0  0  0  0  0  0  0  0  0  0  0  0
   91.1120   93.9860  -46.0900 C   0  0  0  0  0  0  0  0  0  0  0  0
   91.5290   94.4110  -44.8870 N   0  0  0  0  0  0  0  0  0  0  0  0
   91.0710   95.6610  -44.6660 C   0  0  2  0  0  0  0  0  0  0  0  0
   90.3520   96.0350  -45.7390 N   0  0  0  0  0  0  0  0  0  0  0  0
   90.3500   95.0230  -46.6520 C   0  0  0  0  0  0  0  0  0  0  0  0
   89.7280   97.2930  -45.9270 C   0  0  0  0  0  0  0  0  0  0  0  0
   89.6920   98.3160  -44.9230 C   0  0  2  0  0  0  0  0  0  0  0  0
   90.8920   98.8040  -44.6780 O   0  0  0  0  0  0  0  0  0  0  0  0
   88.6200   98.8960  -44.1490 C   0  0  0  0  0  0  0  0  0  0  0  0
   87.3530   98.3880  -44.0560 C   0  0  0  0  0  0  0  0  0  0  0  0
   86.3640   99.0050  -43.2840 C   0  0  0  0  0  0  0  0  0  0  0  0
   86.6440  100.1430  -42.5990 C   0  0  0  0  0  0  0  0  0  0  0  0
   87.9130  100.6770  -42.6750 C   0  0  0  0  0  0  0  0  0  0  0  0
   88.8880  100.0810  -43.4270 C   0  0  0  0  0  0  0  0  0  0  0  0
   85.0600   98.4230  -43.2280 N   0  0  0  0  0  0  0  0  0  0  0  0
   84.1470   99.0250  -42.6360 O   0  0  0  0  0  0  0  0  0  0  0  0
   84.7830   97.2250  -43.8050 O   0  0  0  0  0  0  0  0  0  0  0  0
   91.5350   96.1450  -43.3450 C   0  0  0  0  0  0  0  0  0  0  0  0
   91.6310   94.8310  -42.6130 C   0  0  0  0  0  0  0  0  0  0  0  0
   92.3020   93.9890  -43.7120 C   0  0  0  0  0  0  0  0  0  0  0  0
   92.0080   88.6520  -48.7750 Cl  0  0  0  0  0  0  0  0  0  0  0  0
   91.9970   89.4620  -46.0240 H   0  0  0  0  0  0  0  0  0  0  0  0
   91.6420   91.6160  -44.9880 H   0  0  0  0  0  0  0  0  0  0  0  0
   91.0890   93.4120  -48.7630 H   0  0  0  0  0  0  0  0  0  0  0  0
   89.8630   95.0340  -47.5980 H   0  0  0  0  0  0  0  0  0  0  0  0
   88.6390   97.1290  -46.2550 H   0  0  0  0  0  0  0  0  0  0  0  0
   90.1970   97.7770  -46.8570 H   0  0  0  0  0  0  0  0  0  0  0  0
   87.0740   97.4880  -44.5800 H   0  0  0  0  0  0  0  0  0  0  0  0
   85.8500  100.6110  -41.9980 H   0  0  0  0  0  0  0  0  0  0  0  0
   88.1380  101.5980  -42.1180 H   0  0  0  0  0  0  0  0  0  0  0  0
   89.8770  100.5420  -43.4560 H   0  0  0  0  0  0  0  0  0  0  0  0
   92.5430   96.6040  -43.4730 H   0  0  0  0  0  0  0  0  0  0  0  0
   90.8200   96.8340  -42.8590 H   0  0  0  0  0  0  0  0  0  0  0  0
   90.6090   94.4260  -42.5220 H   0  0  0  0  0  0  0  0  0  0  0  0
   92.2060   94.8560  -41.7020 H   0  0  0  0  0  0  0  0  0  0  0  0
   93.3170   94.3560  -43.8260 H   0  0  0  0  0  0  0  0  0  0  0  0
   92.1820   92.9200  -43.4710 H   0  0  0  0  0  0  0  0  0  0  0  0
  1  2  1  0  0  0  0
  2  7  2  0  0  0  0
  2  3  1  0  0  0  0
  3  4  2  0  0  0  0
  4  5  1  0  0  0  0
  4 29  1  0  0  0  0
  5 30  1  0  0  0  0
  6  8  1  0  0  0  0
  6  5  2  0  0  0  0
  7  6  1  0  0  0  0
  8  9  1  0  0  0  0
  9 10  1  0  0  0  0
  9 27  1  0  0  0  0
 10 11  1  6  0  0  0
 10 25  1  0  0  0  0
 12  8  2  0  0  0  0
 12 11  1  0  0  0  0
 13 11  1  0  0  0  0
 13 14  1  0  0  0  0
 14 15  1  1  0  0  0
 14 16  1  0  0  0  0
 16 17  2  0  0  0  0
 16 21  1  0  0  0  0
 17 18  1  0  0  0  0
 18 22  1  0  0  0  0
 18 19  2  0  0  0  0
 19 36  1  0  0  0  0
 20 19  1  0  0  0  0
 20 37  1  0  0  0  0
 21 20  2  0  0  0  0
 22 23  2  0  0  0  0
 24 22  2  0  0  0  0
 25 40  1  0  0  0  0
 25 26  1  0  0  0  0
 26 41  1  0  0  0  0
 26 42  1  0  0  0  0
 27 44  1  0  0  0  0
 27 26  1  0  0  0  0
 28  3  1  0  0  0  0
 31  7  1  0  0  0  0
 32 12  1  0  0  0  0
 33 13  1  0  0  0  0
 34 13  1  0  0  0  0
 35 17  1  0  0  0  0
 38 21  1  0  0  0  0
 39 25  1  0  0  0  0
 43 27  1  0  0  0  0
M  END
>  <Pose>
1

>  <Score>
-5.63

$$$$
