
 OpenBabel03212208273D

 60 63  0  0  1  0  0  0  0  0999 V2000
   92.1000  102.7000  -49.9070 Cl  0  0  0  0  0  0  0  0  0  0  0  0
   91.7530  101.8420  -48.4080 C   0  0  0  0  0  0  0  0  0  0  0  0
   91.5070  100.4810  -48.4020 C   0  0  0  0  0  0  0  0  0  0  0  0
   91.2360   99.8240  -47.2200 C   0  0  0  0  0  0  0  0  0  0  0  0
   91.1960  100.4660  -46.0010 C   0  0  0  0  0  0  0  0  0  0  0  0
   91.4480  101.8430  -46.0270 C   0  0  0  0  0  0  0  0  0  0  0  0
   91.7180  102.5020  -47.2040 C   0  0  0  0  0  0  0  0  0  0  0  0
   90.9020   99.7330  -44.7450 C   0  0  2  0  0  0  0  0  0  0  0  0
   92.0090  100.0440  -43.8320 N   0  0  0  0  0  0  0  0  0  0  0  0
   93.1250   99.3360  -44.3530 C   0  0  0  0  0  0  0  0  0  0  0  0
   94.3230   99.6380  -44.2280 O   0  0  0  0  0  0  0  0  0  0  0  0
   92.5810   98.1830  -45.0630 C   0  0  0  0  0  0  0  0  0  0  0  0
   93.1680   97.2560  -45.6970 O   0  0  0  0  0  0  0  0  0  0  0  0
   91.1200   98.2680  -44.9210 C   0  0  0  0  0  0  0  0  0  0  0  0
   90.2640   97.2660  -44.9750 C   0  0  0  0  0  0  0  0  0  0  0  0
   88.9000   97.5510  -44.8600 O   0  0  0  0  0  0  0  0  0  0  0  0
   90.6740   95.8800  -45.1440 C   0  0  0  0  0  0  0  0  0  0  0  0
   91.4800   95.2310  -44.2230 C   0  0  0  0  0  0  0  0  0  0  0  0
   91.8880   93.9250  -44.4010 C   0  0  0  0  0  0  0  0  0  0  0  0
   91.5010   93.2080  -45.5240 C   0  0  0  0  0  0  0  0  0  0  0  0
   90.7010   93.8420  -46.4470 C   0  0  0  0  0  0  0  0  0  0  0  0
   90.2940   95.1650  -46.2560 C   0  0  0  0  0  0  0  0  0  0  0  0
   91.9040   91.8890  -45.7180 O   0  0  0  0  0  0  0  0  0  0  0  0
   91.4020   91.1780  -46.8150 C   0  0  0  0  0  0  0  0  0  0  0  0
   92.7490   93.2720  -43.3900 C   0  0  0  0  0  0  0  0  0  0  0  0
   91.9610  100.9020  -42.6470 C   0  0  0  0  0  0  0  0  0  0  0  0
   90.8050  101.8530  -42.8520 C   0  0  0  0  0  0  0  0  0  0  0  0
   89.7860  101.7090  -41.8480 N   0  0  0  0  0  4  0  0  0  0  0  0
   88.9950  100.5460  -42.0860 C   0  0  0  0  0  0  0  0  0  0  0  0
   87.7120  100.7640  -42.8170 C   0  0  0  0  0  0  0  0  0  0  0  0
   87.1040  101.9680  -42.5860 O   0  0  0  0  0  0  0  0  0  0  0  0
   87.9460  103.0550  -42.7830 C   0  0  0  0  0  0  0  0  0  0  0  0
   89.0500  102.9390  -41.7650 C   0  0  0  0  0  0  0  0  0  0  0  0
   91.5290   99.9440  -49.3360 H   0  0  0  0  0  0  0  0  0  0  0  0
   91.0370   98.7430  -47.1840 H   0  0  0  0  0  0  0  0  0  0  0  0
   91.4140  102.3380  -45.0660 H   0  0  0  0  0  0  0  0  0  0  0  0
   91.9080  103.5590  -47.1970 H   0  0  0  0  0  0  0  0  0  0  0  0
   89.9280   99.9770  -44.3130 H   0  0  0  0  0  0  0  0  0  0  0  0
   91.7720   95.8210  -43.3430 H   0  0  0  0  0  0  0  0  0  0  0  0
   90.3880   93.2840  -47.3420 H   0  0  0  0  0  0  0  0  0  0  0  0
   89.6830   95.6130  -47.0220 H   0  0  0  0  0  0  0  0  0  0  0  0
   90.2840   91.0580  -46.7220 H   0  0  0  0  0  0  0  0  0  0  0  0
   91.7910   90.1370  -46.8300 H   0  0  0  0  0  0  0  0  0  0  0  0
   91.6630   91.6380  -47.7910 H   0  0  0  0  0  0  0  0  0  0  0  0
   93.8360   93.3410  -43.6860 H   0  0  0  0  0  0  0  0  0  0  0  0
   92.5310   92.1920  -43.2880 H   0  0  0  0  0  0  0  0  0  0  0  0
   92.6530   93.7740  -42.3990 H   0  0  0  0  0  0  0  0  0  0  0  0
   92.8790  101.5050  -42.5430 H   0  0  0  0  0  0  0  0  0  0  0  0
   91.8550  100.2760  -41.7640 H   0  0  0  0  0  0  0  0  0  0  0  0
   91.1620  102.9000  -42.8420 H   0  0  0  0  0  0  0  0  0  0  0  0
   90.3080  101.7070  -43.8380 H   0  0  0  0  0  0  0  0  0  0  0  0
   90.3060  101.5560  -40.9370 H   0  0  0  0  0  0  0  0  0  0  0  0
   88.7220  100.0960  -41.0840 H   0  0  0  0  0  0  0  0  0  0  0  0
   89.6300   99.7520  -42.5660 H   0  0  0  0  0  0  0  0  0  0  0  0
   86.9780   99.9540  -42.5860 H   0  0  0  0  0  0  0  0  0  0  0  0
   87.9230  100.6620  -43.9220 H   0  0  0  0  0  0  0  0  0  0  0  0
   87.3440  103.9600  -42.4900 H   0  0  0  0  0  0  0  0  0  0  0  0
   88.3080  103.1390  -43.8170 H   0  0  0  0  0  0  0  0  0  0  0  0
   89.7030  103.8350  -41.9170 H   0  0  0  0  0  0  0  0  0  0  0  0
   88.5810  103.0900  -40.7630 H   0  0  0  0  0  0  0  0  0  0  0  0
  1  2  1  0  0  0  0
  2  3  2  0  0  0  0
  2  7  1  0  0  0  0
  3  4  1  0  0  0  0
  4 35  1  0  0  0  0
  4  5  2  0  0  0  0
  5  8  1  0  0  0  0
  6  5  1  0  0  0  0
  6 36  1  0  0  0  0
  7 37  1  0  0  0  0
  7  6  2  0  0  0  0
  8 38  1  1  0  0  0
  8  9  1  0  0  0  0
  9 26  1  0  0  0  0
 10 11  2  0  0  0  0
 10  9  1  0  0  0  0
 12 14  1  0  0  0  0
 12 10  1  0  0  0  0
 13 12  2  0  0  0  0
 14  8  1  0  0  0  0
 15 14  2  0  0  0  0
 15 16  1  0  0  0  0
 17 15  1  0  0  0  0
 17 18  1  0  0  0  0
 18 39  1  0  0  0  0
 19 18  2  0  0  0  0
 19 25  1  0  0  0  0
 20 19  1  0  0  0  0
 21 22  1  0  0  0  0
 21 20  2  0  0  0  0
 22 17  2  0  0  0  0
 23 20  1  0  0  0  0
 24 42  1  0  0  0  0
 24 23  1  0  0  0  0
 25 46  1  0  0  0  0
 25 47  1  0  0  0  0
 26 48  1  0  0  0  0
 26 49  1  0  0  0  0
 27 50  1  0  0  0  0
 27 26  1  0  0  0  0
 27 28  1  0  0  0  0
 28 33  1  0  0  0  0
 28 52  1  0  0  0  0
 29 28  1  0  0  0  0
 29 53  1  0  0  0  0
 30 31  1  0  0  0  0
 30 55  1  0  0  0  0
 30 29  1  0  0  0  0
 32 31  1  0  0  0  0
 32 57  1  0  0  0  0
 32 33  1  0  0  0  0
 33 60  1  0  0  0  0
 34  3  1  0  0  0  0
 40 21  1  0  0  0  0
 41 22  1  0  0  0  0
 43 24  1  0  0  0  0
 44 24  1  0  0  0  0
 45 25  1  0  0  0  0
 51 27  1  0  0  0  0
 54 29  1  0  0  0  0
 56 30  1  0  0  0  0
 58 32  1  0  0  0  0
 59 33  1  0  0  0  0
M  END
>  <Pose>
1

>  <Score>
-3.75

$$$$
