
 OpenBabel03212208273D

 36 39  0  0  1  0  0  0  0  0999 V2000
   92.6680  102.9270  -40.4520 Cl  0  0  0  0  0  0  0  0  0  0  0  0
   91.7030  101.8300  -41.4280 C   0  0  0  0  0  0  0  0  0  0  0  0
   92.2740  100.8790  -42.2460 C   0  0  0  0  0  0  0  0  0  0  0  0
   91.5220  100.0280  -43.0040 N   0  0  0  0  0  0  0  0  0  0  0  0
   90.1780  100.0770  -42.9880 C   0  0  0  0  0  0  0  0  0  0  0  0
   89.4280   99.2330  -43.7400 N   0  0  0  0  0  0  0  0  0  0  0  0
   89.9960   98.3040  -44.5380 C   0  0  0  0  0  0  0  0  0  0  0  0
   91.3580   98.2260  -44.5790 C   0  0  2  0  0  0  0  0  0  0  0  0
   92.0400   97.2140  -45.4480 C   0  0  0  0  0  0  0  0  0  0  0  0
   91.0760   96.1050  -45.5610 N   0  0  0  0  0  0  0  0  0  0  0  0
   89.8390   96.4710  -46.1880 C   0  0  0  0  0  0  0  0  0  0  0  0
   89.0650   97.4390  -45.3110 C   0  0  0  0  0  0  0  0  0  0  0  0
   91.4570   94.8620  -45.0640 C   0  0  0  0  0  0  0  0  0  0  0  0
   91.5020   93.8680  -45.8690 O   0  0  0  0  0  0  0  0  0  0  0  0
   91.8210   94.5690  -43.6720 C   0  0  0  0  0  0  0  0  0  0  0  0
   91.6520   95.4550  -42.6870 N   0  0  0  0  0  0  0  0  0  0  0  0
   91.9870   95.1800  -41.4220 C   0  0  0  0  0  0  0  0  0  0  0  0
   92.5270   93.9630  -41.0620 C   0  0  0  0  0  0  0  0  0  0  0  0
   92.6890   93.0840  -42.0660 N   0  0  0  0  0  0  0  0  0  0  0  0
   92.3640   93.3340  -43.3350 C   0  0  0  0  0  0  0  0  0  0  0  0
   92.0950   99.1050  -43.7970 C   0  0  0  0  0  0  0  0  0  0  0  0
   93.3400   99.0420  -43.8280 O   0  0  0  0  0  0  0  0  0  0  0  0
   89.5940  101.0300  -42.1680 C   0  0  0  0  0  0  0  0  0  0  0  0
   90.3270  101.9030  -41.3920 C   0  0  0  0  0  0  0  0  0  0  0  0
   93.3440  100.7850  -42.3070 H   0  0  0  0  0  0  0  0  0  0  0  0
   92.9930   96.8840  -45.0140 H   0  0  0  0  0  0  0  0  0  0  0  0
   92.1750   97.7150  -46.4380 H   0  0  0  0  0  0  0  0  0  0  0  0
   89.2310   95.6720  -46.5870 H   0  0  0  0  0  0  0  0  0  0  0  0
   90.1290   97.0970  -47.0920 H   0  0  0  0  0  0  0  0  0  0  0  0
   88.4010   96.8580  -44.6590 H   0  0  0  0  0  0  0  0  0  0  0  0
   88.4220   98.0690  -45.9650 H   0  0  0  0  0  0  0  0  0  0  0  0
   91.8450   95.9090  -40.6280 H   0  0  0  0  0  0  0  0  0  0  0  0
   92.7990   93.7350  -40.0350 H   0  0  0  0  0  0  0  0  0  0  0  0
   92.5130   92.6040  -44.0910 H   0  0  0  0  0  0  0  0  0  0  0  0
   88.5140  101.0840  -42.1440 H   0  0  0  0  0  0  0  0  0  0  0  0
   89.8680  102.6500  -40.7500 H   0  0  0  0  0  0  0  0  0  0  0  0
  2 24  2  0  0  0  0
  2  1  1  0  0  0  0
  3  2  1  0  0  0  0
  4  5  1  0  0  0  0
  4  3  1  0  0  0  0
  5 23  2  0  0  0  0
  6  5  1  0  0  0  0
  7  6  2  0  0  0  0
  8  7  1  1  0  0  0
  8 21  1  0  0  0  0
  9 26  1  0  0  0  0
  9  8  1  0  0  0  0
 10  9  1  0  0  0  0
 10 13  1  0  0  0  0
 11 10  1  0  0  0  0
 11 12  1  0  0  0  0
 12 30  1  0  0  0  0
 12  7  1  0  0  0  0
 13 15  1  0  0  0  0
 14 13  2  0  0  0  0
 15 20  2  0  0  0  0
 15 16  1  0  0  0  0
 16 17  2  0  0  0  0
 17 18  1  0  0  0  0
 17 32  1  0  0  0  0
 18 33  1  0  0  0  0
 19 18  2  0  0  0  0
 20 19  1  0  0  0  0
 21  4  1  0  0  0  0
 22 21  2  0  0  0  0
 23 35  1  0  0  0  0
 23 24  1  0  0  0  0
 24 36  1  0  0  0  0
 25  3  1  0  0  0  0
 27  9  1  0  0  0  0
 28 11  1  0  0  0  0
 29 11  1  0  0  0  0
 31 12  1  0  0  0  0
 34 20  1  0  0  0  0
M  END
>  <Pose>
1

>  <Score>
-5.06

$$$$
