
 OpenBabel03212208273D

 39 42  0  0  1  0  0  0  0  0999 V2000
   94.5040  102.1180  -39.6690 B   0  0  0  0  0  0  0  0  0  0  0  0
   93.6510  101.5190  -41.2730 C   0  0  0  0  0  0  0  0  0  0  0  0
   92.4960  100.7340  -41.2030 C   0  0  0  0  0  0  0  0  0  0  0  0
   91.8680  100.2970  -42.3560 C   0  0  0  0  0  0  0  0  0  0  0  0
   92.4190  100.6630  -43.5670 C   0  0  0  0  0  0  0  0  0  0  0  0
   93.5670  101.4440  -43.6270 C   0  0  0  0  0  0  0  0  0  0  0  0
   94.1890  101.8770  -42.4790 C   0  0  0  0  0  0  0  0  0  0  0  0
   94.2910  101.9280  -45.3440 B   0  0  0  0  0  0  0  0  0  0  0  0
   90.6260   99.4420  -42.3110 C   0  0  1  0  0  0  0  0  0  0  0  0
   89.8230   99.7320  -43.4380 N   0  0  0  0  0  4  0  0  0  0  0  0
   89.3250   98.6140  -44.1850 C   0  0  2  0  0  0  0  0  0  0  0  0
   90.5070   97.7160  -44.5890 C   0  0  0  0  0  0  0  0  0  0  0  0
   91.0280   97.2200  -43.3010 C   0  0  0  0  0  0  0  0  0  0  0  0
   91.5110   95.9770  -42.9230 C   0  0  0  0  0  0  0  0  0  0  0  0
   91.8520   96.0800  -41.5930 C   0  0  0  0  0  0  0  0  0  0  0  0
   91.5960   97.3240  -41.1590 N   0  0  0  0  0  0  0  0  0  0  0  0
   91.0830   98.0370  -42.2150 C   0  0  0  0  0  0  0  0  0  0  0  0
   92.3650   94.9570  -40.9700 C   0  0  0  0  0  0  0  0  0  0  0  0
   92.5110   93.8020  -41.6970 C   0  0  0  0  0  0  0  0  0  0  0  0
   92.1690   93.7020  -43.0260 C   0  0  0  0  0  0  0  0  0  0  0  0
   91.6510   94.8250  -43.6670 C   0  0  0  0  0  0  0  0  0  0  0  0
   88.5980   99.0920  -45.3790 C   0  0  0  0  0  0  0  0  0  0  0  0
   87.5270   98.5210  -45.7100 O   0  0  0  0  0  0  0  0  0  0  0  0
   89.1060  100.1550  -46.1070 O   0  0  0  0  0  0  0  0  0  0  0  0
   92.0430  100.4350  -39.9450 O   0  0  0  0  0  0  0  0  0  0  0  0
   91.9700  100.3470  -44.5100 H   0  0  0  0  0  0  0  0  0  0  0  0
   95.0880  102.4910  -42.5160 H   0  0  0  0  0  0  0  0  0  0  0  0
   90.1260   99.7210  -41.3400 H   0  0  0  0  0  0  0  0  0  0  0  0
   88.9690  100.2770  -43.0930 H   0  0  0  0  0  0  0  0  0  0  0  0
   90.2730  100.3770  -44.1350 H   0  0  0  0  0  0  0  0  0  0  0  0
   88.6580   98.0230  -43.5170 H   0  0  0  0  0  0  0  0  0  0  0  0
   90.1350   96.9030  -45.2440 H   0  0  0  0  0  0  0  0  0  0  0  0
   91.2030   98.3920  -45.1210 H   0  0  0  0  0  0  0  0  0  0  0  0
   91.7410   97.7350  -40.2010 H   0  0  0  0  0  0  0  0  0  0  0  0
   92.6380   95.0330  -39.9190 H   0  0  0  0  0  0  0  0  0  0  0  0
   92.9190   92.9170  -41.1940 H   0  0  0  0  0  0  0  0  0  0  0  0
   92.2870   92.7730  -43.6050 H   0  0  0  0  0  0  0  0  0  0  0  0
   91.3620   94.8140  -44.7080 H   0  0  0  0  0  0  0  0  0  0  0  0
   91.4910   99.6650  -39.6840 H   0  0  0  0  0  0  0  0  0  0  0  0
  2  3  1  0  0  0  0
  2  1  1  0  0  0  0
  3 25  1  0  0  0  0
  4  9  1  0  0  0  0
  4  3  2  0  0  0  0
  5  4  1  0  0  0  0
  6  5  2  0  0  0  0
  6  7  1  0  0  0  0
  7  2  2  0  0  0  0
  8  6  1  0  0  0  0
  9 17  1  0  0  0  0
  9 28  1  1  0  0  0
 10 29  1  0  0  0  0
 10  9  1  0  0  0  0
 11 31  1  1  0  0  0
 11 10  1  0  0  0  0
 12 11  1  0  0  0  0
 12 13  1  0  0  0  0
 13 14  1  0  0  0  0
 13 17  2  0  0  0  0
 14 15  1  0  0  0  0
 15 16  1  0  0  0  0
 15 18  2  0  0  0  0
 16 34  1  0  0  0  0
 17 16  1  0  0  0  0
 18 35  1  0  0  0  0
 19 36  1  0  0  0  0
 19 18  1  0  0  0  0
 20 19  2  0  0  0  0
 21 20  1  0  0  0  0
 21 14  2  0  0  0  0
 22 11  1  0  0  0  0
 23 22  1  0  0  0  0
 24 22  2  0  0  0  0
 25 39  1  0  0  0  0
 26  5  1  0  0  0  0
 27  7  1  0  0  0  0
 30 10  1  0  0  0  0
 32 12  1  0  0  0  0
 33 12  1  0  0  0  0
 37 20  1  0  0  0  0
 38 21  1  0  0  0  0
M  END
>  <Pose>
1

>  <Score>
-4.68

$$$$
