
 OpenBabel03212208273D

 46 49  0  0  1  0  0  0  0  0999 V2000
   88.8010   85.7370  -50.9790 B   0  0  0  0  0  0  0  0  0  0  0  0
   89.3870   87.3100  -50.0320 C   0  0  0  0  0  0  0  0  0  0  0  0
   90.6900   87.4420  -49.6160 C   0  0  0  0  0  0  0  0  0  0  0  0
   91.1280   88.5230  -48.9560 N   0  0  0  0  0  0  0  0  0  0  0  0
   90.2880   89.5500  -48.6670 C   0  0  0  0  0  0  0  0  0  0  0  0
   90.6750   90.6480  -48.0130 N   0  0  0  0  0  0  0  0  0  0  0  0
   91.9430   90.8140  -47.5890 C   0  0  0  0  0  0  0  0  0  0  0  0
   92.8260   89.7910  -47.8640 C   0  0  0  0  0  0  0  0  0  0  0  0
   92.4140   88.6610  -48.5410 C   0  0  0  0  0  0  0  0  0  0  0  0
   93.1890   87.7020  -48.8140 O   0  0  0  0  0  0  0  0  0  0  0  0
   92.4020   92.0210  -46.8610 C   0  0  0  0  0  0  0  0  0  0  0  0
   91.3650   92.6740  -46.1840 O   0  0  0  0  0  0  0  0  0  0  0  0
   91.4710   93.2810  -44.9530 C   0  0  0  0  0  0  0  0  0  0  0  0
   90.7370   92.8090  -44.0400 O   0  0  0  0  0  0  0  0  0  0  0  0
   92.3880   94.4240  -44.6950 C   0  0  0  0  0  0  0  0  0  0  0  0
   91.6670   95.6980  -44.6830 N   0  0  0  0  0  0  0  0  0  0  0  0
   91.4390   96.5520  -43.5650 C   0  0  0  0  0  0  0  0  0  0  0  0
   91.9690   96.4490  -42.4310 O   0  0  0  0  0  0  0  0  0  0  0  0
   90.4630   97.5870  -43.9770 C   0  0  2  0  0  0  0  0  0  0  0  0
   90.8070   97.7200  -45.4420 C   0  0  1  0  0  0  0  0  0  0  0  0
   92.0800   98.5100  -45.6790 C   0  0  0  0  0  0  0  0  0  0  0  0
   92.6240   99.1420  -44.4250 C   0  0  0  0  0  0  0  0  0  0  0  0
   91.5380   99.8330  -43.6510 C   0  0  0  0  0  0  0  0  0  0  0  0
   90.5250   98.8400  -43.2040 C   0  0  0  0  0  0  0  0  0  0  0  0
   91.0510   96.3050  -45.8050 C   0  0  0  0  0  0  0  0  0  0  0  0
   90.7730   95.7260  -46.9010 O   0  0  0  0  0  0  0  0  0  0  0  0
   88.9590   89.4530  -49.0730 C   0  0  0  0  0  0  0  0  0  0  0  0
   88.5200   88.3350  -49.7510 C   0  0  0  0  0  0  0  0  0  0  0  0
   91.3740   86.6400  -49.8340 H   0  0  0  0  0  0  0  0  0  0  0  0
   93.8750   89.8330  -47.5630 H   0  0  0  0  0  0  0  0  0  0  0  0
   93.1510   91.6850  -46.1170 H   0  0  0  0  0  0  0  0  0  0  0  0
   92.8440   92.7060  -47.6290 H   0  0  0  0  0  0  0  0  0  0  0  0
   92.9220   94.3350  -43.7370 H   0  0  0  0  0  0  0  0  0  0  0  0
   93.1440   94.4290  -45.5010 H   0  0  0  0  0  0  0  0  0  0  0  0
   89.4550   97.1360  -43.9270 H   0  0  0  0  0  0  0  0  0  0  0  0
   89.9580   98.1530  -46.0200 H   0  0  0  0  0  0  0  0  0  0  0  0
   91.9080   99.3290  -46.4280 H   0  0  0  0  0  0  0  0  0  0  0  0
   92.8800   97.8920  -46.1150 H   0  0  0  0  0  0  0  0  0  0  0  0
   93.3310   99.9560  -44.7510 H   0  0  0  0  0  0  0  0  0  0  0  0
   93.2270   98.4650  -43.8070 H   0  0  0  0  0  0  0  0  0  0  0  0
   91.1160  100.6250  -44.3140 H   0  0  0  0  0  0  0  0  0  0  0  0
   92.0270  100.3720  -42.8020 H   0  0  0  0  0  0  0  0  0  0  0  0
   89.5140   99.3390  -43.2700 H   0  0  0  0  0  0  0  0  0  0  0  0
   90.6380   98.5890  -42.1250 H   0  0  0  0  0  0  0  0  0  0  0  0
   88.2900   90.2590  -48.8490 H   0  0  0  0  0  0  0  0  0  0  0  0
   87.4960   88.2470  -50.0720 H   0  0  0  0  0  0  0  0  0  0  0  0
  1  2  1  0  0  0  0
  2 28  2  0  0  0  0
  2  3  1  0  0  0  0
  3  4  1  0  0  0  0
  4  5  1  0  0  0  0
  4  9  1  0  0  0  0
  5  6  1  0  0  0  0
  6  7  2  0  0  0  0
  7 11  1  0  0  0  0
  8  7  1  0  0  0  0
  8 30  1  0  0  0  0
  9  8  1  0  0  0  0
 10  9  2  0  0  0  0
 11 12  1  0  0  0  0
 11 31  1  0  0  0  0
 12 13  1  0  0  0  0
 13 15  1  0  0  0  0
 13 14  2  0  0  0  0
 15 16  1  0  0  0  0
 15 33  1  0  0  0  0
 16 17  1  0  0  0  0
 17 18  2  0  0  0  0
 19 35  1  1  0  0  0
 19 17  1  0  0  0  0
 19 24  1  0  0  0  0
 20 36  1  6  0  0  0
 20 19  1  0  0  0  0
 21 20  1  0  0  0  0
 21 22  1  0  0  0  0
 22 40  1  0  0  0  0
 22 23  1  0  0  0  0
 23 24  1  0  0  0  0
 23 42  1  0  0  0  0
 24 44  1  0  0  0  0
 25 20  1  0  0  0  0
 25 16  1  0  0  0  0
 26 25  2  0  0  0  0
 27 45  1  0  0  0  0
 27  5  2  0  0  0  0
 28 27  1  0  0  0  0
 29  3  1  0  0  0  0
 32 11  1  0  0  0  0
 34 15  1  0  0  0  0
 37 21  1  0  0  0  0
 38 21  1  0  0  0  0
 39 22  1  0  0  0  0
 41 23  1  0  0  0  0
 43 24  1  0  0  0  0
 46 28  1  0  0  0  0
M  END
>  <Pose>
1

>  <Score>
-5.29

$$$$
