
 OpenBabel03212208273D

 43 46  0  0  0  0  0  0  0  0999 V2000
   91.8970   94.2050  -43.6010 Cl  0  0  0  0  0  0  0  0  0  0  0  0
   91.4820   93.9490  -45.2810 C   0  0  0  0  0  0  0  0  0  0  0  0
   90.9810   94.9760  -46.0300 C   0  0  0  0  0  0  0  0  0  0  0  0
   90.6720   94.6520  -47.3540 C   0  0  0  0  0  0  0  0  0  0  0  0
   90.8660   93.4090  -47.8210 N   0  0  0  0  0  0  0  0  0  0  0  0
   91.3460   92.4080  -47.1180 N   0  0  0  0  0  0  0  0  0  0  0  0
   91.6570   92.6730  -45.8420 C   0  0  0  0  0  0  0  0  0  0  0  0
   92.1230   91.7810  -45.0880 O   0  0  0  0  0  0  0  0  0  0  0  0
   91.5210   91.1170  -47.6930 C   0  0  0  0  0  0  0  0  0  0  0  0
   92.7410   90.4700  -47.7160 C   0  0  0  0  0  0  0  0  0  0  0  0
   92.8990   89.2200  -48.2740 C   0  0  0  0  0  0  0  0  0  0  0  0
   91.8250   88.5620  -48.8390 C   0  0  0  0  0  0  0  0  0  0  0  0
   90.6040   89.2020  -48.8190 C   0  0  0  0  0  0  0  0  0  0  0  0
   90.4500   90.4560  -48.2580 C   0  0  0  0  0  0  0  0  0  0  0  0
   90.8010   96.2890  -45.5350 N   0  0  0  0  0  0  0  0  0  0  0  0
   89.6290   97.0930  -45.8410 C   0  0  0  0  0  0  0  0  0  0  0  0
   89.9920   98.3310  -46.6200 C   0  0  0  0  0  0  0  0  0  0  0  0
   91.2110   98.8430  -46.0440 N   0  0  0  0  0  0  0  0  0  0  0  0
   91.5200   98.4800  -44.6850 C   0  0  0  0  0  0  0  0  0  0  0  0
   91.7890   96.9600  -44.6960 C   0  0  0  0  0  0  0  0  0  0  0  0
   92.0800   99.6770  -46.7880 C   0  0  0  0  0  0  0  0  0  0  0  0
   92.9510  100.6070  -46.3010 N   0  0  0  0  0  0  0  0  0  0  0  0
   93.5840  101.1780  -47.3070 N   0  0  0  0  0  0  0  0  0  0  0  0
   93.1370  100.6320  -48.4300 C   0  0  0  0  0  0  0  0  0  0  0  0
   92.2410   99.7410  -48.0960 O   0  0  0  0  0  0  0  0  0  0  0  0
   93.5340  100.9300  -49.8450 C   0  0  0  0  0  0  0  0  0  0  0  0
   90.2820   95.4240  -47.9810 H   0  0  0  0  0  0  0  0  0  0  0  0
   93.5910   90.9860  -47.2710 H   0  0  0  0  0  0  0  0  0  0  0  0
   93.8800   88.7350  -48.2770 H   0  0  0  0  0  0  0  0  0  0  0  0
   91.9550   87.5800  -49.2760 H   0  0  0  0  0  0  0  0  0  0  0  0
   89.7640   88.7010  -49.2540 H   0  0  0  0  0  0  0  0  0  0  0  0
   89.4870   90.9620  -48.2410 H   0  0  0  0  0  0  0  0  0  0  0  0
   89.2260   97.4610  -44.8540 H   0  0  0  0  0  0  0  0  0  0  0  0
   88.8130   96.5870  -46.3260 H   0  0  0  0  0  0  0  0  0  0  0  0
   90.2010   98.0980  -47.6990 H   0  0  0  0  0  0  0  0  0  0  0  0
   89.1770   99.0740  -46.6300 H   0  0  0  0  0  0  0  0  0  0  0  0
   90.6420   98.6890  -44.0500 H   0  0  0  0  0  0  0  0  0  0  0  0
   92.4050   99.0160  -44.3040 H   0  0  0  0  0  0  0  0  0  0  0  0
   91.7400   96.6700  -43.6370 H   0  0  0  0  0  0  0  0  0  0  0  0
   92.8110   96.8990  -45.1490 H   0  0  0  0  0  0  0  0  0  0  0  0
   94.6310  101.0560  -49.9220 H   0  0  0  0  0  0  0  0  0  0  0  0
   93.2730  100.0820  -50.5100 H   0  0  0  0  0  0  0  0  0  0  0  0
   92.9570  101.8010  -50.1700 H   0  0  0  0  0  0  0  0  0  0  0  0
  2  1  1  0  0  0  0
  3 15  1  0  0  0  0
  3  2  2  0  0  0  0
  4  3  1  0  0  0  0
  5  4  2  0  0  0  0
  5  6  1  0  0  0  0
  6  7  1  0  0  0  0
  7  2  1  0  0  0  0
  7  8  2  0  0  0  0
  9  6  1  0  0  0  0
 10  9  1  0  0  0  0
 10 28  1  0  0  0  0
 11 10  2  0  0  0  0
 12 13  2  0  0  0  0
 12 11  1  0  0  0  0
 13 14  1  0  0  0  0
 14 32  1  0  0  0  0
 14  9  2  0  0  0  0
 15 20  1  0  0  0  0
 16 15  1  0  0  0  0
 16 33  1  0  0  0  0
 17 18  1  0  0  0  0
 17 16  1  0  0  0  0
 18 19  1  0  0  0  0
 19 38  1  0  0  0  0
 19 37  1  0  0  0  0
 20 19  1  0  0  0  0
 20 39  1  0  0  0  0
 21 22  2  0  0  0  0
 21 18  1  0  0  0  0
 23 22  1  0  0  0  0
 24 25  1  0  0  0  0
 24 23  2  0  0  0  0
 25 21  1  0  0  0  0
 26 24  1  0  0  0  0
 27  4  1  0  0  0  0
 29 11  1  0  0  0  0
 30 12  1  0  0  0  0
 31 13  1  0  0  0  0
 34 16  1  0  0  0  0
 35 17  1  0  0  0  0
 36 17  1  0  0  0  0
 40 20  1  0  0  0  0
 41 26  1  0  0  0  0
 42 26  1  0  0  0  0
 43 26  1  0  0  0  0
M  END
>  <Pose>
1

>  <Score>
-4.70

$$$$
