
 OpenBabel03212208273D

 41 44  0  0  0  0  0  0  0  0999 V2000
   83.7100  102.8780  -41.3210 Cl  0  0  0  0  0  0  0  0  0  0  0  0
   85.2120  102.2710  -41.9920 C   0  0  0  0  0  0  0  0  0  0  0  0
   85.3470  100.9440  -42.3320 C   0  0  0  0  0  0  0  0  0  0  0  0
   86.5280  100.5070  -42.8510 N   0  0  0  0  0  0  0  0  0  0  0  0
   87.5330  101.3730  -43.0200 C   0  0  0  0  0  0  0  0  0  0  0  0
   88.5840  100.7180  -43.5400 N   0  0  0  0  0  0  0  0  0  0  0  0
   88.2630   99.4350  -43.7080 C   0  0  0  0  0  0  0  0  0  0  0  0
   86.9380   99.3010  -43.2630 C   0  0  0  0  0  0  0  0  0  0  0  0
   89.0780   98.3560  -44.2370 C   0  0  0  0  0  0  0  0  0  0  0  0
   88.5500   97.6220  -45.1520 O   0  0  0  0  0  0  0  0  0  0  0  0
   90.3670   98.0350  -43.8560 N   0  0  0  0  0  0  0  0  0  0  0  0
   90.9990   98.5280  -42.6560 C   0  0  0  0  0  0  0  0  0  0  0  0
   91.2010   97.4120  -41.6530 C   0  0  0  0  0  0  0  0  0  0  0  0
   91.5630   96.1480  -42.3800 C   0  0  0  0  0  0  0  0  0  0  0  0
   91.5770   96.0070  -43.7410 C   0  0  0  0  0  0  0  0  0  0  0  0
   91.9550   94.7230  -43.9680 N   0  0  0  0  0  0  0  0  0  0  0  0
   92.1670   94.0900  -42.8370 N   0  0  0  0  0  0  0  0  0  0  0  0
   91.9390   94.9210  -41.8120 C   0  0  0  0  0  0  0  0  0  0  0  0
   92.0360   94.6820  -40.5660 O   0  0  0  0  0  0  0  0  0  0  0  0
   92.5860   92.6930  -42.6520 C   0  0  0  0  0  0  0  0  0  0  0  0
   93.9520   92.6240  -42.0080 C   0  0  0  0  0  0  0  0  0  0  0  0
   94.1960   91.3880  -41.4220 O   0  0  0  0  0  0  0  0  0  0  0  0
   91.2250   97.1300  -44.6580 C   0  0  0  0  0  0  0  0  0  0  0  0
   87.4240  102.7330  -42.6820 C   0  0  0  0  0  0  0  0  0  0  0  0
   86.2460  103.1750  -42.1640 C   0  0  0  0  0  0  0  0  0  0  0  0
   84.5420  100.2390  -42.2000 H   0  0  0  0  0  0  0  0  0  0  0  0
   86.3660   98.3720  -43.2620 H   0  0  0  0  0  0  0  0  0  0  0  0
   90.5420   99.3800  -42.1810 H   0  0  0  0  0  0  0  0  0  0  0  0
   92.0220   98.8880  -43.0090 H   0  0  0  0  0  0  0  0  0  0  0  0
   90.3350   97.2450  -41.0140 H   0  0  0  0  0  0  0  0  0  0  0  0
   92.0460   97.7370  -40.9860 H   0  0  0  0  0  0  0  0  0  0  0  0
   92.0510   94.3370  -44.9390 H   0  0  0  0  0  0  0  0  0  0  0  0
   92.6890   92.2650  -43.6700 H   0  0  0  0  0  0  0  0  0  0  0  0
   91.8520   92.1060  -42.1040 H   0  0  0  0  0  0  0  0  0  0  0  0
   94.6910   92.7430  -42.8260 H   0  0  0  0  0  0  0  0  0  0  0  0
   94.0770   93.4060  -41.2510 H   0  0  0  0  0  0  0  0  0  0  0  0
   93.4350   91.0900  -40.8400 H   0  0  0  0  0  0  0  0  0  0  0  0
   92.1120   97.6870  -45.0030 H   0  0  0  0  0  0  0  0  0  0  0  0
   90.5880   96.7580  -45.4850 H   0  0  0  0  0  0  0  0  0  0  0  0
   88.2750  103.3990  -42.8400 H   0  0  0  0  0  0  0  0  0  0  0  0
   86.1440  104.2290  -41.8940 H   0  0  0  0  0  0  0  0  0  0  0  0
  2  1  1  0  0  0  0
  3 26  1  0  0  0  0
  3  2  2  0  0  0  0
  4  3  1  0  0  0  0
  5  4  1  0  0  0  0
  5 24  1  0  0  0  0
  6  5  2  0  0  0  0
  7  6  1  0  0  0  0
  7  8  2  0  0  0  0
  8 27  1  0  0  0  0
  8  4  1  0  0  0  0
  9 11  1  0  0  0  0
  9  7  1  0  0  0  0
 10  9  2  0  0  0  0
 11 12  1  0  0  0  0
 12 28  1  0  0  0  0
 12 13  1  0  0  0  0
 13 30  1  0  0  0  0
 13 31  1  0  0  0  0
 14 18  1  0  0  0  0
 14 13  1  0  0  0  0
 15 14  2  0  0  0  0
 16 15  1  0  0  0  0
 16 17  1  0  0  0  0
 17 20  1  0  0  0  0
 17 18  1  0  0  0  0
 18 19  2  0  0  0  0
 20 34  1  0  0  0  0
 20 21  1  0  0  0  0
 21 22  1  0  0  0  0
 21 36  1  0  0  0  0
 22 37  1  0  0  0  0
 23 11  1  0  0  0  0
 23 15  1  0  0  0  0
 24 25  2  0  0  0  0
 25  2  1  0  0  0  0
 25 41  1  0  0  0  0
 29 12  1  0  0  0  0
 32 16  1  0  0  0  0
 33 20  1  0  0  0  0
 35 21  1  0  0  0  0
 38 23  1  0  0  0  0
 39 23  1  0  0  0  0
 40 24  1  0  0  0  0
M  END
>  <Pose>
1

>  <Score>
-4.75

$$$$
