
 OpenBabel03212208273D

 53 55  0  0  0  0  0  0  0  0999 V2000
   94.0040  102.0700  -40.8370 Cl  0  0  0  0  0  0  0  0  0  0  0  0
   93.2670  101.1360  -42.1380 C   0  0  0  0  0  0  0  0  0  0  0  0
   92.3790  100.1290  -41.7820 C   0  0  0  0  0  0  0  0  0  0  0  0
   91.7970   99.3900  -42.7730 C   0  0  0  0  0  0  0  0  0  0  0  0
   92.1170   99.6740  -44.1140 C   0  0  0  0  0  0  0  0  0  0  0  0
   92.9930  100.6710  -44.4350 C   0  0  0  0  0  0  0  0  0  0  0  0
   93.5920  101.4290  -43.4440 C   0  0  0  0  0  0  0  0  0  0  0  0
   90.8040   98.3270  -42.4830 C   0  0  0  0  0  0  0  0  0  0  0  0
   91.0570   97.0550  -43.0810 N   0  0  0  0  0  0  0  0  0  0  0  0
   91.6590   96.0440  -42.4210 C   0  0  0  0  0  0  0  0  0  0  0  0
   91.7870   95.0040  -43.3110 C   0  0  0  0  0  0  0  0  0  0  0  0
   91.2720   95.4040  -44.4570 N   0  0  0  0  0  0  0  0  0  0  0  0
   90.8150   96.6750  -44.3380 C   0  0  0  0  0  0  0  0  0  0  0  0
   90.2560   97.4390  -45.4180 N   0  0  0  0  0  0  0  0  0  0  0  0
   89.3950   96.7300  -46.3870 C   0  0  0  0  0  0  0  0  0  0  0  0
   88.0440   97.3610  -46.4950 C   0  0  0  0  0  0  0  0  0  0  0  0
   88.0780   98.7460  -46.0870 N   0  0  0  0  0  0  0  0  0  0  0  0
   89.2950   99.4860  -46.3480 C   0  0  0  0  0  0  0  0  0  0  0  0
   90.4560   98.8270  -45.6250 C   0  0  0  0  0  0  0  0  0  0  0  0
   86.9530   99.3510  -45.4650 C   0  0  0  0  0  0  0  0  0  0  0  0
   85.7940   99.0670  -45.8380 O   0  0  0  0  0  0  0  0  0  0  0  0
   87.1170  100.3290  -44.3620 C   0  0  0  0  0  0  0  0  0  0  0  0
   87.4290   99.5340  -43.0970 C   0  0  0  0  0  0  0  0  0  0  0  0
   92.3740   93.8570  -42.8700 N   0  0  0  0  0  0  0  0  0  0  0  0
   92.8180   93.7310  -41.6140 C   0  0  0  0  0  0  0  0  0  0  0  0
   93.3570   92.6470  -41.2530 O   0  0  0  0  0  0  0  0  0  0  0  0
   92.7140   94.7190  -40.7150 N   0  0  0  0  0  0  0  0  0  0  0  0
   92.1340   95.8720  -41.1250 C   0  0  0  0  0  0  0  0  0  0  0  0
   92.0340   96.7980  -40.2900 O   0  0  0  0  0  0  0  0  0  0  0  0
   92.5250   92.7420  -43.8020 C   0  0  0  0  0  0  0  0  0  0  0  0
   92.1900   99.9510  -40.7220 H   0  0  0  0  0  0  0  0  0  0  0  0
   91.6450   99.0760  -44.9050 H   0  0  0  0  0  0  0  0  0  0  0  0
   93.2640  100.9190  -45.4520 H   0  0  0  0  0  0  0  0  0  0  0  0
   94.2900  102.2270  -43.6750 H   0  0  0  0  0  0  0  0  0  0  0  0
   89.7890   98.6970  -42.8210 H   0  0  0  0  0  0  0  0  0  0  0  0
   90.7100   98.2860  -41.3790 H   0  0  0  0  0  0  0  0  0  0  0  0
   89.9430   96.7360  -47.3490 H   0  0  0  0  0  0  0  0  0  0  0  0
   89.2380   95.6860  -46.0210 H   0  0  0  0  0  0  0  0  0  0  0  0
   87.7370   97.3490  -47.5780 H   0  0  0  0  0  0  0  0  0  0  0  0
   87.2710   96.8220  -45.9060 H   0  0  0  0  0  0  0  0  0  0  0  0
   89.4900   99.4020  -47.4590 H   0  0  0  0  0  0  0  0  0  0  0  0
   89.2330  100.5560  -46.1320 H   0  0  0  0  0  0  0  0  0  0  0  0
   90.6020   99.3310  -44.6540 H   0  0  0  0  0  0  0  0  0  0  0  0
   91.3940   99.0300  -46.2350 H   0  0  0  0  0  0  0  0  0  0  0  0
   87.9870  101.0100  -44.5700 H   0  0  0  0  0  0  0  0  0  0  0  0
   86.2510  100.9910  -44.2490 H   0  0  0  0  0  0  0  0  0  0  0  0
   88.5150   99.4980  -42.8740 H   0  0  0  0  0  0  0  0  0  0  0  0
   87.0820   98.4820  -43.1720 H   0  0  0  0  0  0  0  0  0  0  0  0
   86.8810   99.9810  -42.2330 H   0  0  0  0  0  0  0  0  0  0  0  0
   93.0740   94.5790  -39.7450 H   0  0  0  0  0  0  0  0  0  0  0  0
   92.4150   91.7770  -43.2570 H   0  0  0  0  0  0  0  0  0  0  0  0
   93.5740   92.8180  -44.2080 H   0  0  0  0  0  0  0  0  0  0  0  0
   91.8340   92.8400  -44.6490 H   0  0  0  0  0  0  0  0  0  0  0  0
  2  3  1  0  0  0  0
  2  1  1  0  0  0  0
  3 31  1  0  0  0  0
  4  8  1  0  0  0  0
  4  3  2  0  0  0  0
  5  4  1  0  0  0  0
  6  5  2  0  0  0  0
  6  7  1  0  0  0  0
  7  2  2  0  0  0  0
  8 36  1  0  0  0  0
  9  8  1  0  0  0  0
  9 10  1  0  0  0  0
 10 28  1  0  0  0  0
 11 24  1  0  0  0  0
 11 10  2  0  0  0  0
 12 13  2  0  0  0  0
 12 11  1  0  0  0  0
 13  9  1  0  0  0  0
 14 13  1  0  0  0  0
 15 38  1  0  0  0  0
 15 14  1  0  0  0  0
 16 15  1  0  0  0  0
 16 17  1  0  0  0  0
 16 40  1  0  0  0  0
 17 20  1  0  0  0  0
 18 42  1  0  0  0  0
 18 17  1  0  0  0  0
 19 14  1  0  0  0  0
 19 43  1  0  0  0  0
 20 22  1  0  0  0  0
 21 20  2  0  0  0  0
 22 46  1  0  0  0  0
 22 23  1  0  0  0  0
 23 47  1  0  0  0  0
 23 49  1  0  0  0  0
 24 25  1  0  0  0  0
 25 26  2  0  0  0  0
 25 27  1  0  0  0  0
 27 50  1  0  0  0  0
 28 27  1  0  0  0  0
 28 29  2  0  0  0  0
 30 51  1  0  0  0  0
 30 24  1  0  0  0  0
 32  5  1  0  0  0  0
 33  6  1  0  0  0  0
 34  7  1  0  0  0  0
 35  8  1  0  0  0  0
 37 15  1  0  0  0  0
 39 16  1  0  0  0  0
 41 18  1  0  0  0  0
 44 19  1  0  0  0  0
 45 22  1  0  0  0  0
 48 23  1  0  0  0  0
 52 30  1  0  0  0  0
 53 30  1  0  0  0  0
M  END
>  <Pose>
1

>  <Score>
-5.91

$$$$
