
 OpenBabel03212208273D

 53 56  0  0  1  0  0  0  0  0999 V2000
   91.7900   92.5310  -45.2600 Cl  0  0  0  0  0  0  0  0  0  0  0  0
   91.3490   94.2120  -45.3650 C   0  0  0  0  0  0  0  0  0  0  0  0
   90.4890   94.6670  -46.3210 C   0  0  0  0  0  0  0  0  0  0  0  0
   90.1720   96.0160  -46.3620 C   0  0  0  0  0  0  0  0  0  0  0  0
   90.6770   96.9280  -45.4910 C   0  0  0  0  0  0  0  0  0  0  0  0
   91.5550   96.4590  -44.5140 C   0  0  0  0  0  0  0  0  0  0  0  0
   91.8860   95.1250  -44.4540 C   0  0  0  0  0  0  0  0  0  0  0  0
   90.3460   98.3460  -45.5430 C   0  0  1  0  0  0  0  0  0  0  0  0
   91.2620   99.1030  -44.6700 N   0  0  0  0  0  0  0  0  0  0  0  0
   92.4220   99.4320  -45.4220 C   0  0  0  0  0  0  0  0  0  0  0  0
   93.5360   99.7320  -44.9870 O   0  0  0  0  0  0  0  0  0  0  0  0
   92.0540   99.3530  -46.8490 C   0  0  0  0  0  0  0  0  0  0  0  0
   92.7970   99.5660  -47.8610 O   0  0  0  0  0  0  0  0  0  0  0  0
   90.6520   98.9710  -46.8710 C   0  0  0  0  0  0  0  0  0  0  0  0
   89.8600   99.1380  -47.9010 C   0  0  0  0  0  0  0  0  0  0  0  0
   88.5490   98.6840  -47.7970 O   0  0  0  0  0  0  0  0  0  0  0  0
   90.2220   99.7680  -49.1670 C   0  0  0  0  0  0  0  0  0  0  0  0
   89.7970   99.1160  -50.3190 C   0  0  0  0  0  0  0  0  0  0  0  0
   90.0780   99.6620  -51.5400 C   0  0  0  0  0  0  0  0  0  0  0  0
   90.7780  100.8480  -51.6520 C   0  0  0  0  0  0  0  0  0  0  0  0
   91.1970  101.4890  -50.5060 C   0  0  0  0  0  0  0  0  0  0  0  0
   90.9070  100.9290  -49.2790 C   0  0  0  0  0  0  0  0  0  0  0  0
   91.1120  101.5010  -53.2220 Cl  0  0  0  0  0  0  0  0  0  0  0  0
   90.9190   99.4070  -43.3040 C   0  0  0  0  0  0  0  0  0  0  0  0
   91.8550   98.9010  -42.2730 C   0  0  0  0  0  0  0  0  0  0  0  0
   92.7640   99.8050  -41.6720 N   0  0  0  0  0  4  0  0  0  0  0  0
   92.4340  100.1520  -40.3060 C   0  0  0  0  0  0  0  0  0  0  0  0
   92.2980  101.6380  -40.0740 C   0  0  0  0  0  0  0  0  0  0  0  0
   93.3270  102.3950  -40.5710 O   0  0  0  0  0  0  0  0  0  0  0  0
   93.6800  102.0690  -41.8670 C   0  0  0  0  0  0  0  0  0  0  0  0
   92.6960  101.0800  -42.4160 C   0  0  0  0  0  0  0  0  0  0  0  0
   90.0770   93.9560  -47.0250 H   0  0  0  0  0  0  0  0  0  0  0  0
   89.4890   96.3210  -47.1290 H   0  0  0  0  0  0  0  0  0  0  0  0
   91.9650   97.1720  -43.8140 H   0  0  0  0  0  0  0  0  0  0  0  0
   92.5590   94.7250  -43.7160 H   0  0  0  0  0  0  0  0  0  0  0  0
   89.2970   98.5630  -45.2400 H   0  0  0  0  0  0  0  0  0  0  0  0
   89.2380   98.1690  -50.2450 H   0  0  0  0  0  0  0  0  0  0  0  0
   89.7260   99.1180  -52.4170 H   0  0  0  0  0  0  0  0  0  0  0  0
   91.7430  102.4160  -50.6250 H   0  0  0  0  0  0  0  0  0  0  0  0
   91.2320  101.4640  -48.3800 H   0  0  0  0  0  0  0  0  0  0  0  0
   89.9160   98.9160  -43.1030 H   0  0  0  0  0  0  0  0  0  0  0  0
   90.6800  100.4930  -43.1770 H   0  0  0  0  0  0  0  0  0  0  0  0
   91.2760   98.3630  -41.4570 H   0  0  0  0  0  0  0  0  0  0  0  0
   92.4930   98.0480  -42.6810 H   0  0  0  0  0  0  0  0  0  0  0  0
   93.7530   99.5200  -41.7630 H   0  0  0  0  0  0  0  0  0  0  0  0
   93.2140   99.7300  -39.6440 H   0  0  0  0  0  0  0  0  0  0  0  0
   91.4650   99.7130  -39.9860 H   0  0  0  0  0  0  0  0  0  0  0  0
   92.2740  101.7620  -38.9580 H   0  0  0  0  0  0  0  0  0  0  0  0
   91.2960  101.9840  -40.4170 H   0  0  0  0  0  0  0  0  0  0  0  0
   93.6970  102.9410  -42.5370 H   0  0  0  0  0  0  0  0  0  0  0  0
   94.6820  101.5900  -41.8830 H   0  0  0  0  0  0  0  0  0  0  0  0
   91.6550  101.4350  -42.3430 H   0  0  0  0  0  0  0  0  0  0  0  0
   92.9030  100.9000  -43.4970 H   0  0  0  0  0  0  0  0  0  0  0  0
  2  1  1  0  0  0  0
  2  7  1  0  0  0  0
  3  2  2  0  0  0  0
  4  3  1  0  0  0  0
  4  5  2  0  0  0  0
  5  6  1  0  0  0  0
  6  7  2  0  0  0  0
  6 34  1  0  0  0  0
  7 35  1  0  0  0  0
  8  5  1  0  0  0  0
  8 36  1  1  0  0  0
  8  9  1  0  0  0  0
  9 24  1  0  0  0  0
 10 11  2  0  0  0  0
 10  9  1  0  0  0  0
 12 10  1  0  0  0  0
 13 12  2  0  0  0  0
 14 12  1  0  0  0  0
 14  8  1  0  0  0  0
 15 16  1  0  0  0  0
 15 14  2  0  0  0  0
 17 15  1  0  0  0  0
 18 37  1  0  0  0  0
 18 17  2  0  0  0  0
 19 18  1  0  0  0  0
 20 19  2  0  0  0  0
 20 21  1  0  0  0  0
 21 22  2  0  0  0  0
 22 17  1  0  0  0  0
 22 40  1  0  0  0  0
 23 20  1  0  0  0  0
 24 42  1  0  0  0  0
 24 41  1  0  0  0  0
 24 25  1  0  0  0  0
 25 26  1  0  0  0  0
 25 43  1  0  0  0  0
 26 27  1  0  0  0  0
 27 28  1  0  0  0  0
 27 47  1  0  0  0  0
 27 46  1  0  0  0  0
 28 48  1  0  0  0  0
 29 28  1  0  0  0  0
 30 29  1  0  0  0  0
 31 52  1  0  0  0  0
 31 30  1  0  0  0  0
 31 26  1  0  0  0  0
 32  3  1  0  0  0  0
 33  4  1  0  0  0  0
 38 19  1  0  0  0  0
 39 21  1  0  0  0  0
 44 25  1  0  0  0  0
 45 26  1  0  0  0  0
 49 28  1  0  0  0  0
 50 30  1  0  0  0  0
 51 30  1  0  0  0  0
 53 31  1  0  0  0  0
M  END
>  <Pose>
1

>  <Score>
-4.42

$$$$
