
 OpenBabel03212208273D

 60 64  0  0  1  0  0  0  0  0999 V2000
   83.6610   99.3250  -44.7830 Cl  0  0  0  0  0  0  0  0  0  0  0  0
   85.3770   99.4970  -44.3840 C   0  0  0  0  0  0  0  0  0  0  0  0
   85.7580  100.2320  -43.2880 C   0  0  0  0  0  0  0  0  0  0  0  0
   87.1030  100.3680  -42.9710 C   0  0  0  0  0  0  0  0  0  0  0  0
   88.1080   99.7980  -43.7050 C   0  0  0  0  0  0  0  0  0  0  0  0
   87.6900   99.0520  -44.8180 C   0  0  0  0  0  0  0  0  0  0  0  0
   86.3580   98.9110  -45.1410 C   0  0  0  0  0  0  0  0  0  0  0  0
   89.3920  100.1320  -43.1120 C   0  0  1  0  0  0  0  0  0  0  0  0
   90.0220   98.8880  -42.6780 N   0  0  0  0  0  0  0  0  0  0  0  0
   91.0220   98.6600  -43.6860 C   0  0  1  0  0  0  0  0  0  0  0  0
   91.6130  100.0410  -43.8570 C   0  0  2  0  0  0  0  0  0  0  0  0
   90.3490  100.8630  -43.9870 C   0  0  1  0  0  0  0  0  0  0  0  0
   90.0720  100.8830  -45.4090 C   0  0  0  0  0  0  0  0  0  0  0  0
   88.9950  101.2040  -45.9580 O   0  0  0  0  0  0  0  0  0  0  0  0
   91.2350  100.4740  -46.1160 N   0  0  0  0  0  0  0  0  0  0  0  0
   92.2750  100.1930  -45.1780 C   0  0  0  0  0  0  0  0  0  0  0  0
   93.5110  100.0820  -45.3600 O   0  0  0  0  0  0  0  0  0  0  0  0
   91.4290  100.3390  -47.5470 C   0  0  0  0  0  0  0  0  0  0  0  0
   92.5720  101.1330  -48.0320 C   0  0  0  0  0  0  0  0  0  0  0  0
   93.2360  100.6890  -49.1550 C   0  0  0  0  0  0  0  0  0  0  0  0
   94.3120  101.4410  -49.6060 C   0  0  0  0  0  0  0  0  0  0  0  0
   94.7050  102.5820  -48.9660 C   0  0  0  0  0  0  0  0  0  0  0  0
   94.0160  102.9930  -47.8500 C   0  0  0  0  0  0  0  0  0  0  0  0
   92.9410  102.2910  -47.3520 C   0  0  0  0  0  0  0  0  0  0  0  0
   92.8210   99.5340  -49.7840 O   0  0  0  0  0  0  0  0  0  0  0  0
   92.7970   99.3410  -51.1640 C   0  0  0  0  0  0  0  0  0  0  0  0
   92.0520   97.6530  -43.2260 C   0  0  0  0  0  0  0  0  0  0  0  0
   91.4050   96.8370  -42.1270 C   0  0  0  0  0  0  0  0  0  0  0  0
   92.3540   96.5470  -41.0240 C   0  0  0  0  0  0  0  0  0  0  0  0
   92.9630   97.5020  -40.4630 O   0  0  0  0  0  0  0  0  0  0  0  0
   92.5290   95.1870  -40.6550 N   0  0  0  0  0  0  0  0  0  0  0  0
   89.0650  100.9620  -41.9290 C   0  0  0  0  0  0  0  0  0  0  0  0
   89.8680  101.4800  -41.0970 O   0  0  0  0  0  0  0  0  0  0  0  0
   87.6610  101.0870  -41.8790 N   0  0  0  0  0  0  0  0  0  0  0  0
   84.7020  100.8740  -42.4570 C   0  0  0  0  0  0  0  0  0  0  0  0
   88.4270   98.5730  -45.4420 H   0  0  0  0  0  0  0  0  0  0  0  0
   86.0710   98.3260  -46.0090 H   0  0  0  0  0  0  0  0  0  0  0  0
   89.3020   98.1380  -42.6030 H   0  0  0  0  0  0  0  0  0  0  0  0
   90.6550   98.3230  -44.6550 H   0  0  0  0  0  0  0  0  0  0  0  0
   92.2470  100.3450  -43.0160 H   0  0  0  0  0  0  0  0  0  0  0  0
   90.5500  101.9060  -43.6520 H   0  0  0  0  0  0  0  0  0  0  0  0
   91.5850   99.2780  -47.8210 H   0  0  0  0  0  0  0  0  0  0  0  0
   90.4650  100.6390  -48.0270 H   0  0  0  0  0  0  0  0  0  0  0  0
   94.8360  101.1000  -50.4850 H   0  0  0  0  0  0  0  0  0  0  0  0
   95.5610  103.1440  -49.3600 H   0  0  0  0  0  0  0  0  0  0  0  0
   94.3200  103.8940  -47.3370 H   0  0  0  0  0  0  0  0  0  0  0  0
   92.3950  102.6230  -46.4600 H   0  0  0  0  0  0  0  0  0  0  0  0
   92.3560   98.3370  -51.3570 H   0  0  0  0  0  0  0  0  0  0  0  0
   93.8460   99.2820  -51.5250 H   0  0  0  0  0  0  0  0  0  0  0  0
   92.2030  100.1190  -51.6630 H   0  0  0  0  0  0  0  0  0  0  0  0
   92.9900   98.1280  -42.8970 H   0  0  0  0  0  0  0  0  0  0  0  0
   92.2080   96.9520  -44.0810 H   0  0  0  0  0  0  0  0  0  0  0  0
   90.4660   97.3090  -41.7440 H   0  0  0  0  0  0  0  0  0  0  0  0
   91.1010   95.8710  -42.5770 H   0  0  0  0  0  0  0  0  0  0  0  0
   93.0740   94.9780  -39.8010 H   0  0  0  0  0  0  0  0  0  0  0  0
   92.0910   94.4630  -41.2780 H   0  0  0  0  0  0  0  0  0  0  0  0
   87.1310  101.6280  -41.1440 H   0  0  0  0  0  0  0  0  0  0  0  0
   84.6520  101.9550  -42.6490 H   0  0  0  0  0  0  0  0  0  0  0  0
   83.7280  100.4240  -42.6490 H   0  0  0  0  0  0  0  0  0  0  0  0
   84.9310  100.7630  -41.3600 H   0  0  0  0  0  0  0  0  0  0  0  0
  1  2  1  0  0  0  0
  2  3  1  0  0  0  0
  3  4  2  0  0  0  0
  3 35  1  0  0  0  0
  4 34  1  0  0  0  0
  5  4  1  0  0  0  0
  6  5  2  0  0  0  0
  7  6  1  0  0  0  0
  7  2  2  0  0  0  0
  8  5  1  6  0  0  0
  8  9  1  0  0  0  0
  8 32  1  0  0  0  0
  9 38  1  0  0  0  0
 10 39  1  6  0  0  0
 10 27  1  0  0  0  0
 10  9  1  0  0  0  0
 11 10  1  0  0  0  0
 11 40  1  1  0  0  0
 12 11  1  0  0  0  0
 12 41  1  1  0  0  0
 12  8  1  0  0  0  0
 13 12  1  0  0  0  0
 14 13  2  0  0  0  0
 15 13  1  0  0  0  0
 15 16  1  0  0  0  0
 16 11  1  0  0  0  0
 17 16  2  0  0  0  0
 18 15  1  0  0  0  0
 19 18  1  0  0  0  0
 19 24  1  0  0  0  0
 20 19  2  0  0  0  0
 21 20  1  0  0  0  0
 21 22  2  0  0  0  0
 22 23  1  0  0  0  0
 23 24  2  0  0  0  0
 23 46  1  0  0  0  0
 24 47  1  0  0  0  0
 25 20  1  0  0  0  0
 26 25  1  0  0  0  0
 27 51  1  0  0  0  0
 27 28  1  0  0  0  0
 28 53  1  0  0  0  0
 28 29  1  0  0  0  0
 29 31  1  0  0  0  0
 29 30  2  0  0  0  0
 31 55  1  0  0  0  0
 32 34  1  0  0  0  0
 32 33  2  0  0  0  0
 34 57  1  0  0  0  0
 35 60  1  0  0  0  0
 36  6  1  0  0  0  0
 37  7  1  0  0  0  0
 42 18  1  0  0  0  0
 43 18  1  0  0  0  0
 44 21  1  0  0  0  0
 45 22  1  0  0  0  0
 48 26  1  0  0  0  0
 49 26  1  0  0  0  0
 50 26  1  0  0  0  0
 52 27  1  0  0  0  0
 54 28  1  0  0  0  0
 56 31  1  0  0  0  0
 58 35  1  0  0  0  0
 59 35  1  0  0  0  0
M  END
>  <Pose>
1

>  <Score>
-6.21

$$$$
