
 OpenBabel03212208273D

 42 45  0  0  1  0  0  0  0  0999 V2000
   86.1130   97.6860  -44.4370 Cl  0  0  0  0  0  0  0  0  0  0  0  0
   87.3880   98.6690  -43.7520 C   0  0  0  0  0  0  0  0  0  0  0  0
   88.7170   98.3390  -43.8770 C   0  0  0  0  0  0  0  0  0  0  0  0
   89.7500   99.0980  -43.3420 C   0  0  0  0  0  0  0  0  0  0  0  0
   89.3870  100.2480  -42.6480 C   0  0  0  0  0  0  0  0  0  0  0  0
   88.0650  100.6020  -42.5080 C   0  0  0  0  0  0  0  0  0  0  0  0
   87.0730   99.8160  -43.0570 C   0  0  0  0  0  0  0  0  0  0  0  0
   91.1720   98.7020  -43.5010 C   0  0  1  0  0  0  0  0  0  0  0  0
   91.9540   98.8590  -42.3090 N   0  0  0  0  0  0  0  0  0  0  0  0
   92.0480   97.6240  -41.6050 C   0  0  0  0  0  0  0  0  0  0  0  0
   92.4120   97.4500  -40.4050 O   0  0  0  0  0  0  0  0  0  0  0  0
   91.6380   96.5490  -42.5320 C   0  0  0  0  0  0  0  0  0  0  0  0
   91.5960   95.3310  -42.2470 O   0  0  0  0  0  0  0  0  0  0  0  0
   91.3140   97.2300  -43.7780 C   0  0  0  0  0  0  0  0  0  0  0  0
   91.1450   96.6140  -44.9280 C   0  0  0  0  0  0  0  0  0  0  0  0
   90.7830   97.4100  -46.0340 O   0  0  0  0  0  0  0  0  0  0  0  0
   91.3110   95.1800  -45.1270 C   0  0  0  0  0  0  0  0  0  0  0  0
   90.6720   94.5530  -46.2060 C   0  0  0  0  0  0  0  0  0  0  0  0
   90.8340   93.2050  -46.4360 C   0  0  0  0  0  0  0  0  0  0  0  0
   91.6240   92.4100  -45.6310 C   0  0  0  0  0  0  0  0  0  0  0  0
   92.2610   93.0070  -44.5670 C   0  0  0  0  0  0  0  0  0  0  0  0
   92.0950   94.3730  -44.3360 C   0  0  0  0  0  0  0  0  0  0  0  0
   92.5520  100.0620  -41.8750 C   0  0  1  0  0  0  0  0  0  0  0  0
   92.2370  100.4630  -40.6150 N   0  0  0  0  0  0  0  0  0  0  0  0
   92.7370  101.5800  -40.0900 C   0  0  0  0  0  0  0  0  0  0  0  0
   93.5950  102.3320  -40.8590 C   0  0  0  0  0  0  0  0  0  0  0  0
   93.9010  101.9050  -42.1340 C   0  0  0  0  0  0  0  0  0  0  0  0
   93.3900  100.7770  -42.6580 N   0  0  0  0  0  0  0  0  0  0  0  0
   88.9370   97.4330  -44.4230 H   0  0  0  0  0  0  0  0  0  0  0  0
   90.1840  100.8510  -42.2220 H   0  0  0  0  0  0  0  0  0  0  0  0
   87.7810  101.5130  -41.9580 H   0  0  0  0  0  0  0  0  0  0  0  0
   86.0380  100.1030  -42.9420 H   0  0  0  0  0  0  0  0  0  0  0  0
   91.5810   99.3080  -44.3380 H   0  0  0  0  0  0  0  0  0  0  0  0
   90.0520   95.1860  -46.8370 H   0  0  0  0  0  0  0  0  0  0  0  0
   90.3200   92.7650  -47.2800 H   0  0  0  0  0  0  0  0  0  0  0  0
   91.7670   91.3510  -45.7940 H   0  0  0  0  0  0  0  0  0  0  0  0
   92.8930   92.3950  -43.9120 H   0  0  0  0  0  0  0  0  0  0  0  0
   92.6360   94.8120  -43.4930 H   0  0  0  0  0  0  0  0  0  0  0  0
   91.5820   99.8890  -40.0160 H   0  0  0  0  0  0  0  0  0  0  0  0
   92.4590  101.8650  -39.0830 H   0  0  0  0  0  0  0  0  0  0  0  0
   94.0070  103.2420  -40.4420 H   0  0  0  0  0  0  0  0  0  0  0  0
   94.5800  102.5300  -42.6980 H   0  0  0  0  0  0  0  0  0  0  0  0
  1  2  1  0  0  0  0
  2  7  1  0  0  0  0
  3  2  2  0  0  0  0
  3  4  1  0  0  0  0
  4  5  2  0  0  0  0
  5  6  1  0  0  0  0
  5 30  1  0  0  0  0
  6 31  1  0  0  0  0
  7 32  1  0  0  0  0
  7  6  2  0  0  0  0
  8 33  1  6  0  0  0
  8  4  1  0  0  0  0
  8  9  1  0  0  0  0
  9 10  1  0  0  0  0
 10 11  2  0  0  0  0
 12 13  2  0  0  0  0
 12 10  1  0  0  0  0
 14  8  1  0  0  0  0
 14 12  1  0  0  0  0
 15 14  2  0  0  0  0
 16 15  1  0  0  0  0
 17 15  1  0  0  0  0
 17 22  1  0  0  0  0
 18 17  2  0  0  0  0
 19 18  1  0  0  0  0
 19 20  2  0  0  0  0
 20 21  1  0  0  0  0
 21 22  2  0  0  0  0
 21 37  1  0  0  0  0
 22 38  1  0  0  0  0
 23  9  1  1  0  0  0
 23 24  1  0  0  0  0
 24 25  1  0  0  0  0
 24 39  1  0  0  0  0
 25 40  1  0  0  0  0
 26 41  1  0  0  0  0
 26 25  2  0  0  0  0
 27 26  1  0  0  0  0
 28 27  2  0  0  0  0
 28 23  1  0  0  0  0
 29  3  1  0  0  0  0
 34 18  1  0  0  0  0
 35 19  1  0  0  0  0
 36 20  1  0  0  0  0
 42 27  1  0  0  0  0
M  END
>  <Pose>
1

>  <Score>
-5.39

$$$$
