
 OpenBabel03212208273D

 44 47  0  0  0  0  0  0  0  0999 V2000
   87.8030   86.3990  -49.4190 S   0  0  0  0  0  0  0  0  0  0  0  0
   87.0490   86.6100  -48.2040 O   0  0  0  0  0  0  0  0  0  0  0  0
   88.1920   84.9620  -49.5980 O   0  0  0  0  0  0  0  0  0  0  0  0
   86.8990   86.8980  -50.9060 C   0  0  0  0  0  0  0  0  0  0  0  0
   89.3090   87.3350  -49.4510 C   0  0  0  0  0  0  0  0  0  0  0  0
   89.3160   88.5060  -50.0980 N   0  0  0  0  0  0  0  0  0  0  0  0
   90.3540   89.3360  -50.1380 C   0  0  0  0  0  0  0  0  0  0  0  0
   91.5090   88.9480  -49.4400 C   0  0  0  0  0  0  0  0  0  0  0  0
   91.4970   87.7660  -48.7890 C   0  0  0  0  0  0  0  0  0  0  0  0
   90.3960   86.9630  -48.8010 N   0  0  0  0  0  0  0  0  0  0  0  0
   92.6420   87.3740  -48.1110 O   0  0  0  0  0  0  0  0  0  0  0  0
   92.5710   89.9560  -49.3950 C   0  0  0  0  0  0  0  0  0  0  0  0
   91.9360   91.1650  -48.9690 N   0  0  0  0  0  0  0  0  0  0  0  0
   91.2860   91.6710  -50.2580 C   0  0  0  0  0  0  0  0  0  0  0  0
   90.3720   90.6480  -50.8360 C   0  0  0  0  0  0  0  0  0  0  0  0
   90.7110   91.0250  -48.1030 C   0  0  0  0  0  0  0  0  0  0  0  0
   91.0110   92.1290  -47.0850 C   0  0  0  0  0  0  0  0  0  0  0  0
   90.5930   93.4000  -47.1590 C   0  0  0  0  0  0  0  0  0  0  0  0
   90.8940   94.3920  -46.1870 C   0  0  0  0  0  0  0  0  0  0  0  0
   91.6710   93.9360  -45.1180 C   0  0  0  0  0  0  0  0  0  0  0  0
   91.9920   94.8450  -44.1530 C   0  0  0  0  0  0  0  0  0  0  0  0
   91.5920   96.2000  -44.1710 C   0  0  0  0  0  0  0  0  0  0  0  0
   90.8060   96.6090  -45.2630 C   0  0  0  0  0  0  0  0  0  0  0  0
   90.4960   95.6860  -46.2210 C   0  0  0  0  0  0  0  0  0  0  0  0
   92.0680   92.7140  -45.0330 O   0  0  0  0  0  0  0  0  0  0  0  0
   91.7720   91.7970  -45.9670 C   0  0  0  0  0  0  0  0  0  0  0  0
   92.1870   90.5780  -45.8720 O   0  0  0  0  0  0  0  0  0  0  0  0
   89.5760   93.8510  -48.4850 Cl  0  0  0  0  0  0  0  0  0  0  0  0
   87.6830   87.0380  -51.7330 H   0  0  0  0  0  0  0  0  0  0  0  0
   86.4740   87.9260  -50.7180 H   0  0  0  0  0  0  0  0  0  0  0  0
   86.1210   86.1820  -51.1810 H   0  0  0  0  0  0  0  0  0  0  0  0
   92.6330   86.8870  -47.2090 H   0  0  0  0  0  0  0  0  0  0  0  0
   93.4990   89.6580  -48.8550 H   0  0  0  0  0  0  0  0  0  0  0  0
   92.8840   90.1480  -50.5030 H   0  0  0  0  0  0  0  0  0  0  0  0
   90.7610   92.6280  -49.9450 H   0  0  0  0  0  0  0  0  0  0  0  0
   92.1340   91.9060  -50.8940 H   0  0  0  0  0  0  0  0  0  0  0  0
   89.3330   91.1140  -50.7680 H   0  0  0  0  0  0  0  0  0  0  0  0
   90.5730   90.5370  -51.9030 H   0  0  0  0  0  0  0  0  0  0  0  0
   89.8050   91.2560  -48.6280 H   0  0  0  0  0  0  0  0  0  0  0  0
   90.8030   90.0460  -47.6230 H   0  0  0  0  0  0  0  0  0  0  0  0
   92.5600   94.5830  -43.2620 H   0  0  0  0  0  0  0  0  0  0  0  0
   91.8870   96.9120  -43.3740 H   0  0  0  0  0  0  0  0  0  0  0  0
   90.4920   97.6070  -45.2470 H   0  0  0  0  0  0  0  0  0  0  0  0
   89.9530   95.9940  -47.1290 H   0  0  0  0  0  0  0  0  0  0  0  0
  1  2  2  0  0  0  0
  3  1  2  0  0  0  0
  4 30  1  0  0  0  0
  4  1  1  0  0  0  0
  5  1  1  0  0  0  0
  5 10  1  0  0  0  0
  6  5  2  0  0  0  0
  7  6  1  0  0  0  0
  7  8  2  0  0  0  0
  8 12  1  0  0  0  0
  8  9  1  0  0  0  0
  9 11  1  0  0  0  0
 10  9  2  0  0  0  0
 11 32  1  0  0  0  0
 12 13  1  0  0  0  0
 12 33  1  0  0  0  0
 13 16  1  0  0  0  0
 14 35  1  0  0  0  0
 14 13  1  0  0  0  0
 15 37  1  0  0  0  0
 15 14  1  0  0  0  0
 15  7  1  0  0  0  0
 16 40  1  0  0  0  0
 16 17  1  0  0  0  0
 17 26  1  0  0  0  0
 18 17  2  0  0  0  0
 18 19  1  0  0  0  0
 19 20  1  0  0  0  0
 20 25  1  0  0  0  0
 20 21  2  0  0  0  0
 21 41  1  0  0  0  0
 22 21  1  0  0  0  0
 22 42  1  0  0  0  0
 23 43  1  0  0  0  0
 23 22  2  0  0  0  0
 24 19  2  0  0  0  0
 24 23  1  0  0  0  0
 26 27  2  0  0  0  0
 26 25  1  0  0  0  0
 28 18  1  0  0  0  0
 29  4  1  0  0  0  0
 31  4  1  0  0  0  0
 34 12  1  0  0  0  0
 36 14  1  0  0  0  0
 38 15  1  0  0  0  0
 39 16  1  0  0  0  0
 44 24  1  0  0  0  0
M  END
>  <Pose>
1

>  <Score>
-4.66

$$$$
