
 OpenBabel03212208273D

 63 66  0  0  0  0  0  0  0  0999 V2000
   84.3010   99.5140  -43.6380 S   0  0  0  0  0  0  0  0  0  0  0  0
   83.9590   98.5800  -42.5230 O   0  0  0  0  0  0  0  0  0  0  0  0
   83.2920  100.6270  -43.7700 O   0  0  0  0  0  0  0  0  0  0  0  0
   85.8710  100.2540  -43.4070 C   0  0  0  0  0  0  0  0  0  0  0  0
   86.1580  101.0010  -42.2720 C   0  0  0  0  0  0  0  0  0  0  0  0
   87.3890  101.5620  -42.1280 N   0  0  0  0  0  0  0  0  0  0  0  0
   88.3580  101.4280  -43.0440 C   0  0  0  0  0  0  0  0  0  0  0  0
   88.0870  100.7060  -44.1450 N   0  0  0  0  0  0  0  0  0  0  0  0
   86.8860  100.1320  -44.3320 C   0  0  0  0  0  0  0  0  0  0  0  0
   89.6460  102.0210  -42.8940 N   0  0  0  0  0  0  0  0  0  0  0  0
   90.3230  102.0770  -41.6210 C   0  0  0  0  0  0  0  0  0  0  0  0
   91.7060  101.4880  -41.6290 C   0  0  0  0  0  0  0  0  0  0  0  0
   92.3320  101.5080  -43.0140 C   0  0  0  0  0  0  0  0  0  0  0  0
   91.7690  102.7940  -43.6430 C   0  0  0  0  0  0  0  0  0  0  0  0
   90.3400  102.6050  -44.0270 C   0  0  0  0  0  0  0  0  0  0  0  0
   92.0100  100.4320  -43.8230 N   0  0  0  0  0  0  0  0  0  0  0  0
   92.3100   99.1030  -43.4560 C   0  0  0  0  0  0  0  0  0  0  0  0
   91.2070   98.2080  -44.0440 C   0  0  0  0  0  0  0  0  0  0  0  0
   90.5990   98.9310  -45.2160 C   0  0  0  0  0  0  0  0  0  0  0  0
   91.6290   99.6590  -46.0420 C   0  0  0  0  0  0  0  0  0  0  0  0
   92.4530  100.6010  -45.1790 C   0  0  0  0  0  0  0  0  0  0  0  0
   93.7840  101.7450  -42.8500 C   0  0  0  0  0  0  0  0  0  0  0  0
   94.3880  101.3810  -41.7850 O   0  0  0  0  0  0  0  0  0  0  0  0
   94.5780  102.3660  -43.8200 N   0  0  0  0  0  0  0  0  0  0  0  0
   85.1370  101.1390  -41.3140 N   0  0  0  0  0  0  0  0  0  0  0  0
   84.3390   98.6420  -45.1780 C   0  0  0  0  0  0  0  0  0  0  0  0
   84.5300   99.3310  -46.3580 C   0  0  0  0  0  0  0  0  0  0  0  0
   84.5530   98.6110  -47.5330 C   0  0  0  0  0  0  0  0  0  0  0  0
   84.3890   97.2300  -47.5470 C   0  0  0  0  0  0  0  0  0  0  0  0
   84.2010   96.5770  -46.3480 C   0  0  0  0  0  0  0  0  0  0  0  0
   84.1730   97.2700  -45.1550 C   0  0  0  0  0  0  0  0  0  0  0  0
   83.9910   94.8210  -46.3460 Cl  0  0  0  0  0  0  0  0  0  0  0  0
   84.6860  100.6890  -46.3060 O   0  0  0  0  0  0  0  0  0  0  0  0
   83.7020  101.6320  -46.6230 C   0  0  0  0  0  0  0  0  0  0  0  0
   86.6630   99.5410  -45.2330 H   0  0  0  0  0  0  0  0  0  0  0  0
   90.3460  103.1760  -41.3500 H   0  0  0  0  0  0  0  0  0  0  0  0
   89.7070  101.6240  -40.8060 H   0  0  0  0  0  0  0  0  0  0  0  0
   92.3300  102.1660  -41.0060 H   0  0  0  0  0  0  0  0  0  0  0  0
   91.7720  100.4950  -41.1530 H   0  0  0  0  0  0  0  0  0  0  0  0
   92.4250  103.2320  -44.3930 H   0  0  0  0  0  0  0  0  0  0  0  0
   91.7520  103.5630  -42.8040 H   0  0  0  0  0  0  0  0  0  0  0  0
   90.1570  102.0140  -44.9330 H   0  0  0  0  0  0  0  0  0  0  0  0
   89.8410  103.6170  -44.1620 H   0  0  0  0  0  0  0  0  0  0  0  0
   93.2360   98.7350  -43.9930 H   0  0  0  0  0  0  0  0  0  0  0  0
   92.3620   98.8660  -42.4030 H   0  0  0  0  0  0  0  0  0  0  0  0
   91.6150   97.2140  -44.3390 H   0  0  0  0  0  0  0  0  0  0  0  0
   90.4210   98.0650  -43.2450 H   0  0  0  0  0  0  0  0  0  0  0  0
   89.8720   99.7000  -44.8380 H   0  0  0  0  0  0  0  0  0  0  0  0
   90.0780   98.2320  -45.9130 H   0  0  0  0  0  0  0  0  0  0  0  0
   91.0700  100.2280  -46.8290 H   0  0  0  0  0  0  0  0  0  0  0  0
   92.2380   98.9200  -46.5880 H   0  0  0  0  0  0  0  0  0  0  0  0
   92.4940  101.6080  -45.5670 H   0  0  0  0  0  0  0  0  0  0  0  0
   93.4970  100.1620  -45.2240 H   0  0  0  0  0  0  0  0  0  0  0  0
   95.6280  102.3030  -43.7200 H   0  0  0  0  0  0  0  0  0  0  0  0
   94.2460  102.8890  -44.6540 H   0  0  0  0  0  0  0  0  0  0  0  0
   85.2460  100.8750  -40.3130 H   0  0  0  0  0  0  0  0  0  0  0  0
   84.2160  101.5240  -41.6080 H   0  0  0  0  0  0  0  0  0  0  0  0
   84.7010   99.1150  -48.4860 H   0  0  0  0  0  0  0  0  0  0  0  0
   84.4150   96.7120  -48.4850 H   0  0  0  0  0  0  0  0  0  0  0  0
   84.0230   96.7320  -44.2060 H   0  0  0  0  0  0  0  0  0  0  0  0
   82.9910  101.7110  -45.7840 H   0  0  0  0  0  0  0  0  0  0  0  0
   84.1970  102.6360  -46.7060 H   0  0  0  0  0  0  0  0  0  0  0  0
   83.2070  101.4590  -47.5930 H   0  0  0  0  0  0  0  0  0  0  0  0
  1  4  1  0  0  0  0
  1  2  2  0  0  0  0
  3  1  2  0  0  0  0
  4  5  2  0  0  0  0
  5  6  1  0  0  0  0
  5 25  1  0  0  0  0
  7 10  1  0  0  0  0
  7  6  2  0  0  0  0
  8  7  1  0  0  0  0
  9  8  2  0  0  0  0
  9  4  1  0  0  0  0
 10 11  1  0  0  0  0
 11 36  1  0  0  0  0
 11 37  1  0  0  0  0
 12 11  1  0  0  0  0
 12 39  1  0  0  0  0
 12 38  1  0  0  0  0
 13 22  1  0  0  0  0
 13 12  1  0  0  0  0
 14 13  1  0  0  0  0
 14 41  1  0  0  0  0
 15 14  1  0  0  0  0
 15 10  1  0  0  0  0
 16 17  1  0  0  0  0
 16 13  1  0  0  0  0
 17 45  1  0  0  0  0
 18 17  1  0  0  0  0
 18 47  1  0  0  0  0
 19 48  1  0  0  0  0
 19 18  1  0  0  0  0
 20 19  1  0  0  0  0
 20 21  1  0  0  0  0
 21 16  1  0  0  0  0
 22 23  2  0  0  0  0
 24 54  1  0  0  0  0
 24 22  1  0  0  0  0
 25 56  1  0  0  0  0
 26 31  1  0  0  0  0
 26  1  1  0  0  0  0
 27 33  1  0  0  0  0
 27 26  2  0  0  0  0
 28 27  1  0  0  0  0
 29 28  2  0  0  0  0
 29 30  1  0  0  0  0
 30 32  1  0  0  0  0
 30 31  2  0  0  0  0
 31 60  1  0  0  0  0
 34 33  1  0  0  0  0
 34 61  1  0  0  0  0
 35  9  1  0  0  0  0
 40 14  1  0  0  0  0
 42 15  1  0  0  0  0
 43 15  1  0  0  0  0
 44 17  1  0  0  0  0
 46 18  1  0  0  0  0
 49 19  1  0  0  0  0
 50 20  1  0  0  0  0
 51 20  1  0  0  0  0
 52 21  1  0  0  0  0
 53 21  1  0  0  0  0
 55 24  1  0  0  0  0
 57 25  1  0  0  0  0
 58 28  1  0  0  0  0
 59 29  1  0  0  0  0
 62 34  1  0  0  0  0
 63 34  1  0  0  0  0
M  END
>  <Pose>
1

>  <Score>
-5.01

$$$$
