
 OpenBabel03212208273D

 52 55  0  0  0  0  0  0  0  0999 V2000
   91.7130  102.9820  -46.9880 Cl  0  0  0  0  0  0  0  0  0  0  0  0
   91.6600  101.8510  -45.6740 C   0  0  0  0  0  0  0  0  0  0  0  0
   90.6040  101.7360  -44.8000 C   0  0  0  0  0  0  0  0  0  0  0  0
   90.5800  100.8260  -43.7610 C   0  0  0  0  0  0  0  0  0  0  0  0
   91.6380   99.9790  -43.5560 C   0  0  0  0  0  0  0  0  0  0  0  0
   92.6950  100.1050  -44.4410 C   0  0  0  0  0  0  0  0  0  0  0  0
   92.7380  101.0060  -45.4830 C   0  0  0  0  0  0  0  0  0  0  0  0
   91.7070   98.9870  -42.5440 N   0  0  0  0  0  0  0  0  0  0  0  0
   91.8150   99.1740  -41.2570 N   0  0  0  0  0  0  0  0  0  0  0  0
   91.8750   98.0270  -40.5730 C   0  0  0  0  0  0  0  0  0  0  0  0
   91.7980   97.0020  -41.5060 C   0  0  0  0  0  0  0  0  0  0  0  0
   91.6930   97.6480  -42.7330 C   0  0  0  0  0  0  0  0  0  0  0  0
   91.5990   96.8620  -43.8090 N   0  0  0  0  0  0  0  0  0  0  0  0
   91.6060   95.5140  -43.7070 C   0  0  0  0  0  0  0  0  0  0  0  0
   91.7060   94.8630  -42.5370 N   0  0  0  0  0  0  0  0  0  0  0  0
   91.8030   95.6290  -41.4200 C   0  0  0  0  0  0  0  0  0  0  0  0
   91.8970   95.0640  -40.3020 O   0  0  0  0  0  0  0  0  0  0  0  0
   91.7290   93.4020  -42.4220 C   0  0  0  0  0  0  0  0  0  0  0  0
   92.3790   92.7650  -43.5810 C   0  0  0  0  0  0  0  0  0  0  0  0
   93.6590   92.7600  -43.5390 O   0  0  0  0  0  0  0  0  0  0  0  0
   91.7520   92.1850  -44.6820 N   0  0  0  0  0  0  0  0  0  0  0  0
   91.1360   90.8520  -44.5890 C   0  0  0  0  0  0  0  0  0  0  0  0
   91.9780   89.9840  -45.5330 C   0  0  0  0  0  0  0  0  0  0  0  0
   92.0730   90.6000  -46.8300 N   0  0  0  0  0  0  0  0  0  0  0  0
   91.3380   91.8330  -47.0400 C   0  0  0  0  0  0  0  0  0  0  0  0
   91.6330   92.8450  -45.9630 C   0  0  0  0  0  0  0  0  0  0  0  0
   92.8710   90.0430  -47.8530 C   0  0  0  0  0  0  0  0  0  0  0  0
   94.1440   90.0240  -47.6680 O   0  0  0  0  0  0  0  0  0  0  0  0
   92.4180   89.5110  -49.0400 O   0  0  0  0  0  0  0  0  0  0  0  0
   91.1780   89.9550  -49.6230 C   0  0  0  0  0  0  0  0  0  0  0  0
   91.4890   91.2590  -50.3350 C   0  0  0  0  0  0  0  0  0  0  0  0
   89.7650  102.4270  -44.9930 H   0  0  0  0  0  0  0  0  0  0  0  0
   89.7340  100.7710  -43.1000 H   0  0  0  0  0  0  0  0  0  0  0  0
   93.5600   99.4360  -44.2940 H   0  0  0  0  0  0  0  0  0  0  0  0
   93.6200  101.0170  -46.1170 H   0  0  0  0  0  0  0  0  0  0  0  0
   91.9660   97.8210  -39.5210 H   0  0  0  0  0  0  0  0  0  0  0  0
   91.5290   94.8880  -44.6050 H   0  0  0  0  0  0  0  0  0  0  0  0
   90.6640   93.0150  -42.3950 H   0  0  0  0  0  0  0  0  0  0  0  0
   92.2160   93.1610  -41.4630 H   0  0  0  0  0  0  0  0  0  0  0  0
   90.0800   90.8780  -44.8920 H   0  0  0  0  0  0  0  0  0  0  0  0
   91.2980   90.4840  -43.5790 H   0  0  0  0  0  0  0  0  0  0  0  0
   91.5410   88.9740  -45.5250 H   0  0  0  0  0  0  0  0  0  0  0  0
   93.0080   89.8890  -45.0740 H   0  0  0  0  0  0  0  0  0  0  0  0
   90.2730   91.5690  -47.0940 H   0  0  0  0  0  0  0  0  0  0  0  0
   91.6810   92.2700  -48.0170 H   0  0  0  0  0  0  0  0  0  0  0  0
   90.6900   93.4710  -45.8870 H   0  0  0  0  0  0  0  0  0  0  0  0
   92.4920   93.5000  -46.1780 H   0  0  0  0  0  0  0  0  0  0  0  0
   90.8610   89.1970  -50.4070 H   0  0  0  0  0  0  0  0  0  0  0  0
   90.3800   90.0970  -48.9150 H   0  0  0  0  0  0  0  0  0  0  0  0
   91.0690   91.3370  -51.3410 H   0  0  0  0  0  0  0  0  0  0  0  0
   91.1480   92.0830  -49.6370 H   0  0  0  0  0  0  0  0  0  0  0  0
   92.5780   91.3660  -50.4030 H   0  0  0  0  0  0  0  0  0  0  0  0
  1  2  1  0  0  0  0
  2  7  2  0  0  0  0
  2  3  1  0  0  0  0
  3  4  2  0  0  0  0
  4  5  1  0  0  0  0
  4 33  1  0  0  0  0
  5  8  1  0  0  0  0
  6 34  1  0  0  0  0
  6  5  2  0  0  0  0
  7  6  1  0  0  0  0
  8  9  1  0  0  0  0
  9 10  2  0  0  0  0
 10 36  1  0  0  0  0
 11 16  1  0  0  0  0
 11 10  1  0  0  0  0
 12  8  1  0  0  0  0
 12 11  2  0  0  0  0
 13 14  2  0  0  0  0
 13 12  1  0  0  0  0
 14 15  1  0  0  0  0
 15 18  1  0  0  0  0
 15 16  1  0  0  0  0
 16 17  2  0  0  0  0
 18 38  1  0  0  0  0
 18 39  1  0  0  0  0
 19 20  2  0  0  0  0
 19 18  1  0  0  0  0
 21 22  1  0  0  0  0
 21 19  1  0  0  0  0
 22 41  1  0  0  0  0
 23 42  1  0  0  0  0
 23 43  1  0  0  0  0
 23 22  1  0  0  0  0
 24 23  1  0  0  0  0
 25 24  1  0  0  0  0
 25 26  1  0  0  0  0
 26 46  1  0  0  0  0
 26 21  1  0  0  0  0
 27 28  2  0  0  0  0
 27 24  1  0  0  0  0
 29 27  1  0  0  0  0
 30 29  1  0  0  0  0
 30 49  1  0  0  0  0
 31 51  1  0  0  0  0
 31 30  1  0  0  0  0
 32  3  1  0  0  0  0
 35  7  1  0  0  0  0
 37 14  1  0  0  0  0
 40 22  1  0  0  0  0
 44 25  1  0  0  0  0
 45 25  1  0  0  0  0
 47 26  1  0  0  0  0
 48 30  1  0  0  0  0
 50 31  1  0  0  0  0
 52 31  1  0  0  0  0
M  END
>  <Pose>
1

>  <Score>
-5.47

$$$$
