
 OpenBabel03212208273D

 54 58  0  0  1  0  0  0  0  0999 V2000
   92.2050   99.6730  -41.4800 S   0  0  0  0  0  0  0  0  0  0  0  0
   91.0400   99.7600  -40.5020 O   0  0  0  0  0  0  0  0  0  0  0  0
   92.8600   98.3320  -41.1460 O   0  0  0  0  0  0  0  0  0  0  0  0
   91.5690   99.5560  -43.0300 N   0  0  0  0  0  0  0  0  0  0  0  0
   92.5110   99.5670  -44.1180 C   0  0  0  0  0  0  0  0  0  0  0  0
   92.2080   98.4850  -45.1290 C   0  0  0  0  0  0  0  0  0  0  0  0
   92.1400   97.1650  -44.4530 N   0  0  0  0  0  0  0  0  0  0  0  0
   91.0100   97.2020  -43.5350 C   0  0  0  0  0  0  0  0  0  0  0  0
   90.5180   98.6110  -43.2510 C   0  0  0  0  0  0  0  0  0  0  0  0
   91.8560   96.2420  -45.5310 C   0  0  0  0  0  0  0  0  0  0  0  0
   90.5390   95.5920  -45.5520 C   0  0  0  0  0  0  0  0  0  0  0  0
   89.5050   96.1150  -46.3800 N   0  0  0  0  0  0  0  0  0  0  0  0
   88.6390   97.2290  -46.1940 C   0  0  0  0  0  0  0  0  0  0  0  0
   88.3120   97.7070  -45.0980 O   0  0  0  0  0  0  0  0  0  0  0  0
   88.1960   97.7170  -47.5220 C   0  0  1  0  0  0  0  0  0  0  0  0
   88.2340   96.3990  -48.3290 C   0  0  2  0  0  0  0  0  0  0  0  0
   86.8360   95.9090  -48.3580 C   0  0  1  0  0  0  0  0  0  0  0  0
   86.2310   96.5840  -47.1150 C   0  0  0  0  0  0  0  0  0  0  0  0
   86.7340   97.9830  -47.5110 C   0  0  2  0  0  0  0  0  0  0  0  0
   86.2870   97.9960  -48.9450 C   0  0  0  0  0  0  0  0  0  0  0  0
   86.1120   96.7510  -49.3880 C   0  0  0  0  0  0  0  0  0  0  0  0
   89.2100   95.5410  -47.6730 C   0  0  0  0  0  0  0  0  0  0  0  0
   89.6890   94.4920  -48.1710 O   0  0  0  0  0  0  0  0  0  0  0  0
   93.3740  100.8970  -41.1940 C   0  0  0  0  0  0  0  0  0  0  0  0
   93.9980  101.0040  -39.9750 C   0  0  0  0  0  0  0  0  0  0  0  0
   94.9430  101.9970  -39.7840 C   0  0  0  0  0  0  0  0  0  0  0  0
   95.2880  102.8940  -40.7780 C   0  0  0  0  0  0  0  0  0  0  0  0
   94.6600  102.7830  -42.0010 C   0  0  0  0  0  0  0  0  0  0  0  0
   93.7100  101.7850  -42.1910 C   0  0  0  0  0  0  0  0  0  0  0  0
   96.5880  104.2640  -40.5170 B   0  0  0  0  0  0  0  0  0  0  0  0
   92.3820  100.5360  -44.6560 H   0  0  0  0  0  0  0  0  0  0  0  0
   93.5360   99.5210  -43.7550 H   0  0  0  0  0  0  0  0  0  0  0  0
   93.0520   98.4190  -45.8380 H   0  0  0  0  0  0  0  0  0  0  0  0
   91.2800   98.6580  -45.7040 H   0  0  0  0  0  0  0  0  0  0  0  0
   91.3460   96.8220  -42.5560 H   0  0  0  0  0  0  0  0  0  0  0  0
   90.2100   96.5730  -43.9630 H   0  0  0  0  0  0  0  0  0  0  0  0
   89.8080   98.6410  -42.4270 H   0  0  0  0  0  0  0  0  0  0  0  0
   89.9740   98.9440  -44.1640 H   0  0  0  0  0  0  0  0  0  0  0  0
   92.6230   95.4020  -45.5000 H   0  0  0  0  0  0  0  0  0  0  0  0
   92.1170   96.7450  -46.5160 H   0  0  0  0  0  0  0  0  0  0  0  0
   90.7210   94.5190  -45.8920 H   0  0  0  0  0  0  0  0  0  0  0  0
   90.2020   95.4750  -44.4840 H   0  0  0  0  0  0  0  0  0  0  0  0
   88.8310   98.4880  -47.9480 H   0  0  0  0  0  0  0  0  0  0  0  0
   88.5260   96.6360  -49.3930 H   0  0  0  0  0  0  0  0  0  0  0  0
   86.6570   94.8620  -48.4170 H   0  0  0  0  0  0  0  0  0  0  0  0
   85.1350   96.5460  -47.1110 H   0  0  0  0  0  0  0  0  0  0  0  0
   86.7100   96.2890  -46.1870 H   0  0  0  0  0  0  0  0  0  0  0  0
   86.3610   98.7790  -46.9120 H   0  0  0  0  0  0  0  0  0  0  0  0
   86.1160   98.8620  -49.5740 H   0  0  0  0  0  0  0  0  0  0  0  0
   85.5830   96.4240  -50.2630 H   0  0  0  0  0  0  0  0  0  0  0  0
   93.7650  100.3170  -39.1450 H   0  0  0  0  0  0  0  0  0  0  0  0
   95.4360  102.0790  -38.8160 H   0  0  0  0  0  0  0  0  0  0  0  0
   94.9380  103.4900  -42.7670 H   0  0  0  0  0  0  0  0  0  0  0  0
   93.2700  101.7680  -43.1780 H   0  0  0  0  0  0  0  0  0  0  0  0
  1 24  1  0  0  0  0
  1  3  2  0  0  0  0
  1  2  2  0  0  0  0
  4  1  1  0  0  0  0
  5 32  1  0  0  0  0
  5  4  1  0  0  0  0
  6  7  1  0  0  0  0
  6  5  1  0  0  0  0
  7  8  1  0  0  0  0
  8  9  1  0  0  0  0
  8 35  1  0  0  0  0
  9  4  1  0  0  0  0
  9 37  1  0  0  0  0
 10 39  1  0  0  0  0
 10  7  1  0  0  0  0
 11 10  1  0  0  0  0
 11 42  1  0  0  0  0
 12 13  1  0  0  0  0
 12 11  1  0  0  0  0
 13 14  2  0  0  0  0
 15 43  1  6  0  0  0
 15 19  1  0  0  0  0
 15 13  1  0  0  0  0
 16 44  1  6  0  0  0
 16 22  1  0  0  0  0
 16 15  1  0  0  0  0
 17 45  1  6  0  0  0
 17 16  1  0  0  0  0
 17 18  1  0  0  0  0
 18 46  1  0  0  0  0
 18 47  1  0  0  0  0
 19 18  1  0  0  0  0
 19 48  1  1  0  0  0
 20 19  1  0  0  0  0
 21 20  1  0  0  0  0
 21 17  1  0  0  0  0
 22 12  1  0  0  0  0
 23 22  2  0  0  0  0
 24 25  1  0  0  0  0
 25 26  2  0  0  0  0
 25 51  1  0  0  0  0
 26 52  1  0  0  0  0
 27 30  1  0  0  0  0
 27 26  1  0  0  0  0
 28 27  2  0  0  0  0
 29 28  1  0  0  0  0
 29 24  2  0  0  0  0
 31  5  1  0  0  0  0
 33  6  1  0  0  0  0
 34  6  1  0  0  0  0
 36  8  1  0  0  0  0
 38  9  1  0  0  0  0
 40 10  1  0  0  0  0
 41 11  1  0  0  0  0
 49 20  1  0  0  0  0
 50 21  1  0  0  0  0
 53 28  1  0  0  0  0
 54 29  1  0  0  0  0
M  END
>  <Pose>
1

>  <Score>
-4.06

$$$$
