
 OpenBabel03212208273D

 61 64  0  0  1  0  0  0  0  0999 V2000
   92.2760   93.1480  -42.3210 B   0  0  0  0  0  0  0  0  0  0  0  0
   91.9070   94.6400  -43.4850 C   0  0  0  0  0  0  0  0  0  0  0  0
   91.5830   95.8720  -42.9810 C   0  0  0  0  0  0  0  0  0  0  0  0
   91.3070   96.9800  -43.7750 C   0  0  0  0  0  0  0  0  0  0  0  0
   91.3630   96.8340  -45.1430 C   0  0  0  0  0  0  0  0  0  0  0  0
   91.6930   95.5820  -45.6400 C   0  0  0  0  0  0  0  0  0  0  0  0
   91.9640   94.4870  -44.8540 C   0  0  0  0  0  0  0  0  0  0  0  0
   91.1210   97.9480  -46.0490 C   0  0  0  0  0  0  0  0  0  0  0  0
   92.1240   98.7240  -46.2190 O   0  0  0  0  0  0  0  0  0  0  0  0
   89.8650   98.2300  -46.7440 C   0  0  2  0  0  0  0  0  0  0  0  0
   88.9610   99.2110  -46.0470 C   0  0  1  0  0  0  0  0  0  0  0  0
   88.1460   98.4770  -45.1860 N   0  0  0  0  0  0  0  0  0  0  0  0
   87.8410   97.2790  -46.0050 C   0  0  0  0  0  0  0  0  0  0  0  0
   86.7760   96.6050  -45.9980 O   0  0  0  0  0  0  0  0  0  0  0  0
   89.0140   97.0220  -46.8250 C   0  0  0  0  0  0  0  0  0  0  0  0
   89.2390   95.9620  -47.4760 O   0  0  0  0  0  0  0  0  0  0  0  0
   87.4690   98.5650  -43.9300 C   0  0  0  0  0  0  0  0  0  0  0  0
   86.3520   99.5320  -43.8270 C   0  0  0  0  0  0  0  0  0  0  0  0
   85.2690   99.3400  -42.9600 N   0  0  0  0  0  4  0  0  0  0  0  0
   84.3290  100.4690  -42.9590 C   0  0  0  0  0  0  0  0  0  0  0  0
   83.6710  100.6730  -44.2830 C   0  0  0  0  0  0  0  0  0  0  0  0
   83.9770   99.6260  -45.1220 O   0  0  0  0  0  0  0  0  0  0  0  0
   83.5990   98.4370  -44.4770 C   0  0  0  0  0  0  0  0  0  0  0  0
   84.5410   98.1150  -43.3360 C   0  0  0  0  0  0  0  0  0  0  0  0
   89.5190  100.5170  -45.8000 C   0  0  0  0  0  0  0  0  0  0  0  0
   90.5490  100.7920  -44.9580 C   0  0  0  0  0  0  0  0  0  0  0  0
   91.0270  102.0850  -44.8040 C   0  0  0  0  0  0  0  0  0  0  0  0
   90.4300  103.1250  -45.5330 C   0  0  0  0  0  0  0  0  0  0  0  0
   89.3950  102.8460  -46.3790 C   0  0  0  0  0  0  0  0  0  0  0  0
   88.9290  101.5770  -46.5300 C   0  0  0  0  0  0  0  0  0  0  0  0
   90.8660  104.4300  -45.4170 O   0  0  0  0  0  0  0  0  0  0  0  0
   92.0550  102.3910  -43.9730 O   0  0  0  0  0  0  0  0  0  0  0  0
   92.5990  101.5130  -43.0420 C   0  0  0  0  0  0  0  0  0  0  0  0
   93.8580  102.0350  -42.3730 C   0  0  0  0  0  0  0  0  0  0  0  0
   91.5330   96.0090  -41.8980 H   0  0  0  0  0  0  0  0  0  0  0  0
   91.0390   97.9090  -43.2890 H   0  0  0  0  0  0  0  0  0  0  0  0
   91.7520   95.4090  -46.7270 H   0  0  0  0  0  0  0  0  0  0  0  0
   92.2190   93.5160  -45.2630 H   0  0  0  0  0  0  0  0  0  0  0  0
   90.0760   98.5930  -47.8020 H   0  0  0  0  0  0  0  0  0  0  0  0
   88.1650   99.4150  -46.9570 H   0  0  0  0  0  0  0  0  0  0  0  0
   87.0490   97.5640  -43.6190 H   0  0  0  0  0  0  0  0  0  0  0  0
   88.2360   98.8770  -43.1590 H   0  0  0  0  0  0  0  0  0  0  0  0
   85.9020   99.7340  -44.8670 H   0  0  0  0  0  0  0  0  0  0  0  0
   86.7700  100.5850  -43.6100 H   0  0  0  0  0  0  0  0  0  0  0  0
   85.5560   99.2060  -41.9930 H   0  0  0  0  0  0  0  0  0  0  0  0
   84.8520  101.3430  -42.5570 H   0  0  0  0  0  0  0  0  0  0  0  0
   83.5420  100.1840  -42.2190 H   0  0  0  0  0  0  0  0  0  0  0  0
   82.5640  100.7200  -44.1780 H   0  0  0  0  0  0  0  0  0  0  0  0
   84.0800  101.6170  -44.7170 H   0  0  0  0  0  0  0  0  0  0  0  0
   82.5800   98.4710  -44.0870 H   0  0  0  0  0  0  0  0  0  0  0  0
   83.7220   97.6300  -45.2340 H   0  0  0  0  0  0  0  0  0  0  0  0
   84.0240   97.7070  -42.4480 H   0  0  0  0  0  0  0  0  0  0  0  0
   85.3270   97.3840  -43.6190 H   0  0  0  0  0  0  0  0  0  0  0  0
   91.0360  100.0260  -44.3450 H   0  0  0  0  0  0  0  0  0  0  0  0
   88.9290  103.6650  -46.9510 H   0  0  0  0  0  0  0  0  0  0  0  0
   88.1050  101.3910  -47.2100 H   0  0  0  0  0  0  0  0  0  0  0  0
   91.8680  101.2560  -42.2400 H   0  0  0  0  0  0  0  0  0  0  0  0
   92.8710  100.5330  -43.5090 H   0  0  0  0  0  0  0  0  0  0  0  0
   93.5960  102.3430  -41.3260 H   0  0  0  0  0  0  0  0  0  0  0  0
   94.6050  101.2300  -42.3040 H   0  0  0  0  0  0  0  0  0  0  0  0
   94.2630  102.9110  -42.8770 H   0  0  0  0  0  0  0  0  0  0  0  0
  2  3  1  0  0  0  0
  2  1  1  0  0  0  0
  3 35  1  0  0  0  0
  4 36  1  0  0  0  0
  4  3  2  0  0  0  0
  5  4  1  0  0  0  0
  6  5  2  0  0  0  0
  6  7  1  0  0  0  0
  7  2  2  0  0  0  0
  8  5  1  0  0  0  0
  9  8  2  0  0  0  0
 10 39  1  6  0  0  0
 10  8  1  0  0  0  0
 10 11  1  0  0  0  0
 11 40  1  6  0  0  0
 11 25  1  0  0  0  0
 11 12  1  0  0  0  0
 12 17  1  0  0  0  0
 13 14  2  0  0  0  0
 13 12  1  0  0  0  0
 15 10  1  0  0  0  0
 15 13  1  0  0  0  0
 16 15  2  0  0  0  0
 17 18  1  0  0  0  0
 17 41  1  0  0  0  0
 17 42  1  0  0  0  0
 18 44  1  0  0  0  0
 18 19  1  0  0  0  0
 19 20  1  0  0  0  0
 19 45  1  0  0  0  0
 20 46  1  0  0  0  0
 20 47  1  0  0  0  0
 21 48  1  0  0  0  0
 21 20  1  0  0  0  0
 22 23  1  0  0  0  0
 22 21  1  0  0  0  0
 23 50  1  0  0  0  0
 23 24  1  0  0  0  0
 24 19  1  0  0  0  0
 24 52  1  0  0  0  0
 25 26  1  0  0  0  0
 26 27  2  0  0  0  0
 26 54  1  0  0  0  0
 27 32  1  0  0  0  0
 28 31  1  0  0  0  0
 28 27  1  0  0  0  0
 29 28  2  0  0  0  0
 30 29  1  0  0  0  0
 30 25  2  0  0  0  0
 32 33  1  0  0  0  0
 33 34  1  0  0  0  0
 33 57  1  0  0  0  0
 34 60  1  0  0  0  0
 34 59  1  0  0  0  0
 37  6  1  0  0  0  0
 38  7  1  0  0  0  0
 43 18  1  0  0  0  0
 49 21  1  0  0  0  0
 51 23  1  0  0  0  0
 53 24  1  0  0  0  0
 55 29  1  0  0  0  0
 56 30  1  0  0  0  0
 58 33  1  0  0  0  0
 61 34  1  0  0  0  0
M  END
>  <Pose>
1

>  <Score>
-5.15

$$$$
