
 OpenBabel03212208273D

 37 40  0  0  0  0  0  0  0  0999 V2000
   88.8840   91.2860  -51.1440 B   0  0  0  0  0  0  0  0  0  0  0  0
   89.9970   90.0990  -50.1410 C   0  0  0  0  0  0  0  0  0  0  0  0
   89.9490   88.7390  -50.3630 C   0  0  0  0  0  0  0  0  0  0  0  0
   90.7410   87.8680  -49.6520 C   0  0  0  0  0  0  0  0  0  0  0  0
   90.9030   86.5230  -49.6550 N   0  0  0  0  0  0  0  0  0  0  0  0
   91.8160   86.2320  -48.7460 N   0  0  0  0  0  0  0  0  0  0  0  0
   92.2580   87.3050  -48.1510 N   0  0  0  0  0  0  0  0  0  0  0  0
   91.5990   88.3600  -48.6990 C   0  0  0  0  0  0  0  0  0  0  0  0
   91.6510   89.7250  -48.4720 C   0  0  0  0  0  0  0  0  0  0  0  0
   90.8500   90.5980  -49.1930 C   0  0  0  0  0  0  0  0  0  0  0  0
   92.5710   90.2220  -47.4550 C   0  0  0  0  0  0  0  0  0  0  0  0
   93.7830   89.9530  -47.5640 O   0  0  0  0  0  0  0  0  0  0  0  0
   92.1400   90.9980  -46.3500 N   0  0  0  0  0  0  0  0  0  0  0  0
   93.0840   91.6680  -45.4900 C   0  0  0  0  0  0  0  0  0  0  0  0
   92.3860   92.8040  -44.7930 C   0  0  0  0  0  0  0  0  0  0  0  0
   92.2950   93.0070  -43.4690 N   0  0  0  0  0  0  0  0  0  0  0  0
   91.5940   94.1300  -43.2050 C   0  0  0  0  0  0  0  0  0  0  0  0
   91.2440   94.6330  -44.3950 N   0  0  0  0  0  0  0  0  0  0  0  0
   91.7220   93.8310  -45.3590 N   0  0  0  0  0  0  0  0  0  0  0  0
   91.4160   94.4760  -41.7680 C   0  0  0  0  0  0  0  0  0  0  0  0
   92.8400   94.4960  -41.1940 C   0  0  0  0  0  0  0  0  0  0  0  0
   93.5820   93.2260  -41.4550 C   0  0  0  0  0  0  0  0  0  0  0  0
   92.7890   92.2740  -42.3240 C   0  0  0  0  0  0  0  0  0  0  0  0
   89.2770   88.3460  -51.1100 H   0  0  0  0  0  0  0  0  0  0  0  0
   92.9660   87.4380  -47.4000 H   0  0  0  0  0  0  0  0  0  0  0  0
   90.9290   91.6590  -48.9760 H   0  0  0  0  0  0  0  0  0  0  0  0
   91.1300   91.0870  -46.1520 H   0  0  0  0  0  0  0  0  0  0  0  0
   93.5810   90.9920  -44.7960 H   0  0  0  0  0  0  0  0  0  0  0  0
   93.8560   92.1330  -46.1630 H   0  0  0  0  0  0  0  0  0  0  0  0
   90.7900   93.7310  -41.2620 H   0  0  0  0  0  0  0  0  0  0  0  0
   91.0450   95.5240  -41.6430 H   0  0  0  0  0  0  0  0  0  0  0  0
   93.3520   95.3190  -41.7290 H   0  0  0  0  0  0  0  0  0  0  0  0
   92.8240   94.7590  -40.1190 H   0  0  0  0  0  0  0  0  0  0  0  0
   93.9100   92.7170  -40.5170 H   0  0  0  0  0  0  0  0  0  0  0  0
   94.5180   93.4450  -42.0060 H   0  0  0  0  0  0  0  0  0  0  0  0
   91.9000   91.9460  -41.7390 H   0  0  0  0  0  0  0  0  0  0  0  0
   93.3810   91.4090  -42.6440 H   0  0  0  0  0  0  0  0  0  0  0  0
  1  2  1  0  0  0  0
  2 10  1  0  0  0  0
  3  2  2  0  0  0  0
  3  4  1  0  0  0  0
  4  8  2  0  0  0  0
  5  4  1  0  0  0  0
  5  6  2  0  0  0  0
  6  7  1  0  0  0  0
  7 25  1  0  0  0  0
  8  9  1  0  0  0  0
  8  7  1  0  0  0  0
  9 11  1  0  0  0  0
 10 26  1  0  0  0  0
 10  9  2  0  0  0  0
 11 13  1  0  0  0  0
 12 11  2  0  0  0  0
 13 27  1  0  0  0  0
 13 14  1  0  0  0  0
 14 28  1  0  0  0  0
 14 15  1  0  0  0  0
 15 16  1  0  0  0  0
 16 17  1  0  0  0  0
 16 23  1  0  0  0  0
 17 20  1  0  0  0  0
 18 17  2  0  0  0  0
 19 15  2  0  0  0  0
 19 18  1  0  0  0  0
 20 31  1  0  0  0  0
 20 30  1  0  0  0  0
 20 21  1  0  0  0  0
 21 33  1  0  0  0  0
 22 21  1  0  0  0  0
 22 34  1  0  0  0  0
 23 36  1  0  0  0  0
 23 22  1  0  0  0  0
 24  3  1  0  0  0  0
 29 14  1  0  0  0  0
 32 21  1  0  0  0  0
 35 22  1  0  0  0  0
 37 23  1  0  0  0  0
M  END
>  <Pose>
1

>  <Score>
-6.51

$$$$
