
 OpenBabel03212208273D

 50 53  0  0  1  0  0  0  0  0999 V2000
   91.7640  103.4070  -38.3790 Cl  0  0  0  0  0  0  0  0  0  0  0  0
   92.4270  102.7310  -39.8310 C   0  0  0  0  0  0  0  0  0  0  0  0
   91.7000  101.8280  -40.5930 C   0  0  0  0  0  0  0  0  0  0  0  0
   92.2140  101.2820  -41.7510 C   0  0  0  0  0  0  0  0  0  0  0  0
   93.4720  101.6560  -42.1340 C   0  0  0  0  0  0  0  0  0  0  0  0
   94.2360  102.5640  -41.3940 C   0  0  0  0  0  0  0  0  0  0  0  0
   93.6920  103.0900  -40.2440 C   0  0  0  0  0  0  0  0  0  0  0  0
   93.8320  100.9770  -43.3300 N   0  0  0  0  0  0  0  0  0  0  0  0
   92.7480  100.1400  -43.7050 C   0  0  0  0  0  0  0  0  0  0  0  0
   92.8180   99.3880  -44.7300 O   0  0  0  0  0  0  0  0  0  0  0  0
   91.6790  100.3450  -42.7370 C   0  0  2  0  0  0  0  0  0  0  0  0
   90.4570  100.8530  -43.3650 N   0  0  0  0  0  0  0  0  0  0  0  0
   89.9490   99.6560  -43.9960 C   0  0  1  0  0  0  0  0  0  0  0  0
   90.1940   98.5380  -43.0350 C   0  0  2  0  0  0  0  0  0  0  0  0
   91.1670   99.1240  -42.0570 C   0  0  1  0  0  0  0  0  0  0  0  0
   92.1970   98.0950  -41.7700 C   0  0  0  0  0  0  0  0  0  0  0  0
   93.0710   98.2740  -40.8820 O   0  0  0  0  0  0  0  0  0  0  0  0
   91.9680   97.0010  -42.6430 N   0  0  0  0  0  0  0  0  0  0  0  0
   91.0150   97.4310  -43.6230 C   0  0  0  0  0  0  0  0  0  0  0  0
   90.8560   96.9970  -44.7680 O   0  0  0  0  0  0  0  0  0  0  0  0
   92.5590   95.7200  -42.5660 C   0  0  0  0  0  0  0  0  0  0  0  0
   91.8840   94.6580  -41.7900 C   0  0  0  0  0  0  0  0  0  0  0  0
   91.9990   93.2650  -42.2760 C   0  0  0  0  0  0  0  0  0  0  0  0
   91.2190   92.9340  -43.3730 O   0  0  0  0  0  0  0  0  0  0  0  0
   92.0640   92.9460  -44.5100 C   0  0  0  0  0  0  0  0  0  0  0  0
   88.5020   99.7850  -44.3970 C   0  0  1  0  0  0  0  0  0  0  0  0
   88.1150   98.5850  -44.9790 O   0  0  0  0  0  0  0  0  0  0  0  0
   87.6040  100.1090  -43.2300 C   0  0  0  0  0  0  0  0  0  0  0  0
   90.6900  101.5320  -40.2780 H   0  0  0  0  0  0  0  0  0  0  0  0
   95.2360  102.8560  -41.7080 H   0  0  0  0  0  0  0  0  0  0  0  0
   94.3100  103.7950  -39.6880 H   0  0  0  0  0  0  0  0  0  0  0  0
   94.7490  101.0760  -43.8580 H   0  0  0  0  0  0  0  0  0  0  0  0
   89.8180  101.0890  -42.5730 H   0  0  0  0  0  0  0  0  0  0  0  0
   90.5060   99.4580  -44.9320 H   0  0  0  0  0  0  0  0  0  0  0  0
   89.2940   98.1140  -42.5860 H   0  0  0  0  0  0  0  0  0  0  0  0
   90.6590   99.4460  -41.1130 H   0  0  0  0  0  0  0  0  0  0  0  0
   93.6550   95.7660  -42.2750 H   0  0  0  0  0  0  0  0  0  0  0  0
   92.6310   95.3260  -43.6320 H   0  0  0  0  0  0  0  0  0  0  0  0
   90.8150   94.8980  -41.5440 H   0  0  0  0  0  0  0  0  0  0  0  0
   92.3680   94.6700  -40.7610 H   0  0  0  0  0  0  0  0  0  0  0  0
   93.0580   92.9940  -42.5710 H   0  0  0  0  0  0  0  0  0  0  0  0
   91.7810   92.5540  -41.4400 H   0  0  0  0  0  0  0  0  0  0  0  0
   92.4560   93.9840  -44.5560 H   0  0  0  0  0  0  0  0  0  0  0  0
   91.4950   92.7950  -45.4440 H   0  0  0  0  0  0  0  0  0  0  0  0
   92.8960   92.2450  -44.4040 H   0  0  0  0  0  0  0  0  0  0  0  0
   88.4160  100.5770  -45.1400 H   0  0  0  0  0  0  0  0  0  0  0  0
   87.5520   98.0320  -44.3790 H   0  0  0  0  0  0  0  0  0  0  0  0
   87.7840  101.1310  -42.8620 H   0  0  0  0  0  0  0  0  0  0  0  0
   87.6540   99.3440  -42.4300 H   0  0  0  0  0  0  0  0  0  0  0  0
   86.5590  100.0890  -43.6110 H   0  0  0  0  0  0  0  0  0  0  0  0
  2  1  1  0  0  0  0
  3 29  1  0  0  0  0
  3  2  2  0  0  0  0
  4  3  1  0  0  0  0
  5  4  2  0  0  0  0
  5  6  1  0  0  0  0
  6  7  2  0  0  0  0
  7  2  1  0  0  0  0
  7 31  1  0  0  0  0
  8  5  1  0  0  0  0
  9  8  1  0  0  0  0
 10  9  2  0  0  0  0
 11  9  1  6  0  0  0
 11 15  1  0  0  0  0
 11  4  1  0  0  0  0
 12 11  1  0  0  0  0
 12 33  1  0  0  0  0
 13 34  1  6  0  0  0
 13 12  1  0  0  0  0
 13 14  1  0  0  0  0
 14 35  1  1  0  0  0
 14 15  1  0  0  0  0
 15 16  1  0  0  0  0
 15 36  1  1  0  0  0
 16 17  2  0  0  0  0
 18 21  1  0  0  0  0
 18 16  1  0  0  0  0
 19 14  1  0  0  0  0
 19 18  1  0  0  0  0
 20 19  2  0  0  0  0
 21 37  1  0  0  0  0
 21 22  1  0  0  0  0
 22 39  1  0  0  0  0
 22 40  1  0  0  0  0
 23 22  1  0  0  0  0
 23 42  1  0  0  0  0
 24 23  1  0  0  0  0
 25 45  1  0  0  0  0
 25 24  1  0  0  0  0
 26 46  1  6  0  0  0
 26 13  1  0  0  0  0
 26 28  1  0  0  0  0
 27 26  1  0  0  0  0
 27 47  1  0  0  0  0
 28 48  1  0  0  0  0
 28 49  1  0  0  0  0
 30  6  1  0  0  0  0
 32  8  1  0  0  0  0
 38 21  1  0  0  0  0
 41 23  1  0  0  0  0
 43 25  1  0  0  0  0
 44 25  1  0  0  0  0
 50 28  1  0  0  0  0
M  END
>  <Pose>
1

>  <Score>
-5.44

$$$$
