
 OpenBabel03212208273D

 30 33  0  0  1  0  0  0  0  0999 V2000
   90.9730   94.7320  -45.0650 F   0  0  0  0  0  0  0  0  0  0  0  0
   90.8160   96.0980  -45.0350 C   0  0  0  0  0  0  0  0  0  0  0  0
   91.3120   96.8060  -43.9320 C   0  0  0  0  0  0  0  0  0  0  0  0
   91.1670   98.1590  -43.8830 C   0  0  0  0  0  0  0  0  0  0  0  0
   90.5270   98.8390  -44.9280 C   0  0  0  0  0  0  0  0  0  0  0  0
   90.0520   98.1240  -45.9930 C   0  0  0  0  0  0  0  0  0  0  0  0
   90.1870   96.7580  -46.0630 C   0  0  0  0  0  0  0  0  0  0  0  0
   89.5720   95.8380  -47.4420 Cl  0  0  0  0  0  0  0  0  0  0  0  0
   91.7760   98.6550  -42.6210 C   0  0  2  0  0  0  0  0  0  0  0  0
   90.7810   99.3360  -41.8530 N   0  0  0  0  0  0  0  0  0  0  0  0
   90.5200  100.7080  -42.0520 C   0  0  0  0  0  0  0  0  0  0  0  0
   89.3860  101.2990  -41.5940 N   0  0  0  0  0  0  0  0  0  0  0  0
   89.0900  102.5930  -41.7560 C   0  0  0  0  0  0  0  0  0  0  0  0
   89.9860  103.4130  -42.4320 C   0  0  0  0  0  0  0  0  0  0  0  0
   91.1510  102.8960  -42.9250 C   0  0  0  0  0  0  0  0  0  0  0  0
   91.3910  101.5540  -42.7220 C   0  0  0  0  0  0  0  0  0  0  0  0
   92.6110  100.9040  -43.2110 C   0  0  0  0  0  0  0  0  0  0  0  0
   93.4430  101.6460  -43.8360 O   0  0  0  0  0  0  0  0  0  0  0  0
   92.8640   99.5360  -43.0080 N   0  0  0  0  0  0  0  0  0  0  0  0
   92.2790   97.4480  -41.9560 C   0  0  0  0  0  0  0  0  0  0  0  0
   92.8860   97.3810  -40.8250 O   0  0  0  0  0  0  0  0  0  0  0  0
   91.9930   96.3340  -42.7620 N   0  0  0  0  0  0  0  0  0  0  0  0
   90.4250   99.9260  -44.8640 H   0  0  0  0  0  0  0  0  0  0  0  0
   89.5560   98.6370  -46.8060 H   0  0  0  0  0  0  0  0  0  0  0  0
   90.2200   98.8350  -41.1210 H   0  0  0  0  0  0  0  0  0  0  0  0
   88.1820  103.0450  -41.3850 H   0  0  0  0  0  0  0  0  0  0  0  0
   89.7740  104.4570  -42.5770 H   0  0  0  0  0  0  0  0  0  0  0  0
   91.8980  103.4700  -43.4630 H   0  0  0  0  0  0  0  0  0  0  0  0
   93.8460   99.2010  -43.1480 H   0  0  0  0  0  0  0  0  0  0  0  0
   92.2100   95.3160  -42.5940 H   0  0  0  0  0  0  0  0  0  0  0  0
  1  2  1  0  0  0  0
  2  3  1  0  0  0  0
  3  4  2  0  0  0  0
  3 22  1  0  0  0  0
  5 23  1  0  0  0  0
  5  4  1  0  0  0  0
  6  5  2  0  0  0  0
  7  6  1  0  0  0  0
  7  2  2  0  0  0  0
  8  7  1  0  0  0  0
  9  4  1  6  0  0  0
  9 20  1  0  0  0  0
  9 10  1  0  0  0  0
 10 25  1  0  0  0  0
 11 10  1  0  0  0  0
 11 12  1  0  0  0  0
 13 12  2  0  0  0  0
 13 26  1  0  0  0  0
 14 13  1  0  0  0  0
 15 16  1  0  0  0  0
 15 14  2  0  0  0  0
 16 11  2  0  0  0  0
 17 19  1  0  0  0  0
 17 16  1  0  0  0  0
 18 17  2  0  0  0  0
 19  9  1  0  0  0  0
 20 21  2  0  0  0  0
 22 30  1  0  0  0  0
 22 20  1  0  0  0  0
 24  6  1  0  0  0  0
 27 14  1  0  0  0  0
 28 15  1  0  0  0  0
 29 19  1  0  0  0  0
M  END
>  <Pose>
1

>  <Score>
-5.65

$$$$
