
 OpenBabel03212208273D

 43 46  0  0  1  0  0  0  0  0999 V2000
   91.5810   91.9170  -46.9410 Cl  0  0  0  0  0  0  0  0  0  0  0  0
   91.6620   92.9140  -45.5120 C   0  0  0  0  0  0  0  0  0  0  0  0
   92.1140   92.4420  -44.3580 N   0  0  0  0  0  4  0  0  0  0  0  0
   92.2100   93.1350  -43.2190 C   0  0  0  0  0  0  0  0  0  0  0  0
   92.6240   92.8730  -41.9680 N   0  0  0  0  0  0  0  0  0  0  0  0
   92.4920   93.9800  -41.2180 C   0  0  0  0  0  0  0  0  0  0  0  0
   91.9890   94.9330  -42.0240 N   0  0  0  0  0  0  0  0  0  0  0  0
   91.7970   94.4640  -43.2660 C   0  0  1  0  0  0  0  0  0  0  0  0
   91.3280   94.9630  -44.4570 C   0  0  0  0  0  0  0  0  0  0  0  0
   91.2610   94.2050  -45.5600 N   0  0  0  0  0  0  0  0  0  0  0  0
   90.9120   96.3490  -44.4630 N   0  0  0  0  0  0  0  0  0  0  0  0
   91.7170   97.3120  -45.1150 C   0  0  0  0  0  0  0  0  0  0  0  0
   91.0460   98.5320  -45.5370 C   0  0  0  0  0  0  0  0  0  0  0  0
   91.2790   98.8210  -46.8360 O   0  0  0  0  0  0  0  0  0  0  0  0
   90.2440   99.4160  -44.8700 N   0  0  0  0  0  0  0  0  0  0  0  0
   90.1930   99.6850  -43.4740 C   0  0  0  0  0  0  0  0  0  0  0  0
   88.8430   99.3010  -42.8720 C   0  0  0  0  0  0  0  0  0  0  0  0
   87.8860   99.4990  -43.9220 N   0  0  0  0  0  0  0  0  0  0  0  0
   88.0990  100.5940  -44.8230 C   0  0  0  0  0  0  0  0  0  0  0  0
   89.2700  100.1950  -45.7260 C   0  0  0  0  0  0  0  0  0  0  0  0
   86.7620   98.6700  -44.0910 C   0  0  0  0  0  0  0  0  0  0  0  0
   85.7690   98.6040  -43.1570 N   0  0  0  0  0  0  0  0  0  0  0  0
   84.6910   97.8470  -43.2540 C   0  0  0  0  0  0  0  0  0  0  0  0
   84.4770   97.0400  -44.3360 C   0  0  0  0  0  0  0  0  0  0  0  0
   85.4490   97.0590  -45.3250 C   0  0  0  0  0  0  0  0  0  0  0  0
   86.5720   97.8620  -45.2020 C   0  0  0  0  0  0  0  0  0  0  0  0
   92.7330   94.1210  -40.1620 H   0  0  0  0  0  0  0  0  0  0  0  0
   91.7570   95.9300  -41.7690 H   0  0  0  0  0  0  0  0  0  0  0  0
   90.0460   96.6180  -43.9880 H   0  0  0  0  0  0  0  0  0  0  0  0
   92.6570   97.5420  -44.5190 H   0  0  0  0  0  0  0  0  0  0  0  0
   92.0760   96.8110  -46.0850 H   0  0  0  0  0  0  0  0  0  0  0  0
   90.9750   99.2030  -42.9230 H   0  0  0  0  0  0  0  0  0  0  0  0
   90.2760  100.8270  -43.3490 H   0  0  0  0  0  0  0  0  0  0  0  0
   88.6010  100.0060  -42.0410 H   0  0  0  0  0  0  0  0  0  0  0  0
   88.9050   98.3010  -42.4700 H   0  0  0  0  0  0  0  0  0  0  0  0
   88.4140  101.5220  -44.3010 H   0  0  0  0  0  0  0  0  0  0  0  0
   87.2230  100.7520  -45.4730 H   0  0  0  0  0  0  0  0  0  0  0  0
   89.7640  101.0780  -46.1080 H   0  0  0  0  0  0  0  0  0  0  0  0
   88.9700   99.4910  -46.5080 H   0  0  0  0  0  0  0  0  0  0  0  0
   83.9400   97.8570  -42.4520 H   0  0  0  0  0  0  0  0  0  0  0  0
   83.6040   96.4330  -44.4060 H   0  0  0  0  0  0  0  0  0  0  0  0
   85.2970   96.4180  -46.2050 H   0  0  0  0  0  0  0  0  0  0  0  0
   87.2870   97.8410  -45.9830 H   0  0  0  0  0  0  0  0  0  0  0  0
  1  2  1  0  0  0  0
  2  3  2  0  0  0  0
  3  4  2  0  0  0  0
  4  5  1  0  0  0  0
  5  6  2  0  0  0  0
  6 27  1  0  0  0  0
  7 28  1  0  0  0  0
  7  6  1  0  0  0  0
  8  9  1  6  0  0  0
  8  4  1  0  0  0  0
  8  7  1  0  0  0  0
 10  2  1  0  0  0  0
 10  9  2  0  0  0  0
 11  9  1  0  0  0  0
 11 29  1  0  0  0  0
 12 30  1  0  0  0  0
 12 11  1  0  0  0  0
 13 12  1  0  0  0  0
 13 15  1  0  0  0  0
 14 13  2  0  0  0  0
 15 16  1  0  0  0  0
 16 33  1  0  0  0  0
 16 32  1  0  0  0  0
 16 17  1  0  0  0  0
 17 35  1  0  0  0  0
 17 34  1  0  0  0  0
 18 17  1  0  0  0  0
 19 36  1  0  0  0  0
 19 18  1  0  0  0  0
 20 15  1  0  0  0  0
 20 19  1  0  0  0  0
 21 18  1  0  0  0  0
 21 22  1  0  0  0  0
 23 22  2  0  0  0  0
 23 40  1  0  0  0  0
 24 23  1  0  0  0  0
 25 26  1  0  0  0  0
 25 24  2  0  0  0  0
 26 21  2  0  0  0  0
 31 12  1  0  0  0  0
 37 19  1  0  0  0  0
 38 20  1  0  0  0  0
 39 20  1  0  0  0  0
 41 24  1  0  0  0  0
 42 25  1  0  0  0  0
 43 26  1  0  0  0  0
M  END
>  <Pose>
1

>  <Score>
-6.27

$$$$
