
 OpenBabel03212208273D

 53 56  0  0  1  0  0  0  0  0999 V2000
   90.5290   96.4640  -45.8320 B   0  0  0  0  0  0  0  0  0  0  0  0
   91.2110   94.7740  -45.2780 C   0  0  0  0  0  0  0  0  0  0  0  0
   91.7270   94.6620  -44.0060 C   0  0  0  0  0  0  0  0  0  0  0  0
   92.2160   93.4340  -43.6200 C   0  0  0  0  0  0  0  0  0  0  0  0
   92.1880   92.3410  -44.4920 C   0  0  0  0  0  0  0  0  0  0  0  0
   91.6640   92.4860  -45.7620 C   0  0  0  0  0  0  0  0  0  0  0  0
   91.1760   93.6960  -46.1590 C   0  0  0  0  0  0  0  0  0  0  0  0
   91.6230   91.3330  -46.7140 C   0  0  0  0  0  0  0  0  0  0  0  0
   92.9360   93.2440  -41.8690 B   0  0  0  0  0  0  0  0  0  0  0  0
   91.7430   95.7330  -43.1770 O   0  0  0  0  0  0  0  0  0  0  0  0
   92.6190   95.9850  -42.1170 C   0  0  0  0  0  0  0  0  0  0  0  0
   92.0000   97.1190  -41.2990 C   0  0  1  0  0  0  0  0  0  0  0  0
   92.6720   97.2970  -40.0910 O   0  0  0  0  0  0  0  0  0  0  0  0
   92.1120   98.3570  -42.1300 C   0  0  0  0  0  0  0  0  0  0  0  0
   91.2020   99.4140  -41.7340 N   0  0  0  0  0  4  0  0  0  0  0  0
   91.9720  100.6060  -41.6050 C   0  0  0  0  0  0  0  0  0  0  0  0
   91.4310  101.7980  -42.3290 C   0  0  1  0  0  0  0  0  0  0  0  0
   91.5830  101.7450  -43.8070 C   0  0  0  0  0  0  0  0  0  0  0  0
   90.3520  101.6410  -44.5400 N   0  0  0  0  0  0  0  0  0  0  0  0
   89.1990  101.1660  -44.0340 C   0  0  0  0  0  0  0  0  0  0  0  0
   88.0290  101.0670  -44.7300 C   0  0  0  0  0  0  0  0  0  0  0  0
   88.0060  101.4790  -46.0470 C   0  0  0  0  0  0  0  0  0  0  0  0
   89.1790  101.9670  -46.5710 C   0  0  0  0  0  0  0  0  0  0  0  0
   90.3400  102.0520  -45.8410 C   0  0  0  0  0  0  0  0  0  0  0  0
   91.3960  102.5030  -46.3550 O   0  0  0  0  0  0  0  0  0  0  0  0
   89.2920  100.7300  -42.5890 C   0  0  1  0  0  0  0  0  0  0  0  0
   90.0630   99.4700  -42.5670 C   0  0  0  0  0  0  0  0  0  0  0  0
   89.9620  101.8940  -41.9010 C   0  0  0  0  0  0  0  0  0  0  0  0
   92.5700   91.3750  -44.1990 H   0  0  0  0  0  0  0  0  0  0  0  0
   90.7710   93.7790  -47.1630 H   0  0  0  0  0  0  0  0  0  0  0  0
   91.9080   91.6960  -47.7190 H   0  0  0  0  0  0  0  0  0  0  0  0
   90.5620   90.9640  -46.8040 H   0  0  0  0  0  0  0  0  0  0  0  0
   92.2690   90.4940  -46.3690 H   0  0  0  0  0  0  0  0  0  0  0  0
   92.8540   95.1140  -41.4940 H   0  0  0  0  0  0  0  0  0  0  0  0
   93.5700   96.3810  -42.5250 H   0  0  0  0  0  0  0  0  0  0  0  0
   90.9800   96.8120  -41.0650 H   0  0  0  0  0  0  0  0  0  0  0  0
   91.9790   97.5870  -39.4320 H   0  0  0  0  0  0  0  0  0  0  0  0
   93.1440   98.7490  -42.0320 H   0  0  0  0  0  0  0  0  0  0  0  0
   91.9520   98.1620  -43.2090 H   0  0  0  0  0  0  0  0  0  0  0  0
   90.8740   99.1420  -40.7580 H   0  0  0  0  0  0  0  0  0  0  0  0
   92.0940  100.9180  -40.5250 H   0  0  0  0  0  0  0  0  0  0  0  0
   93.0390  100.4820  -41.9560 H   0  0  0  0  0  0  0  0  0  0  0  0
   91.9220  102.7100  -41.8810 H   0  0  0  0  0  0  0  0  0  0  0  0
   92.0710  102.7060  -44.1440 H   0  0  0  0  0  0  0  0  0  0  0  0
   92.3010  100.9490  -44.1450 H   0  0  0  0  0  0  0  0  0  0  0  0
   87.1600  100.6690  -44.2270 H   0  0  0  0  0  0  0  0  0  0  0  0
   87.0850  101.4040  -46.6030 H   0  0  0  0  0  0  0  0  0  0  0  0
   89.1960  102.3000  -47.6060 H   0  0  0  0  0  0  0  0  0  0  0  0
   88.2660  100.6560  -42.1690 H   0  0  0  0  0  0  0  0  0  0  0  0
   89.3470   98.6640  -42.2220 H   0  0  0  0  0  0  0  0  0  0  0  0
   90.3730   99.1130  -43.5930 H   0  0  0  0  0  0  0  0  0  0  0  0
   89.8940  101.8660  -40.8140 H   0  0  0  0  0  0  0  0  0  0  0  0
   89.6040  102.8690  -42.3290 H   0  0  0  0  0  0  0  0  0  0  0  0
  1  2  1  0  0  0  0
  2  3  1  0  0  0  0
  3  4  2  0  0  0  0
  3 10  1  0  0  0  0
  4  9  1  0  0  0  0
  5 29  1  0  0  0  0
  5  4  1  0  0  0  0
  6  5  2  0  0  0  0
  7  6  1  0  0  0  0
  7  2  2  0  0  0  0
  8 33  1  0  0  0  0
  8  6  1  0  0  0  0
 10 11  1  0  0  0  0
 11 34  1  0  0  0  0
 11 12  1  0  0  0  0
 12 36  1  1  0  0  0
 12 13  1  0  0  0  0
 13 37  1  0  0  0  0
 14 38  1  0  0  0  0
 14 15  1  0  0  0  0
 14 12  1  0  0  0  0
 15 16  1  0  0  0  0
 15 40  1  0  0  0  0
 16 41  1  0  0  0  0
 17 28  1  0  0  0  0
 17 43  1  1  0  0  0
 17 16  1  0  0  0  0
 18 17  1  0  0  0  0
 19 20  1  0  0  0  0
 19 18  1  0  0  0  0
 20 26  1  0  0  0  0
 21 46  1  0  0  0  0
 21 20  2  0  0  0  0
 22 21  1  0  0  0  0
 23 22  2  0  0  0  0
 23 24  1  0  0  0  0
 24 19  1  0  0  0  0
 25 24  2  0  0  0  0
 26 27  1  0  0  0  0
 26 49  1  1  0  0  0
 26 28  1  0  0  0  0
 27 50  1  0  0  0  0
 27 15  1  0  0  0  0
 28 52  1  0  0  0  0
 30  7  1  0  0  0  0
 31  8  1  0  0  0  0
 32  8  1  0  0  0  0
 35 11  1  0  0  0  0
 39 14  1  0  0  0  0
 42 16  1  0  0  0  0
 44 18  1  0  0  0  0
 45 18  1  0  0  0  0
 47 22  1  0  0  0  0
 48 23  1  0  0  0  0
 51 27  1  0  0  0  0
 53 28  1  0  0  0  0
M  END
>  <Pose>
1

>  <Score>
-5.75

$$$$
