
 OpenBabel03212208273D

 54 58  0  0  1  0  0  0  0  0999 V2000
   85.7790   97.3130  -45.1680 Cl  0  0  0  0  0  0  0  0  0  0  0  0
   86.4350   98.6360  -44.1890 C   0  0  0  0  0  0  0  0  0  0  0  0
   87.7710   98.6870  -43.8780 C   0  0  0  0  0  0  0  0  0  0  0  0
   88.2700   99.7130  -43.1210 C   0  0  0  0  0  0  0  0  0  0  0  0
   87.4210  100.6930  -42.6740 C   0  0  0  0  0  0  0  0  0  0  0  0
   86.0590  100.6680  -42.9740 C   0  0  0  0  0  0  0  0  0  0  0  0
   85.5880   99.6240  -43.7370 C   0  0  0  0  0  0  0  0  0  0  0  0
   88.1140  101.6620  -41.9090 N   0  0  0  0  0  0  0  0  0  0  0  0
   89.4750  101.2560  -41.8820 C   0  0  0  0  0  0  0  0  0  0  0  0
   90.4010  101.8570  -41.2970 O   0  0  0  0  0  0  0  0  0  0  0  0
   89.6430  100.0080  -42.6500 C   0  0  1  0  0  0  0  0  0  0  0  0
   90.1920   98.9380  -41.8540 N   0  0  0  0  0  0  0  0  0  0  0  0
   91.0650   98.1770  -42.6910 C   0  0  1  0  0  0  0  0  0  0  0  0
   91.6770   99.1410  -43.6810 C   0  0  2  0  0  0  0  0  0  0  0  0
   90.6210  100.2150  -43.7480 C   0  0  1  0  0  0  0  0  0  0  0  0
   90.0380  100.1460  -45.1110 C   0  0  0  0  0  0  0  0  0  0  0  0
   88.9320  100.5790  -45.5220 O   0  0  0  0  0  0  0  0  0  0  0  0
   91.0150   99.4620  -45.9220 N   0  0  0  0  0  0  0  0  0  0  0  0
   91.7690   98.5880  -45.0570 C   0  0  0  0  0  0  0  0  0  0  0  0
   92.3970   97.5480  -45.3830 O   0  0  0  0  0  0  0  0  0  0  0  0
   91.2200   99.6110  -47.3470 C   0  0  0  0  0  0  0  0  0  0  0  0
   92.2130  100.6950  -47.6110 C   0  0  0  0  0  0  0  0  0  0  0  0
   93.1880  100.5400  -48.5740 C   0  0  0  0  0  0  0  0  0  0  0  0
   94.0960  101.5600  -48.8010 C   0  0  0  0  0  0  0  0  0  0  0  0
   94.0600  102.7430  -48.0890 C   0  0  0  0  0  0  0  0  0  0  0  0
   93.0910  102.9080  -47.1250 C   0  0  0  0  0  0  0  0  0  0  0  0
   92.1940  101.8870  -46.9090 C   0  0  0  0  0  0  0  0  0  0  0  0
   93.2230   99.3420  -49.2940 O   0  0  0  0  0  0  0  0  0  0  0  0
   93.6150   99.3880  -50.6700 C   0  0  0  0  0  0  0  0  0  0  0  0
   92.1250   97.4510  -41.8890 C   0  0  2  0  0  0  0  0  0  0  0  0
   91.4760   96.5240  -41.0790 O   0  0  0  0  0  0  0  0  0  0  0  0
   92.7410   98.4840  -40.9520 C   0  0  0  0  0  0  0  0  0  0  0  0
   88.3770   97.8790  -44.2670 H   0  0  0  0  0  0  0  0  0  0  0  0
   85.3840  101.4380  -42.6250 H   0  0  0  0  0  0  0  0  0  0  0  0
   84.5310   99.5470  -44.0060 H   0  0  0  0  0  0  0  0  0  0  0  0
   87.7360  102.5320  -41.4330 H   0  0  0  0  0  0  0  0  0  0  0  0
   89.4400   98.3720  -41.4490 H   0  0  0  0  0  0  0  0  0  0  0  0
   90.4970   97.4290  -43.2430 H   0  0  0  0  0  0  0  0  0  0  0  0
   92.6620   99.5140  -43.3420 H   0  0  0  0  0  0  0  0  0  0  0  0
   91.1540  101.1820  -43.5770 H   0  0  0  0  0  0  0  0  0  0  0  0
   91.5970   98.6830  -47.8280 H   0  0  0  0  0  0  0  0  0  0  0  0
   90.2760   99.8610  -47.8770 H   0  0  0  0  0  0  0  0  0  0  0  0
   94.8600  101.4480  -49.5480 H   0  0  0  0  0  0  0  0  0  0  0  0
   94.7600  103.5510  -48.2510 H   0  0  0  0  0  0  0  0  0  0  0  0
   93.0110  103.8130  -46.5330 H   0  0  0  0  0  0  0  0  0  0  0  0
   91.4510  102.0250  -46.1660 H   0  0  0  0  0  0  0  0  0  0  0  0
   92.9040  100.0470  -51.1950 H   0  0  0  0  0  0  0  0  0  0  0  0
   93.5920   98.3520  -51.0710 H   0  0  0  0  0  0  0  0  0  0  0  0
   94.6240   99.7850  -50.8000 H   0  0  0  0  0  0  0  0  0  0  0  0
   92.8690   96.9540  -42.5190 H   0  0  0  0  0  0  0  0  0  0  0  0
   90.8800   96.9930  -40.4520 H   0  0  0  0  0  0  0  0  0  0  0  0
   92.8770   98.0590  -39.9260 H   0  0  0  0  0  0  0  0  0  0  0  0
   93.6850   98.8910  -41.3630 H   0  0  0  0  0  0  0  0  0  0  0  0
   92.0550   99.3540  -40.8160 H   0  0  0  0  0  0  0  0  0  0  0  0
  1  2  1  0  0  0  0
  2  3  2  0  0  0  0
  2  7  1  0  0  0  0
  3  4  1  0  0  0  0
  4  5  2  0  0  0  0
  5  8  1  0  0  0  0
  6  5  1  0  0  0  0
  6 34  1  0  0  0  0
  7  6  2  0  0  0  0
  8  9  1  0  0  0  0
  8 36  1  0  0  0  0
  9 10  2  0  0  0  0
 11  4  1  6  0  0  0
 11  9  1  0  0  0  0
 11 12  1  0  0  0  0
 12 37  1  0  0  0  0
 13 38  1  6  0  0  0
 13 30  1  0  0  0  0
 13 12  1  0  0  0  0
 14 39  1  1  0  0  0
 14 13  1  0  0  0  0
 15 14  1  0  0  0  0
 15 40  1  1  0  0  0
 15 11  1  0  0  0  0
 16 15  1  0  0  0  0
 17 16  2  0  0  0  0
 18 16  1  0  0  0  0
 18 19  1  0  0  0  0
 19 14  1  0  0  0  0
 20 19  2  0  0  0  0
 21 18  1  0  0  0  0
 22 21  1  0  0  0  0
 22 27  1  0  0  0  0
 23 22  2  0  0  0  0
 24 23  1  0  0  0  0
 24 25  2  0  0  0  0
 25 26  1  0  0  0  0
 26 27  2  0  0  0  0
 26 45  1  0  0  0  0
 27 46  1  0  0  0  0
 28 23  1  0  0  0  0
 29 28  1  0  0  0  0
 30 50  1  6  0  0  0
 30 31  1  0  0  0  0
 30 32  1  0  0  0  0
 31 51  1  0  0  0  0
 32 54  1  0  0  0  0
 32 52  1  0  0  0  0
 33  3  1  0  0  0  0
 35  7  1  0  0  0  0
 41 21  1  0  0  0  0
 42 21  1  0  0  0  0
 43 24  1  0  0  0  0
 44 25  1  0  0  0  0
 47 29  1  0  0  0  0
 48 29  1  0  0  0  0
 49 29  1  0  0  0  0
 53 32  1  0  0  0  0
M  END
>  <Pose>
1

>  <Score>
-5.28

$$$$
