
 OpenBabel03212208273D

 47 51  0  0  1  0  0  0  0  0999 V2000
   91.8980   93.1480  -42.4530 I   0  0  0  0  0  0  0  0  0  0  0  0
   91.9490   95.2510  -42.3690 C   0  0  0  0  0  0  0  0  0  0  0  0
   91.7520   96.0260  -43.4940 C   0  0  0  0  0  0  0  0  0  0  0  0
   91.7850   97.4210  -43.4410 C   0  0  0  0  0  0  0  0  0  0  0  0
   92.0170   98.0320  -42.2510 C   0  0  0  0  0  0  0  0  0  0  0  0
   92.2140   97.2450  -41.1310 C   0  0  0  0  0  0  0  0  0  0  0  0
   92.1850   95.8670  -41.1610 C   0  0  0  0  0  0  0  0  0  0  0  0
   92.0710   99.4640  -42.0910 N   0  0  0  0  0  0  0  0  0  0  0  0
   91.5120  100.1720  -41.1260 N   0  0  0  0  0  0  0  0  0  0  0  0
   91.7530  101.4900  -41.2700 C   0  0  0  0  0  0  0  0  0  0  0  0
   91.3660  102.4910  -40.5150 C   0  0  0  0  0  0  0  0  0  0  0  0
   92.5210  101.6240  -42.4100 C   0  0  2  0  0  0  0  0  0  0  0  0
   92.9850  102.7740  -42.9220 C   0  0  0  0  0  0  0  0  0  0  0  0
   93.7590  102.6710  -44.1100 N   0  0  0  0  0  4  0  0  0  0  0  0
   93.6340  103.7130  -45.1160 C   0  0  1  0  0  0  0  0  0  0  0  0
   92.1680  103.9280  -45.4600 C   0  0  0  0  0  0  0  0  0  0  0  0
   92.0600  105.0010  -46.4100 N   0  0  2  0  0  0  0  0  0  0  0  0
   92.7980  104.6020  -47.6030 C   0  0  0  0  0  0  0  0  0  0  0  0
   94.1970  104.4310  -47.3270 N   0  0  1  0  0  0  0  0  0  0  0  0
   94.7520  105.6350  -46.7480 C   0  0  0  0  0  0  0  0  0  0  0  0
   94.0520  106.0350  -45.5560 N   0  0  1  0  0  0  0  0  0  0  0  0
   92.6260  106.1940  -45.8230 C   0  0  0  0  0  0  0  0  0  0  0  0
   94.1940  105.0020  -44.5560 C   0  0  0  0  0  0  0  0  0  0  0  0
   94.3500  103.3530  -46.3830 C   0  0  0  0  0  0  0  0  0  0  0  0
   92.6960  100.3450  -42.8900 C   0  0  0  0  0  0  0  0  0  0  0  0
   93.3440  100.0380  -43.9230 O   0  0  0  0  0  0  0  0  0  0  0  0
   91.5690   95.4950  -44.4220 H   0  0  0  0  0  0  0  0  0  0  0  0
   91.6280   98.0130  -44.3300 H   0  0  0  0  0  0  0  0  0  0  0  0
   92.3990   97.7460  -40.1830 H   0  0  0  0  0  0  0  0  0  0  0  0
   92.3440   95.2690  -40.2550 H   0  0  0  0  0  0  0  0  0  0  0  0
   90.9470   99.7790  -40.3370 H   0  0  0  0  0  0  0  0  0  0  0  0
   91.6420  103.4990  -40.7640 H   0  0  0  0  0  0  0  0  0  0  0  0
   90.7670  102.3290  -39.6350 H   0  0  0  0  0  0  0  0  0  0  0  0
   92.7760  103.7240  -42.4440 H   0  0  0  0  0  0  0  0  0  0  0  0
   94.4160  101.8910  -44.3110 H   0  0  0  0  0  0  0  0  0  0  0  0
   91.8030  102.9580  -45.8700 H   0  0  0  0  0  0  0  0  0  0  0  0
   91.6190  104.0940  -44.5230 H   0  0  0  0  0  0  0  0  0  0  0  0
   92.5950  105.2710  -48.4620 H   0  0  0  0  0  0  0  0  0  0  0  0
   92.3840  103.5920  -47.8870 H   0  0  0  0  0  0  0  0  0  0  0  0
   94.6740  106.4790  -47.4810 H   0  0  0  0  0  0  0  0  0  0  0  0
   95.8130  105.4610  -46.4870 H   0  0  0  0  0  0  0  0  0  0  0  0
   92.1350  106.3350  -44.8290 H   0  0  0  0  0  0  0  0  0  0  0  0
   92.4140  107.1000  -46.4280 H   0  0  0  0  0  0  0  0  0  0  0  0
   95.2830  104.8650  -44.3700 H   0  0  0  0  0  0  0  0  0  0  0  0
   93.6430  105.2370  -43.6270 H   0  0  0  0  0  0  0  0  0  0  0  0
   93.9320  102.4000  -46.7640 H   0  0  0  0  0  0  0  0  0  0  0  0
   95.4400  103.1850  -46.2080 H   0  0  0  0  0  0  0  0  0  0  0  0
  1  2  1  0  0  0  0
  2  7  1  0  0  0  0
  3  4  1  0  0  0  0
  3  2  2  0  0  0  0
  4  5  2  0  0  0  0
  5  8  1  0  0  0  0
  5  6  1  0  0  0  0
  6 29  1  0  0  0  0
  7  6  2  0  0  0  0
  7 30  1  0  0  0  0
  8  9  1  0  0  0  0
  9 31  1  0  0  0  0
 10  9  1  0  0  0  0
 10 11  2  0  0  0  0
 11 33  1  0  0  0  0
 12 13  1  6  0  0  0
 12 10  1  0  0  0  0
 13 34  1  0  0  0  0
 14 13  2  0  0  0  0
 15 23  1  0  0  0  0
 15 14  1  1  0  0  0
 16 15  1  0  0  0  0
 16 37  1  0  0  0  0
 17 18  1  6  0  0  0
 17 22  1  0  0  0  0
 17 16  1  0  0  0  0
 19 18  1  1  0  0  0
 19 20  1  0  0  0  0
 19 24  1  0  0  0  0
 20 41  1  0  0  0  0
 21 20  1  6  0  0  0
 21 23  1  0  0  0  0
 22 21  1  0  0  0  0
 22 42  1  0  0  0  0
 23 44  1  0  0  0  0
 23 45  1  0  0  0  0
 24 47  1  0  0  0  0
 24 15  1  0  0  0  0
 25 12  1  0  0  0  0
 25  8  1  0  0  0  0
 26 25  2  0  0  0  0
 27  3  1  0  0  0  0
 28  4  1  0  0  0  0
 32 11  1  0  0  0  0
 35 14  1  0  0  0  0
 36 16  1  0  0  0  0
 38 18  1  0  0  0  0
 39 18  1  0  0  0  0
 40 20  1  0  0  0  0
 43 22  1  0  0  0  0
 46 24  1  0  0  0  0
M  END
>  <Pose>
1

>  <Score>
-5.02

$$$$
