
 OpenBabel03212208273D

 61 64  0  0  1  0  0  0  0  0999 V2000
   90.6070   97.9510  -44.5650 S   0  0  0  0  0  0  0  0  0  0  0  0
   91.2050   96.5790  -44.8710 O   0  0  0  0  0  0  0  0  0  0  0  0
   91.2180   98.8540  -45.6390 O   0  0  0  0  0  0  0  0  0  0  0  0
   91.0600   98.5300  -43.0770 N   0  0  0  0  0  0  0  0  0  0  0  0
   92.3590   98.7310  -42.6520 C   0  0  1  0  0  0  0  0  0  0  0  0
   92.5230  100.2530  -42.5350 C   0  0  0  0  0  0  0  0  0  0  0  0
   91.1590  100.6660  -42.0260 C   0  0  0  0  0  0  0  0  0  0  0  0
   90.2230   99.6190  -42.5810 C   0  0  0  0  0  0  0  0  0  0  0  0
   92.5110   98.1290  -41.2650 C   0  0  0  0  0  0  0  0  0  0  0  0
   93.3770   98.6460  -40.5470 O   0  0  0  0  0  0  0  0  0  0  0  0
   91.6890   97.0550  -40.8820 N   0  0  0  0  0  0  0  0  0  0  0  0
   92.2430   95.7310  -40.7400 C   0  0  0  0  0  0  0  0  0  0  0  0
   91.6310   94.6830  -41.5890 C   0  0  0  0  0  0  0  0  0  0  0  0
   92.5220   93.8880  -42.3580 N   0  0  0  0  0  0  0  0  0  0  0  0
   91.9110   92.9570  -43.2490 C   0  0  0  0  0  0  0  0  0  0  0  0
   92.7210   92.9410  -44.5300 C   0  0  0  0  0  0  0  0  0  0  0  0
   94.1780   92.7130  -44.1830 C   0  0  0  0  0  0  0  0  0  0  0  0
   94.2580   91.5760  -43.2000 C   0  0  0  0  0  0  0  0  0  0  0  0
   93.9510   91.9490  -41.7970 C   0  0  0  0  0  0  0  0  0  0  0  0
   93.5850   93.3670  -41.5630 C   0  0  0  0  0  0  0  0  0  0  0  0
   88.8940   97.9020  -44.8550 C   0  0  0  0  0  0  0  0  0  0  0  0
   88.0370   98.5580  -43.9550 C   0  0  0  0  0  0  0  0  0  0  0  0
   86.6750   98.5350  -44.0480 C   0  0  0  0  0  0  0  0  0  0  0  0
   86.1260   97.8200  -45.0970 C   0  0  0  0  0  0  0  0  0  0  0  0
   86.8970   97.1610  -46.0070 C   0  0  0  0  0  0  0  0  0  0  0  0
   88.2790   97.2180  -45.8650 C   0  0  0  0  0  0  0  0  0  0  0  0
   89.2000   96.4360  -47.1310 Cl  0  0  0  0  0  0  0  0  0  0  0  0
   84.6950   97.7920  -45.2110 N   0  0  0  0  0  0  0  0  0  0  0  0
   83.9010   98.4920  -44.2560 C   0  0  0  0  0  0  0  0  0  0  0  0
   82.7260   98.1430  -44.0470 O   0  0  0  0  0  0  0  0  0  0  0  0
   84.5370   99.6290  -43.5440 C   0  0  0  0  0  0  0  0  0  0  0  0
   85.8350   99.1850  -43.1570 O   0  0  0  0  0  0  0  0  0  0  0  0
   93.1990   98.4160  -43.2740 H   0  0  0  0  0  0  0  0  0  0  0  0
   93.3560  100.5470  -41.9070 H   0  0  0  0  0  0  0  0  0  0  0  0
   92.6830  100.6400  -43.5570 H   0  0  0  0  0  0  0  0  0  0  0  0
   91.2200  100.6340  -40.9120 H   0  0  0  0  0  0  0  0  0  0  0  0
   90.8470  101.6520  -42.3920 H   0  0  0  0  0  0  0  0  0  0  0  0
   89.5850  100.0270  -43.3970 H   0  0  0  0  0  0  0  0  0  0  0  0
   89.6040   99.2090  -41.7650 H   0  0  0  0  0  0  0  0  0  0  0  0
   90.6720   97.1640  -40.6950 H   0  0  0  0  0  0  0  0  0  0  0  0
   93.3290   95.8050  -41.0410 H   0  0  0  0  0  0  0  0  0  0  0  0
   92.2540   95.3950  -39.6910 H   0  0  0  0  0  0  0  0  0  0  0  0
   90.9010   95.1480  -42.2640 H   0  0  0  0  0  0  0  0  0  0  0  0
   91.0510   93.9850  -40.9250 H   0  0  0  0  0  0  0  0  0  0  0  0
   90.8420   93.1580  -43.4360 H   0  0  0  0  0  0  0  0  0  0  0  0
   91.9710   91.9420  -42.8070 H   0  0  0  0  0  0  0  0  0  0  0  0
   92.4230   92.0740  -45.1860 H   0  0  0  0  0  0  0  0  0  0  0  0
   92.5670   93.8440  -45.1480 H   0  0  0  0  0  0  0  0  0  0  0  0
   94.8120   92.5310  -45.0420 H   0  0  0  0  0  0  0  0  0  0  0  0
   94.5470   93.6230  -43.6670 H   0  0  0  0  0  0  0  0  0  0  0  0
   95.2750   91.1040  -43.3360 H   0  0  0  0  0  0  0  0  0  0  0  0
   93.5380   90.7810  -43.5140 H   0  0  0  0  0  0  0  0  0  0  0  0
   93.1970   91.2490  -41.3330 H   0  0  0  0  0  0  0  0  0  0  0  0
   94.8830   91.7530  -41.1890 H   0  0  0  0  0  0  0  0  0  0  0  0
   94.4680   94.0280  -41.6770 H   0  0  0  0  0  0  0  0  0  0  0  0
   93.2980   93.4570  -40.4820 H   0  0  0  0  0  0  0  0  0  0  0  0
   88.4900   99.1170  -43.1330 H   0  0  0  0  0  0  0  0  0  0  0  0
   86.4290   96.6100  -46.8170 H   0  0  0  0  0  0  0  0  0  0  0  0
   84.2640   97.2530  -46.0020 H   0  0  0  0  0  0  0  0  0  0  0  0
   83.9820   99.9760  -42.6720 H   0  0  0  0  0  0  0  0  0  0  0  0
   84.7090  100.4600  -44.2820 H   0  0  0  0  0  0  0  0  0  0  0  0
  1  4  1  0  0  0  0
  2  1  2  0  0  0  0
  3  1  2  0  0  0  0
  4  5  1  0  0  0  0
  4  8  1  0  0  0  0
  5 33  1  6  0  0  0
  5  6  1  0  0  0  0
  5  9  1  0  0  0  0
  6  7  1  0  0  0  0
  6 34  1  0  0  0  0
  7 36  1  0  0  0  0
  8  7  1  0  0  0  0
  8 39  1  0  0  0  0
  9 11  1  0  0  0  0
  9 10  2  0  0  0  0
 11 12  1  0  0  0  0
 11 40  1  0  0  0  0
 12 42  1  0  0  0  0
 13 44  1  0  0  0  0
 13 12  1  0  0  0  0
 14 13  1  0  0  0  0
 14 20  1  0  0  0  0
 15 46  1  0  0  0  0
 15 14  1  0  0  0  0
 16 17  1  0  0  0  0
 16 15  1  0  0  0  0
 17 50  1  0  0  0  0
 17 18  1  0  0  0  0
 18 19  1  0  0  0  0
 19 20  1  0  0  0  0
 19 53  1  0  0  0  0
 19 54  1  0  0  0  0
 20 56  1  0  0  0  0
 21  1  1  0  0  0  0
 21 22  1  0  0  0  0
 22 57  1  0  0  0  0
 23 22  2  0  0  0  0
 23 32  1  0  0  0  0
 24 23  1  0  0  0  0
 25 26  1  0  0  0  0
 25 24  2  0  0  0  0
 26 21  2  0  0  0  0
 27 26  1  0  0  0  0
 28 24  1  0  0  0  0
 28 29  1  0  0  0  0
 29 30  2  0  0  0  0
 29 31  1  0  0  0  0
 31 32  1  0  0  0  0
 31 60  1  0  0  0  0
 35  6  1  0  0  0  0
 37  7  1  0  0  0  0
 38  8  1  0  0  0  0
 41 12  1  0  0  0  0
 43 13  1  0  0  0  0
 45 15  1  0  0  0  0
 47 16  1  0  0  0  0
 48 16  1  0  0  0  0
 49 17  1  0  0  0  0
 51 18  1  0  0  0  0
 52 18  1  0  0  0  0
 55 20  1  0  0  0  0
 58 25  1  0  0  0  0
 59 28  1  0  0  0  0
 61 31  1  0  0  0  0
M  END
>  <Pose>
1

>  <Score>
-5.12

$$$$
