
 OpenBabel03212208273D

 39 42  0  0  0  0  0  0  0  0999 V2000
   91.6070   93.2270  -44.7980 Cl  0  0  0  0  0  0  0  0  0  0  0  0
   91.7840   94.9620  -44.5040 C   0  0  0  0  0  0  0  0  0  0  0  0
   92.1170   95.8210  -45.5220 C   0  0  0  0  0  0  0  0  0  0  0  0
   92.2550   97.1700  -45.2880 C   0  0  0  0  0  0  0  0  0  0  0  0
   92.0720   97.7580  -44.0310 C   0  0  0  0  0  0  0  0  0  0  0  0
   91.7390   96.8740  -43.0300 C   0  0  0  0  0  0  0  0  0  0  0  0
   91.5950   95.4930  -43.2550 C   0  0  0  0  0  0  0  0  0  0  0  0
   92.1940   99.1810  -43.8900 C   0  0  0  0  0  0  0  0  0  0  0  0
   93.3360   99.6560  -44.3200 O   0  0  0  0  0  0  0  0  0  0  0  0
   91.3230  100.1330  -43.3820 N   0  0  0  0  0  0  0  0  0  0  0  0
   90.8200  100.3440  -42.0660 C   0  0  0  0  0  0  0  0  0  0  0  0
   89.4000   99.7440  -42.0810 C   0  0  0  0  0  0  0  0  0  0  0  0
   88.7870  100.1220  -43.3680 N   0  0  0  0  0  0  0  0  0  0  0  0
   89.2740  101.3030  -44.0210 C   0  0  0  0  0  0  0  0  0  0  0  0
   90.7380  101.1020  -44.3680 C   0  0  0  0  0  0  0  0  0  0  0  0
   87.7430   99.3170  -43.9090 C   0  0  0  0  0  0  0  0  0  0  0  0
   86.6770   98.9570  -43.1600 N   0  0  0  0  0  0  0  0  0  0  0  0
   85.6930   98.2100  -43.6270 N   0  0  0  0  0  0  0  0  0  0  0  0
   85.6750   97.7500  -44.8860 C   0  0  0  0  0  0  0  0  0  0  0  0
   84.5560   97.0140  -45.1010 N   0  0  0  0  0  0  0  0  0  0  0  0
   83.8720   97.0160  -43.9710 N   0  0  0  0  0  0  0  0  0  0  0  0
   84.5470   97.7380  -43.0590 C   0  0  0  0  0  0  0  0  0  0  0  0
   86.7330   98.0760  -45.7170 C   0  0  0  0  0  0  0  0  0  0  0  0
   87.7450   98.8540  -45.2060 C   0  0  0  0  0  0  0  0  0  0  0  0
   92.2660   95.3960  -46.5050 H   0  0  0  0  0  0  0  0  0  0  0  0
   92.5190   97.8110  -46.1100 H   0  0  0  0  0  0  0  0  0  0  0  0
   91.5540   97.2450  -42.0410 H   0  0  0  0  0  0  0  0  0  0  0  0
   91.3310   94.8250  -42.4380 H   0  0  0  0  0  0  0  0  0  0  0  0
   91.4150  100.0940  -41.2160 H   0  0  0  0  0  0  0  0  0  0  0  0
   90.5800  101.4720  -41.9660 H   0  0  0  0  0  0  0  0  0  0  0  0
   88.7950  100.1270  -41.2390 H   0  0  0  0  0  0  0  0  0  0  0  0
   89.5480   98.6590  -42.0190 H   0  0  0  0  0  0  0  0  0  0  0  0
   89.2350  102.2040  -43.3680 H   0  0  0  0  0  0  0  0  0  0  0  0
   88.7460  101.4650  -44.9830 H   0  0  0  0  0  0  0  0  0  0  0  0
   91.3230  102.0370  -44.3050 H   0  0  0  0  0  0  0  0  0  0  0  0
   90.8680  100.6830  -45.3780 H   0  0  0  0  0  0  0  0  0  0  0  0
   84.2400   97.9250  -42.0320 H   0  0  0  0  0  0  0  0  0  0  0  0
   86.7590   97.7240  -46.7450 H   0  0  0  0  0  0  0  0  0  0  0  0
   88.6060   99.1360  -45.8290 H   0  0  0  0  0  0  0  0  0  0  0  0
  1  2  1  0  0  0  0
  2  7  1  0  0  0  0
  3  4  1  0  0  0  0
  3  2  2  0  0  0  0
  4  5  2  0  0  0  0
  5  8  1  0  0  0  0
  5  6  1  0  0  0  0
  6 27  1  0  0  0  0
  7  6  2  0  0  0  0
  7 28  1  0  0  0  0
  8 10  1  0  0  0  0
  9  8  2  0  0  0  0
 10 11  1  0  0  0  0
 11 30  1  0  0  0  0
 11 29  1  0  0  0  0
 12 11  1  0  0  0  0
 12 32  1  0  0  0  0
 12 31  1  0  0  0  0
 13 12  1  0  0  0  0
 14 13  1  0  0  0  0
 14 33  1  0  0  0  0
 15 35  1  0  0  0  0
 15 14  1  0  0  0  0
 15 10  1  0  0  0  0
 16 13  1  0  0  0  0
 16 17  2  0  0  0  0
 18 17  1  0  0  0  0
 18 22  1  0  0  0  0
 19 18  1  0  0  0  0
 20 19  2  0  0  0  0
 20 21  1  0  0  0  0
 21 22  2  0  0  0  0
 22 37  1  0  0  0  0
 23 24  2  0  0  0  0
 23 19  1  0  0  0  0
 24 16  1  0  0  0  0
 25  3  1  0  0  0  0
 26  4  1  0  0  0  0
 34 14  1  0  0  0  0
 36 15  1  0  0  0  0
 38 23  1  0  0  0  0
 39 24  1  0  0  0  0
M  END
>  <Pose>
1

>  <Score>
-4.68

$$$$
