
 OpenBabel03212208273D

 47 50  0  0  0  0  0  0  0  0999 V2000
   92.0230   87.5930  -50.0700 Cl  0  0  0  0  0  0  0  0  0  0  0  0
   91.8810   88.9290  -48.9440 C   0  0  0  0  0  0  0  0  0  0  0  0
   90.7030   89.6270  -48.7570 C   0  0  0  0  0  0  0  0  0  0  0  0
   90.6000   90.6800  -47.8640 C   0  0  0  0  0  0  0  0  0  0  0  0
   91.6870   91.0820  -47.1130 C   0  0  0  0  0  0  0  0  0  0  0  0
   92.8680   90.3930  -47.2900 C   0  0  0  0  0  0  0  0  0  0  0  0
   92.9710   89.3340  -48.1890 C   0  0  0  0  0  0  0  0  0  0  0  0
   91.5610   92.1670  -46.1990 N   0  0  0  0  0  0  0  0  0  0  0  0
   92.0160   92.1920  -44.9970 N   0  0  0  0  0  0  0  0  0  0  0  0
   91.7300   93.3930  -44.3690 C   0  0  0  0  0  0  0  0  0  0  0  0
   91.0700   94.1170  -45.2540 N   0  0  0  0  0  0  0  0  0  0  0  0
   90.9660   93.3460  -46.3890 C   0  0  0  0  0  0  0  0  0  0  0  0
   90.3900   93.7340  -47.4280 O   0  0  0  0  0  0  0  0  0  0  0  0
   90.6220   95.4720  -45.1680 C   0  0  0  0  0  0  0  0  0  0  0  0
   91.6710   96.4680  -44.8770 C   0  0  0  0  0  0  0  0  0  0  0  0
   92.7930   96.2220  -45.4880 O   0  0  0  0  0  0  0  0  0  0  0  0
   91.6630   97.5920  -44.0820 N   0  0  0  0  0  0  0  0  0  0  0  0
   92.0000   98.9230  -44.5110 C   0  0  0  0  0  0  0  0  0  0  0  0
   91.8350   99.9580  -43.3840 C   0  0  0  0  0  0  0  0  0  0  0  0
   92.5930   99.5120  -42.2110 N   0  0  0  0  0  0  0  0  0  0  0  0
   92.3780   98.1200  -41.8900 C   0  0  0  0  0  0  0  0  0  0  0  0
   93.0810   97.5560  -41.0210 O   0  0  0  0  0  0  0  0  0  0  0  0
   91.2950   97.4640  -42.6610 C   0  0  0  0  0  0  0  0  0  0  0  0
   92.1850   93.6340  -43.0020 C   0  0  0  0  0  0  0  0  0  0  0  0
   93.2800   92.8960  -42.5340 C   0  0  0  0  0  0  0  0  0  0  0  0
   93.7680   92.9780  -41.2590 C   0  0  0  0  0  0  0  0  0  0  0  0
   93.1800   93.8290  -40.3330 C   0  0  0  0  0  0  0  0  0  0  0  0
   92.1090   94.5530  -40.7770 C   0  0  0  0  0  0  0  0  0  0  0  0
   91.6140   94.4640  -42.0820 C   0  0  0  0  0  0  0  0  0  0  0  0
   89.8500   89.3150  -49.3440 H   0  0  0  0  0  0  0  0  0  0  0  0
   89.6840   91.2230  -47.7180 H   0  0  0  0  0  0  0  0  0  0  0  0
   93.7130   90.7080  -46.7060 H   0  0  0  0  0  0  0  0  0  0  0  0
   93.8990   88.8000  -48.3230 H   0  0  0  0  0  0  0  0  0  0  0  0
   89.7920   95.6510  -44.5230 H   0  0  0  0  0  0  0  0  0  0  0  0
   90.2200   95.7350  -46.2240 H   0  0  0  0  0  0  0  0  0  0  0  0
   91.2250   99.2050  -45.2720 H   0  0  0  0  0  0  0  0  0  0  0  0
   92.9960   99.0170  -44.9290 H   0  0  0  0  0  0  0  0  0  0  0  0
   90.7760  100.0400  -43.0920 H   0  0  0  0  0  0  0  0  0  0  0  0
   92.1720  100.9420  -43.7410 H   0  0  0  0  0  0  0  0  0  0  0  0
   93.2140  100.1200  -41.6710 H   0  0  0  0  0  0  0  0  0  0  0  0
   91.2280   96.3800  -42.4060 H   0  0  0  0  0  0  0  0  0  0  0  0
   90.3150   97.9770  -42.5270 H   0  0  0  0  0  0  0  0  0  0  0  0
   93.7570   92.2240  -43.2570 H   0  0  0  0  0  0  0  0  0  0  0  0
   94.6130   92.3980  -40.9210 H   0  0  0  0  0  0  0  0  0  0  0  0
   93.5490   93.9110  -39.3240 H   0  0  0  0  0  0  0  0  0  0  0  0
   91.6170   95.2330  -40.0710 H   0  0  0  0  0  0  0  0  0  0  0  0
   90.7650   95.0450  -42.3180 H   0  0  0  0  0  0  0  0  0  0  0  0
  1  2  1  0  0  0  0
  2  3  2  0  0  0  0
  2  7  1  0  0  0  0
  3  4  1  0  0  0  0
  4 31  1  0  0  0  0
  4  5  2  0  0  0  0
  5  8  1  0  0  0  0
  6  5  1  0  0  0  0
  6 32  1  0  0  0  0
  7  6  2  0  0  0  0
  8  9  1  0  0  0  0
  9 10  2  0  0  0  0
 10 24  1  0  0  0  0
 11 14  1  0  0  0  0
 11 10  1  0  0  0  0
 12  8  1  0  0  0  0
 12 11  1  0  0  0  0
 13 12  2  0  0  0  0
 14 15  1  0  0  0  0
 14 34  1  0  0  0  0
 15 17  1  0  0  0  0
 16 15  2  0  0  0  0
 17 23  1  0  0  0  0
 18 17  1  0  0  0  0
 18 19  1  0  0  0  0
 19 38  1  0  0  0  0
 19 20  1  0  0  0  0
 20 21  1  0  0  0  0
 20 40  1  0  0  0  0
 21 22  2  0  0  0  0
 23 42  1  0  0  0  0
 23 41  1  0  0  0  0
 23 21  1  0  0  0  0
 24 25  2  0  0  0  0
 24 29  1  0  0  0  0
 25 26  1  0  0  0  0
 26 44  1  0  0  0  0
 26 27  2  0  0  0  0
 27 45  1  0  0  0  0
 28 27  1  0  0  0  0
 28 46  1  0  0  0  0
 29 28  2  0  0  0  0
 30  3  1  0  0  0  0
 33  7  1  0  0  0  0
 35 14  1  0  0  0  0
 36 18  1  0  0  0  0
 37 18  1  0  0  0  0
 39 19  1  0  0  0  0
 43 25  1  0  0  0  0
 47 29  1  0  0  0  0
M  END
>  <Pose>
1

>  <Score>
-6.36

$$$$
