
 OpenBabel03212208273D

 42 45  0  0  0  0  0  0  0  0999 V2000
   92.0660   90.0140  -49.6120 Cl  0  0  0  0  0  0  0  0  0  0  0  0
   92.0380   90.8060  -48.0310 C   0  0  0  0  0  0  0  0  0  0  0  0
   91.0570   91.7310  -47.7410 C   0  0  0  0  0  0  0  0  0  0  0  0
   90.9980   92.3680  -46.5290 C   0  0  0  0  0  0  0  0  0  0  0  0
   91.9330   92.1020  -45.5410 C   0  0  0  0  0  0  0  0  0  0  0  0
   92.9110   91.1710  -45.8500 C   0  0  0  0  0  0  0  0  0  0  0  0
   92.9730   90.5280  -47.0680 C   0  0  0  0  0  0  0  0  0  0  0  0
   91.9040   92.7410  -44.2760 N   0  0  0  0  0  0  0  0  0  0  0  0
   91.9350   92.1360  -43.1050 N   0  0  0  0  0  0  0  0  0  0  0  0
   91.8900   93.0990  -42.1940 N   0  0  0  0  0  0  0  0  0  0  0  0
   91.8310   94.3140  -42.7650 C   0  0  0  0  0  0  0  0  0  0  0  0
   91.8400   94.0740  -44.0870 C   0  0  0  0  0  0  0  0  0  0  0  0
   91.7790   95.3250  -44.6720 C   0  0  0  0  0  0  0  0  0  0  0  0
   91.7690   95.4870  -45.9280 O   0  0  0  0  0  0  0  0  0  0  0  0
   91.7330   96.3060  -43.7550 N   0  0  0  0  0  0  0  0  0  0  0  0
   91.7650   95.6780  -42.5670 C   0  0  0  0  0  0  0  0  0  0  0  0
   91.7390   96.2720  -41.4480 O   0  0  0  0  0  0  0  0  0  0  0  0
   91.6650   97.7010  -44.0390 C   0  0  0  0  0  0  0  0  0  0  0  0
   92.4750   98.3010  -44.9820 C   0  0  0  0  0  0  0  0  0  0  0  0
   92.4270   99.6490  -45.2750 C   0  0  0  0  0  0  0  0  0  0  0  0
   91.5230  100.4350  -44.5910 C   0  0  0  0  0  0  0  0  0  0  0  0
   90.6890   99.8890  -43.6380 C   0  0  0  0  0  0  0  0  0  0  0  0
   90.7750   98.5250  -43.3760 C   0  0  0  0  0  0  0  0  0  0  0  0
   89.7930  100.7120  -42.9690 O   0  0  0  0  0  0  0  0  0  0  0  0
   88.4720  100.3190  -42.7120 C   0  0  0  0  0  0  0  0  0  0  0  0
   93.2760  100.2120  -46.2470 O   0  0  0  0  0  0  0  0  0  0  0  0
   92.7810  100.4210  -47.5490 C   0  0  0  0  0  0  0  0  0  0  0  0
   90.3170   91.9410  -48.5250 H   0  0  0  0  0  0  0  0  0  0  0  0
   90.2260   93.0930  -46.3090 H   0  0  0  0  0  0  0  0  0  0  0  0
   93.6530   90.9600  -45.0640 H   0  0  0  0  0  0  0  0  0  0  0  0
   93.7400   89.8170  -47.2680 H   0  0  0  0  0  0  0  0  0  0  0  0
   91.9850   91.1000  -42.9510 H   0  0  0  0  0  0  0  0  0  0  0  0
   91.9000   92.9380  -41.1640 H   0  0  0  0  0  0  0  0  0  0  0  0
   93.1760   97.6400  -45.5000 H   0  0  0  0  0  0  0  0  0  0  0  0
   91.4840  101.5000  -44.8210 H   0  0  0  0  0  0  0  0  0  0  0  0
   90.1090   98.0890  -42.6160 H   0  0  0  0  0  0  0  0  0  0  0  0
   87.9190  100.3690  -43.6830 H   0  0  0  0  0  0  0  0  0  0  0  0
   88.3940   99.3280  -42.2380 H   0  0  0  0  0  0  0  0  0  0  0  0
   88.0430  101.0650  -41.9820 H   0  0  0  0  0  0  0  0  0  0  0  0
   91.7900  100.8990  -47.5620 H   0  0  0  0  0  0  0  0  0  0  0  0
   93.4800  101.0570  -48.1230 H   0  0  0  0  0  0  0  0  0  0  0  0
   92.6780   99.4600  -48.1130 H   0  0  0  0  0  0  0  0  0  0  0  0
  1  2  1  0  0  0  0
  2  3  2  0  0  0  0
  2  7  1  0  0  0  0
  3  4  1  0  0  0  0
  4 29  1  0  0  0  0
  4  5  2  0  0  0  0
  5  8  1  0  0  0  0
  6  5  1  0  0  0  0
  6 30  1  0  0  0  0
  7  6  2  0  0  0  0
  8 12  1  0  0  0  0
  8  9  1  0  0  0  0
  9 32  1  0  0  0  0
  9 10  1  0  0  0  0
 10 33  1  0  0  0  0
 11 16  1  0  0  0  0
 11 10  1  0  0  0  0
 12 11  2  0  0  0  0
 13 12  1  0  0  0  0
 13 15  1  0  0  0  0
 14 13  2  0  0  0  0
 15 16  1  0  0  0  0
 16 17  2  0  0  0  0
 18 15  1  0  0  0  0
 18 23  1  0  0  0  0
 19 18  2  0  0  0  0
 20 19  1  0  0  0  0
 20 21  2  0  0  0  0
 21 22  1  0  0  0  0
 22 23  2  0  0  0  0
 22 24  1  0  0  0  0
 23 36  1  0  0  0  0
 24 25  1  0  0  0  0
 25 38  1  0  0  0  0
 25 39  1  0  0  0  0
 26 20  1  0  0  0  0
 27 26  1  0  0  0  0
 28  3  1  0  0  0  0
 31  7  1  0  0  0  0
 34 19  1  0  0  0  0
 35 21  1  0  0  0  0
 37 25  1  0  0  0  0
 40 27  1  0  0  0  0
 41 27  1  0  0  0  0
 42 27  1  0  0  0  0
M  END
>  <Pose>
1

>  <Score>
-5.86

$$$$
