
 OpenBabel03212208273D

 42 45  0  0  0  0  0  0  0  0999 V2000
   93.7340  101.9480  -39.3940 Cl  0  0  0  0  0  0  0  0  0  0  0  0
   93.1040  101.2880  -40.9030 C   0  0  0  0  0  0  0  0  0  0  0  0
   92.8350   99.9350  -41.0170 C   0  0  0  0  0  0  0  0  0  0  0  0
   92.3450   99.4110  -42.1810 C   0  0  0  0  0  0  0  0  0  0  0  0
   92.1370  100.2860  -43.2200 C   0  0  0  0  0  0  0  0  0  0  0  0
   92.3940  101.6300  -43.1340 C   0  0  0  0  0  0  0  0  0  0  0  0
   92.8900  102.1470  -41.9490 C   0  0  0  0  0  0  0  0  0  0  0  0
   91.6090   99.7560  -44.4930 C   0  0  0  0  0  0  0  0  0  0  0  0
   91.3160  100.3070  -45.6180 N   0  0  0  0  0  0  0  0  0  0  0  0
   90.8260   99.3570  -46.5750 C   0  0  0  0  0  0  0  0  0  0  0  0
   90.8490   98.0460  -45.8590 C   0  0  0  0  0  0  0  0  0  0  0  0
   91.3550   98.3620  -44.5440 N   0  0  0  0  0  0  0  0  0  0  0  0
   91.5910   97.4930  -43.4280 C   0  0  0  0  0  0  0  0  0  0  0  0
   91.4280   96.1730  -43.2520 N   0  0  0  0  0  0  0  0  0  0  0  0
   91.7900   95.8300  -42.0290 N   0  0  0  0  0  0  0  0  0  0  0  0
   92.1880   96.9690  -41.4360 C   0  0  0  0  0  0  0  0  0  0  0  0
   92.6050   97.0340  -40.2540 O   0  0  0  0  0  0  0  0  0  0  0  0
   92.0730   98.0220  -42.2890 N   0  0  0  0  0  0  0  0  0  0  0  0
   91.7740   94.5020  -41.4230 C   0  0  0  0  0  0  0  0  0  0  0  0
   92.3380   93.5280  -42.3860 C   0  0  0  0  0  0  0  0  0  0  0  0
   93.5250   93.1290  -42.2210 O   0  0  0  0  0  0  0  0  0  0  0  0
   91.6010   93.0240  -43.4890 N   0  0  0  0  0  0  0  0  0  0  0  0
   92.0530   93.2450  -44.8440 C   0  0  0  0  0  0  0  0  0  0  0  0
   91.9810   91.9470  -45.6530 C   0  0  0  0  0  0  0  0  0  0  0  0
   91.0500   94.1910  -45.4900 C   0  0  0  0  0  0  0  0  0  0  0  0
   93.0140   99.2960  -40.1810 H   0  0  0  0  0  0  0  0  0  0  0  0
   92.2340  102.3290  -43.9450 H   0  0  0  0  0  0  0  0  0  0  0  0
   93.0980  103.2260  -41.8750 H   0  0  0  0  0  0  0  0  0  0  0  0
   89.7700   99.6450  -46.8150 H   0  0  0  0  0  0  0  0  0  0  0  0
   91.4390   99.3520  -47.5050 H   0  0  0  0  0  0  0  0  0  0  0  0
   89.8570   97.5530  -45.8180 H   0  0  0  0  0  0  0  0  0  0  0  0
   91.6170   97.3760  -46.3260 H   0  0  0  0  0  0  0  0  0  0  0  0
   92.4640   94.5390  -40.5600 H   0  0  0  0  0  0  0  0  0  0  0  0
   90.7800   94.2220  -41.0440 H   0  0  0  0  0  0  0  0  0  0  0  0
   90.7300   92.4940  -43.2820 H   0  0  0  0  0  0  0  0  0  0  0  0
   93.0560   93.6950  -44.8830 H   0  0  0  0  0  0  0  0  0  0  0  0
   91.1150   91.3830  -45.2380 H   0  0  0  0  0  0  0  0  0  0  0  0
   91.8270   92.2390  -46.7010 H   0  0  0  0  0  0  0  0  0  0  0  0
   92.9270   91.3680  -45.5210 H   0  0  0  0  0  0  0  0  0  0  0  0
   90.1890   93.5680  -45.8080 H   0  0  0  0  0  0  0  0  0  0  0  0
   91.4600   94.6750  -46.3930 H   0  0  0  0  0  0  0  0  0  0  0  0
   90.7020   94.9020  -44.7280 H   0  0  0  0  0  0  0  0  0  0  0  0
  2  1  1  0  0  0  0
  3  2  1  0  0  0  0
  3 26  1  0  0  0  0
  4  3  2  0  0  0  0
  5  6  1  0  0  0  0
  5  4  1  0  0  0  0
  6  7  1  0  0  0  0
  7 28  1  0  0  0  0
  7  2  2  0  0  0  0
  8  5  2  0  0  0  0
  9  8  1  0  0  0  0
 10 11  1  0  0  0  0
 10  9  1  0  0  0  0
 11 31  1  0  0  0  0
 11 12  1  0  0  0  0
 12  8  1  0  0  0  0
 12 13  1  0  0  0  0
 13 14  2  0  0  0  0
 13 18  1  0  0  0  0
 14 15  1  0  0  0  0
 15 16  1  0  0  0  0
 15 19  1  0  0  0  0
 16 17  2  0  0  0  0
 18  4  1  0  0  0  0
 18 16  1  0  0  0  0
 19 34  1  0  0  0  0
 19 33  1  0  0  0  0
 20 21  2  0  0  0  0
 20 19  1  0  0  0  0
 22 35  1  0  0  0  0
 22 20  1  0  0  0  0
 23 22  1  0  0  0  0
 24 39  1  0  0  0  0
 24 37  1  0  0  0  0
 24 23  1  0  0  0  0
 25 23  1  0  0  0  0
 25 42  1  0  0  0  0
 27  6  1  0  0  0  0
 29 10  1  0  0  0  0
 30 10  1  0  0  0  0
 32 11  1  0  0  0  0
 36 23  1  0  0  0  0
 38 24  1  0  0  0  0
 40 25  1  0  0  0  0
 41 25  1  0  0  0  0
M  END
>  <Pose>
1

>  <Score>
-6.33

$$$$
