
 OpenBabel03212208273D

 43 46  0  0  0  0  0  0  0  0999 V2000
   90.5590  100.0420  -47.2200 Cl  0  0  0  0  0  0  0  0  0  0  0  0
   90.9100   98.8570  -45.9590 C   0  0  0  0  0  0  0  0  0  0  0  0
   91.4410   99.3160  -44.7510 C   0  0  0  0  0  0  0  0  0  0  0  0
   91.7310   98.4450  -43.7200 C   0  0  0  0  0  0  0  0  0  0  0  0
   91.4710   97.1080  -43.9470 C   0  0  0  0  0  0  0  0  0  0  0  0
   90.9560   96.6220  -45.1030 C   0  0  0  0  0  0  0  0  0  0  0  0
   90.6640   97.5150  -46.1450 C   0  0  0  0  0  0  0  0  0  0  0  0
   91.7850   96.1870  -42.8250 C   0  0  0  0  0  0  0  0  0  0  0  0
   91.6630   94.8990  -42.7130 N   0  0  0  0  0  0  0  0  0  0  0  0
   92.1080   94.4600  -41.4100 C   0  0  0  0  0  0  0  0  0  0  0  0
   92.5410   95.6930  -40.6570 C   0  0  0  0  0  0  0  0  0  0  0  0
   92.3130   96.7350  -41.6450 N   0  0  0  0  0  0  0  0  0  0  0  0
   92.5540   98.1320  -41.4900 C   0  0  0  0  0  0  0  0  0  0  0  0
   93.0380   98.8540  -40.4570 N   0  0  0  0  0  0  0  0  0  0  0  0
   93.0640  100.1400  -40.8000 N   0  0  0  0  0  0  0  0  0  0  0  0
   92.5910  100.1820  -42.0440 C   0  0  0  0  0  0  0  0  0  0  0  0
   92.4530  101.2330  -42.7300 O   0  0  0  0  0  0  0  0  0  0  0  0
   92.2650   98.9420  -42.5040 N   0  0  0  0  0  0  0  0  0  0  0  0
   93.5080  101.2570  -39.9620 C   0  0  0  0  0  0  0  0  0  0  0  0
   94.9930  101.4430  -40.4010 C   0  0  0  0  0  0  0  0  0  0  0  0
   95.6240  100.3640  -40.1190 O   0  0  0  0  0  0  0  0  0  0  0  0
   95.4050  102.5900  -40.9580 N   0  0  0  0  0  0  0  0  0  0  0  0
   95.8290  103.7690  -41.5310 C   0  0  0  0  0  0  0  0  0  0  0  0
   95.3480  103.9260  -42.9780 C   0  0  0  0  0  0  0  0  0  0  0  0
   96.3340  103.5910  -43.8750 O   0  0  0  0  0  0  0  0  0  0  0  0
   96.5770  104.5120  -44.8520 C   0  0  0  0  0  0  0  0  0  0  0  0
   91.6110  100.3740  -44.6660 H   0  0  0  0  0  0  0  0  0  0  0  0
   90.7760   95.5780  -45.2520 H   0  0  0  0  0  0  0  0  0  0  0  0
   90.2530   97.1760  -47.0780 H   0  0  0  0  0  0  0  0  0  0  0  0
   92.9530   93.7520  -41.5570 H   0  0  0  0  0  0  0  0  0  0  0  0
   91.2730   93.9570  -40.8560 H   0  0  0  0  0  0  0  0  0  0  0  0
   93.6030   95.6650  -40.3940 H   0  0  0  0  0  0  0  0  0  0  0  0
   91.9030   95.8350  -39.7460 H   0  0  0  0  0  0  0  0  0  0  0  0
   92.9750  102.1620  -40.1840 H   0  0  0  0  0  0  0  0  0  0  0  0
   93.4820  100.9400  -38.9300 H   0  0  0  0  0  0  0  0  0  0  0  0
   96.5980  102.0180  -41.2600 H   0  0  0  0  0  0  0  0  0  0  0  0
   95.6330  104.6970  -40.9530 H   0  0  0  0  0  0  0  0  0  0  0  0
   96.9860  103.7990  -41.6180 H   0  0  0  0  0  0  0  0  0  0  0  0
   94.3990  103.3990  -43.1700 H   0  0  0  0  0  0  0  0  0  0  0  0
   95.1520  105.0200  -43.0860 H   0  0  0  0  0  0  0  0  0  0  0  0
   96.9560  105.4850  -44.4080 H   0  0  0  0  0  0  0  0  0  0  0  0
   95.6300  104.8530  -45.3500 H   0  0  0  0  0  0  0  0  0  0  0  0
   97.3130  104.1560  -45.5910 H   0  0  0  0  0  0  0  0  0  0  0  0
  1  2  1  0  0  0  0
  2  3  1  0  0  0  0
  3 27  1  0  0  0  0
  3  4  2  0  0  0  0
  4 18  1  0  0  0  0
  5  4  1  0  0  0  0
  5  8  2  0  0  0  0
  6  5  1  0  0  0  0
  7  2  2  0  0  0  0
  7  6  1  0  0  0  0
  8  9  1  0  0  0  0
  8 12  1  0  0  0  0
  9 10  1  0  0  0  0
 10 31  1  0  0  0  0
 10 11  1  0  0  0  0
 11 32  1  0  0  0  0
 11 33  1  0  0  0  0
 12 13  1  0  0  0  0
 12 11  1  0  0  0  0
 13 14  2  0  0  0  0
 15 14  1  0  0  0  0
 15 19  1  0  0  0  0
 16 15  1  0  0  0  0
 17 16  2  0  0  0  0
 18 16  1  0  0  0  0
 18 13  1  0  0  0  0
 19 35  1  0  0  0  0
 20 21  2  0  0  0  0
 20 19  1  0  0  0  0
 22 20  1  0  0  0  0
 23 22  1  0  0  0  0
 23 37  1  0  0  0  0
 24 23  1  0  0  0  0
 25 24  1  0  0  0  0
 26 41  1  0  0  0  0
 26 25  1  0  0  0  0
 28  6  1  0  0  0  0
 29  7  1  0  0  0  0
 30 10  1  0  0  0  0
 34 19  1  0  0  0  0
 36 22  1  0  0  0  0
 38 23  1  0  0  0  0
 39 24  1  0  0  0  0
 40 24  1  0  0  0  0
 42 26  1  0  0  0  0
 43 26  1  0  0  0  0
M  END
>  <Pose>
1

>  <Score>
-5.66

$$$$
