
 OpenBabel03212208273D

 43 47  0  0  1  0  0  0  0  0999 V2000
   92.2970   97.0450  -40.9790 Cl  0  0  0  0  0  0  0  0  0  0  0  0
   91.5790   96.9560  -42.5720 C   0  0  0  0  0  0  0  0  0  0  0  0
   91.5720   95.7980  -43.3320 C   0  0  0  0  0  0  0  0  0  0  0  0
   91.0040   95.7420  -44.5830 C   0  0  1  0  0  0  0  0  0  0  0  0
   90.4350   96.9000  -45.0550 C   0  0  0  0  0  0  0  0  0  0  0  0
   90.4140   98.0770  -44.3450 C   0  0  0  0  0  0  0  0  0  0  0  0
   91.0000   98.1020  -43.0770 C   0  0  0  0  0  0  0  0  0  0  0  0
   89.8170   96.8770  -46.3950 C   0  0  0  0  0  0  0  0  0  0  0  0
   89.2250   97.7900  -47.0750 N   0  0  0  0  0  0  0  0  0  0  0  0
   88.7730   97.3070  -48.3520 C   0  0  0  0  0  0  0  0  0  0  0  0
   89.1920   95.8720  -48.3760 C   0  0  0  0  0  0  0  0  0  0  0  0
   89.8470   95.6600  -47.1120 N   0  0  0  0  0  0  0  0  0  0  0  0
   90.4580   94.4740  -46.5650 C   0  0  0  0  0  0  0  0  0  0  0  0
   90.6060   93.2260  -47.0510 N   0  0  0  0  0  0  0  0  0  0  0  0
   91.2440   92.4830  -46.1630 N   0  0  0  0  0  0  0  0  0  0  0  0
   91.4870   93.2960  -45.1210 C   0  0  0  0  0  0  0  0  0  0  0  0
   92.0900   92.9100  -44.0790 O   0  0  0  0  0  0  0  0  0  0  0  0
   91.0110   94.5400  -45.3420 N   0  0  0  0  0  0  0  0  0  0  0  0
   91.6160   91.0650  -46.2790 C   0  0  0  0  0  0  0  0  0  0  0  0
   92.0920   90.8260  -47.6670 C   0  0  0  0  0  0  0  0  0  0  0  0
   93.3340   90.8740  -47.8530 O   0  0  0  0  0  0  0  0  0  0  0  0
   91.1950   90.5580  -48.7360 N   0  0  0  0  0  0  0  0  0  0  0  0
   90.6090   89.2600  -49.0120 C   0  0  0  0  0  0  0  0  0  0  0  0
   89.8910   89.3900  -50.3280 C   0  0  0  0  0  0  0  0  0  0  0  0
   90.5790   90.5910  -50.9440 C   0  0  0  0  0  0  0  0  0  0  0  0
   90.7100   91.5000  -49.7170 C   0  0  0  0  0  0  0  0  0  0  0  0
   92.0240   94.9280  -42.9250 H   0  0  0  0  0  0  0  0  0  0  0  0
   89.9650   98.9620  -44.7380 H   0  0  0  0  0  0  0  0  0  0  0  0
   90.9700   99.0340  -42.5410 H   0  0  0  0  0  0  0  0  0  0  0  0
   89.2840   97.8360  -49.1980 H   0  0  0  0  0  0  0  0  0  0  0  0
   87.6650   97.3990  -48.4580 H   0  0  0  0  0  0  0  0  0  0  0  0
   89.8540   95.6430  -49.2390 H   0  0  0  0  0  0  0  0  0  0  0  0
   88.2790   95.2290  -48.3810 H   0  0  0  0  0  0  0  0  0  0  0  0
   90.7320   90.4350  -46.0510 H   0  0  0  0  0  0  0  0  0  0  0  0
   92.4310   90.8910  -45.5620 H   0  0  0  0  0  0  0  0  0  0  0  0
   89.9090   89.0460  -48.1810 H   0  0  0  0  0  0  0  0  0  0  0  0
   91.4340   88.5160  -49.0710 H   0  0  0  0  0  0  0  0  0  0  0  0
   88.8300   89.6850  -50.1570 H   0  0  0  0  0  0  0  0  0  0  0  0
   89.9740   88.4890  -50.9680 H   0  0  0  0  0  0  0  0  0  0  0  0
   89.9780   91.0440  -51.7360 H   0  0  0  0  0  0  0  0  0  0  0  0
   91.6030   90.2890  -51.2940 H   0  0  0  0  0  0  0  0  0  0  0  0
   91.3580   92.3550  -49.8920 H   0  0  0  0  0  0  0  0  0  0  0  0
   89.6750   91.7680  -49.4170 H   0  0  0  0  0  0  0  0  0  0  0  0
  2  1  1  0  0  0  0
  3 27  1  0  0  0  0
  3  2  2  0  0  0  0
  4  5  1  6  0  0  0
  4  3  1  0  0  0  0
  5  6  1  0  0  0  0
  6  7  2  0  0  0  0
  7  2  1  0  0  0  0
  7 29  1  0  0  0  0
  8  5  2  0  0  0  0
  9  8  1  0  0  0  0
 10  9  1  0  0  0  0
 11 10  1  0  0  0  0
 11 12  1  0  0  0  0
 12 13  1  0  0  0  0
 12  8  1  0  0  0  0
 13 18  1  0  0  0  0
 14 13  2  0  0  0  0
 14 15  1  0  0  0  0
 15 16  1  0  0  0  0
 16 17  2  0  0  0  0
 18 16  1  0  0  0  0
 18  4  1  0  0  0  0
 19 15  1  0  0  0  0
 19 34  1  0  0  0  0
 19 35  1  0  0  0  0
 20 19  1  0  0  0  0
 21 20  2  0  0  0  0
 22 20  1  0  0  0  0
 23 22  1  0  0  0  0
 23 36  1  0  0  0  0
 24 38  1  0  0  0  0
 24 23  1  0  0  0  0
 25 24  1  0  0  0  0
 25 26  1  0  0  0  0
 26 43  1  0  0  0  0
 26 22  1  0  0  0  0
 28  6  1  0  0  0  0
 30 10  1  0  0  0  0
 31 10  1  0  0  0  0
 32 11  1  0  0  0  0
 33 11  1  0  0  0  0
 37 23  1  0  0  0  0
 39 24  1  0  0  0  0
 40 25  1  0  0  0  0
 41 25  1  0  0  0  0
 42 26  1  0  0  0  0
M  END
>  <Pose>
1

>  <Score>
-5.45

$$$$
