
 OpenBabel03212208273D

 47 50  0  0  0  0  0  0  0  0999 V2000
   92.7980  103.0740  -38.5820 Cl  0  0  0  0  0  0  0  0  0  0  0  0
   92.2540  102.1280  -39.9660 C   0  0  0  0  0  0  0  0  0  0  0  0
   91.0240  102.2870  -40.5250 C   0  0  0  0  0  0  0  0  0  0  0  0
   90.6410  101.5230  -41.6100 C   0  0  0  0  0  0  0  0  0  0  0  0
   91.4930  100.5910  -42.1440 C   0  0  0  0  0  0  0  0  0  0  0  0
   92.7320  100.4320  -41.5790 C   0  0  0  0  0  0  0  0  0  0  0  0
   93.1200  101.1960  -40.4920 C   0  0  0  0  0  0  0  0  0  0  0  0
   91.1260   99.7720  -43.2780 N   0  0  0  0  0  0  0  0  0  0  0  0
   89.8590   99.9030  -43.8910 C   0  0  0  0  0  0  0  0  0  0  0  0
   89.4890   99.1790  -44.9220 C   0  0  0  0  0  0  0  0  0  0  0  0
   90.2540   98.1800  -45.5830 N   0  0  0  0  0  0  0  0  0  0  0  0
   91.6410   98.3580  -45.9590 C   0  0  0  0  0  0  0  0  0  0  0  0
   92.3900   97.0770  -45.5530 C   0  0  0  0  0  0  0  0  0  0  0  0
   91.5700   96.1960  -44.7950 N   0  0  0  0  0  0  0  0  0  0  0  0
   90.3950   95.7000  -45.5090 C   0  0  0  0  0  0  0  0  0  0  0  0
   89.6190   96.9240  -45.9330 C   0  0  0  0  0  0  0  0  0  0  0  0
   91.7260   95.7570  -43.4560 C   0  0  0  0  0  0  0  0  0  0  0  0
   91.6580   96.7040  -42.4480 N   0  0  0  0  0  0  0  0  0  0  0  0
   91.8020   96.4230  -41.1550 C   0  0  0  0  0  0  0  0  0  0  0  0
   92.0300   95.1240  -40.7980 C   0  0  0  0  0  0  0  0  0  0  0  0
   92.1020   94.1620  -41.7650 C   0  0  0  0  0  0  0  0  0  0  0  0
   91.9500   94.4520  -43.1360 C   0  0  0  0  0  0  0  0  0  0  0  0
   92.0010   93.4140  -44.1210 C   0  0  0  0  0  0  0  0  0  0  0  0
   92.5090   93.5070  -45.2360 O   0  0  0  0  0  0  0  0  0  0  0  0
   91.4190   92.1550  -43.8080 N   0  0  0  0  0  0  0  0  0  0  0  0
   88.9450  100.8790  -43.3450 N   0  0  0  0  0  0  0  0  0  0  0  0
   89.3330  101.6650  -42.2330 C   0  0  0  0  0  0  0  0  0  0  0  0
   88.5410  102.5360  -41.7320 O   0  0  0  0  0  0  0  0  0  0  0  0
   90.3330  103.0010  -40.1380 H   0  0  0  0  0  0  0  0  0  0  0  0
   93.3940   99.6910  -42.0120 H   0  0  0  0  0  0  0  0  0  0  0  0
   94.0870  101.0680  -40.0560 H   0  0  0  0  0  0  0  0  0  0  0  0
   91.8110   99.0850  -43.6390 H   0  0  0  0  0  0  0  0  0  0  0  0
   88.4770   99.3710  -45.3120 H   0  0  0  0  0  0  0  0  0  0  0  0
   92.1360   99.2000  -45.4790 H   0  0  0  0  0  0  0  0  0  0  0  0
   91.6810   98.4960  -47.0790 H   0  0  0  0  0  0  0  0  0  0  0  0
   93.2540   97.3990  -44.9850 H   0  0  0  0  0  0  0  0  0  0  0  0
   92.6310   96.6230  -46.5470 H   0  0  0  0  0  0  0  0  0  0  0  0
   89.7450   95.0820  -44.8870 H   0  0  0  0  0  0  0  0  0  0  0  0
   90.6880   95.1320  -46.4150 H   0  0  0  0  0  0  0  0  0  0  0  0
   89.4930   96.9570  -47.0430 H   0  0  0  0  0  0  0  0  0  0  0  0
   88.5870   96.8960  -45.5070 H   0  0  0  0  0  0  0  0  0  0  0  0
   91.7350   97.2290  -40.4190 H   0  0  0  0  0  0  0  0  0  0  0  0
   92.1490   94.8730  -39.7670 H   0  0  0  0  0  0  0  0  0  0  0  0
   92.2850   93.1010  -41.5290 H   0  0  0  0  0  0  0  0  0  0  0  0
   90.9210   92.0070  -42.9010 H   0  0  0  0  0  0  0  0  0  0  0  0
   91.4540   91.3290  -44.4450 H   0  0  0  0  0  0  0  0  0  0  0  0
   88.0050  101.0020  -43.7700 H   0  0  0  0  0  0  0  0  0  0  0  0
  2  1  1  0  0  0  0
  3 29  1  0  0  0  0
  3  2  2  0  0  0  0
  4  3  1  0  0  0  0
  5  4  2  0  0  0  0
  5  6  1  0  0  0  0
  6  7  2  0  0  0  0
  7 31  1  0  0  0  0
  7  2  1  0  0  0  0
  8  5  1  0  0  0  0
  9 26  1  0  0  0  0
  9  8  1  0  0  0  0
 10  9  2  0  0  0  0
 11 10  1  0  0  0  0
 12 11  1  0  0  0  0
 12 13  1  0  0  0  0
 12 34  1  0  0  0  0
 13 36  1  0  0  0  0
 13 14  1  0  0  0  0
 14 17  1  0  0  0  0
 15 38  1  0  0  0  0
 15 14  1  0  0  0  0
 16 11  1  0  0  0  0
 16 15  1  0  0  0  0
 16 41  1  0  0  0  0
 17 22  2  0  0  0  0
 17 18  1  0  0  0  0
 18 19  2  0  0  0  0
 19 20  1  0  0  0  0
 19 42  1  0  0  0  0
 20 43  1  0  0  0  0
 21 44  1  0  0  0  0
 21 20  2  0  0  0  0
 22 21  1  0  0  0  0
 23 25  1  0  0  0  0
 23 22  1  0  0  0  0
 24 23  2  0  0  0  0
 25 45  1  0  0  0  0
 26 27  1  0  0  0  0
 27 28  2  0  0  0  0
 27  4  1  0  0  0  0
 30  6  1  0  0  0  0
 32  8  1  0  0  0  0
 33 10  1  0  0  0  0
 35 12  1  0  0  0  0
 37 13  1  0  0  0  0
 39 15  1  0  0  0  0
 40 16  1  0  0  0  0
 46 25  1  0  0  0  0
 47 26  1  0  0  0  0
M  END
>  <Pose>
1

>  <Score>
-5.67

$$$$
