
 OpenBabel03212208273D

 58 61  0  0  0  0  0  0  0  0999 V2000
   92.6120  101.4770  -44.2240 Cl  0  0  0  0  0  0  0  0  0  0  0  0
   92.5010  100.0900  -43.1640 C   0  0  0  0  0  0  0  0  0  0  0  0
   92.1330   98.8310  -43.6300 C   0  0  0  0  0  0  0  0  0  0  0  0
   92.0450   97.7440  -42.7950 C   0  0  0  0  0  0  0  0  0  0  0  0
   92.3320   97.9140  -41.4600 C   0  0  0  0  0  0  0  0  0  0  0  0
   92.7020   99.1830  -40.9950 C   0  0  0  0  0  0  0  0  0  0  0  0
   92.7890  100.2720  -41.8310 C   0  0  0  0  0  0  0  0  0  0  0  0
   93.1610  101.5430  -41.3550 O   0  0  0  0  0  0  0  0  0  0  0  0
   94.0150  101.7030  -40.2500 C   0  0  0  0  0  0  0  0  0  0  0  0
   92.2530   96.8840  -40.6520 O   0  0  0  0  0  0  0  0  0  0  0  0
   91.9080   95.6870  -41.0580 C   0  0  0  0  0  0  0  0  0  0  0  0
   91.8420   94.7090  -40.2400 O   0  0  0  0  0  0  0  0  0  0  0  0
   91.5970   95.4030  -42.3870 C   0  0  0  0  0  0  0  0  0  0  0  0
   91.6770   96.4730  -43.2490 C   0  0  0  0  0  0  0  0  0  0  0  0
   91.3790   96.3020  -44.6680 C   0  0  0  0  0  0  0  0  0  0  0  0
   91.2170   94.0280  -42.7820 C   0  0  0  0  0  0  0  0  0  0  0  0
   92.3570   93.3100  -43.4160 C   0  0  0  0  0  0  0  0  0  0  0  0
   93.2690   92.8580  -42.6410 O   0  0  0  0  0  0  0  0  0  0  0  0
   92.5050   93.0960  -44.7750 N   0  0  0  0  0  0  0  0  0  0  0  0
   91.4710   93.3540  -45.7290 C   0  0  0  0  0  0  0  0  0  0  0  0
   91.1550   92.0390  -46.4450 C   0  0  0  0  0  0  0  0  0  0  0  0
   92.3480   91.5100  -47.0120 N   0  0  0  0  0  0  0  0  0  0  0  0
   93.5890   92.2780  -46.7780 C   0  0  0  0  0  0  0  0  0  0  0  0
   93.7490   92.5880  -45.3060 C   0  0  0  0  0  0  0  0  0  0  0  0
   92.4440   90.3210  -47.7660 C   0  0  0  0  0  0  0  0  0  0  0  0
   93.6930   89.9920  -48.0770 O   0  0  0  0  0  0  0  0  0  0  0  0
   91.4480   89.4140  -48.2530 C   0  0  0  0  0  0  0  0  0  0  0  0
   91.8350   88.1150  -48.6690 C   0  0  0  0  0  0  0  0  0  0  0  0
   90.9150   87.2200  -49.1450 C   0  0  0  0  0  0  0  0  0  0  0  0
   91.2850   86.0720  -49.5080 O   0  0  0  0  0  0  0  0  0  0  0  0
   89.6110   87.5090  -49.2480 N   0  0  0  0  0  0  0  0  0  0  0  0
   89.2460   88.7310  -48.8570 C   0  0  0  0  0  0  0  0  0  0  0  0
   88.0170   89.0570  -48.9360 O   0  0  0  0  0  0  0  0  0  0  0  0
   90.1480   89.6560  -48.3730 N   0  0  0  0  0  0  0  0  0  0  0  0
   88.6550   86.5520  -49.7550 C   0  0  0  0  0  0  0  0  0  0  0  0
   91.9050   98.6810  -44.6750 H   0  0  0  0  0  0  0  0  0  0  0  0
   92.9220   99.2960  -39.9440 H   0  0  0  0  0  0  0  0  0  0  0  0
   94.8560  100.9850  -40.2360 H   0  0  0  0  0  0  0  0  0  0  0  0
   94.3310  102.7600  -40.2100 H   0  0  0  0  0  0  0  0  0  0  0  0
   93.3990  101.4390  -39.3410 H   0  0  0  0  0  0  0  0  0  0  0  0
   90.5580   97.0430  -44.9100 H   0  0  0  0  0  0  0  0  0  0  0  0
   91.0000   95.3300  -44.9490 H   0  0  0  0  0  0  0  0  0  0  0  0
   92.2260   96.6260  -45.3130 H   0  0  0  0  0  0  0  0  0  0  0  0
   90.2640   93.9200  -43.2850 H   0  0  0  0  0  0  0  0  0  0  0  0
   91.0790   93.4840  -41.7930 H   0  0  0  0  0  0  0  0  0  0  0  0
   91.7840   94.0660  -46.5230 H   0  0  0  0  0  0  0  0  0  0  0  0
   90.5550   93.7900  -45.2820 H   0  0  0  0  0  0  0  0  0  0  0  0
   90.7690   91.3060  -45.6940 H   0  0  0  0  0  0  0  0  0  0  0  0
   90.3340   92.2310  -47.1720 H   0  0  0  0  0  0  0  0  0  0  0  0
   94.4160   91.7120  -47.2130 H   0  0  0  0  0  0  0  0  0  0  0  0
   93.4580   93.2320  -47.3070 H   0  0  0  0  0  0  0  0  0  0  0  0
   93.9850   91.6440  -44.7880 H   0  0  0  0  0  0  0  0  0  0  0  0
   94.5570   93.3070  -45.1090 H   0  0  0  0  0  0  0  0  0  0  0  0
   92.8880   87.8790  -48.5870 H   0  0  0  0  0  0  0  0  0  0  0  0
   89.7610   90.5780  -48.0910 H   0  0  0  0  0  0  0  0  0  0  0  0
   87.7010   87.0860  -49.9510 H   0  0  0  0  0  0  0  0  0  0  0  0
   88.4020   85.7840  -48.9700 H   0  0  0  0  0  0  0  0  0  0  0  0
   88.9980   86.0400  -50.6730 H   0  0  0  0  0  0  0  0  0  0  0  0
  1  2  1  0  0  0  0
  2  7  1  0  0  0  0
  3  2  2  0  0  0  0
  3  4  1  0  0  0  0
  4  5  2  0  0  0  0
  5  6  1  0  0  0  0
  5 10  1  0  0  0  0
  6 37  1  0  0  0  0
  7  8  1  0  0  0  0
  7  6  2  0  0  0  0
  8  9  1  0  0  0  0
  9 38  1  0  0  0  0
  9 39  1  0  0  0  0
  9 40  1  0  0  0  0
 11 10  1  0  0  0  0
 11 12  2  0  0  0  0
 13 11  1  0  0  0  0
 14  4  1  0  0  0  0
 14 13  2  0  0  0  0
 15 14  1  0  0  0  0
 16 13  1  0  0  0  0
 16 45  1  0  0  0  0
 17 16  1  0  0  0  0
 17 18  2  0  0  0  0
 19 17  1  0  0  0  0
 20 47  1  0  0  0  0
 20 19  1  0  0  0  0
 21 20  1  0  0  0  0
 21 48  1  0  0  0  0
 22 23  1  0  0  0  0
 22 21  1  0  0  0  0
 23 24  1  0  0  0  0
 24 53  1  0  0  0  0
 24 52  1  0  0  0  0
 24 19  1  0  0  0  0
 25 22  1  0  0  0  0
 26 25  2  0  0  0  0
 27 25  1  0  0  0  0
 28 54  1  0  0  0  0
 28 27  2  0  0  0  0
 29 28  1  0  0  0  0
 30 29  2  0  0  0  0
 31 29  1  0  0  0  0
 31 32  1  0  0  0  0
 32 34  1  0  0  0  0
 33 32  2  0  0  0  0
 34 27  1  0  0  0  0
 34 55  1  0  0  0  0
 35 31  1  0  0  0  0
 35 57  1  0  0  0  0
 36  3  1  0  0  0  0
 41 15  1  0  0  0  0
 42 15  1  0  0  0  0
 43 15  1  0  0  0  0
 44 16  1  0  0  0  0
 46 20  1  0  0  0  0
 49 21  1  0  0  0  0
 50 23  1  0  0  0  0
 51 23  1  0  0  0  0
 56 35  1  0  0  0  0
 58 35  1  0  0  0  0
M  END
>  <Pose>
1

>  <Score>
-6.31

$$$$
