
 OpenBabel03212208273D

 51 54  0  0  1  0  0  0  0  0999 V2000
   89.0070   87.6710  -49.8420 Cl  0  0  0  0  0  0  0  0  0  0  0  0
   90.5490   88.2880  -49.2870 C   0  0  0  0  0  0  0  0  0  0  0  0
   90.8140   89.6380  -49.2380 C   0  0  0  0  0  0  0  0  0  0  0  0
   92.0620   90.1240  -48.7920 C   0  0  0  0  0  0  0  0  0  0  0  0
   92.9730   89.1800  -48.4180 C   0  0  0  0  0  0  0  0  0  0  0  0
   92.7050   87.7970  -48.4660 C   0  0  0  0  0  0  0  0  0  0  0  0
   91.4840   87.3550  -48.9050 C   0  0  0  0  0  0  0  0  0  0  0  0
   92.2610   91.5190  -48.7630 N   0  0  0  0  0  0  0  0  0  0  0  0
   91.6820   92.4100  -47.8750 C   0  0  0  0  0  0  0  0  0  0  0  0
   91.3450   93.5580  -48.1850 O   0  0  0  0  0  0  0  0  0  0  0  0
   91.4190   92.0360  -46.4300 C   0  0  0  0  0  0  0  0  0  0  0  0
   91.4860   93.2590  -45.6170 N   0  0  0  0  0  0  0  0  0  0  0  0
   91.6930   93.2880  -44.2670 C   0  0  1  0  0  0  0  0  0  0  0  0
   91.7190   94.5650  -43.8530 N   0  0  0  0  0  0  0  0  0  0  0  0
   91.5320   95.3950  -44.8870 C   0  0  0  0  0  0  0  0  0  0  0  0
   91.3880   94.5380  -45.9880 C   0  0  0  0  0  0  0  0  0  0  0  0
   91.4800   96.8440  -44.9850 C   0  0  0  0  0  0  0  0  0  0  0  0
   92.5380   97.5950  -45.4170 C   0  0  0  0  0  0  0  0  0  0  0  0
   92.4960   98.9720  -45.5340 C   0  0  0  0  0  0  0  0  0  0  0  0
   91.3480   99.6770  -45.2060 C   0  0  0  0  0  0  0  0  0  0  0  0
   90.2830   98.9240  -44.7710 C   0  0  0  0  0  0  0  0  0  0  0  0
   90.3250   97.5480  -44.6550 C   0  0  0  0  0  0  0  0  0  0  0  0
   91.2690  101.0550  -45.3090 O   0  0  0  0  0  0  0  0  0  0  0  0
   92.2130  101.9250  -44.7120 C   0  0  0  0  0  0  0  0  0  0  0  0
   91.9510   94.5840  -42.4090 C   0  0  0  0  0  0  0  0  0  0  0  0
   92.4620   93.1970  -42.0710 C   0  0  0  0  0  0  0  0  0  0  0  0
   91.8790   92.3410  -43.1380 C   0  0  0  0  0  0  0  0  0  0  0  0
   89.7690   90.5890  -49.6570 C   0  0  0  0  0  0  0  0  0  0  0  0
   93.9480   89.4710  -48.0670 H   0  0  0  0  0  0  0  0  0  0  0  0
   93.4410   87.0630  -48.1630 H   0  0  0  0  0  0  0  0  0  0  0  0
   91.2700   86.2760  -48.9420 H   0  0  0  0  0  0  0  0  0  0  0  0
   92.9160   91.9360  -49.4920 H   0  0  0  0  0  0  0  0  0  0  0  0
   90.3820   91.6690  -46.3930 H   0  0  0  0  0  0  0  0  0  0  0  0
   92.1740   91.3370  -46.0570 H   0  0  0  0  0  0  0  0  0  0  0  0
   91.2120   94.8610  -47.0170 H   0  0  0  0  0  0  0  0  0  0  0  0
   93.4540   97.0370  -45.6720 H   0  0  0  0  0  0  0  0  0  0  0  0
   93.3790   99.5030  -45.8840 H   0  0  0  0  0  0  0  0  0  0  0  0
   89.3690   99.4680  -44.5090 H   0  0  0  0  0  0  0  0  0  0  0  0
   89.4660   96.9770  -44.3020 H   0  0  0  0  0  0  0  0  0  0  0  0
   92.0110  102.0540  -43.6220 H   0  0  0  0  0  0  0  0  0  0  0  0
   93.2580  101.6100  -44.8510 H   0  0  0  0  0  0  0  0  0  0  0  0
   92.1060  102.9210  -45.1860 H   0  0  0  0  0  0  0  0  0  0  0  0
   91.0680   94.8740  -41.8390 H   0  0  0  0  0  0  0  0  0  0  0  0
   92.7910   95.2610  -42.1300 H   0  0  0  0  0  0  0  0  0  0  0  0
   92.2070   92.9060  -41.0440 H   0  0  0  0  0  0  0  0  0  0  0  0
   93.5830   93.1720  -42.2300 H   0  0  0  0  0  0  0  0  0  0  0  0
   92.5310   91.4940  -43.4400 H   0  0  0  0  0  0  0  0  0  0  0  0
   90.8740   91.9580  -42.8040 H   0  0  0  0  0  0  0  0  0  0  0  0
   88.8970   90.0330  -50.0440 H   0  0  0  0  0  0  0  0  0  0  0  0
   89.3810   91.1750  -48.7730 H   0  0  0  0  0  0  0  0  0  0  0  0
   90.1020   91.3310  -50.4040 H   0  0  0  0  0  0  0  0  0  0  0  0
  1  2  1  0  0  0  0
  2  3  2  0  0  0  0
  2  7  1  0  0  0  0
  3  4  1  0  0  0  0
  4  8  1  0  0  0  0
  4  5  2  0  0  0  0
  5 29  1  0  0  0  0
  6  5  1  0  0  0  0
  6 30  1  0  0  0  0
  7  6  2  0  0  0  0
  8  9  1  0  0  0  0
  9 11  1  0  0  0  0
 10  9  2  0  0  0  0
 11 33  1  0  0  0  0
 11 34  1  0  0  0  0
 11 12  1  0  0  0  0
 13 12  1  1  0  0  0
 13 14  1  0  0  0  0
 13 27  1  0  0  0  0
 14 25  1  0  0  0  0
 15 14  1  0  0  0  0
 16 12  1  0  0  0  0
 16 15  2  0  0  0  0
 17 15  1  0  0  0  0
 17 22  1  0  0  0  0
 18 17  2  0  0  0  0
 19 18  1  0  0  0  0
 19 20  2  0  0  0  0
 20 21  1  0  0  0  0
 21 22  2  0  0  0  0
 21 38  1  0  0  0  0
 22 39  1  0  0  0  0
 23 20  1  0  0  0  0
 23 24  1  0  0  0  0
 24 40  1  0  0  0  0
 25 44  1  0  0  0  0
 25 26  1  0  0  0  0
 25 43  1  0  0  0  0
 26 45  1  0  0  0  0
 27 48  1  0  0  0  0
 27 26  1  0  0  0  0
 28  3  1  0  0  0  0
 28 50  1  0  0  0  0
 31  7  1  0  0  0  0
 32  8  1  0  0  0  0
 35 16  1  0  0  0  0
 36 18  1  0  0  0  0
 37 19  1  0  0  0  0
 41 24  1  0  0  0  0
 42 24  1  0  0  0  0
 46 26  1  0  0  0  0
 47 27  1  0  0  0  0
 49 28  1  0  0  0  0
 51 28  1  0  0  0  0
M  END
>  <Pose>
1

>  <Score>
-5.13

$$$$
