
 OpenBabel03212208273D

 38 41  0  0  0  0  0  0  0  0999 V2000
   84.6490   98.1710  -43.0740 Cl  0  0  0  0  0  0  0  0  0  0  0  0
   84.8360   97.3420  -44.6130 C   0  0  0  0  0  0  0  0  0  0  0  0
   86.0420   97.3770  -45.2850 C   0  0  0  0  0  0  0  0  0  0  0  0
   86.1880   96.7330  -46.4810 C   0  0  0  0  0  0  0  0  0  0  0  0
   85.1070   96.0540  -46.9960 C   0  0  0  0  0  0  0  0  0  0  0  0
   83.8950   96.0080  -46.3430 C   0  0  0  0  0  0  0  0  0  0  0  0
   83.7570   96.6610  -45.1340 C   0  0  0  0  0  0  0  0  0  0  0  0
   87.4490   96.7230  -47.2610 C   0  0  0  0  0  0  0  0  0  0  0  0
   88.4660   97.3250  -46.4340 N   0  0  0  0  0  0  0  0  0  0  0  0
   88.1120   98.5490  -45.7550 C   0  0  0  0  0  0  0  0  0  0  0  0
   87.1460   98.1420  -44.6360 C   0  0  0  0  0  0  0  0  0  0  0  0
   89.7550   96.7650  -46.2760 C   0  0  0  0  0  0  0  0  0  0  0  0
   90.7080   97.4930  -45.8930 O   0  0  0  0  0  0  0  0  0  0  0  0
   90.0620   95.3390  -46.5410 C   0  0  0  0  0  0  0  0  0  0  0  0
   91.3130   94.9690  -46.0520 O   0  0  0  0  0  0  0  0  0  0  0  0
   91.5960   94.7660  -44.7080 C   0  0  0  0  0  0  0  0  0  0  0  0
   91.5930   95.8190  -43.8690 N   0  0  0  0  0  0  0  0  0  0  0  0
   91.8560   95.6910  -42.5710 N   0  0  0  0  0  0  0  0  0  0  0  0
   92.1410   94.5080  -42.0120 C   0  0  0  0  0  0  0  0  0  0  0  0
   92.3610   94.6830  -40.6940 N   0  0  0  0  0  0  0  0  0  0  0  0
   92.2130   95.9630  -40.4530 N   0  0  0  0  0  0  0  0  0  0  0  0
   91.9010   96.6090  -41.5890 C   0  0  0  0  0  0  0  0  0  0  0  0
   92.1530   93.3970  -42.8480 C   0  0  0  0  0  0  0  0  0  0  0  0
   91.8810   93.5280  -44.1880 C   0  0  0  0  0  0  0  0  0  0  0  0
   85.1680   95.5250  -47.9440 H   0  0  0  0  0  0  0  0  0  0  0  0
   83.0460   95.4590  -46.7730 H   0  0  0  0  0  0  0  0  0  0  0  0
   82.8320   96.6590  -44.5770 H   0  0  0  0  0  0  0  0  0  0  0  0
   87.3870   97.3270  -48.1890 H   0  0  0  0  0  0  0  0  0  0  0  0
   87.7670   95.7010  -47.5470 H   0  0  0  0  0  0  0  0  0  0  0  0
   88.9840   99.0860  -45.3380 H   0  0  0  0  0  0  0  0  0  0  0  0
   87.5590   99.2430  -46.4180 H   0  0  0  0  0  0  0  0  0  0  0  0
   86.7290   99.0030  -44.1130 H   0  0  0  0  0  0  0  0  0  0  0  0
   87.6490   97.4530  -43.9390 H   0  0  0  0  0  0  0  0  0  0  0  0
   90.0230   95.0800  -47.6180 H   0  0  0  0  0  0  0  0  0  0  0  0
   89.2680   94.7280  -46.0450 H   0  0  0  0  0  0  0  0  0  0  0  0
   91.7120   97.6800  -41.7330 H   0  0  0  0  0  0  0  0  0  0  0  0
   92.3780   92.4550  -42.4080 H   0  0  0  0  0  0  0  0  0  0  0  0
   91.8810   92.6880  -44.8680 H   0  0  0  0  0  0  0  0  0  0  0  0
  2  1  1  0  0  0  0
  3 11  1  0  0  0  0
  3  2  2  0  0  0  0
  4  3  1  0  0  0  0
  5  4  2  0  0  0  0
  5  6  1  0  0  0  0
  6  7  2  0  0  0  0
  7  2  1  0  0  0  0
  7 27  1  0  0  0  0
  8  4  1  0  0  0  0
  8  9  1  0  0  0  0
  9 12  1  0  0  0  0
  9 10  1  0  0  0  0
 10 30  1  0  0  0  0
 10 11  1  0  0  0  0
 11 32  1  0  0  0  0
 11 33  1  0  0  0  0
 12 13  2  0  0  0  0
 14 12  1  0  0  0  0
 14 15  1  0  0  0  0
 14 35  1  0  0  0  0
 15 16  1  0  0  0  0
 16 24  1  0  0  0  0
 16 17  2  0  0  0  0
 17 18  1  0  0  0  0
 18 19  1  0  0  0  0
 18 22  1  0  0  0  0
 19 20  2  0  0  0  0
 20 21  1  0  0  0  0
 22 21  2  0  0  0  0
 23 37  1  0  0  0  0
 23 19  1  0  0  0  0
 24 23  2  0  0  0  0
 25  5  1  0  0  0  0
 26  6  1  0  0  0  0
 28  8  1  0  0  0  0
 29  8  1  0  0  0  0
 31 10  1  0  0  0  0
 34 14  1  0  0  0  0
 36 22  1  0  0  0  0
 38 24  1  0  0  0  0
M  END
>  <Pose>
1

>  <Score>
-5.56

$$$$
