
 OpenBabel03212208273D

 42 45  0  0  1  0  0  0  0  0999 V2000
   92.2170   89.1350  -48.6860 S   0  0  0  0  0  0  0  0  0  0  0  0
   93.3730   88.2590  -49.0310 O   0  0  0  0  0  0  0  0  0  0  0  0
   92.2060   90.3150  -49.6230 O   0  0  0  0  0  0  0  0  0  0  0  0
   92.3940   89.7450  -47.0860 N   0  0  0  0  0  0  0  0  0  0  0  0
   91.3260   90.6170  -46.7090 C   0  0  0  0  0  0  0  0  0  0  0  0
   91.9450   91.8770  -46.1310 C   0  0  1  0  0  0  0  0  0  0  0  0
   93.2820   91.9190  -46.8410 C   0  0  0  0  0  0  0  0  0  0  0  0
   93.6320   90.4270  -46.8790 C   0  0  0  0  0  0  0  0  0  0  0  0
   91.1710   92.9790  -46.5750 O   0  0  0  0  0  0  0  0  0  0  0  0
   91.1590   94.1890  -45.9010 C   0  0  0  0  0  0  0  0  0  0  0  0
   90.5720   95.2310  -46.5570 N   0  0  0  0  0  0  0  0  0  0  0  0
   90.5450   96.4170  -45.9280 C   0  0  0  0  0  0  0  0  0  0  0  0
   91.0820   96.6020  -44.6700 C   0  0  0  0  0  0  0  0  0  0  0  0
   91.6650   95.5120  -44.0530 C   0  0  0  0  0  0  0  0  0  0  0  0
   91.6910   94.3190  -44.6870 N   0  0  0  0  0  0  0  0  0  0  0  0
   91.0410   98.1560  -43.8610 Cl  0  0  0  0  0  0  0  0  0  0  0  0
   90.7230   88.2480  -48.8800 C   0  0  0  0  0  0  0  0  0  0  0  0
   89.5120   88.9120  -48.8880 C   0  0  0  0  0  0  0  0  0  0  0  0
   88.3020   88.2570  -49.0370 C   0  0  0  0  0  0  0  0  0  0  0  0
   88.2780   86.8820  -49.1880 C   0  0  0  0  0  0  0  0  0  0  0  0
   89.4850   86.2310  -49.1800 C   0  0  0  0  0  0  0  0  0  0  0  0
   90.6920   86.8790  -49.0310 C   0  0  0  0  0  0  0  0  0  0  0  0
   87.0450   86.2680  -49.3360 O   0  0  0  0  0  0  0  0  0  0  0  0
   85.8340   86.8210  -48.8520 C   0  0  0  0  0  0  0  0  0  0  0  0
   85.8370   88.3260  -48.8290 C   0  0  0  0  0  0  0  0  0  0  0  0
   87.0900   88.9070  -49.0470 O   0  0  0  0  0  0  0  0  0  0  0  0
   90.7680   90.1350  -45.8730 H   0  0  0  0  0  0  0  0  0  0  0  0
   90.6060   90.8270  -47.4990 H   0  0  0  0  0  0  0  0  0  0  0  0
   92.0360   91.8220  -45.0390 H   0  0  0  0  0  0  0  0  0  0  0  0
   93.1900   92.3370  -47.8410 H   0  0  0  0  0  0  0  0  0  0  0  0
   94.0340   92.4090  -46.1940 H   0  0  0  0  0  0  0  0  0  0  0  0
   94.3670   90.2610  -47.7010 H   0  0  0  0  0  0  0  0  0  0  0  0
   94.0720   90.1610  -45.9140 H   0  0  0  0  0  0  0  0  0  0  0  0
   90.0950   97.2830  -46.3900 H   0  0  0  0  0  0  0  0  0  0  0  0
   92.1010   95.6280  -43.0510 H   0  0  0  0  0  0  0  0  0  0  0  0
   89.5220   89.9940  -48.7690 H   0  0  0  0  0  0  0  0  0  0  0  0
   89.4450   85.1410  -49.3010 H   0  0  0  0  0  0  0  0  0  0  0  0
   91.6230   86.3480  -49.0280 H   0  0  0  0  0  0  0  0  0  0  0  0
   85.0080   86.4240  -49.4680 H   0  0  0  0  0  0  0  0  0  0  0  0
   85.7000   86.4020  -47.8140 H   0  0  0  0  0  0  0  0  0  0  0  0
   85.0740   88.6670  -49.5760 H   0  0  0  0  0  0  0  0  0  0  0  0
   85.4760   88.6440  -47.8290 H   0  0  0  0  0  0  0  0  0  0  0  0
  1  4  1  0  0  0  0
  2  1  2  0  0  0  0
  3  1  2  0  0  0  0
  4  8  1  0  0  0  0
  4  5  1  0  0  0  0
  5  6  1  0  0  0  0
  5 27  1  0  0  0  0
  6 29  1  1  0  0  0
  7 31  1  0  0  0  0
  7  6  1  0  0  0  0
  8  7  1  0  0  0  0
  8 33  1  0  0  0  0
  9  6  1  0  0  0  0
  9 10  1  0  0  0  0
 10 15  2  0  0  0  0
 11 12  1  0  0  0  0
 11 10  2  0  0  0  0
 12 13  2  0  0  0  0
 13 14  1  0  0  0  0
 13 16  1  0  0  0  0
 14 35  1  0  0  0  0
 15 14  1  0  0  0  0
 17  1  1  0  0  0  0
 18 17  1  0  0  0  0
 18 36  1  0  0  0  0
 19 18  2  0  0  0  0
 20 21  2  0  0  0  0
 20 19  1  0  0  0  0
 21 22  1  0  0  0  0
 22 38  1  0  0  0  0
 22 17  2  0  0  0  0
 23 20  1  0  0  0  0
 23 24  1  0  0  0  0
 24 25  1  0  0  0  0
 24 40  1  0  0  0  0
 25 42  1  0  0  0  0
 26 19  1  0  0  0  0
 26 25  1  0  0  0  0
 28  5  1  0  0  0  0
 30  7  1  0  0  0  0
 32  8  1  0  0  0  0
 34 12  1  0  0  0  0
 37 21  1  0  0  0  0
 39 24  1  0  0  0  0
 41 25  1  0  0  0  0
M  END
>  <Pose>
1

>  <Score>
-5.46

$$$$
