
 OpenBabel03212208273D

 51 54  0  0  0  0  0  0  0  0999 V2000
   95.9740  103.8190  -40.1140 B   0  0  0  0  0  0  0  0  0  0  0  0
   94.3090  102.9100  -40.3190 C   0  0  0  0  0  0  0  0  0  0  0  0
   94.0740  102.1430  -41.4210 C   0  0  0  0  0  0  0  0  0  0  0  0
   92.8480  101.4750  -41.5680 C   0  0  0  0  0  0  0  0  0  0  0  0
   91.9040  101.6130  -40.5870 C   0  0  0  0  0  0  0  0  0  0  0  0
   92.1530  102.4040  -39.4540 C   0  0  0  0  0  0  0  0  0  0  0  0
   93.3590  103.0470  -39.3320 C   0  0  0  0  0  0  0  0  0  0  0  0
   90.6810  100.9790  -40.6780 O   0  0  0  0  0  0  0  0  0  0  0  0
   92.6150  100.6610  -42.7510 C   0  0  0  0  0  0  0  0  0  0  0  0
   93.5500  100.5780  -43.6720 N   0  0  0  0  0  0  0  0  0  0  0  0
   93.2870   99.7870  -44.7910 N   0  0  0  0  0  0  0  0  0  0  0  0
   92.2940   98.7730  -44.7590 C   0  0  0  0  0  0  0  0  0  0  0  0
   91.1340   98.8970  -45.4210 N   0  0  0  0  0  4  0  0  0  0  0  0
   90.1550   97.9550  -45.4200 C   0  0  0  0  0  0  0  0  0  0  0  0
   90.4290   96.8440  -44.6860 N   0  0  0  0  0  0  0  0  0  0  0  0
   91.5700   96.6620  -44.0030 C   0  0  0  0  0  0  0  0  0  0  0  0
   92.4770   97.6290  -44.0540 N   0  0  0  0  0  0  0  0  0  0  0  0
   91.7880   95.4790  -43.2590 N   0  0  0  0  0  0  0  0  0  0  0  0
   91.8510   94.1640  -43.8620 C   0  0  0  0  0  0  0  0  0  0  0  0
   92.7680   93.2730  -43.0520 C   0  0  0  0  0  0  0  0  0  0  0  0
   92.4100   93.1660  -41.7350 O   0  0  0  0  0  0  0  0  0  0  0  0
   91.5060   94.1360  -41.3190 C   0  0  0  0  0  0  0  0  0  0  0  0
   91.9670   95.5070  -41.8040 C   0  0  0  0  0  0  0  0  0  0  0  0
   88.9480   98.1180  -46.1260 N   0  0  0  0  0  0  0  0  0  0  0  0
   88.8960   97.8990  -47.5410 C   0  0  0  0  0  0  0  0  0  0  0  0
   87.7780   96.9030  -47.7990 C   0  0  0  0  0  0  0  0  0  0  0  0
   86.6010   97.4720  -47.2880 O   0  0  0  0  0  0  0  0  0  0  0  0
   86.6560   97.5220  -45.8950 C   0  0  0  0  0  0  0  0  0  0  0  0
   87.7460   98.5050  -45.4520 C   0  0  0  0  0  0  0  0  0  0  0  0
   94.8050  102.0170  -42.2130 H   0  0  0  0  0  0  0  0  0  0  0  0
   91.3860  102.4920  -38.6970 H   0  0  0  0  0  0  0  0  0  0  0  0
   93.5820  103.6710  -38.4620 H   0  0  0  0  0  0  0  0  0  0  0  0
   90.4600  100.1030  -40.2500 H   0  0  0  0  0  0  0  0  0  0  0  0
   91.6980  100.1220  -42.8980 H   0  0  0  0  0  0  0  0  0  0  0  0
   93.8430   99.9680  -45.6500 H   0  0  0  0  0  0  0  0  0  0  0  0
   92.2670   94.2400  -44.8840 H   0  0  0  0  0  0  0  0  0  0  0  0
   90.8410   93.7230  -43.8330 H   0  0  0  0  0  0  0  0  0  0  0  0
   93.8290   93.5630  -43.2060 H   0  0  0  0  0  0  0  0  0  0  0  0
   92.6680   92.2450  -43.5100 H   0  0  0  0  0  0  0  0  0  0  0  0
   91.3880   94.1020  -40.2330 H   0  0  0  0  0  0  0  0  0  0  0  0
   90.5410   93.9210  -41.8250 H   0  0  0  0  0  0  0  0  0  0  0  0
   91.4240   96.3210  -41.3340 H   0  0  0  0  0  0  0  0  0  0  0  0
   93.0670   95.5380  -41.6390 H   0  0  0  0  0  0  0  0  0  0  0  0
   88.6050   98.8410  -48.0490 H   0  0  0  0  0  0  0  0  0  0  0  0
   89.8700   97.5090  -47.9060 H   0  0  0  0  0  0  0  0  0  0  0  0
   87.9510   95.9390  -47.2820 H   0  0  0  0  0  0  0  0  0  0  0  0
   87.6380   96.7240  -48.8830 H   0  0  0  0  0  0  0  0  0  0  0  0
   86.9820   96.5170  -45.5580 H   0  0  0  0  0  0  0  0  0  0  0  0
   85.6760   97.8130  -45.5010 H   0  0  0  0  0  0  0  0  0  0  0  0
   87.4390   99.5480  -45.6580 H   0  0  0  0  0  0  0  0  0  0  0  0
   87.8770   98.3720  -44.3540 H   0  0  0  0  0  0  0  0  0  0  0  0
  2  1  1  0  0  0  0
  2  7  1  0  0  0  0
  3  2  2  0  0  0  0
  4  3  1  0  0  0  0
  4  5  2  0  0  0  0
  5  6  1  0  0  0  0
  6  7  2  0  0  0  0
  6 31  1  0  0  0  0
  7 32  1  0  0  0  0
  8  5  1  0  0  0  0
  8 33  1  0  0  0  0
  9  4  1  0  0  0  0
 10  9  2  0  0  0  0
 11 12  1  0  0  0  0
 11 10  1  0  0  0  0
 12 17  1  0  0  0  0
 13 14  2  0  0  0  0
 13 12  2  0  0  0  0
 14 15  1  0  0  0  0
 15 16  2  0  0  0  0
 16 18  1  0  0  0  0
 17 16  1  0  0  0  0
 18 23  1  0  0  0  0
 19 37  1  0  0  0  0
 19 18  1  0  0  0  0
 19 20  1  0  0  0  0
 20 21  1  0  0  0  0
 21 22  1  0  0  0  0
 22 40  1  0  0  0  0
 23 43  1  0  0  0  0
 23 42  1  0  0  0  0
 23 22  1  0  0  0  0
 24 29  1  0  0  0  0
 24 14  1  0  0  0  0
 25 24  1  0  0  0  0
 26 25  1  0  0  0  0
 26 27  1  0  0  0  0
 26 46  1  0  0  0  0
 27 28  1  0  0  0  0
 28 48  1  0  0  0  0
 28 49  1  0  0  0  0
 28 29  1  0  0  0  0
 29 51  1  0  0  0  0
 30  3  1  0  0  0  0
 34  9  1  0  0  0  0
 35 11  1  0  0  0  0
 36 19  1  0  0  0  0
 38 20  1  0  0  0  0
 39 20  1  0  0  0  0
 41 22  1  0  0  0  0
 44 25  1  0  0  0  0
 45 25  1  0  0  0  0
 47 26  1  0  0  0  0
 50 29  1  0  0  0  0
M  END
>  <Pose>
1

>  <Score>
-5.13

$$$$
