
 OpenBabel03212208273D

 52 55  0  0  0  0  0  0  0  0999 V2000
   85.5580   96.5960  -45.2410 Cl  0  0  0  0  0  0  0  0  0  0  0  0
   86.9300   97.5760  -45.7490 C   0  0  0  0  0  0  0  0  0  0  0  0
   88.2250   97.1420  -45.6970 C   0  0  0  0  0  0  0  0  0  0  0  0
   89.3140   97.9320  -46.0980 C   0  0  0  0  0  0  0  0  0  0  0  0
   89.0420   99.1840  -46.5580 C   0  0  0  0  0  0  0  0  0  0  0  0
   87.7290   99.6290  -46.6140 C   0  0  0  0  0  0  0  0  0  0  0  0
   86.6650   98.8450  -46.2180 C   0  0  0  0  0  0  0  0  0  0  0  0
   90.6760   97.3430  -46.0000 C   0  0  0  0  0  0  0  0  0  0  0  0
   91.0820   96.9410  -44.6950 N   0  0  0  0  0  0  0  0  0  0  0  0
   91.2710   95.6400  -44.3400 C   0  0  0  0  0  0  0  0  0  0  0  0
   91.6250   95.6200  -43.0170 C   0  0  0  0  0  0  0  0  0  0  0  0
   91.6400   96.8910  -42.6180 N   0  0  0  0  0  0  0  0  0  0  0  0
   91.3090   97.7260  -43.6390 C   0  0  0  0  0  0  0  0  0  0  0  0
   91.2770   99.1650  -43.5370 N   0  0  0  0  0  0  0  0  0  0  0  0
   90.0800   99.7150  -42.9450 C   0  0  0  0  0  0  0  0  0  0  0  0
   90.1190  101.2120  -42.7760 C   0  0  0  0  0  0  0  0  0  0  0  0
   91.3710  101.5540  -42.2050 N   0  0  0  0  0  0  0  0  0  0  0  0
   92.4590  101.2570  -43.0760 C   0  0  0  0  0  0  0  0  0  0  0  0
   92.2990  100.0580  -43.9640 C   0  0  0  0  0  0  0  0  0  0  0  0
   91.5000  101.0090  -40.8910 C   0  0  0  0  0  0  0  0  0  0  0  0
   92.8430  100.4250  -40.6040 C   0  0  0  0  0  0  0  0  0  0  0  0
   93.8610  101.0950  -40.3700 O   0  0  0  0  0  0  0  0  0  0  0  0
   92.8940   98.9910  -40.6150 N   0  0  0  0  0  0  0  0  0  0  0  0
   91.8810   94.4320  -42.4410 N   0  0  0  0  0  0  0  0  0  0  0  0
   91.7990   93.2680  -43.1390 C   0  0  0  0  0  0  0  0  0  0  0  0
   92.0390   92.1400  -42.6030 O   0  0  0  0  0  0  0  0  0  0  0  0
   91.4550   93.2570  -44.4380 N   0  0  0  0  0  0  0  0  0  0  0  0
   91.1950   94.4320  -45.0280 C   0  0  0  0  0  0  0  0  0  0  0  0
   90.8800   94.3870  -46.2380 O   0  0  0  0  0  0  0  0  0  0  0  0
   92.2620   94.3590  -41.0550 C   0  0  0  0  0  0  0  0  0  0  0  0
   88.3990   96.1430  -45.3200 H   0  0  0  0  0  0  0  0  0  0  0  0
   89.8400   99.8320  -46.8880 H   0  0  0  0  0  0  0  0  0  0  0  0
   87.5210  100.6340  -46.9860 H   0  0  0  0  0  0  0  0  0  0  0  0
   85.6410   99.2390  -46.2810 H   0  0  0  0  0  0  0  0  0  0  0  0
   90.6890   96.4940  -46.7140 H   0  0  0  0  0  0  0  0  0  0  0  0
   91.4020   98.0760  -46.4330 H   0  0  0  0  0  0  0  0  0  0  0  0
   89.2260   99.5190  -43.6720 H   0  0  0  0  0  0  0  0  0  0  0  0
   89.7990   99.1560  -42.0380 H   0  0  0  0  0  0  0  0  0  0  0  0
   89.2850  101.4980  -42.1190 H   0  0  0  0  0  0  0  0  0  0  0  0
   89.9330  101.7330  -43.7460 H   0  0  0  0  0  0  0  0  0  0  0  0
   93.3680  101.1510  -42.4110 H   0  0  0  0  0  0  0  0  0  0  0  0
   92.6360  102.1790  -43.6950 H   0  0  0  0  0  0  0  0  0  0  0  0
   93.3010   99.5800  -44.0410 H   0  0  0  0  0  0  0  0  0  0  0  0
   92.1150  100.4320  -45.0220 H   0  0  0  0  0  0  0  0  0  0  0  0
   91.3460  101.7760  -40.0820 H   0  0  0  0  0  0  0  0  0  0  0  0
   90.7640  100.1660  -40.7960 H   0  0  0  0  0  0  0  0  0  0  0  0
   92.1550   98.4110  -40.1590 H   0  0  0  0  0  0  0  0  0  0  0  0
   93.6760   98.5350  -41.0810 H   0  0  0  0  0  0  0  0  0  0  0  0
   91.3900   92.3430  -44.9810 H   0  0  0  0  0  0  0  0  0  0  0  0
   92.7680   95.3150  -40.7890 H   0  0  0  0  0  0  0  0  0  0  0  0
   92.9580   93.5260  -40.8710 H   0  0  0  0  0  0  0  0  0  0  0  0
   91.3590   94.1790  -40.4300 H   0  0  0  0  0  0  0  0  0  0  0  0
  2  3  1  0  0  0  0
  2  1  1  0  0  0  0
  3 31  1  0  0  0  0
  4  8  1  0  0  0  0
  4  3  2  0  0  0  0
  5  4  1  0  0  0  0
  6  5  2  0  0  0  0
  6  7  1  0  0  0  0
  7  2  2  0  0  0  0
  8  9  1  0  0  0  0
  9 10  1  0  0  0  0
  9 13  1  0  0  0  0
 10 11  2  0  0  0  0
 11 12  1  0  0  0  0
 11 24  1  0  0  0  0
 13 14  1  0  0  0  0
 13 12  2  0  0  0  0
 14 15  1  0  0  0  0
 15 16  1  0  0  0  0
 15 38  1  0  0  0  0
 16 17  1  0  0  0  0
 16 39  1  0  0  0  0
 17 20  1  0  0  0  0
 18 41  1  0  0  0  0
 18 17  1  0  0  0  0
 19 14  1  0  0  0  0
 19 18  1  0  0  0  0
 20 46  1  0  0  0  0
 20 21  1  0  0  0  0
 20 45  1  0  0  0  0
 21 22  2  0  0  0  0
 23 21  1  0  0  0  0
 23 47  1  0  0  0  0
 24 30  1  0  0  0  0
 25 26  2  0  0  0  0
 25 24  1  0  0  0  0
 27 25  1  0  0  0  0
 28 27  1  0  0  0  0
 28 10  1  0  0  0  0
 29 28  2  0  0  0  0
 30 51  1  0  0  0  0
 30 50  1  0  0  0  0
 30 52  1  0  0  0  0
 32  5  1  0  0  0  0
 33  6  1  0  0  0  0
 34  7  1  0  0  0  0
 35  8  1  0  0  0  0
 36  8  1  0  0  0  0
 37 15  1  0  0  0  0
 40 16  1  0  0  0  0
 42 18  1  0  0  0  0
 43 19  1  0  0  0  0
 44 19  1  0  0  0  0
 48 23  1  0  0  0  0
 49 27  1  0  0  0  0
M  END
>  <Pose>
1

>  <Score>
-5.92

$$$$
