
 OpenBabel03212208273D

 46 49  0  0  0  0  0  0  0  0999 V2000
   92.7170   90.8670  -43.0670 Cl  0  0  0  0  0  0  0  0  0  0  0  0
   92.3590   92.5390  -43.4470 C   0  0  0  0  0  0  0  0  0  0  0  0
   92.0540   93.4780  -42.4830 C   0  0  0  0  0  0  0  0  0  0  0  0
   91.7720   94.7920  -42.7760 C   0  0  0  0  0  0  0  0  0  0  0  0
   91.7880   95.2140  -44.0860 C   0  0  0  0  0  0  0  0  0  0  0  0
   92.0900   94.2860  -45.0670 C   0  0  0  0  0  0  0  0  0  0  0  0
   92.3710   92.9710  -44.7590 C   0  0  0  0  0  0  0  0  0  0  0  0
   91.4520   95.7680  -41.7130 C   0  0  0  0  0  0  0  0  0  0  0  0
   91.7190   97.1320  -42.1050 N   0  0  0  0  0  0  0  0  0  0  0  0
   92.5450   98.1010  -41.4430 C   0  0  0  0  0  0  0  0  0  0  0  0
   93.1930   97.8880  -40.3650 O   0  0  0  0  0  0  0  0  0  0  0  0
   92.5200   99.3180  -42.1840 N   0  0  0  0  0  0  0  0  0  0  0  0
   91.3180   99.2600  -42.9850 C   0  0  0  0  0  0  0  0  0  0  0  0
   90.1610   99.6260  -42.0740 C   0  0  0  0  0  0  0  0  0  0  0  0
   88.8990   99.1420  -42.7790 C   0  0  0  0  0  0  0  0  0  0  0  0
   88.9070   99.5730  -44.1640 N   0  0  0  0  0  0  0  0  0  0  0  0
   89.9450  100.4540  -44.6300 C   0  0  0  0  0  0  0  0  0  0  0  0
   91.3280  100.1080  -44.1850 C   0  0  0  0  0  0  0  0  0  0  0  0
   87.8900   99.1280  -45.0470 C   0  0  0  0  0  0  0  0  0  0  0  0
   87.9960   99.3610  -46.2940 O   0  0  0  0  0  0  0  0  0  0  0  0
   86.7060   98.4080  -44.6090 C   0  0  0  0  0  0  0  0  0  0  0  0
   86.0390   98.7220  -43.4820 N   0  0  0  0  0  0  0  0  0  0  0  0
   84.9510   98.0120  -43.1360 C   0  0  0  0  0  0  0  0  0  0  0  0
   84.4800   96.9630  -43.8960 C   0  0  0  0  0  0  0  0  0  0  0  0
   85.1410   96.6470  -45.0200 N   0  0  0  0  0  0  0  0  0  0  0  0
   86.2430   97.3620  -45.3730 C   0  0  0  0  0  0  0  0  0  0  0  0
   91.2060   97.8050  -43.2520 C   0  0  0  0  0  0  0  0  0  0  0  0
   90.7570   97.2020  -44.2640 O   0  0  0  0  0  0  0  0  0  0  0  0
   92.0490   93.1250  -41.4590 H   0  0  0  0  0  0  0  0  0  0  0  0
   91.5730   96.2430  -44.3860 H   0  0  0  0  0  0  0  0  0  0  0  0
   92.1000   94.6290  -46.1050 H   0  0  0  0  0  0  0  0  0  0  0  0
   92.6080   92.2440  -45.5270 H   0  0  0  0  0  0  0  0  0  0  0  0
   90.4110   95.5990  -41.4030 H   0  0  0  0  0  0  0  0  0  0  0  0
   92.0790   95.5640  -40.7980 H   0  0  0  0  0  0  0  0  0  0  0  0
   93.2150  100.0870  -42.1560 H   0  0  0  0  0  0  0  0  0  0  0  0
   90.3170   99.0580  -41.1330 H   0  0  0  0  0  0  0  0  0  0  0  0
   90.1310  100.7180  -41.8960 H   0  0  0  0  0  0  0  0  0  0  0  0
   88.0000   99.5140  -42.2960 H   0  0  0  0  0  0  0  0  0  0  0  0
   88.9150   98.0370  -42.6990 H   0  0  0  0  0  0  0  0  0  0  0  0
   89.6390  101.4830  -44.3370 H   0  0  0  0  0  0  0  0  0  0  0  0
   89.9740  100.4720  -45.7580 H   0  0  0  0  0  0  0  0  0  0  0  0
   91.8120  101.0900  -43.8950 H   0  0  0  0  0  0  0  0  0  0  0  0
   91.9710   99.7380  -45.0120 H   0  0  0  0  0  0  0  0  0  0  0  0
   84.4020   98.2590  -42.2230 H   0  0  0  0  0  0  0  0  0  0  0  0
   83.6010   96.4300  -43.5670 H   0  0  0  0  0  0  0  0  0  0  0  0
   86.7560   97.0700  -46.3030 H   0  0  0  0  0  0  0  0  0  0  0  0
  2  1  1  0  0  0  0
  2  3  1  0  0  0  0
  3 29  1  0  0  0  0
  4  3  2  0  0  0  0
  4  8  1  0  0  0  0
  5  4  1  0  0  0  0
  6  7  1  0  0  0  0
  6  5  2  0  0  0  0
  7  2  2  0  0  0  0
  8 33  1  0  0  0  0
  8 34  1  0  0  0  0
  9  8  1  0  0  0  0
  9 10  1  0  0  0  0
 10 11  2  0  0  0  0
 12 35  1  0  0  0  0
 12 10  1  0  0  0  0
 13 12  1  0  0  0  0
 13 14  1  0  0  0  0
 14 37  1  0  0  0  0
 14 36  1  0  0  0  0
 15 39  1  0  0  0  0
 15 38  1  0  0  0  0
 15 14  1  0  0  0  0
 16 15  1  0  0  0  0
 17 40  1  0  0  0  0
 17 18  1  0  0  0  0
 17 16  1  0  0  0  0
 18 42  1  0  0  0  0
 18 13  1  0  0  0  0
 19 21  1  0  0  0  0
 19 16  1  0  0  0  0
 20 19  2  0  0  0  0
 21 22  1  0  0  0  0
 22 23  2  0  0  0  0
 23 44  1  0  0  0  0
 24 45  1  0  0  0  0
 24 23  1  0  0  0  0
 25 24  2  0  0  0  0
 26 25  1  0  0  0  0
 26 21  2  0  0  0  0
 27 13  1  0  0  0  0
 27  9  1  0  0  0  0
 28 27  2  0  0  0  0
 30  5  1  0  0  0  0
 31  6  1  0  0  0  0
 32  7  1  0  0  0  0
 41 17  1  0  0  0  0
 43 18  1  0  0  0  0
 46 26  1  0  0  0  0
M  END
>  <Pose>
1

>  <Score>
-5.32

$$$$
