
 OpenBabel03212208273D

 50 53  0  0  1  0  0  0  0  0999 V2000
   90.0280  105.3320  -45.7900 Cl  0  0  0  0  0  0  0  0  0  0  0  0
   89.9350  104.0630  -44.5840 C   0  0  0  0  0  0  0  0  0  0  0  0
   88.8240  103.9110  -43.7660 C   0  0  0  0  0  0  0  0  0  0  0  0
   88.8260  102.8760  -42.8330 C   0  0  0  0  0  0  0  0  0  0  0  0
   89.8840  102.0160  -42.7040 C   0  0  0  0  0  0  0  0  0  0  0  0
   90.9950  102.1640  -43.5170 C   0  0  0  0  0  0  0  0  0  0  0  0
   90.9940  103.1890  -44.4410 C   0  0  0  0  0  0  0  0  0  0  0  0
   89.8260  100.9350  -41.7240 C   0  0  2  0  0  0  0  0  0  0  0  0
   91.0110  100.2360  -41.4110 N   0  0  0  0  0  4  0  0  0  0  0  0
   91.1700   99.1300  -42.2570 C   0  0  0  0  0  0  0  0  0  0  0  0
   91.9350   98.0810  -42.4400 C   0  0  0  0  0  0  0  0  0  0  0  0
   91.6990   97.1390  -43.5400 C   0  0  0  0  0  0  0  0  0  0  0  0
   90.8430   97.5130  -44.6590 C   0  0  0  0  0  0  0  0  0  0  0  0
   90.1420   98.8410  -44.5220 C   0  0  0  0  0  0  0  0  0  0  0  0
   90.0350   99.2310  -43.1610 N   0  0  0  0  0  0  0  0  0  0  0  0
   88.9960   99.7710  -42.2930 C   0  0  2  0  0  0  0  0  0  0  0  0
   87.8050  100.1530  -43.0670 C   0  0  0  0  0  0  0  0  0  0  0  0
   92.0940  100.9670  -40.9330 C   0  0  0  0  0  0  0  0  0  0  0  0
   91.8420  102.2570  -40.4960 C   0  0  0  0  0  0  0  0  0  0  0  0
   92.8250  103.0870  -40.0130 C   0  0  0  0  0  0  0  0  0  0  0  0
   94.1600  102.6780  -39.9270 C   0  0  0  0  0  0  0  0  0  0  0  0
   94.3810  101.3960  -40.3670 C   0  0  0  0  0  0  0  0  0  0  0  0
   93.3930  100.5730  -40.8490 C   0  0  0  0  0  0  0  0  0  0  0  0
   95.1390  103.5190  -39.4350 O   0  0  0  0  0  0  0  0  0  0  0  0
   96.3440  103.6690  -40.1430 C   0  0  0  0  0  0  0  0  0  0  0  0
   89.1830  101.3100  -40.5670 O   0  0  0  0  0  0  0  0  0  0  0  0
   87.9900  104.5830  -43.8640 H   0  0  0  0  0  0  0  0  0  0  0  0
   87.9100  102.8390  -42.2470 H   0  0  0  0  0  0  0  0  0  0  0  0
   91.8060  101.4650  -43.3990 H   0  0  0  0  0  0  0  0  0  0  0  0
   91.8870  103.2600  -45.0480 H   0  0  0  0  0  0  0  0  0  0  0  0
   90.7110   99.7080  -40.4710 H   0  0  0  0  0  0  0  0  0  0  0  0
   92.7710   97.8660  -41.7410 H   0  0  0  0  0  0  0  0  0  0  0  0
   91.3530   96.1720  -43.0780 H   0  0  0  0  0  0  0  0  0  0  0  0
   92.7380   96.8850  -43.9320 H   0  0  0  0  0  0  0  0  0  0  0  0
   90.0860   96.6850  -44.8510 H   0  0  0  0  0  0  0  0  0  0  0  0
   91.4350   97.5560  -45.6070 H   0  0  0  0  0  0  0  0  0  0  0  0
   89.1270   98.7220  -44.9450 H   0  0  0  0  0  0  0  0  0  0  0  0
   90.6240   99.6150  -45.1520 H   0  0  0  0  0  0  0  0  0  0  0  0
   88.7500   99.0540  -41.5210 H   0  0  0  0  0  0  0  0  0  0  0  0
   87.0590  100.6510  -42.4250 H   0  0  0  0  0  0  0  0  0  0  0  0
   87.9630  100.5980  -44.0540 H   0  0  0  0  0  0  0  0  0  0  0  0
   87.2970   99.1630  -43.2930 H   0  0  0  0  0  0  0  0  0  0  0  0
   90.8280  102.6960  -40.4940 H   0  0  0  0  0  0  0  0  0  0  0  0
   92.6260  104.1050  -39.6720 H   0  0  0  0  0  0  0  0  0  0  0  0
   95.4220  101.0390  -40.3170 H   0  0  0  0  0  0  0  0  0  0  0  0
   93.7090   99.6110  -41.1560 H   0  0  0  0  0  0  0  0  0  0  0  0
   96.2490  104.4160  -40.9780 H   0  0  0  0  0  0  0  0  0  0  0  0
   96.7390  102.7510  -40.5920 H   0  0  0  0  0  0  0  0  0  0  0  0
   97.1560  104.0940  -39.4870 H   0  0  0  0  0  0  0  0  0  0  0  0
   88.4100  101.8970  -40.6610 H   0  0  0  0  0  0  0  0  0  0  0  0
  1  2  1  0  0  0  0
  2  7  2  0  0  0  0
  2  3  1  0  0  0  0
  3  4  2  0  0  0  0
  4  5  1  0  0  0  0
  4 28  1  0  0  0  0
  5  8  1  0  0  0  0
  6 29  1  0  0  0  0
  6  5  2  0  0  0  0
  7  6  1  0  0  0  0
  8  9  1  0  0  0  0
  8 26  1  1  0  0  0
  9 18  1  0  0  0  0
  9 31  1  0  0  0  0
 10  9  1  0  0  0  0
 11 10  2  0  0  0  0
 11 32  1  0  0  0  0
 12 33  1  0  0  0  0
 12 11  1  0  0  0  0
 13 14  1  0  0  0  0
 13 12  1  0  0  0  0
 14 15  1  0  0  0  0
 15 16  1  0  0  0  0
 15 10  1  0  0  0  0
 16  8  1  0  0  0  0
 16 39  1  1  0  0  0
 17 40  1  0  0  0  0
 17 16  1  0  0  0  0
 18 23  2  0  0  0  0
 18 19  1  0  0  0  0
 19 43  1  0  0  0  0
 19 20  2  0  0  0  0
 20 21  1  0  0  0  0
 20 44  1  0  0  0  0
 21 24  1  0  0  0  0
 22 45  1  0  0  0  0
 22 21  2  0  0  0  0
 23 22  1  0  0  0  0
 25 49  1  0  0  0  0
 25 24  1  0  0  0  0
 27  3  1  0  0  0  0
 30  7  1  0  0  0  0
 34 12  1  0  0  0  0
 35 13  1  0  0  0  0
 36 13  1  0  0  0  0
 37 14  1  0  0  0  0
 38 14  1  0  0  0  0
 41 17  1  0  0  0  0
 42 17  1  0  0  0  0
 46 23  1  0  0  0  0
 47 25  1  0  0  0  0
 48 25  1  0  0  0  0
 50 26  1  0  0  0  0
M  END
>  <Pose>
1

>  <Score>
-3.64

$$$$
