
 OpenBabel03212208273D

 41 44  0  0  0  0  0  0  0  0999 V2000
   92.6730   89.4160  -48.3290 Cl  0  0  0  0  0  0  0  0  0  0  0  0
   92.4580   90.6370  -47.0690 C   0  0  0  0  0  0  0  0  0  0  0  0
   91.4010   91.5210  -47.1130 C   0  0  0  0  0  0  0  0  0  0  0  0
   91.2860   92.4540  -46.0990 C   0  0  0  0  0  0  0  0  0  0  0  0
   92.1800   92.5340  -45.0520 C   0  0  0  0  0  0  0  0  0  0  0  0
   93.2250   91.6320  -45.0430 C   0  0  0  0  0  0  0  0  0  0  0  0
   93.3800   90.6760  -46.0430 C   0  0  0  0  0  0  0  0  0  0  0  0
   92.0400   93.4960  -44.0290 N   0  0  0  0  0  0  0  0  0  0  0  0
   91.7370   94.8070  -44.1800 C   0  0  0  0  0  0  0  0  0  0  0  0
   91.5350   95.3570  -45.2940 O   0  0  0  0  0  0  0  0  0  0  0  0
   91.6830   95.4480  -42.9540 C   0  0  0  0  0  0  0  0  0  0  0  0
   91.9550   94.5230  -42.0470 C   0  0  0  0  0  0  0  0  0  0  0  0
   91.9010   95.1510  -40.8530 N   0  0  0  0  0  0  0  0  0  0  0  0
   91.6000   96.4410  -41.0570 N   0  0  0  0  0  0  0  0  0  0  0  0
   91.4620   96.6340  -42.3580 N   0  0  0  0  0  0  0  0  0  0  0  0
   91.1360   97.8780  -43.0220 C   0  0  0  0  0  0  0  0  0  0  0  0
   91.3440   99.0680  -42.1600 C   0  0  0  0  0  0  0  0  0  0  0  0
   92.5430   99.3890  -41.5630 C   0  0  0  0  0  0  0  0  0  0  0  0
   92.7330  100.4980  -40.7630 C   0  0  0  0  0  0  0  0  0  0  0  0
   91.6720  101.3410  -40.5380 C   0  0  0  0  0  0  0  0  0  0  0  0
   90.4560  101.0590  -41.1160 C   0  0  0  0  0  0  0  0  0  0  0  0
   90.2930   99.9390  -41.9140 C   0  0  0  0  0  0  0  0  0  0  0  0
   93.9950  100.7310  -40.2020 O   0  0  0  0  0  0  0  0  0  0  0  0
   94.7030  101.9300  -40.4500 C   0  0  0  0  0  0  0  0  0  0  0  0
   92.1730   93.3290  -42.7020 C   0  0  0  0  0  0  0  0  0  0  0  0
   92.4530   92.2590  -42.1170 O   0  0  0  0  0  0  0  0  0  0  0  0
   90.7040   91.4560  -47.9330 H   0  0  0  0  0  0  0  0  0  0  0  0
   90.4670   93.1520  -46.1170 H   0  0  0  0  0  0  0  0  0  0  0  0
   93.9160   91.7110  -44.2120 H   0  0  0  0  0  0  0  0  0  0  0  0
   94.2250   89.9840  -45.9890 H   0  0  0  0  0  0  0  0  0  0  0  0
   92.0680   94.7020  -39.9340 H   0  0  0  0  0  0  0  0  0  0  0  0
   91.4840   97.1950  -40.3470 H   0  0  0  0  0  0  0  0  0  0  0  0
   91.7370   97.9880  -43.9450 H   0  0  0  0  0  0  0  0  0  0  0  0
   90.0340   97.8370  -43.2650 H   0  0  0  0  0  0  0  0  0  0  0  0
   93.4090   98.7260  -41.7280 H   0  0  0  0  0  0  0  0  0  0  0  0
   91.7960  102.2310  -39.9050 H   0  0  0  0  0  0  0  0  0  0  0  0
   89.6240  101.7250  -40.9360 H   0  0  0  0  0  0  0  0  0  0  0  0
   89.3340   99.7250  -42.3640 H   0  0  0  0  0  0  0  0  0  0  0  0
   95.1420  101.9500  -41.4740 H   0  0  0  0  0  0  0  0  0  0  0  0
   95.5420  102.0150  -39.7410 H   0  0  0  0  0  0  0  0  0  0  0  0
   94.0070  102.8020  -40.3840 H   0  0  0  0  0  0  0  0  0  0  0  0
  1  2  1  0  0  0  0
  2  7  1  0  0  0  0
  3  2  2  0  0  0  0
  3  4  1  0  0  0  0
  4  5  2  0  0  0  0
  5  6  1  0  0  0  0
  5  8  1  0  0  0  0
  6 29  1  0  0  0  0
  7 30  1  0  0  0  0
  7  6  2  0  0  0  0
  8 25  1  0  0  0  0
  9  8  1  0  0  0  0
  9 11  1  0  0  0  0
 10  9  2  0  0  0  0
 11 15  1  0  0  0  0
 11 12  2  0  0  0  0
 12 13  1  0  0  0  0
 13 31  1  0  0  0  0
 14 13  1  0  0  0  0
 14 32  1  0  0  0  0
 15 14  1  0  0  0  0
 16 15  1  0  0  0  0
 16 17  1  0  0  0  0
 17 22  2  0  0  0  0
 17 18  1  0  0  0  0
 18 19  2  0  0  0  0
 19 20  1  0  0  0  0
 19 23  1  0  0  0  0
 20 36  1  0  0  0  0
 21 37  1  0  0  0  0
 21 20  2  0  0  0  0
 22 21  1  0  0  0  0
 24 41  1  0  0  0  0
 24 23  1  0  0  0  0
 24 40  1  0  0  0  0
 25 26  2  0  0  0  0
 25 12  1  0  0  0  0
 27  3  1  0  0  0  0
 28  4  1  0  0  0  0
 33 16  1  0  0  0  0
 34 16  1  0  0  0  0
 35 18  1  0  0  0  0
 38 22  1  0  0  0  0
 39 24  1  0  0  0  0
M  END
>  <Pose>
1

>  <Score>
-6.60

$$$$
