
 OpenBabel03212208273D

 37 40  0  0  0  0  0  0  0  0999 V2000
   92.6480   89.5040  -48.4330 Cl  0  0  0  0  0  0  0  0  0  0  0  0
   92.4650   90.7280  -47.1790 C   0  0  0  0  0  0  0  0  0  0  0  0
   93.4440   90.9250  -46.2280 C   0  0  0  0  0  0  0  0  0  0  0  0
   93.3030   91.8850  -45.2430 C   0  0  0  0  0  0  0  0  0  0  0  0
   92.1840   92.6860  -45.1660 C   0  0  0  0  0  0  0  0  0  0  0  0
   91.2080   92.4820  -46.1250 C   0  0  0  0  0  0  0  0  0  0  0  0
   91.3410   91.5250  -47.1130 C   0  0  0  0  0  0  0  0  0  0  0  0
   92.0460   93.6740  -44.1460 N   0  0  0  0  0  0  0  0  0  0  0  0
   91.8760   95.0060  -44.3080 C   0  0  0  0  0  0  0  0  0  0  0  0
   91.8130   95.5740  -45.4180 O   0  0  0  0  0  0  0  0  0  0  0  0
   91.7820   95.6450  -43.0830 C   0  0  0  0  0  0  0  0  0  0  0  0
   91.8970   94.6820  -42.1580 C   0  0  0  0  0  0  0  0  0  0  0  0
   91.8020   95.3130  -40.9740 N   0  0  0  0  0  0  0  0  0  0  0  0
   91.6370   96.6080  -41.1740 N   0  0  0  0  0  0  0  0  0  0  0  0
   91.6220   96.8300  -42.4710 N   0  0  0  0  0  0  0  0  0  0  0  0
   91.4690   98.1030  -43.1350 C   0  0  0  0  0  0  0  0  0  0  0  0
   91.4840   99.2610  -42.2140 C   0  0  0  0  0  0  0  0  0  0  0  0
   90.3830  100.0770  -42.1300 C   0  0  0  0  0  0  0  0  0  0  0  0
   90.4190  101.1500  -41.2700 C   0  0  0  0  0  0  0  0  0  0  0  0
   91.5340  101.4180  -40.4960 C   0  0  0  0  0  0  0  0  0  0  0  0
   92.6380  100.6010  -40.5800 C   0  0  0  0  0  0  0  0  0  0  0  0
   92.5860   99.5390  -41.4390 C   0  0  0  0  0  0  0  0  0  0  0  0
   92.0580   93.4840  -42.8210 C   0  0  0  0  0  0  0  0  0  0  0  0
   92.1970   92.3650  -42.2560 O   0  0  0  0  0  0  0  0  0  0  0  0
   94.3180   90.2900  -46.2970 H   0  0  0  0  0  0  0  0  0  0  0  0
   94.0760   92.0350  -44.4970 H   0  0  0  0  0  0  0  0  0  0  0  0
   90.3280   93.0950  -46.0840 H   0  0  0  0  0  0  0  0  0  0  0  0
   90.5640   91.3660  -47.8720 H   0  0  0  0  0  0  0  0  0  0  0  0
   91.8480   94.8810  -40.0280 H   0  0  0  0  0  0  0  0  0  0  0  0
   91.5320   97.3510  -40.4220 H   0  0  0  0  0  0  0  0  0  0  0  0
   92.3110   98.2320  -43.8700 H   0  0  0  0  0  0  0  0  0  0  0  0
   90.5410   98.1210  -43.7690 H   0  0  0  0  0  0  0  0  0  0  0  0
   89.4790   99.8920  -42.7310 H   0  0  0  0  0  0  0  0  0  0  0  0
   89.5350  101.7970  -41.2090 H   0  0  0  0  0  0  0  0  0  0  0  0
   91.5740  102.2700  -39.8080 H   0  0  0  0  0  0  0  0  0  0  0  0
   93.5200  100.7860  -39.9910 H   0  0  0  0  0  0  0  0  0  0  0  0
   93.4830   98.9080  -41.4840 H   0  0  0  0  0  0  0  0  0  0  0  0
  1  2  1  0  0  0  0
  2  7  2  0  0  0  0
  2  3  1  0  0  0  0
  3  4  2  0  0  0  0
  4  5  1  0  0  0  0
  4 26  1  0  0  0  0
  5  8  1  0  0  0  0
  6 27  1  0  0  0  0
  6  5  2  0  0  0  0
  7  6  1  0  0  0  0
  8 23  1  0  0  0  0
  9  8  1  0  0  0  0
  9 11  1  0  0  0  0
 10  9  2  0  0  0  0
 11 15  1  0  0  0  0
 11 12  2  0  0  0  0
 12 13  1  0  0  0  0
 13 29  1  0  0  0  0
 14 13  1  0  0  0  0
 14 30  1  0  0  0  0
 15 14  1  0  0  0  0
 16 15  1  0  0  0  0
 16 17  1  0  0  0  0
 17 18  2  0  0  0  0
 17 22  1  0  0  0  0
 18 19  1  0  0  0  0
 19 34  1  0  0  0  0
 19 20  2  0  0  0  0
 20 35  1  0  0  0  0
 21 20  1  0  0  0  0
 21 36  1  0  0  0  0
 22 21  2  0  0  0  0
 23 24  2  0  0  0  0
 23 12  1  0  0  0  0
 25  3  1  0  0  0  0
 28  7  1  0  0  0  0
 31 16  1  0  0  0  0
 32 16  1  0  0  0  0
 33 18  1  0  0  0  0
 37 22  1  0  0  0  0
M  END
>  <Pose>
1

>  <Score>
-6.20

$$$$
