
 OpenBabel03212208273D

 56 59  0  0  1  0  0  0  0  0999 V2000
   92.4920   90.1810  -48.4070 S   0  0  0  0  0  0  0  0  0  0  0  0
   92.1490   91.2220  -49.3990 O   0  0  0  0  0  0  0  0  0  0  0  0
   93.9440   89.8050  -48.5840 O   0  0  0  0  0  0  0  0  0  0  0  0
   92.2610   90.6500  -46.7810 N   0  0  0  0  0  0  0  0  0  0  0  0
   91.2010   91.5560  -46.5710 C   0  0  0  0  0  0  0  0  0  0  0  0
   90.9910   91.6730  -45.0460 C   0  0  0  0  0  0  0  0  0  0  0  0
   92.1710   92.3690  -44.6010 N   0  0  0  0  0  0  0  0  0  0  0  0
   93.3980   91.5600  -44.7740 C   0  0  0  0  0  0  0  0  0  0  0  0
   93.4310   90.7700  -46.0170 C   0  0  0  0  0  0  0  0  0  0  0  0
   92.2940   93.6460  -44.0570 C   0  0  0  0  0  0  0  0  0  0  0  0
   93.1750   93.7040  -43.0760 O   0  0  0  0  0  0  0  0  0  0  0  0
   91.6820   94.9230  -44.3190 C   0  0  0  0  0  0  0  0  0  0  0  0
   91.6330   95.8850  -43.2610 N   0  0  0  0  0  0  0  0  0  0  0  0
   91.6380   95.5880  -41.8640 C   0  0  0  0  0  0  0  0  0  0  0  0
   91.6700   94.4000  -41.3940 O   0  0  0  0  0  0  0  0  0  0  0  0
   91.6040   96.8070  -41.1530 N   0  0  0  0  0  0  0  0  0  0  0  0
   91.9750   97.8760  -42.0670 C   0  0  1  0  0  0  0  0  0  0  0  0
   91.2330   99.1480  -41.8550 C   0  0  1  0  0  0  0  0  0  0  0  0
   92.1810  100.3000  -42.2040 C   0  0  0  0  0  0  0  0  0  0  0  0
   93.1840  100.3750  -41.0690 C   0  0  0  0  0  0  0  0  0  0  0  0
   93.7170   98.9920  -40.7860 C   0  0  0  0  0  0  0  0  0  0  0  0
   93.4730   98.0480  -41.9550 C   0  0  0  0  0  0  0  0  0  0  0  0
   90.0240   99.3150  -42.7460 C   0  0  0  0  0  0  0  0  0  0  0  0
   91.5930   97.3080  -43.3950 C   0  0  0  0  0  0  0  0  0  0  0  0
   91.2970   97.9460  -44.4240 O   0  0  0  0  0  0  0  0  0  0  0  0
   91.5030   88.7370  -48.6830 C   0  0  0  0  0  0  0  0  0  0  0  0
   89.8320   88.5990  -48.9830 S   0  0  0  0  0  0  0  0  0  0  0  0
   89.7180   86.9060  -49.1240 C   0  0  0  0  0  0  0  0  0  0  0  0
   91.0090   86.4880  -48.9300 C   0  0  0  0  0  0  0  0  0  0  0  0
   91.9290   87.4420  -48.7020 C   0  0  0  0  0  0  0  0  0  0  0  0
   88.2810   85.9230  -49.4440 Cl  0  0  0  0  0  0  0  0  0  0  0  0
   91.4100   92.5640  -46.9890 H   0  0  0  0  0  0  0  0  0  0  0  0
   90.2870   91.1900  -47.0630 H   0  0  0  0  0  0  0  0  0  0  0  0
   90.0350   92.0860  -44.8060 H   0  0  0  0  0  0  0  0  0  0  0  0
   91.0840   90.5870  -44.7100 H   0  0  0  0  0  0  0  0  0  0  0  0
   93.4100   90.8760  -43.8930 H   0  0  0  0  0  0  0  0  0  0  0  0
   94.2950   92.2010  -44.6660 H   0  0  0  0  0  0  0  0  0  0  0  0
   94.2400   91.1980  -46.6830 H   0  0  0  0  0  0  0  0  0  0  0  0
   93.8130   89.7290  -45.7970 H   0  0  0  0  0  0  0  0  0  0  0  0
   92.1350   95.4240  -45.2480 H   0  0  0  0  0  0  0  0  0  0  0  0
   90.6030   94.7900  -44.6860 H   0  0  0  0  0  0  0  0  0  0  0  0
   91.3610   96.9430  -40.1600 H   0  0  0  0  0  0  0  0  0  0  0  0
   90.9270   99.2590  -40.7890 H   0  0  0  0  0  0  0  0  0  0  0  0
   92.7030  100.0200  -43.1250 H   0  0  0  0  0  0  0  0  0  0  0  0
   91.6340  101.2550  -42.3220 H   0  0  0  0  0  0  0  0  0  0  0  0
   92.6230  100.7850  -40.1840 H   0  0  0  0  0  0  0  0  0  0  0  0
   94.0170  101.0570  -41.2830 H   0  0  0  0  0  0  0  0  0  0  0  0
   93.1920   98.5940  -39.8920 H   0  0  0  0  0  0  0  0  0  0  0  0
   94.8030   99.0410  -40.5270 H   0  0  0  0  0  0  0  0  0  0  0  0
   93.9290   97.0660  -41.6360 H   0  0  0  0  0  0  0  0  0  0  0  0
   93.9450   98.4220  -42.8690 H   0  0  0  0  0  0  0  0  0  0  0  0
   89.5110   98.3800  -42.9880 H   0  0  0  0  0  0  0  0  0  0  0  0
   89.2900   99.9810  -42.2050 H   0  0  0  0  0  0  0  0  0  0  0  0
   90.2690   99.9020  -43.6790 H   0  0  0  0  0  0  0  0  0  0  0  0
   91.2270   85.3930  -48.9710 H   0  0  0  0  0  0  0  0  0  0  0  0
   92.9990   87.2020  -48.5330 H   0  0  0  0  0  0  0  0  0  0  0  0
  1  4  1  0  0  0  0
  2  1  2  0  0  0  0
  3  1  2  0  0  0  0
  4  5  1  0  0  0  0
  4  9  1  0  0  0  0
  5  6  1  0  0  0  0
  6 34  1  0  0  0  0
  6 35  1  0  0  0  0
  6  7  1  0  0  0  0
  7 10  1  0  0  0  0
  8 37  1  0  0  0  0
  8  7  1  0  0  0  0
  8 36  1  0  0  0  0
  9 39  1  0  0  0  0
  9  8  1  0  0  0  0
 10 11  2  0  0  0  0
 12 10  1  0  0  0  0
 12 13  1  0  0  0  0
 13 14  1  0  0  0  0
 14 15  2  0  0  0  0
 14 16  1  0  0  0  0
 16 42  1  0  0  0  0
 17 24  1  6  0  0  0
 17 22  1  0  0  0  0
 17 18  1  0  0  0  0
 17 16  1  0  0  0  0
 18 43  1  1  0  0  0
 19 18  1  0  0  0  0
 19 20  1  0  0  0  0
 20 21  1  0  0  0  0
 20 46  1  0  0  0  0
 21 49  1  0  0  0  0
 21 48  1  0  0  0  0
 22 50  1  0  0  0  0
 22 21  1  0  0  0  0
 23 53  1  0  0  0  0
 23 18  1  0  0  0  0
 24 13  1  0  0  0  0
 25 24  2  0  0  0  0
 26  1  1  0  0  0  0
 27 26  1  0  0  0  0
 28 27  1  0  0  0  0
 28 29  2  0  0  0  0
 29 30  1  0  0  0  0
 30 26  2  0  0  0  0
 30 56  1  0  0  0  0
 31 28  1  0  0  0  0
 32  5  1  0  0  0  0
 33  5  1  0  0  0  0
 38  9  1  0  0  0  0
 40 12  1  0  0  0  0
 41 12  1  0  0  0  0
 44 19  1  0  0  0  0
 45 19  1  0  0  0  0
 47 20  1  0  0  0  0
 51 22  1  0  0  0  0
 52 23  1  0  0  0  0
 54 23  1  0  0  0  0
 55 29  1  0  0  0  0
M  END
>  <Pose>
1

>  <Score>
-4.95

$$$$
