
 OpenBabel03212208273D

 51 54  0  0  1  0  0  0  0  0999 V2000
   93.4520  101.1360  -40.0800 Cl  0  0  0  0  0  0  0  0  0  0  0  0
   92.7920   99.7640  -40.9100 C   0  0  0  0  0  0  0  0  0  0  0  0
   93.0270   98.5320  -40.4530 N   0  0  0  0  0  4  0  0  0  0  0  0
   92.5440   97.4410  -41.0540 C   0  0  0  0  0  0  0  0  0  0  0  0
   92.6390   96.1460  -40.7820 N   0  0  0  0  0  0  0  0  0  0  0  0
   91.9350   95.5280  -41.7390 C   0  0  0  0  0  0  0  0  0  0  0  0
   91.3980   96.3970  -42.6050 N   0  0  0  0  0  0  0  0  0  0  0  0
   91.7630   97.6250  -42.2040 C   0  0  0  0  0  0  0  0  0  0  0  0
   91.5150   98.8840  -42.6830 C   0  0  0  0  0  0  0  0  0  0  0  0
   92.0490   99.9430  -42.0060 N   0  0  0  0  0  0  0  0  0  0  0  0
   90.7480   99.0700  -43.8510 N   0  0  0  0  0  0  0  0  0  0  0  0
   91.2210   98.4620  -45.0730 C   0  0  0  0  0  0  0  0  0  0  0  0
   90.3980   98.8260  -46.2800 C   0  0  0  0  0  0  0  0  0  0  0  0
   88.9510   98.7170  -45.9450 C   0  0  2  0  0  0  0  0  0  0  0  0
   88.5980   99.7150  -44.8960 C   0  0  0  0  0  0  0  0  0  0  0  0
   89.5490   99.8460  -43.7640 C   0  0  0  0  0  0  0  0  0  0  0  0
   88.5370   97.3430  -45.6560 C   0  0  0  0  0  0  0  0  0  0  0  0
   89.4230   96.4600  -45.5560 O   0  0  0  0  0  0  0  0  0  0  0  0
   87.1900   96.9630  -45.4830 N   0  0  0  0  0  0  0  0  0  0  0  0
   86.0780   97.6330  -46.1160 C   0  0  0  0  0  0  0  0  0  0  0  0
   84.9190   96.7270  -46.4160 C   0  0  0  0  0  0  0  0  0  0  0  0
   85.0150   96.1830  -47.7580 N   0  0  0  0  0  0  0  0  0  0  0  0
   83.9280   95.3260  -48.0920 C   0  0  0  0  0  0  0  0  0  0  0  0
   84.3910   93.8850  -48.1620 C   0  0  0  0  0  0  0  0  0  0  0  0
   85.3010   93.7850  -49.1850 O   0  0  0  0  0  0  0  0  0  0  0  0
   86.3620   94.6500  -49.1350 C   0  0  0  0  0  0  0  0  0  0  0  0
   86.3090   95.6980  -48.0780 C   0  0  0  0  0  0  0  0  0  0  0  0
   91.8110   94.4600  -41.8080 H   0  0  0  0  0  0  0  0  0  0  0  0
   90.7990   96.2040  -43.4420 H   0  0  0  0  0  0  0  0  0  0  0  0
   91.4030   97.3810  -45.0020 H   0  0  0  0  0  0  0  0  0  0  0  0
   92.2510   98.8950  -45.2870 H   0  0  0  0  0  0  0  0  0  0  0  0
   90.6250   99.8480  -46.6220 H   0  0  0  0  0  0  0  0  0  0  0  0
   90.6680   98.1120  -47.0840 H   0  0  0  0  0  0  0  0  0  0  0  0
   88.3900   99.0170  -46.8790 H   0  0  0  0  0  0  0  0  0  0  0  0
   88.5520  100.7220  -45.4080 H   0  0  0  0  0  0  0  0  0  0  0  0
   87.5530   99.5240  -44.5720 H   0  0  0  0  0  0  0  0  0  0  0  0
   88.9860   99.5830  -42.8240 H   0  0  0  0  0  0  0  0  0  0  0  0
   89.8690  100.9150  -43.5860 H   0  0  0  0  0  0  0  0  0  0  0  0
   86.9770   96.1360  -44.8540 H   0  0  0  0  0  0  0  0  0  0  0  0
   85.7850   98.5280  -45.5730 H   0  0  0  0  0  0  0  0  0  0  0  0
   86.4650   97.9870  -47.1150 H   0  0  0  0  0  0  0  0  0  0  0  0
   85.0010   95.8620  -45.7240 H   0  0  0  0  0  0  0  0  0  0  0  0
   83.9410   97.2040  -46.2660 H   0  0  0  0  0  0  0  0  0  0  0  0
   83.4360   95.5860  -49.0580 H   0  0  0  0  0  0  0  0  0  0  0  0
   83.1440   95.4230  -47.3120 H   0  0  0  0  0  0  0  0  0  0  0  0
   84.8050   93.5790  -47.1810 H   0  0  0  0  0  0  0  0  0  0  0  0
   83.5120   93.2630  -48.4220 H   0  0  0  0  0  0  0  0  0  0  0  0
   87.3430   94.0940  -49.1180 H   0  0  0  0  0  0  0  0  0  0  0  0
   86.3870   95.1890  -50.1280 H   0  0  0  0  0  0  0  0  0  0  0  0
   86.9620   96.5540  -48.3160 H   0  0  0  0  0  0  0  0  0  0  0  0
   86.7420   95.2410  -47.1410 H   0  0  0  0  0  0  0  0  0  0  0  0
  2  3  2  0  0  0  0
  2  1  1  0  0  0  0
  4  5  1  0  0  0  0
  4  3  2  0  0  0  0
  6  5  2  0  0  0  0
  7  8  1  0  0  0  0
  7  6  1  0  0  0  0
  8  4  1  0  0  0  0
  9  8  2  0  0  0  0
  9 10  1  0  0  0  0
 10  2  1  0  0  0  0
 11 16  1  0  0  0  0
 11  9  1  0  0  0  0
 12 30  1  0  0  0  0
 12 11  1  0  0  0  0
 13 14  1  0  0  0  0
 13 12  1  0  0  0  0
 14 34  1  6  0  0  0
 14 17  1  0  0  0  0
 14 15  1  0  0  0  0
 15 36  1  0  0  0  0
 15 16  1  0  0  0  0
 16 38  1  0  0  0  0
 16 37  1  0  0  0  0
 17 18  2  0  0  0  0
 17 19  1  0  0  0  0
 19 39  1  0  0  0  0
 20 40  1  0  0  0  0
 20 19  1  0  0  0  0
 21 43  1  0  0  0  0
 21 20  1  0  0  0  0
 21 42  1  0  0  0  0
 22 21  1  0  0  0  0
 23 22  1  0  0  0  0
 23 45  1  0  0  0  0
 24 23  1  0  0  0  0
 24 46  1  0  0  0  0
 25 26  1  0  0  0  0
 25 24  1  0  0  0  0
 26 48  1  0  0  0  0
 26 27  1  0  0  0  0
 27 22  1  0  0  0  0
 27 51  1  0  0  0  0
 28  6  1  0  0  0  0
 29  7  1  0  0  0  0
 31 12  1  0  0  0  0
 32 13  1  0  0  0  0
 33 13  1  0  0  0  0
 35 15  1  0  0  0  0
 41 20  1  0  0  0  0
 44 23  1  0  0  0  0
 47 24  1  0  0  0  0
 49 26  1  0  0  0  0
 50 27  1  0  0  0  0
M  END
>  <Pose>
1

>  <Score>
-5.14

$$$$
