
 OpenBabel03212208273D

 55 58  0  0  1  0  0  0  0  0999 V2000
   92.7290  103.9680  -34.8660 Cl  0  0  0  0  0  0  0  0  0  0  0  0
   92.8730  103.3700  -36.5400 C   0  0  0  0  0  0  0  0  0  0  0  0
   94.0540  102.8450  -37.0040 C   0  0  0  0  0  0  0  0  0  0  0  0
   94.1610  102.3710  -38.3120 C   0  0  0  0  0  0  0  0  0  0  0  0
   93.0830  102.4050  -39.2060 C   0  0  0  0  0  0  0  0  0  0  0  0
   91.9180  102.9360  -38.7050 C   0  0  0  0  0  0  0  0  0  0  0  0
   91.7980  103.4100  -37.4130 C   0  0  0  0  0  0  0  0  0  0  0  0
   93.2930  101.8510  -40.5310 C   0  0  2  0  0  0  0  0  0  0  0  0
   93.9600  102.8810  -41.4390 C   0  0  0  0  0  0  0  0  0  0  0  0
   94.3900  102.0750  -42.6470 C   0  0  0  0  0  0  0  0  0  0  0  0
   93.2520  101.6320  -43.3740 N   0  0  0  0  0  0  0  0  0  0  0  0
   92.2760  100.8100  -42.6120 C   0  0  0  0  0  0  0  0  0  0  0  0
   92.1210  101.2240  -41.1880 C   0  0  0  0  0  0  0  0  0  0  0  0
   92.9700  101.9060  -44.7060 C   0  0  0  0  0  0  0  0  0  0  0  0
   92.9060  103.1720  -45.0280 O   0  0  0  0  0  0  0  0  0  0  0  0
   92.7130  101.0150  -45.8470 C   0  0  0  0  0  0  0  0  0  0  0  0
   92.7210   99.6370  -45.6170 N   0  0  0  0  0  0  0  0  0  0  0  0
   91.5600   98.8370  -45.3840 C   0  0  0  0  0  0  0  0  0  0  0  0
   90.4640   99.4490  -45.4870 O   0  0  0  0  0  0  0  0  0  0  0  0
   91.6690   97.4410  -45.0610 C   0  0  0  0  0  0  0  0  0  0  0  0
   91.6960   96.8310  -43.9230 C   0  0  0  0  0  0  0  0  0  0  0  0
   91.6240   97.5090  -42.6660 N   0  0  0  0  0  0  0  0  0  0  0  0
   91.6320   96.8150  -41.4380 N   0  0  0  0  0  0  0  0  0  0  0  0
   91.7120   95.4080  -41.3990 C   0  0  0  0  0  0  0  0  0  0  0  0
   91.7140   94.8250  -40.2760 O   0  0  0  0  0  0  0  0  0  0  0  0
   91.7870   94.6800  -42.6510 C   0  0  0  0  0  0  0  0  0  0  0  0
   91.7790   95.3500  -43.8530 C   0  0  0  0  0  0  0  0  0  0  0  0
   91.8240   94.5920  -44.9880 C   0  0  0  0  0  0  0  0  0  0  0  0
   91.8750   93.1930  -44.9660 C   0  0  0  0  0  0  0  0  0  0  0  0
   91.8800   92.5750  -43.7460 C   0  0  0  0  0  0  0  0  0  0  0  0
   91.8360   93.3040  -42.5610 C   0  0  0  0  0  0  0  0  0  0  0  0
   94.2900  100.8300  -40.4110 O   0  0  0  0  0  0  0  0  0  0  0  0
   94.9010  102.8110  -36.3190 H   0  0  0  0  0  0  0  0  0  0  0  0
   95.1120  101.9760  -38.6120 H   0  0  0  0  0  0  0  0  0  0  0  0
   91.0750  102.9650  -39.3870 H   0  0  0  0  0  0  0  0  0  0  0  0
   90.8510  103.8220  -37.0550 H   0  0  0  0  0  0  0  0  0  0  0  0
   93.3070  103.7160  -41.6810 H   0  0  0  0  0  0  0  0  0  0  0  0
   94.8370  103.2800  -40.9240 H   0  0  0  0  0  0  0  0  0  0  0  0
   94.8000  101.0930  -42.1700 H   0  0  0  0  0  0  0  0  0  0  0  0
   95.2320  102.5100  -43.1340 H   0  0  0  0  0  0  0  0  0  0  0  0
   91.2970  100.7720  -43.1570 H   0  0  0  0  0  0  0  0  0  0  0  0
   92.6820   99.7780  -42.6510 H   0  0  0  0  0  0  0  0  0  0  0  0
   91.1760  101.8150  -41.1110 H   0  0  0  0  0  0  0  0  0  0  0  0
   91.8490  100.2730  -40.6180 H   0  0  0  0  0  0  0  0  0  0  0  0
   91.7170  101.3810  -46.2790 H   0  0  0  0  0  0  0  0  0  0  0  0
   93.4320  101.2730  -46.7090 H   0  0  0  0  0  0  0  0  0  0  0  0
   93.6120   99.0750  -45.6770 H   0  0  0  0  0  0  0  0  0  0  0  0
   91.7450   96.7900  -45.9670 H   0  0  0  0  0  0  0  0  0  0  0  0
   91.5630   98.5540  -42.6210 H   0  0  0  0  0  0  0  0  0  0  0  0
   91.5720   97.3400  -40.5350 H   0  0  0  0  0  0  0  0  0  0  0  0
   91.8190   95.0340  -45.9490 H   0  0  0  0  0  0  0  0  0  0  0  0
   91.9100   92.6440  -45.9030 H   0  0  0  0  0  0  0  0  0  0  0  0
   91.9110   91.4810  -43.7470 H   0  0  0  0  0  0  0  0  0  0  0  0
   91.8420   92.7580  -41.6260 H   0  0  0  0  0  0  0  0  0  0  0  0
   94.4640  100.5030  -41.3280 H   0  0  0  0  0  0  0  0  0  0  0  0
  2  1  1  0  0  0  0
  3  2  1  0  0  0  0
  3 33  1  0  0  0  0
  4  3  2  0  0  0  0
  5  6  2  0  0  0  0
  5  4  1  0  0  0  0
  6  7  1  0  0  0  0
  7 36  1  0  0  0  0
  7  2  2  0  0  0  0
  8 32  1  1  0  0  0
  8  5  1  0  0  0  0
  9 38  1  0  0  0  0
  9  8  1  0  0  0  0
 10 39  1  0  0  0  0
 10  9  1  0  0  0  0
 11 10  1  0  0  0  0
 11 12  1  0  0  0  0
 12 13  1  0  0  0  0
 13 43  1  0  0  0  0
 13 44  1  0  0  0  0
 13  8  1  0  0  0  0
 14 11  1  0  0  0  0
 15 14  2  0  0  0  0
 16 17  1  0  0  0  0
 16 14  1  0  0  0  0
 17 18  1  0  0  0  0
 18 20  1  0  0  0  0
 19 18  2  0  0  0  0
 20 21  2  0  0  0  0
 21 27  1  0  0  0  0
 21 22  1  0  0  0  0
 22 49  1  0  0  0  0
 22 23  1  0  0  0  0
 23 24  1  0  0  0  0
 23 50  1  0  0  0  0
 24 25  2  0  0  0  0
 26 31  1  0  0  0  0
 26 24  1  0  0  0  0
 27 26  2  0  0  0  0
 28 29  2  0  0  0  0
 28 27  1  0  0  0  0
 29 30  1  0  0  0  0
 30 31  2  0  0  0  0
 31 54  1  0  0  0  0
 34  4  1  0  0  0  0
 35  6  1  0  0  0  0
 37  9  1  0  0  0  0
 40 10  1  0  0  0  0
 41 12  1  0  0  0  0
 42 12  1  0  0  0  0
 45 16  1  0  0  0  0
 46 16  1  0  0  0  0
 47 17  1  0  0  0  0
 48 20  1  0  0  0  0
 51 28  1  0  0  0  0
 52 29  1  0  0  0  0
 53 30  1  0  0  0  0
 55 32  1  0  0  0  0
M  END
>  <Pose>
1

>  <Score>
-6.45

$$$$
