
 OpenBabel03212208273D

 58 61  0  0  1  0  0  0  0  0999 V2000
   97.9830   97.1570  -52.5230 Cl  0  0  0  0  0  0  0  0  0  0  0  0
   96.8360   98.3630  -51.9580 C   0  0  0  0  0  0  0  0  0  0  0  0
   95.5730   98.0470  -51.5260 C   0  0  0  0  0  0  0  0  0  0  0  0
   94.6750   99.0040  -51.0820 C   0  0  0  0  0  0  0  0  0  0  0  0
   93.4150   98.9960  -50.6150 N   0  0  0  0  0  0  0  0  0  0  0  0
   93.0020  100.2400  -50.3190 C   0  0  0  0  0  0  0  0  0  0  0  0
   94.0620  101.0450  -50.6190 N   0  0  0  0  0  0  0  0  0  0  0  0
   95.0870  100.3200  -51.0830 C   0  0  0  0  0  0  0  0  0  0  0  0
   96.3470  100.6820  -51.5090 C   0  0  0  0  0  0  0  0  0  0  0  0
   97.2160   99.6880  -51.9470 C   0  0  0  0  0  0  0  0  0  0  0  0
   94.0100  102.4940  -50.4330 C   0  0  0  0  0  0  0  0  0  0  0  0
   91.6950  100.6920  -49.7810 C   0  0  0  0  0  0  0  0  0  0  0  0
   91.2450   99.9390  -48.5720 C   0  0  0  0  0  0  0  0  0  0  0  0
   91.6630  100.5640  -47.2940 C   0  0  0  0  0  0  0  0  0  0  0  0
   92.2060  101.6980  -47.3210 O   0  0  0  0  0  0  0  0  0  0  0  0
   91.4660   99.9170  -46.0600 N   0  0  0  0  0  0  0  0  0  0  0  0
   90.7260  100.5340  -44.9590 C   0  0  0  0  0  0  0  0  0  0  0  0
   91.7420  100.7280  -43.8510 C   0  0  2  0  0  0  0  0  0  0  0  0
   92.4140   99.4210  -43.5000 C   0  0  1  0  0  0  0  0  0  0  0  0
   91.7980   98.2710  -44.3060 C   0  0  0  0  0  0  0  0  0  0  0  0
   91.9780   98.5870  -45.7810 C   0  0  0  0  0  0  0  0  0  0  0  0
   93.7810   99.4100  -43.8710 O   0  0  0  0  0  0  0  0  0  0  0  0
   92.3790   99.0950  -42.0380 C   0  0  0  0  0  0  0  0  0  0  0  0
   91.2660  101.4680  -42.7360 N   0  0  0  0  0  0  0  0  0  0  0  0
   91.9690  102.5210  -42.2240 C   0  0  0  0  0  0  0  0  0  0  0  0
   91.5090  103.2400  -41.1410 C   0  0  0  0  0  0  0  0  0  0  0  0
   90.3120  102.8950  -40.5560 C   0  0  0  0  0  0  0  0  0  0  0  0
   89.8510  103.5360  -39.5510 O   0  0  0  0  0  0  0  0  0  0  0  0
   89.6260  101.8570  -41.0660 N   0  0  0  0  0  0  0  0  0  0  0  0
   90.1210  101.1740  -42.1380 C   0  0  0  0  0  0  0  0  0  0  0  0
   89.4390  100.2180  -42.5690 O   0  0  0  0  0  0  0  0  0  0  0  0
   92.2480  104.3900  -40.5610 C   0  0  0  0  0  0  0  0  0  0  0  0
   95.2640   97.0080  -51.5300 H   0  0  0  0  0  0  0  0  0  0  0  0
   96.6680  101.7140  -51.5100 H   0  0  0  0  0  0  0  0  0  0  0  0
   98.2030   99.9620  -52.2820 H   0  0  0  0  0  0  0  0  0  0  0  0
   94.0180  102.7570  -49.3370 H   0  0  0  0  0  0  0  0  0  0  0  0
   93.0590  102.9150  -50.8290 H   0  0  0  0  0  0  0  0  0  0  0  0
   94.9010  102.9510  -50.9240 H   0  0  0  0  0  0  0  0  0  0  0  0
   90.9070  100.7010  -50.5770 H   0  0  0  0  0  0  0  0  0  0  0  0
   91.8180  101.7550  -49.4850 H   0  0  0  0  0  0  0  0  0  0  0  0
   90.1190   99.8870  -48.5980 H   0  0  0  0  0  0  0  0  0  0  0  0
   91.6260   98.8990  -48.6630 H   0  0  0  0  0  0  0  0  0  0  0  0
   89.9320   99.7990  -44.7100 H   0  0  0  0  0  0  0  0  0  0  0  0
   90.3200  101.5220  -45.2390 H   0  0  0  0  0  0  0  0  0  0  0  0
   92.5480  101.3540  -44.3460 H   0  0  0  0  0  0  0  0  0  0  0  0
   92.3980   97.3630  -44.0980 H   0  0  0  0  0  0  0  0  0  0  0  0
   90.7660   98.0680  -44.0250 H   0  0  0  0  0  0  0  0  0  0  0  0
   91.3680   97.8720  -46.3720 H   0  0  0  0  0  0  0  0  0  0  0  0
   93.0390   98.4780  -46.0520 H   0  0  0  0  0  0  0  0  0  0  0  0
   94.2460   99.9620  -43.1950 H   0  0  0  0  0  0  0  0  0  0  0  0
   93.3320   98.5920  -41.6990 H   0  0  0  0  0  0  0  0  0  0  0  0
   91.5760   98.3510  -41.7780 H   0  0  0  0  0  0  0  0  0  0  0  0
   92.2650   99.9840  -41.4050 H   0  0  0  0  0  0  0  0  0  0  0  0
   92.9260  102.7960  -42.6920 H   0  0  0  0  0  0  0  0  0  0  0  0
   88.7230  101.5930  -40.6290 H   0  0  0  0  0  0  0  0  0  0  0  0
   91.8740  105.2990  -41.0940 H   0  0  0  0  0  0  0  0  0  0  0  0
   91.9930  104.5320  -39.4900 H   0  0  0  0  0  0  0  0  0  0  0  0
   93.3400  104.2560  -40.7020 H   0  0  0  0  0  0  0  0  0  0  0  0
  1  2  1  0  0  0  0
  2 10  2  0  0  0  0
  2  3  1  0  0  0  0
  3  4  2  0  0  0  0
  4  5  1  0  0  0  0
  5  6  2  0  0  0  0
  6 12  1  0  0  0  0
  7 11  1  0  0  0  0
  7  6  1  0  0  0  0
  8  4  1  0  0  0  0
  8  7  1  0  0  0  0
  9  8  2  0  0  0  0
 10  9  1  0  0  0  0
 11 36  1  0  0  0  0
 12 40  1  0  0  0  0
 12 13  1  0  0  0  0
 13 14  1  0  0  0  0
 14 16  1  0  0  0  0
 15 14  2  0  0  0  0
 16 21  1  0  0  0  0
 16 17  1  0  0  0  0
 17 43  1  0  0  0  0
 17 18  1  0  0  0  0
 18 45  1  6  0  0  0
 18 19  1  0  0  0  0
 18 24  1  0  0  0  0
 19 22  1  6  0  0  0
 19 23  1  0  0  0  0
 20 46  1  0  0  0  0
 20 47  1  0  0  0  0
 20 19  1  0  0  0  0
 21 20  1  0  0  0  0
 22 50  1  0  0  0  0
 23 52  1  0  0  0  0
 23 51  1  0  0  0  0
 23 53  1  0  0  0  0
 24 25  1  0  0  0  0
 24 30  1  0  0  0  0
 25 26  2  0  0  0  0
 26 32  1  0  0  0  0
 26 27  1  0  0  0  0
 27 28  2  0  0  0  0
 29 55  1  0  0  0  0
 29 27  1  0  0  0  0
 30 29  1  0  0  0  0
 31 30  2  0  0  0  0
 32 57  1  0  0  0  0
 33  3  1  0  0  0  0
 34  9  1  0  0  0  0
 35 10  1  0  0  0  0
 37 11  1  0  0  0  0
 38 11  1  0  0  0  0
 39 12  1  0  0  0  0
 41 13  1  0  0  0  0
 42 13  1  0  0  0  0
 44 17  1  0  0  0  0
 48 21  1  0  0  0  0
 49 21  1  0  0  0  0
 54 25  1  0  0  0  0
 56 32  1  0  0  0  0
 58 32  1  0  0  0  0
M  END
>  <Pose>
1

>  <Score>
-4.74

$$$$
