
 OpenBabel03212208273D

 42 45  0  0  0  0  0  0  0  0999 V2000
   85.9380   85.8070  -52.1720 Cl  0  0  0  0  0  0  0  0  0  0  0  0
   87.0820   86.1590  -50.8790 C   0  0  0  0  0  0  0  0  0  0  0  0
   88.4420   86.2730  -51.1100 C   0  0  0  0  0  0  0  0  0  0  0  0
   89.3700   86.5460  -50.1290 C   0  0  0  0  0  0  0  0  0  0  0  0
   90.7040   86.7050  -50.0790 N   0  0  0  0  0  0  0  0  0  0  0  0
   91.1060   86.9650  -48.8200 C   0  0  0  0  0  0  0  0  0  0  0  0
   89.9880   86.9660  -48.0770 N   0  0  0  0  0  0  0  0  0  0  0  0
   88.8950   86.7160  -48.8250 C   0  0  0  0  0  0  0  0  0  0  0  0
   87.5460   86.6060  -48.5800 C   0  0  0  0  0  0  0  0  0  0  0  0
   86.6380   86.3340  -49.5710 C   0  0  0  0  0  0  0  0  0  0  0  0
   92.5140   87.2040  -48.3510 C   0  0  0  0  0  0  0  0  0  0  0  0
   92.9820   88.4920  -48.8290 N   0  0  0  0  0  0  0  0  0  0  0  0
   92.8590   89.6750  -48.0750 C   0  0  0  0  0  0  0  0  0  0  0  0
   93.7790   89.9560  -47.2890 O   0  0  0  0  0  0  0  0  0  0  0  0
   91.6980   90.5750  -48.1820 C   0  0  0  0  0  0  0  0  0  0  0  0
   91.3660   91.0560  -49.5410 C   0  0  0  0  0  0  0  0  0  0  0  0
   90.4980   89.9890  -49.0010 C   0  0  0  0  0  0  0  0  0  0  0  0
   91.2370   91.2810  -47.0240 N   0  0  0  0  0  0  0  0  0  0  0  0
   90.3710   92.3690  -47.2550 C   0  0  0  0  0  0  0  0  0  0  0  0
   91.2090   93.6410  -47.2330 C   0  0  0  0  0  0  0  0  0  0  0  0
   91.6610   93.8850  -45.9570 O   0  0  0  0  0  0  0  0  0  0  0  0
   91.8730   92.7650  -45.1920 C   0  0  0  0  0  0  0  0  0  0  0  0
   92.1890   91.5390  -46.0240 C   0  0  0  0  0  0  0  0  0  0  0  0
   88.8100   86.1370  -52.1340 H   0  0  0  0  0  0  0  0  0  0  0  0
   89.9710   87.1410  -47.0470 H   0  0  0  0  0  0  0  0  0  0  0  0
   87.1960   86.7400  -47.5740 H   0  0  0  0  0  0  0  0  0  0  0  0
   85.5650   86.2410  -49.4100 H   0  0  0  0  0  0  0  0  0  0  0  0
   93.1860   86.4210  -48.6830 H   0  0  0  0  0  0  0  0  0  0  0  0
   92.4740   87.2650  -47.2490 H   0  0  0  0  0  0  0  0  0  0  0  0
   93.4270   88.5380  -49.7750 H   0  0  0  0  0  0  0  0  0  0  0  0
   91.9840   90.7800  -50.4190 H   0  0  0  0  0  0  0  0  0  0  0  0
   90.9050   92.0580  -49.7040 H   0  0  0  0  0  0  0  0  0  0  0  0
   90.6230   88.9280  -49.3190 H   0  0  0  0  0  0  0  0  0  0  0  0
   89.4900   90.2490  -48.7090 H   0  0  0  0  0  0  0  0  0  0  0  0
   89.7070   92.3230  -48.1150 H   0  0  0  0  0  0  0  0  0  0  0  0
   89.6890   92.4620  -46.3570 H   0  0  0  0  0  0  0  0  0  0  0  0
   92.0670   93.5140  -47.9180 H   0  0  0  0  0  0  0  0  0  0  0  0
   90.5450   94.4730  -47.5960 H   0  0  0  0  0  0  0  0  0  0  0  0
   92.8000   92.9680  -44.5770 H   0  0  0  0  0  0  0  0  0  0  0  0
   91.0730   92.5720  -44.4460 H   0  0  0  0  0  0  0  0  0  0  0  0
   93.2360   91.6560  -46.3610 H   0  0  0  0  0  0  0  0  0  0  0  0
   92.2140   90.6800  -45.2920 H   0  0  0  0  0  0  0  0  0  0  0  0
  1  2  1  0  0  0  0
  2 10  1  0  0  0  0
  3  2  2  0  0  0  0
  3  4  1  0  0  0  0
  4  5  1  0  0  0  0
  4  8  2  0  0  0  0
  5  6  2  0  0  0  0
  6 11  1  0  0  0  0
  6  7  1  0  0  0  0
  7 25  1  0  0  0  0
  8  9  1  0  0  0  0
  8  7  1  0  0  0  0
  9 26  1  0  0  0  0
 10 27  1  0  0  0  0
 10  9  2  0  0  0  0
 11 29  1  0  0  0  0
 12 11  1  0  0  0  0
 12 13  1  0  0  0  0
 13 14  2  0  0  0  0
 15 13  1  0  0  0  0
 15 18  1  0  0  0  0
 16 17  1  0  0  0  0
 16 15  1  0  0  0  0
 17 34  1  0  0  0  0
 17 15  1  0  0  0  0
 18 23  1  0  0  0  0
 19 20  1  0  0  0  0
 19 18  1  0  0  0  0
 19 36  1  0  0  0  0
 20 21  1  0  0  0  0
 21 22  1  0  0  0  0
 22 39  1  0  0  0  0
 22 40  1  0  0  0  0
 23 42  1  0  0  0  0
 23 22  1  0  0  0  0
 24  3  1  0  0  0  0
 28 11  1  0  0  0  0
 30 12  1  0  0  0  0
 31 16  1  0  0  0  0
 32 16  1  0  0  0  0
 33 17  1  0  0  0  0
 35 19  1  0  0  0  0
 37 20  1  0  0  0  0
 38 20  1  0  0  0  0
 41 23  1  0  0  0  0
M  END
>  <Pose>
1

>  <Score>
-5.73

$$$$
