
 OpenBabel03212208273D

 45 48  0  0  0  0  0  0  0  0999 V2000
   84.0410   98.5580  -43.8200 Cl  0  0  0  0  0  0  0  0  0  0  0  0
   85.6550   98.2740  -44.4350 C   0  0  0  0  0  0  0  0  0  0  0  0
   85.8030   97.5020  -45.5480 C   0  0  0  0  0  0  0  0  0  0  0  0
   87.0760   97.2520  -46.0710 C   0  0  0  0  0  0  0  0  0  0  0  0
   88.2060   97.7510  -45.5110 C   0  0  0  0  0  0  0  0  0  0  0  0
   88.0170   98.5410  -44.3670 C   0  0  0  0  0  0  0  0  0  0  0  0
   86.7750   98.8000  -43.8350 C   0  0  0  0  0  0  0  0  0  0  0  0
   89.5510   97.5620  -46.0470 C   0  0  0  0  0  0  0  0  0  0  0  0
   90.4560   96.7580  -45.2700 N   0  0  0  0  0  0  0  0  0  0  0  0
   90.6970   95.4410  -45.5480 C   0  0  0  0  0  0  0  0  0  0  0  0
   91.5970   94.9320  -44.6530 C   0  0  0  0  0  0  0  0  0  0  0  0
   91.8810   95.9520  -43.8540 N   0  0  0  0  0  0  0  0  0  0  0  0
   91.1960   97.0860  -44.2100 C   0  0  0  0  0  0  0  0  0  0  0  0
   91.3400   98.3080  -43.5170 N   0  0  0  0  0  0  0  0  0  0  0  0
   91.3300   98.2670  -42.0610 C   0  0  0  0  0  0  0  0  0  0  0  0
   92.3410   99.3580  -41.6650 C   0  0  0  0  0  0  0  0  0  0  0  0
   93.4140   99.4630  -42.6290 N   0  0  0  0  0  0  0  0  0  0  0  0
   92.9930   99.9420  -43.9280 C   0  0  0  0  0  0  0  0  0  0  0  0
   91.5110   99.6130  -44.0400 C   0  0  0  0  0  0  0  0  0  0  0  0
   92.0080   93.6520  -44.7140 N   0  0  0  0  0  0  0  0  0  0  0  0
   91.5250   92.8340  -45.6860 C   0  0  0  0  0  0  0  0  0  0  0  0
   91.9360   91.6520  -45.7030 O   0  0  0  0  0  0  0  0  0  0  0  0
   90.6390   93.2880  -46.5890 N   0  0  0  0  0  0  0  0  0  0  0  0
   90.2370   94.5660  -46.5190 C   0  0  0  0  0  0  0  0  0  0  0  0
   89.4130   94.9400  -47.3820 O   0  0  0  0  0  0  0  0  0  0  0  0
   92.9650   93.1940  -43.7220 C   0  0  0  0  0  0  0  0  0  0  0  0
   84.9570   97.0680  -46.0550 H   0  0  0  0  0  0  0  0  0  0  0  0
   87.1230   96.6250  -46.9480 H   0  0  0  0  0  0  0  0  0  0  0  0
   88.9160   98.9570  -43.8950 H   0  0  0  0  0  0  0  0  0  0  0  0
   86.6300   99.4090  -42.9530 H   0  0  0  0  0  0  0  0  0  0  0  0
   90.0310   98.5410  -46.3580 H   0  0  0  0  0  0  0  0  0  0  0  0
   89.4190   97.0760  -47.0550 H   0  0  0  0  0  0  0  0  0  0  0  0
   91.6230   97.2930  -41.6600 H   0  0  0  0  0  0  0  0  0  0  0  0
   90.3650   98.5800  -41.6340 H   0  0  0  0  0  0  0  0  0  0  0  0
   91.8290  100.3160  -41.4550 H   0  0  0  0  0  0  0  0  0  0  0  0
   92.8200   99.0140  -40.7160 H   0  0  0  0  0  0  0  0  0  0  0  0
   94.0890  100.1470  -42.2480 H   0  0  0  0  0  0  0  0  0  0  0  0
   93.5750   99.4970  -44.7600 H   0  0  0  0  0  0  0  0  0  0  0  0
   93.1140  101.0470  -44.0170 H   0  0  0  0  0  0  0  0  0  0  0  0
   91.0400  100.3870  -43.3270 H   0  0  0  0  0  0  0  0  0  0  0  0
   91.0520   99.8750  -44.9750 H   0  0  0  0  0  0  0  0  0  0  0  0
   90.3000   92.6210  -47.3130 H   0  0  0  0  0  0  0  0  0  0  0  0
   92.4910   93.1560  -42.7120 H   0  0  0  0  0  0  0  0  0  0  0  0
   93.8500   93.8840  -43.6490 H   0  0  0  0  0  0  0  0  0  0  0  0
   93.3520   92.1910  -43.9320 H   0  0  0  0  0  0  0  0  0  0  0  0
  2  7  1  0  0  0  0
  2  1  1  0  0  0  0
  3  2  2  0  0  0  0
  4  3  1  0  0  0  0
  4  5  2  0  0  0  0
  5  6  1  0  0  0  0
  6 29  1  0  0  0  0
  6  7  2  0  0  0  0
  7 30  1  0  0  0  0
  8  5  1  0  0  0  0
  8  9  1  0  0  0  0
  9 13  1  0  0  0  0
 10  9  1  0  0  0  0
 10 11  2  0  0  0  0
 11 12  1  0  0  0  0
 13 12  2  0  0  0  0
 13 14  1  0  0  0  0
 14 15  1  0  0  0  0
 15 16  1  0  0  0  0
 15 33  1  0  0  0  0
 15 34  1  0  0  0  0
 16 35  1  0  0  0  0
 16 36  1  0  0  0  0
 17 37  1  0  0  0  0
 17 16  1  0  0  0  0
 18 17  1  0  0  0  0
 19 18  1  0  0  0  0
 19 14  1  0  0  0  0
 19 40  1  0  0  0  0
 20 11  1  0  0  0  0
 20 26  1  0  0  0  0
 21 20  1  0  0  0  0
 22 21  2  0  0  0  0
 23 24  1  0  0  0  0
 23 21  1  0  0  0  0
 24 10  1  0  0  0  0
 25 24  2  0  0  0  0
 26 44  1  0  0  0  0
 26 43  1  0  0  0  0
 27  3  1  0  0  0  0
 28  4  1  0  0  0  0
 31  8  1  0  0  0  0
 32  8  1  0  0  0  0
 38 18  1  0  0  0  0
 39 18  1  0  0  0  0
 41 19  1  0  0  0  0
 42 23  1  0  0  0  0
 45 26  1  0  0  0  0
M  END
>  <Pose>
1

>  <Score>
-5.36

$$$$
