
 OpenBabel03212208273D

 50 53  0  0  1  0  0  0  0  0999 V2000
   84.8570   98.5150  -43.3320 Cl  0  0  0  0  0  0  0  0  0  0  0  0
   86.5230   98.4600  -43.8520 C   0  0  0  0  0  0  0  0  0  0  0  0
   87.5460   99.0260  -43.1220 C   0  0  0  0  0  0  0  0  0  0  0  0
   88.8410   98.9470  -43.5940 C   0  0  0  0  0  0  0  0  0  0  0  0
   89.1660   98.3230  -44.7720 C   0  0  0  0  0  0  0  0  0  0  0  0
   88.1180   97.7570  -45.4980 C   0  0  0  0  0  0  0  0  0  0  0  0
   86.8230   97.8320  -45.0330 C   0  0  0  0  0  0  0  0  0  0  0  0
   90.5600   98.2550  -45.2760 C   0  0  1  0  0  0  0  0  0  0  0  0
   91.4580   99.0370  -44.4170 N   0  0  0  0  0  0  0  0  0  0  0  0
   91.4590   98.3700  -43.1680 C   0  0  0  0  0  0  0  0  0  0  0  0
   91.6470   98.8890  -42.0420 O   0  0  0  0  0  0  0  0  0  0  0  0
   91.1960   96.9450  -43.4420 C   0  0  0  0  0  0  0  0  0  0  0  0
   91.1120   96.0070  -42.6170 O   0  0  0  0  0  0  0  0  0  0  0  0
   91.0520   96.8700  -44.8890 C   0  0  0  0  0  0  0  0  0  0  0  0
   91.2990   95.8600  -45.6480 C   0  0  0  0  0  0  0  0  0  0  0  0
   91.1280   95.9380  -47.0290 O   0  0  0  0  0  0  0  0  0  0  0  0
   91.7670   94.5980  -45.0830 C   0  0  0  0  0  0  0  0  0  0  0  0
   92.5590   94.3320  -44.1060 O   0  0  0  0  0  0  0  0  0  0  0  0
   92.6960   93.0460  -43.9520 C   0  0  0  0  0  0  0  0  0  0  0  0
   91.9400   92.3950  -44.8930 C   0  0  0  0  0  0  0  0  0  0  0  0
   91.3390   93.3790  -45.6270 C   0  0  0  0  0  0  0  0  0  0  0  0
   92.1740  100.2460  -44.7970 C   0  0  0  0  0  0  0  0  0  0  0  0
   93.3850  100.5320  -43.9630 C   0  0  0  0  0  0  0  0  0  0  0  0
   93.7530  101.9010  -43.8370 N   0  0  0  0  0  4  0  0  0  0  0  0
   92.7710  102.8680  -44.2090 C   0  0  0  0  0  0  0  0  0  0  0  0
   91.5340  102.8440  -43.3400 C   0  0  0  0  0  0  0  0  0  0  0  0
   91.8640  103.0260  -42.0020 O   0  0  0  0  0  0  0  0  0  0  0  0
   92.8680  102.1570  -41.5870 C   0  0  0  0  0  0  0  0  0  0  0  0
   94.1070  102.2290  -42.4410 C   0  0  0  0  0  0  0  0  0  0  0  0
   87.2730   99.5110  -42.1980 H   0  0  0  0  0  0  0  0  0  0  0  0
   89.6170   99.3990  -42.9900 H   0  0  0  0  0  0  0  0  0  0  0  0
   88.3800   97.2600  -46.4430 H   0  0  0  0  0  0  0  0  0  0  0  0
   86.0130   97.3870  -45.6040 H   0  0  0  0  0  0  0  0  0  0  0  0
   90.6770   98.4620  -46.3350 H   0  0  0  0  0  0  0  0  0  0  0  0
   93.3000   92.5070  -43.2130 H   0  0  0  0  0  0  0  0  0  0  0  0
   91.8180   91.3150  -45.0550 H   0  0  0  0  0  0  0  0  0  0  0  0
   90.6670   93.2360  -46.4560 H   0  0  0  0  0  0  0  0  0  0  0  0
   91.4840  101.1240  -44.7930 H   0  0  0  0  0  0  0  0  0  0  0  0
   92.4950  100.0720  -45.8610 H   0  0  0  0  0  0  0  0  0  0  0  0
   93.3180   99.9970  -42.9900 H   0  0  0  0  0  0  0  0  0  0  0  0
   94.2430  100.0220  -44.4890 H   0  0  0  0  0  0  0  0  0  0  0  0
   94.5990  102.0670  -44.4250 H   0  0  0  0  0  0  0  0  0  0  0  0
   93.2450  103.8760  -43.9950 H   0  0  0  0  0  0  0  0  0  0  0  0
   92.4980  102.9010  -45.2580 H   0  0  0  0  0  0  0  0  0  0  0  0
   90.9590  103.7730  -43.6320 H   0  0  0  0  0  0  0  0  0  0  0  0
   90.8680  101.9960  -43.5310 H   0  0  0  0  0  0  0  0  0  0  0  0
   92.5170  101.1020  -41.5570 H   0  0  0  0  0  0  0  0  0  0  0  0
   93.1460  102.4600  -40.5560 H   0  0  0  0  0  0  0  0  0  0  0  0
   94.4680  103.2710  -42.4350 H   0  0  0  0  0  0  0  0  0  0  0  0
   94.8260  101.5020  -42.0230 H   0  0  0  0  0  0  0  0  0  0  0  0
  2  1  1  0  0  0  0
  2  3  1  0  0  0  0
  3 30  1  0  0  0  0
  4  3  2  0  0  0  0
  4 31  1  0  0  0  0
  5  4  1  0  0  0  0
  6  7  1  0  0  0  0
  6  5  2  0  0  0  0
  7  2  2  0  0  0  0
  8 34  1  6  0  0  0
  8 14  1  0  0  0  0
  8  5  1  0  0  0  0
  8  9  1  0  0  0  0
  9 10  1  0  0  0  0
 10 11  2  0  0  0  0
 12 10  1  0  0  0  0
 12 13  2  0  0  0  0
 14 12  1  0  0  0  0
 15 17  1  0  0  0  0
 15 14  2  0  0  0  0
 16 15  1  0  0  0  0
 17 18  1  0  0  0  0
 18 19  1  0  0  0  0
 19 35  1  0  0  0  0
 20 19  2  0  0  0  0
 21 17  2  0  0  0  0
 21 20  1  0  0  0  0
 22 38  1  0  0  0  0
 22  9  1  0  0  0  0
 22 23  1  0  0  0  0
 23 24  1  0  0  0  0
 23 40  1  0  0  0  0
 24 29  1  0  0  0  0
 25 43  1  0  0  0  0
 25 24  1  0  0  0  0
 25 26  1  0  0  0  0
 26 27  1  0  0  0  0
 27 28  1  0  0  0  0
 28 47  1  0  0  0  0
 28 48  1  0  0  0  0
 29 49  1  0  0  0  0
 29 50  1  0  0  0  0
 29 28  1  0  0  0  0
 32  6  1  0  0  0  0
 33  7  1  0  0  0  0
 36 20  1  0  0  0  0
 37 21  1  0  0  0  0
 39 22  1  0  0  0  0
 41 23  1  0  0  0  0
 42 24  1  0  0  0  0
 44 25  1  0  0  0  0
 45 26  1  0  0  0  0
 46 26  1  0  0  0  0
M  END
>  <Pose>
1

>  <Score>
-4.16

$$$$
