
 OpenBabel03212208273D

 34 37  0  0  1  0  0  0  0  0999 V2000
   91.8630   92.1540  -45.4600 Cl  0  0  0  0  0  0  0  0  0  0  0  0
   91.7950   93.7870  -44.8060 C   0  0  0  0  0  0  0  0  0  0  0  0
   91.8330   94.0170  -43.4530 C   0  0  0  0  0  0  0  0  0  0  0  0
   91.7780   95.2970  -42.9500 C   0  0  0  0  0  0  0  0  0  0  0  0
   91.6830   96.4070  -43.7680 C   0  0  0  0  0  0  0  0  0  0  0  0
   91.6470   96.1560  -45.1220 C   0  0  0  0  0  0  0  0  0  0  0  0
   91.7000   94.8850  -45.6450 C   0  0  0  0  0  0  0  0  0  0  0  0
   91.6290   97.7100  -43.1990 N   0  0  0  0  0  0  0  0  0  0  0  0
   90.9490   98.8660  -43.7090 C   0  0  0  0  0  0  0  0  0  0  0  0
   90.6920   99.0020  -44.9550 O   0  0  0  0  0  0  0  0  0  0  0  0
   90.6360   99.7810  -42.5990 C   0  0  1  0  0  0  0  0  0  0  0  0
   91.5980   99.3460  -41.5200 C   0  0  2  0  0  0  0  0  0  0  0  0
   92.5510  100.4830  -41.2240 C   0  0  2  0  0  0  0  0  0  0  0  0
   91.6890  101.5790  -40.5790 C   0  0  0  0  0  0  0  0  0  0  0  0
   90.7260  102.0050  -41.6500 C   0  0  0  0  0  0  0  0  0  0  0  0
   89.9690  102.9190  -41.4610 O   0  0  0  0  0  0  0  0  0  0  0  0
   90.7740  101.2260  -42.9360 C   0  0  1  0  0  0  0  0  0  0  0  0
   92.1590  101.5070  -43.5310 C   0  0  0  0  0  0  0  0  0  0  0  0
   93.1400  101.0660  -42.4790 C   0  0  0  0  0  0  0  0  0  0  0  0
   94.3180  101.1910  -42.6670 O   0  0  0  0  0  0  0  0  0  0  0  0
   92.2480   98.1230  -41.9880 C   0  0  0  0  0  0  0  0  0  0  0  0
   93.1930   97.5350  -41.4160 O   0  0  0  0  0  0  0  0  0  0  0  0
   91.9050   93.1700  -42.7970 H   0  0  0  0  0  0  0  0  0  0  0  0
   91.8080   95.4900  -41.8700 H   0  0  0  0  0  0  0  0  0  0  0  0
   91.5740   96.9840  -45.8100 H   0  0  0  0  0  0  0  0  0  0  0  0
   91.6710   94.6880  -46.7240 H   0  0  0  0  0  0  0  0  0  0  0  0
   89.5690   99.6160  -42.2820 H   0  0  0  0  0  0  0  0  0  0  0  0
   91.0120   99.1670  -40.5920 H   0  0  0  0  0  0  0  0  0  0  0  0
   93.3690  100.1640  -40.5550 H   0  0  0  0  0  0  0  0  0  0  0  0
   91.0630  101.0460  -39.8130 H   0  0  0  0  0  0  0  0  0  0  0  0
   92.2830  102.3990  -40.1850 H   0  0  0  0  0  0  0  0  0  0  0  0
   89.9610  101.5520  -43.5840 H   0  0  0  0  0  0  0  0  0  0  0  0
   92.1960  102.6180  -43.6820 H   0  0  0  0  0  0  0  0  0  0  0  0
   92.3140  100.9780  -44.4760 H   0  0  0  0  0  0  0  0  0  0  0  0
  1  2  1  0  0  0  0
  2  3  1  0  0  0  0
  3  4  2  0  0  0  0
  3 23  1  0  0  0  0
  4 24  1  0  0  0  0
  5  8  1  0  0  0  0
  5  4  1  0  0  0  0
  6  5  2  0  0  0  0
  7  6  1  0  0  0  0
  7  2  2  0  0  0  0
  8 21  1  0  0  0  0
  9  8  1  0  0  0  0
  9 11  1  0  0  0  0
 10  9  2  0  0  0  0
 11 27  1  1  0  0  0
 11 12  1  0  0  0  0
 12 13  1  0  0  0  0
 12 28  1  1  0  0  0
 13 14  1  0  0  0  0
 13 29  1  1  0  0  0
 14 31  1  0  0  0  0
 14 30  1  0  0  0  0
 15 16  2  0  0  0  0
 15 14  1  0  0  0  0
 17 32  1  6  0  0  0
 17 11  1  0  0  0  0
 17 15  1  0  0  0  0
 18 17  1  0  0  0  0
 18 19  1  0  0  0  0
 19 13  1  0  0  0  0
 20 19  2  0  0  0  0
 21 12  1  0  0  0  0
 21 22  2  0  0  0  0
 25  6  1  0  0  0  0
 26  7  1  0  0  0  0
 33 18  1  0  0  0  0
 34 18  1  0  0  0  0
M  END
>  <Pose>
1

>  <Score>
-4.32

$$$$
