
 OpenBabel03212208273D

 40 43  0  0  0  0  0  0  0  0999 V2000
   93.0800   92.8570  -42.2300 Cl  0  0  0  0  0  0  0  0  0  0  0  0
   92.1930   93.8140  -43.4000 C   0  0  0  0  0  0  0  0  0  0  0  0
   91.7510   95.0860  -43.1130 C   0  0  0  0  0  0  0  0  0  0  0  0
   91.0450   95.8380  -44.0560 C   0  0  0  0  0  0  0  0  0  0  0  0
   90.7990   95.2700  -45.2970 C   0  0  0  0  0  0  0  0  0  0  0  0
   91.2340   94.0020  -45.5990 C   0  0  0  0  0  0  0  0  0  0  0  0
   91.9250   93.2730  -44.6640 C   0  0  0  0  0  0  0  0  0  0  0  0
   90.0590   96.0260  -46.3230 C   0  0  0  0  0  0  0  0  0  0  0  0
   89.7020   95.7430  -47.5290 N   0  0  0  0  0  0  0  0  0  0  0  0
   88.9820   96.8170  -48.1570 C   0  0  0  0  0  0  0  0  0  0  0  0
   88.9320   97.8870  -47.1100 C   0  0  0  0  0  0  0  0  0  0  0  0
   89.6260   97.3280  -45.9810 N   0  0  0  0  0  0  0  0  0  0  0  0
   89.8940   97.8830  -44.7000 C   0  0  0  0  0  0  0  0  0  0  0  0
   89.5180   99.0440  -44.3750 O   0  0  0  0  0  0  0  0  0  0  0  0
   90.6170   97.1460  -43.6960 N   0  0  0  0  0  0  0  0  0  0  0  0
   90.8810   97.7350  -42.3910 C   0  0  0  0  0  0  0  0  0  0  0  0
   92.3220   98.0270  -42.2170 C   0  0  0  0  0  0  0  0  0  0  0  0
   92.9790   97.3140  -41.4210 O   0  0  0  0  0  0  0  0  0  0  0  0
   92.9890   99.0690  -42.9060 N   0  0  0  0  0  0  0  0  0  0  0  0
   92.3510  100.3320  -43.1870 C   0  0  0  0  0  0  0  0  0  0  0  0
   92.6010  101.2990  -42.0600 C   0  0  0  0  0  0  0  0  0  0  0  0
   91.9980  101.0370  -40.7250 C   0  0  0  0  0  0  0  0  0  0  0  0
   91.4290  102.1040  -41.5810 C   0  0  0  0  0  0  0  0  0  0  0  0
   91.9470   95.5310  -42.1390 H   0  0  0  0  0  0  0  0  0  0  0  0
   91.0380   93.5740  -46.5580 H   0  0  0  0  0  0  0  0  0  0  0  0
   92.2970   92.2590  -44.8450 H   0  0  0  0  0  0  0  0  0  0  0  0
   87.9700   96.5140  -48.4990 H   0  0  0  0  0  0  0  0  0  0  0  0
   89.5670   97.2250  -49.0270 H   0  0  0  0  0  0  0  0  0  0  0  0
   89.4010   98.8430  -47.4580 H   0  0  0  0  0  0  0  0  0  0  0  0
   87.8570   98.0570  -46.8650 H   0  0  0  0  0  0  0  0  0  0  0  0
   90.4210   97.1960  -41.5580 H   0  0  0  0  0  0  0  0  0  0  0  0
   90.3690   98.7440  -42.4170 H   0  0  0  0  0  0  0  0  0  0  0  0
   93.9690   98.8990  -43.2100 H   0  0  0  0  0  0  0  0  0  0  0  0
   91.2480  100.1670  -43.3450 H   0  0  0  0  0  0  0  0  0  0  0  0
   92.7590  100.7300  -44.1300 H   0  0  0  0  0  0  0  0  0  0  0  0
   93.5370  101.8850  -42.1640 H   0  0  0  0  0  0  0  0  0  0  0  0
   91.4460  100.0810  -40.5800 H   0  0  0  0  0  0  0  0  0  0  0  0
   92.6200  101.3010  -39.8390 H   0  0  0  0  0  0  0  0  0  0  0  0
   90.4530  101.8730  -42.0650 H   0  0  0  0  0  0  0  0  0  0  0  0
   91.5960  103.1620  -41.2770 H   0  0  0  0  0  0  0  0  0  0  0  0
  2  3  1  0  0  0  0
  2  1  1  0  0  0  0
  3 24  1  0  0  0  0
  4 15  1  0  0  0  0
  4  3  2  0  0  0  0
  5  4  1  0  0  0  0
  6  5  2  0  0  0  0
  6  7  1  0  0  0  0
  7  2  2  0  0  0  0
  8 12  1  0  0  0  0
  8  5  1  0  0  0  0
  9  8  2  0  0  0  0
 10  9  1  0  0  0  0
 10 11  1  0  0  0  0
 11 30  1  0  0  0  0
 11 12  1  0  0  0  0
 12 13  1  0  0  0  0
 13 14  2  0  0  0  0
 13 15  1  0  0  0  0
 15 16  1  0  0  0  0
 16 17  1  0  0  0  0
 16 31  1  0  0  0  0
 17 18  2  0  0  0  0
 19 17  1  0  0  0  0
 20 19  1  0  0  0  0
 20 21  1  0  0  0  0
 21 23  1  0  0  0  0
 21 22  1  0  0  0  0
 22 37  1  0  0  0  0
 22 38  1  0  0  0  0
 23 40  1  0  0  0  0
 23 22  1  0  0  0  0
 25  6  1  0  0  0  0
 26  7  1  0  0  0  0
 27 10  1  0  0  0  0
 28 10  1  0  0  0  0
 29 11  1  0  0  0  0
 32 16  1  0  0  0  0
 33 19  1  0  0  0  0
 34 20  1  0  0  0  0
 35 20  1  0  0  0  0
 36 21  1  0  0  0  0
 39 23  1  0  0  0  0
M  END
>  <Pose>
1

>  <Score>
-5.57

$$$$
