
 OpenBabel03212208273D

 63 66  0  0  1  0  0  0  0  0999 V2000
   85.1540   98.9770  -50.2330 Cl  0  0  0  0  0  0  0  0  0  0  0  0
   86.1230   98.5010  -48.8570 C   0  0  0  0  0  0  0  0  0  0  0  0
   86.5230   97.2050  -48.6360 C   0  0  0  0  0  0  0  0  0  0  0  0
   87.2870   96.8820  -47.5340 C   0  0  0  0  0  0  0  0  0  0  0  0
   87.6930   97.8380  -46.5920 C   0  0  0  0  0  0  0  0  0  0  0  0
   87.2810   99.1250  -46.8400 C   0  0  0  0  0  0  0  0  0  0  0  0
   86.5040   99.4560  -47.9580 C   0  0  0  0  0  0  0  0  0  0  0  0
   88.5320   97.4360  -45.4850 C   0  0  0  0  0  0  0  0  0  0  0  0
   89.7390   97.9340  -45.2770 C   0  0  0  0  0  0  0  0  0  0  0  0
   90.6590   97.5490  -44.1460 C   0  0  2  0  0  0  0  0  0  0  0  0
   91.6890   98.5480  -44.1320 N   0  0  0  0  0  0  0  0  0  0  0  0
   91.6320   99.3430  -45.3080 C   0  0  0  0  0  0  0  0  0  0  0  0
   92.4520  100.1990  -45.6700 O   0  0  0  0  0  0  0  0  0  0  0  0
   90.3970   98.9540  -46.0290 C   0  0  0  0  0  0  0  0  0  0  0  0
   90.0240   99.4600  -47.1130 O   0  0  0  0  0  0  0  0  0  0  0  0
   92.6580   98.7430  -43.0590 C   0  0  0  0  0  0  0  0  0  0  0  0
   92.2380   99.8880  -42.2030 C   0  0  0  0  0  0  0  0  0  0  0  0
   93.3830  100.7400  -41.8430 N   0  0  0  0  0  4  0  0  0  0  0  0
   93.4880  100.7590  -40.4170 C   0  0  0  0  0  0  0  0  0  0  0  0
   94.3720  101.9030  -39.9250 C   0  0  0  0  0  0  0  0  0  0  0  0
   93.7940  103.0840  -40.4240 O   0  0  0  0  0  0  0  0  0  0  0  0
   94.0000  103.0960  -41.7870 C   0  0  0  0  0  0  0  0  0  0  0  0
   93.1240  102.0380  -42.4270 C   0  0  0  0  0  0  0  0  0  0  0  0
   91.1560   96.1810  -44.4540 C   0  0  0  0  0  0  0  0  0  0  0  0
   91.6370   95.3860  -43.4530 C   0  0  0  0  0  0  0  0  0  0  0  0
   92.0790   94.1270  -43.7440 C   0  0  0  0  0  0  0  0  0  0  0  0
   92.0560   93.6280  -45.0280 C   0  0  0  0  0  0  0  0  0  0  0  0
   91.5710   94.4310  -46.0430 C   0  0  0  0  0  0  0  0  0  0  0  0
   91.1220   95.7080  -45.7420 C   0  0  0  0  0  0  0  0  0  0  0  0
   92.5090   92.3440  -45.3150 O   0  0  0  0  0  0  0  0  0  0  0  0
   91.5450   91.3630  -45.7220 C   0  0  0  0  0  0  0  0  0  0  0  0
   91.5330   91.2920  -47.2470 C   0  0  0  0  0  0  0  0  0  0  0  0
   92.6430   90.3330  -47.6550 C   0  0  0  0  0  0  0  0  0  0  0  0
   88.0910   96.4690  -44.5500 O   0  0  0  0  0  0  0  0  0  0  0  0
   86.2160   96.4580  -49.3530 H   0  0  0  0  0  0  0  0  0  0  0  0
   87.5940   95.8560  -47.3750 H   0  0  0  0  0  0  0  0  0  0  0  0
   87.5870   99.9150  -46.1660 H   0  0  0  0  0  0  0  0  0  0  0  0
   86.2000  100.4920  -48.1090 H   0  0  0  0  0  0  0  0  0  0  0  0
   90.0820   97.5300  -43.1980 H   0  0  0  0  0  0  0  0  0  0  0  0
   93.6430   98.9710  -43.5250 H   0  0  0  0  0  0  0  0  0  0  0  0
   92.7380   97.8080  -42.4820 H   0  0  0  0  0  0  0  0  0  0  0  0
   91.7940   99.5530  -41.2520 H   0  0  0  0  0  0  0  0  0  0  0  0
   91.5250  100.5440  -42.7670 H   0  0  0  0  0  0  0  0  0  0  0  0
   94.2720  100.3500  -42.2510 H   0  0  0  0  0  0  0  0  0  0  0  0
   93.9880   99.7980  -40.1140 H   0  0  0  0  0  0  0  0  0  0  0  0
   92.5020  100.8780  -39.9220 H   0  0  0  0  0  0  0  0  0  0  0  0
   95.3720  101.7230  -40.3570 H   0  0  0  0  0  0  0  0  0  0  0  0
   94.3490  101.9120  -38.8350 H   0  0  0  0  0  0  0  0  0  0  0  0
   93.6890  104.0650  -42.2120 H   0  0  0  0  0  0  0  0  0  0  0  0
   95.0390  102.8750  -42.0680 H   0  0  0  0  0  0  0  0  0  0  0  0
   93.3880  101.9700  -43.5040 H   0  0  0  0  0  0  0  0  0  0  0  0
   92.0480  102.2630  -42.3010 H   0  0  0  0  0  0  0  0  0  0  0  0
   91.6750   95.7310  -42.4280 H   0  0  0  0  0  0  0  0  0  0  0  0
   92.4630   93.4840  -42.9580 H   0  0  0  0  0  0  0  0  0  0  0  0
   91.5600   94.0220  -47.0420 H   0  0  0  0  0  0  0  0  0  0  0  0
   90.7510   96.2950  -46.5860 H   0  0  0  0  0  0  0  0  0  0  0  0
   91.8320   90.3720  -45.3370 H   0  0  0  0  0  0  0  0  0  0  0  0
   90.5470   91.6300  -45.3310 H   0  0  0  0  0  0  0  0  0  0  0  0
   90.5650   90.8450  -47.5550 H   0  0  0  0  0  0  0  0  0  0  0  0
   91.6790   92.2970  -47.6860 H   0  0  0  0  0  0  0  0  0  0  0  0
   92.3550   89.7780  -48.5560 H   0  0  0  0  0  0  0  0  0  0  0  0
   92.8440   89.5780  -46.8580 H   0  0  0  0  0  0  0  0  0  0  0  0
   93.5500   90.9370  -47.8540 H   0  0  0  0  0  0  0  0  0  0  0  0
  1  2  1  0  0  0  0
  2  3  2  0  0  0  0
  2  7  1  0  0  0  0
  3  4  1  0  0  0  0
  4 36  1  0  0  0  0
  4  5  2  0  0  0  0
  5  8  1  0  0  0  0
  6  5  1  0  0  0  0
  6 37  1  0  0  0  0
  7  6  2  0  0  0  0
  8  9  2  0  0  0  0
  8 34  1  0  0  0  0
  9 10  1  0  0  0  0
 10 11  1  0  0  0  0
 10 39  1  1  0  0  0
 11 16  1  0  0  0  0
 12 11  1  0  0  0  0
 13 12  2  0  0  0  0
 14 12  1  0  0  0  0
 14  9  1  0  0  0  0
 15 14  2  0  0  0  0
 16 41  1  0  0  0  0
 16 17  1  0  0  0  0
 17 18  1  0  0  0  0
 17 42  1  0  0  0  0
 18 19  1  0  0  0  0
 19 45  1  0  0  0  0
 19 20  1  0  0  0  0
 19 46  1  0  0  0  0
 20 48  1  0  0  0  0
 21 20  1  0  0  0  0
 22 21  1  0  0  0  0
 23 52  1  0  0  0  0
 23 18  1  0  0  0  0
 23 22  1  0  0  0  0
 24 10  1  0  0  0  0
 24 25  1  0  0  0  0
 25 53  1  0  0  0  0
 26 25  2  0  0  0  0
 26 54  1  0  0  0  0
 27 26  1  0  0  0  0
 28 29  1  0  0  0  0
 28 27  2  0  0  0  0
 29 24  2  0  0  0  0
 30 27  1  0  0  0  0
 31 57  1  0  0  0  0
 31 58  1  0  0  0  0
 31 30  1  0  0  0  0
 32 31  1  0  0  0  0
 33 32  1  0  0  0  0
 33 62  1  0  0  0  0
 35  3  1  0  0  0  0
 38  7  1  0  0  0  0
 40 16  1  0  0  0  0
 43 17  1  0  0  0  0
 44 18  1  0  0  0  0
 47 20  1  0  0  0  0
 49 22  1  0  0  0  0
 50 22  1  0  0  0  0
 51 23  1  0  0  0  0
 55 28  1  0  0  0  0
 56 29  1  0  0  0  0
 59 32  1  0  0  0  0
 60 32  1  0  0  0  0
 61 33  1  0  0  0  0
 63 33  1  0  0  0  0
M  END
>  <Pose>
1

>  <Score>
-4.59

$$$$
