
 OpenBabel03212208273D

 42 45  0  0  0  0  0  0  0  0999 V2000
   92.1990   99.0230  -41.4780 Cl  0  0  0  0  0  0  0  0  0  0  0  0
   92.2450   98.5390  -43.1440 C   0  0  0  0  0  0  0  0  0  0  0  0
   91.7880   97.3140  -43.6120 C   0  0  0  0  0  0  0  0  0  0  0  0
   91.8420   96.9970  -44.9250 C   0  0  0  0  0  0  0  0  0  0  0  0
   92.3730   97.9500  -45.7700 C   0  0  0  0  0  0  0  0  0  0  0  0
   92.8340   99.1600  -45.3730 C   0  0  0  0  0  0  0  0  0  0  0  0
   92.7840   99.4960  -44.0640 C   0  0  0  0  0  0  0  0  0  0  0  0
   91.3970   95.7430  -45.4920 N   0  0  0  0  0  0  0  0  0  0  0  0
   90.3240   95.6890  -46.2520 N   0  0  0  0  0  0  0  0  0  0  0  0
   90.2210   94.5490  -46.5620 N   0  0  0  0  0  0  0  0  0  0  0  0
   90.8330   93.5260  -46.3340 C   0  0  0  0  0  0  0  0  0  0  0  0
   91.8430   94.5180  -45.4130 C   0  0  0  0  0  0  0  0  0  0  0  0
   91.5660   92.3010  -46.0630 C   0  0  0  0  0  0  0  0  0  0  0  0
   92.0460   92.5270  -44.7760 O   0  0  0  0  0  0  0  0  0  0  0  0
   91.9540   91.0880  -46.5220 N   0  0  0  0  0  0  0  0  0  0  0  0
   92.9870   90.6960  -47.4350 C   0  0  0  0  0  0  0  0  0  0  0  0
   92.6050   89.3510  -48.0870 C   0  0  0  0  0  0  0  0  0  0  0  0
   91.1380   89.4040  -48.1670 N   0  0  0  0  0  0  0  0  0  0  0  0
   90.3810   89.2870  -46.9650 C   0  0  0  0  0  0  0  0  0  0  0  0
   91.2290   89.9280  -45.9130 C   0  0  0  0  0  0  0  0  0  0  0  0
   90.5280   89.6820  -49.3850 C   0  0  0  0  0  0  0  0  0  0  0  0
   89.4450   88.9210  -49.8370 N   0  0  0  0  0  0  0  0  0  0  0  0
   88.7940   89.1080  -50.9310 C   0  0  0  0  0  0  0  0  0  0  0  0
   89.1130   90.1500  -51.8150 C   0  0  0  0  0  0  0  0  0  0  0  0
   90.1920   90.9070  -51.3780 C   0  0  0  0  0  0  0  0  0  0  0  0
   90.8030   90.6670  -50.2790 N   0  0  0  0  0  0  0  0  0  0  0  0
   91.4280   96.5880  -42.8890 H   0  0  0  0  0  0  0  0  0  0  0  0
   92.4080   97.6360  -46.8540 H   0  0  0  0  0  0  0  0  0  0  0  0
   93.2340   99.8610  -46.1000 H   0  0  0  0  0  0  0  0  0  0  0  0
   93.1080  100.4020  -43.6570 H   0  0  0  0  0  0  0  0  0  0  0  0
   92.6330   94.1410  -44.9140 H   0  0  0  0  0  0  0  0  0  0  0  0
   93.9180   90.4290  -46.8770 H   0  0  0  0  0  0  0  0  0  0  0  0
   93.1500   91.3690  -48.2650 H   0  0  0  0  0  0  0  0  0  0  0  0
   93.0270   89.2240  -49.0810 H   0  0  0  0  0  0  0  0  0  0  0  0
   92.9290   88.5310  -47.4050 H   0  0  0  0  0  0  0  0  0  0  0  0
   90.2230   88.2320  -46.6830 H   0  0  0  0  0  0  0  0  0  0  0  0
   89.3570   89.7720  -47.1000 H   0  0  0  0  0  0  0  0  0  0  0  0
   91.9680   89.2850  -45.3960 H   0  0  0  0  0  0  0  0  0  0  0  0
   90.5460   90.3460  -45.1590 H   0  0  0  0  0  0  0  0  0  0  0  0
   87.9730   88.4630  -51.2880 H   0  0  0  0  0  0  0  0  0  0  0  0
   88.6070   90.3490  -52.7380 H   0  0  0  0  0  0  0  0  0  0  0  0
   90.5280   91.7420  -52.0430 H   0  0  0  0  0  0  0  0  0  0  0  0
  2  1  1  0  0  0  0
  3  2  1  0  0  0  0
  3 27  1  0  0  0  0
  4  3  2  0  0  0  0
  5  6  2  0  0  0  0
  5  4  1  0  0  0  0
  6  7  1  0  0  0  0
  7 30  1  0  0  0  0
  7  2  2  0  0  0  0
  8 12  1  0  0  0  0
  8  4  1  0  0  0  0
  9  8  1  0  0  0  0
 10 11  1  0  0  0  0
 10  9  2  0  0  0  0
 11 13  1  0  0  0  0
 11 12  2  0  0  0  0
 12 31  1  0  0  0  0
 13 14  2  0  0  0  0
 15 13  1  0  0  0  0
 15 20  1  0  0  0  0
 16 32  1  0  0  0  0
 16 15  1  0  0  0  0
 17 16  1  0  0  0  0
 17 35  1  0  0  0  0
 18 17  1  0  0  0  0
 18 19  1  0  0  0  0
 19 36  1  0  0  0  0
 19 20  1  0  0  0  0
 20 38  1  0  0  0  0
 20 39  1  0  0  0  0
 21 18  1  0  0  0  0
 22 21  2  0  0  0  0
 23 22  1  0  0  0  0
 24 25  1  0  0  0  0
 24 23  2  0  0  0  0
 25 26  2  0  0  0  0
 26 21  1  0  0  0  0
 28  5  1  0  0  0  0
 29  6  1  0  0  0  0
 33 16  1  0  0  0  0
 34 17  1  0  0  0  0
 37 19  1  0  0  0  0
 40 23  1  0  0  0  0
 41 24  1  0  0  0  0
 42 25  1  0  0  0  0
M  END
>  <Pose>
1

>  <Score>
-4.73

$$$$
