
 OpenBabel03212208273D

 42 45  0  0  1  0  0  0  0  0999 V2000
   91.1780   91.4580  -47.6290 Cl  0  0  0  0  0  0  0  0  0  0  0  0
   91.4240   92.4600  -46.1990 C   0  0  0  0  0  0  0  0  0  0  0  0
   91.0640   93.7910  -46.1680 C   0  0  0  0  0  0  0  0  0  0  0  0
   91.2440   94.5770  -45.0790 N   0  0  0  0  0  0  0  0  0  0  0  0
   91.7940   94.0980  -43.9470 C   0  0  0  0  0  0  0  0  0  0  0  0
   91.9830   94.8710  -42.8450 N   0  0  0  0  0  0  0  0  0  0  0  0
   91.6350   96.1700  -42.8070 C   0  0  0  0  0  0  0  0  0  0  0  0
   91.0650   96.6800  -43.9690 C   0  0  1  0  0  0  0  0  0  0  0  0
   90.6800   98.1150  -43.9290 C   0  0  0  0  0  0  0  0  0  0  0  0
   91.8230   98.8030  -43.3160 N   0  0  0  0  0  0  0  0  0  0  0  0
   92.1690   98.4440  -41.9690 C   0  0  0  0  0  0  0  0  0  0  0  0
   91.8340   97.0240  -41.6080 C   0  0  0  0  0  0  0  0  0  0  0  0
   92.5500   99.7740  -44.0380 C   0  0  0  0  0  0  0  0  0  0  0  0
   93.7040   99.4330  -44.4660 O   0  0  0  0  0  0  0  0  0  0  0  0
   92.0290  101.1320  -44.3090 C   0  0  0  0  0  0  0  0  0  0  0  0
   93.1010  102.1920  -44.1800 C   0  0  0  0  0  0  0  0  0  0  0  0
   93.9070  101.8170  -42.9440 C   0  0  0  0  0  0  0  0  0  0  0  0
   93.0630  101.3240  -41.9510 O   0  0  0  0  0  0  0  0  0  0  0  0
   91.7960  101.9220  -42.0130 C   0  0  0  0  0  0  0  0  0  0  0  0
   90.9990  101.4610  -43.2180 C   0  0  0  0  0  0  0  0  0  0  0  0
   90.8850   95.8730  -45.0710 C   0  0  0  0  0  0  0  0  0  0  0  0
   90.3620   96.3640  -46.1230 O   0  0  0  0  0  0  0  0  0  0  0  0
   92.1640   92.7630  -43.9570 C   0  0  0  0  0  0  0  0  0  0  0  0
   91.9900   91.9430  -45.0530 C   0  0  0  0  0  0  0  0  0  0  0  0
   90.6150   94.2200  -47.0600 H   0  0  0  0  0  0  0  0  0  0  0  0
   89.7640   98.2170  -43.3390 H   0  0  0  0  0  0  0  0  0  0  0  0
   90.5010   98.5320  -44.9290 H   0  0  0  0  0  0  0  0  0  0  0  0
   93.2640   98.5590  -41.7930 H   0  0  0  0  0  0  0  0  0  0  0  0
   91.6140   99.1660  -41.3010 H   0  0  0  0  0  0  0  0  0  0  0  0
   90.8720   96.9880  -41.0180 H   0  0  0  0  0  0  0  0  0  0  0  0
   92.6190   96.5440  -40.9870 H   0  0  0  0  0  0  0  0  0  0  0  0
   91.5450  101.1550  -45.3110 H   0  0  0  0  0  0  0  0  0  0  0  0
   92.5740  103.1480  -43.9000 H   0  0  0  0  0  0  0  0  0  0  0  0
   93.7080  102.3470  -45.0670 H   0  0  0  0  0  0  0  0  0  0  0  0
   94.5810  100.9920  -43.2300 H   0  0  0  0  0  0  0  0  0  0  0  0
   94.5360  102.6520  -42.5880 H   0  0  0  0  0  0  0  0  0  0  0  0
   91.2430  101.5830  -41.1130 H   0  0  0  0  0  0  0  0  0  0  0  0
   91.8600  103.0230  -41.9520 H   0  0  0  0  0  0  0  0  0  0  0  0
   90.3520  100.6040  -43.0060 H   0  0  0  0  0  0  0  0  0  0  0  0
   90.4550  102.3600  -43.5890 H   0  0  0  0  0  0  0  0  0  0  0  0
   92.6100   92.3690  -43.0430 H   0  0  0  0  0  0  0  0  0  0  0  0
   92.2820   90.8980  -45.0530 H   0  0  0  0  0  0  0  0  0  0  0  0
  1  2  1  0  0  0  0
  2  3  1  0  0  0  0
  2 24  2  0  0  0  0
  3  4  1  0  0  0  0
  4 21  1  0  0  0  0
  4  5  1  0  0  0  0
  5  6  1  0  0  0  0
  6  7  2  0  0  0  0
  7 12  1  0  0  0  0
  8 21  1  6  0  0  0
  8  9  1  0  0  0  0
  8  7  1  0  0  0  0
  9 26  1  0  0  0  0
  9 10  1  0  0  0  0
 10 11  1  0  0  0  0
 11 28  1  0  0  0  0
 11 12  1  0  0  0  0
 11 29  1  0  0  0  0
 12 30  1  0  0  0  0
 12 31  1  0  0  0  0
 13 10  1  0  0  0  0
 14 13  2  0  0  0  0
 15 16  1  0  0  0  0
 15 13  1  0  0  0  0
 15 20  1  0  0  0  0
 16 33  1  0  0  0  0
 16 17  1  0  0  0  0
 17 36  1  0  0  0  0
 17 18  1  0  0  0  0
 19 38  1  0  0  0  0
 19 18  1  0  0  0  0
 19 37  1  0  0  0  0
 20 39  1  0  0  0  0
 20 19  1  0  0  0  0
 22 21  2  0  0  0  0
 23  5  2  0  0  0  0
 23 41  1  0  0  0  0
 24 23  1  0  0  0  0
 25  3  1  0  0  0  0
 27  9  1  0  0  0  0
 32 15  1  0  0  0  0
 34 16  1  0  0  0  0
 35 17  1  0  0  0  0
 40 20  1  0  0  0  0
 42 24  1  0  0  0  0
M  END
>  <Pose>
1

>  <Score>
-3.95

$$$$
