
 OpenBabel03212208273D

 41 44  0  0  0  0  0  0  0  0999 V2000
   90.1060   95.5090  -45.2530 F   0  0  0  0  0  0  0  0  0  0  0  0
   90.7010   96.5990  -44.7110 C   0  0  0  0  0  0  0  0  0  0  0  0
   91.2210   96.4960  -43.4290 C   0  0  0  0  0  0  0  0  0  0  0  0
   91.8400   97.5620  -42.8140 C   0  0  0  0  0  0  0  0  0  0  0  0
   91.9270   98.7500  -43.5200 C   0  0  0  0  0  0  0  0  0  0  0  0
   91.4120   98.8530  -44.7910 C   0  0  0  0  0  0  0  0  0  0  0  0
   90.7950   97.7850  -45.4000 C   0  0  0  0  0  0  0  0  0  0  0  0
   92.7140  100.1110  -42.7400 Cl  0  0  0  0  0  0  0  0  0  0  0  0
   92.2980   97.2100  -41.4860 C   0  0  0  0  0  0  0  0  0  0  0  0
   92.8950   97.9260  -40.6510 O   0  0  0  0  0  0  0  0  0  0  0  0
   91.9160   95.8150  -41.3020 C   0  0  0  0  0  0  0  0  0  0  0  0
   92.1390   95.1240  -40.2590 O   0  0  0  0  0  0  0  0  0  0  0  0
   91.2640   95.4000  -42.4920 N   0  0  0  0  0  0  0  0  0  0  0  0
   90.7090   94.0910  -42.7680 C   0  0  0  0  0  0  0  0  0  0  0  0
   91.7150   93.0880  -43.0490 N   0  0  0  0  0  0  0  0  0  0  0  0
   91.1310   91.7960  -43.1640 C   0  0  0  0  0  0  0  0  0  0  0  0
   91.6220   90.9670  -44.2980 C   0  0  0  0  0  0  0  0  0  0  0  0
   91.8550   91.7170  -45.5050 N   0  0  0  0  0  0  0  0  0  0  0  0
   91.9730   93.1530  -45.4130 C   0  0  0  0  0  0  0  0  0  0  0  0
   92.6260   93.4520  -44.0800 C   0  0  0  0  0  0  0  0  0  0  0  0
   91.9730   91.0980  -46.7710 C   0  0  0  0  0  0  0  0  0  0  0  0
   93.0370   90.3410  -47.0830 N   0  0  0  0  0  0  0  0  0  0  0  0
   93.1730   89.7410  -48.2820 C   0  0  0  0  0  0  0  0  0  0  0  0
   92.2000   89.8900  -49.2520 C   0  0  0  0  0  0  0  0  0  0  0  0
   91.1330   90.6450  -48.9450 N   0  0  0  0  0  0  0  0  0  0  0  0
   90.9960   91.2450  -47.7470 C   0  0  0  0  0  0  0  0  0  0  0  0
   91.4960   99.8090  -45.3260 H   0  0  0  0  0  0  0  0  0  0  0  0
   90.3940   97.8970  -46.4150 H   0  0  0  0  0  0  0  0  0  0  0  0
   90.0670   93.8270  -41.9230 H   0  0  0  0  0  0  0  0  0  0  0  0
   90.0570   94.1700  -43.6630 H   0  0  0  0  0  0  0  0  0  0  0  0
   91.3370   91.2400  -42.2130 H   0  0  0  0  0  0  0  0  0  0  0  0
   90.0090   91.8870  -43.1950 H   0  0  0  0  0  0  0  0  0  0  0  0
   92.4960   90.3260  -44.0240 H   0  0  0  0  0  0  0  0  0  0  0  0
   90.8030   90.2290  -44.5450 H   0  0  0  0  0  0  0  0  0  0  0  0
   90.9210   93.5410  -45.3520 H   0  0  0  0  0  0  0  0  0  0  0  0
   92.5270   93.5910  -46.2600 H   0  0  0  0  0  0  0  0  0  0  0  0
   92.9770   94.4730  -43.9580 H   0  0  0  0  0  0  0  0  0  0  0  0
   93.5420   92.8030  -43.9660 H   0  0  0  0  0  0  0  0  0  0  0  0
   94.0380   89.1320  -48.5230 H   0  0  0  0  0  0  0  0  0  0  0  0
   92.3350   89.3950  -50.2090 H   0  0  0  0  0  0  0  0  0  0  0  0
   90.1380   91.8560  -47.4930 H   0  0  0  0  0  0  0  0  0  0  0  0
  1  2  1  0  0  0  0
  2  3  1  0  0  0  0
  3  4  2  0  0  0  0
  3 13  1  0  0  0  0
  4  9  1  0  0  0  0
  5  4  1  0  0  0  0
  5  8  1  0  0  0  0
  6  5  2  0  0  0  0
  7  6  1  0  0  0  0
  7  2  2  0  0  0  0
  9 11  1  0  0  0  0
  9 10  2  0  0  0  0
 11 12  2  0  0  0  0
 13 11  1  0  0  0  0
 14 13  1  0  0  0  0
 14 29  1  0  0  0  0
 15 14  1  0  0  0  0
 16 15  1  0  0  0  0
 16 31  1  0  0  0  0
 17 33  1  0  0  0  0
 17 16  1  0  0  0  0
 18 19  1  0  0  0  0
 18 17  1  0  0  0  0
 19 35  1  0  0  0  0
 19 20  1  0  0  0  0
 20 38  1  0  0  0  0
 20 37  1  0  0  0  0
 20 15  1  0  0  0  0
 21 18  1  0  0  0  0
 22 21  1  0  0  0  0
 23 22  2  0  0  0  0
 24 25  2  0  0  0  0
 24 23  1  0  0  0  0
 25 26  1  0  0  0  0
 26 41  1  0  0  0  0
 26 21  2  0  0  0  0
 27  6  1  0  0  0  0
 28  7  1  0  0  0  0
 30 14  1  0  0  0  0
 32 16  1  0  0  0  0
 34 17  1  0  0  0  0
 36 19  1  0  0  0  0
 39 23  1  0  0  0  0
 40 24  1  0  0  0  0
M  END
>  <Pose>
1

>  <Score>
-5.91

$$$$
