
 OpenBabel03212208273D

 36 39  0  0  1  0  0  0  0  0999 V2000
   89.4950   99.8010  -46.7420 Cl  0  0  0  0  0  0  0  0  0  0  0  0
   90.1280   98.6810  -45.5560 C   0  0  0  0  0  0  0  0  0  0  0  0
   90.3210   97.3410  -45.8240 C   0  0  0  0  0  0  0  0  0  0  0  0
   90.8180   96.4470  -44.8980 C   0  0  2  0  0  0  0  0  0  0  0  0
   91.1340   96.9340  -43.6450 C   0  0  0  0  0  0  0  0  0  0  0  0
   90.9470   98.2720  -43.3650 C   0  0  0  0  0  0  0  0  0  0  0  0
   90.4490   99.1660  -44.2910 C   0  0  0  0  0  0  0  0  0  0  0  0
   91.6700   95.9940  -42.6360 C   0  0  0  0  0  0  0  0  0  0  0  0
   92.0320   96.1790  -41.4370 N   0  0  0  0  0  0  0  0  0  0  0  0
   92.5040   94.9770  -40.7830 C   0  0  0  0  0  0  0  0  0  0  0  0
   92.3830   93.9060  -41.8170 C   0  0  0  0  0  0  0  0  0  0  0  0
   91.8500   94.6230  -42.9600 N   0  0  0  0  0  0  0  0  0  0  0  0
   91.4990   94.2010  -44.2780 C   0  0  0  0  0  0  0  0  0  0  0  0
   91.5610   92.9880  -44.8570 N   0  0  0  0  0  0  0  0  0  0  0  0
   91.1330   93.0390  -46.1060 N   0  0  0  0  0  0  0  0  0  0  0  0
   90.7920   94.3350  -46.3090 C   0  0  0  0  0  0  0  0  0  0  0  0
   90.3390   94.7610  -47.3940 O   0  0  0  0  0  0  0  0  0  0  0  0
   91.0080   95.0660  -45.2030 N   0  0  0  0  0  0  0  0  0  0  0  0
   91.0470   91.9420  -47.0520 C   0  0  0  0  0  0  0  0  0  0  0  0
   92.1920   90.9550  -46.7850 C   0  0  0  0  0  0  0  0  0  0  0  0
   92.3460   90.0300  -47.9360 C   0  0  0  0  0  0  0  0  0  0  0  0
   91.4530   89.2430  -48.3380 O   0  0  0  0  0  0  0  0  0  0  0  0
   93.5840   90.0330  -48.6280 N   0  0  0  0  0  0  0  0  0  0  0  0
   90.0630   96.9950  -46.8150 H   0  0  0  0  0  0  0  0  0  0  0  0
   91.2040   98.6220  -42.3760 H   0  0  0  0  0  0  0  0  0  0  0  0
   90.3000  100.2190  -44.0730 H   0  0  0  0  0  0  0  0  0  0  0  0
   91.9150   94.7470  -39.8720 H   0  0  0  0  0  0  0  0  0  0  0  0
   93.5720   95.1710  -40.5110 H   0  0  0  0  0  0  0  0  0  0  0  0
   91.7440   93.0580  -41.5050 H   0  0  0  0  0  0  0  0  0  0  0  0
   93.4080   93.5060  -42.0660 H   0  0  0  0  0  0  0  0  0  0  0  0
   90.1160   91.3670  -46.8440 H   0  0  0  0  0  0  0  0  0  0  0  0
   91.0900   92.2810  -48.0870 H   0  0  0  0  0  0  0  0  0  0  0  0
   91.9980   90.3750  -45.8640 H   0  0  0  0  0  0  0  0  0  0  0  0
   93.1630   91.4970  -46.6740 H   0  0  0  0  0  0  0  0  0  0  0  0
   93.9950   89.1920  -49.0720 H   0  0  0  0  0  0  0  0  0  0  0  0
   94.1040   90.9330  -48.6880 H   0  0  0  0  0  0  0  0  0  0  0  0
  1  2  1  0  0  0  0
  2  7  1  0  0  0  0
  3  2  2  0  0  0  0
  4  3  1  6  0  0  0
  4  5  1  0  0  0  0
  5  6  1  0  0  0  0
  5  8  2  0  0  0  0
  6 25  1  0  0  0  0
  7 26  1  0  0  0  0
  7  6  2  0  0  0  0
  8  9  1  0  0  0  0
  9 10  1  0  0  0  0
 10 28  1  0  0  0  0
 10 27  1  0  0  0  0
 11 29  1  0  0  0  0
 11 10  1  0  0  0  0
 12  8  1  0  0  0  0
 12 11  1  0  0  0  0
 13 12  1  0  0  0  0
 14 13  2  0  0  0  0
 15 14  1  0  0  0  0
 16 15  1  0  0  0  0
 16 18  1  0  0  0  0
 17 16  2  0  0  0  0
 18  4  1  0  0  0  0
 18 13  1  0  0  0  0
 19 31  1  0  0  0  0
 19 20  1  0  0  0  0
 19 15  1  0  0  0  0
 20 34  1  0  0  0  0
 20 33  1  0  0  0  0
 21 20  1  0  0  0  0
 22 21  2  0  0  0  0
 23 21  1  0  0  0  0
 24  3  1  0  0  0  0
 30 11  1  0  0  0  0
 32 19  1  0  0  0  0
 35 23  1  0  0  0  0
 36 23  1  0  0  0  0
M  END
>  <Pose>
1

>  <Score>
-5.75

$$$$
