
 OpenBabel03212208273D

 46 49  0  0  1  0  0  0  0  0999 V2000
   93.5250  103.5670  -46.3830 Cl  0  0  0  0  0  0  0  0  0  0  0  0
   93.1340  101.8670  -46.1920 C   0  0  0  0  0  0  0  0  0  0  0  0
   93.0720  101.2890  -44.9400 C   0  0  0  0  0  0  0  0  0  0  0  0
   92.7610   99.9310  -44.7870 C   0  0  0  0  0  0  0  0  0  0  0  0
   92.5250   99.2190  -45.9350 C   0  0  0  0  0  0  0  0  0  0  0  0
   92.5900   99.8100  -47.2040 C   0  0  0  0  0  0  0  0  0  0  0  0
   92.8960  101.1460  -47.3440 C   0  0  0  0  0  0  0  0  0  0  0  0
   92.2130   97.8690  -45.8090 O   0  0  0  0  0  0  0  0  0  0  0  0
   92.1320   97.2180  -44.5900 C   0  0  0  0  0  0  0  0  0  0  0  0
   92.3710   97.9390  -43.4310 C   0  0  0  0  0  0  0  0  0  0  0  0
   92.7110   99.3660  -43.4240 C   0  0  2  0  0  0  0  0  0  0  0  0
   91.6860  100.1150  -42.6260 C   0  0  0  0  0  0  0  0  0  0  0  0
   90.3460  100.0230  -42.9330 C   0  0  0  0  0  0  0  0  0  0  0  0
   89.4260  100.7100  -42.2030 N   0  0  0  0  0  0  0  0  0  0  0  0
   89.8150  101.4920  -41.1650 C   0  0  0  0  0  0  0  0  0  0  0  0
   88.9330  102.1150  -40.5100 O   0  0  0  0  0  0  0  0  0  0  0  0
   91.1140  101.6020  -40.8430 N   0  0  0  0  0  0  0  0  0  0  0  0
   92.0290  100.9250  -41.5620 C   0  0  0  0  0  0  0  0  0  0  0  0
   93.2240  101.0360  -41.2510 O   0  0  0  0  0  0  0  0  0  0  0  0
   91.4980  102.4530  -39.7210 C   0  0  0  0  0  0  0  0  0  0  0  0
   88.0220  100.5690  -42.5770 C   0  0  0  0  0  0  0  0  0  0  0  0
   89.9490   99.2360  -43.9780 O   0  0  0  0  0  0  0  0  0  0  0  0
   92.2770   97.2470  -42.2400 C   0  0  0  0  0  0  0  0  0  0  0  0
   92.4860   97.8560  -41.1430 O   0  0  0  0  0  0  0  0  0  0  0  0
   91.9740   95.9430  -42.1430 N   0  0  0  0  0  0  0  0  0  0  0  0
   91.7480   95.2790  -43.3030 C   0  0  0  0  0  0  0  0  0  0  0  0
   91.4660   94.0550  -43.1900 O   0  0  0  0  0  0  0  0  0  0  0  0
   91.8290   95.9130  -44.4870 N   0  0  0  0  0  0  0  0  0  0  0  0
   91.5740   95.1330  -45.6820 C   0  0  0  0  0  0  0  0  0  0  0  0
   91.8850   95.2570  -40.8540 C   0  0  0  0  0  0  0  0  0  0  0  0
   93.2620  101.8730  -44.0400 H   0  0  0  0  0  0  0  0  0  0  0  0
   92.3890   99.1830  -48.0690 H   0  0  0  0  0  0  0  0  0  0  0  0
   92.9410  101.5830  -48.3320 H   0  0  0  0  0  0  0  0  0  0  0  0
   93.6760   99.4890  -42.8840 H   0  0  0  0  0  0  0  0  0  0  0  0
   92.5490  102.7370  -39.7430 H   0  0  0  0  0  0  0  0  0  0  0  0
   91.2830  101.8440  -38.8010 H   0  0  0  0  0  0  0  0  0  0  0  0
   90.7950  103.3140  -39.6810 H   0  0  0  0  0  0  0  0  0  0  0  0
   87.9790  100.3750  -43.6720 H   0  0  0  0  0  0  0  0  0  0  0  0
   87.6100   99.6600  -42.0480 H   0  0  0  0  0  0  0  0  0  0  0  0
   87.4490  101.4670  -42.2890 H   0  0  0  0  0  0  0  0  0  0  0  0
   90.4680   95.0830  -45.8390 H   0  0  0  0  0  0  0  0  0  0  0  0
   92.0300   95.5830  -46.5780 H   0  0  0  0  0  0  0  0  0  0  0  0
   91.9890   94.1030  -45.5780 H   0  0  0  0  0  0  0  0  0  0  0  0
   90.7790   95.1710  -40.6560 H   0  0  0  0  0  0  0  0  0  0  0  0
   92.3870   94.2920  -40.8520 H   0  0  0  0  0  0  0  0  0  0  0  0
   92.2800   95.9130  -40.0750 H   0  0  0  0  0  0  0  0  0  0  0  0
  1  2  1  0  0  0  0
  2  3  1  0  0  0  0
  3  4  2  0  0  0  0
  3 31  1  0  0  0  0
  4 11  1  0  0  0  0
  5  8  1  0  0  0  0
  5  4  1  0  0  0  0
  6  5  2  0  0  0  0
  7  6  1  0  0  0  0
  7  2  2  0  0  0  0
  8  9  1  0  0  0  0
  9 28  1  0  0  0  0
  9 10  2  0  0  0  0
 10 11  1  0  0  0  0
 10 23  1  0  0  0  0
 11 34  1  1  0  0  0
 11 12  1  0  0  0  0
 12 18  1  0  0  0  0
 13 12  1  0  0  0  0
 13 14  1  0  0  0  0
 14 15  1  0  0  0  0
 15 17  1  0  0  0  0
 15 16  2  0  0  0  0
 17 20  1  0  0  0  0
 18 19  2  0  0  0  0
 18 17  1  0  0  0  0
 20 37  1  0  0  0  0
 20 36  1  0  0  0  0
 21 40  1  0  0  0  0
 21 14  1  0  0  0  0
 21 39  1  0  0  0  0
 22 13  2  0  0  0  0
 23 25  1  0  0  0  0
 23 24  2  0  0  0  0
 25 30  1  0  0  0  0
 26 27  2  0  0  0  0
 26 25  1  0  0  0  0
 28 26  1  0  0  0  0
 29 43  1  0  0  0  0
 29 28  1  0  0  0  0
 30 45  1  0  0  0  0
 30 44  1  0  0  0  0
 30 46  1  0  0  0  0
 32  6  1  0  0  0  0
 33  7  1  0  0  0  0
 35 20  1  0  0  0  0
 38 21  1  0  0  0  0
 41 29  1  0  0  0  0
 42 29  1  0  0  0  0
M  END
>  <Pose>
1

>  <Score>
-4.07

$$$$
