
 OpenBabel03212208273D

 41 44  0  0  0  0  0  0  0  0999 V2000
   86.8330  100.2070  -43.6470 B   0  0  0  0  0  0  0  0  0  0  0  0
   88.5340   99.7250  -44.3920 C   0  0  0  0  0  0  0  0  0  0  0  0
   88.8600   98.4120  -44.5900 C   0  0  0  0  0  0  0  0  0  0  0  0
   90.0980   98.0750  -45.1320 C   0  0  0  0  0  0  0  0  0  0  0  0
   90.9460   99.1160  -45.4450 C   0  0  0  0  0  0  0  0  0  0  0  0
   90.6110  100.4230  -45.2430 C   0  0  0  0  0  0  0  0  0  0  0  0
   89.3830  100.7720  -44.7050 C   0  0  0  0  0  0  0  0  0  0  0  0
   92.1940   98.7470  -45.9920 O   0  0  0  0  0  0  0  0  0  0  0  0
   93.3820   98.8580  -45.2300 C   0  0  0  0  0  0  0  0  0  0  0  0
   90.4920   96.6770  -45.2740 C   0  0  0  0  0  0  0  0  0  0  0  0
   91.0790   95.8100  -44.4540 N   0  0  0  0  0  0  0  0  0  0  0  0
   91.2370   94.6080  -45.0830 C   0  0  0  0  0  0  0  0  0  0  0  0
   90.7220   94.7880  -46.3220 N   0  0  0  0  0  0  0  0  0  0  0  0
   90.2770   96.0080  -46.4500 N   0  0  0  0  0  0  0  0  0  0  0  0
   91.8310   93.7230  -44.2690 N   0  0  0  0  0  0  0  0  0  0  0  0
   92.0780   94.3080  -43.1030 C   0  0  0  0  0  0  0  0  0  0  0  0
   91.6060   95.6260  -43.2170 C   0  0  0  0  0  0  0  0  0  0  0  0
   91.7350   96.4660  -42.1820 N   0  0  0  0  0  0  0  0  0  0  0  0
   92.3230   95.9970  -41.0480 C   0  0  0  0  0  0  0  0  0  0  0  0
   92.4310   96.8140  -40.0820 O   0  0  0  0  0  0  0  0  0  0  0  0
   92.7840   94.7590  -40.8880 N   0  0  0  0  0  0  0  0  0  0  0  0
   92.6590   93.9200  -41.9180 C   0  0  0  0  0  0  0  0  0  0  0  0
   93.0780   92.7380  -41.8210 O   0  0  0  0  0  0  0  0  0  0  0  0
   93.4080   94.3290  -39.6250 C   0  0  0  0  0  0  0  0  0  0  0  0
   91.3100   97.8340  -42.2430 C   0  0  0  0  0  0  0  0  0  0  0  0
   92.1600   92.3480  -44.5840 C   0  0  0  0  0  0  0  0  0  0  0  0
   88.1790   97.6110  -44.3360 H   0  0  0  0  0  0  0  0  0  0  0  0
   91.3280  101.2080  -45.5120 H   0  0  0  0  0  0  0  0  0  0  0  0
   89.1170  101.8070  -44.5460 H   0  0  0  0  0  0  0  0  0  0  0  0
   94.2290   98.7460  -45.9480 H   0  0  0  0  0  0  0  0  0  0  0  0
   93.4720   99.8360  -44.7320 H   0  0  0  0  0  0  0  0  0  0  0  0
   93.4870   98.0830  -44.4670 H   0  0  0  0  0  0  0  0  0  0  0  0
   94.4270   94.7050  -39.5200 H   0  0  0  0  0  0  0  0  0  0  0  0
   92.7600   94.7460  -38.8050 H   0  0  0  0  0  0  0  0  0  0  0  0
   93.3030   93.2400  -39.5640 H   0  0  0  0  0  0  0  0  0  0  0  0
   91.7480   98.3420  -41.3040 H   0  0  0  0  0  0  0  0  0  0  0  0
   90.2450   97.9830  -42.1190 H   0  0  0  0  0  0  0  0  0  0  0  0
   91.8210   98.3540  -43.0430 H   0  0  0  0  0  0  0  0  0  0  0  0
   93.1490   92.0870  -44.1330 H   0  0  0  0  0  0  0  0  0  0  0  0
   91.3800   91.7010  -44.1330 H   0  0  0  0  0  0  0  0  0  0  0  0
   92.2790   92.1840  -45.6760 H   0  0  0  0  0  0  0  0  0  0  0  0
  2  1  1  0  0  0  0
  3  2  1  0  0  0  0
  3 27  1  0  0  0  0
  4  3  2  0  0  0  0
  5  6  2  0  0  0  0
  5  4  1  0  0  0  0
  6  7  1  0  0  0  0
  7 29  1  0  0  0  0
  7  2  2  0  0  0  0
  8  5  1  0  0  0  0
  8  9  1  0  0  0  0
  9 31  1  0  0  0  0
  9 32  1  0  0  0  0
 10  4  1  0  0  0  0
 10 11  1  0  0  0  0
 11 17  1  0  0  0  0
 12 11  1  0  0  0  0
 12 15  1  0  0  0  0
 13 12  2  0  0  0  0
 14 13  1  0  0  0  0
 14 10  2  0  0  0  0
 15 16  1  0  0  0  0
 16 22  1  0  0  0  0
 17 16  2  0  0  0  0
 17 18  1  0  0  0  0
 18 19  1  0  0  0  0
 19 21  1  0  0  0  0
 19 20  2  0  0  0  0
 21 24  1  0  0  0  0
 22 23  2  0  0  0  0
 22 21  1  0  0  0  0
 24 35  1  0  0  0  0
 24 33  1  0  0  0  0
 24 34  1  0  0  0  0
 25 18  1  0  0  0  0
 25 37  1  0  0  0  0
 25 36  1  0  0  0  0
 26 15  1  0  0  0  0
 26 40  1  0  0  0  0
 26 39  1  0  0  0  0
 28  6  1  0  0  0  0
 30  9  1  0  0  0  0
 38 25  1  0  0  0  0
 41 26  1  0  0  0  0
M  END
>  <Pose>
1

>  <Score>
-5.12

$$$$
