
 OpenBabel03212208273D

 35 37  0  0  1  0  0  0  0  0999 V2000
   85.9790   97.5690  -44.4280 B   0  0  0  0  0  0  0  0  0  0  0  0
   87.5350   98.5220  -44.9680 C   0  0  0  0  0  0  0  0  0  0  0  0
   88.7870   98.1520  -44.4730 C   0  0  0  0  0  0  0  0  0  0  0  0
   89.9500   98.8310  -44.8610 C   0  0  0  0  0  0  0  0  0  0  0  0
   89.7710   99.8760  -45.7500 C   0  0  0  0  0  0  0  0  0  0  0  0
   88.5210  100.2260  -46.2290 C   0  0  0  0  0  0  0  0  0  0  0  0
   87.3960   99.5540  -45.8400 C   0  0  0  0  0  0  0  0  0  0  0  0
   90.9130  100.5340  -46.1100 O   0  0  0  0  0  0  0  0  0  0  0  0
   91.6530  100.0970  -47.2180 C   0  0  0  0  0  0  0  0  0  0  0  0
   91.2160   98.3050  -44.3630 C   0  0  2  0  0  0  0  0  0  0  0  0
   90.8780   97.9370  -42.8910 C   0  0  2  0  0  0  0  0  0  0  0  0
   90.1990   99.2640  -42.5000 C   0  0  0  0  0  0  0  0  0  0  0  0
   89.1260   99.3340  -41.9300 O   0  0  0  0  0  0  0  0  0  0  0  0
   91.0130  100.3890  -42.9030 N   0  0  0  0  0  0  0  0  0  0  0  0
   92.4270  100.0480  -43.1490 C   0  0  1  0  0  0  0  0  0  0  0  0
   92.7790   99.2220  -41.9860 N   0  0  0  0  0  0  0  0  0  0  0  0
   92.0840   97.9590  -42.0070 C   0  0  0  0  0  0  0  0  0  0  0  0
   92.4410   96.9640  -41.3510 O   0  0  0  0  0  0  0  0  0  0  0  0
   92.4320   99.0650  -44.3510 C   0  0  0  0  0  0  0  0  0  0  0  0
   93.3270  101.1830  -43.3650 C   0  0  0  0  0  0  0  0  0  0  0  0
   88.7770   97.3180  -43.7950 H   0  0  0  0  0  0  0  0  0  0  0  0
   88.4900  101.0490  -46.9160 H   0  0  0  0  0  0  0  0  0  0  0  0
   86.4390   99.9030  -46.2660 H   0  0  0  0  0  0  0  0  0  0  0  0
   91.8130   99.0090  -47.1840 H   0  0  0  0  0  0  0  0  0  0  0  0
   90.9600  100.2830  -48.1060 H   0  0  0  0  0  0  0  0  0  0  0  0
   92.5690  100.6760  -47.3940 H   0  0  0  0  0  0  0  0  0  0  0  0
   91.3480   97.2970  -44.8360 H   0  0  0  0  0  0  0  0  0  0  0  0
   90.2680   97.0890  -42.7500 H   0  0  0  0  0  0  0  0  0  0  0  0
   90.6530  101.3380  -43.0300 H   0  0  0  0  0  0  0  0  0  0  0  0
   93.4360   99.5240  -41.2570 H   0  0  0  0  0  0  0  0  0  0  0  0
   93.2750   98.3460  -44.0910 H   0  0  0  0  0  0  0  0  0  0  0  0
   92.8080   99.5130  -45.2660 H   0  0  0  0  0  0  0  0  0  0  0  0
   94.3130  100.9270  -42.8450 H   0  0  0  0  0  0  0  0  0  0  0  0
   93.5690  101.4060  -44.4190 H   0  0  0  0  0  0  0  0  0  0  0  0
   92.9590  102.0960  -42.9050 H   0  0  0  0  0  0  0  0  0  0  0  0
  2  3  1  0  0  0  0
  2  1  1  0  0  0  0
  3 21  1  0  0  0  0
  4  3  2  0  0  0  0
  4 10  1  0  0  0  0
  5  4  1  0  0  0  0
  6  7  1  0  0  0  0
  6  5  2  0  0  0  0
  7  2  2  0  0  0  0
  8  5  1  0  0  0  0
  9 24  1  0  0  0  0
  9  8  1  0  0  0  0
 10 27  1  6  0  0  0
 10 19  1  0  0  0  0
 10 11  1  0  0  0  0
 11 28  1  1  0  0  0
 11 12  1  0  0  0  0
 11 17  1  0  0  0  0
 12 13  2  0  0  0  0
 14 12  1  0  0  0  0
 15 20  1  6  0  0  0
 15 14  1  0  0  0  0
 15 16  1  0  0  0  0
 16 30  1  0  0  0  0
 17 16  1  0  0  0  0
 17 18  2  0  0  0  0
 19 31  1  0  0  0  0
 19 15  1  0  0  0  0
 20 35  1  0  0  0  0
 20 33  1  0  0  0  0
 22  6  1  0  0  0  0
 23  7  1  0  0  0  0
 25  9  1  0  0  0  0
 26  9  1  0  0  0  0
 29 14  1  0  0  0  0
 32 19  1  0  0  0  0
 34 20  1  0  0  0  0
M  END
>  <Pose>
1

>  <Score>
-3.84

$$$$
