
 OpenBabel03212208273D

 48 51  0  0  0  0  0  0  0  0999 V2000
   92.2710  102.3170  -47.8500 B   0  0  0  0  0  0  0  0  0  0  0  0
   90.8170  101.0930  -47.7220 C   0  0  0  0  0  0  0  0  0  0  0  0
   90.9100   99.8150  -47.2520 C   0  0  0  0  0  0  0  0  0  0  0  0
   89.8420   98.9480  -47.1680 C   0  0  0  0  0  0  0  0  0  0  0  0
   88.6010   99.4310  -47.5960 C   0  0  0  0  0  0  0  0  0  0  0  0
   88.4490  100.7020  -48.0770 C   0  0  0  0  0  0  0  0  0  0  0  0
   89.5630  101.5310  -48.1380 C   0  0  0  0  0  0  0  0  0  0  0  0
   87.5130   98.5830  -47.5180 O   0  0  0  0  0  0  0  0  0  0  0  0
   87.0130   98.1830  -46.2690 C   0  0  0  0  0  0  0  0  0  0  0  0
   89.9610   97.5960  -46.6490 C   0  0  0  0  0  0  0  0  0  0  0  0
   90.4520   97.2520  -45.4910 C   0  0  0  0  0  0  0  0  0  0  0  0
   90.9460   98.1440  -44.5520 O   0  0  0  0  0  0  0  0  0  0  0  0
   91.4030   97.4970  -43.4180 C   0  0  0  0  0  0  0  0  0  0  0  0
   91.2410   96.1360  -43.5400 C   0  0  0  0  0  0  0  0  0  0  0  0
   91.6330   95.2980  -42.5180 C   0  0  0  0  0  0  0  0  0  0  0  0
   92.1910   95.8350  -41.3770 C   0  0  0  0  0  0  0  0  0  0  0  0
   92.3470   97.2320  -41.2780 C   0  0  0  0  0  0  0  0  0  0  0  0
   91.9650   98.0790  -42.2730 C   0  0  0  0  0  0  0  0  0  0  0  0
   92.0830   99.5100  -42.2190 C   0  0  0  0  0  0  0  0  0  0  0  0
   91.7390  100.2620  -41.0820 N   0  0  0  0  0  4  0  0  0  0  0  0
   92.8410  100.7600  -40.3040 C   0  0  0  0  0  0  0  0  0  0  0  0
   93.4480  102.0320  -40.8400 C   0  0  0  0  0  0  0  0  0  0  0  0
   92.9170  102.4320  -42.0580 O   0  0  0  0  0  0  0  0  0  0  0  0
   91.5530  102.6100  -41.8500 C   0  0  0  0  0  0  0  0  0  0  0  0
   90.8340  101.3810  -41.4010 C   0  0  0  0  0  0  0  0  0  0  0  0
   92.9280   97.6330  -40.0650 O   0  0  0  0  0  0  0  0  0  0  0  0
   90.6310   95.9410  -44.8590 C   0  0  0  0  0  0  0  0  0  0  0  0
   90.3120   94.8470  -45.3740 O   0  0  0  0  0  0  0  0  0  0  0  0
   91.8970   99.4750  -46.9250 H   0  0  0  0  0  0  0  0  0  0  0  0
   87.5020  101.1260  -48.4270 H   0  0  0  0  0  0  0  0  0  0  0  0
   89.4540  102.5550  -48.5220 H   0  0  0  0  0  0  0  0  0  0  0  0
   86.4450   97.2080  -46.3800 H   0  0  0  0  0  0  0  0  0  0  0  0
   86.2630   98.9350  -45.9150 H   0  0  0  0  0  0  0  0  0  0  0  0
   87.8020   97.9660  -45.5200 H   0  0  0  0  0  0  0  0  0  0  0  0
   89.6070   96.7710  -47.2880 H   0  0  0  0  0  0  0  0  0  0  0  0
   91.4980   94.2220  -42.6230 H   0  0  0  0  0  0  0  0  0  0  0  0
   92.5160   95.2310  -40.5450 H   0  0  0  0  0  0  0  0  0  0  0  0
   93.1360   99.8620  -42.5080 H   0  0  0  0  0  0  0  0  0  0  0  0
   91.4890   99.9980  -43.0840 H   0  0  0  0  0  0  0  0  0  0  0  0
   91.1530   99.6780  -40.4520 H   0  0  0  0  0  0  0  0  0  0  0  0
   92.4010  101.0270  -39.2960 H   0  0  0  0  0  0  0  0  0  0  0  0
   93.5870   99.9890  -40.1140 H   0  0  0  0  0  0  0  0  0  0  0  0
   93.3080  102.9060  -40.1400 H   0  0  0  0  0  0  0  0  0  0  0  0
   94.5480  101.9140  -40.9170 H   0  0  0  0  0  0  0  0  0  0  0  0
   91.1200  102.8800  -42.8590 H   0  0  0  0  0  0  0  0  0  0  0  0
   91.3850  103.4990  -41.1760 H   0  0  0  0  0  0  0  0  0  0  0  0
   90.0750  101.0250  -42.1280 H   0  0  0  0  0  0  0  0  0  0  0  0
   90.2620  101.6420  -40.4860 H   0  0  0  0  0  0  0  0  0  0  0  0
  1  2  1  0  0  0  0
  2  3  1  0  0  0  0
  3  4  2  0  0  0  0
  3 29  1  0  0  0  0
  4 10  1  0  0  0  0
  5  8  1  0  0  0  0
  5  4  1  0  0  0  0
  6  5  2  0  0  0  0
  7  6  1  0  0  0  0
  7  2  2  0  0  0  0
  8  9  1  0  0  0  0
  9 33  1  0  0  0  0
  9 34  1  0  0  0  0
 10 11  2  0  0  0  0
 11 27  1  0  0  0  0
 11 12  1  0  0  0  0
 12 13  1  0  0  0  0
 13 18  1  0  0  0  0
 14 13  2  0  0  0  0
 14 15  1  0  0  0  0
 15 16  2  0  0  0  0
 16 17  1  0  0  0  0
 16 37  1  0  0  0  0
 17 26  1  0  0  0  0
 18 19  1  0  0  0  0
 18 17  2  0  0  0  0
 19 20  1  0  0  0  0
 20 40  1  0  0  0  0
 20 21  1  0  0  0  0
 21 42  1  0  0  0  0
 21 41  1  0  0  0  0
 22 21  1  0  0  0  0
 22 43  1  0  0  0  0
 23 24  1  0  0  0  0
 23 22  1  0  0  0  0
 24 25  1  0  0  0  0
 24 46  1  0  0  0  0
 25 20  1  0  0  0  0
 25 48  1  0  0  0  0
 27 14  1  0  0  0  0
 28 27  2  0  0  0  0
 30  6  1  0  0  0  0
 31  7  1  0  0  0  0
 32  9  1  0  0  0  0
 35 10  1  0  0  0  0
 36 15  1  0  0  0  0
 38 19  1  0  0  0  0
 39 19  1  0  0  0  0
 44 22  1  0  0  0  0
 45 24  1  0  0  0  0
 47 25  1  0  0  0  0
M  END
>  <Pose>
1

>  <Score>
-4.68

$$$$
