
 OpenBabel03212208273D

 49 52  0  0  1  0  0  0  0  0999 V2000
   91.9380   95.8330  -41.1430 S   0  0  0  0  0  0  0  0  0  0  0  0
   91.0680   95.8480  -39.9070 O   0  0  0  0  0  0  0  0  0  0  0  0
   93.3460   95.6600  -40.6850 O   0  0  0  0  0  0  0  0  0  0  0  0
   91.4040   94.5170  -42.1120 N   0  0  0  0  0  0  0  0  0  0  0  0
   92.5230   93.6560  -42.4400 C   0  0  0  0  0  0  0  0  0  0  0  0
   92.1120   92.6290  -43.4880 C   0  0  0  0  0  0  0  0  0  0  0  0
   91.6910   93.3580  -44.6840 N   0  0  0  0  0  0  0  0  0  0  0  0
   91.5230   94.7700  -44.5050 C   0  0  0  0  0  0  0  0  0  0  0  0
   90.6950   94.9820  -43.2650 C   0  0  0  0  0  0  0  0  0  0  0  0
   91.5020   92.6590  -45.8800 C   0  0  0  0  0  0  0  0  0  0  0  0
   90.7110   93.1620  -46.7780 O   0  0  0  0  0  0  0  0  0  0  0  0
   92.0870   91.3790  -46.2920 C   0  0  0  0  0  0  0  0  0  0  0  0
   91.9800   91.0440  -48.0450 S   0  0  0  0  0  0  0  0  0  0  0  0
   91.8830   89.3110  -48.4540 C   0  0  1  0  0  0  0  0  0  0  0  0
   92.8240   88.4580  -48.0690 N   0  0  0  0  0  0  0  0  0  0  0  0
   92.7890   87.1490  -48.3330 C   0  0  0  0  0  0  0  0  0  0  0  0
   91.7230   86.6610  -49.0420 N   0  0  0  0  0  0  0  0  0  0  0  0
   90.7590   87.4950  -49.4450 C   0  0  0  0  0  0  0  0  0  0  0  0
   89.6080   87.2680  -50.1440 N   0  0  0  0  0  0  0  0  0  0  0  0
   88.9790   88.4160  -50.2890 N   0  0  0  0  0  0  0  0  0  0  0  0
   89.6690   89.4010  -49.7110 C   0  0  0  0  0  0  0  0  0  0  0  0
   90.7990   88.8490  -49.1690 C   0  0  0  0  0  0  0  0  0  0  0  0
   89.1620   85.9930  -50.6250 C   0  0  0  0  0  0  0  0  0  0  0  0
   91.7460   97.3290  -42.0290 C   0  0  0  0  0  0  0  0  0  0  0  0
   91.0110   97.4550  -43.1860 C   0  0  0  0  0  0  0  0  0  0  0  0
   90.9050   98.6580  -43.8420 C   0  0  0  0  0  0  0  0  0  0  0  0
   91.5490   99.7880  -43.3380 C   0  0  0  0  0  0  0  0  0  0  0  0
   92.3000   99.6740  -42.1630 C   0  0  0  0  0  0  0  0  0  0  0  0
   92.3900   98.4580  -41.5230 C   0  0  0  0  0  0  0  0  0  0  0  0
   91.4050  101.3070  -44.1810 Cl  0  0  0  0  0  0  0  0  0  0  0  0
   92.8020   93.1000  -41.5360 H   0  0  0  0  0  0  0  0  0  0  0  0
   93.3920   94.2130  -42.7980 H   0  0  0  0  0  0  0  0  0  0  0  0
   93.0160   92.0270  -43.7150 H   0  0  0  0  0  0  0  0  0  0  0  0
   91.2970   92.0370  -43.0620 H   0  0  0  0  0  0  0  0  0  0  0  0
   91.1160   95.2960  -45.3880 H   0  0  0  0  0  0  0  0  0  0  0  0
   92.5470   95.2140  -44.3710 H   0  0  0  0  0  0  0  0  0  0  0  0
   90.3080   96.0070  -43.1900 H   0  0  0  0  0  0  0  0  0  0  0  0
   89.7750   94.3370  -43.4150 H   0  0  0  0  0  0  0  0  0  0  0  0
   91.5360   90.5720  -45.7680 H   0  0  0  0  0  0  0  0  0  0  0  0
   93.1500   91.2430  -45.9970 H   0  0  0  0  0  0  0  0  0  0  0  0
   93.5740   86.4940  -47.9990 H   0  0  0  0  0  0  0  0  0  0  0  0
   89.3910   90.4310  -49.6710 H   0  0  0  0  0  0  0  0  0  0  0  0
   89.3760   85.1580  -49.9020 H   0  0  0  0  0  0  0  0  0  0  0  0
   88.0560   86.0490  -50.8230 H   0  0  0  0  0  0  0  0  0  0  0  0
   89.6900   85.7800  -51.5730 H   0  0  0  0  0  0  0  0  0  0  0  0
   90.5130   96.5850  -43.5720 H   0  0  0  0  0  0  0  0  0  0  0  0
   90.3350   98.7900  -44.7470 H   0  0  0  0  0  0  0  0  0  0  0  0
   92.7940  100.5730  -41.7960 H   0  0  0  0  0  0  0  0  0  0  0  0
   92.9610   98.3660  -40.6280 H   0  0  0  0  0  0  0  0  0  0  0  0
  1  3  2  0  0  0  0
  1  2  2  0  0  0  0
  4  1  1  0  0  0  0
  5  4  1  0  0  0  0
  5 31  1  0  0  0  0
  6 34  1  0  0  0  0
  6  5  1  0  0  0  0
  7  8  1  0  0  0  0
  7  6  1  0  0  0  0
  8 36  1  0  0  0  0
  8  9  1  0  0  0  0
  9 37  1  0  0  0  0
  9  4  1  0  0  0  0
 10  7  1  0  0  0  0
 11 10  2  0  0  0  0
 12 40  1  0  0  0  0
 12 10  1  0  0  0  0
 12 39  1  0  0  0  0
 13 12  1  0  0  0  0
 14 15  1  0  0  0  0
 14 13  1  1  0  0  0
 16 15  2  0  0  0  0
 16 41  1  0  0  0  0
 17 16  1  0  0  0  0
 18 22  2  0  0  0  0
 18 17  1  0  0  0  0
 19 18  1  0  0  0  0
 20 19  1  0  0  0  0
 20 21  2  0  0  0  0
 21 42  1  0  0  0  0
 21 22  1  0  0  0  0
 22 14  1  0  0  0  0
 23 19  1  0  0  0  0
 23 43  1  0  0  0  0
 24 29  1  0  0  0  0
 24  1  1  0  0  0  0
 25 24  2  0  0  0  0
 26 27  2  0  0  0  0
 26 25  1  0  0  0  0
 27 28  1  0  0  0  0
 28 48  1  0  0  0  0
 28 29  2  0  0  0  0
 29 49  1  0  0  0  0
 30 27  1  0  0  0  0
 32  5  1  0  0  0  0
 33  6  1  0  0  0  0
 35  8  1  0  0  0  0
 38  9  1  0  0  0  0
 44 23  1  0  0  0  0
 45 23  1  0  0  0  0
 46 25  1  0  0  0  0
 47 26  1  0  0  0  0
M  END
>  <Pose>
1

>  <Score>
-6.55

$$$$
