
 OpenBabel03212208273D

 49 52  0  0  1  0  0  0  0  0999 V2000
   90.6410   88.7430  -49.2390 B   0  0  0  0  0  0  0  0  0  0  0  0
   90.8740   90.2400  -48.0720 C   0  0  0  0  0  0  0  0  0  0  0  0
   91.9960   90.3770  -47.2870 C   0  0  0  0  0  0  0  0  0  0  0  0
   92.1750   91.4600  -46.4350 C   0  0  0  0  0  0  0  0  0  0  0  0
   91.2150   92.4470  -46.3530 C   0  0  0  0  0  0  0  0  0  0  0  0
   90.0870   92.3070  -47.1440 C   0  0  0  0  0  0  0  0  0  0  0  0
   89.9080   91.2320  -47.9900 C   0  0  0  0  0  0  0  0  0  0  0  0
   91.3370   93.6020  -45.4880 C   0  0  0  0  0  0  0  0  0  0  0  0
   91.1920   94.8970  -45.9760 C   0  0  0  0  0  0  0  0  0  0  0  0
   91.2990   95.9570  -45.2100 O   0  0  0  0  0  0  0  0  0  0  0  0
   91.5480   95.8830  -43.9240 C   0  0  0  0  0  0  0  0  0  0  0  0
   91.7070   94.6430  -43.3500 C   0  0  0  0  0  0  0  0  0  0  0  0
   91.9670   94.6130  -42.0020 C   0  0  0  0  0  0  0  0  0  0  0  0
   92.0710   95.7410  -41.2270 C   0  0  0  0  0  0  0  0  0  0  0  0
   91.9130   97.0210  -41.7960 C   0  0  0  0  0  0  0  0  0  0  0  0
   91.6520   97.0430  -43.1460 C   0  0  0  0  0  0  0  0  0  0  0  0
   92.0250   98.1300  -40.9830 O   0  0  0  0  0  0  0  0  0  0  0  0
   92.2350   99.4160  -41.3860 C   0  0  2  0  0  0  0  0  0  0  0  0
   93.1600  100.1160  -40.5660 O   0  0  0  0  0  0  0  0  0  0  0  0
   93.6520  101.1340  -41.3540 C   0  0  1  0  0  0  0  0  0  0  0  0
   92.6310  102.1480  -41.7680 C   0  0  2  0  0  0  0  0  0  0  0  0
   91.3310  101.5140  -42.2000 C   0  0  1  0  0  0  0  0  0  0  0  0
   90.9960  100.2920  -41.3710 C   0  0  1  0  0  0  0  0  0  0  0  0
   89.9100   99.6570  -41.9620 O   0  0  0  0  0  0  0  0  0  0  0  0
   90.3190  102.4650  -42.1750 O   0  0  0  0  0  0  0  0  0  0  0  0
   93.1430  102.8160  -42.8920 O   0  0  0  0  0  0  0  0  0  0  0  0
   94.8430  101.8290  -40.7430 C   0  0  0  0  0  0  0  0  0  0  0  0
   95.8740  100.9390  -40.4510 O   0  0  0  0  0  0  0  0  0  0  0  0
   91.6010   93.5090  -44.1270 C   0  0  0  0  0  0  0  0  0  0  0  0
   91.7460   92.3730  -43.6020 O   0  0  0  0  0  0  0  0  0  0  0  0
   92.7640   89.6080  -47.3370 H   0  0  0  0  0  0  0  0  0  0  0  0
   93.0490   91.5700  -45.8210 H   0  0  0  0  0  0  0  0  0  0  0  0
   89.3260   93.0870  -47.0800 H   0  0  0  0  0  0  0  0  0  0  0  0
   89.0240   91.1220  -48.6100 H   0  0  0  0  0  0  0  0  0  0  0  0
   90.9840   94.9670  -47.0480 H   0  0  0  0  0  0  0  0  0  0  0  0
   92.0890   93.6210  -41.5610 H   0  0  0  0  0  0  0  0  0  0  0  0
   92.2770   95.7080  -40.1650 H   0  0  0  0  0  0  0  0  0  0  0  0
   91.5210   97.9870  -43.6390 H   0  0  0  0  0  0  0  0  0  0  0  0
   92.6220   99.4630  -42.4170 H   0  0  0  0  0  0  0  0  0  0  0  0
   94.0280  100.6520  -42.2990 H   0  0  0  0  0  0  0  0  0  0  0  0
   92.4550  102.9290  -40.9850 H   0  0  0  0  0  0  0  0  0  0  0  0
   91.4510  101.1620  -43.2450 H   0  0  0  0  0  0  0  0  0  0  0  0
   90.7900  100.5410  -40.3080 H   0  0  0  0  0  0  0  0  0  0  0  0
   89.6010   98.9010  -41.4090 H   0  0  0  0  0  0  0  0  0  0  0  0
   89.7510  102.3930  -41.3480 H   0  0  0  0  0  0  0  0  0  0  0  0
   94.0490  102.4850  -43.1120 H   0  0  0  0  0  0  0  0  0  0  0  0
   94.5560  102.4280  -39.8560 H   0  0  0  0  0  0  0  0  0  0  0  0
   95.2790  102.5690  -41.4670 H   0  0  0  0  0  0  0  0  0  0  0  0
   96.2470  100.6610  -41.3450 H   0  0  0  0  0  0  0  0  0  0  0  0
  1  2  1  0  0  0  0
  2  7  2  0  0  0  0
  2  3  1  0  0  0  0
  3  4  2  0  0  0  0
  4  5  1  0  0  0  0
  4 32  1  0  0  0  0
  5  8  1  0  0  0  0
  6 33  1  0  0  0  0
  6  5  2  0  0  0  0
  7  6  1  0  0  0  0
  8 29  1  0  0  0  0
  9  8  2  0  0  0  0
  9 10  1  0  0  0  0
 10 11  1  0  0  0  0
 11 12  2  0  0  0  0
 11 16  1  0  0  0  0
 12 13  1  0  0  0  0
 13 36  1  0  0  0  0
 13 14  2  0  0  0  0
 14 37  1  0  0  0  0
 15 14  1  0  0  0  0
 15 17  1  0  0  0  0
 16 15  2  0  0  0  0
 18 39  1  6  0  0  0
 18 23  1  0  0  0  0
 18 17  1  0  0  0  0
 18 19  1  0  0  0  0
 20 40  1  6  0  0  0
 20 27  1  0  0  0  0
 20 19  1  0  0  0  0
 21 20  1  0  0  0  0
 21 41  1  1  0  0  0
 22 42  1  6  0  0  0
 22 25  1  0  0  0  0
 22 21  1  0  0  0  0
 22 23  1  0  0  0  0
 23 43  1  1  0  0  0
 24 44  1  0  0  0  0
 24 23  1  0  0  0  0
 25 45  1  0  0  0  0
 26 21  1  0  0  0  0
 27 28  1  0  0  0  0
 27 47  1  0  0  0  0
 29 30  2  0  0  0  0
 29 12  1  0  0  0  0
 31  3  1  0  0  0  0
 34  7  1  0  0  0  0
 35  9  1  0  0  0  0
 38 16  1  0  0  0  0
 46 26  1  0  0  0  0
 48 27  1  0  0  0  0
 49 28  1  0  0  0  0
M  END
>  <Pose>
1

>  <Score>
-5.75

$$$$
