
 OpenBabel03212208273D

 54 57  0  0  0  0  0  0  0  0999 V2000
   93.5370  103.2710  -45.0410 B   0  0  0  0  0  0  0  0  0  0  0  0
   92.6940  101.8120  -44.1470 C   0  0  0  0  0  0  0  0  0  0  0  0
   91.8350  102.0260  -43.0920 C   0  0  0  0  0  0  0  0  0  0  0  0
   91.2280  100.9460  -42.4490 C   0  0  0  0  0  0  0  0  0  0  0  0
   91.4990   99.6810  -42.8810 C   0  0  0  0  0  0  0  0  0  0  0  0
   92.3490   99.4530  -43.9250 C   0  0  0  0  0  0  0  0  0  0  0  0
   92.9460  100.5140  -44.5590 C   0  0  0  0  0  0  0  0  0  0  0  0
   90.8460   98.5380  -42.1260 C   0  0  0  0  0  0  0  0  0  0  0  0
   91.0140   97.2890  -42.8240 N   0  0  0  0  0  0  0  0  0  0  0  0
   91.6510   96.1940  -42.2930 C   0  0  0  0  0  0  0  0  0  0  0  0
   91.6720   95.1760  -43.2240 C   0  0  0  0  0  0  0  0  0  0  0  0
   91.0480   95.6680  -44.2990 N   0  0  0  0  0  0  0  0  0  0  0  0
   90.6420   96.9560  -44.0600 C   0  0  0  0  0  0  0  0  0  0  0  0
   89.8750   97.6730  -44.9920 N   0  0  0  0  0  0  0  0  0  0  0  0
   89.0520   98.8140  -44.8120 C   0  0  0  0  0  0  0  0  0  0  0  0
   87.9120   98.8750  -45.8340 C   0  0  0  0  0  0  0  0  0  0  0  0
   87.5260   97.6430  -46.3890 N   0  0  0  0  0  0  0  0  0  0  0  0
   88.5490   96.7900  -46.8520 C   0  0  0  0  0  0  0  0  0  0  0  0
   89.9340   97.1940  -46.4010 C   0  0  0  0  0  0  0  0  0  0  0  0
   86.2630   97.1020  -46.1020 C   0  0  0  0  0  0  0  0  0  0  0  0
   85.3370   97.9230  -45.3080 C   0  0  0  0  0  0  0  0  0  0  0  0
   84.8570   99.0090  -45.7310 O   0  0  0  0  0  0  0  0  0  0  0  0
   84.9640   97.5100  -44.0470 O   0  0  0  0  0  0  0  0  0  0  0  0
   84.4680   98.3920  -43.0780 C   0  0  0  0  0  0  0  0  0  0  0  0
   92.2370   93.9870  -42.9400 N   0  0  0  0  0  0  0  0  0  0  0  0
   92.7790   93.8160  -41.7260 C   0  0  0  0  0  0  0  0  0  0  0  0
   93.3040   92.7030  -41.4730 O   0  0  0  0  0  0  0  0  0  0  0  0
   92.7770   94.7780  -40.7970 N   0  0  0  0  0  0  0  0  0  0  0  0
   92.2130   95.9970  -41.0490 C   0  0  0  0  0  0  0  0  0  0  0  0
   92.2240   96.8770  -40.1550 O   0  0  0  0  0  0  0  0  0  0  0  0
   92.2430   92.9450  -43.9510 C   0  0  0  0  0  0  0  0  0  0  0  0
   91.6050  103.0330  -42.7320 H   0  0  0  0  0  0  0  0  0  0  0  0
   90.5480  101.1710  -41.6180 H   0  0  0  0  0  0  0  0  0  0  0  0
   92.5680   98.4530  -44.2520 H   0  0  0  0  0  0  0  0  0  0  0  0
   93.6160  100.3250  -45.3830 H   0  0  0  0  0  0  0  0  0  0  0  0
   89.8200   98.8830  -42.0100 H   0  0  0  0  0  0  0  0  0  0  0  0
   91.3650   98.4890  -41.1320 H   0  0  0  0  0  0  0  0  0  0  0  0
   88.5150   98.8400  -43.8270 H   0  0  0  0  0  0  0  0  0  0  0  0
   89.6430   99.7280  -45.0110 H   0  0  0  0  0  0  0  0  0  0  0  0
   87.0070   99.3720  -45.3950 H   0  0  0  0  0  0  0  0  0  0  0  0
   88.1840   99.5500  -46.7020 H   0  0  0  0  0  0  0  0  0  0  0  0
   88.5600   96.8450  -47.9710 H   0  0  0  0  0  0  0  0  0  0  0  0
   88.3220   95.7420  -46.5990 H   0  0  0  0  0  0  0  0  0  0  0  0
   90.3300   98.0570  -46.9740 H   0  0  0  0  0  0  0  0  0  0  0  0
   90.5940   96.3230  -46.4960 H   0  0  0  0  0  0  0  0  0  0  0  0
   86.3520   96.0600  -45.7060 H   0  0  0  0  0  0  0  0  0  0  0  0
   85.7390   96.9470  -47.0970 H   0  0  0  0  0  0  0  0  0  0  0  0
   85.2610   98.6670  -42.3420 H   0  0  0  0  0  0  0  0  0  0  0  0
   83.6950   97.8130  -42.4950 H   0  0  0  0  0  0  0  0  0  0  0  0
   84.0530   99.3350  -43.4820 H   0  0  0  0  0  0  0  0  0  0  0  0
   93.2050   94.6250  -39.8480 H   0  0  0  0  0  0  0  0  0  0  0  0
   91.1830   92.7060  -44.1790 H   0  0  0  0  0  0  0  0  0  0  0  0
   92.6920   93.3170  -44.9070 H   0  0  0  0  0  0  0  0  0  0  0  0
   92.8360   92.0950  -43.5950 H   0  0  0  0  0  0  0  0  0  0  0  0
  1  2  1  0  0  0  0
  2  3  1  0  0  0  0
  3 32  1  0  0  0  0
  3  4  2  0  0  0  0
  4 33  1  0  0  0  0
  5  4  1  0  0  0  0
  5  8  1  0  0  0  0
  6  5  2  0  0  0  0
  7  2  2  0  0  0  0
  7  6  1  0  0  0  0
  8 36  1  0  0  0  0
  8 37  1  0  0  0  0
  9 10  1  0  0  0  0
  9  8  1  0  0  0  0
 10 29  1  0  0  0  0
 11 25  1  0  0  0  0
 11 10  2  0  0  0  0
 12 13  2  0  0  0  0
 12 11  1  0  0  0  0
 13  9  1  0  0  0  0
 14 15  1  0  0  0  0
 14 13  1  0  0  0  0
 15 38  1  0  0  0  0
 16 40  1  0  0  0  0
 16 15  1  0  0  0  0
 17 20  1  0  0  0  0
 17 16  1  0  0  0  0
 18 43  1  0  0  0  0
 18 19  1  0  0  0  0
 18 17  1  0  0  0  0
 19 14  1  0  0  0  0
 20 46  1  0  0  0  0
 20 21  1  0  0  0  0
 21 23  1  0  0  0  0
 22 21  2  0  0  0  0
 23 24  1  0  0  0  0
 24 49  1  0  0  0  0
 24 48  1  0  0  0  0
 25 26  1  0  0  0  0
 26 27  2  0  0  0  0
 26 28  1  0  0  0  0
 28 51  1  0  0  0  0
 29 28  1  0  0  0  0
 29 30  2  0  0  0  0
 31 54  1  0  0  0  0
 31 25  1  0  0  0  0
 34  6  1  0  0  0  0
 35  7  1  0  0  0  0
 39 15  1  0  0  0  0
 41 16  1  0  0  0  0
 42 18  1  0  0  0  0
 44 19  1  0  0  0  0
 45 19  1  0  0  0  0
 47 20  1  0  0  0  0
 50 24  1  0  0  0  0
 52 31  1  0  0  0  0
 53 31  1  0  0  0  0
M  END
>  <Pose>
1

>  <Score>
-5.73

$$$$
