
 OpenBabel03212208273D

 48 51  0  0  0  0  0  0  0  0999 V2000
   84.0010   98.5110  -44.9240 B   0  0  0  0  0  0  0  0  0  0  0  0
   85.8940   98.3280  -45.0380 C   0  0  0  0  0  0  0  0  0  0  0  0
   86.4910   97.2220  -45.6350 C   0  0  0  0  0  0  0  0  0  0  0  0
   87.8820   97.1420  -45.6780 C   0  0  0  0  0  0  0  0  0  0  0  0
   88.7040   98.0950  -45.1620 C   0  0  0  0  0  0  0  0  0  0  0  0
   88.0560   99.1950  -44.5690 C   0  0  0  0  0  0  0  0  0  0  0  0
   86.6870   99.3160  -44.5030 C   0  0  0  0  0  0  0  0  0  0  0  0
   90.1530   98.0600  -45.1340 C   0  0  0  0  0  0  0  0  0  0  0  0
   90.7900   96.9890  -44.4070 N   0  0  0  0  0  0  0  0  0  0  0  0
   91.0270   95.7470  -44.8530 C   0  0  0  0  0  0  0  0  0  0  0  0
   91.6620   95.0300  -43.8640 C   0  0  0  0  0  0  0  0  0  0  0  0
   91.7920   95.8620  -42.8410 N   0  0  0  0  0  0  0  0  0  0  0  0
   91.2700   97.0600  -43.1410 C   0  0  0  0  0  0  0  0  0  0  0  0
   91.2240   98.2150  -42.2920 N   0  0  0  0  0  0  0  0  0  0  0  0
   90.0060   98.9940  -42.2810 C   0  0  0  0  0  0  0  0  0  0  0  0
   90.3290  100.3680  -42.8490 C   0  0  0  0  0  0  0  0  0  0  0  0
   91.7070  100.7100  -42.7290 N   0  0  0  0  0  0  0  0  0  0  0  0
   92.3910  100.1670  -41.6020 C   0  0  0  0  0  0  0  0  0  0  0  0
   92.3050   98.6690  -41.4590 C   0  0  0  0  0  0  0  0  0  0  0  0
   92.4500  100.8660  -43.9210 C   0  0  0  0  0  0  0  0  0  0  0  0
   92.0320   93.7320  -43.9960 N   0  0  0  0  0  0  0  0  0  0  0  0
   91.7490   93.1370  -45.1660 C   0  0  0  0  0  0  0  0  0  0  0  0
   92.1000   91.9350  -45.2730 O   0  0  0  0  0  0  0  0  0  0  0  0
   91.1280   93.7820  -46.1700 N   0  0  0  0  0  0  0  0  0  0  0  0
   90.7570   95.0700  -46.0490 C   0  0  0  0  0  0  0  0  0  0  0  0
   90.1820   95.6920  -46.9520 O   0  0  0  0  0  0  0  0  0  0  0  0
   92.6990   93.0610  -42.9010 C   0  0  0  0  0  0  0  0  0  0  0  0
   85.8800   96.4410  -46.0650 H   0  0  0  0  0  0  0  0  0  0  0  0
   88.2700   96.2750  -46.1420 H   0  0  0  0  0  0  0  0  0  0  0  0
   88.6270  100.0050  -44.1260 H   0  0  0  0  0  0  0  0  0  0  0  0
   86.2450  100.1980  -44.0260 H   0  0  0  0  0  0  0  0  0  0  0  0
   90.5280   97.9680  -46.1990 H   0  0  0  0  0  0  0  0  0  0  0  0
   90.5200   99.0200  -44.6950 H   0  0  0  0  0  0  0  0  0  0  0  0
   89.7100   99.1240  -41.1980 H   0  0  0  0  0  0  0  0  0  0  0  0
   89.1520   98.5150  -42.7790 H   0  0  0  0  0  0  0  0  0  0  0  0
   90.0610  100.3350  -43.9240 H   0  0  0  0  0  0  0  0  0  0  0  0
   89.6950  101.1380  -42.3710 H   0  0  0  0  0  0  0  0  0  0  0  0
   91.9860  100.6550  -40.6680 H   0  0  0  0  0  0  0  0  0  0  0  0
   93.4590  100.4570  -41.6540 H   0  0  0  0  0  0  0  0  0  0  0  0
   92.0490   98.4420  -40.3840 H   0  0  0  0  0  0  0  0  0  0  0  0
   93.2830   98.2210  -41.7170 H   0  0  0  0  0  0  0  0  0  0  0  0
   91.9910  100.4390  -44.8330 H   0  0  0  0  0  0  0  0  0  0  0  0
   93.4300  100.3450  -43.7890 H   0  0  0  0  0  0  0  0  0  0  0  0
   92.7140  101.9350  -44.1430 H   0  0  0  0  0  0  0  0  0  0  0  0
   90.9100   93.3110  -47.0740 H   0  0  0  0  0  0  0  0  0  0  0  0
   92.4860   91.9660  -42.8990 H   0  0  0  0  0  0  0  0  0  0  0  0
   92.4920   93.5700  -41.9620 H   0  0  0  0  0  0  0  0  0  0  0  0
   93.7930   93.1330  -43.0950 H   0  0  0  0  0  0  0  0  0  0  0  0
  2  1  1  0  0  0  0
  2  7  1  0  0  0  0
  3  2  2  0  0  0  0
  4  3  1  0  0  0  0
  4  5  2  0  0  0  0
  5  8  1  0  0  0  0
  5  6  1  0  0  0  0
  6  7  2  0  0  0  0
  6 30  1  0  0  0  0
  7 31  1  0  0  0  0
  8 33  1  0  0  0  0
  8  9  1  0  0  0  0
  9 13  1  0  0  0  0
 10  9  1  0  0  0  0
 10 11  2  0  0  0  0
 11 12  1  0  0  0  0
 13 12  2  0  0  0  0
 13 14  1  0  0  0  0
 14 15  1  0  0  0  0
 14 19  1  0  0  0  0
 15 34  1  0  0  0  0
 16 17  1  0  0  0  0
 16 37  1  0  0  0  0
 16 15  1  0  0  0  0
 17 18  1  0  0  0  0
 18 19  1  0  0  0  0
 18 38  1  0  0  0  0
 19 40  1  0  0  0  0
 20 43  1  0  0  0  0
 20 17  1  0  0  0  0
 21 11  1  0  0  0  0
 21 27  1  0  0  0  0
 22 21  1  0  0  0  0
 23 22  2  0  0  0  0
 24 25  1  0  0  0  0
 24 22  1  0  0  0  0
 25 10  1  0  0  0  0
 26 25  2  0  0  0  0
 27 46  1  0  0  0  0
 27 47  1  0  0  0  0
 28  3  1  0  0  0  0
 29  4  1  0  0  0  0
 32  8  1  0  0  0  0
 35 15  1  0  0  0  0
 36 16  1  0  0  0  0
 39 18  1  0  0  0  0
 41 19  1  0  0  0  0
 42 20  1  0  0  0  0
 44 20  1  0  0  0  0
 45 24  1  0  0  0  0
 48 27  1  0  0  0  0
M  END
>  <Pose>
1

>  <Score>
-5.18

$$$$
