
 OpenBabel03212208273D

 38 41  0  0  1  0  0  0  0  0999 V2000
   85.9330  101.5890  -42.4340 Cl  0  0  0  0  0  0  0  0  0  0  0  0
   87.3030  101.5920  -43.5250 C   0  0  0  0  0  0  0  0  0  0  0  0
   88.6050  101.5170  -43.0290 C   0  0  0  0  0  0  0  0  0  0  0  0
   89.6980  101.5170  -43.8450 C   0  0  0  0  0  0  0  0  0  0  0  0
   89.4530  101.5950  -45.2090 C   0  0  0  0  0  0  0  0  0  0  0  0
   88.1750  101.6680  -45.7170 C   0  0  0  0  0  0  0  0  0  0  0  0
   87.0840  101.6670  -44.8770 C   0  0  0  0  0  0  0  0  0  0  0  0
   90.9170  101.4300  -43.0140 C   0  0  2  0  0  0  0  0  0  0  0  0
   91.7590  102.6680  -43.1910 C   0  0  0  0  0  0  0  0  0  0  0  0
   93.0070  102.6420  -43.5660 C   0  0  0  0  0  0  0  0  0  0  0  0
   93.6820  101.4170  -43.8430 N   0  0  0  0  0  0  0  0  0  0  0  0
   92.9650  100.2040  -43.7020 C   0  0  0  0  0  0  0  0  0  0  0  0
   91.7070  100.2190  -43.3250 C   0  0  0  0  0  0  0  0  0  0  0  0
   91.0060   98.9490  -43.1920 C   0  0  0  0  0  0  0  0  0  0  0  0
   90.4520   97.9370  -43.1040 N   0  0  0  0  0  0  0  0  0  0  0  0
   93.5740   98.9360  -43.9610 N   0  0  0  0  0  0  0  0  0  0  0  0
   93.5150  104.0270  -43.6330 C   0  0  0  0  0  0  0  0  0  0  0  0
   92.4620  104.8310  -43.2700 O   0  0  0  0  0  0  0  0  0  0  0  0
   91.3610  104.0560  -42.9870 C   0  0  0  0  0  0  0  0  0  0  0  0
   90.1990  104.4450  -42.6160 O   0  0  0  0  0  0  0  0  0  0  0  0
   94.0470  104.2900  -45.0250 C   0  0  0  0  0  0  0  0  0  0  0  0
   94.6550  104.2590  -42.6590 C   0  0  0  0  0  0  0  0  0  0  0  0
   90.4120  101.3790  -41.6230 C   0  0  0  0  0  0  0  0  0  0  0  0
   91.1190  101.2990  -40.5550 O   0  0  0  0  0  0  0  0  0  0  0  0
   89.0040  101.4350  -41.6720 N   0  0  0  0  0  0  0  0  0  0  0  0
   90.2780  101.5980  -45.9000 H   0  0  0  0  0  0  0  0  0  0  0  0
   87.9730  101.7300  -46.7870 H   0  0  0  0  0  0  0  0  0  0  0  0
   86.0690  101.7240  -45.2460 H   0  0  0  0  0  0  0  0  0  0  0  0
   94.6800  101.3890  -44.1440 H   0  0  0  0  0  0  0  0  0  0  0  0
   93.9300   98.3560  -43.1900 H   0  0  0  0  0  0  0  0  0  0  0  0
   93.6480   98.6190  -44.9350 H   0  0  0  0  0  0  0  0  0  0  0  0
   94.2980  105.3550  -45.1730 H   0  0  0  0  0  0  0  0  0  0  0  0
   93.4240  103.8540  -45.8140 H   0  0  0  0  0  0  0  0  0  0  0  0
   95.0340  103.7450  -45.0810 H   0  0  0  0  0  0  0  0  0  0  0  0
   94.3120  103.8040  -41.6870 H   0  0  0  0  0  0  0  0  0  0  0  0
   94.7530  105.3550  -42.5340 H   0  0  0  0  0  0  0  0  0  0  0  0
   95.6080  103.8560  -43.0080 H   0  0  0  0  0  0  0  0  0  0  0  0
   88.3800  101.4150  -40.8080 H   0  0  0  0  0  0  0  0  0  0  0  0
  2  3  1  0  0  0  0
  2  1  1  0  0  0  0
  3 25  1  0  0  0  0
  4  3  2  0  0  0  0
  5  4  1  0  0  0  0
  6  5  2  0  0  0  0
  6  7  1  0  0  0  0
  7  2  2  0  0  0  0
  8  4  1  6  0  0  0
  8 23  1  0  0  0  0
  9  8  1  0  0  0  0
  9 19  1  0  0  0  0
 10  9  2  0  0  0  0
 11 12  1  0  0  0  0
 11 10  1  0  0  0  0
 12 13  2  0  0  0  0
 13 14  1  0  0  0  0
 13  8  1  0  0  0  0
 14 15  3  0  0  0  0
 16 12  1  0  0  0  0
 16 30  1  0  0  0  0
 17 10  1  0  0  0  0
 17 18  1  0  0  0  0
 17 22  1  0  0  0  0
 18 19  1  0  0  0  0
 19 20  2  0  0  0  0
 21 17  1  0  0  0  0
 22 36  1  0  0  0  0
 22 35  1  0  0  0  0
 23 24  2  0  0  0  0
 25 23  1  0  0  0  0
 25 38  1  0  0  0  0
 26  5  1  0  0  0  0
 27  6  1  0  0  0  0
 28  7  1  0  0  0  0
 29 11  1  0  0  0  0
 31 16  1  0  0  0  0
 32 21  1  0  0  0  0
 33 21  1  0  0  0  0
 34 21  1  0  0  0  0
 37 22  1  0  0  0  0
M  END
>  <Pose>
1

>  <Score>
-4.14

$$$$
