
 OpenBabel03212208273D

 36 39  0  0  1  0  0  0  0  0999 V2000
   92.0770   92.7700  -42.4820 Cl  0  0  0  0  0  0  0  0  0  0  0  0
   91.9000   94.5080  -42.6440 C   0  0  0  0  0  0  0  0  0  0  0  0
   91.7210   95.0840  -43.8840 C   0  0  0  0  0  0  0  0  0  0  0  0
   91.5820   96.4570  -44.0010 C   0  0  0  0  0  0  0  0  0  0  0  0
   91.6120   97.3070  -42.9170 C   0  0  0  0  0  0  0  0  0  0  0  0
   91.7930   96.7180  -41.6740 C   0  0  0  0  0  0  0  0  0  0  0  0
   91.9320   95.3490  -41.5510 C   0  0  0  0  0  0  0  0  0  0  0  0
   91.4700   98.7250  -43.0280 N   0  0  0  0  0  0  0  0  0  0  0  0
   90.3890   99.5440  -42.5610 C   0  0  0  0  0  0  0  0  0  0  0  0
   89.3430   99.1400  -41.9950 O   0  0  0  0  0  0  0  0  0  0  0  0
   90.6780  100.9690  -42.8440 C   0  0  1  0  0  0  0  0  0  0  0  0
   90.5300  101.7770  -41.7220 O   0  0  0  0  0  0  0  0  0  0  0  0
   91.4660  101.4440  -40.8490 N   0  0  1  0  0  0  0  0  0  0  0  0
   92.5610  100.8510  -41.4820 C   0  0  1  0  0  0  0  0  0  0  0  0
   92.1970  100.9310  -42.9650 C   0  0  1  0  0  0  0  0  0  0  0  0
   92.3940   99.6250  -43.6380 C   0  0  0  0  0  0  0  0  0  0  0  0
   93.1950   99.3060  -44.5660 O   0  0  0  0  0  0  0  0  0  0  0  0
   93.9150  101.3460  -41.1980 C   0  0  0  0  0  0  0  0  0  0  0  0
   94.0670  102.4190  -40.1920 C   0  0  0  0  0  0  0  0  0  0  0  0
   93.0160  102.2340  -39.1200 C   0  0  0  0  0  0  0  0  0  0  0  0
   91.6800  102.3590  -39.8060 C   0  0  0  0  0  0  0  0  0  0  0  0
   91.6890   94.4510  -44.7810 H   0  0  0  0  0  0  0  0  0  0  0  0
   91.4420   96.9140  -44.9690 H   0  0  0  0  0  0  0  0  0  0  0  0
   91.8180   97.3820  -40.8140 H   0  0  0  0  0  0  0  0  0  0  0  0
   92.0720   94.8900  -40.5870 H   0  0  0  0  0  0  0  0  0  0  0  0
   90.1910  101.3620  -43.7310 H   0  0  0  0  0  0  0  0  0  0  0  0
   92.5350   99.7440  -41.2440 H   0  0  0  0  0  0  0  0  0  0  0  0
   92.6190  101.7820  -43.4790 H   0  0  0  0  0  0  0  0  0  0  0  0
   94.3560  101.7320  -42.1660 H   0  0  0  0  0  0  0  0  0  0  0  0
   94.6240  100.5100  -40.9180 H   0  0  0  0  0  0  0  0  0  0  0  0
   95.0570  102.3400  -39.6820 H   0  0  0  0  0  0  0  0  0  0  0  0
   93.9520  103.4500  -40.5840 H   0  0  0  0  0  0  0  0  0  0  0  0
   93.1150  103.0810  -38.4130 H   0  0  0  0  0  0  0  0  0  0  0  0
   93.1330  101.3010  -38.5640 H   0  0  0  0  0  0  0  0  0  0  0  0
   91.5630  103.4260  -40.1210 H   0  0  0  0  0  0  0  0  0  0  0  0
   90.8970  102.2030  -39.0120 H   0  0  0  0  0  0  0  0  0  0  0  0
  2  1  1  0  0  0  0
  2  7  1  0  0  0  0
  3  2  2  0  0  0  0
  4  3  1  0  0  0  0
  4  5  2  0  0  0  0
  5  6  1  0  0  0  0
  6  7  2  0  0  0  0
  6 24  1  0  0  0  0
  7 25  1  0  0  0  0
  8  5  1  0  0  0  0
  8  9  1  0  0  0  0
  9 10  2  0  0  0  0
 11 26  1  6  0  0  0
 11  9  1  0  0  0  0
 11 12  1  0  0  0  0
 13 12  1  6  0  0  0
 13 21  1  0  0  0  0
 14 27  1  1  0  0  0
 14 18  1  0  0  0  0
 14 13  1  0  0  0  0
 15 28  1  6  0  0  0
 15 11  1  0  0  0  0
 15 14  1  0  0  0  0
 16  8  1  0  0  0  0
 16 15  1  0  0  0  0
 17 16  2  0  0  0  0
 18 30  1  0  0  0  0
 18 19  1  0  0  0  0
 19 31  1  0  0  0  0
 19 20  1  0  0  0  0
 20 34  1  0  0  0  0
 20 33  1  0  0  0  0
 21 20  1  0  0  0  0
 21 36  1  0  0  0  0
 22  3  1  0  0  0  0
 23  4  1  0  0  0  0
 29 18  1  0  0  0  0
 32 19  1  0  0  0  0
 35 21  1  0  0  0  0
M  END
>  <Pose>
1

>  <Score>
-3.88

$$$$
