
 OpenBabel03212208273D

 52 55  0  0  0  0  0  0  0  0999 V2000
   83.7000   97.5020  -44.9060 B   0  0  0  0  0  0  0  0  0  0  0  0
   85.4640   98.0760  -44.4890 C   0  0  0  0  0  0  0  0  0  0  0  0
   85.6230   99.0440  -43.5100 C   0  0  0  0  0  0  0  0  0  0  0  0
   86.9130   99.4490  -43.2290 C   0  0  0  0  0  0  0  0  0  0  0  0
   87.9860   98.9130  -43.8930 C   0  0  0  0  0  0  0  0  0  0  0  0
   87.8510   97.9360  -44.8790 C   0  0  0  0  0  0  0  0  0  0  0  0
   86.5570   97.5450  -45.1460 C   0  0  0  0  0  0  0  0  0  0  0  0
   89.0280   97.3940  -45.5260 C   0  0  0  0  0  0  0  0  0  0  0  0
   89.1050   96.1590  -45.8870 N   0  0  0  0  0  0  0  0  0  0  0  0
   90.2090   95.5970  -46.5050 N   0  0  0  0  0  0  0  0  0  0  0  0
   90.7620   94.3780  -46.0250 C   0  0  0  0  0  0  0  0  0  0  0  0
   91.3220   94.3240  -44.8270 N   0  0  0  0  0  4  0  0  0  0  0  0
   91.8420   93.2100  -44.2820 C   0  0  0  0  0  0  0  0  0  0  0  0
   91.7780   92.0850  -45.0270 N   0  0  0  0  0  0  0  0  0  0  0  0
   91.2160   92.0770  -46.2660 C   0  0  0  0  0  0  0  0  0  0  0  0
   90.7120   93.2400  -46.7490 N   0  0  0  0  0  0  0  0  0  0  0  0
   91.1410   90.8930  -47.0260 N   0  0  0  0  0  0  0  0  0  0  0  0
   89.8730   90.3120  -47.3870 C   0  0  0  0  0  0  0  0  0  0  0  0
   89.9300   90.1290  -48.9100 C   0  0  0  0  0  0  0  0  0  0  0  0
   91.0710   89.4230  -49.2350 O   0  0  0  0  0  0  0  0  0  0  0  0
   92.2060   90.2030  -49.0170 C   0  0  0  0  0  0  0  0  0  0  0  0
   92.3470   90.2480  -47.4800 C   0  0  0  0  0  0  0  0  0  0  0  0
   92.4360   93.2000  -42.9740 N   0  0  0  0  0  0  0  0  0  0  0  0
   93.7470   92.6590  -42.7520 C   0  0  0  0  0  0  0  0  0  0  0  0
   94.3620   92.9250  -41.4340 C   0  0  0  0  0  0  0  0  0  0  0  0
   93.4720   93.3420  -40.4550 O   0  0  0  0  0  0  0  0  0  0  0  0
   92.6460   94.3660  -40.9000 C   0  0  0  0  0  0  0  0  0  0  0  0
   91.6830   93.7490  -41.8850 C   0  0  0  0  0  0  0  0  0  0  0  0
   89.2900   99.3280  -43.6040 O   0  0  0  0  0  0  0  0  0  0  0  0
   84.5390   99.5970  -42.8300 O   0  0  0  0  0  0  0  0  0  0  0  0
   87.0190  100.2160  -42.4550 H   0  0  0  0  0  0  0  0  0  0  0  0
   86.4340   96.7760  -45.9240 H   0  0  0  0  0  0  0  0  0  0  0  0
   89.8730   98.0360  -45.7180 H   0  0  0  0  0  0  0  0  0  0  0  0
   90.6360   96.0600  -47.3150 H   0  0  0  0  0  0  0  0  0  0  0  0
   89.7630   89.3190  -46.9050 H   0  0  0  0  0  0  0  0  0  0  0  0
   89.0210   90.9910  -47.1280 H   0  0  0  0  0  0  0  0  0  0  0  0
   89.0040   89.6160  -49.2230 H   0  0  0  0  0  0  0  0  0  0  0  0
   89.9550   91.1620  -49.3390 H   0  0  0  0  0  0  0  0  0  0  0  0
   91.9520   91.2620  -49.3190 H   0  0  0  0  0  0  0  0  0  0  0  0
   93.0940   89.8150  -49.5100 H   0  0  0  0  0  0  0  0  0  0  0  0
   92.2840   89.1690  -47.1570 H   0  0  0  0  0  0  0  0  0  0  0  0
   93.2740   90.7360  -47.1640 H   0  0  0  0  0  0  0  0  0  0  0  0
   93.6770   91.5550  -42.9550 H   0  0  0  0  0  0  0  0  0  0  0  0
   94.4180   93.1040  -43.5510 H   0  0  0  0  0  0  0  0  0  0  0  0
   95.2000   93.6630  -41.5270 H   0  0  0  0  0  0  0  0  0  0  0  0
   94.8300   91.9780  -41.0620 H   0  0  0  0  0  0  0  0  0  0  0  0
   92.1570   94.8080  -40.0280 H   0  0  0  0  0  0  0  0  0  0  0  0
   93.2060   95.1480  -41.4780 H   0  0  0  0  0  0  0  0  0  0  0  0
   91.0260   94.5960  -42.2180 H   0  0  0  0  0  0  0  0  0  0  0  0
   91.0210   92.9950  -41.4100 H   0  0  0  0  0  0  0  0  0  0  0  0
   89.5900   99.3300  -42.6330 H   0  0  0  0  0  0  0  0  0  0  0  0
   84.3980   99.5090  -41.8350 H   0  0  0  0  0  0  0  0  0  0  0  0
  1  2  1  0  0  0  0
  2  3  1  0  0  0  0
  3  4  2  0  0  0  0
  3 30  1  0  0  0  0
  4 31  1  0  0  0  0
  5 29  1  0  0  0  0
  5  4  1  0  0  0  0
  6  5  2  0  0  0  0
  7  6  1  0  0  0  0
  7  2  2  0  0  0  0
  8  6  1  0  0  0  0
  9  8  2  0  0  0  0
 10 11  1  0  0  0  0
 10  9  1  0  0  0  0
 11 12  2  0  0  0  0
 12 13  2  0  0  0  0
 13 23  1  0  0  0  0
 14 13  1  0  0  0  0
 15 14  2  0  0  0  0
 16 15  1  0  0  0  0
 16 11  1  0  0  0  0
 17 15  1  0  0  0  0
 18 36  1  0  0  0  0
 18 17  1  0  0  0  0
 18 35  1  0  0  0  0
 19 18  1  0  0  0  0
 20 21  1  0  0  0  0
 20 19  1  0  0  0  0
 21 22  1  0  0  0  0
 22 42  1  0  0  0  0
 22 41  1  0  0  0  0
 22 17  1  0  0  0  0
 23 24  1  0  0  0  0
 23 28  1  0  0  0  0
 24 25  1  0  0  0  0
 25 46  1  0  0  0  0
 25 26  1  0  0  0  0
 27 26  1  0  0  0  0
 27 47  1  0  0  0  0
 28 50  1  0  0  0  0
 28 27  1  0  0  0  0
 29 51  1  0  0  0  0
 30 52  1  0  0  0  0
 32  7  1  0  0  0  0
 33  8  1  0  0  0  0
 34 10  1  0  0  0  0
 37 19  1  0  0  0  0
 38 19  1  0  0  0  0
 39 21  1  0  0  0  0
 40 21  1  0  0  0  0
 43 24  1  0  0  0  0
 44 24  1  0  0  0  0
 45 25  1  0  0  0  0
 48 27  1  0  0  0  0
 49 28  1  0  0  0  0
M  END
>  <Pose>
1

>  <Score>
-6.90

$$$$
