
 OpenBabel03212208273D

 56 59  0  0  1  0  0  0  0  0999 V2000
   91.8250   92.5530  -44.5300 Cl  0  0  0  0  0  0  0  0  0  0  0  0
   91.8060   94.0200  -43.5470 C   0  0  0  0  0  0  0  0  0  0  0  0
   91.7660   95.2210  -44.1790 C   0  0  0  0  0  0  0  0  0  0  0  0
   91.7540   96.3650  -43.3740 C   0  0  0  0  0  0  0  0  0  0  0  0
   91.7800   96.3000  -42.0240 C   0  0  0  0  0  0  0  0  0  0  0  0
   91.7650   97.5860  -41.5590 N   0  0  0  0  0  0  0  0  0  0  0  0
   91.7300   98.4570  -42.5710 C   0  0  0  0  0  0  0  0  0  0  0  0
   91.7230   97.6960  -43.7390 C   0  0  0  0  0  0  0  0  0  0  0  0
   91.7350   99.8940  -42.5670 C   0  0  0  0  0  0  0  0  0  0  0  0
   92.9700  100.4140  -42.5420 O   0  0  0  0  0  0  0  0  0  0  0  0
   90.7430  100.8520  -42.5840 N   0  0  0  0  0  0  0  0  0  0  0  0
   91.1400  102.0300  -43.4050 C   0  0  0  0  0  0  0  0  0  0  0  0
   90.6990  101.8040  -44.8380 C   0  0  0  0  0  0  0  0  0  0  0  0
   89.6090  100.8020  -44.8250 C   0  0  1  0  0  0  0  0  0  0  0  0
   88.4520  101.2700  -44.0050 C   0  0  2  0  0  0  0  0  0  0  0  0
   88.3540  100.2980  -42.8160 C   0  0  0  0  0  0  0  0  0  0  0  0
   89.5060  100.7370  -41.8920 C   0  0  0  0  0  0  0  0  0  0  0  0
   87.2490  101.3320  -44.7040 O   0  0  0  0  0  0  0  0  0  0  0  0
   89.1540  100.2850  -46.0770 N   0  0  0  0  0  0  0  0  0  0  0  0
   89.7000   99.0010  -46.4400 C   0  0  0  0  0  0  0  0  0  0  0  0
   91.1660   99.0610  -46.6480 C   0  0  0  0  0  0  0  0  0  0  0  0
   91.4010  100.0970  -47.6610 N   0  0  0  0  0  0  0  0  0  0  0  0
   90.2240  100.7330  -48.1920 C   0  0  0  0  0  0  0  0  0  0  0  0
   89.2520  101.2240  -47.1600 C   0  0  0  0  0  0  0  0  0  0  0  0
   92.7340  100.4010  -48.0730 C   0  0  0  0  0  0  0  0  0  0  0  0
   93.3940   99.5480  -48.6810 O   0  0  0  0  0  0  0  0  0  0  0  0
   93.2880  101.7540  -47.7510 C   0  0  0  0  0  0  0  0  0  0  0  0
   91.8200   95.0810  -41.4020 C   0  0  0  0  0  0  0  0  0  0  0  0
   91.8330   93.9270  -42.1710 C   0  0  0  0  0  0  0  0  0  0  0  0
   91.7460   95.3050  -45.2460 H   0  0  0  0  0  0  0  0  0  0  0  0
   91.7640   97.7770  -40.5490 H   0  0  0  0  0  0  0  0  0  0  0  0
   91.6940   98.1020  -44.7290 H   0  0  0  0  0  0  0  0  0  0  0  0
   92.2250  102.1540  -43.4010 H   0  0  0  0  0  0  0  0  0  0  0  0
   90.6940  102.9170  -42.9300 H   0  0  0  0  0  0  0  0  0  0  0  0
   91.5470  101.5650  -45.4980 H   0  0  0  0  0  0  0  0  0  0  0  0
   90.3230  102.8280  -45.1590 H   0  0  0  0  0  0  0  0  0  0  0  0
   90.0930   99.8780  -44.3280 H   0  0  0  0  0  0  0  0  0  0  0  0
   88.5940  102.2780  -43.5310 H   0  0  0  0  0  0  0  0  0  0  0  0
   87.4100  100.3670  -42.2940 H   0  0  0  0  0  0  0  0  0  0  0  0
   88.6000   99.2970  -43.2370 H   0  0  0  0  0  0  0  0  0  0  0  0
   89.4680  100.1530  -40.9980 H   0  0  0  0  0  0  0  0  0  0  0  0
   89.1640  101.7890  -41.5570 H   0  0  0  0  0  0  0  0  0  0  0  0
   86.5240  101.3190  -43.9980 H   0  0  0  0  0  0  0  0  0  0  0  0
   89.1920   98.6990  -47.3950 H   0  0  0  0  0  0  0  0  0  0  0  0
   89.4010   98.2580  -45.6560 H   0  0  0  0  0  0  0  0  0  0  0  0
   91.7170   99.2350  -45.7230 H   0  0  0  0  0  0  0  0  0  0  0  0
   91.4700   98.0840  -47.1050 H   0  0  0  0  0  0  0  0  0  0  0  0
   89.7450   99.9820  -48.8730 H   0  0  0  0  0  0  0  0  0  0  0  0
   90.5220  101.5930  -48.8720 H   0  0  0  0  0  0  0  0  0  0  0  0
   88.2490  101.2790  -47.6540 H   0  0  0  0  0  0  0  0  0  0  0  0
   89.4720  102.2600  -46.8430 H   0  0  0  0  0  0  0  0  0  0  0  0
   92.5100  102.3820  -47.2930 H   0  0  0  0  0  0  0  0  0  0  0  0
   94.1520  101.6110  -47.0470 H   0  0  0  0  0  0  0  0  0  0  0  0
   93.6630  102.2020  -48.6720 H   0  0  0  0  0  0  0  0  0  0  0  0
   91.8380   94.9930  -40.3230 H   0  0  0  0  0  0  0  0  0  0  0  0
   91.8650   92.9440  -41.7390 H   0  0  0  0  0  0  0  0  0  0  0  0
  1  2  1  0  0  0  0
  2 29  1  0  0  0  0
  3  2  2  0  0  0  0
  3  4  1  0  0  0  0
  4  5  2  0  0  0  0
  5  6  1  0  0  0  0
  5 28  1  0  0  0  0
  6 31  1  0  0  0  0
  7  9  1  0  0  0  0
  7  6  1  0  0  0  0
  8  4  1  0  0  0  0
  8  7  2  0  0  0  0
  9 10  2  0  0  0  0
 11  9  1  0  0  0  0
 11 17  1  0  0  0  0
 12 33  1  0  0  0  0
 12 34  1  0  0  0  0
 12 11  1  0  0  0  0
 13 14  1  0  0  0  0
 13 12  1  0  0  0  0
 14 37  1  1  0  0  0
 14 15  1  0  0  0  0
 15 38  1  1  0  0  0
 15 16  1  0  0  0  0
 16 39  1  0  0  0  0
 16 17  1  0  0  0  0
 17 42  1  0  0  0  0
 17 41  1  0  0  0  0
 18 15  1  0  0  0  0
 18 43  1  0  0  0  0
 19 14  1  0  0  0  0
 20 19  1  0  0  0  0
 20 45  1  0  0  0  0
 21 20  1  0  0  0  0
 21 46  1  0  0  0  0
 22 21  1  0  0  0  0
 23 22  1  0  0  0  0
 23 24  1  0  0  0  0
 24 51  1  0  0  0  0
 24 19  1  0  0  0  0
 25 27  1  0  0  0  0
 25 22  1  0  0  0  0
 26 25  2  0  0  0  0
 27 52  1  0  0  0  0
 27 53  1  0  0  0  0
 28 55  1  0  0  0  0
 29 56  1  0  0  0  0
 29 28  2  0  0  0  0
 30  3  1  0  0  0  0
 32  8  1  0  0  0  0
 35 13  1  0  0  0  0
 36 13  1  0  0  0  0
 40 16  1  0  0  0  0
 44 20  1  0  0  0  0
 47 21  1  0  0  0  0
 48 23  1  0  0  0  0
 49 23  1  0  0  0  0
 50 24  1  0  0  0  0
 54 27  1  0  0  0  0
M  END
>  <Pose>
1

>  <Score>
-5.40

$$$$
