
 OpenBabel03212208273D

 46 49  0  0  0  0  0  0  0  0999 V2000
   88.0150   92.9400  -50.3380 Cl  0  0  0  0  0  0  0  0  0  0  0  0
   89.5540   92.1310  -50.0920 C   0  0  0  0  0  0  0  0  0  0  0  0
   89.9670   91.8680  -48.7900 C   0  0  0  0  0  0  0  0  0  0  0  0
   91.1840   91.2280  -48.6000 C   0  0  0  0  0  0  0  0  0  0  0  0
   91.9310   90.8800  -49.7280 C   0  0  0  0  0  0  0  0  0  0  0  0
   91.5120   91.1460  -50.9990 C   0  0  0  0  0  0  0  0  0  0  0  0
   90.3200   91.7740  -51.1880 C   0  0  0  0  0  0  0  0  0  0  0  0
   92.9930   90.3120  -49.2450 O   0  0  0  0  0  0  0  0  0  0  0  0
   92.9760   90.2750  -47.9370 C   0  0  0  0  0  0  0  0  0  0  0  0
   93.8970   89.7730  -47.2390 O   0  0  0  0  0  0  0  0  0  0  0  0
   91.8400   90.8480  -47.5010 N   0  0  0  0  0  0  0  0  0  0  0  0
   91.4870   90.9840  -46.1170 C   0  0  0  0  0  0  0  0  0  0  0  0
   91.6840   92.3890  -45.6660 C   0  0  0  0  0  0  0  0  0  0  0  0
   92.6550   92.8110  -44.8380 N   0  0  0  0  0  0  0  0  0  0  0  0
   92.5380   94.0880  -44.6110 O   0  0  0  0  0  0  0  0  0  0  0  0
   91.4910   94.5090  -45.2910 C   0  0  0  0  0  0  0  0  0  0  0  0
   90.9530   93.4760  -45.9460 N   0  0  0  0  0  0  0  0  0  0  0  0
   91.0600   95.9470  -45.2560 C   0  0  0  0  0  0  0  0  0  0  0  0
   90.5800   96.3000  -46.3880 O   0  0  0  0  0  0  0  0  0  0  0  0
   91.2030   96.6730  -44.1320 N   0  0  0  0  0  0  0  0  0  0  0  0
   91.3620   97.4080  -42.9730 C   0  0  0  0  0  0  0  0  0  0  0  0
   90.6610   98.7710  -43.0140 C   0  0  0  0  0  0  0  0  0  0  0  0
   91.0120   99.6530  -41.9720 N   0  0  0  0  0  0  0  0  0  0  0  0
   90.1520  100.7700  -41.9330 C   0  0  0  0  0  0  0  0  0  0  0  0
   90.7840  101.9810  -41.3340 C   0  0  0  0  0  0  0  0  0  0  0  0
   91.5280  101.6050  -40.2450 O   0  0  0  0  0  0  0  0  0  0  0  0
   92.6300  100.8320  -40.5570 C   0  0  0  0  0  0  0  0  0  0  0  0
   92.3640   99.8110  -41.6230 C   0  0  0  0  0  0  0  0  0  0  0  0
   89.4060   92.1230  -47.9200 H   0  0  0  0  0  0  0  0  0  0  0  0
   92.1310   90.8500  -51.8470 H   0  0  0  0  0  0  0  0  0  0  0  0
   89.9860   91.9870  -52.2050 H   0  0  0  0  0  0  0  0  0  0  0  0
   92.0910   90.2710  -45.5280 H   0  0  0  0  0  0  0  0  0  0  0  0
   90.4270   90.7080  -45.9180 H   0  0  0  0  0  0  0  0  0  0  0  0
   92.2510   95.8720  -43.7570 H   0  0  0  0  0  0  0  0  0  0  0  0
   92.4480   97.6900  -42.8160 H   0  0  0  0  0  0  0  0  0  0  0  0
   91.0260   96.9360  -42.0340 H   0  0  0  0  0  0  0  0  0  0  0  0
   89.5540   98.6720  -43.0200 H   0  0  0  0  0  0  0  0  0  0  0  0
   90.9410   99.2220  -43.9830 H   0  0  0  0  0  0  0  0  0  0  0  0
   89.7260  100.9890  -42.9360 H   0  0  0  0  0  0  0  0  0  0  0  0
   89.2530  100.5400  -41.2840 H   0  0  0  0  0  0  0  0  0  0  0  0
   91.3910  102.5520  -42.0640 H   0  0  0  0  0  0  0  0  0  0  0  0
   89.9880  102.6790  -40.9310 H   0  0  0  0  0  0  0  0  0  0  0  0
   93.0000  100.3710  -39.6070 H   0  0  0  0  0  0  0  0  0  0  0  0
   93.4280  101.5100  -40.9130 H   0  0  0  0  0  0  0  0  0  0  0  0
   92.8240   98.8490  -41.2400 H   0  0  0  0  0  0  0  0  0  0  0  0
   92.9350  100.0550  -42.5400 H   0  0  0  0  0  0  0  0  0  0  0  0
  1  2  1  0  0  0  0
  2  3  1  0  0  0  0
  3  4  2  0  0  0  0
  3 29  1  0  0  0  0
  4 11  1  0  0  0  0
  5  8  1  0  0  0  0
  5  4  1  0  0  0  0
  6  5  2  0  0  0  0
  7  6  1  0  0  0  0
  7  2  2  0  0  0  0
  8  9  1  0  0  0  0
  9 11  1  0  0  0  0
  9 10  2  0  0  0  0
 11 12  1  0  0  0  0
 12 33  1  0  0  0  0
 12 13  1  0  0  0  0
 12 32  1  0  0  0  0
 13 14  2  0  0  0  0
 14 15  1  0  0  0  0
 16 18  1  0  0  0  0
 16 15  1  0  0  0  0
 17 13  1  0  0  0  0
 17 16  2  0  0  0  0
 18 20  1  0  0  0  0
 19 18  2  0  0  0  0
 20 34  1  0  0  0  0
 20 21  1  0  0  0  0
 21 35  1  0  0  0  0
 21 36  1  0  0  0  0
 22 21  1  0  0  0  0
 22 23  1  0  0  0  0
 23 24  1  0  0  0  0
 23 28  1  0  0  0  0
 24 25  1  0  0  0  0
 24 40  1  0  0  0  0
 25 42  1  0  0  0  0
 25 26  1  0  0  0  0
 27 26  1  0  0  0  0
 27 43  1  0  0  0  0
 28 45  1  0  0  0  0
 28 27  1  0  0  0  0
 30  6  1  0  0  0  0
 31  7  1  0  0  0  0
 37 22  1  0  0  0  0
 38 22  1  0  0  0  0
 39 24  1  0  0  0  0
 41 25  1  0  0  0  0
 44 27  1  0  0  0  0
 46 28  1  0  0  0  0
M  END
>  <Pose>
1

>  <Score>
-5.48

$$$$
