
 OpenBabel03212208273D

 41 45  0  0  1  0  0  0  0  0999 V2000
   95.8750  103.1780  -39.8700 Cl  0  0  0  0  0  0  0  0  0  0  0  0
   94.6790  102.1050  -40.6030 C   0  0  0  0  0  0  0  0  0  0  0  0
   94.0050  101.1650  -39.8610 C   0  0  0  0  0  0  0  0  0  0  0  0
   93.0710  100.3430  -40.4660 C   0  0  0  0  0  0  0  0  0  0  0  0
   92.7740  100.4180  -41.8060 C   0  0  0  0  0  0  0  0  0  0  0  0
   93.4490  101.3630  -42.5550 C   0  0  0  0  0  0  0  0  0  0  0  0
   94.3890  102.1920  -41.9460 C   0  0  0  0  0  0  0  0  0  0  0  0
   91.8090   99.5750  -42.4430 N   0  0  0  0  0  0  0  0  0  0  0  0
   90.6520   99.9250  -43.1880 C   0  0  0  0  0  0  0  0  0  0  0  0
   90.3290  101.0960  -43.5210 O   0  0  0  0  0  0  0  0  0  0  0  0
   89.8560   98.6990  -43.5280 C   0  0  1  0  0  0  0  0  0  0  0  0
   89.6640   98.5740  -45.0030 C   0  0  2  0  0  0  0  0  0  0  0  0
   90.0680   97.2500  -45.3050 O   0  0  0  0  0  0  0  0  0  0  0  0
   91.3440   97.3330  -44.6900 C   0  0  2  0  0  0  0  0  0  0  0  0
   90.8790   97.5860  -43.2590 C   0  0  1  0  0  0  0  0  0  0  0  0
   91.9040   98.1570  -42.3990 C   0  0  0  0  0  0  0  0  0  0  0  0
   92.7300   97.4810  -41.7330 O   0  0  0  0  0  0  0  0  0  0  0  0
   91.8720   98.5600  -45.3320 C   0  0  0  0  0  0  0  0  0  0  0  0
   90.7970   99.3080  -45.6530 C   0  0  0  0  0  0  0  0  0  0  0  0
   92.1750   96.1300  -44.8570 C   0  0  0  0  0  0  0  0  0  0  0  0
   88.3390   98.9110  -45.5370 C   0  0  0  0  0  0  0  0  0  0  0  0
   88.4210   98.9600  -46.9300 O   0  0  0  0  0  0  0  0  0  0  0  0
   88.1940   97.6980  -47.4170 C   0  0  0  0  0  0  0  0  0  0  0  0
   87.3300   97.0800  -46.3500 C   0  0  0  0  0  0  0  0  0  0  0  0
   87.4400   97.8860  -45.2390 O   0  0  0  0  0  0  0  0  0  0  0  0
   94.2130  101.0810  -38.8150 H   0  0  0  0  0  0  0  0  0  0  0  0
   92.5200   99.5870  -39.8960 H   0  0  0  0  0  0  0  0  0  0  0  0
   93.2470  101.4560  -43.6150 H   0  0  0  0  0  0  0  0  0  0  0  0
   94.9220  102.9350  -42.5160 H   0  0  0  0  0  0  0  0  0  0  0  0
   88.9570   98.5950  -42.9230 H   0  0  0  0  0  0  0  0  0  0  0  0
   90.4050   96.6790  -42.8920 H   0  0  0  0  0  0  0  0  0  0  0  0
   92.8830   98.8800  -45.5430 H   0  0  0  0  0  0  0  0  0  0  0  0
   90.7340  100.2160  -46.2290 H   0  0  0  0  0  0  0  0  0  0  0  0
   92.1510   95.4230  -43.9950 H   0  0  0  0  0  0  0  0  0  0  0  0
   93.2610   96.3790  -45.0240 H   0  0  0  0  0  0  0  0  0  0  0  0
   91.9010   95.5090  -45.7500 H   0  0  0  0  0  0  0  0  0  0  0  0
   87.9530   99.8340  -45.1030 H   0  0  0  0  0  0  0  0  0  0  0  0
   87.6390   97.8170  -48.3920 H   0  0  0  0  0  0  0  0  0  0  0  0
   89.0940   97.1170  -47.6550 H   0  0  0  0  0  0  0  0  0  0  0  0
   87.7230   96.0440  -46.1830 H   0  0  0  0  0  0  0  0  0  0  0  0
   86.2880   97.0490  -46.7640 H   0  0  0  0  0  0  0  0  0  0  0  0
  2  1  1  0  0  0  0
  2  3  1  0  0  0  0
  3 26  1  0  0  0  0
  4 27  1  0  0  0  0
  4  3  2  0  0  0  0
  5  4  1  0  0  0  0
  6  7  1  0  0  0  0
  6  5  2  0  0  0  0
  7  2  2  0  0  0  0
  8 16  1  0  0  0  0
  8  5  1  0  0  0  0
  9  8  1  0  0  0  0
 10  9  2  0  0  0  0
 11 15  1  0  0  0  0
 11  9  1  0  0  0  0
 11 30  1  1  0  0  0
 12 21  1  6  0  0  0
 12 11  1  0  0  0  0
 13 12  1  0  0  0  0
 13 14  1  0  0  0  0
 14 20  1  6  0  0  0
 14 15  1  0  0  0  0
 15 31  1  1  0  0  0
 15 16  1  0  0  0  0
 16 17  2  0  0  0  0
 18 14  1  0  0  0  0
 19 18  2  0  0  0  0
 19 12  1  0  0  0  0
 20 34  1  0  0  0  0
 21 25  1  0  0  0  0
 21 37  1  0  0  0  0
 22 21  1  0  0  0  0
 23 22  1  0  0  0  0
 23 24  1  0  0  0  0
 24 40  1  0  0  0  0
 24 25  1  0  0  0  0
 28  6  1  0  0  0  0
 29  7  1  0  0  0  0
 32 18  1  0  0  0  0
 33 19  1  0  0  0  0
 35 20  1  0  0  0  0
 36 20  1  0  0  0  0
 38 23  1  0  0  0  0
 39 23  1  0  0  0  0
 41 24  1  0  0  0  0
M  END
>  <Pose>
1

>  <Score>
-3.80

$$$$
