
 OpenBabel03212208273D

 49 52  0  0  0  0  0  0  0  0999 V2000
   89.4930  105.7210  -41.8680 Cl  0  0  0  0  0  0  0  0  0  0  0  0
   90.1810  104.2000  -41.2840 C   0  0  0  0  0  0  0  0  0  0  0  0
   90.9700  104.1770  -40.1630 C   0  0  0  0  0  0  0  0  0  0  0  0
   91.4720  102.9540  -39.7750 C   0  0  0  0  0  0  0  0  0  0  0  0
   91.1970  101.7860  -40.4810 C   0  0  0  0  0  0  0  0  0  0  0  0
   90.3920  101.8600  -41.6090 C   0  0  0  0  0  0  0  0  0  0  0  0
   89.8850  103.0770  -42.0080 C   0  0  0  0  0  0  0  0  0  0  0  0
   91.7290  100.5350  -40.0570 N   0  0  0  0  0  0  0  0  0  0  0  0
   92.9000   99.9350  -40.5510 C   0  0  0  0  0  0  0  0  0  0  0  0
   93.9450  100.6390  -40.5930 O   0  0  0  0  0  0  0  0  0  0  0  0
   92.9710   98.6040  -41.0040 N   0  0  0  0  0  0  0  0  0  0  0  0
   92.2670   97.5140  -40.5040 N   0  0  0  0  0  0  0  0  0  0  0  0
   92.0370   96.4090  -41.3570 C   0  0  0  0  0  0  0  0  0  0  0  0
   92.3700   95.2440  -40.9690 O   0  0  0  0  0  0  0  0  0  0  0  0
   91.4340   96.6260  -42.6580 C   0  0  0  0  0  0  0  0  0  0  0  0
   90.8190   97.7260  -43.0190 N   0  0  0  0  0  0  0  0  0  0  0  0
   90.3430   97.6660  -44.3040 N   0  0  0  0  0  0  0  0  0  0  0  0
   90.7070   96.3740  -44.7930 C   0  0  0  0  0  0  0  0  0  0  0  0
   90.5170   95.7750  -45.9300 N   0  0  0  0  0  0  0  0  0  0  0  0
   90.9910   94.4580  -46.1720 N   0  0  0  0  0  0  0  0  0  0  0  0
   91.6920   93.7280  -45.1950 C   0  0  0  0  0  0  0  0  0  0  0  0
   92.1490   92.5010  -45.4090 C   0  0  0  0  0  0  0  0  0  0  0  0
   91.9140   94.3820  -43.9100 C   0  0  0  0  0  0  0  0  0  0  0  0
   92.5260   93.7590  -43.0370 O   0  0  0  0  0  0  0  0  0  0  0  0
   91.4050   95.7060  -43.7430 N   0  0  0  0  0  0  0  0  0  0  0  0
   89.6740   98.7090  -45.0070 C   0  0  0  0  0  0  0  0  0  0  0  0
   88.3700   99.0370  -44.7310 C   0  0  0  0  0  0  0  0  0  0  0  0
   87.6850  100.0700  -45.3570 C   0  0  0  0  0  0  0  0  0  0  0  0
   88.3190  100.8330  -46.3170 C   0  0  0  0  0  0  0  0  0  0  0  0
   89.6290  100.5210  -46.6130 C   0  0  0  0  0  0  0  0  0  0  0  0
   90.2910   99.4770  -45.9690 C   0  0  0  0  0  0  0  0  0  0  0  0
   87.6310  101.9790  -46.9870 C   0  0  0  0  0  0  0  0  0  0  0  0
   91.1930  105.0860  -39.6010 H   0  0  0  0  0  0  0  0  0  0  0  0
   92.1090  102.8820  -38.8880 H   0  0  0  0  0  0  0  0  0  0  0  0
   90.1950  100.9270  -42.1330 H   0  0  0  0  0  0  0  0  0  0  0  0
   89.2450  103.1100  -42.8990 H   0  0  0  0  0  0  0  0  0  0  0  0
   91.1730  100.0450  -39.3120 H   0  0  0  0  0  0  0  0  0  0  0  0
   93.6160   98.3600  -41.8240 H   0  0  0  0  0  0  0  0  0  0  0  0
   91.9410   97.5420  -39.5260 H   0  0  0  0  0  0  0  0  0  0  0  0
   90.7850   94.0700  -47.1200 H   0  0  0  0  0  0  0  0  0  0  0  0
   92.0190   91.9760  -46.3400 H   0  0  0  0  0  0  0  0  0  0  0  0
   92.6920   91.9740  -44.6330 H   0  0  0  0  0  0  0  0  0  0  0  0
   87.8580   98.4360  -43.9670 H   0  0  0  0  0  0  0  0  0  0  0  0
   86.6620  100.2990  -45.1160 H   0  0  0  0  0  0  0  0  0  0  0  0
   90.1150  101.1270  -47.3770 H   0  0  0  0  0  0  0  0  0  0  0  0
   91.3240   99.2530  -46.2280 H   0  0  0  0  0  0  0  0  0  0  0  0
   86.9300  101.6790  -47.7700 H   0  0  0  0  0  0  0  0  0  0  0  0
   88.3400  102.7050  -47.4030 H   0  0  0  0  0  0  0  0  0  0  0  0
   87.0470  102.5670  -46.2140 H   0  0  0  0  0  0  0  0  0  0  0  0
  1  2  1  0  0  0  0
  2  3  1  0  0  0  0
  3  4  2  0  0  0  0
  3 33  1  0  0  0  0
  4 34  1  0  0  0  0
  5  8  1  0  0  0  0
  5  4  1  0  0  0  0
  6  5  2  0  0  0  0
  7  6  1  0  0  0  0
  7  2  2  0  0  0  0
  8 37  1  0  0  0  0
  9  8  1  0  0  0  0
 10  9  2  0  0  0  0
 11  9  1  0  0  0  0
 11 12  1  0  0  0  0
 12 39  1  0  0  0  0
 13 14  2  0  0  0  0
 13 12  1  0  0  0  0
 15 13  1  0  0  0  0
 16 15  2  0  0  0  0
 17 16  1  0  0  0  0
 18 17  1  0  0  0  0
 18 25  1  0  0  0  0
 19 18  2  0  0  0  0
 20 19  1  0  0  0  0
 20 21  1  0  0  0  0
 21 23  1  0  0  0  0
 22 21  2  0  0  0  0
 22 42  1  0  0  0  0
 23 25  1  0  0  0  0
 23 24  2  0  0  0  0
 25 15  1  0  0  0  0
 26 27  1  0  0  0  0
 26 17  1  0  0  0  0
 27 43  1  0  0  0  0
 28 44  1  0  0  0  0
 28 27  2  0  0  0  0
 29 28  1  0  0  0  0
 30 29  2  0  0  0  0
 30 31  1  0  0  0  0
 31 26  2  0  0  0  0
 32 29  1  0  0  0  0
 32 49  1  0  0  0  0
 35  6  1  0  0  0  0
 36  7  1  0  0  0  0
 38 11  1  0  0  0  0
 40 20  1  0  0  0  0
 41 22  1  0  0  0  0
 45 30  1  0  0  0  0
 46 31  1  0  0  0  0
 47 32  1  0  0  0  0
 48 32  1  0  0  0  0
M  END
>  <Pose>
1

>  <Score>
-7.47

$$$$
