
 OpenBabel03212208273D

 53 57  0  0  1  0  0  0  0  0999 V2000
   93.3270  102.7180  -48.5040 Cl  0  0  0  0  0  0  0  0  0  0  0  0
   92.0700  101.5880  -48.0480 C   0  0  0  0  0  0  0  0  0  0  0  0
   92.2170  100.6870  -47.0130 C   0  0  0  0  0  0  0  0  0  0  0  0
   91.1980   99.8020  -46.6780 C   0  0  0  0  0  0  0  0  0  0  0  0
   90.0530   99.8730  -47.4230 C   0  0  0  0  0  0  0  0  0  0  0  0
   89.8880  100.7640  -48.4570 C   0  0  0  0  0  0  0  0  0  0  0  0
   90.8890  101.6290  -48.7820 C   0  0  0  0  0  0  0  0  0  0  0  0
   91.6580   98.9860  -45.5480 C   0  0  2  0  0  0  0  0  0  0  0  0
   91.6510   97.5650  -45.8490 N   0  0  0  0  0  0  0  0  0  0  0  0
   91.7640   96.9730  -44.5140 C   0  0  1  0  0  0  0  0  0  0  0  0
   90.9970   97.8440  -43.5930 C   0  0  2  0  0  0  0  0  0  0  0  0
   90.6950   99.0700  -44.3930 C   0  0  1  0  0  0  0  0  0  0  0  0
   90.9140  100.2460  -43.5460 C   0  0  0  0  0  0  0  0  0  0  0  0
   90.5030  101.3990  -43.8280 O   0  0  0  0  0  0  0  0  0  0  0  0
   91.6460   99.8020  -42.4100 N   0  0  0  0  0  0  0  0  0  0  0  0
   91.8670   98.4010  -42.4910 C   0  0  0  0  0  0  0  0  0  0  0  0
   92.6360   97.6800  -41.8000 O   0  0  0  0  0  0  0  0  0  0  0  0
   92.0980  100.6720  -41.3270 C   0  0  0  0  0  0  0  0  0  0  0  0
   93.3940  101.3350  -41.7700 C   0  0  0  0  0  0  0  0  0  0  0  0
   94.3950  101.1400  -40.8320 O   0  0  0  0  0  0  0  0  0  0  0  0
   95.0860  102.3210  -40.6440 C   0  0  0  0  0  0  0  0  0  0  0  0
   91.2460   95.5660  -44.4980 C   0  0  0  0  0  0  0  0  0  0  0  0
   91.8650   94.6960  -43.4850 C   0  0  0  0  0  0  0  0  0  0  0  0
   92.7430   93.7100  -43.9310 C   0  0  0  0  0  0  0  0  0  0  0  0
   93.3520   92.8970  -43.0100 C   0  0  0  0  0  0  0  0  0  0  0  0
   93.1370   93.0080  -41.6580 C   0  0  0  0  0  0  0  0  0  0  0  0
   92.2620   93.9950  -41.2570 C   0  0  0  0  0  0  0  0  0  0  0  0
   91.6230   94.8400  -42.1390 C   0  0  0  0  0  0  0  0  0  0  0  0
   93.0220   99.4370  -45.2310 C   0  0  0  0  0  0  0  0  0  0  0  0
   93.7910   99.0240  -44.3510 O   0  0  0  0  0  0  0  0  0  0  0  0
   93.3230  100.4780  -46.1490 N   0  0  0  0  0  0  0  0  0  0  0  0
   89.2420   99.1720  -47.1590 H   0  0  0  0  0  0  0  0  0  0  0  0
   88.9710  100.7720  -49.0020 H   0  0  0  0  0  0  0  0  0  0  0  0
   90.7800  102.3360  -49.5900 H   0  0  0  0  0  0  0  0  0  0  0  0
   92.4700   97.2880  -46.4560 H   0  0  0  0  0  0  0  0  0  0  0  0
   92.8510   96.9000  -44.2420 H   0  0  0  0  0  0  0  0  0  0  0  0
   90.0850   97.4040  -43.1470 H   0  0  0  0  0  0  0  0  0  0  0  0
   89.6760   99.0470  -44.8470 H   0  0  0  0  0  0  0  0  0  0  0  0
   92.3210  100.0860  -40.4310 H   0  0  0  0  0  0  0  0  0  0  0  0
   91.3390  101.4340  -41.0740 H   0  0  0  0  0  0  0  0  0  0  0  0
   93.6540  100.9150  -42.7650 H   0  0  0  0  0  0  0  0  0  0  0  0
   93.2480  102.4300  -41.8630 H   0  0  0  0  0  0  0  0  0  0  0  0
   94.4240  103.1270  -40.2840 H   0  0  0  0  0  0  0  0  0  0  0  0
   95.5840  102.6910  -41.5640 H   0  0  0  0  0  0  0  0  0  0  0  0
   95.8960  102.1250  -39.9060 H   0  0  0  0  0  0  0  0  0  0  0  0
   90.1360   95.5690  -44.4400 H   0  0  0  0  0  0  0  0  0  0  0  0
   91.4880   95.1380  -45.5150 H   0  0  0  0  0  0  0  0  0  0  0  0
   92.9280   93.6060  -45.0110 H   0  0  0  0  0  0  0  0  0  0  0  0
   94.0330   92.1330  -43.3590 H   0  0  0  0  0  0  0  0  0  0  0  0
   93.6090   92.3760  -40.9200 H   0  0  0  0  0  0  0  0  0  0  0  0
   92.0540   94.1300  -40.2040 H   0  0  0  0  0  0  0  0  0  0  0  0
   90.9450   95.6210  -41.7570 H   0  0  0  0  0  0  0  0  0  0  0  0
   94.2220  101.0290  -46.2040 H   0  0  0  0  0  0  0  0  0  0  0  0
  1  2  1  0  0  0  0
  2  3  1  0  0  0  0
  3  4  2  0  0  0  0
  3 31  1  0  0  0  0
  5 32  1  0  0  0  0
  5  4  1  0  0  0  0
  6  5  2  0  0  0  0
  7  6  1  0  0  0  0
  7  2  2  0  0  0  0
  8  4  1  6  0  0  0
  8 29  1  0  0  0  0
  8 12  1  0  0  0  0
  9  8  1  0  0  0  0
  9 10  1  0  0  0  0
 10 22  1  0  0  0  0
 10 36  1  1  0  0  0
 10 11  1  0  0  0  0
 11 37  1  1  0  0  0
 11 16  1  0  0  0  0
 12 38  1  6  0  0  0
 12 11  1  0  0  0  0
 12 13  1  0  0  0  0
 13 15  1  0  0  0  0
 14 13  2  0  0  0  0
 15 18  1  0  0  0  0
 16 15  1  0  0  0  0
 16 17  2  0  0  0  0
 18 40  1  0  0  0  0
 18 39  1  0  0  0  0
 19 18  1  0  0  0  0
 19 20  1  0  0  0  0
 20 21  1  0  0  0  0
 21 43  1  0  0  0  0
 21 45  1  0  0  0  0
 22 46  1  0  0  0  0
 22 23  1  0  0  0  0
 23 28  1  0  0  0  0
 24 23  2  0  0  0  0
 24 25  1  0  0  0  0
 25 26  2  0  0  0  0
 26 27  1  0  0  0  0
 26 50  1  0  0  0  0
 27 51  1  0  0  0  0
 28 52  1  0  0  0  0
 28 27  2  0  0  0  0
 29 30  2  0  0  0  0
 31 29  1  0  0  0  0
 33  6  1  0  0  0  0
 34  7  1  0  0  0  0
 35  9  1  0  0  0  0
 41 19  1  0  0  0  0
 42 19  1  0  0  0  0
 44 21  1  0  0  0  0
 47 22  1  0  0  0  0
 48 24  1  0  0  0  0
 49 25  1  0  0  0  0
 53 31  1  0  0  0  0
M  END
>  <Pose>
1

>  <Score>
-6.00

$$$$
