
 OpenBabel03212208273D

 42 45  0  0  0  0  0  0  0  0999 V2000
   83.7990  100.1280  -43.3230 Cl  0  0  0  0  0  0  0  0  0  0  0  0
   85.5230   99.9870  -43.6000 C   0  0  0  0  0  0  0  0  0  0  0  0
   86.1410   98.7630  -43.4530 C   0  0  0  0  0  0  0  0  0  0  0  0
   87.5100   98.7130  -43.6870 C   0  0  0  0  0  0  0  0  0  0  0  0
   88.2590   99.8040  -44.0510 C   0  0  0  0  0  0  0  0  0  0  0  0
   87.6240  101.0120  -44.1930 C   0  0  0  0  0  0  0  0  0  0  0  0
   86.2710  101.0820  -43.9660 C   0  0  0  0  0  0  0  0  0  0  0  0
   89.6970   99.6800  -44.2820 C   0  0  0  0  0  0  0  0  0  0  0  0
   90.0880   99.1270  -45.5210 N   0  0  0  0  0  0  0  0  0  0  0  0
   91.4600   99.1250  -45.8410 C   0  0  0  0  0  0  0  0  0  0  0  0
   92.2310   97.8850  -45.4770 C   0  0  0  0  0  0  0  0  0  0  0  0
   91.2270   96.7950  -45.3730 N   0  0  0  0  0  0  0  0  0  0  0  0
   90.2100   96.8600  -46.3530 C   0  0  0  0  0  0  0  0  0  0  0  0
   89.3070   98.0200  -45.9960 C   0  0  0  0  0  0  0  0  0  0  0  0
   91.4340   95.8420  -44.3520 C   0  0  0  0  0  0  0  0  0  0  0  0
   91.4460   94.5140  -44.6740 N   0  0  0  0  0  0  0  0  0  0  0  0
   91.5940   93.5200  -43.8070 C   0  0  0  0  0  0  0  0  0  0  0  0
   91.7470   93.8220  -42.5070 N   0  0  0  0  0  0  0  0  0  0  0  0
   91.7440   95.1200  -42.1280 C   0  0  0  0  0  0  0  0  0  0  0  0
   91.8860   95.7110  -40.9280 N   0  0  0  0  0  0  0  0  0  0  0  0
   91.8230   97.0340  -41.0800 C   0  0  0  0  0  0  0  0  0  0  0  0
   91.6410   97.3380  -42.3770 N   0  0  0  0  0  0  0  0  0  0  0  0
   91.5890   96.1690  -43.0360 C   0  0  0  0  0  0  0  0  0  0  0  0
   91.5980   92.1360  -44.2160 N   0  0  0  0  0  0  0  0  0  0  0  0
   85.5790   97.8780  -43.1660 H   0  0  0  0  0  0  0  0  0  0  0  0
   87.9440   97.7200  -43.5550 H   0  0  0  0  0  0  0  0  0  0  0  0
   88.1800  101.9220  -44.4840 H   0  0  0  0  0  0  0  0  0  0  0  0
   85.7640  102.0500  -44.0800 H   0  0  0  0  0  0  0  0  0  0  0  0
   90.2380  100.6470  -44.1400 H   0  0  0  0  0  0  0  0  0  0  0  0
   90.1040   99.0180  -43.4620 H   0  0  0  0  0  0  0  0  0  0  0  0
   91.9520   99.9780  -45.3830 H   0  0  0  0  0  0  0  0  0  0  0  0
   91.5560   99.2700  -46.9560 H   0  0  0  0  0  0  0  0  0  0  0  0
   92.8350   97.9640  -44.5750 H   0  0  0  0  0  0  0  0  0  0  0  0
   92.8910   97.5720  -46.3120 H   0  0  0  0  0  0  0  0  0  0  0  0
   90.7330   97.2020  -47.3200 H   0  0  0  0  0  0  0  0  0  0  0  0
   89.7070   95.9540  -46.6540 H   0  0  0  0  0  0  0  0  0  0  0  0
   88.5230   97.7730  -45.2610 H   0  0  0  0  0  0  0  0  0  0  0  0
   88.8000   98.3370  -46.9370 H   0  0  0  0  0  0  0  0  0  0  0  0
   91.9110   97.7430  -40.2500 H   0  0  0  0  0  0  0  0  0  0  0  0
   91.5710   98.3110  -42.7460 H   0  0  0  0  0  0  0  0  0  0  0  0
   91.9920   91.8330  -45.1170 H   0  0  0  0  0  0  0  0  0  0  0  0
   91.1930   91.4130  -43.5890 H   0  0  0  0  0  0  0  0  0  0  0  0
  2  3  1  0  0  0  0
  2  1  1  0  0  0  0
  3 25  1  0  0  0  0
  4 26  1  0  0  0  0
  4  3  2  0  0  0  0
  5  4  1  0  0  0  0
  6  5  2  0  0  0  0
  6  7  1  0  0  0  0
  7  2  2  0  0  0  0
  8 29  1  0  0  0  0
  8  5  1  0  0  0  0
  8 30  1  0  0  0  0
  9  8  1  0  0  0  0
 10  9  1  0  0  0  0
 10 11  1  0  0  0  0
 10 31  1  0  0  0  0
 11 12  1  0  0  0  0
 11 33  1  0  0  0  0
 12 15  1  0  0  0  0
 13 14  1  0  0  0  0
 13 12  1  0  0  0  0
 14  9  1  0  0  0  0
 14 37  1  0  0  0  0
 15 23  2  0  0  0  0
 16 15  1  0  0  0  0
 16 17  2  0  0  0  0
 17 18  1  0  0  0  0
 18 19  2  0  0  0  0
 19 20  1  0  0  0  0
 21 20  2  0  0  0  0
 21 39  1  0  0  0  0
 22 21  1  0  0  0  0
 23 22  1  0  0  0  0
 23 19  1  0  0  0  0
 24 17  1  0  0  0  0
 24 42  1  0  0  0  0
 27  6  1  0  0  0  0
 28  7  1  0  0  0  0
 32 10  1  0  0  0  0
 34 11  1  0  0  0  0
 35 13  1  0  0  0  0
 36 13  1  0  0  0  0
 38 14  1  0  0  0  0
 40 22  1  0  0  0  0
 41 24  1  0  0  0  0
M  END
>  <Pose>
1

>  <Score>
-5.34

$$$$
