
 OpenBabel03212208273D

 42 45  0  0  0  0  0  0  0  0999 V2000
   90.2680  105.7620  -41.4990 Cl  0  0  0  0  0  0  0  0  0  0  0  0
   91.1040  104.2260  -41.2980 C   0  0  0  0  0  0  0  0  0  0  0  0
   92.4380  104.1250  -41.6040 C   0  0  0  0  0  0  0  0  0  0  0  0
   93.0800  102.9090  -41.4400 C   0  0  0  0  0  0  0  0  0  0  0  0
   92.4150  101.8060  -40.9780 C   0  0  0  0  0  0  0  0  0  0  0  0
   91.0790  101.9040  -40.6700 C   0  0  0  0  0  0  0  0  0  0  0  0
   90.4420  103.1080  -40.8330 C   0  0  0  0  0  0  0  0  0  0  0  0
   93.1860  100.5450  -40.8340 C   0  0  0  0  0  0  0  0  0  0  0  0
   92.6410   99.5810  -41.7890 N   0  0  0  0  0  0  0  0  0  0  0  0
   92.2610   99.7800  -43.0370 N   0  0  0  0  0  0  0  0  0  0  0  0
   91.8200   98.6630  -43.5850 N   0  0  0  0  0  0  0  0  0  0  0  0
   91.9060   97.6850  -42.6830 C   0  0  0  0  0  0  0  0  0  0  0  0
   92.4250   98.2640  -41.5450 C   0  0  0  0  0  0  0  0  0  0  0  0
   92.6110   97.4800  -40.4740 N   0  0  0  0  0  0  0  0  0  0  0  0
   92.3010   96.1720  -40.5110 C   0  0  0  0  0  0  0  0  0  0  0  0
   91.7960   95.6300  -41.6330 N   0  0  0  0  0  0  0  0  0  0  0  0
   91.5700   96.3390  -42.7700 C   0  0  0  0  0  0  0  0  0  0  0  0
   91.0420   95.7770  -43.9460 N   0  0  0  0  0  0  0  0  0  0  0  0
   91.5670   95.9150  -45.2780 C   0  0  0  0  0  0  0  0  0  0  0  0
   91.8890   94.5630  -45.7960 C   0  0  0  0  0  0  0  0  0  0  0  0
   91.3210   93.4540  -45.1540 N   0  0  0  0  0  0  0  0  0  0  0  0
   90.1880   93.6020  -44.3440 C   0  0  0  0  0  0  0  0  0  0  0  0
   89.8510   94.9670  -43.8730 C   0  0  0  0  0  0  0  0  0  0  0  0
   92.3530   92.7480  -44.4150 C   0  0  0  0  0  0  0  0  0  0  0  0
   92.9900  104.9780  -41.9710 H   0  0  0  0  0  0  0  0  0  0  0  0
   94.1400  102.8410  -41.6870 H   0  0  0  0  0  0  0  0  0  0  0  0
   90.5620  101.0450  -40.3110 H   0  0  0  0  0  0  0  0  0  0  0  0
   89.3760  103.2360  -40.6000 H   0  0  0  0  0  0  0  0  0  0  0  0
   94.2450  100.7090  -41.0660 H   0  0  0  0  0  0  0  0  0  0  0  0
   93.0910  100.1770  -39.7910 H   0  0  0  0  0  0  0  0  0  0  0  0
   92.4650   95.5700  -39.6290 H   0  0  0  0  0  0  0  0  0  0  0  0
   92.4610   96.5640  -45.3280 H   0  0  0  0  0  0  0  0  0  0  0  0
   90.8040   96.4150  -45.9130 H   0  0  0  0  0  0  0  0  0  0  0  0
   91.5740   94.5360  -46.8820 H   0  0  0  0  0  0  0  0  0  0  0  0
   93.0080   94.4470  -45.8560 H   0  0  0  0  0  0  0  0  0  0  0  0
   89.2900   93.2190  -44.9180 H   0  0  0  0  0  0  0  0  0  0  0  0
   90.2340   92.9120  -43.4530 H   0  0  0  0  0  0  0  0  0  0  0  0
   89.0470   95.4310  -44.4840 H   0  0  0  0  0  0  0  0  0  0  0  0
   89.4760   94.9160  -42.8130 H   0  0  0  0  0  0  0  0  0  0  0  0
   93.3740   93.1560  -44.6550 H   0  0  0  0  0  0  0  0  0  0  0  0
   92.2080   92.9200  -43.3270 H   0  0  0  0  0  0  0  0  0  0  0  0
   92.3870   91.6730  -44.6700 H   0  0  0  0  0  0  0  0  0  0  0  0
  1  2  1  0  0  0  0
  2  7  1  0  0  0  0
  3  4  1  0  0  0  0
  3  2  2  0  0  0  0
  4  5  2  0  0  0  0
  5  8  1  0  0  0  0
  5  6  1  0  0  0  0
  6 27  1  0  0  0  0
  7  6  2  0  0  0  0
  7 28  1  0  0  0  0
  8 30  1  0  0  0  0
  9 13  1  0  0  0  0
  9  8  1  0  0  0  0
 10  9  1  0  0  0  0
 11 10  2  0  0  0  0
 11 12  1  0  0  0  0
 12 13  2  0  0  0  0
 13 14  1  0  0  0  0
 15 14  2  0  0  0  0
 15 31  1  0  0  0  0
 16 15  1  0  0  0  0
 17 12  1  0  0  0  0
 17 16  2  0  0  0  0
 18 23  1  0  0  0  0
 18 17  1  0  0  0  0
 19 18  1  0  0  0  0
 20 19  1  0  0  0  0
 20 21  1  0  0  0  0
 21 24  1  0  0  0  0
 21 22  1  0  0  0  0
 22 23  1  0  0  0  0
 22 37  1  0  0  0  0
 23 39  1  0  0  0  0
 24 41  1  0  0  0  0
 25  3  1  0  0  0  0
 26  4  1  0  0  0  0
 29  8  1  0  0  0  0
 32 19  1  0  0  0  0
 33 19  1  0  0  0  0
 34 20  1  0  0  0  0
 35 20  1  0  0  0  0
 36 22  1  0  0  0  0
 38 23  1  0  0  0  0
 40 24  1  0  0  0  0
 42 24  1  0  0  0  0
M  END
>  <Pose>
1

>  <Score>
-3.85

$$$$
