
 OpenBabel03212208273D

 54 57  0  0  0  0  0  0  0  0999 V2000
   86.1210  100.7320  -43.1350 B   0  0  0  0  0  0  0  0  0  0  0  0
   87.9480  100.2010  -43.2360 C   0  0  0  0  0  0  0  0  0  0  0  0
   88.3670   99.2710  -44.1610 C   0  0  0  0  0  0  0  0  0  0  0  0
   89.6850   98.8880  -44.2350 C   0  0  0  0  0  0  0  0  0  0  0  0
   90.5770   99.4620  -43.3560 C   0  0  0  0  0  0  0  0  0  0  0  0
   90.1650  100.4070  -42.4120 C   0  0  0  0  0  0  0  0  0  0  0  0
   88.8350  100.7890  -42.3430 C   0  0  0  0  0  0  0  0  0  0  0  0
   91.9030   99.0570  -43.4520 O   0  0  0  0  0  0  0  0  0  0  0  0
   92.8620   99.6960  -44.2630 C   0  0  0  0  0  0  0  0  0  0  0  0
   90.1410   97.9050  -45.2110 C   0  0  0  0  0  0  0  0  0  0  0  0
   89.5960   96.7560  -45.3550 N   0  0  0  0  0  0  0  0  0  0  0  0
   90.0200   95.8030  -46.2830 N   0  0  0  0  0  0  0  0  0  0  0  0
   90.7050   94.6150  -45.9070 C   0  0  0  0  0  0  0  0  0  0  0  0
   91.3060   94.4580  -44.7080 N   0  0  0  0  0  4  0  0  0  0  0  0
   91.9420   93.3260  -44.3840 C   0  0  0  0  0  0  0  0  0  0  0  0
   91.9760   92.3320  -45.2850 N   0  0  0  0  0  0  0  0  0  0  0  0
   91.3940   92.4210  -46.5110 C   0  0  0  0  0  0  0  0  0  0  0  0
   90.7640   93.6000  -46.7700 N   0  0  0  0  0  0  0  0  0  0  0  0
   91.4320   91.3750  -47.4500 N   0  0  0  0  0  0  0  0  0  0  0  0
   92.2820   90.2370  -47.2640 C   0  0  0  0  0  0  0  0  0  0  0  0
   93.1150   90.0890  -48.5360 C   0  0  0  0  0  0  0  0  0  0  0  0
   92.2270   89.9940  -49.5930 O   0  0  0  0  0  0  0  0  0  0  0  0
   91.5290   91.1570  -49.8160 C   0  0  0  0  0  0  0  0  0  0  0  0
   90.6130   91.4360  -48.6250 C   0  0  0  0  0  0  0  0  0  0  0  0
   92.5740   93.1600  -43.1220 N   0  0  0  0  0  0  0  0  0  0  0  0
   91.8850   93.4010  -41.8740 C   0  0  0  0  0  0  0  0  0  0  0  0
   92.7740   94.1430  -40.8880 C   0  0  0  0  0  0  0  0  0  0  0  0
   94.0560   93.5830  -40.8650 O   0  0  0  0  0  0  0  0  0  0  0  0
   94.6700   93.6670  -42.0920 C   0  0  0  0  0  0  0  0  0  0  0  0
   93.9540   92.7370  -43.0470 C   0  0  0  0  0  0  0  0  0  0  0  0
   87.6700   98.8050  -44.8680 H   0  0  0  0  0  0  0  0  0  0  0  0
   90.8890  100.8500  -41.7240 H   0  0  0  0  0  0  0  0  0  0  0  0
   88.5410  101.5190  -41.6090 H   0  0  0  0  0  0  0  0  0  0  0  0
   92.8330   99.1870  -45.2600 H   0  0  0  0  0  0  0  0  0  0  0  0
   92.7240  100.7860  -44.3300 H   0  0  0  0  0  0  0  0  0  0  0  0
   93.8730   99.4940  -43.8410 H   0  0  0  0  0  0  0  0  0  0  0  0
   90.9780   98.1390  -45.8530 H   0  0  0  0  0  0  0  0  0  0  0  0
   89.8050   96.0090  -47.2960 H   0  0  0  0  0  0  0  0  0  0  0  0
   92.9430   90.3540  -46.3670 H   0  0  0  0  0  0  0  0  0  0  0  0
   91.6550   89.3190  -47.1790 H   0  0  0  0  0  0  0  0  0  0  0  0
   93.6440   89.1200  -48.4360 H   0  0  0  0  0  0  0  0  0  0  0  0
   93.8340   90.9050  -48.6360 H   0  0  0  0  0  0  0  0  0  0  0  0
   92.2030   92.0430  -49.8980 H   0  0  0  0  0  0  0  0  0  0  0  0
   90.9130   91.0400  -50.7140 H   0  0  0  0  0  0  0  0  0  0  0  0
   90.0920   92.4040  -48.7430 H   0  0  0  0  0  0  0  0  0  0  0  0
   89.8920   90.5840  -48.6040 H   0  0  0  0  0  0  0  0  0  0  0  0
   91.7250   92.3830  -41.4140 H   0  0  0  0  0  0  0  0  0  0  0  0
   90.9460   93.9480  -41.9970 H   0  0  0  0  0  0  0  0  0  0  0  0
   92.7780   95.2030  -41.1740 H   0  0  0  0  0  0  0  0  0  0  0  0
   92.3540   93.9640  -39.8650 H   0  0  0  0  0  0  0  0  0  0  0  0
   94.6290   94.7220  -42.4330 H   0  0  0  0  0  0  0  0  0  0  0  0
   95.7250   93.4050  -41.9720 H   0  0  0  0  0  0  0  0  0  0  0  0
   93.9830   91.7340  -42.6110 H   0  0  0  0  0  0  0  0  0  0  0  0
   94.4240   92.7220  -44.0440 H   0  0  0  0  0  0  0  0  0  0  0  0
  2  1  1  0  0  0  0
  2  7  1  0  0  0  0
  3  2  2  0  0  0  0
  4  3  1  0  0  0  0
  4  5  2  0  0  0  0
  5  6  1  0  0  0  0
  6  7  2  0  0  0  0
  6 32  1  0  0  0  0
  7 33  1  0  0  0  0
  8  5  1  0  0  0  0
  9 36  1  0  0  0  0
  9  8  1  0  0  0  0
 10  4  1  0  0  0  0
 11 10  2  0  0  0  0
 12 13  1  0  0  0  0
 12 11  1  0  0  0  0
 13 14  2  0  0  0  0
 14 15  2  0  0  0  0
 15 25  1  0  0  0  0
 16 15  1  0  0  0  0
 17 16  2  0  0  0  0
 18 17  1  0  0  0  0
 18 13  1  0  0  0  0
 19 20  1  0  0  0  0
 19 17  1  0  0  0  0
 20 40  1  0  0  0  0
 20 39  1  0  0  0  0
 21 41  1  0  0  0  0
 21 20  1  0  0  0  0
 22 21  1  0  0  0  0
 23 22  1  0  0  0  0
 23 24  1  0  0  0  0
 24 46  1  0  0  0  0
 24 19  1  0  0  0  0
 25 30  1  0  0  0  0
 25 26  1  0  0  0  0
 26 47  1  0  0  0  0
 26 27  1  0  0  0  0
 27 28  1  0  0  0  0
 27 50  1  0  0  0  0
 29 52  1  0  0  0  0
 29 28  1  0  0  0  0
 30 53  1  0  0  0  0
 30 29  1  0  0  0  0
 31  3  1  0  0  0  0
 34  9  1  0  0  0  0
 35  9  1  0  0  0  0
 37 10  1  0  0  0  0
 38 12  1  0  0  0  0
 42 21  1  0  0  0  0
 43 23  1  0  0  0  0
 44 23  1  0  0  0  0
 45 24  1  0  0  0  0
 48 26  1  0  0  0  0
 49 27  1  0  0  0  0
 51 29  1  0  0  0  0
 54 30  1  0  0  0  0
M  END
>  <Pose>
1

>  <Score>
-6.01

$$$$
