
 OpenBabel03212208273D

 38 41  0  0  1  0  0  0  0  0999 V2000
   90.9590   87.0140  -49.0300 B   0  0  0  0  0  0  0  0  0  0  0  0
   91.0030   88.9150  -48.8990 C   0  0  0  0  0  0  0  0  0  0  0  0
   91.6380   89.5480  -47.8570 C   0  0  0  0  0  0  0  0  0  0  0  0
   91.6890   90.9450  -47.7310 C   0  0  0  0  0  0  0  0  0  0  0  0
   91.0640   91.6610  -48.7130 C   0  0  0  0  0  0  0  0  0  0  0  0
   90.4220   91.0080  -49.7680 C   0  0  0  0  0  0  0  0  0  0  0  0
   90.3880   89.6540  -49.8650 C   0  0  0  0  0  0  0  0  0  0  0  0
   92.3620   91.5100  -46.6310 N   0  0  0  0  0  0  0  0  0  0  0  0
   91.7470   92.1510  -45.5440 C   0  0  0  0  0  0  0  0  0  0  0  0
   91.7380   91.7450  -44.3730 O   0  0  0  0  0  0  0  0  0  0  0  0
   91.0190   93.4470  -45.7760 C   0  0  2  0  0  0  0  0  0  0  0  0
   91.8610   94.6720  -45.5270 C   0  0  0  0  0  0  0  0  0  0  0  0
   91.3250   94.7980  -44.1630 N   0  0  2  0  0  0  0  0  0  0  0  0
   90.2360   93.9420  -44.5950 C   0  0  0  0  0  0  0  0  0  0  0  0
   91.7590   95.4860  -42.9960 C   0  0  2  0  0  0  0  0  0  0  0  0
   92.1810   94.8280  -41.8860 N   0  0  0  0  0  0  0  0  0  0  0  0
   92.5930   95.5120  -40.7780 C   0  0  0  0  0  0  0  0  0  0  0  0
   92.5940   96.8480  -40.7500 N   0  0  0  0  0  0  0  0  0  0  0  0
   92.1920   97.5580  -41.8050 C   0  0  0  0  0  0  0  0  0  0  0  0
   92.1000   98.8850  -42.0230 N   0  0  0  0  0  0  0  0  0  0  0  0
   91.6390   99.0290  -43.2460 N   0  0  0  0  0  0  0  0  0  0  0  0
   91.4340   97.8350  -43.8140 N   0  0  0  0  0  0  0  0  0  0  0  0
   91.7760   96.8650  -42.9240 C   0  0  0  0  0  0  0  0  0  0  0  0
   92.4370   99.9730  -41.1090 C   0  0  0  0  0  0  0  0  0  0  0  0
   92.1200   88.9390  -47.1020 H   0  0  0  0  0  0  0  0  0  0  0  0
   91.0550   92.7540  -48.6930 H   0  0  0  0  0  0  0  0  0  0  0  0
   89.9360   91.6350  -50.5280 H   0  0  0  0  0  0  0  0  0  0  0  0
   89.8800   89.1680  -50.6970 H   0  0  0  0  0  0  0  0  0  0  0  0
   93.4450   91.4330  -46.6420 H   0  0  0  0  0  0  0  0  0  0  0  0
   90.5230   93.5010  -46.7600 H   0  0  0  0  0  0  0  0  0  0  0  0
   92.9540   94.4980  -45.4420 H   0  0  0  0  0  0  0  0  0  0  0  0
   91.5940   95.5630  -46.1020 H   0  0  0  0  0  0  0  0  0  0  0  0
   89.9800   93.1270  -43.8860 H   0  0  0  0  0  0  0  0  0  0  0  0
   89.3570   94.5540  -44.8420 H   0  0  0  0  0  0  0  0  0  0  0  0
   92.9150   94.9230  -39.9330 H   0  0  0  0  0  0  0  0  0  0  0  0
   92.7580  100.8750  -41.6550 H   0  0  0  0  0  0  0  0  0  0  0  0
   93.3180   99.6860  -40.4630 H   0  0  0  0  0  0  0  0  0  0  0  0
   91.6230  100.2090  -40.4220 H   0  0  0  0  0  0  0  0  0  0  0  0
  1  2  1  0  0  0  0
  2  3  1  0  0  0  0
  3  4  2  0  0  0  0
  3 25  1  0  0  0  0
  4  8  1  0  0  0  0
  5 26  1  0  0  0  0
  5  4  1  0  0  0  0
  6  5  2  0  0  0  0
  7  6  1  0  0  0  0
  7  2  2  0  0  0  0
  8  9  1  0  0  0  0
  9 10  2  0  0  0  0
 11 30  1  6  0  0  0
 11  9  1  0  0  0  0
 11 12  1  0  0  0  0
 11 14  1  0  0  0  0
 12 31  1  0  0  0  0
 13 12  1  6  0  0  0
 13 15  1  0  0  0  0
 14 13  1  0  0  0  0
 14 33  1  0  0  0  0
 15 23  1  1  0  0  0
 15 16  1  0  0  0  0
 16 17  2  0  0  0  0
 17 18  1  0  0  0  0
 17 35  1  0  0  0  0
 19 18  1  0  0  0  0
 20 19  1  0  0  0  0
 20 24  1  0  0  0  0
 21 20  1  0  0  0  0
 22 21  2  0  0  0  0
 22 23  1  0  0  0  0
 23 19  2  0  0  0  0
 24 37  1  0  0  0  0
 24 38  1  0  0  0  0
 27  6  1  0  0  0  0
 28  7  1  0  0  0  0
 29  8  1  0  0  0  0
 32 12  1  0  0  0  0
 34 14  1  0  0  0  0
 36 24  1  0  0  0  0
M  END
>  <Pose>
1

>  <Score>
-6.17

$$$$
