
 OpenBabel03212208273D

 52 56  0  0  0  0  0  0  0  0999 V2000
   91.8270   92.9380  -42.8490 Cl  0  0  0  0  0  0  0  0  0  0  0  0
   91.8340   94.4970  -43.6540 C   0  0  0  0  0  0  0  0  0  0  0  0
   91.9690   94.6010  -45.0320 C   0  0  0  0  0  0  0  0  0  0  0  0
   91.9720   95.8380  -45.6470 C   0  0  0  0  0  0  0  0  0  0  0  0
   91.8440   97.0110  -44.9350 C   0  0  0  0  0  0  0  0  0  0  0  0
   91.7080   96.8910  -43.5470 C   0  0  0  0  0  0  0  0  0  0  0  0
   91.7030   95.6600  -42.9240 C   0  0  0  0  0  0  0  0  0  0  0  0
   91.8470   98.3190  -45.5790 C   0  0  0  0  0  0  0  0  0  0  0  0
   92.9400   98.8800  -45.8180 O   0  0  0  0  0  0  0  0  0  0  0  0
   90.5490   98.9240  -45.9220 C   0  0  0  0  0  0  0  0  0  0  0  0
   89.8020   99.3850  -44.7750 N   0  0  0  0  0  0  0  0  0  0  0  0
   88.5810   99.0920  -44.3810 N   0  0  0  0  0  0  0  0  0  0  0  0
   88.2550   99.7330  -43.2500 C   0  0  0  0  0  0  0  0  0  0  0  0
   87.0080   99.4200  -42.8650 N   0  0  0  0  0  0  0  0  0  0  0  0
   86.4810   98.5490  -43.7530 C   0  0  0  0  0  0  0  0  0  0  0  0
   87.4870   98.3510  -44.7060 C   0  0  0  0  0  0  0  0  0  0  0  0
   87.1660   97.4760  -45.7220 C   0  0  0  0  0  0  0  0  0  0  0  0
   88.0480   97.2630  -46.6070 O   0  0  0  0  0  0  0  0  0  0  0  0
   85.9690   96.8400  -45.8200 N   0  0  0  0  0  0  0  0  0  0  0  0
   85.0570   97.0850  -44.8670 C   0  0  0  0  0  0  0  0  0  0  0  0
   83.9410   96.4790  -44.9760 O   0  0  0  0  0  0  0  0  0  0  0  0
   85.2970   97.9210  -43.8470 N   0  0  0  0  0  0  0  0  0  0  0  0
   84.2770   98.1390  -42.8570 C   0  0  0  0  0  0  0  0  0  0  0  0
   85.7110   95.9390  -46.9190 C   0  0  0  0  0  0  0  0  0  0  0  0
   89.3520  100.4650  -42.9300 N   0  0  0  0  0  0  0  0  0  0  0  0
   90.3030  100.2610  -43.8510 C   0  0  0  0  0  0  0  0  0  0  0  0
   91.6100  100.8230  -43.9110 N   0  0  0  0  0  0  0  0  0  0  0  0
   92.6810  100.3650  -43.0420 C   0  0  0  0  0  0  0  0  0  0  0  0
   93.4790  101.5750  -42.6210 C   0  0  0  0  0  0  0  0  0  0  0  0
   93.9320  102.2690  -43.7540 O   0  0  0  0  0  0  0  0  0  0  0  0
   92.8960  102.8740  -44.4310 C   0  0  0  0  0  0  0  0  0  0  0  0
   91.8850  101.8700  -44.8600 C   0  0  0  0  0  0  0  0  0  0  0  0
   92.0720   93.7050  -45.6150 H   0  0  0  0  0  0  0  0  0  0  0  0
   92.0770   95.9210  -46.7210 H   0  0  0  0  0  0  0  0  0  0  0  0
   91.6030   97.7700  -42.9370 H   0  0  0  0  0  0  0  0  0  0  0  0
   91.5990   95.5580  -41.8430 H   0  0  0  0  0  0  0  0  0  0  0  0
   89.9380   98.3390  -46.5950 H   0  0  0  0  0  0  0  0  0  0  0  0
   90.8240   99.8440  -46.5270 H   0  0  0  0  0  0  0  0  0  0  0  0
   83.2830   97.9510  -43.3320 H   0  0  0  0  0  0  0  0  0  0  0  0
   84.3380   99.1930  -42.4860 H   0  0  0  0  0  0  0  0  0  0  0  0
   84.4420   97.4990  -41.9730 H   0  0  0  0  0  0  0  0  0  0  0  0
   86.2710   94.9810  -46.7570 H   0  0  0  0  0  0  0  0  0  0  0  0
   86.1540   96.3760  -47.8500 H   0  0  0  0  0  0  0  0  0  0  0  0
   84.6490   95.7870  -47.1150 H   0  0  0  0  0  0  0  0  0  0  0  0
   93.3590   99.6610  -43.5690 H   0  0  0  0  0  0  0  0  0  0  0  0
   92.2830   99.8870  -42.1170 H   0  0  0  0  0  0  0  0  0  0  0  0
   92.9690  102.2280  -41.9120 H   0  0  0  0  0  0  0  0  0  0  0  0
   94.4090  101.1980  -42.1210 H   0  0  0  0  0  0  0  0  0  0  0  0
   92.3790  103.6490  -43.8040 H   0  0  0  0  0  0  0  0  0  0  0  0
   93.3280  103.3350  -45.3460 H   0  0  0  0  0  0  0  0  0  0  0  0
   92.1170  101.3990  -45.8410 H   0  0  0  0  0  0  0  0  0  0  0  0
   90.9220  102.4250  -45.0420 H   0  0  0  0  0  0  0  0  0  0  0  0
  2  7  1  0  0  0  0
  2  1  1  0  0  0  0
  3  2  2  0  0  0  0
  4  3  1  0  0  0  0
  4  5  2  0  0  0  0
  5  6  1  0  0  0  0
  6 35  1  0  0  0  0
  6  7  2  0  0  0  0
  7 36  1  0  0  0  0
  8  5  1  0  0  0  0
  9  8  2  0  0  0  0
 10  8  1  0  0  0  0
 10 11  1  0  0  0  0
 11 12  1  0  0  0  0
 11 26  1  0  0  0  0
 12 13  1  0  0  0  0
 13 25  1  0  0  0  0
 13 14  2  0  0  0  0
 15 14  1  0  0  0  0
 16 12  1  0  0  0  0
 16 15  2  0  0  0  0
 17 16  1  0  0  0  0
 18 17  2  0  0  0  0
 19 17  1  0  0  0  0
 19 20  1  0  0  0  0
 20 22  1  0  0  0  0
 21 20  2  0  0  0  0
 22 15  1  0  0  0  0
 22 23  1  0  0  0  0
 23 40  1  0  0  0  0
 23 41  1  0  0  0  0
 24 42  1  0  0  0  0
 24 19  1  0  0  0  0
 26 25  2  0  0  0  0
 27 26  1  0  0  0  0
 27 28  1  0  0  0  0
 28 29  1  0  0  0  0
 28 46  1  0  0  0  0
 29 48  1  0  0  0  0
 29 47  1  0  0  0  0
 30 29  1  0  0  0  0
 31 49  1  0  0  0  0
 31 30  1  0  0  0  0
 32 31  1  0  0  0  0
 32 27  1  0  0  0  0
 33  3  1  0  0  0  0
 34  4  1  0  0  0  0
 37 10  1  0  0  0  0
 38 10  1  0  0  0  0
 39 23  1  0  0  0  0
 43 24  1  0  0  0  0
 44 24  1  0  0  0  0
 45 28  1  0  0  0  0
 50 31  1  0  0  0  0
 51 32  1  0  0  0  0
 52 32  1  0  0  0  0
M  END
>  <Pose>
1

>  <Score>
-5.19

$$$$
