
 OpenBabel03212208273D

 49 52  0  0  0  0  0  0  0  0999 V2000
   84.9920   97.5500  -43.6960 Cl  0  0  0  0  0  0  0  0  0  0  0  0
   85.8210   99.0590  -43.2990 C   0  0  0  0  0  0  0  0  0  0  0  0
   87.1810   99.1730  -43.1890 C   0  0  0  0  0  0  0  0  0  0  0  0
   87.7630  100.3650  -42.9320 C   0  0  0  0  0  0  0  0  0  0  0  0
   87.0140  101.4980  -42.7730 C   0  0  0  0  0  0  0  0  0  0  0  0
   85.6070  101.3830  -42.8830 C   0  0  0  0  0  0  0  0  0  0  0  0
   85.0040  100.1840  -43.1380 C   0  0  0  0  0  0  0  0  0  0  0  0
   83.5960  100.1000  -43.2170 O   0  0  0  0  0  0  0  0  0  0  0  0
   87.5410  102.6680  -42.5500 O   0  0  0  0  0  0  0  0  0  0  0  0
   88.8600  102.7990  -42.4690 C   0  0  0  0  0  0  0  0  0  0  0  0
   89.3390  103.9210  -42.2560 O   0  0  0  0  0  0  0  0  0  0  0  0
   89.7040  101.6810  -42.6220 C   0  0  0  0  0  0  0  0  0  0  0  0
   89.1890  100.4530  -42.8520 C   0  0  0  0  0  0  0  0  0  0  0  0
   89.8470   99.1390  -42.9420 C   0  0  0  0  0  0  0  0  0  0  0  0
   90.9940   98.9240  -43.7100 N   0  0  0  0  0  4  0  0  0  0  0  0
   91.0310   98.3080  -44.9470 C   0  0  0  0  0  0  0  0  0  0  0  0
   92.2780   97.3630  -45.0530 C   0  0  0  0  0  0  0  0  0  0  0  0
   91.7900   96.2630  -44.0910 N   0  0  0  0  0  0  0  0  0  0  0  0
   91.7490   96.7050  -42.7840 C   0  0  0  0  0  0  0  0  0  0  0  0
   91.9820   98.2320  -42.8330 C   0  0  0  0  0  0  0  0  0  0  0  0
   91.4270   95.0780  -44.7680 C   0  0  0  0  0  0  0  0  0  0  0  0
   90.6320   94.9820  -45.8560 C   0  0  0  0  0  0  0  0  0  0  0  0
   90.5310   93.7770  -46.6080 C   0  0  0  0  0  0  0  0  0  0  0  0
   91.2360   92.6550  -46.2630 C   0  0  0  0  0  0  0  0  0  0  0  0
   92.0510   92.7410  -45.1390 C   0  0  0  0  0  0  0  0  0  0  0  0
   92.1400   93.9170  -44.4110 C   0  0  0  0  0  0  0  0  0  0  0  0
   91.1020   91.5030  -47.0270 O   0  0  0  0  0  0  0  0  0  0  0  0
   92.2400   90.6810  -47.3300 C   0  0  0  0  0  0  0  0  0  0  0  0
   87.7390   98.2860  -43.3240 H   0  0  0  0  0  0  0  0  0  0  0  0
   84.9980  102.2700  -42.7560 H   0  0  0  0  0  0  0  0  0  0  0  0
   90.7580  101.8470  -42.4930 H   0  0  0  0  0  0  0  0  0  0  0  0
   89.3020   98.2550  -42.5940 H   0  0  0  0  0  0  0  0  0  0  0  0
   90.4540   99.2470  -41.8530 H   0  0  0  0  0  0  0  0  0  0  0  0
   91.4550   99.8850  -43.8180 H   0  0  0  0  0  0  0  0  0  0  0  0
   90.2170   97.5700  -45.2010 H   0  0  0  0  0  0  0  0  0  0  0  0
   91.1000   98.9430  -45.8630 H   0  0  0  0  0  0  0  0  0  0  0  0
   93.1860   97.6960  -44.7410 H   0  0  0  0  0  0  0  0  0  0  0  0
   92.1890   96.9710  -46.0680 H   0  0  0  0  0  0  0  0  0  0  0  0
   90.7340   96.5080  -42.3490 H   0  0  0  0  0  0  0  0  0  0  0  0
   92.4890   96.3030  -42.0450 H   0  0  0  0  0  0  0  0  0  0  0  0
   92.9610   98.4340  -43.2030 H   0  0  0  0  0  0  0  0  0  0  0  0
   91.9310   98.6840  -41.8190 H   0  0  0  0  0  0  0  0  0  0  0  0
   90.0500   95.8670  -46.1410 H   0  0  0  0  0  0  0  0  0  0  0  0
   89.8900   93.7810  -47.4630 H   0  0  0  0  0  0  0  0  0  0  0  0
   92.6310   91.8760  -44.8310 H   0  0  0  0  0  0  0  0  0  0  0  0
   92.7440   93.9300  -43.5390 H   0  0  0  0  0  0  0  0  0  0  0  0
   92.4700   90.8060  -48.4460 H   0  0  0  0  0  0  0  0  0  0  0  0
   92.1370   89.6400  -47.0430 H   0  0  0  0  0  0  0  0  0  0  0  0
   93.1770   91.0520  -46.8650 H   0  0  0  0  0  0  0  0  0  0  0  0
  1  2  1  0  0  0  0
  2  3  2  0  0  0  0
  2  7  1  0  0  0  0
  3  4  1  0  0  0  0
  4 13  1  0  0  0  0
  4  5  2  0  0  0  0
  5  9  1  0  0  0  0
  6  5  1  0  0  0  0
  6 30  1  0  0  0  0
  7  6  2  0  0  0  0
  8  7  1  0  0  0  0
  9 10  1  0  0  0  0
 10 11  2  0  0  0  0
 12 31  1  0  0  0  0
 12 10  1  0  0  0  0
 13 12  2  0  0  0  0
 14 13  1  0  0  0  0
 14 32  1  0  0  0  0
 14 33  1  0  0  0  0
 15 14  1  0  0  0  0
 15 20  1  0  0  0  0
 16 15  1  0  0  0  0
 17 16  1  0  0  0  0
 17 37  1  0  0  0  0
 17 18  1  0  0  0  0
 18 19  1  0  0  0  0
 19 39  1  0  0  0  0
 19 40  1  0  0  0  0
 20 19  1  0  0  0  0
 20 42  1  0  0  0  0
 21 26  1  0  0  0  0
 21 18  1  0  0  0  0
 22 21  2  0  0  0  0
 23 24  2  0  0  0  0
 23 22  1  0  0  0  0
 24 25  1  0  0  0  0
 25 45  1  0  0  0  0
 25 26  2  0  0  0  0
 26 46  1  0  0  0  0
 27 24  1  0  0  0  0
 28 48  1  0  0  0  0
 28 27  1  0  0  0  0
 28 49  1  0  0  0  0
 29  3  1  0  0  0  0
 34 15  1  0  0  0  0
 35 16  1  0  0  0  0
 36 16  1  0  0  0  0
 38 17  1  0  0  0  0
 41 20  1  0  0  0  0
 43 22  1  0  0  0  0
 44 23  1  0  0  0  0
 47 28  1  0  0  0  0
M  END
>  <Pose>
1

>  <Score>
-5.21

$$$$
