
 OpenBabel03212208273D

 54 57  0  0  1  0  0  0  0  0999 V2000
   92.3370   99.2760  -42.8090 S   0  0  0  0  0  0  0  0  0  0  0  0
   92.6730   97.9280  -42.1570 O   0  0  0  0  0  0  0  0  0  0  0  0
   93.5040   99.5350  -43.7310 O   0  0  0  0  0  0  0  0  0  0  0  0
   90.8710   99.0910  -43.6150 N   0  0  0  0  0  0  0  0  0  0  0  0
   90.5880   97.6720  -43.9110 C   0  0  0  0  0  0  0  0  0  0  0  0
   91.6070   97.2150  -44.8880 C   0  0  2  0  0  0  0  0  0  0  0  0
   91.8620   97.9790  -45.9660 O   0  0  0  0  0  0  0  0  0  0  0  0
   91.4750   99.2630  -45.9930 C   0  0  0  0  0  0  0  0  0  0  0  0
   90.6640   99.7600  -44.8470 C   0  0  0  0  0  0  0  0  0  0  0  0
   91.1960   95.8540  -45.3430 C   0  0  0  0  0  0  0  0  0  0  0  0
   90.6490   95.7670  -46.4750 O   0  0  0  0  0  0  0  0  0  0  0  0
   91.3750   94.6710  -44.6030 N   0  0  0  0  0  0  0  0  0  0  0  0
   90.9920   94.5110  -43.2130 C   0  0  0  0  0  0  0  0  0  0  0  0
   91.2440   93.0630  -42.8410 C   0  0  0  0  0  0  0  0  0  0  0  0
   92.6390   92.6880  -42.9700 N   0  0  0  0  0  0  0  0  0  0  0  0
   93.1280   93.1020  -44.2470 C   0  0  0  0  0  0  0  0  0  0  0  0
   91.9850   93.4730  -45.2000 C   0  0  0  0  0  0  0  0  0  0  0  0
   93.3500   93.2070  -41.8470 C   0  0  0  0  0  0  0  0  0  0  0  0
   94.3650   92.2560  -41.2740 C   0  0  0  0  0  0  0  0  0  0  0  0
   95.6990   92.9270  -40.9480 C   0  0  0  0  0  0  0  0  0  0  0  0
   95.5770   91.8660  -41.9970 C   0  0  0  0  0  0  0  0  0  0  0  0
   92.2840  100.4210  -41.5080 C   0  0  0  0  0  0  0  0  0  0  0  0
   91.1830  101.2190  -41.2850 C   0  0  0  0  0  0  0  0  0  0  0  0
   91.1550  102.1740  -40.2870 C   0  0  0  0  0  0  0  0  0  0  0  0
   92.2520  102.3440  -39.4810 C   0  0  0  0  0  0  0  0  0  0  0  0
   93.3690  101.5480  -39.6890 C   0  0  0  0  0  0  0  0  0  0  0  0
   93.3920  100.6060  -40.6790 C   0  0  0  0  0  0  0  0  0  0  0  0
   89.6980  100.9940  -42.2290 Cl  0  0  0  0  0  0  0  0  0  0  0  0
   89.5980   97.6350  -44.3640 H   0  0  0  0  0  0  0  0  0  0  0  0
   90.6300   97.0510  -43.0170 H   0  0  0  0  0  0  0  0  0  0  0  0
   92.6020   97.0410  -44.3700 H   0  0  0  0  0  0  0  0  0  0  0  0
   90.8670   99.4240  -46.9360 H   0  0  0  0  0  0  0  0  0  0  0  0
   92.3520   99.9210  -46.1240 H   0  0  0  0  0  0  0  0  0  0  0  0
   90.6740  100.8410  -44.7230 H   0  0  0  0  0  0  0  0  0  0  0  0
   89.5630   99.5450  -45.1070 H   0  0  0  0  0  0  0  0  0  0  0  0
   91.5360   95.2120  -42.5770 H   0  0  0  0  0  0  0  0  0  0  0  0
   89.9000   94.6640  -43.0850 H   0  0  0  0  0  0  0  0  0  0  0  0
   90.9310   92.9340  -41.7640 H   0  0  0  0  0  0  0  0  0  0  0  0
   90.5630   92.4410  -43.4270 H   0  0  0  0  0  0  0  0  0  0  0  0
   93.6630   92.2740  -44.7260 H   0  0  0  0  0  0  0  0  0  0  0  0
   93.7410   94.0230  -44.1500 H   0  0  0  0  0  0  0  0  0  0  0  0
   92.4740   93.8050  -46.1380 H   0  0  0  0  0  0  0  0  0  0  0  0
   91.2700   92.6610  -45.3280 H   0  0  0  0  0  0  0  0  0  0  0  0
   93.7790   94.1930  -42.0970 H   0  0  0  0  0  0  0  0  0  0  0  0
   92.5950   93.4020  -41.0420 H   0  0  0  0  0  0  0  0  0  0  0  0
   93.9900   91.5740  -40.4840 H   0  0  0  0  0  0  0  0  0  0  0  0
   95.8610   93.9700  -41.2650 H   0  0  0  0  0  0  0  0  0  0  0  0
   96.1950   92.6750  -39.9950 H   0  0  0  0  0  0  0  0  0  0  0  0
   96.0530   90.9050  -41.7440 H   0  0  0  0  0  0  0  0  0  0  0  0
   95.8080   92.2120  -43.0220 H   0  0  0  0  0  0  0  0  0  0  0  0
   90.2910  102.8040  -40.1120 H   0  0  0  0  0  0  0  0  0  0  0  0
   92.2190  103.0920  -38.7060 H   0  0  0  0  0  0  0  0  0  0  0  0
   94.2070  101.7170  -39.0300 H   0  0  0  0  0  0  0  0  0  0  0  0
   94.2580   99.9770  -40.8530 H   0  0  0  0  0  0  0  0  0  0  0  0
  1  2  2  0  0  0  0
  1 22  1  0  0  0  0
  3  1  2  0  0  0  0
  4  1  1  0  0  0  0
  5  4  1  0  0  0  0
  5 30  1  0  0  0  0
  6 31  1  1  0  0  0
  6  5  1  0  0  0  0
  7  6  1  0  0  0  0
  8  7  1  0  0  0  0
  8  9  1  0  0  0  0
  9 34  1  0  0  0  0
  9  4  1  0  0  0  0
 10  6  1  0  0  0  0
 10 12  1  0  0  0  0
 11 10  2  0  0  0  0
 12 13  1  0  0  0  0
 13 37  1  0  0  0  0
 13 14  1  0  0  0  0
 13 36  1  0  0  0  0
 14 38  1  0  0  0  0
 15 14  1  0  0  0  0
 15 18  1  0  0  0  0
 16 41  1  0  0  0  0
 16 15  1  0  0  0  0
 17 12  1  0  0  0  0
 17 16  1  0  0  0  0
 18 19  1  0  0  0  0
 18 45  1  0  0  0  0
 19 20  1  0  0  0  0
 19 46  1  0  0  0  0
 20 48  1  0  0  0  0
 21 49  1  0  0  0  0
 21 19  1  0  0  0  0
 21 20  1  0  0  0  0
 22 23  2  0  0  0  0
 22 27  1  0  0  0  0
 23 24  1  0  0  0  0
 24 51  1  0  0  0  0
 24 25  2  0  0  0  0
 25 52  1  0  0  0  0
 26 25  1  0  0  0  0
 26 53  1  0  0  0  0
 27 26  2  0  0  0  0
 28 23  1  0  0  0  0
 29  5  1  0  0  0  0
 32  8  1  0  0  0  0
 33  8  1  0  0  0  0
 35  9  1  0  0  0  0
 39 14  1  0  0  0  0
 40 16  1  0  0  0  0
 42 17  1  0  0  0  0
 43 17  1  0  0  0  0
 44 18  1  0  0  0  0
 47 20  1  0  0  0  0
 50 21  1  0  0  0  0
 54 27  1  0  0  0  0
M  END
>  <Pose>
1

>  <Score>
-3.42

$$$$
