
 OpenBabel03212208273D

 46 49  0  0  1  0  0  0  0  0999 V2000
   92.7490   93.2880  -42.4030 Cl  0  0  0  0  0  0  0  0  0  0  0  0
   92.0350   93.5940  -43.9710 C   0  0  0  0  0  0  0  0  0  0  0  0
   91.5950   94.8960  -44.2550 C   0  0  0  0  0  0  0  0  0  0  0  0
   91.0310   95.1670  -45.4740 C   0  0  0  0  0  0  0  0  0  0  0  0
   90.9270   94.1070  -46.3800 C   0  0  0  0  0  0  0  0  0  0  0  0
   91.3610   92.8320  -46.0900 C   0  0  0  0  0  0  0  0  0  0  0  0
   91.9310   92.5540  -44.8620 C   0  0  0  0  0  0  0  0  0  0  0  0
   91.2190   91.5150  -47.2470 Cl  0  0  0  0  0  0  0  0  0  0  0  0
   90.5430   96.5010  -45.8560 C   0  0  2  0  0  0  0  0  0  0  0  0
   90.7460   97.4720  -44.7670 C   0  0  0  0  0  0  0  0  0  0  0  0
   91.3080   97.1810  -43.5640 C   0  0  0  0  0  0  0  0  0  0  0  0
   91.4730   98.1200  -42.5870 N   0  0  0  0  0  0  0  0  0  0  0  0
   91.0590   99.3580  -42.8470 C   0  0  0  0  0  0  0  0  0  0  0  0
   91.1920  100.2670  -41.9670 O   0  0  0  0  0  0  0  0  0  0  0  0
   90.4960   99.6900  -44.0270 N   0  0  0  0  0  0  0  0  0  0  0  0
   90.3310   98.7780  -44.9910 C   0  0  0  0  0  0  0  0  0  0  0  0
   89.8060   99.0870  -46.0920 O   0  0  0  0  0  0  0  0  0  0  0  0
   90.0660  101.0630  -44.2510 C   0  0  0  0  0  0  0  0  0  0  0  0
   92.0750   97.7770  -41.3170 C   0  0  0  0  0  0  0  0  0  0  0  0
   91.7270   95.9030  -43.3170 O   0  0  0  0  0  0  0  0  0  0  0  0
   89.1080   96.4540  -46.2910 C   0  0  0  0  0  0  0  0  0  0  0  0
   88.0720   96.5140  -45.3900 C   0  0  0  0  0  0  0  0  0  0  0  0
   86.7800   96.4640  -45.7480 N   0  0  0  0  0  0  0  0  0  0  0  0
   86.4880   96.3480  -47.0570 C   0  0  0  0  0  0  0  0  0  0  0  0
   85.2660   96.3000  -47.3830 O   0  0  0  0  0  0  0  0  0  0  0  0
   87.4700   96.2850  -47.9740 N   0  0  0  0  0  0  0  0  0  0  0  0
   88.7660   96.3350  -47.6370 C   0  0  0  0  0  0  0  0  0  0  0  0
   89.7030   96.2790  -48.4690 O   0  0  0  0  0  0  0  0  0  0  0  0
   87.1050   96.1590  -49.3660 C   0  0  0  0  0  0  0  0  0  0  0  0
   85.7090   96.5340  -44.7720 C   0  0  0  0  0  0  0  0  0  0  0  0
   88.3730   96.6330  -44.0490 O   0  0  0  0  0  0  0  0  0  0  0  0
   90.4810   94.3150  -47.3460 H   0  0  0  0  0  0  0  0  0  0  0  0
   92.2820   91.5680  -44.6030 H   0  0  0  0  0  0  0  0  0  0  0  0
   91.1170   96.8930  -46.7440 H   0  0  0  0  0  0  0  0  0  0  0  0
   90.2160  101.6620  -43.3120 H   0  0  0  0  0  0  0  0  0  0  0  0
   89.0210  101.1390  -44.5870 H   0  0  0  0  0  0  0  0  0  0  0  0
   90.6900  101.5810  -45.0130 H   0  0  0  0  0  0  0  0  0  0  0  0
   92.2240   96.6710  -41.2340 H   0  0  0  0  0  0  0  0  0  0  0  0
   91.4280   98.0540  -40.4590 H   0  0  0  0  0  0  0  0  0  0  0  0
   93.0730   98.2500  -41.2620 H   0  0  0  0  0  0  0  0  0  0  0  0
   87.7960   96.7430  -49.9910 H   0  0  0  0  0  0  0  0  0  0  0  0
   86.0760   96.5250  -49.5630 H   0  0  0  0  0  0  0  0  0  0  0  0
   87.0820   95.0740  -49.6790 H   0  0  0  0  0  0  0  0  0  0  0  0
   85.1150   97.4610  -45.0300 H   0  0  0  0  0  0  0  0  0  0  0  0
   84.9820   95.6970  -44.8750 H   0  0  0  0  0  0  0  0  0  0  0  0
   86.0810   96.6810  -43.7570 H   0  0  0  0  0  0  0  0  0  0  0  0
  2  1  1  0  0  0  0
  3  2  1  0  0  0  0
  3 20  1  0  0  0  0
  4  3  2  0  0  0  0
  5  6  2  0  0  0  0
  5  4  1  0  0  0  0
  6  7  1  0  0  0  0
  7 33  1  0  0  0  0
  7  2  2  0  0  0  0
  8  6  1  0  0  0  0
  9 34  1  6  0  0  0
  9  4  1  0  0  0  0
  9 10  1  0  0  0  0
 10 11  2  0  0  0  0
 11 20  1  0  0  0  0
 11 12  1  0  0  0  0
 12 19  1  0  0  0  0
 13 12  1  0  0  0  0
 13 14  2  0  0  0  0
 15 13  1  0  0  0  0
 16 10  1  0  0  0  0
 16 15  1  0  0  0  0
 17 16  2  0  0  0  0
 18 15  1  0  0  0  0
 18 35  1  0  0  0  0
 19 40  1  0  0  0  0
 19 38  1  0  0  0  0
 19 39  1  0  0  0  0
 21  9  1  0  0  0  0
 21 22  1  0  0  0  0
 22 31  2  0  0  0  0
 23 22  1  0  0  0  0
 23 30  1  0  0  0  0
 24 23  1  0  0  0  0
 25 24  2  0  0  0  0
 26 27  1  0  0  0  0
 26 24  1  0  0  0  0
 27 21  1  0  0  0  0
 28 27  2  0  0  0  0
 29 26  1  0  0  0  0
 30 46  1  0  0  0  0
 32  5  1  0  0  0  0
 36 18  1  0  0  0  0
 37 18  1  0  0  0  0
 41 29  1  0  0  0  0
 42 29  1  0  0  0  0
 43 29  1  0  0  0  0
 44 30  1  0  0  0  0
 45 30  1  0  0  0  0
M  END
>  <Pose>
1

>  <Score>
-4.49

$$$$
