
 OpenBabel03212208273D

 53 56  0  0  0  0  0  0  0  0999 V2000
   93.6500  101.1810  -40.3910 Cl  0  0  0  0  0  0  0  0  0  0  0  0
   92.7910  100.1700  -41.5260 C   0  0  0  0  0  0  0  0  0  0  0  0
   92.3090  100.6660  -42.7150 C   0  0  0  0  0  0  0  0  0  0  0  0
   91.6380   99.8880  -43.6100 C   0  0  0  0  0  0  0  0  0  0  0  0
   91.3960   98.5190  -43.3670 C   0  0  0  0  0  0  0  0  0  0  0  0
   91.8980   98.0300  -42.1420 C   0  0  0  0  0  0  0  0  0  0  0  0
   92.5650   98.8370  -41.2700 C   0  0  0  0  0  0  0  0  0  0  0  0
   90.7650   97.7310  -44.1760 O   0  0  0  0  0  0  0  0  0  0  0  0
   90.1120   96.9420  -44.9520 C   0  0  0  0  0  0  0  0  0  0  0  0
   90.6390   95.6720  -45.4870 C   0  0  0  0  0  0  0  0  0  0  0  0
   90.9240   95.7140  -46.7590 O   0  0  0  0  0  0  0  0  0  0  0  0
   90.8740   94.4610  -44.8550 N   0  0  0  0  0  0  0  0  0  0  0  0
   92.2980   94.0550  -44.6470 C   0  0  0  0  0  0  0  0  0  0  0  0
   92.3520   92.5780  -44.9480 C   0  0  0  0  0  0  0  0  0  0  0  0
   91.2430   92.1210  -45.7650 N   0  0  0  0  0  0  0  0  0  0  0  0
   89.9210   92.2620  -45.2170 C   0  0  0  0  0  0  0  0  0  0  0  0
   89.9350   93.5010  -44.3370 C   0  0  0  0  0  0  0  0  0  0  0  0
   91.4830   91.5710  -47.0420 C   0  0  0  0  0  0  0  0  0  0  0  0
   91.1530   90.2800  -47.3280 N   0  0  0  0  0  0  0  0  0  0  0  0
   91.3560   89.7190  -48.5120 C   0  0  0  0  0  0  0  0  0  0  0  0
   91.9230   90.4880  -49.4770 N   0  0  0  0  0  0  0  0  0  0  0  0
   92.2700   91.7460  -49.2760 C   0  0  0  0  0  0  0  0  0  0  0  0
   92.0550   92.3290  -48.0310 C   0  0  0  0  0  0  0  0  0  0  0  0
   91.0200   88.3790  -48.8250 N   0  0  0  0  0  0  0  0  0  0  0  0
   89.6480   88.0400  -49.1890 C   0  0  0  0  0  0  0  0  0  0  0  0
   89.2590   86.8910  -48.2530 C   0  0  0  0  0  0  0  0  0  0  0  0
   90.0940   85.8240  -48.4470 O   0  0  0  0  0  0  0  0  0  0  0  0
   91.4140   86.0570  -48.1420 C   0  0  0  0  0  0  0  0  0  0  0  0
   91.9720   87.2960  -48.8050 C   0  0  0  0  0  0  0  0  0  0  0  0
   92.4990  101.7260  -42.8980 H   0  0  0  0  0  0  0  0  0  0  0  0
   91.2800  100.2860  -44.5250 H   0  0  0  0  0  0  0  0  0  0  0  0
   91.7190   96.9770  -41.9430 H   0  0  0  0  0  0  0  0  0  0  0  0
   92.9410   98.4330  -40.3360 H   0  0  0  0  0  0  0  0  0  0  0  0
   89.7690   97.5030  -45.9170 H   0  0  0  0  0  0  0  0  0  0  0  0
   89.0500   96.6500  -44.5710 H   0  0  0  0  0  0  0  0  0  0  0  0
   92.4810   94.2480  -43.5710 H   0  0  0  0  0  0  0  0  0  0  0  0
   92.9550   94.6520  -45.3160 H   0  0  0  0  0  0  0  0  0  0  0  0
   92.2360   92.0230  -43.9700 H   0  0  0  0  0  0  0  0  0  0  0  0
   93.3160   92.2770  -45.4370 H   0  0  0  0  0  0  0  0  0  0  0  0
   89.1120   92.2870  -45.9520 H   0  0  0  0  0  0  0  0  0  0  0  0
   89.7040   91.3590  -44.5730 H   0  0  0  0  0  0  0  0  0  0  0  0
   90.3800   93.1250  -43.3560 H   0  0  0  0  0  0  0  0  0  0  0  0
   88.9590   93.8770  -44.0600 H   0  0  0  0  0  0  0  0  0  0  0  0
   92.7260   92.3470  -50.0690 H   0  0  0  0  0  0  0  0  0  0  0  0
   92.3400   93.3680  -47.8740 H   0  0  0  0  0  0  0  0  0  0  0  0
   88.9600   88.8930  -49.0440 H   0  0  0  0  0  0  0  0  0  0  0  0
   89.6660   87.6520  -50.2060 H   0  0  0  0  0  0  0  0  0  0  0  0
   89.2860   87.2920  -47.2120 H   0  0  0  0  0  0  0  0  0  0  0  0
   88.2330   86.6110  -48.4960 H   0  0  0  0  0  0  0  0  0  0  0  0
   91.6050   86.1310  -47.0490 H   0  0  0  0  0  0  0  0  0  0  0  0
   92.0090   85.1950  -48.5110 H   0  0  0  0  0  0  0  0  0  0  0  0
   92.8810   87.5810  -48.2340 H   0  0  0  0  0  0  0  0  0  0  0  0
   92.2910   87.0480  -49.8300 H   0  0  0  0  0  0  0  0  0  0  0  0
  2  7  1  0  0  0  0
  2  1  1  0  0  0  0
  3  2  2  0  0  0  0
  4  5  2  0  0  0  0
  4  3  1  0  0  0  0
  5  6  1  0  0  0  0
  6 32  1  0  0  0  0
  6  7  2  0  0  0  0
  7 33  1  0  0  0  0
  8  5  1  0  0  0  0
  9 35  1  0  0  0  0
  9  8  1  0  0  0  0
 10  9  1  0  0  0  0
 10 12  1  0  0  0  0
 11 10  2  0  0  0  0
 12 13  1  0  0  0  0
 12 17  1  0  0  0  0
 13 36  1  0  0  0  0
 14 13  1  0  0  0  0
 14 38  1  0  0  0  0
 15 16  1  0  0  0  0
 15 14  1  0  0  0  0
 16 41  1  0  0  0  0
 16 17  1  0  0  0  0
 17 43  1  0  0  0  0
 17 42  1  0  0  0  0
 18 15  1  0  0  0  0
 19 18  1  0  0  0  0
 20 19  2  0  0  0  0
 21 22  2  0  0  0  0
 21 20  1  0  0  0  0
 22 23  1  0  0  0  0
 23 45  1  0  0  0  0
 23 18  2  0  0  0  0
 24 29  1  0  0  0  0
 24 20  1  0  0  0  0
 25 46  1  0  0  0  0
 25 24  1  0  0  0  0
 25 26  1  0  0  0  0
 26 48  1  0  0  0  0
 27 26  1  0  0  0  0
 27 28  1  0  0  0  0
 28 50  1  0  0  0  0
 29 52  1  0  0  0  0
 29 28  1  0  0  0  0
 30  3  1  0  0  0  0
 31  4  1  0  0  0  0
 34  9  1  0  0  0  0
 37 13  1  0  0  0  0
 39 14  1  0  0  0  0
 40 16  1  0  0  0  0
 44 22  1  0  0  0  0
 47 25  1  0  0  0  0
 49 26  1  0  0  0  0
 51 28  1  0  0  0  0
 53 29  1  0  0  0  0
M  END
>  <Pose>
1

>  <Score>
-4.64

$$$$
