
 OpenBabel03212208273D

 45 49  0  0  0  0  0  0  0  0999 V2000
   91.6380   91.1690  -46.5990 Cl  0  0  0  0  0  0  0  0  0  0  0  0
   91.6590   92.6660  -45.7190 C   0  0  0  0  0  0  0  0  0  0  0  0
   92.3060   92.7400  -44.5110 C   0  0  0  0  0  0  0  0  0  0  0  0
   92.3240   93.9240  -43.8090 C   0  0  0  0  0  0  0  0  0  0  0  0
   91.7070   95.0580  -44.2850 C   0  0  0  0  0  0  0  0  0  0  0  0
   91.0670   94.9540  -45.4990 C   0  0  0  0  0  0  0  0  0  0  0  0
   91.0370   93.7740  -46.2180 C   0  0  0  0  0  0  0  0  0  0  0  0
   91.6940   96.3060  -43.6080 N   0  0  0  0  0  0  0  0  0  0  0  0
   91.2690   96.5520  -42.3810 N   0  0  0  0  0  0  0  0  0  0  0  0
   91.3990   97.8250  -42.0650 N   0  0  0  0  0  0  0  0  0  0  0  0
   91.9310   98.4870  -43.1070 C   0  0  0  0  0  0  0  0  0  0  0  0
   92.1100   97.5130  -44.0690 C   0  0  0  0  0  0  0  0  0  0  0  0
   92.6420   97.8890  -45.2540 N   0  0  0  0  0  0  0  0  0  0  0  0
   92.9720   99.1790  -45.4490 C   0  0  0  0  0  0  0  0  0  0  0  0
   92.7940  100.1310  -44.5000 N   0  0  0  0  0  0  0  0  0  0  0  0
   92.2690   99.8100  -43.3030 C   0  0  0  0  0  0  0  0  0  0  0  0
   92.0740  100.8000  -42.2930 N   0  0  0  0  0  0  0  0  0  0  0  0
   90.7700  101.4340  -42.2510 C   0  0  0  0  0  0  0  0  0  0  0  0
   90.4760  101.9820  -40.8570 C   0  0  0  0  0  0  0  0  0  0  0  0
   91.6470  102.4930  -40.2420 N   0  0  0  0  0  0  0  0  0  0  0  0
   92.6910  101.4460  -40.0150 C   0  0  0  0  0  0  0  0  0  0  0  0
   93.1630  101.0850  -41.4110 C   0  0  0  0  0  0  0  0  0  0  0  0
   91.8810  103.8060  -39.8690 C   0  0  0  0  0  0  0  0  0  0  0  0
   92.1010  104.6250  -40.8830 O   0  0  0  0  0  0  0  0  0  0  0  0
   91.9330  104.4750  -38.5780 C   0  0  0  0  0  0  0  0  0  0  0  0
   90.9170  104.1300  -37.5560 C   0  0  0  0  0  0  0  0  0  0  0  0
   92.3940  103.9250  -37.3070 C   0  0  0  0  0  0  0  0  0  0  0  0
   92.7940   91.8300  -44.1390 H   0  0  0  0  0  0  0  0  0  0  0  0
   92.8410   93.9460  -42.8640 H   0  0  0  0  0  0  0  0  0  0  0  0
   90.5700   95.8380  -45.9010 H   0  0  0  0  0  0  0  0  0  0  0  0
   90.5050   93.7790  -47.1770 H   0  0  0  0  0  0  0  0  0  0  0  0
   93.4030   99.4750  -46.4150 H   0  0  0  0  0  0  0  0  0  0  0  0
   90.7000  102.2080  -43.0350 H   0  0  0  0  0  0  0  0  0  0  0  0
   89.9820  100.6860  -42.4650 H   0  0  0  0  0  0  0  0  0  0  0  0
   90.1810  101.0720  -40.2220 H   0  0  0  0  0  0  0  0  0  0  0  0
   89.5870  102.5740  -40.9090 H   0  0  0  0  0  0  0  0  0  0  0  0
   93.5040  101.8350  -39.4070 H   0  0  0  0  0  0  0  0  0  0  0  0
   92.1890  100.5760  -39.5910 H   0  0  0  0  0  0  0  0  0  0  0  0
   93.8000  101.9410  -41.7470 H   0  0  0  0  0  0  0  0  0  0  0  0
   93.8370  100.2090  -41.3060 H   0  0  0  0  0  0  0  0  0  0  0  0
   92.1340  105.6120  -38.6740 H   0  0  0  0  0  0  0  0  0  0  0  0
   90.2250  103.2880  -37.6990 H   0  0  0  0  0  0  0  0  0  0  0  0
   90.4300  104.9420  -36.9540 H   0  0  0  0  0  0  0  0  0  0  0  0
   92.8790  104.6610  -36.5790 H   0  0  0  0  0  0  0  0  0  0  0  0
   92.7100  102.9160  -37.0880 H   0  0  0  0  0  0  0  0  0  0  0  0
  1  2  1  0  0  0  0
  2  3  1  0  0  0  0
  3 28  1  0  0  0  0
  3  4  2  0  0  0  0
  4 29  1  0  0  0  0
  5  4  1  0  0  0  0
  5  8  1  0  0  0  0
  6  5  2  0  0  0  0
  7  2  2  0  0  0  0
  7  6  1  0  0  0  0
  8  9  1  0  0  0  0
  9 10  2  0  0  0  0
 11 10  1  0  0  0  0
 12  8  1  0  0  0  0
 12 11  2  0  0  0  0
 13 12  1  0  0  0  0
 14 13  2  0  0  0  0
 14 15  1  0  0  0  0
 15 16  2  0  0  0  0
 16 11  1  0  0  0  0
 16 17  1  0  0  0  0
 17 18  1  0  0  0  0
 17 22  1  0  0  0  0
 18 19  1  0  0  0  0
 19 20  1  0  0  0  0
 19 35  1  0  0  0  0
 20 21  1  0  0  0  0
 20 23  1  0  0  0  0
 21 38  1  0  0  0  0
 21 37  1  0  0  0  0
 22 40  1  0  0  0  0
 22 21  1  0  0  0  0
 23 25  1  0  0  0  0
 24 23  2  0  0  0  0
 25 26  1  0  0  0  0
 25 27  1  0  0  0  0
 26 27  1  0  0  0  0
 26 43  1  0  0  0  0
 27 45  1  0  0  0  0
 27 44  1  0  0  0  0
 30  6  1  0  0  0  0
 31  7  1  0  0  0  0
 32 14  1  0  0  0  0
 33 18  1  0  0  0  0
 34 18  1  0  0  0  0
 36 19  1  0  0  0  0
 39 22  1  0  0  0  0
 41 25  1  0  0  0  0
 42 26  1  0  0  0  0
M  END
>  <Pose>
1

>  <Score>
-5.28

$$$$
