
 OpenBabel03212208273D

 45 48  0  0  0  0  0  0  0  0999 V2000
   91.7750   85.8810  -48.4180 Cl  0  0  0  0  0  0  0  0  0  0  0  0
   90.2550   86.7050  -48.6900 C   0  0  0  0  0  0  0  0  0  0  0  0
   89.0940   86.0390  -48.4140 C   0  0  0  0  0  0  0  0  0  0  0  0
   87.8700   86.6170  -48.6020 C   0  0  0  0  0  0  0  0  0  0  0  0
   87.8300   87.9000  -49.0810 C   0  0  0  0  0  0  0  0  0  0  0  0
   89.0270   88.5800  -49.3640 C   0  0  0  0  0  0  0  0  0  0  0  0
   90.2570   88.0130  -49.1810 C   0  0  0  0  0  0  0  0  0  0  0  0
   91.4970   88.6170  -49.4270 N   0  0  0  0  0  0  0  0  0  0  0  0
   91.7960   89.9600  -49.1880 C   0  0  0  0  0  0  0  0  0  0  0  0
   92.5350   90.3360  -48.2670 O   0  0  0  0  0  0  0  0  0  0  0  0
   91.2250   91.0270  -50.0570 C   0  0  0  0  0  0  0  0  0  0  0  0
   89.9960   91.3950  -49.8630 N   0  0  0  0  0  0  0  0  0  0  0  0
   89.3860   92.3850  -50.6310 N   0  0  0  0  0  0  0  0  0  0  0  0
   90.1280   93.0100  -51.6530 C   0  0  0  0  0  0  0  0  0  0  0  0
   89.5560   93.9710  -52.2710 O   0  0  0  0  0  0  0  0  0  0  0  0
   91.4990   92.5950  -52.0120 C   0  0  0  0  0  0  0  0  0  0  0  0
   91.9900   91.6420  -51.0790 N   0  0  0  0  0  0  0  0  0  0  0  0
   88.0100   92.7650  -50.3890 C   0  0  0  0  0  0  0  0  0  0  0  0
   86.9710   91.9010  -50.6350 C   0  0  0  0  0  0  0  0  0  0  0  0
   85.6500   92.2910  -50.3900 C   0  0  0  0  0  0  0  0  0  0  0  0
   85.3630   93.5490  -49.8990 C   0  0  0  0  0  0  0  0  0  0  0  0
   86.4140   94.4030  -49.6590 C   0  0  0  0  0  0  0  0  0  0  0  0
   87.6990   94.0160  -49.9000 C   0  0  0  0  0  0  0  0  0  0  0  0
   83.9720   94.0120  -49.6160 C   0  0  0  0  0  0  0  0  0  0  0  0
   86.6260   88.5620  -49.3020 O   0  0  0  0  0  0  0  0  0  0  0  0
   85.3910   88.1230  -48.7150 C   0  0  0  0  0  0  0  0  0  0  0  0
   85.4170   86.6420  -48.5310 C   0  0  0  0  0  0  0  0  0  0  0  0
   84.3320   86.0170  -48.5760 O   0  0  0  0  0  0  0  0  0  0  0  0
   86.6390   85.9460  -48.3100 N   0  0  0  0  0  0  0  0  0  0  0  0
   89.0830   85.0070  -48.0270 H   0  0  0  0  0  0  0  0  0  0  0  0
   88.9510   89.5920  -49.7400 H   0  0  0  0  0  0  0  0  0  0  0  0
   92.2710   87.9990  -49.8280 H   0  0  0  0  0  0  0  0  0  0  0  0
   91.4580   92.0740  -53.0130 H   0  0  0  0  0  0  0  0  0  0  0  0
   92.1640   93.4770  -52.1320 H   0  0  0  0  0  0  0  0  0  0  0  0
   93.0020   91.3560  -51.1390 H   0  0  0  0  0  0  0  0  0  0  0  0
   87.1920   90.9130  -51.0200 H   0  0  0  0  0  0  0  0  0  0  0  0
   84.8480   91.6160  -50.5810 H   0  0  0  0  0  0  0  0  0  0  0  0
   86.1760   95.4040  -49.2670 H   0  0  0  0  0  0  0  0  0  0  0  0
   88.5020   94.7200  -49.6950 H   0  0  0  0  0  0  0  0  0  0  0  0
   83.7810   95.0210  -50.0220 H   0  0  0  0  0  0  0  0  0  0  0  0
   83.2130   93.3260  -50.0070 H   0  0  0  0  0  0  0  0  0  0  0  0
   83.8340   94.0610  -48.5060 H   0  0  0  0  0  0  0  0  0  0  0  0
   85.3750   88.5770  -47.6880 H   0  0  0  0  0  0  0  0  0  0  0  0
   84.5370   88.4610  -49.3130 H   0  0  0  0  0  0  0  0  0  0  0  0
   86.6390   84.9720  -47.9470 H   0  0  0  0  0  0  0  0  0  0  0  0
  2  1  1  0  0  0  0
  2  3  1  0  0  0  0
  3 30  1  0  0  0  0
  4  3  2  0  0  0  0
  4 29  1  0  0  0  0
  5  4  1  0  0  0  0
  6  7  1  0  0  0  0
  6  5  2  0  0  0  0
  7  2  2  0  0  0  0
  8  9  1  0  0  0  0
  8  7  1  0  0  0  0
  9 10  2  0  0  0  0
 11 12  2  0  0  0  0
 11  9  1  0  0  0  0
 13 18  1  0  0  0  0
 13 12  1  0  0  0  0
 14 13  1  0  0  0  0
 15 14  2  0  0  0  0
 16 14  1  0  0  0  0
 16 17  1  0  0  0  0
 17 11  1  0  0  0  0
 18 23  1  0  0  0  0
 19 20  1  0  0  0  0
 19 18  2  0  0  0  0
 20 21  2  0  0  0  0
 21 22  1  0  0  0  0
 21 24  1  0  0  0  0
 22 38  1  0  0  0  0
 23 39  1  0  0  0  0
 23 22  2  0  0  0  0
 24 42  1  0  0  0  0
 25  5  1  0  0  0  0
 25 26  1  0  0  0  0
 26 27  1  0  0  0  0
 26 43  1  0  0  0  0
 27 29  1  0  0  0  0
 28 27  2  0  0  0  0
 29 45  1  0  0  0  0
 31  6  1  0  0  0  0
 32  8  1  0  0  0  0
 33 16  1  0  0  0  0
 34 16  1  0  0  0  0
 35 17  1  0  0  0  0
 36 19  1  0  0  0  0
 37 20  1  0  0  0  0
 40 24  1  0  0  0  0
 41 24  1  0  0  0  0
 44 26  1  0  0  0  0
M  END
>  <Pose>
1

>  <Score>
-5.21

$$$$
