
 OpenBabel03212208273D

 41 44  0  0  1  0  0  0  0  0999 V2000
   92.6050   99.7080  -44.2570 S   0  0  0  0  0  0  0  0  0  0  0  0
   92.9130  100.8970  -43.3580 O   0  0  0  0  0  0  0  0  0  0  0  0
   93.9760   99.1450  -44.6170 O   0  0  0  0  0  0  0  0  0  0  0  0
   91.7540   98.5120  -43.4440 N   0  0  0  0  0  0  0  0  0  0  0  0
   92.3360   97.9560  -42.2890 C   0  0  0  0  0  0  0  0  0  0  0  0
   91.6240   96.7180  -41.7780 C   0  0  0  0  0  0  0  0  0  0  0  0
   91.5240   95.7910  -42.9440 C   0  0  1  0  0  0  0  0  0  0  0  0
   91.0880   96.3390  -44.1330 C   0  0  0  0  0  0  0  0  0  0  0  0
   90.9760   95.5640  -45.2120 N   0  0  0  0  0  0  0  0  0  0  0  0
   91.2970   94.2590  -45.0990 C   0  0  2  0  0  0  0  0  0  0  0  0
   91.7250   93.7000  -43.9530 N   0  0  0  0  0  0  0  0  0  0  0  0
   91.9680   92.3900  -44.1390 N   0  0  0  0  0  0  0  0  0  0  0  0
   91.7080   92.0510  -45.4110 C   0  0  0  0  0  0  0  0  0  0  0  0
   91.2880   93.2070  -46.0250 C   0  0  0  0  0  0  0  0  0  0  0  0
   91.8500   94.4570  -42.8400 C   0  0  0  0  0  0  0  0  0  0  0  0
   92.2430   93.9920  -41.7400 O   0  0  0  0  0  0  0  0  0  0  0  0
   90.7660   97.7860  -44.1270 C   0  0  0  0  0  0  0  0  0  0  0  0
   91.8840  100.3300  -45.6910 C   0  0  0  0  0  0  0  0  0  0  0  0
   90.7190  101.0910  -45.6320 C   0  0  0  0  0  0  0  0  0  0  0  0
   90.1680  101.5710  -46.8000 C   0  0  0  0  0  0  0  0  0  0  0  0
   90.7200  101.3300  -48.0150 C   0  0  0  0  0  0  0  0  0  0  0  0
   91.8630  100.5870  -48.1070 C   0  0  0  0  0  0  0  0  0  0  0  0
   92.4160  100.1050  -46.9390 C   0  0  0  0  0  0  0  0  0  0  0  0
   92.6050  100.2570  -49.6760 Cl  0  0  0  0  0  0  0  0  0  0  0  0
   90.0960  101.3820  -44.4420 O   0  0  0  0  0  0  0  0  0  0  0  0
   89.0900  100.5180  -43.9650 C   0  0  0  0  0  0  0  0  0  0  0  0
   92.3490   98.7230  -41.4750 H   0  0  0  0  0  0  0  0  0  0  0  0
   93.4110   97.7080  -42.4890 H   0  0  0  0  0  0  0  0  0  0  0  0
   90.6230   97.0190  -41.3990 H   0  0  0  0  0  0  0  0  0  0  0  0
   92.2500   96.2990  -40.9710 H   0  0  0  0  0  0  0  0  0  0  0  0
   92.3100   91.7530  -43.3840 H   0  0  0  0  0  0  0  0  0  0  0  0
   91.7980   91.0770  -45.8920 H   0  0  0  0  0  0  0  0  0  0  0  0
   90.9790   93.3550  -47.0710 H   0  0  0  0  0  0  0  0  0  0  0  0
   89.7980   97.8770  -43.5510 H   0  0  0  0  0  0  0  0  0  0  0  0
   90.5630   98.1920  -45.1170 H   0  0  0  0  0  0  0  0  0  0  0  0
   89.2470  102.1760  -46.7880 H   0  0  0  0  0  0  0  0  0  0  0  0
   90.2750  101.7150  -48.9420 H   0  0  0  0  0  0  0  0  0  0  0  0
   93.3360   99.5130  -47.0760 H   0  0  0  0  0  0  0  0  0  0  0  0
   88.2940  100.3620  -44.7250 H   0  0  0  0  0  0  0  0  0  0  0  0
   89.4980   99.5050  -43.7190 H   0  0  0  0  0  0  0  0  0  0  0  0
   88.6640  100.8960  -43.0040 H   0  0  0  0  0  0  0  0  0  0  0  0
  1  4  1  0  0  0  0
  1  2  2  0  0  0  0
  3  1  2  0  0  0  0
  4  5  1  0  0  0  0
  5  6  1  0  0  0  0
  5 27  1  0  0  0  0
  6 29  1  0  0  0  0
  6 30  1  0  0  0  0
  7  8  1  6  0  0  0
  7 15  1  0  0  0  0
  7  6  1  0  0  0  0
  8 17  1  0  0  0  0
  9 10  1  0  0  0  0
  9  8  2  0  0  0  0
 10 14  1  6  0  0  0
 10 11  1  0  0  0  0
 11 15  1  0  0  0  0
 12 11  1  0  0  0  0
 12 31  1  0  0  0  0
 13 12  1  0  0  0  0
 14 13  2  0  0  0  0
 15 16  2  0  0  0  0
 17 34  1  0  0  0  0
 17  4  1  0  0  0  0
 18 19  1  0  0  0  0
 18  1  1  0  0  0  0
 19 25  1  0  0  0  0
 20 36  1  0  0  0  0
 20 19  2  0  0  0  0
 21 20  1  0  0  0  0
 22 21  2  0  0  0  0
 22 23  1  0  0  0  0
 23 18  2  0  0  0  0
 24 22  1  0  0  0  0
 25 26  1  0  0  0  0
 26 40  1  0  0  0  0
 26 41  1  0  0  0  0
 28  5  1  0  0  0  0
 32 13  1  0  0  0  0
 33 14  1  0  0  0  0
 35 17  1  0  0  0  0
 37 21  1  0  0  0  0
 38 23  1  0  0  0  0
 39 26  1  0  0  0  0
M  END
>  <Pose>
1

>  <Score>
-4.76

$$$$
