
 OpenBabel03212208273D

 41 44  0  0  1  0  0  0  0  0999 V2000
   89.5680   97.4510  -46.7710 S   0  0  0  0  0  0  0  0  0  0  0  0
   89.8430   98.8120  -47.3690 O   0  0  0  0  0  0  0  0  0  0  0  0
   89.2060   96.5450  -47.9100 O   0  0  0  0  0  0  0  0  0  0  0  0
   90.9290   96.9110  -45.9710 N   0  0  0  0  0  0  0  0  0  0  0  0
   90.8510   95.7600  -45.1890 C   0  0  0  0  0  0  0  0  0  0  0  0
   91.6950   95.8170  -43.9370 C   0  0  0  0  0  0  0  0  0  0  0  0
   91.9090   97.1920  -43.4290 C   0  0  2  0  0  0  0  0  0  0  0  0
   92.0620   98.1850  -44.3660 C   0  0  0  0  0  0  0  0  0  0  0  0
   92.2610   99.4570  -44.0010 N   0  0  0  0  0  0  0  0  0  0  0  0
   92.3120   99.7730  -42.6650 C   0  0  1  0  0  0  0  0  0  0  0  0
   92.1600   98.7840  -41.7600 N   0  0  0  0  0  0  0  0  0  0  0  0
   92.2500   99.3450  -40.5510 N   0  0  0  0  0  0  0  0  0  0  0  0
   92.4530  100.6520  -40.6630 C   0  0  0  0  0  0  0  0  0  0  0  0
   92.5010  100.9750  -42.0180 C   0  0  0  0  0  0  0  0  0  0  0  0
   91.9590   97.4970  -42.0690 C   0  0  0  0  0  0  0  0  0  0  0  0
   91.8170   96.5790  -41.2260 O   0  0  0  0  0  0  0  0  0  0  0  0
   91.9990   97.8200  -45.7910 C   0  0  0  0  0  0  0  0  0  0  0  0
   88.1520   97.6270  -45.7580 C   0  0  0  0  0  0  0  0  0  0  0  0
   86.9610   96.9690  -46.0120 C   0  0  0  0  0  0  0  0  0  0  0  0
   85.8700   97.1460  -45.1750 C   0  0  0  0  0  0  0  0  0  0  0  0
   85.9150   97.9660  -44.0720 C   0  0  0  0  0  0  0  0  0  0  0  0
   87.1000   98.6220  -43.8180 C   0  0  0  0  0  0  0  0  0  0  0  0
   88.1840   98.4460  -44.6500 C   0  0  0  0  0  0  0  0  0  0  0  0
   84.7980   98.1300  -43.2370 O   0  0  0  0  0  0  0  0  0  0  0  0
   84.0380   99.3220  -43.3100 C   0  0  0  0  0  0  0  0  0  0  0  0
   84.3700   96.3050  -45.5120 Cl  0  0  0  0  0  0  0  0  0  0  0  0
   89.7950   95.4690  -44.9470 H   0  0  0  0  0  0  0  0  0  0  0  0
   91.2640   94.8930  -45.7880 H   0  0  0  0  0  0  0  0  0  0  0  0
   91.3120   95.1350  -43.1500 H   0  0  0  0  0  0  0  0  0  0  0  0
   92.7300   95.4230  -44.1640 H   0  0  0  0  0  0  0  0  0  0  0  0
   92.1730   98.8400  -39.6380 H   0  0  0  0  0  0  0  0  0  0  0  0
   92.5670  101.3670  -39.8760 H   0  0  0  0  0  0  0  0  0  0  0  0
   92.6530  101.9490  -42.4200 H   0  0  0  0  0  0  0  0  0  0  0  0
   91.8650   98.6780  -46.4590 H   0  0  0  0  0  0  0  0  0  0  0  0
   92.9580   97.2670  -46.0170 H   0  0  0  0  0  0  0  0  0  0  0  0
   86.9360   96.3240  -46.8830 H   0  0  0  0  0  0  0  0  0  0  0  0
   87.1490   99.2810  -42.9400 H   0  0  0  0  0  0  0  0  0  0  0  0
   89.1110   98.9750  -44.4310 H   0  0  0  0  0  0  0  0  0  0  0  0
   83.7850   99.4620  -44.4000 H   0  0  0  0  0  0  0  0  0  0  0  0
   83.0500   99.1750  -42.8150 H   0  0  0  0  0  0  0  0  0  0  0  0
   84.5810  100.1900  -42.9070 H   0  0  0  0  0  0  0  0  0  0  0  0
  1  4  1  0  0  0  0
  1 18  1  0  0  0  0
  2  1  2  0  0  0  0
  3  1  2  0  0  0  0
  4 17  1  0  0  0  0
  4  5  1  0  0  0  0
  5 27  1  0  0  0  0
  5  6  1  0  0  0  0
  6  7  1  0  0  0  0
  6 29  1  0  0  0  0
  7  8  1  6  0  0  0
  7 15  1  0  0  0  0
  8  9  2  0  0  0  0
 10  9  1  6  0  0  0
 10 14  1  0  0  0  0
 10 11  1  0  0  0  0
 11 12  1  0  0  0  0
 12 31  1  0  0  0  0
 13 12  1  0  0  0  0
 13 32  1  0  0  0  0
 14 13  2  0  0  0  0
 15 11  1  0  0  0  0
 15 16  2  0  0  0  0
 17  8  1  0  0  0  0
 18 23  1  0  0  0  0
 19 18  2  0  0  0  0
 19 20  1  0  0  0  0
 20 21  2  0  0  0  0
 21 22  1  0  0  0  0
 21 24  1  0  0  0  0
 22 37  1  0  0  0  0
 23 38  1  0  0  0  0
 23 22  2  0  0  0  0
 25 24  1  0  0  0  0
 25 41  1  0  0  0  0
 25 40  1  0  0  0  0
 26 20  1  0  0  0  0
 28  5  1  0  0  0  0
 30  6  1  0  0  0  0
 33 14  1  0  0  0  0
 34 17  1  0  0  0  0
 35 17  1  0  0  0  0
 36 19  1  0  0  0  0
 39 25  1  0  0  0  0
M  END
>  <Pose>
1

>  <Score>
-5.27

$$$$
