
 OpenBabel03212208273D

 47 50  0  0  1  0  0  0  0  0999 V2000
   84.5090   98.3340  -43.4440 Cl  0  0  0  0  0  0  0  0  0  0  0  0
   86.1390   98.3430  -44.0700 C   0  0  0  0  0  0  0  0  0  0  0  0
   86.5130   97.6540  -45.2160 C   0  0  0  0  0  0  0  0  0  0  0  0
   87.7920   97.6750  -45.6880 C   0  0  0  0  0  0  0  0  0  0  0  0
   88.7730   98.3920  -45.0310 C   0  0  0  0  0  0  0  0  0  0  0  0
   88.4100   99.0760  -43.8980 C   0  0  0  0  0  0  0  0  0  0  0  0
   87.1110   99.0530  -43.4200 C   0  0  0  0  0  0  0  0  0  0  0  0
   90.1170   98.4110  -45.5720 C   0  0  2  0  0  0  0  0  0  0  0  0
   91.0530   97.4270  -45.3440 N   0  0  0  0  0  4  0  0  0  0  0  0
   91.4690   97.6150  -43.9700 C   0  0  0  0  0  0  0  0  0  0  0  0
   91.7060   96.8450  -42.9580 C   0  0  0  0  0  0  0  0  0  0  0  0
   92.1310   97.3320  -41.6330 C   0  0  0  0  0  0  0  0  0  0  0  0
   92.2610   98.8080  -41.4990 C   0  0  0  0  0  0  0  0  0  0  0  0
   92.4490   99.5350  -42.7870 C   0  0  0  0  0  0  0  0  0  0  0  0
   91.6090   99.0200  -43.8470 N   0  0  0  0  0  0  0  0  0  0  0  0
   90.8070   99.6340  -44.9020 C   0  0  0  0  0  0  0  0  0  0  0  0
   90.8900   96.0940  -45.6860 C   0  0  0  0  0  0  0  0  0  0  0  0
   89.8280   95.5350  -46.3130 C   0  0  0  0  0  0  0  0  0  0  0  0
   89.8150   94.1710  -46.6010 C   0  0  0  0  0  0  0  0  0  0  0  0
   90.8650   93.3310  -46.2700 C   0  0  0  0  0  0  0  0  0  0  0  0
   91.9320   93.9290  -45.6330 C   0  0  0  0  0  0  0  0  0  0  0  0
   91.9740   95.2650  -45.3350 C   0  0  0  0  0  0  0  0  0  0  0  0
   90.8110   91.9810  -46.5750 O   0  0  0  0  0  0  0  0  0  0  0  0
   91.9900   91.3080  -46.9340 C   0  0  0  0  0  0  0  0  0  0  0  0
   90.0750   98.7960  -46.9420 O   0  0  0  0  0  0  0  0  0  0  0  0
   85.7140   97.0930  -45.7180 H   0  0  0  0  0  0  0  0  0  0  0  0
   87.9960   97.1020  -46.5990 H   0  0  0  0  0  0  0  0  0  0  0  0
   89.0900   99.6770  -43.3150 H   0  0  0  0  0  0  0  0  0  0  0  0
   86.8280   99.6040  -42.5120 H   0  0  0  0  0  0  0  0  0  0  0  0
   91.9500   97.7400  -45.8710 H   0  0  0  0  0  0  0  0  0  0  0  0
   91.5870   95.7700  -43.0340 H   0  0  0  0  0  0  0  0  0  0  0  0
   93.0300   96.7780  -41.2650 H   0  0  0  0  0  0  0  0  0  0  0  0
   91.3160   96.9940  -40.9230 H   0  0  0  0  0  0  0  0  0  0  0  0
   93.1590   99.0020  -40.8440 H   0  0  0  0  0  0  0  0  0  0  0  0
   91.3680   99.2690  -40.9920 H   0  0  0  0  0  0  0  0  0  0  0  0
   93.5360   99.4800  -43.0840 H   0  0  0  0  0  0  0  0  0  0  0  0
   92.2250  100.6130  -42.6720 H   0  0  0  0  0  0  0  0  0  0  0  0
   91.5200  100.0860  -45.6210 H   0  0  0  0  0  0  0  0  0  0  0  0
   90.0730  100.3430  -44.5140 H   0  0  0  0  0  0  0  0  0  0  0  0
   88.9980   96.1650  -46.5890 H   0  0  0  0  0  0  0  0  0  0  0  0
   88.9300   93.7860  -47.1080 H   0  0  0  0  0  0  0  0  0  0  0  0
   92.7520   93.2470  -45.3810 H   0  0  0  0  0  0  0  0  0  0  0  0
   92.8640   95.6750  -44.8380 H   0  0  0  0  0  0  0  0  0  0  0  0
   92.3540   91.6510  -47.9230 H   0  0  0  0  0  0  0  0  0  0  0  0
   91.8670   90.2050  -46.8880 H   0  0  0  0  0  0  0  0  0  0  0  0
   92.8310   91.5190  -46.2120 H   0  0  0  0  0  0  0  0  0  0  0  0
   90.6320   98.1300  -47.4210 H   0  0  0  0  0  0  0  0  0  0  0  0
  2  1  1  0  0  0  0
  2  7  1  0  0  0  0
  3  2  2  0  0  0  0
  4  3  1  0  0  0  0
  4  5  2  0  0  0  0
  5  6  1  0  0  0  0
  6  7  2  0  0  0  0
  6 28  1  0  0  0  0
  7 29  1  0  0  0  0
  8 25  1  6  0  0  0
  8  9  1  0  0  0  0
  8  5  1  0  0  0  0
  8 16  1  0  0  0  0
  9 10  1  0  0  0  0
 10 15  1  0  0  0  0
 10 11  2  0  0  0  0
 11 12  1  0  0  0  0
 12 13  1  0  0  0  0
 12 32  1  0  0  0  0
 12 33  1  0  0  0  0
 13 35  1  0  0  0  0
 13 34  1  0  0  0  0
 14 37  1  0  0  0  0
 14 13  1  0  0  0  0
 15 14  1  0  0  0  0
 16 39  1  0  0  0  0
 16 15  1  0  0  0  0
 17  9  1  0  0  0  0
 17 22  1  0  0  0  0
 18 17  2  0  0  0  0
 19 18  1  0  0  0  0
 19 20  2  0  0  0  0
 20 21  1  0  0  0  0
 21 42  1  0  0  0  0
 21 22  2  0  0  0  0
 22 43  1  0  0  0  0
 23 20  1  0  0  0  0
 24 45  1  0  0  0  0
 24 23  1  0  0  0  0
 24 46  1  0  0  0  0
 26  3  1  0  0  0  0
 27  4  1  0  0  0  0
 30  9  1  0  0  0  0
 31 11  1  0  0  0  0
 36 14  1  0  0  0  0
 38 16  1  0  0  0  0
 40 18  1  0  0  0  0
 41 19  1  0  0  0  0
 44 24  1  0  0  0  0
 47 25  1  0  0  0  0
M  END
>  <Pose>
1

>  <Score>
-4.14

$$$$
