
 OpenBabel03212208273D

 51 54  0  0  0  0  0  0  0  0999 V2000
   91.7410   91.6670  -46.6450 Cl  0  0  0  0  0  0  0  0  0  0  0  0
   91.9890   92.4890  -45.1240 C   0  0  0  0  0  0  0  0  0  0  0  0
   92.9430   92.0540  -44.2460 C   0  0  0  0  0  0  0  0  0  0  0  0
   93.1280   92.7400  -43.0390 C   0  0  0  0  0  0  0  0  0  0  0  0
   92.3800   93.8420  -42.7010 C   0  0  0  0  0  0  0  0  0  0  0  0
   91.3970   94.3020  -43.5950 C   0  0  0  0  0  0  0  0  0  0  0  0
   91.2410   93.6000  -44.7790 C   0  0  0  0  0  0  0  0  0  0  0  0
   92.7620   94.3110  -41.5160 N   0  0  0  0  0  0  0  0  0  0  0  0
   93.7730   93.4720  -41.1090 C   0  0  0  0  0  0  0  0  0  0  0  0
   94.4090   93.5730  -40.0210 O   0  0  0  0  0  0  0  0  0  0  0  0
   93.9510   92.5660  -42.0380 O   0  0  0  0  0  0  0  0  0  0  0  0
   92.2490   95.3930  -40.6930 C   0  0  0  0  0  0  0  0  0  0  0  0
   91.8000   96.6030  -41.3780 C   0  0  0  0  0  0  0  0  0  0  0  0
   92.3840   97.8960  -41.1170 C   0  0  0  0  0  0  0  0  0  0  0  0
   93.1870   97.9320  -40.1080 O   0  0  0  0  0  0  0  0  0  0  0  0
   92.2260   99.1000  -41.8060 N   0  0  0  0  0  0  0  0  0  0  0  0
   91.9510   99.2060  -43.2520 C   0  0  0  0  0  0  0  0  0  0  0  0
   90.4740   99.7050  -43.1700 C   0  0  0  0  0  0  0  0  0  0  0  0
   90.4950  101.0440  -42.5990 N   0  0  0  0  0  0  0  0  0  0  0  0
   91.5170  101.4460  -41.7990 C   0  0  0  0  0  0  0  0  0  0  0  0
   92.3720  100.3810  -41.1730 C   0  0  0  0  0  0  0  0  0  0  0  0
   89.2070  101.5500  -42.6520 C   0  0  0  0  0  0  0  0  0  0  0  0
   88.1550  100.4430  -42.5560 C   0  0  0  0  0  0  0  0  0  0  0  0
   88.6380   99.2600  -42.7330 O   0  0  0  0  0  0  0  0  0  0  0  0
   86.8780  100.7220  -42.3190 N   0  0  0  0  0  0  0  0  0  0  0  0
   85.5190  101.0170  -42.0690 C   0  0  0  0  0  0  0  0  0  0  0  0
   84.4940  100.1320  -42.8760 C   0  0  0  0  0  0  0  0  0  0  0  0
   84.6780  101.5300  -43.2190 C   0  0  0  0  0  0  0  0  0  0  0  0
   93.5520   91.1840  -44.4760 H   0  0  0  0  0  0  0  0  0  0  0  0
   90.8330   95.1470  -43.3080 H   0  0  0  0  0  0  0  0  0  0  0  0
   90.4830   93.9520  -45.4580 H   0  0  0  0  0  0  0  0  0  0  0  0
   93.0740   95.6480  -39.9600 H   0  0  0  0  0  0  0  0  0  0  0  0
   91.4170   94.8880  -40.1010 H   0  0  0  0  0  0  0  0  0  0  0  0
   90.6650   96.7470  -41.2090 H   0  0  0  0  0  0  0  0  0  0  0  0
   91.9250   96.4240  -42.5050 H   0  0  0  0  0  0  0  0  0  0  0  0
   92.0450   98.2970  -43.7980 H   0  0  0  0  0  0  0  0  0  0  0  0
   92.5550  100.0030  -43.7210 H   0  0  0  0  0  0  0  0  0  0  0  0
   90.0350   99.7310  -44.1660 H   0  0  0  0  0  0  0  0  0  0  0  0
   89.8550   99.0710  -42.5360 H   0  0  0  0  0  0  0  0  0  0  0  0
   91.1500  102.1240  -40.9650 H   0  0  0  0  0  0  0  0  0  0  0  0
   92.2080  102.1700  -42.3910 H   0  0  0  0  0  0  0  0  0  0  0  0
   92.2610  100.3520  -40.0930 H   0  0  0  0  0  0  0  0  0  0  0  0
   93.4520  100.7470  -41.3400 H   0  0  0  0  0  0  0  0  0  0  0  0
   89.0460  102.0790  -43.6210 H   0  0  0  0  0  0  0  0  0  0  0  0
   88.9640  102.3210  -41.8600 H   0  0  0  0  0  0  0  0  0  0  0  0
   87.1050  100.8110  -40.9830 H   0  0  0  0  0  0  0  0  0  0  0  0
   85.1400  101.0300  -41.0210 H   0  0  0  0  0  0  0  0  0  0  0  0
   84.9650   99.2640  -43.3040 H   0  0  0  0  0  0  0  0  0  0  0  0
   83.5370   99.8850  -42.3250 H   0  0  0  0  0  0  0  0  0  0  0  0
   85.2000  101.8550  -44.1620 H   0  0  0  0  0  0  0  0  0  0  0  0
   83.8240  102.2330  -43.0030 H   0  0  0  0  0  0  0  0  0  0  0  0
  1  2  1  0  0  0  0
  2  7  2  0  0  0  0
  2  3  1  0  0  0  0
  3  4  2  0  0  0  0
  4  5  1  0  0  0  0
  4 11  1  0  0  0  0
  5  8  1  0  0  0  0
  6 30  1  0  0  0  0
  6  5  2  0  0  0  0
  7  6  1  0  0  0  0
  8  9  1  0  0  0  0
  8 12  1  0  0  0  0
  9 10  2  0  0  0  0
 11  9  1  0  0  0  0
 12 33  1  0  0  0  0
 12 32  1  0  0  0  0
 13 34  1  0  0  0  0
 13 14  1  0  0  0  0
 13 12  1  0  0  0  0
 14 15  2  0  0  0  0
 16 21  1  0  0  0  0
 16 14  1  0  0  0  0
 17 18  1  0  0  0  0
 17 16  1  0  0  0  0
 18 19  1  0  0  0  0
 18 39  1  0  0  0  0
 19 20  1  0  0  0  0
 20 21  1  0  0  0  0
 20 40  1  0  0  0  0
 21 42  1  0  0  0  0
 22 19  1  0  0  0  0
 22 23  1  0  0  0  0
 22 45  1  0  0  0  0
 23 25  1  0  0  0  0
 24 23  2  0  0  0  0
 25 26  1  0  0  0  0
 25 46  1  0  0  0  0
 26 47  1  0  0  0  0
 27 49  1  0  0  0  0
 27 26  1  0  0  0  0
 28 51  1  0  0  0  0
 28 27  1  0  0  0  0
 28 26  1  0  0  0  0
 29  3  1  0  0  0  0
 31  7  1  0  0  0  0
 35 13  1  0  0  0  0
 36 17  1  0  0  0  0
 37 17  1  0  0  0  0
 38 18  1  0  0  0  0
 41 20  1  0  0  0  0
 43 21  1  0  0  0  0
 44 22  1  0  0  0  0
 48 27  1  0  0  0  0
 50 28  1  0  0  0  0
M  END
>  <Pose>
1

>  <Score>
-5.05

$$$$
