
 OpenBabel03212208273D

 36 38  0  0  1  0  0  0  0  0999 V2000
   92.2630   94.6550  -41.1890 Cl  0  0  0  0  0  0  0  0  0  0  0  0
   91.9910   96.1570  -42.0500 C   0  0  0  0  0  0  0  0  0  0  0  0
   91.5580   96.0830  -43.3580 C   0  0  0  0  0  0  0  0  0  0  0  0
   91.3670   97.3200  -43.9860 C   0  0  0  0  0  0  0  0  0  0  0  0
   90.9750   97.3120  -45.1690 O   0  0  0  0  0  0  0  0  0  0  0  0
   91.5940   98.4700  -43.3410 N   0  0  0  0  0  0  0  0  0  0  0  0
   92.0100   98.5340  -42.0860 N   0  0  0  0  0  0  0  0  0  0  0  0
   92.2030   99.8670  -41.5340 C   0  0  1  0  0  0  0  0  0  0  0  0
   93.1910  100.5720  -42.4450 C   0  0  1  0  0  0  0  0  0  0  0  0
   92.7700  100.4700  -43.8470 C   0  0  1  0  0  0  0  0  0  0  0  0
   91.4080   99.7750  -43.9800 C   0  0  2  0  0  0  0  0  0  0  0  0
   90.4830  100.5100  -43.0510 C   0  0  0  0  0  0  0  0  0  0  0  0
   90.8860  100.5610  -41.7920 C   0  0  0  0  0  0  0  0  0  0  0  0
   92.8030  101.8270  -43.1310 C   0  0  0  0  0  0  0  0  0  0  0  0
   92.2100   97.3890  -41.4410 C   0  0  0  0  0  0  0  0  0  0  0  0
   92.6050   97.4380  -40.2480 O   0  0  0  0  0  0  0  0  0  0  0  0
   91.3070   94.8660  -44.0550 N   0  0  0  0  0  0  0  0  0  0  0  0
   92.1510   93.7280  -44.0540 C   0  0  0  0  0  0  0  0  0  0  0  0
   92.1500   92.9440  -42.7670 C   0  0  0  0  0  0  0  0  0  0  0  0
   91.8240   92.7370  -45.1620 C   0  0  0  0  0  0  0  0  0  0  0  0
   92.4830   99.8750  -40.4860 H   0  0  0  0  0  0  0  0  0  0  0  0
   94.2420  100.5070  -42.1150 H   0  0  0  0  0  0  0  0  0  0  0  0
   93.4810  100.3350  -44.6830 H   0  0  0  0  0  0  0  0  0  0  0  0
   91.0530   99.7190  -44.9980 H   0  0  0  0  0  0  0  0  0  0  0  0
   89.5820  100.9320  -43.4550 H   0  0  0  0  0  0  0  0  0  0  0  0
   90.3890  101.0310  -40.9660 H   0  0  0  0  0  0  0  0  0  0  0  0
   93.5850  102.5370  -43.4080 H   0  0  0  0  0  0  0  0  0  0  0  0
   91.7710  102.2150  -42.8930 H   0  0  0  0  0  0  0  0  0  0  0  0
   90.4200   94.8430  -44.6010 H   0  0  0  0  0  0  0  0  0  0  0  0
   93.2010   94.0340  -44.2320 H   0  0  0  0  0  0  0  0  0  0  0  0
   92.6430   93.4740  -41.9270 H   0  0  0  0  0  0  0  0  0  0  0  0
   92.7560   91.9980  -42.8900 H   0  0  0  0  0  0  0  0  0  0  0  0
   91.1700   92.6160  -42.4340 H   0  0  0  0  0  0  0  0  0  0  0  0
   92.6270   91.9470  -45.0920 H   0  0  0  0  0  0  0  0  0  0  0  0
   91.9590   93.1980  -46.1560 H   0  0  0  0  0  0  0  0  0  0  0  0
   90.8770   92.2210  -45.0140 H   0  0  0  0  0  0  0  0  0  0  0  0
  2 15  1  0  0  0  0
  3  2  2  0  0  0  0
  4  3  1  0  0  0  0
  4  6  1  0  0  0  0
  5  4  2  0  0  0  0
  6  7  1  0  0  0  0
  7  8  1  0  0  0  0
  7 15  1  0  0  0  0
  8 21  1  1  0  0  0
  9 22  1  1  0  0  0
  9  8  1  0  0  0  0
 10 23  1  6  0  0  0
 10 14  1  0  0  0  0
 10  9  1  0  0  0  0
 11 24  1  6  0  0  0
 11 10  1  0  0  0  0
 11  6  1  0  0  0  0
 11 12  1  0  0  0  0
 12 13  2  0  0  0  0
 13  8  1  0  0  0  0
 13 26  1  0  0  0  0
 14 28  1  0  0  0  0
 14  9  1  0  0  0  0
 15 16  2  0  0  0  0
 17 18  1  0  0  0  0
 17  3  1  0  0  0  0
 18 19  1  0  0  0  0
 19 33  1  0  0  0  0
 19 31  1  0  0  0  0
 20 34  1  0  0  0  0
 20 36  1  0  0  0  0
 20 18  1  0  0  0  0
 25 12  1  0  0  0  0
 27 14  1  0  0  0  0
 29 17  1  0  0  0  0
 30 18  1  0  0  0  0
 32 19  1  0  0  0  0
 35 20  1  0  0  0  0
M  END
>  <Pose>
1

>  <Score>
-4.64

$$$$
