
 OpenBabel03212208273D

 56 59  0  0  1  0  0  0  0  0999 V2000
   92.7140   99.4960  -46.4150 Cl  0  0  0  0  0  0  0  0  0  0  0  0
   92.4390   99.1030  -44.7320 C   0  0  0  0  0  0  0  0  0  0  0  0
   92.1820   97.7690  -44.4260 C   0  0  0  0  0  0  0  0  0  0  0  0
   91.9710   97.4950  -43.0910 C   0  0  0  0  0  0  0  0  0  0  0  0
   92.0180   98.4790  -42.1760 N   0  0  0  0  0  0  0  0  0  0  0  0
   92.2610   99.7500  -42.4460 N   0  0  0  0  0  0  0  0  0  0  0  0
   92.4730  100.0620  -43.7380 C   0  0  0  0  0  0  0  0  0  0  0  0
   92.7080  101.2700  -44.0220 O   0  0  0  0  0  0  0  0  0  0  0  0
   92.2930  100.7460  -41.4150 C   0  0  0  0  0  0  0  0  0  0  0  0
   91.1780  101.5110  -41.1600 C   0  0  0  0  0  0  0  0  0  0  0  0
   91.1980  102.4860  -40.1560 C   0  0  0  0  0  0  0  0  0  0  0  0
   92.3240  102.7090  -39.3980 C   0  0  0  0  0  0  0  0  0  0  0  0
   93.4450  101.9480  -39.6470 C   0  0  0  0  0  0  0  0  0  0  0  0
   93.4130  100.9820  -40.6480 C   0  0  0  0  0  0  0  0  0  0  0  0
   92.1340   96.7650  -45.4270 N   0  0  0  0  0  0  0  0  0  0  0  0
   90.9050   96.1240  -45.8280 C   0  0  0  0  0  0  0  0  0  0  0  0
   91.1110   94.6450  -45.9330 C   0  0  0  0  0  0  0  0  0  0  0  0
   92.3880   94.3460  -45.3330 N   0  0  0  0  0  0  0  0  0  0  0  0
   93.4160   94.8500  -46.1690 C   0  0  0  0  0  0  0  0  0  0  0  0
   93.3660   96.3770  -46.0670 C   0  0  0  0  0  0  0  0  0  0  0  0
   92.5350   93.0590  -44.7810 C   0  0  0  0  0  0  0  0  0  0  0  0
   91.4300   92.1370  -45.0660 C   0  0  0  0  0  0  0  0  0  0  0  0
   90.5350   92.0380  -44.1600 O   0  0  0  0  0  0  0  0  0  0  0  0
   91.2690   91.3600  -46.2390 N   0  0  0  0  0  0  0  0  0  0  0  0
   91.0670   91.9120  -47.5550 C   0  0  0  0  0  0  0  0  0  0  0  0
   91.6260   90.9750  -48.5820 C   0  0  1  0  0  0  0  0  0  0  0  0
   92.9430   90.7270  -48.3030 O   0  0  0  0  0  0  0  0  0  0  0  0
   93.1670   89.3870  -48.1440 C   0  0  0  0  0  0  0  0  0  0  0  0
   92.0960   88.7500  -49.0030 C   0  0  0  0  0  0  0  0  0  0  0  0
   90.9120   89.6300  -48.5680 C   0  0  0  0  0  0  0  0  0  0  0  0
   91.7670   96.4600  -42.8250 H   0  0  0  0  0  0  0  0  0  0  0  0
   90.2790  101.3360  -41.7600 H   0  0  0  0  0  0  0  0  0  0  0  0
   90.3280  103.0870  -39.9510 H   0  0  0  0  0  0  0  0  0  0  0  0
   92.3780  103.4620  -38.6050 H   0  0  0  0  0  0  0  0  0  0  0  0
   94.3310  102.1280  -39.0490 H   0  0  0  0  0  0  0  0  0  0  0  0
   94.2890  100.3790  -40.8500 H   0  0  0  0  0  0  0  0  0  0  0  0
   90.4630   96.5700  -46.7420 H   0  0  0  0  0  0  0  0  0  0  0  0
   90.1060   96.2690  -45.0400 H   0  0  0  0  0  0  0  0  0  0  0  0
   91.2230   94.3850  -47.0280 H   0  0  0  0  0  0  0  0  0  0  0  0
   90.3380   94.0380  -45.4580 H   0  0  0  0  0  0  0  0  0  0  0  0
   94.4170   94.4480  -45.9730 H   0  0  0  0  0  0  0  0  0  0  0  0
   93.1550   94.6010  -47.2260 H   0  0  0  0  0  0  0  0  0  0  0  0
   93.4920   96.8600  -47.0680 H   0  0  0  0  0  0  0  0  0  0  0  0
   94.2470   96.6490  -45.4330 H   0  0  0  0  0  0  0  0  0  0  0  0
   92.7170   93.0850  -43.6700 H   0  0  0  0  0  0  0  0  0  0  0  0
   93.4770   92.6130  -45.2240 H   0  0  0  0  0  0  0  0  0  0  0  0
   91.3080   90.3260  -46.1390 H   0  0  0  0  0  0  0  0  0  0  0  0
   91.5750   92.9080  -47.6580 H   0  0  0  0  0  0  0  0  0  0  0  0
   89.9890   92.0580  -47.7170 H   0  0  0  0  0  0  0  0  0  0  0  0
   91.5180   91.3720  -49.6030 H   0  0  0  0  0  0  0  0  0  0  0  0
   92.9440   89.1080  -47.0960 H   0  0  0  0  0  0  0  0  0  0  0  0
   94.1850   89.0990  -48.4590 H   0  0  0  0  0  0  0  0  0  0  0  0
   91.9320   87.6950  -48.8010 H   0  0  0  0  0  0  0  0  0  0  0  0
   92.3010   88.9970  -50.0650 H   0  0  0  0  0  0  0  0  0  0  0  0
   90.6890   89.3130  -47.5230 H   0  0  0  0  0  0  0  0  0  0  0  0
   90.0750   89.5580  -49.2550 H   0  0  0  0  0  0  0  0  0  0  0  0
  1  2  1  0  0  0  0
  2  3  2  0  0  0  0
  2  7  1  0  0  0  0
  3  4  1  0  0  0  0
  4 31  1  0  0  0  0
  4  5  2  0  0  0  0
  6  5  1  0  0  0  0
  6  9  1  0  0  0  0
  7  6  1  0  0  0  0
  8  7  2  0  0  0  0
  9 10  2  0  0  0  0
  9 14  1  0  0  0  0
 10 11  1  0  0  0  0
 11 33  1  0  0  0  0
 11 12  2  0  0  0  0
 12 34  1  0  0  0  0
 13 12  1  0  0  0  0
 13 35  1  0  0  0  0
 14 13  2  0  0  0  0
 15  3  1  0  0  0  0
 16 15  1  0  0  0  0
 16 38  1  0  0  0  0
 17 16  1  0  0  0  0
 17 40  1  0  0  0  0
 17 18  1  0  0  0  0
 18 21  1  0  0  0  0
 19 20  1  0  0  0  0
 19 41  1  0  0  0  0
 19 18  1  0  0  0  0
 20 44  1  0  0  0  0
 20 15  1  0  0  0  0
 21 45  1  0  0  0  0
 22 21  1  0  0  0  0
 22 23  2  0  0  0  0
 24 47  1  0  0  0  0
 24 22  1  0  0  0  0
 25 24  1  0  0  0  0
 26 50  1  6  0  0  0
 26 30  1  0  0  0  0
 26 27  1  0  0  0  0
 26 25  1  0  0  0  0
 27 28  1  0  0  0  0
 28 51  1  0  0  0  0
 29 53  1  0  0  0  0
 29 30  1  0  0  0  0
 29 28  1  0  0  0  0
 30 55  1  0  0  0  0
 32 10  1  0  0  0  0
 36 14  1  0  0  0  0
 37 16  1  0  0  0  0
 39 17  1  0  0  0  0
 42 19  1  0  0  0  0
 43 20  1  0  0  0  0
 46 21  1  0  0  0  0
 48 25  1  0  0  0  0
 49 25  1  0  0  0  0
 52 28  1  0  0  0  0
 54 29  1  0  0  0  0
 56 30  1  0  0  0  0
M  END
>  <Pose>
1

>  <Score>
-4.81

$$$$
