
 OpenBabel03212208273D

 55 58  0  0  0  0  0  0  0  0999 V2000
   91.7400   92.6030  -46.0140 S   0  0  0  0  0  0  0  0  0  0  0  0
   90.4420   93.3630  -46.2100 O   0  0  0  0  0  0  0  0  0  0  0  0
   92.8910   93.4710  -46.3800 O   0  0  0  0  0  0  0  0  0  0  0  0
   91.8550   92.2140  -44.2810 N   0  0  0  0  0  0  0  0  0  0  0  0
   92.9910   92.9420  -43.8000 C   0  0  0  0  0  0  0  0  0  0  0  0
   92.9610   93.2250  -42.2870 C   0  0  0  0  0  0  0  0  0  0  0  0
   91.7300   93.9040  -42.0250 N   0  0  0  0  0  0  0  0  0  0  0  0
   90.6580   92.9720  -42.2430 C   0  0  0  0  0  0  0  0  0  0  0  0
   90.5920   92.8280  -43.7380 C   0  0  0  0  0  0  0  0  0  0  0  0
   91.6900   94.8890  -41.0540 C   0  0  0  0  0  0  0  0  0  0  0  0
   92.1110   96.2380  -41.4370 C   0  0  0  0  0  0  0  0  0  0  0  0
   92.8740   96.8030  -40.5360 O   0  0  0  0  0  0  0  0  0  0  0  0
   91.8660   96.9950  -42.5460 N   0  0  0  0  0  0  0  0  0  0  0  0
   91.8550   98.4590  -42.5770 C   0  0  0  0  0  0  0  0  0  0  0  0
   91.7170   98.9100  -43.9770 C   0  0  0  0  0  0  0  0  0  0  0  0
   90.4450   99.1770  -44.5330 C   0  0  0  0  0  0  0  0  0  0  0  0
   90.2620   99.4550  -45.8340 C   0  0  0  0  0  0  0  0  0  0  0  0
   91.3770   99.4950  -46.7280 C   0  0  0  0  0  0  0  0  0  0  0  0
   92.5860   99.2350  -46.2200 C   0  0  0  0  0  0  0  0  0  0  0  0
   92.8040   98.9390  -44.8690 C   0  0  0  0  0  0  0  0  0  0  0  0
   89.0390   99.1610  -43.4410 Cl  0  0  0  0  0  0  0  0  0  0  0  0
   91.7100   91.1890  -46.9920 C   0  0  0  0  0  0  0  0  0  0  0  0
   90.4390   90.7960  -47.4300 C   0  0  0  0  0  0  0  0  0  0  0  0
   90.2230   89.7310  -48.3100 C   0  0  0  0  0  0  0  0  0  0  0  0
   91.3320   89.0280  -48.7710 C   0  0  0  0  0  0  0  0  0  0  0  0
   92.5790   89.4240  -48.3240 C   0  0  0  0  0  0  0  0  0  0  0  0
   92.7810   90.4870  -47.4530 C   0  0  0  0  0  0  0  0  0  0  0  0
   91.0460   87.9920  -49.6420 O   0  0  0  0  0  0  0  0  0  0  0  0
   89.9870   88.2100  -50.6130 C   0  0  0  0  0  0  0  0  0  0  0  0
   88.7940   88.8930  -50.0320 C   0  0  0  0  0  0  0  0  0  0  0  0
   88.9510   89.3690  -48.7170 O   0  0  0  0  0  0  0  0  0  0  0  0
   93.8800   92.2320  -43.9270 H   0  0  0  0  0  0  0  0  0  0  0  0
   93.2970   93.8540  -44.3300 H   0  0  0  0  0  0  0  0  0  0  0  0
   92.9940   92.2740  -41.7550 H   0  0  0  0  0  0  0  0  0  0  0  0
   93.7800   93.8540  -41.9680 H   0  0  0  0  0  0  0  0  0  0  0  0
   90.8820   92.0010  -41.8140 H   0  0  0  0  0  0  0  0  0  0  0  0
   89.6800   93.4320  -41.9390 H   0  0  0  0  0  0  0  0  0  0  0  0
   90.6020   93.8770  -44.1870 H   0  0  0  0  0  0  0  0  0  0  0  0
   89.7850   92.1870  -44.0300 H   0  0  0  0  0  0  0  0  0  0  0  0
   92.4430   94.5030  -40.2400 H   0  0  0  0  0  0  0  0  0  0  0  0
   90.7500   94.9210  -40.4380 H   0  0  0  0  0  0  0  0  0  0  0  0
   91.6900   96.5950  -43.5270 H   0  0  0  0  0  0  0  0  0  0  0  0
   90.8420   98.6990  -42.0870 H   0  0  0  0  0  0  0  0  0  0  0  0
   92.6850   98.8580  -42.0390 H   0  0  0  0  0  0  0  0  0  0  0  0
   89.2960   99.6510  -46.2130 H   0  0  0  0  0  0  0  0  0  0  0  0
   91.2090   99.7190  -47.7540 H   0  0  0  0  0  0  0  0  0  0  0  0
   93.4730   99.2400  -46.8620 H   0  0  0  0  0  0  0  0  0  0  0  0
   93.7880   98.7120  -44.5370 H   0  0  0  0  0  0  0  0  0  0  0  0
   89.5710   91.3590  -47.0330 H   0  0  0  0  0  0  0  0  0  0  0  0
   93.3910   88.8500  -48.6840 H   0  0  0  0  0  0  0  0  0  0  0  0
   93.7730   90.7580  -47.1540 H   0  0  0  0  0  0  0  0  0  0  0  0
   90.4840   88.8210  -51.4380 H   0  0  0  0  0  0  0  0  0  0  0  0
   89.6910   87.2460  -51.0270 H   0  0  0  0  0  0  0  0  0  0  0  0
   87.9280   88.2230  -50.0410 H   0  0  0  0  0  0  0  0  0  0  0  0
   88.5730   89.7620  -50.7140 H   0  0  0  0  0  0  0  0  0  0  0  0
  1  4  1  0  0  0  0
  2  1  2  0  0  0  0
  3  1  2  0  0  0  0
  4  5  1  0  0  0  0
  4  9  1  0  0  0  0
  5  6  1  0  0  0  0
  6  7  1  0  0  0  0
  6 35  1  0  0  0  0
  6 34  1  0  0  0  0
  7 10  1  0  0  0  0
  8  7  1  0  0  0  0
  8 37  1  0  0  0  0
  8 36  1  0  0  0  0
  9  8  1  0  0  0  0
 10 41  1  0  0  0  0
 10 40  1  0  0  0  0
 11 10  1  0  0  0  0
 11 12  2  0  0  0  0
 13 11  1  0  0  0  0
 14 13  1  0  0  0  0
 14 43  1  0  0  0  0
 14 44  1  0  0  0  0
 15 14  1  0  0  0  0
 16 15  1  0  0  0  0
 16 21  1  0  0  0  0
 17 16  2  0  0  0  0
 18 19  2  0  0  0  0
 18 17  1  0  0  0  0
 19 20  1  0  0  0  0
 20 48  1  0  0  0  0
 20 15  2  0  0  0  0
 22  1  1  0  0  0  0
 23 49  1  0  0  0  0
 23 22  1  0  0  0  0
 24 23  2  0  0  0  0
 25 26  2  0  0  0  0
 25 24  1  0  0  0  0
 26 27  1  0  0  0  0
 27 51  1  0  0  0  0
 27 22  2  0  0  0  0
 28 25  1  0  0  0  0
 29 30  1  0  0  0  0
 29 28  1  0  0  0  0
 30 31  1  0  0  0  0
 31 24  1  0  0  0  0
 32  5  1  0  0  0  0
 33  5  1  0  0  0  0
 38  9  1  0  0  0  0
 39  9  1  0  0  0  0
 42 13  1  0  0  0  0
 45 17  1  0  0  0  0
 46 18  1  0  0  0  0
 47 19  1  0  0  0  0
 50 26  1  0  0  0  0
 52 29  1  0  0  0  0
 53 29  1  0  0  0  0
 54 30  1  0  0  0  0
 55 30  1  0  0  0  0
M  END
>  <Pose>
1

>  <Score>
-5.00

$$$$
