
 OpenBabel03212208273D

 56 59  0  0  0  0  0  0  0  0999 V2000
   91.5020   94.7780  -45.6520 S   0  0  0  0  0  0  0  0  0  0  0  0
   90.0780   94.3690  -45.8750 O   0  0  0  0  0  0  0  0  0  0  0  0
   92.0590   95.2580  -46.9600 O   0  0  0  0  0  0  0  0  0  0  0  0
   92.3850   93.4410  -45.0510 N   0  0  0  0  0  0  0  0  0  0  0  0
   91.6220   92.2620  -44.8550 C   0  0  0  0  0  0  0  0  0  0  0  0
   91.5130   91.3860  -46.0740 C   0  0  0  0  0  0  0  0  0  0  0  0
   92.7530   91.3310  -46.8200 N   0  0  0  0  0  0  0  0  0  0  0  0
   93.9220   91.8810  -46.1590 C   0  0  0  0  0  0  0  0  0  0  0  0
   93.6650   93.2740  -45.6410 C   0  0  0  0  0  0  0  0  0  0  0  0
   92.7690   90.7700  -48.1030 C   0  0  0  0  0  0  0  0  0  0  0  0
   93.8280   90.2510  -48.5290 O   0  0  0  0  0  0  0  0  0  0  0  0
   91.5740   90.7660  -48.9860 C   0  0  0  0  0  0  0  0  0  0  0  0
   90.9000   89.4980  -48.9800 N   0  0  0  0  0  0  0  0  0  0  0  0
   91.5560   88.2400  -48.9250 C   0  0  0  0  0  0  0  0  0  0  0  0
   92.8230   88.0830  -48.8760 O   0  0  0  0  0  0  0  0  0  0  0  0
   90.6270   87.1640  -48.9340 N   0  0  0  0  0  0  0  0  0  0  0  0
   89.3270   87.7360  -49.2280 C   0  0  0  0  0  0  0  0  0  0  0  0
   88.2690   87.2660  -48.2720 C   0  0  0  0  0  0  0  0  0  0  0  0
   87.6470   85.9550  -48.6530 C   0  0  0  0  0  0  0  0  0  0  0  0
   87.1840   85.8970  -50.0790 C   0  0  0  0  0  0  0  0  0  0  0  0
   87.5350   87.1500  -50.8520 C   0  0  0  0  0  0  0  0  0  0  0  0
   89.0140   87.4070  -50.6680 C   0  0  0  0  0  0  0  0  0  0  0  0
   89.5120   89.1940  -49.0230 C   0  0  0  0  0  0  0  0  0  0  0  0
   88.6110   90.0570  -48.9020 O   0  0  0  0  0  0  0  0  0  0  0  0
   90.9480   85.7580  -48.6880 C   0  0  0  0  0  0  0  0  0  0  0  0
   91.5680   96.1550  -44.5400 C   0  0  0  0  0  0  0  0  0  0  0  0
   91.8500   97.7930  -44.8930 S   0  0  0  0  0  0  0  0  0  0  0  0
   91.7530   98.4360  -43.3220 C   0  0  0  0  0  0  0  0  0  0  0  0
   91.4980   97.3370  -42.5460 C   0  0  0  0  0  0  0  0  0  0  0  0
   91.4020   96.1470  -43.1820 C   0  0  0  0  0  0  0  0  0  0  0  0
   91.9330  100.1180  -42.7800 Cl  0  0  0  0  0  0  0  0  0  0  0  0
   90.5780   92.5650  -44.5890 H   0  0  0  0  0  0  0  0  0  0  0  0
   92.0420   91.6710  -44.0180 H   0  0  0  0  0  0  0  0  0  0  0  0
   90.6600   91.6670  -46.7250 H   0  0  0  0  0  0  0  0  0  0  0  0
   91.3200   90.3450  -45.7050 H   0  0  0  0  0  0  0  0  0  0  0  0
   94.7710   91.9440  -46.8770 H   0  0  0  0  0  0  0  0  0  0  0  0
   94.2490   91.2430  -45.3260 H   0  0  0  0  0  0  0  0  0  0  0  0
   93.9040   94.0530  -46.4180 H   0  0  0  0  0  0  0  0  0  0  0  0
   94.4370   93.4490  -44.8360 H   0  0  0  0  0  0  0  0  0  0  0  0
   91.8500   91.0030  -50.0200 H   0  0  0  0  0  0  0  0  0  0  0  0
   90.9240   91.5970  -48.6330 H   0  0  0  0  0  0  0  0  0  0  0  0
   88.6890   87.1560  -47.2540 H   0  0  0  0  0  0  0  0  0  0  0  0
   87.4700   88.0460  -48.2420 H   0  0  0  0  0  0  0  0  0  0  0  0
   86.7610   85.8130  -47.9810 H   0  0  0  0  0  0  0  0  0  0  0  0
   88.3470   85.1300  -48.4170 H   0  0  0  0  0  0  0  0  0  0  0  0
   87.6250   84.9920  -50.5480 H   0  0  0  0  0  0  0  0  0  0  0  0
   86.0640   85.7950  -50.1340 H   0  0  0  0  0  0  0  0  0  0  0  0
   87.3190   86.9790  -51.9150 H   0  0  0  0  0  0  0  0  0  0  0  0
   86.9750   87.9920  -50.4320 H   0  0  0  0  0  0  0  0  0  0  0  0
   89.3170   88.2120  -51.3660 H   0  0  0  0  0  0  0  0  0  0  0  0
   89.5640   86.4920  -50.9740 H   0  0  0  0  0  0  0  0  0  0  0  0
   90.5060   85.1020  -49.4650 H   0  0  0  0  0  0  0  0  0  0  0  0
   92.0360   85.6400  -48.6850 H   0  0  0  0  0  0  0  0  0  0  0  0
   90.5920   85.5270  -47.6640 H   0  0  0  0  0  0  0  0  0  0  0  0
   91.3790   97.4390  -41.4350 H   0  0  0  0  0  0  0  0  0  0  0  0
   91.1940   95.2050  -42.6050 H   0  0  0  0  0  0  0  0  0  0  0  0
  1  4  1  0  0  0  0
  1 26  1  0  0  0  0
  2  1  2  0  0  0  0
  3  1  2  0  0  0  0
  4  5  1  0  0  0  0
  5 32  1  0  0  0  0
  5 33  1  0  0  0  0
  6 35  1  0  0  0  0
  6  5  1  0  0  0  0
  7  8  1  0  0  0  0
  7  6  1  0  0  0  0
  8  9  1  0  0  0  0
  8 37  1  0  0  0  0
  9  4  1  0  0  0  0
  9 39  1  0  0  0  0
 10  7  1  0  0  0  0
 11 10  2  0  0  0  0
 12 13  1  0  0  0  0
 12 41  1  0  0  0  0
 12 10  1  0  0  0  0
 13 14  1  0  0  0  0
 14 15  2  0  0  0  0
 16 14  1  0  0  0  0
 16 25  1  0  0  0  0
 17 23  1  0  0  0  0
 17 16  1  0  0  0  0
 17 18  1  0  0  0  0
 18 43  1  0  0  0  0
 18 42  1  0  0  0  0
 19 45  1  0  0  0  0
 19 18  1  0  0  0  0
 19 44  1  0  0  0  0
 20 19  1  0  0  0  0
 21 22  1  0  0  0  0
 21 49  1  0  0  0  0
 21 20  1  0  0  0  0
 22 17  1  0  0  0  0
 23 13  1  0  0  0  0
 23 24  2  0  0  0  0
 25 53  1  0  0  0  0
 25 54  1  0  0  0  0
 26 30  2  0  0  0  0
 27 26  1  0  0  0  0
 27 28  1  0  0  0  0
 28 31  1  0  0  0  0
 28 29  2  0  0  0  0
 29 55  1  0  0  0  0
 30 56  1  0  0  0  0
 30 29  1  0  0  0  0
 34  6  1  0  0  0  0
 36  8  1  0  0  0  0
 38  9  1  0  0  0  0
 40 12  1  0  0  0  0
 46 20  1  0  0  0  0
 47 20  1  0  0  0  0
 48 21  1  0  0  0  0
 50 22  1  0  0  0  0
 51 22  1  0  0  0  0
 52 25  1  0  0  0  0
M  END
>  <Pose>
1

>  <Score>
-4.47

$$$$
