
 OpenBabel03212208273D

 68 71  0  0  0  0  0  0  0  0999 V2000
   88.7980   98.3280  -46.6180 S   0  0  0  0  0  0  0  0  0  0  0  0
   87.6480   97.9200  -45.7310 O   0  0  0  0  0  0  0  0  0  0  0  0
   88.4660   99.7270  -47.0890 O   0  0  0  0  0  0  0  0  0  0  0  0
   90.2870   98.1900  -45.8920 N   0  0  0  0  0  0  0  0  0  0  0  0
   90.9830   97.0030  -45.8020 C   0  0  0  0  0  0  0  0  0  0  0  0
   91.4500   96.7650  -44.3910 C   0  0  0  0  0  0  0  0  0  0  0  0
   92.0070   97.8890  -43.7270 N   0  0  0  0  0  0  0  0  0  0  0  0
   92.1970   98.9850  -44.6220 C   0  0  0  0  0  0  0  0  0  0  0  0
   90.8880   99.3210  -45.3310 C   0  0  0  0  0  0  0  0  0  0  0  0
   91.3100   98.2720  -42.5340 C   0  0  0  0  0  0  0  0  0  0  0  0
   92.2530   98.4010  -41.3730 C   0  0  0  0  0  0  0  0  0  0  0  0
   93.0520   97.4580  -41.1860 O   0  0  0  0  0  0  0  0  0  0  0  0
   92.2360   99.5420  -40.5320 N   0  0  0  0  0  0  0  0  0  0  0  0
   93.3930  100.3880  -40.5370 C   0  0  0  0  0  0  0  0  0  0  0  0
   93.2000  101.7770  -41.0120 C   0  0  0  0  0  0  0  0  0  0  0  0
   92.5560  101.7560  -42.3760 C   0  0  0  0  0  0  0  0  0  0  0  0
   93.5910  101.7570  -43.5050 C   0  0  0  0  0  0  0  0  0  0  0  0
   94.3260  103.0820  -43.5400 C   0  0  0  0  0  0  0  0  0  0  0  0
   94.4100  103.5900  -42.1120 C   0  0  0  0  0  0  0  0  0  0  0  0
   94.6060  102.3650  -41.2440 C   0  0  0  0  0  0  0  0  0  0  0  0
   92.5280  102.6830  -40.1630 N   0  0  0  0  0  0  0  0  0  0  0  0
   91.1570  102.4520  -39.8780 C   0  0  0  0  0  0  0  0  0  0  0  0
   90.6080  103.7830  -39.3310 C   0  0  0  0  0  0  0  0  0  0  0  0
   91.2430  104.1070  -38.1570 O   0  0  0  0  0  0  0  0  0  0  0  0
   92.2210  103.2230  -37.7760 C   0  0  0  0  0  0  0  0  0  0  0  0
   93.2060  102.9320  -38.9090 C   0  0  0  0  0  0  0  0  0  0  0  0
   88.7170   97.2680  -48.0230 C   0  0  0  0  0  0  0  0  0  0  0  0
   88.2230   95.9970  -47.9250 C   0  0  0  0  0  0  0  0  0  0  0  0
   88.1570   95.1690  -49.0140 C   0  0  0  0  0  0  0  0  0  0  0  0
   88.6030   95.6330  -50.2320 C   0  0  0  0  0  0  0  0  0  0  0  0
   89.1040   96.9170  -50.3350 C   0  0  0  0  0  0  0  0  0  0  0  0
   89.1640   97.7380  -49.2370 C   0  0  0  0  0  0  0  0  0  0  0  0
   88.5060   94.5480  -51.6080 Cl  0  0  0  0  0  0  0  0  0  0  0  0
   91.9140   96.9320  -46.4350 H   0  0  0  0  0  0  0  0  0  0  0  0
   90.3910   96.0980  -46.1040 H   0  0  0  0  0  0  0  0  0  0  0  0
   92.2360   95.9640  -44.4210 H   0  0  0  0  0  0  0  0  0  0  0  0
   90.5980   96.3070  -43.8450 H   0  0  0  0  0  0  0  0  0  0  0  0
   92.9420   98.7020  -45.4180 H   0  0  0  0  0  0  0  0  0  0  0  0
   92.5010   99.8740  -44.0590 H   0  0  0  0  0  0  0  0  0  0  0  0
   90.2340   99.8580  -44.5840 H   0  0  0  0  0  0  0  0  0  0  0  0
   91.1330  100.0890  -46.1220 H   0  0  0  0  0  0  0  0  0  0  0  0
   90.4450   97.6200  -42.2950 H   0  0  0  0  0  0  0  0  0  0  0  0
   90.8970   99.2910  -42.6880 H   0  0  0  0  0  0  0  0  0  0  0  0
   91.3740   99.7110  -39.9480 H   0  0  0  0  0  0  0  0  0  0  0  0
   93.8020  100.3730  -39.5010 H   0  0  0  0  0  0  0  0  0  0  0  0
   94.1760   99.9330  -41.2180 H   0  0  0  0  0  0  0  0  0  0  0  0
   91.9340  102.6700  -42.5570 H   0  0  0  0  0  0  0  0  0  0  0  0
   91.9600  100.8300  -42.5350 H   0  0  0  0  0  0  0  0  0  0  0  0
   93.0270  101.6570  -44.4510 H   0  0  0  0  0  0  0  0  0  0  0  0
   94.2760  100.8940  -43.4360 H   0  0  0  0  0  0  0  0  0  0  0  0
   95.3520  102.9040  -43.9260 H   0  0  0  0  0  0  0  0  0  0  0  0
   93.7860  103.7660  -44.1990 H   0  0  0  0  0  0  0  0  0  0  0  0
   95.2560  104.3060  -41.9750 H   0  0  0  0  0  0  0  0  0  0  0  0
   93.4500  104.0640  -41.8230 H   0  0  0  0  0  0  0  0  0  0  0  0
   95.0820  102.6740  -40.3160 H   0  0  0  0  0  0  0  0  0  0  0  0
   95.2570  101.6020  -41.7200 H   0  0  0  0  0  0  0  0  0  0  0  0
   90.5330  102.2530  -40.7750 H   0  0  0  0  0  0  0  0  0  0  0  0
   90.9450  101.7070  -39.0870 H   0  0  0  0  0  0  0  0  0  0  0  0
   90.9120  104.5540  -40.0940 H   0  0  0  0  0  0  0  0  0  0  0  0
   89.5190  103.7470  -39.2620 H   0  0  0  0  0  0  0  0  0  0  0  0
   91.8270  102.2670  -37.3400 H   0  0  0  0  0  0  0  0  0  0  0  0
   92.8320  103.6810  -36.9590 H   0  0  0  0  0  0  0  0  0  0  0  0
   93.8420  103.8310  -39.0240 H   0  0  0  0  0  0  0  0  0  0  0  0
   93.8280  102.0910  -38.5570 H   0  0  0  0  0  0  0  0  0  0  0  0
   87.8630   95.6100  -46.9600 H   0  0  0  0  0  0  0  0  0  0  0  0
   87.7620   94.1560  -48.9230 H   0  0  0  0  0  0  0  0  0  0  0  0
   89.4530   97.2720  -51.3060 H   0  0  0  0  0  0  0  0  0  0  0  0
   89.5650   98.7490  -49.3440 H   0  0  0  0  0  0  0  0  0  0  0  0
  1  4  1  0  0  0  0
  1  2  2  0  0  0  0
  3  1  2  0  0  0  0
  4  5  1  0  0  0  0
  4  9  1  0  0  0  0
  5  6  1  0  0  0  0
  6 37  1  0  0  0  0
  6  7  1  0  0  0  0
  7 10  1  0  0  0  0
  8 39  1  0  0  0  0
  8  7  1  0  0  0  0
  9  8  1  0  0  0  0
  9 40  1  0  0  0  0
 10 42  1  0  0  0  0
 10 11  1  0  0  0  0
 11 12  2  0  0  0  0
 11 13  1  0  0  0  0
 13 44  1  0  0  0  0
 14 13  1  0  0  0  0
 14 45  1  0  0  0  0
 15 14  1  0  0  0  0
 15 21  1  0  0  0  0
 16 15  1  0  0  0  0
 17 50  1  0  0  0  0
 17 16  1  0  0  0  0
 18 17  1  0  0  0  0
 18 19  1  0  0  0  0
 19 53  1  0  0  0  0
 19 54  1  0  0  0  0
 19 20  1  0  0  0  0
 20 15  1  0  0  0  0
 20 55  1  0  0  0  0
 21 22  1  0  0  0  0
 21 26  1  0  0  0  0
 22 23  1  0  0  0  0
 22 58  1  0  0  0  0
 23 60  1  0  0  0  0
 23 24  1  0  0  0  0
 24 25  1  0  0  0  0
 25 61  1  0  0  0  0
 25 62  1  0  0  0  0
 26 64  1  0  0  0  0
 26 25  1  0  0  0  0
 27 28  1  0  0  0  0
 27  1  1  0  0  0  0
 28 65  1  0  0  0  0
 29 66  1  0  0  0  0
 29 28  2  0  0  0  0
 30 29  1  0  0  0  0
 31 30  2  0  0  0  0
 31 32  1  0  0  0  0
 32 27  2  0  0  0  0
 33 30  1  0  0  0  0
 34  5  1  0  0  0  0
 35  5  1  0  0  0  0
 36  6  1  0  0  0  0
 38  8  1  0  0  0  0
 41  9  1  0  0  0  0
 43 10  1  0  0  0  0
 46 14  1  0  0  0  0
 47 16  1  0  0  0  0
 48 16  1  0  0  0  0
 49 17  1  0  0  0  0
 51 18  1  0  0  0  0
 52 18  1  0  0  0  0
 56 20  1  0  0  0  0
 57 22  1  0  0  0  0
 59 23  1  0  0  0  0
 63 26  1  0  0  0  0
 67 31  1  0  0  0  0
 68 32  1  0  0  0  0
M  END
>  <Pose>
1

>  <Score>
-5.16

$$$$
