
 OpenBabel03212208273D

 50 53  0  0  1  0  0  0  0  0999 V2000
   86.4140   99.8190  -46.4150 S   0  0  0  0  0  0  0  0  0  0  0  0
   85.7450  100.8390  -45.5470 O   0  0  0  0  0  0  0  0  0  0  0  0
   86.1930  100.2540  -47.8420 O   0  0  0  0  0  0  0  0  0  0  0  0
   88.0850   99.7740  -46.1230 N   0  0  0  0  0  0  0  0  0  0  0  0
   88.8320   98.9110  -46.9560 C   0  0  0  0  0  0  0  0  0  0  0  0
   90.1300   98.4250  -46.3670 C   0  0  0  0  0  0  0  0  0  0  0  0
   90.0180   98.0500  -44.9860 N   0  0  0  0  0  0  0  0  0  0  0  0
   88.8090   98.4330  -44.3010 C   0  0  0  0  0  0  0  0  0  0  0  0
   88.4750   99.8510  -44.7590 C   0  0  0  0  0  0  0  0  0  0  0  0
   91.0600   97.3480  -44.3580 C   0  0  0  0  0  0  0  0  0  0  0  0
   90.8510   96.1350  -44.0740 O   0  0  0  0  0  0  0  0  0  0  0  0
   92.3810   97.9410  -44.0120 C   0  0  2  0  0  0  0  0  0  0  0  0
   92.3380   98.6440  -42.7830 N   0  0  0  0  0  0  0  0  0  0  0  0
   92.0000  100.0280  -42.8510 C   0  0  2  0  0  0  0  0  0  0  0  0
   92.6610  100.5210  -44.4560 S   0  0  0  0  0  0  0  0  0  0  0  0
   92.9170   98.8210  -45.1020 C   0  0  0  0  0  0  0  0  0  0  0  0
   92.8940  100.6430  -41.7920 C   0  0  0  0  0  0  0  0  0  0  0  0
   92.6330   99.6490  -40.6530 C   0  0  0  0  0  0  0  0  0  0  0  0
   92.5390   98.3830  -41.3740 C   0  0  0  0  0  0  0  0  0  0  0  0
   92.6250   97.2480  -40.8140 O   0  0  0  0  0  0  0  0  0  0  0  0
   90.5760  100.3660  -42.6550 C   0  0  0  0  0  0  0  0  0  0  0  0
   85.6430   98.2450  -46.2450 C   0  0  0  0  0  0  0  0  0  0  0  0
   85.9330   97.2260  -47.1240 C   0  0  0  0  0  0  0  0  0  0  0  0
   85.3480   95.9860  -47.0200 C   0  0  0  0  0  0  0  0  0  0  0  0
   84.4350   95.7040  -46.0200 C   0  0  0  0  0  0  0  0  0  0  0  0
   84.1640   96.7480  -45.1520 C   0  0  0  0  0  0  0  0  0  0  0  0
   84.7410   97.9900  -45.2430 C   0  0  0  0  0  0  0  0  0  0  0  0
   83.6710   94.1360  -45.8590 Cl  0  0  0  0  0  0  0  0  0  0  0  0
   88.9870   99.3740  -47.9520 H   0  0  0  0  0  0  0  0  0  0  0  0
   88.2110   97.9910  -47.1430 H   0  0  0  0  0  0  0  0  0  0  0  0
   90.8910   99.2150  -46.5520 H   0  0  0  0  0  0  0  0  0  0  0  0
   90.4910   97.5460  -46.9780 H   0  0  0  0  0  0  0  0  0  0  0  0
   88.9000   98.3840  -43.2000 H   0  0  0  0  0  0  0  0  0  0  0  0
   88.0020   97.7540  -44.6630 H   0  0  0  0  0  0  0  0  0  0  0  0
   89.3090  100.5310  -44.5710 H   0  0  0  0  0  0  0  0  0  0  0  0
   87.6050  100.2410  -44.1700 H   0  0  0  0  0  0  0  0  0  0  0  0
   93.0900   97.0870  -43.9520 H   0  0  0  0  0  0  0  0  0  0  0  0
   93.9990   98.7110  -45.2830 H   0  0  0  0  0  0  0  0  0  0  0  0
   92.4030   98.7010  -46.0770 H   0  0  0  0  0  0  0  0  0  0  0  0
   93.9360  100.5510  -42.1710 H   0  0  0  0  0  0  0  0  0  0  0  0
   92.6050  101.6590  -41.5240 H   0  0  0  0  0  0  0  0  0  0  0  0
   93.5130   99.6810  -39.9640 H   0  0  0  0  0  0  0  0  0  0  0  0
   91.6890   99.9240  -40.1740 H   0  0  0  0  0  0  0  0  0  0  0  0
   90.5230  101.4160  -42.2400 H   0  0  0  0  0  0  0  0  0  0  0  0
   89.9980  100.4340  -43.6170 H   0  0  0  0  0  0  0  0  0  0  0  0
   90.0650   99.7390  -41.9020 H   0  0  0  0  0  0  0  0  0  0  0  0
   86.6550   97.4320  -47.9230 H   0  0  0  0  0  0  0  0  0  0  0  0
   85.5870   95.1880  -47.7240 H   0  0  0  0  0  0  0  0  0  0  0  0
   83.4380   96.4990  -44.3700 H   0  0  0  0  0  0  0  0  0  0  0  0
   84.4800   98.7480  -44.5330 H   0  0  0  0  0  0  0  0  0  0  0  0
  1 22  1  0  0  0  0
  1  4  1  0  0  0  0
  1  2  2  0  0  0  0
  3  1  2  0  0  0  0
  4  9  1  0  0  0  0
  5  6  1  0  0  0  0
  5  4  1  0  0  0  0
  6  7  1  0  0  0  0
  7 10  1  0  0  0  0
  7  8  1  0  0  0  0
  8 33  1  0  0  0  0
  9 35  1  0  0  0  0
  9  8  1  0  0  0  0
  9 36  1  0  0  0  0
 10 11  2  0  0  0  0
 10 12  1  0  0  0  0
 12 37  1  1  0  0  0
 12 13  1  0  0  0  0
 13 19  1  0  0  0  0
 14 13  1  0  0  0  0
 14 21  1  1  0  0  0
 14 17  1  0  0  0  0
 15 14  1  0  0  0  0
 16 15  1  0  0  0  0
 16 12  1  0  0  0  0
 17 41  1  0  0  0  0
 17 18  1  0  0  0  0
 18 43  1  0  0  0  0
 18 42  1  0  0  0  0
 19 20  2  0  0  0  0
 19 18  1  0  0  0  0
 21 44  1  0  0  0  0
 21 46  1  0  0  0  0
 22 27  1  0  0  0  0
 23 24  1  0  0  0  0
 23 22  2  0  0  0  0
 24 25  2  0  0  0  0
 25 28  1  0  0  0  0
 25 26  1  0  0  0  0
 26 49  1  0  0  0  0
 27 26  2  0  0  0  0
 27 50  1  0  0  0  0
 29  5  1  0  0  0  0
 30  5  1  0  0  0  0
 31  6  1  0  0  0  0
 32  6  1  0  0  0  0
 34  8  1  0  0  0  0
 38 16  1  0  0  0  0
 39 16  1  0  0  0  0
 40 17  1  0  0  0  0
 45 21  1  0  0  0  0
 47 23  1  0  0  0  0
 48 24  1  0  0  0  0
M  END
>  <Pose>
1

>  <Score>
-4.43

$$$$
