
 OpenBabel03212208273D

 44 47  0  0  1  0  0  0  0  0999 V2000
   91.9850   89.6540  -52.7060 B   0  0  0  0  0  0  0  0  0  0  0  0
   91.0930   90.7360  -51.4040 C   0  0  0  0  0  0  0  0  0  0  0  0
   91.5130   90.7840  -50.0900 C   0  0  0  0  0  0  0  0  0  0  0  0
   90.8770   91.5650  -49.1400 C   0  0  0  0  0  0  0  0  0  0  0  0
   89.7950   92.2990  -49.5730 C   0  0  0  0  0  0  0  0  0  0  0  0
   89.3460   92.2770  -50.8740 C   0  0  0  0  0  0  0  0  0  0  0  0
   89.9930   91.4910  -51.8130 C   0  0  0  0  0  0  0  0  0  0  0  0
   87.8370   93.3210  -51.4090 B   0  0  0  0  0  0  0  0  0  0  0  0
   91.5200   91.4360  -47.8410 C   0  0  0  0  0  0  0  0  0  0  0  0
   91.2380   91.9870  -46.7200 N   0  0  0  0  0  0  0  0  0  0  0  0
   91.9700   91.7490  -45.5530 N   0  0  0  0  0  0  0  0  0  0  0  0
   92.0350   92.7790  -44.5890 C   0  0  0  0  0  0  0  0  0  0  0  0
   91.6220   92.5850  -43.4270 O   0  0  0  0  0  0  0  0  0  0  0  0
   92.5920   94.1330  -44.9000 C   0  0  0  0  0  0  0  0  0  0  0  0
   91.8120   94.8200  -45.8930 N   0  0  0  0  0  0  0  0  0  0  0  0
   91.0680   95.9970  -45.6120 C   0  0  0  0  0  0  0  0  0  0  0  0
   89.9460   96.1320  -46.1470 O   0  0  0  0  0  0  0  0  0  0  0  0
   91.5550   97.0850  -44.7110 C   0  0  2  0  0  0  0  0  0  0  0  0
   90.5400   97.5720  -43.8850 O   0  0  0  0  0  0  0  0  0  0  0  0
   89.9560   98.8320  -43.9980 C   0  0  0  0  0  0  0  0  0  0  0  0
   90.6500   99.7770  -44.7060 C   0  0  0  0  0  0  0  0  0  0  0  0
   90.0900  101.0480  -44.8350 C   0  0  0  0  0  0  0  0  0  0  0  0
   88.8750  101.3800  -44.2790 C   0  0  0  0  0  0  0  0  0  0  0  0
   88.2040  100.4010  -43.5720 C   0  0  0  0  0  0  0  0  0  0  0  0
   88.7520   99.1470  -43.4420 C   0  0  0  0  0  0  0  0  0  0  0  0
   91.8580   99.4570  -45.2620 O   0  0  0  0  0  0  0  0  0  0  0  0
   92.3040   98.1420  -45.4450 C   0  0  0  0  0  0  0  0  0  0  0  0
   92.6310   90.4980  -48.0410 C   0  0  0  0  0  0  0  0  0  0  0  0
   93.4200   90.1400  -47.1260 O   0  0  0  0  0  0  0  0  0  0  0  0
   92.5820   90.1380  -49.4070 N   0  0  0  0  0  0  0  0  0  0  0  0
   89.2680   92.9220  -48.8700 H   0  0  0  0  0  0  0  0  0  0  0  0
   89.6640   91.4590  -52.8260 H   0  0  0  0  0  0  0  0  0  0  0  0
   92.4320   90.8200  -45.4590 H   0  0  0  0  0  0  0  0  0  0  0  0
   92.5330   94.7050  -43.9480 H   0  0  0  0  0  0  0  0  0  0  0  0
   93.6690   94.0710  -45.1730 H   0  0  0  0  0  0  0  0  0  0  0  0
   91.7630   94.4740  -46.8800 H   0  0  0  0  0  0  0  0  0  0  0  0
   92.2810   96.5630  -44.0210 H   0  0  0  0  0  0  0  0  0  0  0  0
   90.6570  101.7780  -45.3980 H   0  0  0  0  0  0  0  0  0  0  0  0
   88.4770  102.3760  -44.4030 H   0  0  0  0  0  0  0  0  0  0  0  0
   87.2310  100.6740  -43.1290 H   0  0  0  0  0  0  0  0  0  0  0  0
   88.2060   98.3990  -42.8820 H   0  0  0  0  0  0  0  0  0  0  0  0
   93.4040   98.1030  -45.1750 H   0  0  0  0  0  0  0  0  0  0  0  0
   92.2610   97.9320  -46.5390 H   0  0  0  0  0  0  0  0  0  0  0  0
   93.2420   89.4830  -49.8590 H   0  0  0  0  0  0  0  0  0  0  0  0
  1  2  1  0  0  0  0
  2  3  1  0  0  0  0
  3 30  1  0  0  0  0
  3  4  2  0  0  0  0
  4  9  1  0  0  0  0
  5  4  1  0  0  0  0
  5 31  1  0  0  0  0
  6  5  2  0  0  0  0
  7  2  2  0  0  0  0
  7  6  1  0  0  0  0
  8  6  1  0  0  0  0
  9 10  2  0  0  0  0
 10 11  1  0  0  0  0
 11 33  1  0  0  0  0
 11 12  1  0  0  0  0
 12 13  2  0  0  0  0
 14 12  1  0  0  0  0
 14 34  1  0  0  0  0
 15 16  1  0  0  0  0
 15 14  1  0  0  0  0
 16 18  1  0  0  0  0
 17 16  2  0  0  0  0
 18 37  1  1  0  0  0
 18 19  1  0  0  0  0
 20 19  1  0  0  0  0
 20 25  1  0  0  0  0
 21 20  2  0  0  0  0
 22 21  1  0  0  0  0
 22 23  2  0  0  0  0
 23 24  1  0  0  0  0
 24 25  2  0  0  0  0
 24 40  1  0  0  0  0
 25 41  1  0  0  0  0
 26 21  1  0  0  0  0
 27 26  1  0  0  0  0
 27 42  1  0  0  0  0
 27 18  1  0  0  0  0
 28  9  1  0  0  0  0
 28 29  2  0  0  0  0
 30 28  1  0  0  0  0
 32  7  1  0  0  0  0
 35 14  1  0  0  0  0
 36 15  1  0  0  0  0
 38 22  1  0  0  0  0
 39 23  1  0  0  0  0
 43 27  1  0  0  0  0
 44 30  1  0  0  0  0
M  END
>  <Pose>
1

>  <Score>
-5.72

$$$$
