
 OpenBabel03212208273D

 39 42  0  0  0  0  0  0  0  0999 V2000
   91.8760   96.5480  -41.3460 Cl  0  0  0  0  0  0  0  0  0  0  0  0
   91.7770   95.3020  -42.5810 C   0  0  0  0  0  0  0  0  0  0  0  0
   91.5290   95.7060  -43.8770 C   0  0  0  0  0  0  0  0  0  0  0  0
   91.4550   94.7130  -44.8310 C   0  0  0  0  0  0  0  0  0  0  0  0
   91.6100   93.3770  -44.5690 C   0  0  0  0  0  0  0  0  0  0  0  0
   91.8600   93.0180  -43.2390 C   0  0  0  0  0  0  0  0  0  0  0  0
   91.9440   93.9600  -42.2480 C   0  0  0  0  0  0  0  0  0  0  0  0
   91.5290   92.3450  -45.5920 C   0  0  0  0  0  0  0  0  0  0  0  0
   91.5730   91.0160  -45.4640 N   0  0  0  0  0  0  0  0  0  0  0  0
   91.4600   90.4560  -46.6790 N   0  0  0  0  0  0  0  0  0  0  0  0
   91.3460   91.4250  -47.5700 N   0  0  0  0  0  0  0  0  0  0  0  0
   91.3870   92.5820  -46.9060 N   0  0  0  0  0  0  0  0  0  0  0  0
   91.3520   97.1260  -44.2310 C   0  0  0  0  0  0  0  0  0  0  0  0
   92.2870   97.6810  -44.8530 O   0  0  0  0  0  0  0  0  0  0  0  0
   90.2110   97.8640  -43.9100 N   0  0  0  0  0  0  0  0  0  0  0  0
   89.7340   99.0930  -44.3970 C   0  0  0  0  0  0  0  0  0  0  0  0
   88.3010   99.3110  -44.6340 C   0  0  0  0  0  0  0  0  0  0  0  0
   87.5720  100.2750  -43.8130 C   0  0  0  0  0  0  0  0  0  0  0  0
   86.3030  100.2030  -43.4000 N   0  0  0  0  0  0  0  0  0  0  0  0
   86.0500  101.2590  -42.6440 C   0  0  0  0  0  0  0  0  0  0  0  0
   87.1680  101.9950  -42.5860 N   0  0  0  0  0  0  0  0  0  0  0  0
   88.0860  101.3960  -43.2950 N   0  0  0  0  0  0  0  0  0  0  0  0
   84.8200  101.4770  -42.0610 C   0  0  0  0  0  0  0  0  0  0  0  0
   83.8320  100.5380  -42.2950 C   0  0  0  0  0  0  0  0  0  0  0  0
   84.1020   99.4490  -43.0780 C   0  0  0  0  0  0  0  0  0  0  0  0
   85.3400   99.2870  -43.6270 C   0  0  0  0  0  0  0  0  0  0  0  0
   91.2620   95.0270  -45.8470 H   0  0  0  0  0  0  0  0  0  0  0  0
   91.9810   91.9510  -43.0470 H   0  0  0  0  0  0  0  0  0  0  0  0
   92.1380   93.6610  -41.2270 H   0  0  0  0  0  0  0  0  0  0  0  0
   91.4600   89.4350  -46.9040 H   0  0  0  0  0  0  0  0  0  0  0  0
   89.5970   97.3950  -43.1520 H   0  0  0  0  0  0  0  0  0  0  0  0
   90.0940   99.9280  -43.6970 H   0  0  0  0  0  0  0  0  0  0  0  0
   90.2880   99.3840  -45.3470 H   0  0  0  0  0  0  0  0  0  0  0  0
   87.7590   98.3070  -44.6430 H   0  0  0  0  0  0  0  0  0  0  0  0
   88.1440   99.6370  -45.7160 H   0  0  0  0  0  0  0  0  0  0  0  0
   84.6540  102.3410  -41.4580 H   0  0  0  0  0  0  0  0  0  0  0  0
   82.8590  100.6530  -41.8700 H   0  0  0  0  0  0  0  0  0  0  0  0
   83.3540   98.7000  -43.2780 H   0  0  0  0  0  0  0  0  0  0  0  0
   85.5880   98.4350  -44.2530 H   0  0  0  0  0  0  0  0  0  0  0  0
  2  7  1  0  0  0  0
  2  1  1  0  0  0  0
  3  2  2  0  0  0  0
  4  5  2  0  0  0  0
  4  3  1  0  0  0  0
  5  6  1  0  0  0  0
  6 28  1  0  0  0  0
  6  7  2  0  0  0  0
  7 29  1  0  0  0  0
  8  9  2  0  0  0  0
  8  5  1  0  0  0  0
 10  9  1  0  0  0  0
 11 12  2  0  0  0  0
 11 10  1  0  0  0  0
 12  8  1  0  0  0  0
 13 15  1  0  0  0  0
 13  3  1  0  0  0  0
 14 13  2  0  0  0  0
 15 31  1  0  0  0  0
 16 15  1  0  0  0  0
 16 32  1  0  0  0  0
 17 16  1  0  0  0  0
 17 18  1  0  0  0  0
 18 19  1  0  0  0  0
 18 22  2  0  0  0  0
 19 20  1  0  0  0  0
 20 21  2  0  0  0  0
 20 23  1  0  0  0  0
 22 21  1  0  0  0  0
 23 36  1  0  0  0  0
 24 23  2  0  0  0  0
 24 37  1  0  0  0  0
 25 24  1  0  0  0  0
 26 19  1  0  0  0  0
 26 25  2  0  0  0  0
 27  4  1  0  0  0  0
 30 10  1  0  0  0  0
 33 16  1  0  0  0  0
 34 17  1  0  0  0  0
 35 17  1  0  0  0  0
 38 25  1  0  0  0  0
 39 26  1  0  0  0  0
M  END
>  <Pose>
1

>  <Score>
-6.34

$$$$
