
 OpenBabel03212208273D

 53 56  0  0  1  0  0  0  0  0999 V2000
   90.0580   96.9150  -46.0450 S   0  0  0  0  0  0  0  0  0  0  0  0
   88.7060   97.0710  -45.3450 O   0  0  0  0  0  0  0  0  0  0  0  0
   89.6890   96.6600  -47.5110 O   0  0  0  0  0  0  0  0  0  0  0  0
   90.8520   98.4040  -45.8940 N   0  0  0  0  0  0  0  0  0  0  0  0
   92.2660   98.3640  -45.7710 C   0  0  0  0  0  0  0  0  0  0  0  0
   92.8970   99.7330  -45.6760 C   0  0  1  0  0  0  0  0  0  0  0  0
   92.4980  100.5730  -46.8400 C   0  0  0  0  0  0  0  0  0  0  0  0
   90.9940  100.5590  -47.0550 C   0  0  0  0  0  0  0  0  0  0  0  0
   90.5310   99.1460  -47.1310 C   0  0  0  0  0  0  0  0  0  0  0  0
   92.7410  100.3800  -44.3570 C   0  0  0  0  0  0  0  0  0  0  0  0
   93.7900  100.3580  -43.6130 O   0  0  0  0  0  0  0  0  0  0  0  0
   91.6090  100.9990  -43.8460 N   0  0  0  0  0  0  0  0  0  0  0  0
   90.4760  100.2500  -43.4020 C   0  0  0  0  0  0  0  0  0  0  0  0
   89.7910  100.8420  -42.2020 C   0  0  0  0  0  0  0  0  0  0  0  0
   89.9730  102.1770  -42.0220 O   0  0  0  0  0  0  0  0  0  0  0  0
   91.2420  102.6680  -42.2510 C   0  0  0  0  0  0  0  0  0  0  0  0
   91.5040  102.4340  -43.7480 C   0  0  0  0  0  0  0  0  0  0  0  0
   90.8640   95.5240  -45.4530 C   0  0  0  0  0  0  0  0  0  0  0  0
   91.4100   95.4610  -44.1950 C   0  0  0  0  0  0  0  0  0  0  0  0
   91.9920   94.2830  -43.7510 C   0  0  0  0  0  0  0  0  0  0  0  0
   92.0410   93.1450  -44.5600 C   0  0  0  0  0  0  0  0  0  0  0  0
   91.5000   93.1950  -45.8250 C   0  0  0  0  0  0  0  0  0  0  0  0
   90.9270   94.3710  -46.2470 C   0  0  0  0  0  0  0  0  0  0  0  0
   91.5390   92.0240  -46.6900 C   0  0  0  0  0  0  0  0  0  0  0  0
   91.5330   90.7410  -46.2890 N   0  0  0  0  0  0  0  0  0  0  0  0
   91.5760   89.9510  -47.3260 O   0  0  0  0  0  0  0  0  0  0  0  0
   91.6100   90.6770  -48.4120 C   0  0  0  0  0  0  0  0  0  0  0  0
   91.5880   91.9680  -48.0310 N   0  0  0  0  0  0  0  0  0  0  0  0
   91.6650   90.1770  -49.8300 C   0  0  0  0  0  0  0  0  0  0  0  0
   91.4930   96.8320  -43.1100 Cl  0  0  0  0  0  0  0  0  0  0  0  0
   92.5920   97.7670  -44.8750 H   0  0  0  0  0  0  0  0  0  0  0  0
   92.6970   97.8630  -46.6550 H   0  0  0  0  0  0  0  0  0  0  0  0
   94.0060   99.5410  -45.8030 H   0  0  0  0  0  0  0  0  0  0  0  0
   92.9430  100.1210  -47.7550 H   0  0  0  0  0  0  0  0  0  0  0  0
   92.8470  101.6130  -46.7350 H   0  0  0  0  0  0  0  0  0  0  0  0
   90.5180  101.0480  -46.1880 H   0  0  0  0  0  0  0  0  0  0  0  0
   90.8060  101.0490  -48.0160 H   0  0  0  0  0  0  0  0  0  0  0  0
   91.0690   98.6150  -47.9650 H   0  0  0  0  0  0  0  0  0  0  0  0
   89.4420   99.1310  -47.3100 H   0  0  0  0  0  0  0  0  0  0  0  0
   90.7140   99.1910  -43.1630 H   0  0  0  0  0  0  0  0  0  0  0  0
   89.7530  100.2060  -44.2650 H   0  0  0  0  0  0  0  0  0  0  0  0
   90.0830  100.3030  -41.2520 H   0  0  0  0  0  0  0  0  0  0  0  0
   88.7010  100.6490  -42.3170 H   0  0  0  0  0  0  0  0  0  0  0  0
   91.9600  102.0280  -41.6740 H   0  0  0  0  0  0  0  0  0  0  0  0
   91.2830  103.7190  -41.9810 H   0  0  0  0  0  0  0  0  0  0  0  0
   92.3220  103.0130  -44.1480 H   0  0  0  0  0  0  0  0  0  0  0  0
   90.5210  102.6820  -44.2640 H   0  0  0  0  0  0  0  0  0  0  0  0
   92.4140   94.2480  -42.7600 H   0  0  0  0  0  0  0  0  0  0  0  0
   92.4970   92.2310  -44.2060 H   0  0  0  0  0  0  0  0  0  0  0  0
   90.5100   94.3830  -47.2420 H   0  0  0  0  0  0  0  0  0  0  0  0
   91.5840   89.0790  -49.8110 H   0  0  0  0  0  0  0  0  0  0  0  0
   90.8460   90.6790  -50.3770 H   0  0  0  0  0  0  0  0  0  0  0  0
   92.6400   90.5260  -50.2400 H   0  0  0  0  0  0  0  0  0  0  0  0
  1  4  1  0  0  0  0
  1 18  1  0  0  0  0
  1  2  2  0  0  0  0
  3  1  2  0  0  0  0
  4  5  1  0  0  0  0
  5  6  1  0  0  0  0
  5 31  1  0  0  0  0
  6 33  1  6  0  0  0
  6 10  1  0  0  0  0
  7 35  1  0  0  0  0
  7  6  1  0  0  0  0
  8  7  1  0  0  0  0
  8 36  1  0  0  0  0
  9  8  1  0  0  0  0
  9  4  1  0  0  0  0
 10 12  1  0  0  0  0
 10 11  2  0  0  0  0
 12 17  1  0  0  0  0
 12 13  1  0  0  0  0
 13 40  1  0  0  0  0
 13 14  1  0  0  0  0
 14 15  1  0  0  0  0
 14 42  1  0  0  0  0
 16 15  1  0  0  0  0
 16 45  1  0  0  0  0
 16 44  1  0  0  0  0
 17 16  1  0  0  0  0
 18 19  1  0  0  0  0
 19 20  2  0  0  0  0
 19 30  1  0  0  0  0
 20 48  1  0  0  0  0
 21 49  1  0  0  0  0
 21 20  1  0  0  0  0
 22 21  2  0  0  0  0
 23 22  1  0  0  0  0
 23 18  2  0  0  0  0
 24 25  2  0  0  0  0
 24 22  1  0  0  0  0
 26 25  1  0  0  0  0
 27 28  2  0  0  0  0
 27 26  1  0  0  0  0
 28 24  1  0  0  0  0
 29 51  1  0  0  0  0
 29 27  1  0  0  0  0
 32  5  1  0  0  0  0
 34  7  1  0  0  0  0
 37  8  1  0  0  0  0
 38  9  1  0  0  0  0
 39  9  1  0  0  0  0
 41 13  1  0  0  0  0
 43 14  1  0  0  0  0
 46 17  1  0  0  0  0
 47 17  1  0  0  0  0
 50 23  1  0  0  0  0
 52 29  1  0  0  0  0
 53 29  1  0  0  0  0
M  END
>  <Pose>
1

>  <Score>
-5.24

$$$$
