
 OpenBabel03212208273D

 67 70  0  0  1  0  0  0  0  0999 V2000
   90.5820   98.4580  -43.5840 S   0  0  0  0  0  0  0  0  0  0  0  0
   89.6210   98.8900  -42.4770 O   0  0  0  0  0  0  0  0  0  0  0  0
   89.6710   97.7760  -44.5980 O   0  0  0  0  0  0  0  0  0  0  0  0
   91.6260   97.3210  -42.9670 N   0  0  0  0  0  0  0  0  0  0  0  0
   91.7340   96.0570  -43.5800 C   0  0  0  0  0  0  0  0  0  0  0  0
   91.4230   94.9040  -42.6500 C   0  0  2  0  0  0  0  0  0  0  0  0
   91.6910   95.1860  -41.2220 C   0  0  0  0  0  0  0  0  0  0  0  0
   92.5540   96.3560  -40.9140 C   0  0  0  0  0  0  0  0  0  0  0  0
   92.3700   97.5550  -41.8100 C   0  0  0  0  0  0  0  0  0  0  0  0
   92.1420   93.6740  -43.0720 C   0  0  0  0  0  0  0  0  0  0  0  0
   92.5240   92.8790  -42.1780 O   0  0  0  0  0  0  0  0  0  0  0  0
   92.3860   93.4130  -44.4720 N   0  0  0  0  0  0  0  0  0  0  0  0
   92.0110   92.1410  -44.9730 C   0  0  0  0  0  0  0  0  0  0  0  0
   91.5410   92.0300  -46.3740 C   0  0  0  0  0  0  0  0  0  0  0  0
   91.5440   90.7640  -47.0070 N   0  0  0  0  0  0  0  0  0  0  0  0
   92.7650   90.1350  -47.2200 C   0  0  0  0  0  0  0  0  0  0  0  0
   93.1870   89.9520  -48.6490 C   0  0  0  0  0  0  0  0  0  0  0  0
   92.1300   89.6080  -49.4780 O   0  0  0  0  0  0  0  0  0  0  0  0
   91.2450   90.6860  -49.4570 C   0  0  0  0  0  0  0  0  0  0  0  0
   90.5950   90.6910  -48.0930 C   0  0  0  0  0  0  0  0  0  0  0  0
   91.2880   99.8400  -44.3350 C   0  0  0  0  0  0  0  0  0  0  0  0
   91.8640   99.7330  -45.5920 C   0  0  0  0  0  0  0  0  0  0  0  0
   92.4270  100.8060  -46.2390 C   0  0  0  0  0  0  0  0  0  0  0  0
   92.4220  102.0550  -45.6070 C   0  0  0  0  0  0  0  0  0  0  0  0
   91.8570  102.1490  -44.3780 C   0  0  0  0  0  0  0  0  0  0  0  0
   91.2890  101.0670  -43.7270 C   0  0  0  0  0  0  0  0  0  0  0  0
   90.5180  101.3220  -41.9760 B   0  0  0  0  0  0  0  0  0  0  0  0
   93.0770  103.0750  -46.4700 C   0  0  0  0  0  0  0  0  0  0  0  0
   93.9180  102.2060  -47.3830 C   0  0  0  0  0  0  0  0  0  0  0  0
   93.0650  101.0180  -47.4910 N   0  0  0  0  0  0  0  0  0  0  0  0
   92.9430  100.2670  -48.6590 C   0  0  0  0  0  0  0  0  0  0  0  0
   93.9220   99.5450  -49.0530 O   0  0  0  0  0  0  0  0  0  0  0  0
   91.7440  100.2440  -49.4950 C   0  0  0  0  0  0  0  0  0  0  0  0
   91.9980   99.5670  -50.8400 C   0  0  0  0  0  0  0  0  0  0  0  0
   92.8050   95.9110  -43.9050 H   0  0  0  0  0  0  0  0  0  0  0  0
   91.1320   96.0360  -44.5030 H   0  0  0  0  0  0  0  0  0  0  0  0
   90.3180   94.7130  -42.7950 H   0  0  0  0  0  0  0  0  0  0  0  0
   92.2040   94.2870  -40.7610 H   0  0  0  0  0  0  0  0  0  0  0  0
   90.7250   95.3270  -40.6760 H   0  0  0  0  0  0  0  0  0  0  0  0
   92.3080   96.7110  -39.8780 H   0  0  0  0  0  0  0  0  0  0  0  0
   93.6230   96.0300  -40.8380 H   0  0  0  0  0  0  0  0  0  0  0  0
   92.0180   98.4590  -41.2810 H   0  0  0  0  0  0  0  0  0  0  0  0
   93.4220   97.8390  -42.1330 H   0  0  0  0  0  0  0  0  0  0  0  0
   92.8240   94.1790  -44.9900 H   0  0  0  0  0  0  0  0  0  0  0  0
   91.1620   91.7820  -44.3240 H   0  0  0  0  0  0  0  0  0  0  0  0
   92.8980   91.4540  -44.7790 H   0  0  0  0  0  0  0  0  0  0  0  0
   90.4860   92.4800  -46.4520 H   0  0  0  0  0  0  0  0  0  0  0  0
   92.1260   92.7910  -46.9980 H   0  0  0  0  0  0  0  0  0  0  0  0
   92.6200   89.0430  -46.8550 H   0  0  0  0  0  0  0  0  0  0  0  0
   93.5640   90.4840  -46.5520 H   0  0  0  0  0  0  0  0  0  0  0  0
   93.6000   90.9020  -49.0290 H   0  0  0  0  0  0  0  0  0  0  0  0
   93.9760   89.1820  -48.7580 H   0  0  0  0  0  0  0  0  0  0  0  0
   91.7350   91.6210  -49.7300 H   0  0  0  0  0  0  0  0  0  0  0  0
   90.4140   90.5330  -50.1950 H   0  0  0  0  0  0  0  0  0  0  0  0
   90.0960   89.6820  -47.9890 H   0  0  0  0  0  0  0  0  0  0  0  0
   89.7790   91.4230  -47.9990 H   0  0  0  0  0  0  0  0  0  0  0  0
   91.8950   98.7940  -46.1250 H   0  0  0  0  0  0  0  0  0  0  0  0
   91.8370  103.1130  -43.8560 H   0  0  0  0  0  0  0  0  0  0  0  0
   92.3750  103.7010  -47.0240 H   0  0  0  0  0  0  0  0  0  0  0  0
   93.7560  103.7020  -45.8660 H   0  0  0  0  0  0  0  0  0  0  0  0
   94.0820  102.6780  -48.3720 H   0  0  0  0  0  0  0  0  0  0  0  0
   94.8930  102.0000  -46.9390 H   0  0  0  0  0  0  0  0  0  0  0  0
   90.9940   99.6010  -48.9350 H   0  0  0  0  0  0  0  0  0  0  0  0
   91.2800  101.2140  -49.6890 H   0  0  0  0  0  0  0  0  0  0  0  0
   91.1470   98.9130  -51.0830 H   0  0  0  0  0  0  0  0  0  0  0  0
   92.9540   99.0050  -50.7600 H   0  0  0  0  0  0  0  0  0  0  0  0
   92.1280  100.3580  -51.6040 H   0  0  0  0  0  0  0  0  0  0  0  0
  1  4  1  0  0  0  0
  1  2  2  0  0  0  0
  3  1  2  0  0  0  0
  4  9  1  0  0  0  0
  5  4  1  0  0  0  0
  5  6  1  0  0  0  0
  6 37  1  6  0  0  0
  6  7  1  0  0  0  0
  7  8  1  0  0  0  0
  7 38  1  0  0  0  0
  7 39  1  0  0  0  0
  8 41  1  0  0  0  0
  8 40  1  0  0  0  0
  9 42  1  0  0  0  0
  9  8  1  0  0  0  0
 10  6  1  0  0  0  0
 10 11  2  0  0  0  0
 12 10  1  0  0  0  0
 13 46  1  0  0  0  0
 13 12  1  0  0  0  0
 13 45  1  0  0  0  0
 14 13  1  0  0  0  0
 15 14  1  0  0  0  0
 16 15  1  0  0  0  0
 16 49  1  0  0  0  0
 16 50  1  0  0  0  0
 17 16  1  0  0  0  0
 18 19  1  0  0  0  0
 18 17  1  0  0  0  0
 19 20  1  0  0  0  0
 20 56  1  0  0  0  0
 20 55  1  0  0  0  0
 20 15  1  0  0  0  0
 21 26  1  0  0  0  0
 21  1  1  0  0  0  0
 22 21  2  0  0  0  0
 23 24  2  0  0  0  0
 23 22  1  0  0  0  0
 24 25  1  0  0  0  0
 25 58  1  0  0  0  0
 25 26  2  0  0  0  0
 26 27  1  0  0  0  0
 28 60  1  0  0  0  0
 28 24  1  0  0  0  0
 29 62  1  0  0  0  0
 29 28  1  0  0  0  0
 30 29  1  0  0  0  0
 30 23  1  0  0  0  0
 31 30  1  0  0  0  0
 32 31  2  0  0  0  0
 33 63  1  0  0  0  0
 33 31  1  0  0  0  0
 34 66  1  0  0  0  0
 34 33  1  0  0  0  0
 35  5  1  0  0  0  0
 36  5  1  0  0  0  0
 43  9  1  0  0  0  0
 44 12  1  0  0  0  0
 47 14  1  0  0  0  0
 48 14  1  0  0  0  0
 51 17  1  0  0  0  0
 52 17  1  0  0  0  0
 53 19  1  0  0  0  0
 54 19  1  0  0  0  0
 57 22  1  0  0  0  0
 59 28  1  0  0  0  0
 61 29  1  0  0  0  0
 64 33  1  0  0  0  0
 65 34  1  0  0  0  0
 67 34  1  0  0  0  0
M  END
>  <Pose>
1

>  <Score>
-6.00

$$$$
