
 OpenBabel03212208273D

 49 52  0  0  1  0  0  0  0  0999 V2000
   86.5090   85.8220  -50.5360 Cl  0  0  0  0  0  0  0  0  0  0  0  0
   87.8330   86.8810  -50.0500 C   0  0  0  0  0  0  0  0  0  0  0  0
   88.1160   87.0870  -48.7260 C   0  0  0  0  0  0  0  0  0  0  0  0
   89.1570   87.9200  -48.3590 C   0  0  0  0  0  0  0  0  0  0  0  0
   89.9460   88.5680  -49.2850 C   0  0  0  0  0  0  0  0  0  0  0  0
   89.6510   88.3490  -50.6140 C   0  0  0  0  0  0  0  0  0  0  0  0
   88.5970   87.5080  -50.9960 C   0  0  0  0  0  0  0  0  0  0  0  0
   91.0210   89.4210  -48.9030 N   0  0  0  0  0  0  0  0  0  0  0  0
   91.0120   90.8720  -48.7580 C   0  0  0  0  0  0  0  0  0  0  0  0
   92.0960   91.2060  -47.7710 C   0  0  2  0  0  0  0  0  0  0  0  0
   92.9900   90.0150  -47.6800 C   0  0  0  0  0  0  0  0  0  0  0  0
   92.3680   89.0140  -48.5770 C   0  0  0  0  0  0  0  0  0  0  0  0
   92.8520   87.9330  -49.0470 O   0  0  0  0  0  0  0  0  0  0  0  0
   91.6230   91.7490  -46.4920 C   0  0  0  0  0  0  0  0  0  0  0  0
   91.5930   90.9370  -45.4930 O   0  0  0  0  0  0  0  0  0  0  0  0
   91.2000   93.0580  -46.2360 N   0  0  0  0  0  0  0  0  0  0  0  0
   91.9760   94.1870  -46.7230 C   0  0  0  0  0  0  0  0  0  0  0  0
   92.3780   95.0980  -45.5670 C   0  0  0  0  0  0  0  0  0  0  0  0
   91.3270   95.1060  -44.5930 N   0  0  0  0  0  0  0  0  0  0  0  0
   89.9900   94.8310  -45.0210 C   0  0  0  0  0  0  0  0  0  0  0  0
   89.9990   93.3650  -45.4960 C   0  0  0  0  0  0  0  0  0  0  0  0
   91.6000   95.3720  -43.2340 C   0  0  0  0  0  0  0  0  0  0  0  0
   91.9930   94.4710  -42.2910 N   0  0  0  0  0  0  0  0  0  0  0  0
   92.1590   95.1060  -41.1240 C   0  0  0  0  0  0  0  0  0  0  0  0
   91.8670   96.4370  -41.3130 C   0  0  0  0  0  0  0  0  0  0  0  0
   91.5380   96.5530  -42.5880 N   0  0  0  0  0  0  0  0  0  0  0  0
   92.1990   93.0340  -42.5210 C   0  0  0  0  0  0  0  0  0  0  0  0
   87.4940   86.5780  -47.9950 H   0  0  0  0  0  0  0  0  0  0  0  0
   89.3310   88.0450  -47.2970 H   0  0  0  0  0  0  0  0  0  0  0  0
   90.2290   88.8260  -51.3650 H   0  0  0  0  0  0  0  0  0  0  0  0
   88.3740   87.3430  -52.0420 H   0  0  0  0  0  0  0  0  0  0  0  0
   90.0160   91.2020  -48.4710 H   0  0  0  0  0  0  0  0  0  0  0  0
   91.2270   91.2800  -49.7840 H   0  0  0  0  0  0  0  0  0  0  0  0
   92.7190   92.0010  -48.2910 H   0  0  0  0  0  0  0  0  0  0  0  0
   94.0200   90.1880  -48.1180 H   0  0  0  0  0  0  0  0  0  0  0  0
   93.1580   89.6650  -46.6530 H   0  0  0  0  0  0  0  0  0  0  0  0
   91.3110   94.7680  -47.4050 H   0  0  0  0  0  0  0  0  0  0  0  0
   92.8470   93.8820  -47.3190 H   0  0  0  0  0  0  0  0  0  0  0  0
   92.4450   96.1350  -45.9750 H   0  0  0  0  0  0  0  0  0  0  0  0
   93.3510   94.7480  -45.1630 H   0  0  0  0  0  0  0  0  0  0  0  0
   89.2500   94.8730  -44.1900 H   0  0  0  0  0  0  0  0  0  0  0  0
   89.7150   95.4910  -45.8680 H   0  0  0  0  0  0  0  0  0  0  0  0
   89.0680   93.2210  -46.0790 H   0  0  0  0  0  0  0  0  0  0  0  0
   90.0320   92.7940  -44.5550 H   0  0  0  0  0  0  0  0  0  0  0  0
   92.4670   94.6520  -40.1900 H   0  0  0  0  0  0  0  0  0  0  0  0
   91.8950   97.2480  -40.5770 H   0  0  0  0  0  0  0  0  0  0  0  0
   91.4730   92.4650  -41.8890 H   0  0  0  0  0  0  0  0  0  0  0  0
   91.9990   92.8150  -43.5800 H   0  0  0  0  0  0  0  0  0  0  0  0
   93.1990   92.7510  -42.1890 H   0  0  0  0  0  0  0  0  0  0  0  0
  1  2  1  0  0  0  0
  2  3  1  0  0  0  0
  3  4  2  0  0  0  0
  3 28  1  0  0  0  0
  4 29  1  0  0  0  0
  5  8  1  0  0  0  0
  5  4  1  0  0  0  0
  6  5  2  0  0  0  0
  7  6  1  0  0  0  0
  7  2  2  0  0  0  0
  8  9  1  0  0  0  0
  8 12  1  0  0  0  0
  9 32  1  0  0  0  0
  9 10  1  0  0  0  0
 10 34  1  6  0  0  0
 10 11  1  0  0  0  0
 10 14  1  0  0  0  0
 11 36  1  0  0  0  0
 12 11  1  0  0  0  0
 13 12  2  0  0  0  0
 14 16  1  0  0  0  0
 14 15  2  0  0  0  0
 16 21  1  0  0  0  0
 17 16  1  0  0  0  0
 17 18  1  0  0  0  0
 18 40  1  0  0  0  0
 18 19  1  0  0  0  0
 19 22  1  0  0  0  0
 20 19  1  0  0  0  0
 20 41  1  0  0  0  0
 21 20  1  0  0  0  0
 21 44  1  0  0  0  0
 22 26  2  0  0  0  0
 22 23  1  0  0  0  0
 23 24  1  0  0  0  0
 24 45  1  0  0  0  0
 25 24  2  0  0  0  0
 25 46  1  0  0  0  0
 26 25  1  0  0  0  0
 27 23  1  0  0  0  0
 27 49  1  0  0  0  0
 27 47  1  0  0  0  0
 30  6  1  0  0  0  0
 31  7  1  0  0  0  0
 33  9  1  0  0  0  0
 35 11  1  0  0  0  0
 37 17  1  0  0  0  0
 38 17  1  0  0  0  0
 39 18  1  0  0  0  0
 42 20  1  0  0  0  0
 43 21  1  0  0  0  0
 48 27  1  0  0  0  0
M  END
>  <Pose>
1

>  <Score>
-5.15

$$$$
