
 OpenBabel03212208273D

 35 38  0  0  1  0  0  0  0  0999 V2000
   95.9630  103.7230  -40.7300 Cl  0  0  0  0  0  0  0  0  0  0  0  0
   94.7650  102.4970  -41.1420 C   0  0  0  0  0  0  0  0  0  0  0  0
   94.3500  102.3350  -42.4500 C   0  0  0  0  0  0  0  0  0  0  0  0
   93.4200  101.3840  -42.7950 C   0  0  0  0  0  0  0  0  0  0  0  0
   92.8610  100.5440  -41.8240 C   0  0  0  0  0  0  0  0  0  0  0  0
   93.2980  100.7340  -40.5340 C   0  0  0  0  0  0  0  0  0  0  0  0
   94.2260  101.6770  -40.1610 C   0  0  0  0  0  0  0  0  0  0  0  0
   91.9060   99.5560  -42.1870 N   0  0  0  0  0  0  0  0  0  0  0  0
   90.6120   99.7330  -42.7850 C   0  0  0  0  0  0  0  0  0  0  0  0
   90.0400  100.8490  -42.8760 O   0  0  0  0  0  0  0  0  0  0  0  0
   90.0720   98.4360  -43.2630 C   0  0  1  0  0  0  0  0  0  0  0  0
   89.8940   98.3670  -44.7450 C   0  0  1  0  0  0  0  0  0  0  0  0
   90.9490   99.2570  -45.3680 C   0  0  1  0  0  0  0  0  0  0  0  0
   92.2320   98.5210  -44.9820 C   0  0  1  0  0  0  0  0  0  0  0  0
   91.7920   97.2380  -44.3160 C   0  0  1  0  0  0  0  0  0  0  0  0
   91.2040   97.4470  -42.9570 C   0  0  1  0  0  0  0  0  0  0  0  0
   92.0940   98.1610  -42.0100 C   0  0  0  0  0  0  0  0  0  0  0  0
   92.8700   97.5930  -41.2030 O   0  0  0  0  0  0  0  0  0  0  0  0
   90.4910   96.9990  -45.1150 C   0  0  0  0  0  0  0  0  0  0  0  0
   92.9490   98.1420  -46.1150 O   0  0  0  0  0  0  0  0  0  0  0  0
   90.8180   99.1730  -46.7380 O   0  0  0  0  0  0  0  0  0  0  0  0
   94.7880  102.9920  -43.1980 H   0  0  0  0  0  0  0  0  0  0  0  0
   93.0810  101.2400  -43.8010 H   0  0  0  0  0  0  0  0  0  0  0  0
   92.8860  100.0980  -39.7470 H   0  0  0  0  0  0  0  0  0  0  0  0
   94.5620  101.8120  -39.1290 H   0  0  0  0  0  0  0  0  0  0  0  0
   89.1690   98.1280  -42.6970 H   0  0  0  0  0  0  0  0  0  0  0  0
   88.8960   98.5060  -45.1200 H   0  0  0  0  0  0  0  0  0  0  0  0
   90.9290  100.2780  -44.9720 H   0  0  0  0  0  0  0  0  0  0  0  0
   92.8750   99.1360  -44.3620 H   0  0  0  0  0  0  0  0  0  0  0  0
   92.4880   96.4090  -44.4080 H   0  0  0  0  0  0  0  0  0  0  0  0
   90.8250   96.4870  -42.5700 H   0  0  0  0  0  0  0  0  0  0  0  0
   89.9170   96.1690  -44.7240 H   0  0  0  0  0  0  0  0  0  0  0  0
   90.7320   96.9730  -46.1960 H   0  0  0  0  0  0  0  0  0  0  0  0
   92.2980   98.1060  -46.8790 H   0  0  0  0  0  0  0  0  0  0  0  0
   91.1000   98.3150  -47.1330 H   0  0  0  0  0  0  0  0  0  0  0  0
  2  1  1  0  0  0  0
  2  7  1  0  0  0  0
  3  2  2  0  0  0  0
  4  3  1  0  0  0  0
  4  5  2  0  0  0  0
  5  6  1  0  0  0  0
  6  7  2  0  0  0  0
  6 24  1  0  0  0  0
  7 25  1  0  0  0  0
  8 17  1  0  0  0  0
  8  5  1  0  0  0  0
  9  8  1  0  0  0  0
 10  9  2  0  0  0  0
 11 16  1  0  0  0  0
 11  9  1  0  0  0  0
 11 26  1  1  0  0  0
 12 27  1  6  0  0  0
 12 11  1  0  0  0  0
 13 14  1  0  0  0  0
 13 28  1  1  0  0  0
 13 12  1  0  0  0  0
 14 29  1  1  0  0  0
 14 15  1  0  0  0  0
 15 30  1  6  0  0  0
 15 16  1  0  0  0  0
 16 31  1  1  0  0  0
 16 17  1  0  0  0  0
 17 18  2  0  0  0  0
 19 12  1  0  0  0  0
 19 32  1  0  0  0  0
 19 15  1  0  0  0  0
 20 14  1  0  0  0  0
 21 13  1  0  0  0  0
 22  3  1  0  0  0  0
 23  4  1  0  0  0  0
 33 19  1  0  0  0  0
 34 20  1  0  0  0  0
 35 21  1  0  0  0  0
M  END
>  <Pose>
1

>  <Score>
-4.28

$$$$
