
 OpenBabel03212208273D

 51 54  0  0  1  0  0  0  0  0999 V2000
   85.1680  103.9810  -41.3750 Cl  0  0  0  0  0  0  0  0  0  0  0  0
   85.4020  102.5120  -42.3320 C   0  0  0  0  0  0  0  0  0  0  0  0
   84.3540  101.6660  -42.5930 C   0  0  0  0  0  0  0  0  0  0  0  0
   84.5550  100.5240  -43.3420 C   0  0  0  0  0  0  0  0  0  0  0  0
   85.7870  100.1970  -43.8470 C   0  0  0  0  0  0  0  0  0  0  0  0
   86.8310  101.0400  -43.5860 C   0  0  0  0  0  0  0  0  0  0  0  0
   86.6460  102.2030  -42.8280 C   0  0  0  0  0  0  0  0  0  0  0  0
   85.9620   99.0120  -44.6120 N   0  0  0  0  0  0  0  0  0  0  0  0
   85.6260   97.7500  -44.0540 C   0  0  0  0  0  0  0  0  0  0  0  0
   85.1700   97.7450  -42.8570 O   0  0  0  0  0  0  0  0  0  0  0  0
   85.7910   96.5730  -44.7900 N   0  0  0  0  0  0  0  0  0  0  0  0
   86.2970   96.6100  -46.1100 C   0  0  0  0  0  0  0  0  0  0  0  0
   86.1540   95.6360  -46.8730 O   0  0  0  0  0  0  0  0  0  0  0  0
   87.0050   97.8170  -46.5930 C   0  0  1  0  0  0  0  0  0  0  0  0
   86.4690   99.0340  -45.9380 C   0  0  0  0  0  0  0  0  0  0  0  0
   86.4650  100.1010  -46.5750 O   0  0  0  0  0  0  0  0  0  0  0  0
   88.4710   97.7270  -46.2700 C   0  0  0  0  0  0  0  0  0  0  0  0
   89.0410   97.7450  -45.0810 C   0  0  0  0  0  0  0  0  0  0  0  0
   90.5150   97.6310  -45.2220 C   0  0  2  0  0  0  0  0  0  0  0  0
   90.7310   98.0060  -46.5920 N   0  0  0  0  0  0  0  0  0  0  0  0
   89.5340   97.6130  -47.2100 N   0  0  0  0  0  0  0  0  0  0  0  0
   90.9110   96.2670  -44.8930 C   0  0  0  0  0  0  0  0  0  0  0  0
   91.2150   95.9690  -43.5820 C   0  0  0  0  0  0  0  0  0  0  0  0
   91.5980   94.7090  -43.1680 C   0  0  0  0  0  0  0  0  0  0  0  0
   91.6760   93.7010  -44.1380 C   0  0  0  0  0  0  0  0  0  0  0  0
   91.3830   93.9500  -45.4610 C   0  0  0  0  0  0  0  0  0  0  0  0
   91.0070   95.2340  -45.8010 C   0  0  0  0  0  0  0  0  0  0  0  0
   91.4760   92.9340  -46.3660 O   0  0  0  0  0  0  0  0  0  0  0  0
   92.4810   92.7540  -47.3200 C   0  0  0  0  0  0  0  0  0  0  0  0
   92.0520   92.4280  -43.7760 O   0  0  0  0  0  0  0  0  0  0  0  0
   91.9050   94.4000  -41.8500 O   0  0  0  0  0  0  0  0  0  0  0  0
   92.0670   95.4860  -40.9610 C   0  0  0  0  0  0  0  0  0  0  0  0
   83.3870  101.9240  -42.1970 H   0  0  0  0  0  0  0  0  0  0  0  0
   83.7130   99.8740  -43.5340 H   0  0  0  0  0  0  0  0  0  0  0  0
   87.8050  100.7990  -43.9740 H   0  0  0  0  0  0  0  0  0  0  0  0
   87.4720  102.8620  -42.6270 H   0  0  0  0  0  0  0  0  0  0  0  0
   85.5230   95.6580  -44.3240 H   0  0  0  0  0  0  0  0  0  0  0  0
   86.8970   97.8510  -47.6950 H   0  0  0  0  0  0  0  0  0  0  0  0
   88.4710   97.8330  -44.1490 H   0  0  0  0  0  0  0  0  0  0  0  0
   90.9790   98.3690  -44.5280 H   0  0  0  0  0  0  0  0  0  0  0  0
   91.5710   97.6220  -47.0220 H   0  0  0  0  0  0  0  0  0  0  0  0
   89.4570   97.2940  -48.1960 H   0  0  0  0  0  0  0  0  0  0  0  0
   91.1660   96.7260  -42.8030 H   0  0  0  0  0  0  0  0  0  0  0  0
   90.7720   95.4680  -46.8220 H   0  0  0  0  0  0  0  0  0  0  0  0
   92.7770   93.7000  -47.8250 H   0  0  0  0  0  0  0  0  0  0  0  0
   92.2480   92.0350  -48.1010 H   0  0  0  0  0  0  0  0  0  0  0  0
   93.3960   92.3990  -46.7940 H   0  0  0  0  0  0  0  0  0  0  0  0
   91.3470   91.7320  -43.5750 H   0  0  0  0  0  0  0  0  0  0  0  0
   92.4470   95.1440  -39.9830 H   0  0  0  0  0  0  0  0  0  0  0  0
   91.1620   96.1030  -40.8720 H   0  0  0  0  0  0  0  0  0  0  0  0
   92.8670   96.1490  -41.3820 H   0  0  0  0  0  0  0  0  0  0  0  0
  2  1  1  0  0  0  0
  3  2  1  0  0  0  0
  3 33  1  0  0  0  0
  4  3  2  0  0  0  0
  5  6  2  0  0  0  0
  5  4  1  0  0  0  0
  6  7  1  0  0  0  0
  7 36  1  0  0  0  0
  7  2  2  0  0  0  0
  8  9  1  0  0  0  0
  8  5  1  0  0  0  0
  9 10  2  0  0  0  0
 11 37  1  0  0  0  0
 11  9  1  0  0  0  0
 12 11  1  0  0  0  0
 13 12  2  0  0  0  0
 14 38  1  6  0  0  0
 14 17  1  0  0  0  0
 14 12  1  0  0  0  0
 14 15  1  0  0  0  0
 15  8  1  0  0  0  0
 16 15  2  0  0  0  0
 17 18  2  0  0  0  0
 18 39  1  0  0  0  0
 19 18  1  0  0  0  0
 19 22  1  0  0  0  0
 19 40  1  1  0  0  0
 20 19  1  0  0  0  0
 21 20  1  0  0  0  0
 21 17  1  0  0  0  0
 22 23  1  0  0  0  0
 23 24  2  0  0  0  0
 23 43  1  0  0  0  0
 24 31  1  0  0  0  0
 25 30  1  0  0  0  0
 25 24  1  0  0  0  0
 26 25  2  0  0  0  0
 27 26  1  0  0  0  0
 27 22  2  0  0  0  0
 28 26  1  0  0  0  0
 29 47  1  0  0  0  0
 29 28  1  0  0  0  0
 30 48  1  0  0  0  0
 31 32  1  0  0  0  0
 32 50  1  0  0  0  0
 32 49  1  0  0  0  0
 34  4  1  0  0  0  0
 35  6  1  0  0  0  0
 41 20  1  0  0  0  0
 42 21  1  0  0  0  0
 44 27  1  0  0  0  0
 45 29  1  0  0  0  0
 46 29  1  0  0  0  0
 51 32  1  0  0  0  0
M  END
>  <Pose>
1

>  <Score>
-5.43

$$$$
