
 OpenBabel03212208273D

 53 56  0  0  1  0  0  0  0  0999 V2000
   91.8400   94.6800  -44.6620 Cl  0  0  0  0  0  0  0  0  0  0  0  0
   91.2480   96.2830  -44.2090 C   0  0  0  0  0  0  0  0  0  0  0  0
   90.5330   97.0160  -45.1290 C   0  0  0  0  0  0  0  0  0  0  0  0
   90.0640   98.2790  -44.7790 C   0  0  0  0  0  0  0  0  0  0  0  0
   90.3040   98.8000  -43.5360 C   0  0  0  0  0  0  0  0  0  0  0  0
   91.0240   98.0430  -42.6370 C   0  0  0  0  0  0  0  0  0  0  0  0
   91.5040   96.7840  -42.9520 C   0  0  0  0  0  0  0  0  0  0  0  0
   89.8160  100.1310  -43.1520 N   0  0  0  0  0  0  0  0  0  0  0  0
   90.6310  101.2690  -43.3900 C   0  0  2  0  0  0  0  0  0  0  0  0
   90.0970  102.5180  -42.8670 C   0  0  0  0  0  0  0  0  0  0  0  0
   88.8700  102.6090  -42.2830 C   0  0  0  0  0  0  0  0  0  0  0  0
   88.4080  103.8560  -41.8200 C   0  0  0  0  0  0  0  0  0  0  0  0
   89.1450  105.0080  -41.9270 C   0  0  0  0  0  0  0  0  0  0  0  0
   90.3910  104.8970  -42.5230 C   0  0  0  0  0  0  0  0  0  0  0  0
   90.8420  103.6980  -42.9720 C   0  0  0  0  0  0  0  0  0  0  0  0
   88.0260  101.4610  -42.0970 N   0  0  0  0  0  0  0  0  0  0  0  0
   88.5500  100.2310  -42.5550 C   0  0  0  0  0  0  0  0  0  0  0  0
   87.8630   99.1660  -42.4280 O   0  0  0  0  0  0  0  0  0  0  0  0
   90.6550  101.3940  -44.8240 O   0  0  0  0  0  0  0  0  0  0  0  0
   92.0450  101.0450  -42.9960 C   0  0  0  0  0  0  0  0  0  0  0  0
   92.8210  100.4820  -43.7700 O   0  0  0  0  0  0  0  0  0  0  0  0
   92.4550  101.4950  -41.7260 N   0  0  0  0  0  0  0  0  0  0  0  0
   92.9410  100.5850  -40.6880 C   0  0  0  0  0  0  0  0  0  0  0  0
   94.2930  100.9430  -40.2030 C   0  0  0  0  0  0  0  0  0  0  0  0
   94.5060  102.2760  -39.7920 N   0  0  0  0  0  0  0  0  0  0  0  0
   94.0200  102.6870  -38.5400 C   0  0  0  0  0  0  0  0  0  0  0  0
   94.6100  104.0620  -38.2150 C   0  0  0  0  0  0  0  0  0  0  0  0
   94.7610  104.8180  -39.3910 O   0  0  0  0  0  0  0  0  0  0  0  0
   95.7960  104.3230  -40.1800 C   0  0  0  0  0  0  0  0  0  0  0  0
   95.7890  102.8210  -40.0850 C   0  0  0  0  0  0  0  0  0  0  0  0
   90.3570   96.5870  -46.0970 H   0  0  0  0  0  0  0  0  0  0  0  0
   89.5100   98.8290  -45.5100 H   0  0  0  0  0  0  0  0  0  0  0  0
   91.2240   98.4300  -41.6560 H   0  0  0  0  0  0  0  0  0  0  0  0
   92.0660   96.1760  -42.2700 H   0  0  0  0  0  0  0  0  0  0  0  0
   87.4350  103.8800  -41.3660 H   0  0  0  0  0  0  0  0  0  0  0  0
   88.8110  105.9700  -41.5800 H   0  0  0  0  0  0  0  0  0  0  0  0
   91.0010  105.8130  -42.6180 H   0  0  0  0  0  0  0  0  0  0  0  0
   91.8060  103.6240  -43.4310 H   0  0  0  0  0  0  0  0  0  0  0  0
   87.0980  101.5690  -41.6510 H   0  0  0  0  0  0  0  0  0  0  0  0
   91.5950  101.3640  -45.1410 H   0  0  0  0  0  0  0  0  0  0  0  0
   92.4350  102.5160  -41.4530 H   0  0  0  0  0  0  0  0  0  0  0  0
   92.1570  100.5380  -39.9290 H   0  0  0  0  0  0  0  0  0  0  0  0
   92.9930   99.5860  -41.1690 H   0  0  0  0  0  0  0  0  0  0  0  0
   95.0170  100.7250  -41.0360 H   0  0  0  0  0  0  0  0  0  0  0  0
   94.5970  100.2640  -39.3800 H   0  0  0  0  0  0  0  0  0  0  0  0
   92.9220  102.6780  -38.4210 H   0  0  0  0  0  0  0  0  0  0  0  0
   94.4130  102.0010  -37.7560 H   0  0  0  0  0  0  0  0  0  0  0  0
   94.0020  104.6150  -37.4950 H   0  0  0  0  0  0  0  0  0  0  0  0
   95.6370  103.9710  -37.7890 H   0  0  0  0  0  0  0  0  0  0  0  0
   96.7850  104.7360  -39.9020 H   0  0  0  0  0  0  0  0  0  0  0  0
   95.6170  104.6080  -41.2300 H   0  0  0  0  0  0  0  0  0  0  0  0
   96.2260  102.3400  -40.9840 H   0  0  0  0  0  0  0  0  0  0  0  0
   96.4750  102.5610  -39.2310 H   0  0  0  0  0  0  0  0  0  0  0  0
  1  2  1  0  0  0  0
  2  7  1  0  0  0  0
  3  4  1  0  0  0  0
  3  2  2  0  0  0  0
  4  5  2  0  0  0  0
  5  8  1  0  0  0  0
  5  6  1  0  0  0  0
  6 33  1  0  0  0  0
  7  6  2  0  0  0  0
  7 34  1  0  0  0  0
  8 17  1  0  0  0  0
  9 19  1  6  0  0  0
  9  8  1  0  0  0  0
  9 20  1  0  0  0  0
  9 10  1  0  0  0  0
 10 11  1  0  0  0  0
 11 16  1  0  0  0  0
 11 12  2  0  0  0  0
 12 35  1  0  0  0  0
 13 12  1  0  0  0  0
 13 36  1  0  0  0  0
 14 13  2  0  0  0  0
 15 10  2  0  0  0  0
 15 14  1  0  0  0  0
 16 39  1  0  0  0  0
 17 18  2  0  0  0  0
 17 16  1  0  0  0  0
 20 22  1  0  0  0  0
 21 20  2  0  0  0  0
 22 41  1  0  0  0  0
 22 23  1  0  0  0  0
 23 24  1  0  0  0  0
 23 42  1  0  0  0  0
 24 25  1  0  0  0  0
 24 45  1  0  0  0  0
 25 26  1  0  0  0  0
 26 46  1  0  0  0  0
 26 27  1  0  0  0  0
 26 47  1  0  0  0  0
 27 49  1  0  0  0  0
 27 48  1  0  0  0  0
 28 27  1  0  0  0  0
 29 30  1  0  0  0  0
 29 50  1  0  0  0  0
 29 28  1  0  0  0  0
 30 25  1  0  0  0  0
 30 53  1  0  0  0  0
 31  3  1  0  0  0  0
 32  4  1  0  0  0  0
 37 14  1  0  0  0  0
 38 15  1  0  0  0  0
 40 19  1  0  0  0  0
 43 23  1  0  0  0  0
 44 24  1  0  0  0  0
 51 29  1  0  0  0  0
 52 30  1  0  0  0  0
M  END
>  <Pose>
1

>  <Score>
-4.11

$$$$
