
 OpenBabel03212208273D

 55 59  0  0  1  0  0  0  0  0999 V2000
   89.7750  105.7090  -35.1610 B   0  0  0  0  0  0  0  0  0  0  0  0
   90.3930  104.9420  -36.7930 C   0  0  0  0  0  0  0  0  0  0  0  0
   91.6810  104.8560  -37.2840 C   0  0  0  0  0  0  0  0  0  0  0  0
   91.6660  104.2300  -38.4890 N   0  0  0  0  0  0  0  0  0  0  0  0
   90.4230  103.9330  -38.7510 N   0  0  0  0  0  0  0  0  0  0  0  0
   89.5970  104.3350  -37.7670 C   0  0  0  0  0  0  0  0  0  0  0  0
   92.7870  103.9310  -39.3490 C   0  0  0  0  0  0  0  0  0  0  0  0
   93.3270  102.5360  -39.1370 C   0  0  2  0  0  0  0  0  0  0  0  0
   94.5480  102.5390  -38.2800 C   0  0  0  0  0  0  0  0  0  0  0  0
   93.5640  101.8960  -40.4630 C   0  0  0  0  0  0  0  0  0  0  0  0
   93.7100  102.6680  -41.4440 O   0  0  0  0  0  0  0  0  0  0  0  0
   93.6200  100.4910  -40.6240 N   0  0  0  0  0  0  0  0  0  0  0  0
   92.5460   99.6410  -40.4890 N   0  0  0  0  0  0  0  0  0  0  0  0
   92.4500   98.4570  -41.2360 C   0  0  0  0  0  0  0  0  0  0  0  0
   92.8240   97.3730  -40.6940 O   0  0  0  0  0  0  0  0  0  0  0  0
   91.9420   98.3840  -42.6260 C   0  0  1  0  0  0  0  0  0  0  0  0
   91.9640   96.9550  -43.1290 C   0  0  0  0  0  0  0  0  0  0  0  0
   91.4610   96.8770  -44.5430 C   0  0  1  0  0  0  0  0  0  0  0  0
   90.0010   97.3350  -44.5240 C   0  0  0  0  0  0  0  0  0  0  0  0
   89.9230   98.7390  -44.0180 C   0  0  1  0  0  0  0  0  0  0  0  0
   90.4970   98.8340  -42.6240 C   0  0  0  0  0  0  0  0  0  0  0  0
   90.7040   99.6420  -44.9450 C   0  0  0  0  0  0  0  0  0  0  0  0
   92.1410   99.1770  -44.9430 C   0  0  2  0  0  0  0  0  0  0  0  0
   92.2090   97.7710  -45.4820 C   0  0  0  0  0  0  0  0  0  0  0  0
   92.7240   99.2820  -43.5590 C   0  0  0  0  0  0  0  0  0  0  0  0
   91.5140   95.4850  -44.9420 N   0  0  1  0  0  0  0  0  0  0  0  0
   91.0920   94.9020  -46.0500 N   0  0  0  0  0  0  0  0  0  0  0  0
   91.3180   93.6220  -46.0450 N   0  0  0  0  0  0  0  0  0  0  0  0
   91.9090   93.3200  -44.9020 C   0  0  0  0  0  0  0  0  0  0  0  0
   92.0340   94.4860  -44.2090 N   0  0  0  0  0  0  0  0  0  0  0  0
   92.5600  105.2220  -36.7960 H   0  0  0  0  0  0  0  0  0  0  0  0
   88.5250  104.2400  -37.6810 H   0  0  0  0  0  0  0  0  0  0  0  0
   93.6000  104.6380  -39.1140 H   0  0  0  0  0  0  0  0  0  0  0  0
   92.5380  104.0560  -40.4250 H   0  0  0  0  0  0  0  0  0  0  0  0
   92.5490  101.9270  -38.6300 H   0  0  0  0  0  0  0  0  0  0  0  0
   94.2900  103.1280  -37.3550 H   0  0  0  0  0  0  0  0  0  0  0  0
   94.7580  101.5130  -37.9010 H   0  0  0  0  0  0  0  0  0  0  0  0
   95.4160  103.0330  -38.7310 H   0  0  0  0  0  0  0  0  0  0  0  0
   94.5650  100.0780  -40.8670 H   0  0  0  0  0  0  0  0  0  0  0  0
   91.7820   99.8810  -39.8120 H   0  0  0  0  0  0  0  0  0  0  0  0
   92.9910   96.5190  -43.0270 H   0  0  0  0  0  0  0  0  0  0  0  0
   91.2210   96.3950  -42.5040 H   0  0  0  0  0  0  0  0  0  0  0  0
   89.5410   97.2540  -45.5130 H   0  0  0  0  0  0  0  0  0  0  0  0
   89.5080   96.6780  -43.7650 H   0  0  0  0  0  0  0  0  0  0  0  0
   88.8700   99.0620  -43.9660 H   0  0  0  0  0  0  0  0  0  0  0  0
   90.3780   99.8740  -42.2520 H   0  0  0  0  0  0  0  0  0  0  0  0
   89.9320   98.1220  -41.9810 H   0  0  0  0  0  0  0  0  0  0  0  0
   90.2800   99.4960  -45.9710 H   0  0  0  0  0  0  0  0  0  0  0  0
   90.5990  100.6750  -44.5970 H   0  0  0  0  0  0  0  0  0  0  0  0
   92.7040   99.8910  -45.6110 H   0  0  0  0  0  0  0  0  0  0  0  0
   93.2590   97.4620  -45.6100 H   0  0  0  0  0  0  0  0  0  0  0  0
   91.6630   97.7530  -46.4500 H   0  0  0  0  0  0  0  0  0  0  0  0
   92.6200  100.3050  -43.1900 H   0  0  0  0  0  0  0  0  0  0  0  0
   93.7690   98.9240  -43.6030 H   0  0  0  0  0  0  0  0  0  0  0  0
   92.2240   92.3340  -44.5980 H   0  0  0  0  0  0  0  0  0  0  0  0
  2  1  1  0  0  0  0
  3 31  1  0  0  0  0
  3  2  2  0  0  0  0
  4  3  1  0  0  0  0
  5  4  1  0  0  0  0
  5  6  2  0  0  0  0
  6 32  1  0  0  0  0
  6  2  1  0  0  0  0
  7  8  1  0  0  0  0
  7 33  1  0  0  0  0
  7  4  1  0  0  0  0
  8 35  1  1  0  0  0
  8  9  1  0  0  0  0
  9 37  1  0  0  0  0
  9 36  1  0  0  0  0
 10  8  1  0  0  0  0
 11 10  2  0  0  0  0
 12 13  1  0  0  0  0
 12 10  1  0  0  0  0
 13 40  1  0  0  0  0
 14 15  2  0  0  0  0
 14 13  1  0  0  0  0
 16 21  1  0  0  0  0
 16 14  1  1  0  0  0
 17 41  1  0  0  0  0
 17 16  1  0  0  0  0
 17 42  1  0  0  0  0
 18 24  1  6  0  0  0
 18 19  1  0  0  0  0
 18 17  1  0  0  0  0
 19 20  1  0  0  0  0
 19 44  1  0  0  0  0
 20 45  1  1  0  0  0
 20 21  1  0  0  0  0
 21 46  1  0  0  0  0
 21 47  1  0  0  0  0
 22 23  1  0  0  0  0
 22 49  1  0  0  0  0
 22 20  1  0  0  0  0
 23 50  1  6  0  0  0
 23 25  1  0  0  0  0
 24 23  1  0  0  0  0
 25 53  1  0  0  0  0
 25 16  1  0  0  0  0
 26 27  1  6  0  0  0
 26 18  1  0  0  0  0
 26 30  1  0  0  0  0
 27 28  1  0  0  0  0
 28 29  2  0  0  0  0
 29 55  1  0  0  0  0
 29 30  1  0  0  0  0
 34  7  1  0  0  0  0
 38  9  1  0  0  0  0
 39 12  1  0  0  0  0
 43 19  1  0  0  0  0
 48 22  1  0  0  0  0
 51 24  1  0  0  0  0
 52 24  1  0  0  0  0
 54 25  1  0  0  0  0
M  END
>  <Pose>
1

>  <Score>
-6.67

$$$$
