
 OpenBabel03212208273D

 58 61  0  0  1  0  0  0  0  0999 V2000
   96.8080  106.0640  -36.5330 Cl  0  0  0  0  0  0  0  0  0  0  0  0
   96.1000  104.7730  -37.5330 C   0  0  0  0  0  0  0  0  0  0  0  0
   96.6920  104.4040  -38.7180 C   0  0  0  0  0  0  0  0  0  0  0  0
   96.1140  103.3960  -39.5040 C   0  0  0  0  0  0  0  0  0  0  0  0
   94.9510  102.7460  -39.1190 C   0  0  0  0  0  0  0  0  0  0  0  0
   94.3890  103.1270  -37.9430 C   0  0  0  0  0  0  0  0  0  0  0  0
   94.9390  104.1260  -37.1490 C   0  0  0  0  0  0  0  0  0  0  0  0
   94.4310  101.7240  -40.0560 C   0  0  1  0  0  0  0  0  0  0  0  0
   93.0050  101.4110  -39.8760 C   0  0  0  0  0  0  0  0  0  0  0  0
   92.2030  101.0860  -41.1110 C   0  0  0  0  0  0  0  0  0  0  0  0
   92.9510  100.9550  -42.3190 N   0  0  0  0  0  0  0  0  0  0  0  0
   93.9350  102.0330  -42.5360 C   0  0  0  0  0  0  0  0  0  0  0  0
   94.8480  102.2030  -41.4250 C   0  0  0  0  0  0  0  0  0  0  0  0
   92.6570  100.0960  -43.4050 C   0  0  0  0  0  0  0  0  0  0  0  0
   93.5140   99.8050  -44.2360 O   0  0  0  0  0  0  0  0  0  0  0  0
   91.2600   99.5100  -43.5590 C   0  0  1  0  0  0  0  0  0  0  0  0
   90.8840   99.5210  -44.9530 N   0  0  0  0  0  0  0  0  0  0  0  0
   89.6040   99.2640  -45.4410 C   0  0  0  0  0  0  0  0  0  0  0  0
   89.4610   99.8540  -46.6810 O   0  0  0  0  0  0  0  0  0  0  0  0
   88.4510   98.5840  -45.0820 C   0  0  0  0  0  0  0  0  0  0  0  0
   87.2760   98.5800  -44.5250 C   0  0  0  0  0  0  0  0  0  0  0  0
   86.4910   97.3390  -44.5200 N   0  0  0  0  0  0  0  0  0  0  0  0
   85.2770   97.2130  -43.8740 N   0  0  0  0  0  0  0  0  0  0  0  0
   84.7010   98.2610  -43.1750 C   0  0  0  0  0  0  0  0  0  0  0  0
   83.5960   98.1930  -42.5790 O   0  0  0  0  0  0  0  0  0  0  0  0
   85.4200   99.5570  -43.1230 C   0  0  0  0  0  0  0  0  0  0  0  0
   86.6270   99.6380  -43.7760 C   0  0  0  0  0  0  0  0  0  0  0  0
   87.3150  100.8460  -43.6140 C   0  0  0  0  0  0  0  0  0  0  0  0
   86.7880  101.8790  -42.8520 C   0  0  0  0  0  0  0  0  0  0  0  0
   85.5750  101.7560  -42.2260 C   0  0  0  0  0  0  0  0  0  0  0  0
   84.8850  100.5700  -42.3650 C   0  0  0  0  0  0  0  0  0  0  0  0
   90.8600   98.4670  -42.6600 C   0  0  0  0  0  0  0  0  0  0  0  0
   95.1560  100.5240  -39.7900 O   0  0  0  0  0  0  0  0  0  0  0  0
   97.6090  104.9030  -39.0280 H   0  0  0  0  0  0  0  0  0  0  0  0
   96.6230  103.1320  -40.4180 H   0  0  0  0  0  0  0  0  0  0  0  0
   93.4850  102.6680  -37.5600 H   0  0  0  0  0  0  0  0  0  0  0  0
   94.5010  104.4380  -36.2230 H   0  0  0  0  0  0  0  0  0  0  0  0
   92.4230  102.1870  -39.3080 H   0  0  0  0  0  0  0  0  0  0  0  0
   92.9370  100.4860  -39.2180 H   0  0  0  0  0  0  0  0  0  0  0  0
   91.5310  102.0060  -41.3140 H   0  0  0  0  0  0  0  0  0  0  0  0
   91.4440  100.2940  -40.9660 H   0  0  0  0  0  0  0  0  0  0  0  0
   93.2310  102.9670  -42.5450 H   0  0  0  0  0  0  0  0  0  0  0  0
   94.4030  101.9990  -43.5110 H   0  0  0  0  0  0  0  0  0  0  0  0
   95.8420  101.7740  -41.6620 H   0  0  0  0  0  0  0  0  0  0  0  0
   95.0890  103.3290  -41.3700 H   0  0  0  0  0  0  0  0  0  0  0  0
   90.6300  100.4680  -43.1900 H   0  0  0  0  0  0  0  0  0  0  0  0
   91.7470   99.6910  -45.5720 H   0  0  0  0  0  0  0  0  0  0  0  0
   88.5830   97.4400  -45.4660 H   0  0  0  0  0  0  0  0  0  0  0  0
   86.9170   96.5290  -45.0470 H   0  0  0  0  0  0  0  0  0  0  0  0
   84.7660   96.2880  -43.9140 H   0  0  0  0  0  0  0  0  0  0  0  0
   88.2570  100.9420  -44.0370 H   0  0  0  0  0  0  0  0  0  0  0  0
   87.3530  102.8220  -42.7530 H   0  0  0  0  0  0  0  0  0  0  0  0
   85.2250  102.5900  -41.6440 H   0  0  0  0  0  0  0  0  0  0  0  0
   83.9260  100.4200  -41.8890 H   0  0  0  0  0  0  0  0  0  0  0  0
   90.5990   97.4830  -43.1140 H   0  0  0  0  0  0  0  0  0  0  0  0
   89.9210   98.7260  -42.0570 H   0  0  0  0  0  0  0  0  0  0  0  0
   91.6040   98.3080  -41.8270 H   0  0  0  0  0  0  0  0  0  0  0  0
   95.0610   99.8830  -40.5150 H   0  0  0  0  0  0  0  0  0  0  0  0
  2  7  1  0  0  0  0
  2  1  1  0  0  0  0
  3  2  2  0  0  0  0
  4  5  2  0  0  0  0
  4  3  1  0  0  0  0
  5  6  1  0  0  0  0
  6 36  1  0  0  0  0
  6  7  2  0  0  0  0
  7 37  1  0  0  0  0
  8  9  1  0  0  0  0
  8 33  1  1  0  0  0
  8  5  1  0  0  0  0
  9 38  1  0  0  0  0
  9 39  1  0  0  0  0
 10 41  1  0  0  0  0
 10  9  1  0  0  0  0
 11 10  1  0  0  0  0
 12 11  1  0  0  0  0
 12 13  1  0  0  0  0
 13 45  1  0  0  0  0
 13  8  1  0  0  0  0
 14 11  1  0  0  0  0
 15 14  2  0  0  0  0
 16 14  1  0  0  0  0
 16 46  1  1  0  0  0
 16 32  1  0  0  0  0
 17 16  1  0  0  0  0
 18 20  1  0  0  0  0
 18 17  1  0  0  0  0
 19 18  2  0  0  0  0
 20 21  2  0  0  0  0
 21 22  1  0  0  0  0
 21 27  1  0  0  0  0
 22 23  1  0  0  0  0
 23 24  1  0  0  0  0
 24 26  1  0  0  0  0
 24 25  2  0  0  0  0
 26 31  1  0  0  0  0
 27 28  1  0  0  0  0
 27 26  2  0  0  0  0
 28 29  2  0  0  0  0
 29 52  1  0  0  0  0
 29 30  1  0  0  0  0
 30 53  1  0  0  0  0
 31 30  2  0  0  0  0
 31 54  1  0  0  0  0
 32 56  1  0  0  0  0
 32 57  1  0  0  0  0
 34  3  1  0  0  0  0
 35  4  1  0  0  0  0
 40 10  1  0  0  0  0
 42 12  1  0  0  0  0
 43 12  1  0  0  0  0
 44 13  1  0  0  0  0
 47 17  1  0  0  0  0
 48 20  1  0  0  0  0
 49 22  1  0  0  0  0
 50 23  1  0  0  0  0
 51 28  1  0  0  0  0
 55 32  1  0  0  0  0
 58 33  1  0  0  0  0
M  END
>  <Pose>
1

>  <Score>
-5.53

$$$$
