
 OpenBabel03212208273D

 58 61  0  0  0  0  0  0  0  0999 V2000
   91.8410   96.1560  -41.4320 Cl  0  0  0  0  0  0  0  0  0  0  0  0
   91.8170   97.8150  -41.9750 C   0  0  0  0  0  0  0  0  0  0  0  0
   90.9990   98.1370  -43.0360 C   0  0  0  0  0  0  0  0  0  0  0  0
   91.0280   99.4930  -43.3930 C   0  0  0  0  0  0  0  0  0  0  0  0
   91.8000  100.3770  -42.7350 N   0  0  0  0  0  0  0  0  0  0  0  0
   92.5840  100.0760  -41.7210 N   0  0  0  0  0  0  0  0  0  0  0  0
   92.5900   98.7920  -41.3430 C   0  0  0  0  0  0  0  0  0  0  0  0
   93.3110   98.4220  -40.3830 O   0  0  0  0  0  0  0  0  0  0  0  0
   93.3690  101.0780  -41.0810 C   0  0  0  0  0  0  0  0  0  0  0  0
   94.3290  101.8100  -41.7630 C   0  0  0  0  0  0  0  0  0  0  0  0
   95.0980  102.7830  -41.1590 C   0  0  0  0  0  0  0  0  0  0  0  0
   94.8970  103.0320  -39.8170 C   0  0  0  0  0  0  0  0  0  0  0  0
   93.9490  102.3200  -39.1060 C   0  0  0  0  0  0  0  0  0  0  0  0
   93.1840  101.3390  -39.7470 C   0  0  0  0  0  0  0  0  0  0  0  0
   90.2210   97.1980  -43.7390 N   0  0  0  0  0  0  0  0  0  0  0  0
   89.9850   97.3660  -45.1690 C   0  0  0  0  0  0  0  0  0  0  0  0
   90.4650   96.1750  -45.9670 C   0  0  0  0  0  0  0  0  0  0  0  0
   90.6170   95.0640  -45.0580 N   0  0  0  0  0  0  0  0  0  0  0  0
   89.5410   94.8800  -44.1020 C   0  0  0  0  0  0  0  0  0  0  0  0
   89.6590   96.0100  -43.0810 C   0  0  0  0  0  0  0  0  0  0  0  0
   91.7190   94.1850  -45.0580 C   0  0  0  0  0  0  0  0  0  0  0  0
   92.7850   94.5460  -45.6020 O   0  0  0  0  0  0  0  0  0  0  0  0
   91.6860   92.8370  -44.4400 C   0  0  0  0  0  0  0  0  0  0  0  0
   91.8480   91.7620  -45.4890 C   0  0  0  0  0  0  0  0  0  0  0  0
   91.3430   92.1910  -46.8340 C   0  0  0  0  0  0  0  0  0  0  0  0
   91.4190   91.1610  -47.8460 N   0  0  0  0  0  0  0  0  0  0  0  0
   90.4080   90.8320  -48.7820 C   0  0  0  0  0  0  0  0  0  0  0  0
   89.2630   91.3870  -48.8880 O   0  0  0  0  0  0  0  0  0  0  0  0
   90.8140   89.7790  -49.6280 N   0  0  0  0  0  0  0  0  0  0  0  0
   92.1460   89.3730  -49.2390 C   0  0  0  0  0  0  0  0  0  0  0  0
   92.5070   90.2710  -48.1200 C   0  0  0  0  0  0  0  0  0  0  0  0
   93.5920   90.2640  -47.5000 O   0  0  0  0  0  0  0  0  0  0  0  0
   90.0420   89.1940  -50.7060 C   0  0  0  0  0  0  0  0  0  0  0  0
   90.4090   99.7750  -44.2240 H   0  0  0  0  0  0  0  0  0  0  0  0
   94.4740  101.6020  -42.8150 H   0  0  0  0  0  0  0  0  0  0  0  0
   95.8540  103.3520  -41.7180 H   0  0  0  0  0  0  0  0  0  0  0  0
   95.5030  103.7960  -39.3500 H   0  0  0  0  0  0  0  0  0  0  0  0
   93.8210  102.5440  -38.0600 H   0  0  0  0  0  0  0  0  0  0  0  0
   92.4390  100.7750  -39.2040 H   0  0  0  0  0  0  0  0  0  0  0  0
   88.8490   97.4280  -45.2460 H   0  0  0  0  0  0  0  0  0  0  0  0
   90.4480   98.2490  -45.6160 H   0  0  0  0  0  0  0  0  0  0  0  0
   91.4250   96.3870  -46.4790 H   0  0  0  0  0  0  0  0  0  0  0  0
   89.6940   95.9530  -46.7590 H   0  0  0  0  0  0  0  0  0  0  0  0
   88.5760   95.0000  -44.6340 H   0  0  0  0  0  0  0  0  0  0  0  0
   89.5590   93.8850  -43.6200 H   0  0  0  0  0  0  0  0  0  0  0  0
   90.4200   95.6470  -42.3770 H   0  0  0  0  0  0  0  0  0  0  0  0
   88.6800   96.2540  -42.7150 H   0  0  0  0  0  0  0  0  0  0  0  0
   92.4930   92.7180  -43.6880 H   0  0  0  0  0  0  0  0  0  0  0  0
   90.7320   92.6780  -43.8800 H   0  0  0  0  0  0  0  0  0  0  0  0
   91.2900   90.8530  -45.2000 H   0  0  0  0  0  0  0  0  0  0  0  0
   92.9220   91.4630  -45.5740 H   0  0  0  0  0  0  0  0  0  0  0  0
   91.9190   93.0800  -47.2030 H   0  0  0  0  0  0  0  0  0  0  0  0
   90.2850   92.5220  -46.8080 H   0  0  0  0  0  0  0  0  0  0  0  0
   92.8730   89.4920  -50.0870 H   0  0  0  0  0  0  0  0  0  0  0  0
   92.2030   88.3080  -48.9440 H   0  0  0  0  0  0  0  0  0  0  0  0
   90.1250   89.8630  -51.5940 H   0  0  0  0  0  0  0  0  0  0  0  0
   88.9510   89.2300  -50.4240 H   0  0  0  0  0  0  0  0  0  0  0  0
   90.3820   88.1720  -50.9220 H   0  0  0  0  0  0  0  0  0  0  0  0
  2  1  1  0  0  0  0
  2  7  1  0  0  0  0
  3  2  2  0  0  0  0
  4  3  1  0  0  0  0
  4  5  2  0  0  0  0
  5  6  1  0  0  0  0
  6  7  1  0  0  0  0
  6  9  1  0  0  0  0
  7  8  2  0  0  0  0
  9 14  1  0  0  0  0
 10 11  1  0  0  0  0
 10  9  2  0  0  0  0
 11 12  2  0  0  0  0
 12 37  1  0  0  0  0
 12 13  1  0  0  0  0
 13 38  1  0  0  0  0
 14 39  1  0  0  0  0
 14 13  2  0  0  0  0
 15 20  1  0  0  0  0
 15  3  1  0  0  0  0
 16 15  1  0  0  0  0
 17 16  1  0  0  0  0
 17 18  1  0  0  0  0
 18 19  1  0  0  0  0
 19 45  1  0  0  0  0
 19 20  1  0  0  0  0
 20 47  1  0  0  0  0
 20 46  1  0  0  0  0
 21 18  1  0  0  0  0
 21 23  1  0  0  0  0
 22 21  2  0  0  0  0
 23 49  1  0  0  0  0
 23 48  1  0  0  0  0
 24 50  1  0  0  0  0
 24 23  1  0  0  0  0
 25 53  1  0  0  0  0
 25 24  1  0  0  0  0
 26 25  1  0  0  0  0
 27 26  1  0  0  0  0
 28 27  2  0  0  0  0
 29 30  1  0  0  0  0
 29 27  1  0  0  0  0
 30 55  1  0  0  0  0
 30 31  1  0  0  0  0
 31 26  1  0  0  0  0
 31 32  2  0  0  0  0
 33 57  1  0  0  0  0
 33 29  1  0  0  0  0
 34  4  1  0  0  0  0
 35 10  1  0  0  0  0
 36 11  1  0  0  0  0
 40 16  1  0  0  0  0
 41 16  1  0  0  0  0
 42 17  1  0  0  0  0
 43 17  1  0  0  0  0
 44 19  1  0  0  0  0
 51 24  1  0  0  0  0
 52 25  1  0  0  0  0
 54 30  1  0  0  0  0
 56 33  1  0  0  0  0
 58 33  1  0  0  0  0
M  END
>  <Pose>
1

>  <Score>
-5.14

$$$$
