
 OpenBabel03212208273D

 50 53  0  0  0  0  0  0  0  0999 V2000
   92.6370   99.7340  -45.7350 Cl  0  0  0  0  0  0  0  0  0  0  0  0
   92.3950   99.4050  -44.0340 C   0  0  0  0  0  0  0  0  0  0  0  0
   92.1790   98.1040  -43.6280 C   0  0  0  0  0  0  0  0  0  0  0  0
   91.9930   97.9130  -42.2700 C   0  0  0  0  0  0  0  0  0  0  0  0
   92.0200   98.9370  -41.3960 N   0  0  0  0  0  0  0  0  0  0  0  0
   92.2260  100.1900  -41.7680 N   0  0  0  0  0  0  0  0  0  0  0  0
   92.4120  100.4120  -43.0820 C   0  0  0  0  0  0  0  0  0  0  0  0
   92.6080  101.5920  -43.4420 O   0  0  0  0  0  0  0  0  0  0  0  0
   92.2550  101.2710  -40.8320 C   0  0  0  0  0  0  0  0  0  0  0  0
   91.1410  102.0590  -40.6280 C   0  0  0  0  0  0  0  0  0  0  0  0
   91.1600  103.1050  -39.7270 C   0  0  0  0  0  0  0  0  0  0  0  0
   92.2860  103.4110  -38.9910 C   0  0  0  0  0  0  0  0  0  0  0  0
   93.4030  102.6260  -39.1900 C   0  0  0  0  0  0  0  0  0  0  0  0
   93.3790  101.5850  -40.0900 C   0  0  0  0  0  0  0  0  0  0  0  0
   92.1490   97.0100  -44.5460 N   0  0  0  0  0  0  0  0  0  0  0  0
   90.8870   96.6370  -45.1240 C   0  0  0  0  0  0  0  0  0  0  0  0
   90.7610   95.1360  -45.2580 C   0  0  0  0  0  0  0  0  0  0  0  0
   92.0280   94.5120  -45.5450 N   0  0  0  0  0  0  0  0  0  0  0  0
   93.1340   95.3440  -45.9520 C   0  0  0  0  0  0  0  0  0  0  0  0
   93.3950   96.3330  -44.8450 C   0  0  0  0  0  0  0  0  0  0  0  0
   92.1740   93.1060  -45.4270 C   0  0  0  0  0  0  0  0  0  0  0  0
   93.0830   92.5930  -44.6980 O   0  0  0  0  0  0  0  0  0  0  0  0
   91.2850   92.1510  -46.1380 C   0  0  0  0  0  0  0  0  0  0  0  0
   91.7150   91.9130  -47.4510 O   0  0  0  0  0  0  0  0  0  0  0  0
   91.9660   90.6250  -47.8850 C   0  0  0  0  0  0  0  0  0  0  0  0
   93.1220   89.9570  -47.9620 N   0  0  0  0  0  0  0  0  0  0  0  0
   92.9240   88.7670  -48.4260 O   0  0  0  0  0  0  0  0  0  0  0  0
   91.6490   88.5590  -48.6870 C   0  0  0  0  0  0  0  0  0  0  0  0
   91.0090   89.7340  -48.3500 C   0  0  0  0  0  0  0  0  0  0  0  0
   91.1200   87.2930  -49.2260 C   0  0  0  0  0  0  0  0  0  0  0  0
   91.8190   96.8800  -41.9350 H   0  0  0  0  0  0  0  0  0  0  0  0
   90.2430  101.8440  -41.1910 H   0  0  0  0  0  0  0  0  0  0  0  0
   90.2880  103.7240  -39.5660 H   0  0  0  0  0  0  0  0  0  0  0  0
   92.2890  104.2360  -38.2840 H   0  0  0  0  0  0  0  0  0  0  0  0
   94.2760  102.8870  -38.5990 H   0  0  0  0  0  0  0  0  0  0  0  0
   94.2720  100.9980  -40.2150 H   0  0  0  0  0  0  0  0  0  0  0  0
   90.0320   96.9930  -44.5200 H   0  0  0  0  0  0  0  0  0  0  0  0
   90.8170   97.1520  -46.1150 H   0  0  0  0  0  0  0  0  0  0  0  0
   90.2420   94.7120  -44.3970 H   0  0  0  0  0  0  0  0  0  0  0  0
   90.1040   94.9470  -46.1480 H   0  0  0  0  0  0  0  0  0  0  0  0
   92.7800   95.9490  -46.8310 H   0  0  0  0  0  0  0  0  0  0  0  0
   94.0300   94.7640  -46.2320 H   0  0  0  0  0  0  0  0  0  0  0  0
   93.8040   95.8330  -43.9380 H   0  0  0  0  0  0  0  0  0  0  0  0
   94.1320   97.0880  -45.2450 H   0  0  0  0  0  0  0  0  0  0  0  0
   90.2250   92.4680  -46.1080 H   0  0  0  0  0  0  0  0  0  0  0  0
   91.3180   91.1540  -45.6090 H   0  0  0  0  0  0  0  0  0  0  0  0
   89.9480   89.8950  -48.4450 H   0  0  0  0  0  0  0  0  0  0  0  0
   90.0820   87.3870  -49.5850 H   0  0  0  0  0  0  0  0  0  0  0  0
   91.1390   86.4750  -48.4470 H   0  0  0  0  0  0  0  0  0  0  0  0
   91.7940   86.9430  -50.0620 H   0  0  0  0  0  0  0  0  0  0  0  0
  1  2  1  0  0  0  0
  2  3  2  0  0  0  0
  2  7  1  0  0  0  0
  3  4  1  0  0  0  0
  4 31  1  0  0  0  0
  4  5  2  0  0  0  0
  6  5  1  0  0  0  0
  6  9  1  0  0  0  0
  7  6  1  0  0  0  0
  8  7  2  0  0  0  0
  9 10  2  0  0  0  0
  9 14  1  0  0  0  0
 10 11  1  0  0  0  0
 11 33  1  0  0  0  0
 11 12  2  0  0  0  0
 12 34  1  0  0  0  0
 13 12  1  0  0  0  0
 13 35  1  0  0  0  0
 14 13  2  0  0  0  0
 15  3  1  0  0  0  0
 16 15  1  0  0  0  0
 16 37  1  0  0  0  0
 17 16  1  0  0  0  0
 17 39  1  0  0  0  0
 18 21  1  0  0  0  0
 18 17  1  0  0  0  0
 19 18  1  0  0  0  0
 19 20  1  0  0  0  0
 20 15  1  0  0  0  0
 20 43  1  0  0  0  0
 21 22  2  0  0  0  0
 23 45  1  0  0  0  0
 23 46  1  0  0  0  0
 23 21  1  0  0  0  0
 24 23  1  0  0  0  0
 25 24  1  0  0  0  0
 26 25  2  0  0  0  0
 27 26  1  0  0  0  0
 28 27  1  0  0  0  0
 28 29  2  0  0  0  0
 29 25  1  0  0  0  0
 30 28  1  0  0  0  0
 30 49  1  0  0  0  0
 32 10  1  0  0  0  0
 36 14  1  0  0  0  0
 38 16  1  0  0  0  0
 40 17  1  0  0  0  0
 41 19  1  0  0  0  0
 42 19  1  0  0  0  0
 44 20  1  0  0  0  0
 47 29  1  0  0  0  0
 48 30  1  0  0  0  0
 50 30  1  0  0  0  0
M  END
>  <Pose>
1

>  <Score>
-5.49

$$$$
