
 OpenBabel03212208273D

 53 56  0  0  0  0  0  0  0  0999 V2000
   84.3900   98.4520  -43.0710 Cl  0  0  0  0  0  0  0  0  0  0  0  0
   85.1900   97.7920  -44.4930 C   0  0  0  0  0  0  0  0  0  0  0  0
   86.5040   98.1910  -44.7260 C   0  0  0  0  0  0  0  0  0  0  0  0
   87.1430   97.6830  -45.8350 C   0  0  0  0  0  0  0  0  0  0  0  0
   86.4830   96.8030  -46.6830 C   0  0  0  0  0  0  0  0  0  0  0  0
   85.1720   96.4110  -46.4440 C   0  0  0  0  0  0  0  0  0  0  0  0
   84.5310   96.9220  -45.3300 C   0  0  0  0  0  0  0  0  0  0  0  0
   87.0570   96.2510  -47.8150 O   0  0  0  0  0  0  0  0  0  0  0  0
   88.0630   96.7550  -48.6500 C   0  0  0  0  0  0  0  0  0  0  0  0
   89.3770   97.0130  -48.0090 C   0  0  0  0  0  0  0  0  0  0  0  0
   89.3720   97.2310  -46.5990 N   0  0  0  0  0  0  0  0  0  0  0  0
   88.5290   98.2180  -45.9130 C   0  0  0  0  0  0  0  0  0  0  0  0
   90.2410   96.4570  -45.7810 C   0  0  0  0  0  0  0  0  0  0  0  0
   89.8070   95.3520  -45.3820 O   0  0  0  0  0  0  0  0  0  0  0  0
   91.5760   96.9040  -45.4160 C   0  0  0  0  0  0  0  0  0  0  0  0
   91.7790   98.3330  -45.1180 C   0  0  0  0  0  0  0  0  0  0  0  0
   92.7220   98.7340  -44.0620 C   0  0  0  0  0  0  0  0  0  0  0  0
   92.2530   99.3450  -42.8740 N   0  0  0  0  0  0  0  0  0  0  0  0
   92.4740   98.8700  -41.5590 C   0  0  0  0  0  0  0  0  0  0  0  0
   93.1200   97.8450  -41.1880 O   0  0  0  0  0  0  0  0  0  0  0  0
   91.8280   99.7700  -40.6760 N   0  0  0  0  0  0  0  0  0  0  0  0
   91.5240  101.0010  -41.4020 C   0  0  0  0  0  0  0  0  0  0  0  0
   91.4770  100.5250  -42.8010 C   0  0  0  0  0  0  0  0  0  0  0  0
   90.8380  101.1000  -43.7540 O   0  0  0  0  0  0  0  0  0  0  0  0
   88.2660   95.7550  -49.8040 C   0  0  0  0  0  0  0  0  0  0  0  0
   86.8990   95.4730  -50.3670 C   0  0  0  0  0  0  0  0  0  0  0  0
   85.9160   96.2690  -49.8050 O   0  0  0  0  0  0  0  0  0  0  0  0
   86.1800   97.6200  -49.9420 C   0  0  0  0  0  0  0  0  0  0  0  0
   87.5230   98.0060  -49.3620 C   0  0  0  0  0  0  0  0  0  0  0  0
   86.9750   98.8740  -44.0420 H   0  0  0  0  0  0  0  0  0  0  0  0
   84.6980   95.7370  -47.1150 H   0  0  0  0  0  0  0  0  0  0  0  0
   83.5000   96.6310  -45.1160 H   0  0  0  0  0  0  0  0  0  0  0  0
   89.7930   97.9570  -48.4720 H   0  0  0  0  0  0  0  0  0  0  0  0
   90.1250   96.2250  -48.3110 H   0  0  0  0  0  0  0  0  0  0  0  0
   88.9280   98.5330  -44.9520 H   0  0  0  0  0  0  0  0  0  0  0  0
   88.4570   99.1510  -46.5350 H   0  0  0  0  0  0  0  0  0  0  0  0
   92.3600   96.6030  -46.1570 H   0  0  0  0  0  0  0  0  0  0  0  0
   91.8760   96.3280  -44.4880 H   0  0  0  0  0  0  0  0  0  0  0  0
   90.7600   98.7420  -44.8050 H   0  0  0  0  0  0  0  0  0  0  0  0
   91.9540   98.9170  -46.0820 H   0  0  0  0  0  0  0  0  0  0  0  0
   93.3430   97.8000  -43.8270 H   0  0  0  0  0  0  0  0  0  0  0  0
   93.5390   99.4250  -44.4640 H   0  0  0  0  0  0  0  0  0  0  0  0
   91.5910   99.6200  -39.6750 H   0  0  0  0  0  0  0  0  0  0  0  0
   92.3560  101.7230  -41.3170 H   0  0  0  0  0  0  0  0  0  0  0  0
   90.5500  101.4240  -41.0830 H   0  0  0  0  0  0  0  0  0  0  0  0
   88.7970   94.8620  -49.4660 H   0  0  0  0  0  0  0  0  0  0  0  0
   88.8720   96.3020  -50.5580 H   0  0  0  0  0  0  0  0  0  0  0  0
   86.8670   95.5700  -51.4790 H   0  0  0  0  0  0  0  0  0  0  0  0
   86.6530   94.4160  -50.1380 H   0  0  0  0  0  0  0  0  0  0  0  0
   86.0610   97.9890  -50.9850 H   0  0  0  0  0  0  0  0  0  0  0  0
   85.3910   98.1610  -49.3450 H   0  0  0  0  0  0  0  0  0  0  0  0
   88.2010   98.2070  -50.2310 H   0  0  0  0  0  0  0  0  0  0  0  0
   87.4720   98.8710  -48.7010 H   0  0  0  0  0  0  0  0  0  0  0  0
  2  1  1  0  0  0  0
  3  2  1  0  0  0  0
  3 30  1  0  0  0  0
  4  3  2  0  0  0  0
  5  6  2  0  0  0  0
  5  4  1  0  0  0  0
  6  7  1  0  0  0  0
  7 32  1  0  0  0  0
  7  2  2  0  0  0  0
  8  5  1  0  0  0  0
  9 10  1  0  0  0  0
  9  8  1  0  0  0  0
 10 11  1  0  0  0  0
 11 12  1  0  0  0  0
 11 13  1  0  0  0  0
 12  4  1  0  0  0  0
 12 35  1  0  0  0  0
 13 15  1  0  0  0  0
 13 14  2  0  0  0  0
 15 16  1  0  0  0  0
 15 38  1  0  0  0  0
 16 39  1  0  0  0  0
 16 17  1  0  0  0  0
 17 41  1  0  0  0  0
 17 18  1  0  0  0  0
 18 23  1  0  0  0  0
 18 19  1  0  0  0  0
 19 20  2  0  0  0  0
 19 21  1  0  0  0  0
 21 43  1  0  0  0  0
 22 44  1  0  0  0  0
 22 45  1  0  0  0  0
 22 21  1  0  0  0  0
 23 22  1  0  0  0  0
 24 23  2  0  0  0  0
 25 46  1  0  0  0  0
 25  9  1  0  0  0  0
 26 49  1  0  0  0  0
 26 27  1  0  0  0  0
 26 25  1  0  0  0  0
 28 27  1  0  0  0  0
 28 29  1  0  0  0  0
 28 51  1  0  0  0  0
 29 53  1  0  0  0  0
 29  9  1  0  0  0  0
 31  6  1  0  0  0  0
 33 10  1  0  0  0  0
 34 10  1  0  0  0  0
 36 12  1  0  0  0  0
 37 15  1  0  0  0  0
 40 16  1  0  0  0  0
 42 17  1  0  0  0  0
 47 25  1  0  0  0  0
 48 26  1  0  0  0  0
 50 28  1  0  0  0  0
 52 29  1  0  0  0  0
M  END
>  <Pose>
1

>  <Score>
-5.11

$$$$
