
 OpenBabel03212208273D

 55 58  0  0  1  0  0  0  0  0999 V2000
   85.1890   99.0880  -43.9300 B   0  0  0  0  0  0  0  0  0  0  0  0
   87.0830   98.9660  -43.7060 C   0  0  0  0  0  0  0  0  0  0  0  0
   87.7910   98.2470  -44.6260 C   0  0  0  0  0  0  0  0  0  0  0  0
   89.1440   98.1380  -44.4980 C   0  0  0  0  0  0  0  0  0  0  0  0
   89.8720   98.7180  -43.4760 C   0  0  0  0  0  0  0  0  0  0  0  0
   89.1330   99.4380  -42.5620 C   0  0  0  0  0  0  0  0  0  0  0  0
   87.7490   99.5680  -42.6650 C   0  0  0  0  0  0  0  0  0  0  0  0
   91.3130   98.5340  -43.4310 C   0  0  2  0  0  0  0  0  0  0  0  0
   91.7500   97.2010  -43.1370 N   0  0  0  0  0  0  0  0  0  0  0  0
   92.3400   97.1420  -41.8470 C   0  0  0  0  0  0  0  0  0  0  0  0
   92.6800   96.1550  -41.1500 O   0  0  0  0  0  0  0  0  0  0  0  0
   92.5320   98.5280  -41.3630 C   0  0  0  0  0  0  0  0  0  0  0  0
   93.0260   98.8810  -40.2630 O   0  0  0  0  0  0  0  0  0  0  0  0
   92.0260   99.3720  -42.4290 C   0  0  0  0  0  0  0  0  0  0  0  0
   92.1870  100.7020  -42.4410 C   0  0  0  0  0  0  0  0  0  0  0  0
   91.5990  101.3430  -43.5390 O   0  0  0  0  0  0  0  0  0  0  0  0
   92.9150  101.4340  -41.4110 C   0  0  0  0  0  0  0  0  0  0  0  0
   92.5310  101.8880  -40.2680 O   0  0  0  0  0  0  0  0  0  0  0  0
   93.4530  102.5060  -39.5930 C   0  0  0  0  0  0  0  0  0  0  0  0
   94.6160  102.4810  -40.3480 C   0  0  0  0  0  0  0  0  0  0  0  0
   94.2450  101.7910  -41.5040 C   0  0  0  0  0  0  0  0  0  0  0  0
   95.7580  103.0720  -39.8630 C   0  0  0  0  0  0  0  0  0  0  0  0
   95.7650  103.6890  -38.6330 C   0  0  0  0  0  0  0  0  0  0  0  0
   94.6050  103.7190  -37.8690 C   0  0  0  0  0  0  0  0  0  0  0  0
   93.4820  103.1310  -38.3580 C   0  0  0  0  0  0  0  0  0  0  0  0
   92.3140  103.1430  -37.6240 O   0  0  0  0  0  0  0  0  0  0  0  0
   92.1870  103.6910  -36.3190 C   0  0  0  0  0  0  0  0  0  0  0  0
   91.6240   96.0590  -44.0000 C   0  0  0  0  0  0  0  0  0  0  0  0
   91.6030   94.7630  -43.2110 C   0  0  0  0  0  0  0  0  0  0  0  0
   92.5480   93.8020  -43.6680 N   0  0  0  0  0  4  0  0  0  0  0  0
   93.2190   93.0520  -42.6520 C   0  0  0  0  0  0  0  0  0  0  0  0
   91.9490   92.9110  -44.6530 C   0  0  0  0  0  0  0  0  0  0  0  0
   87.2910   97.7540  -45.4680 H   0  0  0  0  0  0  0  0  0  0  0  0
   89.6700   97.5470  -45.2610 H   0  0  0  0  0  0  0  0  0  0  0  0
   89.6420   99.9040  -41.7540 H   0  0  0  0  0  0  0  0  0  0  0  0
   87.2040  100.1330  -41.9420 H   0  0  0  0  0  0  0  0  0  0  0  0
   91.7190   98.7390  -44.4690 H   0  0  0  0  0  0  0  0  0  0  0  0
   94.9320  101.5940  -42.3150 H   0  0  0  0  0  0  0  0  0  0  0  0
   96.6630  103.0570  -40.4450 H   0  0  0  0  0  0  0  0  0  0  0  0
   96.6350  104.1650  -38.2180 H   0  0  0  0  0  0  0  0  0  0  0  0
   94.6430  104.2190  -36.8900 H   0  0  0  0  0  0  0  0  0  0  0  0
   91.1190  104.0200  -36.1960 H   0  0  0  0  0  0  0  0  0  0  0  0
   92.4370  102.8900  -35.6110 H   0  0  0  0  0  0  0  0  0  0  0  0
   92.8110  104.5700  -36.1460 H   0  0  0  0  0  0  0  0  0  0  0  0
   92.4120   96.0320  -44.7780 H   0  0  0  0  0  0  0  0  0  0  0  0
   90.6590   96.1110  -44.5500 H   0  0  0  0  0  0  0  0  0  0  0  0
   90.5600   94.3510  -43.2340 H   0  0  0  0  0  0  0  0  0  0  0  0
   91.7960   94.9480  -42.1240 H   0  0  0  0  0  0  0  0  0  0  0  0
   93.3070   94.3330  -44.1920 H   0  0  0  0  0  0  0  0  0  0  0  0
   93.9080   93.7230  -42.0940 H   0  0  0  0  0  0  0  0  0  0  0  0
   92.5580   92.4690  -41.9990 H   0  0  0  0  0  0  0  0  0  0  0  0
   93.8720   92.3120  -43.1830 H   0  0  0  0  0  0  0  0  0  0  0  0
   91.4090   92.1050  -44.1390 H   0  0  0  0  0  0  0  0  0  0  0  0
   91.2030   93.4580  -45.2610 H   0  0  0  0  0  0  0  0  0  0  0  0
   92.7600   92.5140  -45.2920 H   0  0  0  0  0  0  0  0  0  0  0  0
  1  2  1  0  0  0  0
  2  7  1  0  0  0  0
  3  4  1  0  0  0  0
  3  2  2  0  0  0  0
  4  5  2  0  0  0  0
  5  8  1  0  0  0  0
  5  6  1  0  0  0  0
  6 35  1  0  0  0  0
  7  6  2  0  0  0  0
  7 36  1  0  0  0  0
  8 37  1  6  0  0  0
  8  9  1  0  0  0  0
  8 14  1  0  0  0  0
  9 10  1  0  0  0  0
 10 12  1  0  0  0  0
 10 11  2  0  0  0  0
 12 13  2  0  0  0  0
 14 12  1  0  0  0  0
 15 14  2  0  0  0  0
 15 17  1  0  0  0  0
 16 15  1  0  0  0  0
 17 18  1  0  0  0  0
 18 19  1  0  0  0  0
 19 25  1  0  0  0  0
 20 22  1  0  0  0  0
 20 19  2  0  0  0  0
 21 17  2  0  0  0  0
 21 20  1  0  0  0  0
 22 23  2  0  0  0  0
 23 40  1  0  0  0  0
 23 24  1  0  0  0  0
 24 41  1  0  0  0  0
 25 24  2  0  0  0  0
 25 26  1  0  0  0  0
 26 27  1  0  0  0  0
 27 42  1  0  0  0  0
 27 44  1  0  0  0  0
 27 43  1  0  0  0  0
 28 29  1  0  0  0  0
 28  9  1  0  0  0  0
 29 48  1  0  0  0  0
 30 29  1  0  0  0  0
 30 31  1  0  0  0  0
 31 50  1  0  0  0  0
 31 51  1  0  0  0  0
 32 53  1  0  0  0  0
 32 30  1  0  0  0  0
 33  3  1  0  0  0  0
 34  4  1  0  0  0  0
 38 21  1  0  0  0  0
 39 22  1  0  0  0  0
 45 28  1  0  0  0  0
 46 28  1  0  0  0  0
 47 29  1  0  0  0  0
 49 30  1  0  0  0  0
 52 31  1  0  0  0  0
 54 32  1  0  0  0  0
 55 32  1  0  0  0  0
M  END
>  <Pose>
1

>  <Score>
-5.08

$$$$
