
 OpenBabel03212208273D

 39 42  0  0  0  0  0  0  0  0999 V2000
   84.0020  101.3280  -42.6170 B   0  0  0  0  0  0  0  0  0  0  0  0
   85.6520  100.4230  -42.9130 C   0  0  0  0  0  0  0  0  0  0  0  0
   86.8090  101.0510  -42.5380 C   0  0  0  0  0  0  0  0  0  0  0  0
   87.9890  100.4280  -42.7390 N   0  0  0  0  0  0  0  0  0  0  0  0
   88.0380   99.2090  -43.2970 C   0  0  0  0  0  0  0  0  0  0  0  0
   89.2320   98.5790  -43.5000 N   0  0  0  0  0  0  0  0  0  0  0  0
   90.3920   99.1610  -43.1460 C   0  0  0  0  0  0  0  0  0  0  0  0
   90.3190  100.4080  -42.5760 C   0  0  0  0  0  0  0  0  0  0  0  0
   89.1310  101.0700  -42.3580 C   0  0  0  0  0  0  0  0  0  0  0  0
   89.0410  102.1960  -41.8450 O   0  0  0  0  0  0  0  0  0  0  0  0
   91.6750   98.4190  -43.3840 C   0  0  0  0  0  0  0  0  0  0  0  0
   91.7430   97.1830  -42.6290 N   0  0  0  0  0  0  0  0  0  0  0  0
   91.7200   95.9090  -43.0460 C   0  0  0  0  0  0  0  0  0  0  0  0
   91.7840   95.0330  -41.9680 C   0  0  0  0  0  0  0  0  0  0  0  0
   91.8480   95.8270  -40.8740 N   0  0  0  0  0  0  0  0  0  0  0  0
   91.8250   97.1050  -41.2620 C   0  0  0  0  0  0  0  0  0  0  0  0
   91.7810   93.6900  -42.0980 N   0  0  0  0  0  0  0  0  0  0  0  0
   91.7130   93.2130  -43.3540 C   0  0  0  0  0  0  0  0  0  0  0  0
   91.7090   91.9590  -43.4950 O   0  0  0  0  0  0  0  0  0  0  0  0
   91.6510   94.0140  -44.4290 N   0  0  0  0  0  0  0  0  0  0  0  0
   91.6520   95.3570  -44.3020 C   0  0  0  0  0  0  0  0  0  0  0  0
   91.5970   96.1180  -45.2880 O   0  0  0  0  0  0  0  0  0  0  0  0
   91.5770   93.4940  -45.7830 C   0  0  0  0  0  0  0  0  0  0  0  0
   91.8490   92.8310  -40.9310 C   0  0  0  0  0  0  0  0  0  0  0  0
   86.8720   98.5650  -43.6800 C   0  0  0  0  0  0  0  0  0  0  0  0
   85.6560   99.1730  -43.4890 C   0  0  0  0  0  0  0  0  0  0  0  0
   86.8010  102.0530  -42.0760 H   0  0  0  0  0  0  0  0  0  0  0  0
   91.2330  100.8970  -42.2760 H   0  0  0  0  0  0  0  0  0  0  0  0
   91.7990   98.2510  -44.4670 H   0  0  0  0  0  0  0  0  0  0  0  0
   92.4960   99.0770  -43.0370 H   0  0  0  0  0  0  0  0  0  0  0  0
   91.8620   97.9880  -40.6330 H   0  0  0  0  0  0  0  0  0  0  0  0
   91.0860   94.2130  -46.4680 H   0  0  0  0  0  0  0  0  0  0  0  0
   92.6210   93.2560  -46.0930 H   0  0  0  0  0  0  0  0  0  0  0  0
   91.0040   92.5290  -45.7820 H   0  0  0  0  0  0  0  0  0  0  0  0
   92.8810   92.4480  -40.7810 H   0  0  0  0  0  0  0  0  0  0  0  0
   91.1120   92.0020  -41.0800 H   0  0  0  0  0  0  0  0  0  0  0  0
   91.4920   93.3870  -40.0350 H   0  0  0  0  0  0  0  0  0  0  0  0
   86.9460   97.5740  -44.1320 H   0  0  0  0  0  0  0  0  0  0  0  0
   84.7280   98.6700  -43.7900 H   0  0  0  0  0  0  0  0  0  0  0  0
  2  1  1  0  0  0  0
  2  3  1  0  0  0  0
  3 27  1  0  0  0  0
  4  3  1  0  0  0  0
  4  9  1  0  0  0  0
  5  4  1  0  0  0  0
  6  5  1  0  0  0  0
  6  7  2  0  0  0  0
  7  8  1  0  0  0  0
  8  9  1  0  0  0  0
  8 28  1  0  0  0  0
  9 10  2  0  0  0  0
 11  7  1  0  0  0  0
 11 30  1  0  0  0  0
 11 12  1  0  0  0  0
 12 16  1  0  0  0  0
 13 12  1  0  0  0  0
 13 14  2  0  0  0  0
 14 15  1  0  0  0  0
 16 15  2  0  0  0  0
 16 31  1  0  0  0  0
 17 14  1  0  0  0  0
 17 24  1  0  0  0  0
 18 17  1  0  0  0  0
 19 18  2  0  0  0  0
 20 21  1  0  0  0  0
 20 18  1  0  0  0  0
 21 13  1  0  0  0  0
 22 21  2  0  0  0  0
 23 34  1  0  0  0  0
 23 20  1  0  0  0  0
 24 35  1  0  0  0  0
 24 37  1  0  0  0  0
 25 26  1  0  0  0  0
 25  5  2  0  0  0  0
 26  2  2  0  0  0  0
 29 11  1  0  0  0  0
 32 23  1  0  0  0  0
 33 23  1  0  0  0  0
 36 24  1  0  0  0  0
 38 25  1  0  0  0  0
 39 26  1  0  0  0  0
M  END
>  <Pose>
1

>  <Score>
-5.30

$$$$
