
 OpenBabel03212208273D

 53 56  0  0  1  0  0  0  0  0999 V2000
   90.6870   96.2020  -45.2670 S   0  0  0  0  0  0  0  0  0  0  0  0
   90.1130   96.5790  -46.6210 O   0  0  0  0  0  0  0  0  0  0  0  0
   89.4880   95.9210  -44.3850 O   0  0  0  0  0  0  0  0  0  0  0  0
   91.7060   94.9090  -45.4590 N   0  0  0  0  0  0  0  0  0  0  0  0
   92.4840   94.7380  -46.5990 C   0  0  0  0  0  0  0  0  0  0  0  0
   93.1390   93.3510  -46.5520 C   0  0  0  0  0  0  0  0  0  0  0  0
   92.1740   92.3730  -46.0490 N   0  0  0  0  0  0  0  0  0  0  0  0
   91.6140   92.6440  -44.7390 C   0  0  0  0  0  0  0  0  0  0  0  0
   92.0370   94.0760  -44.3790 C   0  0  0  0  0  0  0  0  0  0  0  0
   91.8150   91.2450  -46.8380 C   0  0  0  0  0  0  0  0  0  0  0  0
   90.6580   91.2200  -47.3190 O   0  0  0  0  0  0  0  0  0  0  0  0
   92.7690   90.1600  -47.0700 C   0  0  0  0  0  0  0  0  0  0  0  0
   92.8710   89.7230  -48.5240 C   0  0  2  0  0  0  0  0  0  0  0  0
   92.3140   90.6720  -49.4510 N   0  0  0  0  0  0  0  0  0  0  0  0
   91.1590   90.6380  -50.2780 C   0  0  0  0  0  0  0  0  0  0  0  0
   91.0810   91.3920  -51.2840 O   0  0  0  0  0  0  0  0  0  0  0  0
   89.9660   89.7820  -50.1070 C   0  0  0  0  0  0  0  0  0  0  0  0
   89.9060   88.5500  -49.4460 C   0  0  0  0  0  0  0  0  0  0  0  0
   88.7150   87.8850  -49.3690 C   0  0  0  0  0  0  0  0  0  0  0  0
   87.5360   88.3850  -49.9250 C   0  0  0  0  0  0  0  0  0  0  0  0
   87.6280   89.6160  -50.5750 C   0  0  0  0  0  0  0  0  0  0  0  0
   88.8220   90.2960  -50.6620 C   0  0  0  0  0  0  0  0  0  0  0  0
   90.9940   87.8870  -48.8200 N   0  0  0  0  0  0  0  0  0  0  0  0
   92.3390   88.3500  -48.6590 C   0  0  0  0  0  0  0  0  0  0  0  0
   93.1840   87.3870  -48.6340 O   0  0  0  0  0  0  0  0  0  0  0  0
   91.4790   97.6540  -44.6440 C   0  0  0  0  0  0  0  0  0  0  0  0
   91.3950   98.0070  -43.3170 C   0  0  0  0  0  0  0  0  0  0  0  0
   92.0260   99.1510  -42.8790 C   0  0  0  0  0  0  0  0  0  0  0  0
   92.7540   99.9810  -43.7120 C   0  0  0  0  0  0  0  0  0  0  0  0
   92.8370   99.6220  -45.0510 C   0  0  0  0  0  0  0  0  0  0  0  0
   92.2050   98.4780  -45.4840 C   0  0  0  0  0  0  0  0  0  0  0  0
   93.5520  101.4200  -43.1690 Cl  0  0  0  0  0  0  0  0  0  0  0  0
   93.3300   95.4800  -46.7110 H   0  0  0  0  0  0  0  0  0  0  0  0
   91.9290   94.7400  -47.5670 H   0  0  0  0  0  0  0  0  0  0  0  0
   93.9990   93.3460  -45.8640 H   0  0  0  0  0  0  0  0  0  0  0  0
   93.5170   93.0530  -47.5480 H   0  0  0  0  0  0  0  0  0  0  0  0
   90.5020   92.6810  -44.7730 H   0  0  0  0  0  0  0  0  0  0  0  0
   92.0010   91.9640  -43.9820 H   0  0  0  0  0  0  0  0  0  0  0  0
   93.1490   94.0310  -44.1880 H   0  0  0  0  0  0  0  0  0  0  0  0
   91.5720   94.3740  -43.4070 H   0  0  0  0  0  0  0  0  0  0  0  0
   93.8210   90.5040  -46.8100 H   0  0  0  0  0  0  0  0  0  0  0  0
   92.5860   89.2870  -46.4150 H   0  0  0  0  0  0  0  0  0  0  0  0
   93.9820   89.6650  -48.7400 H   0  0  0  0  0  0  0  0  0  0  0  0
   92.8360   91.5960  -49.5740 H   0  0  0  0  0  0  0  0  0  0  0  0
   88.6740   86.9390  -48.8650 H   0  0  0  0  0  0  0  0  0  0  0  0
   86.6080   87.8550  -49.8580 H   0  0  0  0  0  0  0  0  0  0  0  0
   86.7110   89.9980  -51.0010 H   0  0  0  0  0  0  0  0  0  0  0  0
   88.8950   91.2450  -51.1630 H   0  0  0  0  0  0  0  0  0  0  0  0
   90.7770   86.9670  -48.4390 H   0  0  0  0  0  0  0  0  0  0  0  0
   90.8530   97.4180  -42.6060 H   0  0  0  0  0  0  0  0  0  0  0  0
   91.9650   99.4390  -41.8160 H   0  0  0  0  0  0  0  0  0  0  0  0
   93.3980  100.2610  -45.7090 H   0  0  0  0  0  0  0  0  0  0  0  0
   92.2890   98.2330  -46.5270 H   0  0  0  0  0  0  0  0  0  0  0  0
  1 26  1  0  0  0  0
  1  3  2  0  0  0  0
  2  1  2  0  0  0  0
  4  1  1  0  0  0  0
  4  9  1  0  0  0  0
  5  6  1  0  0  0  0
  5  4  1  0  0  0  0
  6  7  1  0  0  0  0
  6 35  1  0  0  0  0
  7  8  1  0  0  0  0
  8  9  1  0  0  0  0
  8 38  1  0  0  0  0
  9 39  1  0  0  0  0
  9 40  1  0  0  0  0
 10  7  1  0  0  0  0
 11 10  2  0  0  0  0
 12 10  1  0  0  0  0
 12 41  1  0  0  0  0
 12 42  1  0  0  0  0
 13 43  1  6  0  0  0
 13 12  1  0  0  0  0
 14 13  1  0  0  0  0
 15 17  1  0  0  0  0
 15 14  1  0  0  0  0
 16 15  2  0  0  0  0
 17 18  1  0  0  0  0
 18 19  2  0  0  0  0
 18 23  1  0  0  0  0
 19 45  1  0  0  0  0
 20 46  1  0  0  0  0
 20 19  1  0  0  0  0
 21 20  2  0  0  0  0
 22 21  1  0  0  0  0
 22 17  2  0  0  0  0
 23 24  1  0  0  0  0
 23 49  1  0  0  0  0
 24 25  2  0  0  0  0
 24 13  1  0  0  0  0
 26 27  1  0  0  0  0
 27 28  2  0  0  0  0
 27 50  1  0  0  0  0
 28 51  1  0  0  0  0
 29 32  1  0  0  0  0
 29 28  1  0  0  0  0
 30 29  2  0  0  0  0
 31 30  1  0  0  0  0
 31 26  2  0  0  0  0
 33  5  1  0  0  0  0
 34  5  1  0  0  0  0
 36  6  1  0  0  0  0
 37  8  1  0  0  0  0
 44 14  1  0  0  0  0
 47 21  1  0  0  0  0
 48 22  1  0  0  0  0
 52 30  1  0  0  0  0
 53 31  1  0  0  0  0
M  END
>  <Pose>
1

>  <Score>
-7.02

$$$$
