
 OpenBabel03212208273D

 58 62  0  0  1  0  0  0  0  0999 V2000
   90.9670  103.3530  -39.5190 B   0  0  0  0  0  0  0  0  0  0  0  0
   91.1520  101.7760  -40.6100 C   0  0  0  0  0  0  0  0  0  0  0  0
   90.2080  101.4270  -41.5260 C   0  0  0  0  0  0  0  0  0  0  0  0
   90.3440  100.3090  -42.2960 C   0  0  0  0  0  0  0  0  0  0  0  0
   91.4380   99.4730  -42.1900 C   0  0  0  0  0  0  0  0  0  0  0  0
   92.3770   99.8190  -41.2790 C   0  0  0  0  0  0  0  0  0  0  0  0
   92.2510  100.9760  -40.4720 C   0  0  0  0  0  0  0  0  0  0  0  0
   91.5000   98.3010  -43.0350 C   0  0  0  0  0  0  0  0  0  0  0  0
   91.6630   97.0030  -42.5250 C   0  0  0  0  0  0  0  0  0  0  0  0
   91.6620   96.1810  -43.5670 N   0  0  0  0  0  0  0  0  0  0  0  0
   91.7610   94.8420  -43.8300 C   0  0  0  0  0  0  0  0  0  0  0  0
   91.6610   94.7330  -45.1940 C   0  0  0  0  0  0  0  0  0  0  0  0
   91.5110   95.9570  -45.6790 N   0  0  0  0  0  0  0  0  0  0  0  0
   91.5100   96.8750  -44.6700 C   0  0  1  0  0  0  0  0  0  0  0  0
   91.4070   98.2030  -44.3660 N   0  0  0  0  0  0  0  0  0  0  0  0
   91.2180   99.1870  -45.3870 C   0  0  0  0  0  0  0  0  0  0  0  0
   92.4180   99.8800  -45.8930 C   0  0  0  0  0  0  0  0  0  0  0  0
   92.2960  101.2930  -46.3390 C   0  0  0  0  0  0  0  0  0  0  0  0
   93.5730  101.9730  -46.3410 N   0  0  0  0  0  4  0  0  0  0  0  0
   93.8120  102.7250  -47.5370 C   0  0  0  0  0  0  0  0  0  0  0  0
   94.7380  103.8980  -47.3770 C   0  0  0  0  0  0  0  0  0  0  0  0
   94.4750  104.8150  -48.5800 C   0  0  0  0  0  0  0  0  0  0  0  0
   94.8200  104.0740  -49.8250 C   0  0  0  0  0  0  0  0  0  0  0  0
   94.1430  102.7290  -49.9420 C   0  0  0  0  0  0  0  0  0  0  0  0
   94.3830  101.8940  -48.6790 C   0  0  0  0  0  0  0  0  0  0  0  0
   91.7210   93.4910  -45.8320 C   0  0  0  0  0  0  0  0  0  0  0  0
   91.8860   92.3460  -45.0820 C   0  0  0  0  0  0  0  0  0  0  0  0
   91.9850   92.4830  -43.7160 C   0  0  0  0  0  0  0  0  0  0  0  0
   91.9250   93.7140  -43.0740 C   0  0  0  0  0  0  0  0  0  0  0  0
   89.3160  102.0630  -41.6480 H   0  0  0  0  0  0  0  0  0  0  0  0
   89.5390  100.0840  -43.0260 H   0  0  0  0  0  0  0  0  0  0  0  0
   93.2620   99.2830  -41.0770 H   0  0  0  0  0  0  0  0  0  0  0  0
   93.0030  101.2430  -39.7500 H   0  0  0  0  0  0  0  0  0  0  0  0
   91.7720   96.7210  -41.4820 H   0  0  0  0  0  0  0  0  0  0  0  0
   91.3990   96.1510  -46.6920 H   0  0  0  0  0  0  0  0  0  0  0  0
   90.4050   99.8710  -45.1630 H   0  0  0  0  0  0  0  0  0  0  0  0
   90.8310   98.6010  -46.3180 H   0  0  0  0  0  0  0  0  0  0  0  0
   93.1340   99.9190  -45.0020 H   0  0  0  0  0  0  0  0  0  0  0  0
   93.0330   99.2730  -46.6260 H   0  0  0  0  0  0  0  0  0  0  0  0
   91.6070  101.9000  -45.7170 H   0  0  0  0  0  0  0  0  0  0  0  0
   91.9650  101.2600  -47.4150 H   0  0  0  0  0  0  0  0  0  0  0  0
   93.8100  102.4960  -45.5010 H   0  0  0  0  0  0  0  0  0  0  0  0
   94.3130  101.1800  -46.3620 H   0  0  0  0  0  0  0  0  0  0  0  0
   92.8460  103.1380  -47.9570 H   0  0  0  0  0  0  0  0  0  0  0  0
   94.6270  104.4390  -46.4370 H   0  0  0  0  0  0  0  0  0  0  0  0
   95.7970  103.5400  -47.5210 H   0  0  0  0  0  0  0  0  0  0  0  0
   93.3970  105.1190  -48.5680 H   0  0  0  0  0  0  0  0  0  0  0  0
   95.1340  105.6980  -48.5100 H   0  0  0  0  0  0  0  0  0  0  0  0
   94.4850  104.6800  -50.6920 H   0  0  0  0  0  0  0  0  0  0  0  0
   95.9180  103.9540  -49.8840 H   0  0  0  0  0  0  0  0  0  0  0  0
   94.6000  102.2060  -50.7980 H   0  0  0  0  0  0  0  0  0  0  0  0
   93.0700  102.8900  -50.0630 H   0  0  0  0  0  0  0  0  0  0  0  0
   95.4860  101.7650  -48.5470 H   0  0  0  0  0  0  0  0  0  0  0  0
   93.8180  100.9670  -48.7590 H   0  0  0  0  0  0  0  0  0  0  0  0
   91.6440   93.3950  -46.9010 H   0  0  0  0  0  0  0  0  0  0  0  0
   91.9380   91.3520  -45.5470 H   0  0  0  0  0  0  0  0  0  0  0  0
   92.1130   91.5910  -43.1310 H   0  0  0  0  0  0  0  0  0  0  0  0
   92.0020   93.8180  -42.0110 H   0  0  0  0  0  0  0  0  0  0  0  0
  2  7  1  0  0  0  0
  2  1  1  0  0  0  0
  3  2  2  0  0  0  0
  4  5  2  0  0  0  0
  4  3  1  0  0  0  0
  5  6  1  0  0  0  0
  6 32  1  0  0  0  0
  6  7  2  0  0  0  0
  7 33  1  0  0  0  0
  8  9  2  0  0  0  0
  8  5  1  0  0  0  0
  9 34  1  0  0  0  0
 10  9  1  0  0  0  0
 11 10  1  0  0  0  0
 11 29  1  0  0  0  0
 12 11  2  0  0  0  0
 13 12  1  0  0  0  0
 14 13  1  1  0  0  0
 14 15  1  0  0  0  0
 14 10  1  0  0  0  0
 15  8  1  0  0  0  0
 16 36  1  0  0  0  0
 16 15  1  0  0  0  0
 17 16  1  0  0  0  0
 17 38  1  0  0  0  0
 18 17  1  0  0  0  0
 18 40  1  0  0  0  0
 19 18  1  0  0  0  0
 19 42  1  0  0  0  0
 20 21  1  0  0  0  0
 20 19  1  0  0  0  0
 21 45  1  0  0  0  0
 22 47  1  0  0  0  0
 22 48  1  0  0  0  0
 22 21  1  0  0  0  0
 23 22  1  0  0  0  0
 24 23  1  0  0  0  0
 24 25  1  0  0  0  0
 25 53  1  0  0  0  0
 25 20  1  0  0  0  0
 26 12  1  0  0  0  0
 26 27  2  0  0  0  0
 27 28  1  0  0  0  0
 28 57  1  0  0  0  0
 28 29  2  0  0  0  0
 29 58  1  0  0  0  0
 30  3  1  0  0  0  0
 31  4  1  0  0  0  0
 35 13  1  0  0  0  0
 37 16  1  0  0  0  0
 39 17  1  0  0  0  0
 41 18  1  0  0  0  0
 43 19  1  0  0  0  0
 44 20  1  0  0  0  0
 46 21  1  0  0  0  0
 49 23  1  0  0  0  0
 50 23  1  0  0  0  0
 51 24  1  0  0  0  0
 52 24  1  0  0  0  0
 54 25  1  0  0  0  0
 55 26  1  0  0  0  0
 56 27  1  0  0  0  0
M  END
>  <Pose>
1

>  <Score>
-5.64

$$$$
