
 OpenBabel03212208273D

 55 59  0  0  1  0  0  0  0  0999 V2000
   91.1760  103.4240  -39.5380 B   0  0  0  0  0  0  0  0  0  0  0  0
   91.2130  101.8960  -40.6610 C   0  0  0  0  0  0  0  0  0  0  0  0
   92.2310  100.9890  -40.6090 C   0  0  0  0  0  0  0  0  0  0  0  0
   92.2250   99.8880  -41.4420 C   0  0  0  0  0  0  0  0  0  0  0  0
   91.2160   99.6230  -42.3670 C   0  0  0  0  0  0  0  0  0  0  0  0
   90.2060  100.5330  -42.4090 C   0  0  0  0  0  0  0  0  0  0  0  0
   90.2070  101.6650  -41.5590 C   0  0  0  0  0  0  0  0  0  0  0  0
   91.3360   98.4230  -43.2020 C   0  0  0  0  0  0  0  0  0  0  0  0
   91.4910   97.1430  -42.6390 C   0  0  0  0  0  0  0  0  0  0  0  0
   91.5520   96.2430  -43.6190 N   0  0  0  0  0  0  0  0  0  0  0  0
   91.6780   94.9110  -43.8530 C   0  0  0  0  0  0  0  0  0  0  0  0
   91.6440   94.7470  -45.1950 C   0  0  0  0  0  0  0  0  0  0  0  0
   91.5000   95.9640  -45.7390 N   0  0  0  0  0  0  0  0  0  0  0  0
   91.4420   96.9060  -44.7710 C   0  0  1  0  0  0  0  0  0  0  0  0
   91.3090   98.2520  -44.5310 N   0  0  0  0  0  0  0  0  0  0  0  0
   91.1470   99.2290  -45.5560 C   0  0  0  0  0  0  0  0  0  0  0  0
   89.7420   99.4020  -46.0750 C   0  0  0  0  0  0  0  0  0  0  0  0
   89.0450   98.1960  -46.5230 C   0  0  0  0  0  0  0  0  0  0  0  0
   89.3770   97.6120  -47.7890 N   0  0  0  0  0  4  0  0  0  0  0  0
   88.9700   96.2220  -47.8840 C   0  0  0  0  0  0  0  0  0  0  0  0
   87.6040   95.9740  -48.3640 C   0  0  0  0  0  0  0  0  0  0  0  0
   86.8810   97.1290  -48.9510 C   0  0  0  0  0  0  0  0  0  0  0  0
   87.8140   98.0450  -49.6610 C   0  0  0  0  0  0  0  0  0  0  0  0
   89.0500   98.4010  -48.9240 C   0  0  0  0  0  0  0  0  0  0  0  0
   91.7510   93.4860  -45.7530 C   0  0  0  0  0  0  0  0  0  0  0  0
   91.8940   92.3660  -44.9500 C   0  0  0  0  0  0  0  0  0  0  0  0
   91.9300   92.5350  -43.5720 C   0  0  0  0  0  0  0  0  0  0  0  0
   91.8210   93.8050  -43.0510 C   0  0  0  0  0  0  0  0  0  0  0  0
   93.0300  101.1620  -39.9030 H   0  0  0  0  0  0  0  0  0  0  0  0
   93.0620   99.2000  -41.3510 H   0  0  0  0  0  0  0  0  0  0  0  0
   89.3970  100.4310  -43.0760 H   0  0  0  0  0  0  0  0  0  0  0  0
   89.3870  102.3570  -41.6270 H   0  0  0  0  0  0  0  0  0  0  0  0
   91.5570   96.8650  -41.6020 H   0  0  0  0  0  0  0  0  0  0  0  0
   91.4300   96.1680  -46.7700 H   0  0  0  0  0  0  0  0  0  0  0  0
   91.8850   99.1570  -46.3670 H   0  0  0  0  0  0  0  0  0  0  0  0
   91.4680  100.2180  -45.0550 H   0  0  0  0  0  0  0  0  0  0  0  0
   89.8560  100.0590  -47.0000 H   0  0  0  0  0  0  0  0  0  0  0  0
   89.1390  100.0730  -45.4120 H   0  0  0  0  0  0  0  0  0  0  0  0
   87.9440   98.4540  -46.5940 H   0  0  0  0  0  0  0  0  0  0  0  0
   89.0520   97.4190  -45.7010 H   0  0  0  0  0  0  0  0  0  0  0  0
   90.4180   97.5320  -47.7730 H   0  0  0  0  0  0  0  0  0  0  0  0
   89.6750   95.6060  -48.4850 H   0  0  0  0  0  0  0  0  0  0  0  0
   89.0930   95.8190  -46.8330 H   0  0  0  0  0  0  0  0  0  0  0  0
   86.9630   95.5810  -47.5180 H   0  0  0  0  0  0  0  0  0  0  0  0
   87.5670   95.1290  -49.1160 H   0  0  0  0  0  0  0  0  0  0  0  0
   86.1240   96.7580  -49.6740 H   0  0  0  0  0  0  0  0  0  0  0  0
   86.2680   97.6630  -48.1640 H   0  0  0  0  0  0  0  0  0  0  0  0
   87.2400   98.9720  -49.9260 H   0  0  0  0  0  0  0  0  0  0  0  0
   88.0530   97.5790  -50.6570 H   0  0  0  0  0  0  0  0  0  0  0  0
   88.9640   99.4670  -48.5650 H   0  0  0  0  0  0  0  0  0  0  0  0
   89.8830   98.4460  -49.6790 H   0  0  0  0  0  0  0  0  0  0  0  0
   91.7250   93.3520  -46.8250 H   0  0  0  0  0  0  0  0  0  0  0  0
   91.9810   91.3660  -45.3590 H   0  0  0  0  0  0  0  0  0  0  0  0
   92.0420   91.6470  -42.9720 H   0  0  0  0  0  0  0  0  0  0  0  0
   91.8480   93.9260  -41.9930 H   0  0  0  0  0  0  0  0  0  0  0  0
  2  3  1  0  0  0  0
  2  1  1  0  0  0  0
  3 29  1  0  0  0  0
  4 30  1  0  0  0  0
  4  3  2  0  0  0  0
  5  4  1  0  0  0  0
  6  5  2  0  0  0  0
  6  7  1  0  0  0  0
  7  2  2  0  0  0  0
  8  9  2  0  0  0  0
  8  5  1  0  0  0  0
  9 33  1  0  0  0  0
 10  9  1  0  0  0  0
 11 10  1  0  0  0  0
 11 28  1  0  0  0  0
 12 11  2  0  0  0  0
 13 12  1  0  0  0  0
 14 13  1  1  0  0  0
 14 15  1  0  0  0  0
 14 10  1  0  0  0  0
 15  8  1  0  0  0  0
 16 36  1  0  0  0  0
 16 15  1  0  0  0  0
 17 16  1  0  0  0  0
 17 38  1  0  0  0  0
 18 17  1  0  0  0  0
 18 40  1  0  0  0  0
 19 41  1  0  0  0  0
 19 18  1  0  0  0  0
 20 19  1  0  0  0  0
 20 43  1  0  0  0  0
 21 20  1  0  0  0  0
 21 44  1  0  0  0  0
 22 21  1  0  0  0  0
 22 47  1  0  0  0  0
 23 22  1  0  0  0  0
 23 24  1  0  0  0  0
 24 50  1  0  0  0  0
 24 19  1  0  0  0  0
 25 12  1  0  0  0  0
 25 26  2  0  0  0  0
 26 27  1  0  0  0  0
 27 28  2  0  0  0  0
 27 54  1  0  0  0  0
 28 55  1  0  0  0  0
 31  6  1  0  0  0  0
 32  7  1  0  0  0  0
 34 13  1  0  0  0  0
 35 16  1  0  0  0  0
 37 17  1  0  0  0  0
 39 18  1  0  0  0  0
 42 20  1  0  0  0  0
 45 21  1  0  0  0  0
 46 22  1  0  0  0  0
 48 23  1  0  0  0  0
 49 23  1  0  0  0  0
 51 24  1  0  0  0  0
 52 25  1  0  0  0  0
 53 26  1  0  0  0  0
M  END
>  <Pose>
1

>  <Score>
-5.38

$$$$
