
 OpenBabel03212208273D

 62 65  0  0  1  0  0  0  0  0999 V2000
   84.5290   99.5210  -43.3170 S   0  0  0  0  0  0  0  0  0  0  0  0
   84.1230   98.5810  -42.2020 O   0  0  0  0  0  0  0  0  0  0  0  0
   83.7870  100.8250  -43.0510 O   0  0  0  0  0  0  0  0  0  0  0  0
   86.1940   99.8600  -43.3380 N   0  0  0  0  0  0  0  0  0  0  0  0
   86.6560  100.5060  -44.5200 C   0  0  0  0  0  0  0  0  0  0  0  0
   87.2130   99.4570  -45.4620 C   0  0  0  0  0  0  0  0  0  0  0  0
   88.4350   98.9620  -44.8770 N   0  0  0  0  0  0  0  0  0  0  0  0
   88.4690   98.9500  -43.4620 C   0  0  0  0  0  0  0  0  0  0  0  0
   87.0370   98.7740  -42.9560 C   0  0  0  0  0  0  0  0  0  0  0  0
   89.6250   99.3230  -45.5650 C   0  0  0  0  0  0  0  0  0  0  0  0
   90.6070   98.2120  -45.4510 C   0  0  1  0  0  0  0  0  0  0  0  0
   91.3060   98.1750  -44.1340 C   0  0  0  0  0  0  0  0  0  0  0  0
   91.1920   99.0890  -43.2820 O   0  0  0  0  0  0  0  0  0  0  0  0
   92.0890   97.0400  -43.9450 O   0  0  0  0  0  0  0  0  0  0  0  0
   91.8450   95.8120  -44.5240 C   0  0  0  0  0  0  0  0  0  0  0  0
   90.7690   95.7000  -45.3330 C   0  0  0  0  0  0  0  0  0  0  0  0
   89.9370   96.8660  -45.5430 C   0  0  0  0  0  0  0  0  0  0  0  0
   88.7210   96.7840  -45.7860 O   0  0  0  0  0  0  0  0  0  0  0  0
   90.4320   94.4220  -45.9740 C   0  0  0  0  0  0  0  0  0  0  0  0
   91.5260   93.6560  -46.4080 N   0  0  0  0  0  0  0  0  0  0  0  0
   92.0080   93.7600  -47.7190 C   0  0  0  0  0  0  0  0  0  0  0  0
   92.8090   92.4940  -48.1000 C   0  0  0  0  0  0  0  0  0  0  0  0
   91.9710   91.3930  -47.7030 N   0  0  0  0  0  0  0  0  0  0  0  0
   91.8400   91.2280  -46.2620 C   0  0  0  0  0  0  0  0  0  0  0  0
   91.9730   92.5880  -45.5900 C   0  0  0  0  0  0  0  0  0  0  0  0
   91.3220   90.5540  -48.6300 C   0  0  0  0  0  0  0  0  0  0  0  0
   91.2100   89.1900  -48.4820 C   0  0  0  0  0  0  0  0  0  0  0  0
   90.5620   88.4190  -49.4190 C   0  0  0  0  0  0  0  0  0  0  0  0
   89.9930   88.9590  -50.5480 C   0  0  0  0  0  0  0  0  0  0  0  0
   90.0880   90.3160  -50.7230 C   0  0  0  0  0  0  0  0  0  0  0  0
   90.7410   91.0970  -49.7810 C   0  0  0  0  0  0  0  0  0  0  0  0
   90.4550   86.6960  -49.1760 Cl  0  0  0  0  0  0  0  0  0  0  0  0
   83.9170   98.8760  -44.8280 C   0  0  0  0  0  0  0  0  0  0  0  0
   87.5510  101.1250  -44.2140 H   0  0  0  0  0  0  0  0  0  0  0  0
   85.9450  101.1900  -44.9730 H   0  0  0  0  0  0  0  0  0  0  0  0
   86.4930   98.6140  -45.4990 H   0  0  0  0  0  0  0  0  0  0  0  0
   87.3450   99.8340  -46.4770 H   0  0  0  0  0  0  0  0  0  0  0  0
   88.9720   99.8120  -42.9920 H   0  0  0  0  0  0  0  0  0  0  0  0
   89.0290   98.0360  -43.1260 H   0  0  0  0  0  0  0  0  0  0  0  0
   86.6760   97.8030  -43.3850 H   0  0  0  0  0  0  0  0  0  0  0  0
   87.0290   98.6230  -41.8510 H   0  0  0  0  0  0  0  0  0  0  0  0
   89.4380   99.4920  -46.6540 H   0  0  0  0  0  0  0  0  0  0  0  0
   89.9870  100.2800  -45.1230 H   0  0  0  0  0  0  0  0  0  0  0  0
   91.3590   98.2800  -46.2380 H   0  0  0  0  0  0  0  0  0  0  0  0
   92.4550   94.9380  -44.3750 H   0  0  0  0  0  0  0  0  0  0  0  0
   89.6870   94.6530  -46.7900 H   0  0  0  0  0  0  0  0  0  0  0  0
   89.8580   93.8080  -45.2140 H   0  0  0  0  0  0  0  0  0  0  0  0
   92.7010   94.5960  -47.9040 H   0  0  0  0  0  0  0  0  0  0  0  0
   91.1520   93.7130  -48.4530 H   0  0  0  0  0  0  0  0  0  0  0  0
   93.1390   92.5020  -49.1320 H   0  0  0  0  0  0  0  0  0  0  0  0
   93.7240   92.5580  -47.4680 H   0  0  0  0  0  0  0  0  0  0  0  0
   90.8770   90.8080  -45.9660 H   0  0  0  0  0  0  0  0  0  0  0  0
   92.7160   90.6360  -45.9280 H   0  0  0  0  0  0  0  0  0  0  0  0
   91.3680   92.5540  -44.6640 H   0  0  0  0  0  0  0  0  0  0  0  0
   93.0190   92.7710  -45.2700 H   0  0  0  0  0  0  0  0  0  0  0  0
   91.6620   88.7420  -47.5860 H   0  0  0  0  0  0  0  0  0  0  0  0
   89.4780   88.3290  -51.2870 H   0  0  0  0  0  0  0  0  0  0  0  0
   89.6550   90.8060  -51.6000 H   0  0  0  0  0  0  0  0  0  0  0  0
   90.8220   92.1730  -49.9050 H   0  0  0  0  0  0  0  0  0  0  0  0
   83.9100   97.7700  -44.8780 H   0  0  0  0  0  0  0  0  0  0  0  0
   82.8420   99.1840  -44.9870 H   0  0  0  0  0  0  0  0  0  0  0  0
   84.4590   99.2330  -45.7260 H   0  0  0  0  0  0  0  0  0  0  0  0
  1  3  2  0  0  0  0
  1  2  2  0  0  0  0
  4  1  1  0  0  0  0
  4  9  1  0  0  0  0
  5 34  1  0  0  0  0
  5  4  1  0  0  0  0
  6  7  1  0  0  0  0
  6  5  1  0  0  0  0
  7  8  1  0  0  0  0
  8 39  1  0  0  0  0
  8 38  1  0  0  0  0
  8  9  1  0  0  0  0
  9 41  1  0  0  0  0
 10 11  1  0  0  0  0
 10 43  1  0  0  0  0
 10  7  1  0  0  0  0
 11 44  1  6  0  0  0
 11 12  1  0  0  0  0
 12 14  1  0  0  0  0
 12 13  2  0  0  0  0
 15 45  1  0  0  0  0
 15 14  1  0  0  0  0
 16 15  2  0  0  0  0
 17 11  1  0  0  0  0
 17 16  1  0  0  0  0
 18 17  2  0  0  0  0
 19 16  1  0  0  0  0
 19 47  1  0  0  0  0
 20 19  1  0  0  0  0
 20 25  1  0  0  0  0
 21 20  1  0  0  0  0
 22 21  1  0  0  0  0
 22 23  1  0  0  0  0
 22 51  1  0  0  0  0
 23 24  1  0  0  0  0
 24 52  1  0  0  0  0
 24 53  1  0  0  0  0
 24 25  1  0  0  0  0
 25 55  1  0  0  0  0
 25 54  1  0  0  0  0
 26 27  1  0  0  0  0
 26 23  1  0  0  0  0
 27 56  1  0  0  0  0
 28 32  1  0  0  0  0
 28 27  2  0  0  0  0
 29 28  1  0  0  0  0
 30 29  2  0  0  0  0
 30 31  1  0  0  0  0
 31 26  2  0  0  0  0
 33  1  1  0  0  0  0
 35  5  1  0  0  0  0
 36  6  1  0  0  0  0
 37  6  1  0  0  0  0
 40  9  1  0  0  0  0
 42 10  1  0  0  0  0
 46 19  1  0  0  0  0
 48 21  1  0  0  0  0
 49 21  1  0  0  0  0
 50 22  1  0  0  0  0
 57 29  1  0  0  0  0
 58 30  1  0  0  0  0
 59 31  1  0  0  0  0
 60 33  1  0  0  0  0
 61 33  1  0  0  0  0
 62 33  1  0  0  0  0
M  END
>  <Pose>
1

>  <Score>
-4.39

$$$$
