
 OpenBabel03232221553D

 50 53  0  0  0  0  0  0  0  0999 V2000
    8.1570  -19.4350  -43.4070 B   0  0  0  0  0  0  0  0  0  0  0  0
    6.8420  -20.6700  -42.7490 C   0  0  0  0  0  0  0  0  0  0  0  0
    6.7380  -21.9060  -43.3580 C   0  0  0  0  0  0  0  0  0  0  0  0
    5.7880  -22.7780  -42.8710 C   0  0  0  0  0  0  0  0  0  0  0  0
    4.9760  -22.4130  -41.8100 C   0  0  0  0  0  0  0  0  0  0  0  0
    5.0760  -21.1800  -41.2000 C   0  0  0  0  0  0  0  0  0  0  0  0
    6.0280  -20.3130  -41.6930 C   0  0  0  0  0  0  0  0  0  0  0  0
    6.1280  -19.0560  -41.0690 O   0  0  0  0  0  0  0  0  0  0  0  0
    4.2180  -20.7840  -40.0750 C   0  0  0  0  0  0  0  0  0  0  0  0
    4.4980  -21.0780  -38.8610 N   0  0  0  0  0  0  0  0  0  0  0  0
    3.6270  -20.6680  -37.7930 N   0  0  0  0  0  0  0  0  0  0  0  0
    3.8590  -19.3980  -37.2530 C   0  0  0  0  0  0  0  0  0  0  0  0
    5.1130  -19.0490  -37.1580 O   0  0  0  0  0  0  0  0  0  0  0  0
    2.9310  -18.3990  -36.7810 C   0  0  0  0  0  0  0  0  0  0  0  0
    3.0640  -17.7830  -35.5550 N   0  0  0  0  0  0  0  0  0  0  0  0
    2.0810  -16.9510  -35.4220 N   0  0  0  0  0  0  0  0  0  0  0  0
    1.2950  -16.9990  -36.5330 N   0  0  0  0  0  0  0  0  0  0  0  0
    1.7940  -17.8860  -37.3930 C   0  0  0  0  0  0  0  0  0  0  0  0
    1.2910  -18.2780  -38.7090 C   0  0  0  0  0  0  0  0  0  0  0  0
    2.1920  -18.4270  -39.7890 N   0  0  0  0  0  4  0  0  0  0  0  0
    2.3900  -17.2010  -40.5480 C   0  0  0  0  0  0  0  0  0  0  0  0
    1.1020  -16.6080  -40.9580 C   0  0  0  0  0  0  0  0  0  0  0  0
    0.0540  -17.3850  -41.2380 O   0  0  0  0  0  0  0  0  0  0  0  0
    0.1550  -18.7300  -41.0910 C   0  0  0  0  0  0  0  0  0  0  0  0
    1.4930  -19.2800  -40.8050 C   0  0  0  0  0  0  0  0  0  0  0  0
    0.1450  -16.1550  -36.6190 C   0  0  0  0  0  0  0  0  0  0  0  0
   -1.1310  -16.4170  -36.8740 N   0  0  0  0  0  0  0  0  0  0  0  0
   -1.7810  -15.3030  -36.8010 O   0  0  0  0  0  0  0  0  0  0  0  0
   -1.0020  -14.3090  -36.5110 N   0  0  0  0  0  0  0  0  0  0  0  0
    0.2330  -14.7740  -36.3800 C   0  0  0  0  0  0  0  0  0  0  0  0
    1.4300  -14.0800  -36.0680 N   0  0  0  0  0  0  0  0  0  0  0  0
    5.6480  -24.4870  -43.7160 B   0  0  0  0  0  0  0  0  0  0  0  0
    7.5740  -22.2400  -44.4250 O   0  0  0  0  0  0  0  0  0  0  0  0
    4.2290  -23.1160  -41.4380 H   0  0  0  0  0  0  0  0  0  0  0  0
    6.9190  -18.8610  -40.4750 H   0  0  0  0  0  0  0  0  0  0  0  0
    3.3310  -20.2340  -40.2710 H   0  0  0  0  0  0  0  0  0  0  0  0
    2.9050  -21.3070  -37.5020 H   0  0  0  0  0  0  0  0  0  0  0  0
    0.4270  -17.6040  -39.0300 H   0  0  0  0  0  0  0  0  0  0  0  0
    0.8000  -19.2960  -38.5800 H   0  0  0  0  0  0  0  0  0  0  0  0
    3.0550  -18.8820  -39.5330 H   0  0  0  0  0  0  0  0  0  0  0  0
    2.9310  -17.5260  -41.4860 H   0  0  0  0  0  0  0  0  0  0  0  0
    3.0180  -16.4570  -40.0660 H   0  0  0  0  0  0  0  0  0  0  0  0
    1.3110  -15.9570  -41.8590 H   0  0  0  0  0  0  0  0  0  0  0  0
    0.8060  -15.8520  -40.1730 H   0  0  0  0  0  0  0  0  0  0  0  0
   -0.5630  -19.0630  -40.3140 H   0  0  0  0  0  0  0  0  0  0  0  0
   -0.2130  -19.2060  -42.0450 H   0  0  0  0  0  0  0  0  0  0  0  0
    2.1640  -19.3190  -41.6720 H   0  0  0  0  0  0  0  0  0  0  0  0
    1.4410  -20.2750  -40.3420 H   0  0  0  0  0  0  0  0  0  0  0  0
    1.9800  -14.3600  -35.2300 H   0  0  0  0  0  0  0  0  0  0  0  0
    1.7940  -13.2770  -36.6570 H   0  0  0  0  0  0  0  0  0  0  0  0
  1  2  1  0  0  0  0
  2  7  1  0  0  0  0
  3  4  1  0  0  0  0
  3  2  2  0  0  0  0
  4  5  2  0  0  0  0
  5 34  1  0  0  0  0
  5  6  1  0  0  0  0
  6  9  1  0  0  0  0
  7  6  2  0  0  0  0
  7  8  1  0  0  0  0
  8 35  1  0  0  0  0
  9 10  2  0  0  0  0
 10 11  1  0  0  0  0
 11 37  1  0  0  0  0
 11 12  1  0  0  0  0
 12 13  2  0  0  0  0
 12 14  1  0  0  0  0
 14 15  1  0  0  0  0
 15 16  2  0  0  0  0
 17 16  1  0  0  0  0
 18 14  2  0  0  0  0
 18 17  1  0  0  0  0
 19 39  1  0  0  0  0
 19 18  1  0  0  0  0
 20 40  1  0  0  0  0
 20 19  1  0  0  0  0
 21 42  1  0  0  0  0
 21 20  1  0  0  0  0
 22 21  1  0  0  0  0
 22 44  1  0  0  0  0
 23 24  1  0  0  0  0
 23 22  1  0  0  0  0
 24 25  1  0  0  0  0
 24 45  1  0  0  0  0
 25 48  1  0  0  0  0
 25 20  1  0  0  0  0
 26 17  1  0  0  0  0
 26 30  1  0  0  0  0
 27 28  1  0  0  0  0
 27 26  2  0  0  0  0
 28 29  1  0  0  0  0
 29 30  2  0  0  0  0
 30 31  1  0  0  0  0
 31 49  1  0  0  0  0
 32  4  1  0  0  0  0
 33  3  1  0  0  0  0
 36  9  1  0  0  0  0
 38 19  1  0  0  0  0
 41 21  1  0  0  0  0
 43 22  1  0  0  0  0
 46 24  1  0  0  0  0
 47 25  1  0  0  0  0
 50 31  1  0  0  0  0
M  END
>  <Pose>
1

>  <Score>
-6.10

$$$$
