
 OpenBabel03232221553D

 60 63  0  0  1  0  0  0  0  0999 V2000
    8.4960  -25.8670  -43.4300 B   0  0  0  0  0  0  0  0  0  0  0  0
    9.1480  -24.2750  -44.2690 C   0  0  0  0  0  0  0  0  0  0  0  0
    8.6260  -23.0480  -43.8310 C   0  0  0  0  0  0  0  0  0  0  0  0
    9.0990  -21.9290  -44.4360 C   0  0  0  0  0  0  0  0  0  0  0  0
   10.0600  -21.9780  -45.4530 C   0  0  0  0  0  0  0  0  0  0  0  0
   10.5560  -23.1930  -45.8650 C   0  0  0  0  0  0  0  0  0  0  0  0
   10.0900  -24.3420  -45.2640 C   0  0  0  0  0  0  0  0  0  0  0  0
   11.8650  -23.3830  -47.2370 B   0  0  0  0  0  0  0  0  0  0  0  0
    8.4940  -20.2210  -43.9230 B   0  0  0  0  0  0  0  0  0  0  0  0
    7.7010  -23.0410  -42.8470 O   0  0  0  0  0  0  0  0  0  0  0  0
    6.3600  -22.5670  -42.9480 C   0  0  0  0  0  0  0  0  0  0  0  0
    6.1910  -21.3290  -42.1750 C   0  0  1  0  0  0  0  0  0  0  0  0
    5.5900  -20.4020  -43.0450 O   0  0  0  0  0  0  0  0  0  0  0  0
    5.8880  -21.2510  -40.7560 C   0  0  0  0  0  0  0  0  0  0  0  0
    4.5900  -20.9530  -40.2660 N   0  0  0  0  0  0  0  0  0  0  0  0
    4.3080  -20.2120  -39.1610 C   0  0  0  0  0  0  0  0  0  0  0  0
    2.9510  -20.1360  -38.9960 C   0  0  0  0  0  0  0  0  0  0  0  0
    2.4400  -20.8280  -39.9930 N   0  0  0  0  0  0  0  0  0  0  0  0
    3.4140  -21.3470  -40.7900 C   0  0  0  0  0  0  0  0  0  0  0  0
    3.1170  -22.2400  -41.8790 N   0  0  0  0  0  0  0  0  0  0  0  0
    2.4630  -21.9330  -43.0920 C   0  0  0  0  0  0  0  0  0  0  0  0
    2.4720  -23.2150  -43.9690 C   0  0  0  0  0  0  0  0  0  0  0  0
    1.7010  -24.1820  -43.2130 N   0  0  0  0  0  4  0  0  0  0  0  0
    2.6690  -24.6730  -42.2130 C   0  0  0  0  0  0  0  0  0  0  0  0
    3.5880  -23.6240  -41.7300 C   0  0  0  0  0  0  0  0  0  0  0  0
    1.2600  -25.2840  -44.0450 C   0  0  0  0  0  0  0  0  0  0  0  0
    0.2200  -26.0800  -43.2870 C   0  0  0  0  0  0  0  0  0  0  0  0
    0.4500  -27.4460  -43.4950 O   0  0  0  0  0  0  0  0  0  0  0  0
    2.3340  -19.4750  -37.9690 N   0  0  0  0  0  0  0  0  0  0  0  0
    3.1330  -18.8740  -37.0780 C   0  0  0  0  0  0  0  0  0  0  0  0
    2.5600  -18.2640  -36.1320 O   0  0  0  0  0  0  0  0  0  0  0  0
    4.4740  -18.9230  -37.1940 N   0  0  0  0  0  0  0  0  0  0  0  0
    5.0930  -19.5670  -38.1960 C   0  0  0  0  0  0  0  0  0  0  0  0
    6.4650  -19.6070  -38.2870 O   0  0  0  0  0  0  0  0  0  0  0  0
    0.8790  -19.4520  -37.9000 C   0  0  0  0  0  0  0  0  0  0  0  0
   10.4160  -21.0780  -45.9140 H   0  0  0  0  0  0  0  0  0  0  0  0
   10.4610  -25.3300  -45.5640 H   0  0  0  0  0  0  0  0  0  0  0  0
    5.7850  -23.3720  -42.3690 H   0  0  0  0  0  0  0  0  0  0  0  0
    5.9310  -22.6220  -43.9380 H   0  0  0  0  0  0  0  0  0  0  0  0
    7.3170  -20.8630  -42.2190 H   0  0  0  0  0  0  0  0  0  0  0  0
    5.8970  -19.4930  -42.8810 H   0  0  0  0  0  0  0  0  0  0  0  0
    6.3840  -22.0850  -40.1550 H   0  0  0  0  0  0  0  0  0  0  0  0
    6.5830  -20.3900  -40.3920 H   0  0  0  0  0  0  0  0  0  0  0  0
    3.0310  -21.2220  -43.7460 H   0  0  0  0  0  0  0  0  0  0  0  0
    1.3950  -21.7160  -43.0010 H   0  0  0  0  0  0  0  0  0  0  0  0
    3.5110  -23.5670  -44.1140 H   0  0  0  0  0  0  0  0  0  0  0  0
    1.9770  -23.0540  -44.9270 H   0  0  0  0  0  0  0  0  0  0  0  0
    0.9220  -23.7610  -42.6630 H   0  0  0  0  0  0  0  0  0  0  0  0
    2.2040  -25.3160  -41.4610 H   0  0  0  0  0  0  0  0  0  0  0  0
    3.3060  -25.3870  -42.8280 H   0  0  0  0  0  0  0  0  0  0  0  0
    3.8050  -23.8060  -40.6620 H   0  0  0  0  0  0  0  0  0  0  0  0
    4.5810  -23.6270  -42.2420 H   0  0  0  0  0  0  0  0  0  0  0  0
    2.1060  -25.9850  -44.2710 H   0  0  0  0  0  0  0  0  0  0  0  0
    0.7790  -24.9370  -44.9800 H   0  0  0  0  0  0  0  0  0  0  0  0
    0.3160  -25.9150  -42.1910 H   0  0  0  0  0  0  0  0  0  0  0  0
   -0.8240  -25.8460  -43.6390 H   0  0  0  0  0  0  0  0  0  0  0  0
    1.3920  -27.6070  -43.7770 H   0  0  0  0  0  0  0  0  0  0  0  0
    0.5900  -18.4230  -38.2640 H   0  0  0  0  0  0  0  0  0  0  0  0
    0.4820  -20.1340  -38.6750 H   0  0  0  0  0  0  0  0  0  0  0  0
    0.4720  -19.6130  -36.9040 H   0  0  0  0  0  0  0  0  0  0  0  0
  2  3  1  0  0  0  0
  2  1  1  0  0  0  0
  3 10  1  0  0  0  0
  4  9  1  0  0  0  0
  4  3  2  0  0  0  0
  5  4  1  0  0  0  0
  6  5  2  0  0  0  0
  6  7  1  0  0  0  0
  7  2  2  0  0  0  0
  8  6  1  0  0  0  0
 11 10  1  0  0  0  0
 11 38  1  0  0  0  0
 11 12  1  0  0  0  0
 12 40  1  6  0  0  0
 12 14  1  0  0  0  0
 13 41  1  0  0  0  0
 13 12  1  0  0  0  0
 14 43  1  0  0  0  0
 14 15  1  0  0  0  0
 14 42  1  0  0  0  0
 15 16  1  0  0  0  0
 16 17  2  0  0  0  0
 16 33  1  0  0  0  0
 17 29  1  0  0  0  0
 18 17  1  0  0  0  0
 19 15  1  0  0  0  0
 19 18  2  0  0  0  0
 20 25  1  0  0  0  0
 20 19  1  0  0  0  0
 21 45  1  0  0  0  0
 21 20  1  0  0  0  0
 22 23  1  0  0  0  0
 22 21  1  0  0  0  0
 23 48  1  0  0  0  0
 23 24  1  0  0  0  0
 24 25  1  0  0  0  0
 24 49  1  0  0  0  0
 25 51  1  0  0  0  0
 26 27  1  0  0  0  0
 26 23  1  0  0  0  0
 27 55  1  0  0  0  0
 28 27  1  0  0  0  0
 29 35  1  0  0  0  0
 29 30  1  0  0  0  0
 30 31  2  0  0  0  0
 32 30  1  0  0  0  0
 33 32  1  0  0  0  0
 34 33  2  0  0  0  0
 35 60  1  0  0  0  0
 36  5  1  0  0  0  0
 37  7  1  0  0  0  0
 39 11  1  0  0  0  0
 44 21  1  0  0  0  0
 46 22  1  0  0  0  0
 47 22  1  0  0  0  0
 50 24  1  0  0  0  0
 52 25  1  0  0  0  0
 53 26  1  0  0  0  0
 54 26  1  0  0  0  0
 56 27  1  0  0  0  0
 57 28  1  0  0  0  0
 58 35  1  0  0  0  0
 59 35  1  0  0  0  0
M  END
>  <Pose>
1

>  <Score>
-5.13

$$$$
