
 OpenBabel03232221553D

 53 56  0  0  0  0  0  0  0  0999 V2000
   -1.8720  -10.6420  -34.6100 B   0  0  0  0  0  0  0  0  0  0  0  0
   -0.7320  -11.5240  -35.8940 C   0  0  0  0  0  0  0  0  0  0  0  0
    0.0660  -10.7530  -36.7120 C   0  0  0  0  0  0  0  0  0  0  0  0
    0.8980  -11.3510  -37.6160 C   0  0  0  0  0  0  0  0  0  0  0  0
    0.9020  -12.7260  -37.6770 C   0  0  0  0  0  0  0  0  0  0  0  0
    0.1210  -13.5450  -36.8820 C   0  0  0  0  0  0  0  0  0  0  0  0
   -0.7320  -12.8510  -35.9470 C   0  0  0  0  0  0  0  0  0  0  0  0
    0.0470  -14.9090  -36.8610 C   0  0  0  0  0  0  0  0  0  0  0  0
   -0.5210  -15.9980  -37.4120 N   0  0  0  0  0  0  0  0  0  0  0  0
    0.2470  -17.0480  -36.4880 N   0  0  0  0  0  0  0  0  0  0  0  0
    1.5420  -17.1250  -37.1270 C   0  0  0  0  0  0  0  0  0  0  0  0
    1.8860  -16.2630  -37.9340 O   0  0  0  0  0  0  0  0  0  0  0  0
    2.4790  -18.1620  -36.7550 C   0  0  0  0  0  0  0  0  0  0  0  0
    3.4360  -18.2750  -35.9030 N   0  0  0  0  0  0  0  0  0  0  0  0
    4.2830  -19.2110  -36.2970 N   0  0  0  0  0  0  0  0  0  0  0  0
    3.8490  -19.7240  -37.4400 N   0  0  0  0  0  0  0  0  0  0  0  0
    2.7140  -19.1640  -37.8320 C   0  0  0  0  0  0  0  0  0  0  0  0
    1.9050  -19.2230  -39.0160 C   0  0  0  0  0  0  0  0  0  0  0  0
    1.1080  -20.4300  -39.2450 N   0  0  0  0  0  0  0  0  0  0  0  0
    0.4160  -20.3970  -40.4920 C   0  0  0  0  0  0  0  0  0  0  0  0
   -0.6850  -19.3780  -40.5760 C   0  0  0  0  0  0  0  0  0  0  0  0
   -1.7690  -19.8050  -39.8290 O   0  0  0  0  0  0  0  0  0  0  0  0
   -1.3600  -20.6930  -38.8270 C   0  0  0  0  0  0  0  0  0  0  0  0
   -0.0510  -20.2470  -38.2670 C   0  0  0  0  0  0  0  0  0  0  0  0
    4.7600  -20.4440  -38.3060 C   0  0  0  0  0  0  0  0  0  0  0  0
    4.7430  -21.5880  -38.8510 N   0  0  0  0  0  0  0  0  0  0  0  0
    5.8570  -21.8420  -39.5380 O   0  0  0  0  0  0  0  0  0  0  0  0
    6.6010  -20.8030  -39.4140 N   0  0  0  0  0  0  0  0  0  0  0  0
    6.0170  -19.8680  -38.6650 C   0  0  0  0  0  0  0  0  0  0  0  0
    6.5210  -18.6110  -38.2910 N   0  0  0  0  0  0  0  0  0  0  0  0
    1.7360  -10.6030  -38.4520 O   0  0  0  0  0  0  0  0  0  0  0  0
    3.1470  -10.5600  -38.1590 C   0  0  0  0  0  0  0  0  0  0  0  0
    0.0160   -9.3590  -36.6100 O   0  0  0  0  0  0  0  0  0  0  0  0
    1.5860  -13.2010  -38.4020 H   0  0  0  0  0  0  0  0  0  0  0  0
   -1.3580  -13.4520  -35.2810 H   0  0  0  0  0  0  0  0  0  0  0  0
    0.7470  -15.3820  -36.0170 H   0  0  0  0  0  0  0  0  0  0  0  0
   -0.2810  -17.3440  -35.7800 H   0  0  0  0  0  0  0  0  0  0  0  0
    1.3590  -18.3400  -39.3620 H   0  0  0  0  0  0  0  0  0  0  0  0
    2.6600  -19.3280  -39.9280 H   0  0  0  0  0  0  0  0  0  0  0  0
    1.1430  -20.2200  -41.2940 H   0  0  0  0  0  0  0  0  0  0  0  0
   -0.0770  -21.4060  -40.6970 H   0  0  0  0  0  0  0  0  0  0  0  0
   -0.3680  -18.3540  -40.3770 H   0  0  0  0  0  0  0  0  0  0  0  0
   -1.0540  -19.3880  -41.6440 H   0  0  0  0  0  0  0  0  0  0  0  0
   -1.4700  -21.7410  -39.0310 H   0  0  0  0  0  0  0  0  0  0  0  0
   -2.1160  -20.4890  -37.9820 H   0  0  0  0  0  0  0  0  0  0  0  0
    0.1530  -20.7350  -37.3240 H   0  0  0  0  0  0  0  0  0  0  0  0
   -0.1730  -19.1240  -38.1930 H   0  0  0  0  0  0  0  0  0  0  0  0
    6.1440  -18.0670  -37.4940 H   0  0  0  0  0  0  0  0  0  0  0  0
    7.3420  -18.1480  -38.8090 H   0  0  0  0  0  0  0  0  0  0  0  0
    3.6980   -9.9760  -38.9060 H   0  0  0  0  0  0  0  0  0  0  0  0
    3.2480  -10.0810  -37.1210 H   0  0  0  0  0  0  0  0  0  0  0  0
    3.5070  -11.5840  -38.1010 H   0  0  0  0  0  0  0  0  0  0  0  0
    0.7180   -8.8890  -36.0000 H   0  0  0  0  0  0  0  0  0  0  0  0
  2  1  1  0  0  0  0
  3 33  1  0  0  0  0
  3  2  2  0  0  0  0
  4  3  1  0  0  0  0
  5  4  2  0  0  0  0
  5  6  1  0  0  0  0
  6  8  1  0  0  0  0
  6  7  2  0  0  0  0
  7  2  1  0  0  0  0
  7 35  1  0  0  0  0
  8 36  1  0  0  0  0
  9  8  1  0  0  0  0
  9 10  1  0  0  0  0
 10 37  1  0  0  0  0
 11 13  1  0  0  0  0
 11 10  1  0  0  0  0
 12 11  2  0  0  0  0
 13 14  1  0  0  0  0
 15 14  2  0  0  0  0
 16 15  1  0  0  0  0
 17 16  1  0  0  0  0
 17 13  2  0  0  0  0
 18 17  1  0  0  0  0
 19 18  1  0  0  0  0
 19 24  1  0  0  0  0
 20 19  1  0  0  0  0
 21 20  1  0  0  0  0
 21 42  1  0  0  0  0
 21 22  1  0  0  0  0
 22 23  1  0  0  0  0
 23 24  1  0  0  0  0
 23 45  1  0  0  0  0
 24 47  1  0  0  0  0
 24 46  1  0  0  0  0
 25 16  1  0  0  0  0
 26 25  2  0  0  0  0
 27 28  1  0  0  0  0
 27 26  1  0  0  0  0
 28 29  2  0  0  0  0
 29 25  1  0  0  0  0
 29 30  1  0  0  0  0
 30 48  1  0  0  0  0
 31 32  1  0  0  0  0
 31  4  1  0  0  0  0
 32 52  1  0  0  0  0
 32 51  1  0  0  0  0
 33 53  1  0  0  0  0
 34  5  1  0  0  0  0
 38 18  1  0  0  0  0
 39 18  1  0  0  0  0
 40 20  1  0  0  0  0
 41 20  1  0  0  0  0
 43 21  1  0  0  0  0
 44 23  1  0  0  0  0
 49 30  1  0  0  0  0
 50 32  1  0  0  0  0
M  END
>  <Pose>
1

>  <Score>
-6.62

$$$$
