
 OpenBabel03232221553D

 64 67  0  0  1  0  0  0  0  0999 V2000
    6.5840  -19.6320  -38.1540 B   0  0  0  0  0  0  0  0  0  0  0  0
    5.6570  -20.0900  -39.7430 C   0  0  0  0  0  0  0  0  0  0  0  0
    4.3580  -20.6080  -39.6440 C   0  0  0  0  0  0  0  0  0  0  0  0
    3.6790  -20.9450  -40.8070 C   0  0  0  0  0  0  0  0  0  0  0  0
    4.2970  -20.7590  -41.9980 C   0  0  0  0  0  0  0  0  0  0  0  0
    5.5810  -20.2470  -42.0950 C   0  0  0  0  0  0  0  0  0  0  0  0
    6.2780  -19.9050  -40.9630 C   0  0  0  0  0  0  0  0  0  0  0  0
    6.1310  -20.1080  -43.4690 C   0  0  1  0  0  0  0  0  0  0  0  0
    7.0250  -18.9690  -43.4570 N   0  0  0  0  0  0  0  0  0  0  0  0
    8.3660  -19.3660  -43.5070 C   0  0  0  0  0  0  0  0  0  0  0  0
    9.3540  -18.6280  -43.3850 O   0  0  0  0  0  0  0  0  0  0  0  0
    8.3910  -20.8130  -43.7270 C   0  0  0  0  0  0  0  0  0  0  0  0
    9.4620  -21.4670  -43.8130 O   0  0  0  0  0  0  0  0  0  0  0  0
    7.0230  -21.2760  -43.8120 C   0  0  0  0  0  0  0  0  0  0  0  0
    6.6560  -22.4980  -44.0880 C   0  0  0  0  0  0  0  0  0  0  0  0
    5.3100  -22.8290  -44.0750 O   0  0  0  0  0  0  0  0  0  0  0  0
    7.6100  -23.5280  -44.4190 C   0  0  0  0  0  0  0  0  0  0  0  0
    8.1530  -24.2000  -43.3160 C   0  0  0  0  0  0  0  0  0  0  0  0
    9.0470  -25.2290  -43.4820 C   0  0  0  0  0  0  0  0  0  0  0  0
    9.4270  -25.6160  -44.7460 C   0  0  0  0  0  0  0  0  0  0  0  0
    8.8780  -24.9370  -45.8180 C   0  0  0  0  0  0  0  0  0  0  0  0
    7.9790  -23.9040  -45.6710 C   0  0  0  0  0  0  0  0  0  0  0  0
   10.3430  -26.6810  -44.6200 O   0  0  0  0  0  0  0  0  0  0  0  0
   10.8300  -26.7000  -43.2820 C   0  0  2  0  0  0  0  0  0  0  0  0
    9.7420  -26.0620  -42.4490 C   0  0  0  0  0  0  0  0  0  0  0  0
   12.0830  -25.8610  -43.1200 C   0  0  0  0  0  0  0  0  0  0  0  0
    6.5170  -17.6140  -43.3940 C   0  0  0  0  0  0  0  0  0  0  0  0
    5.3690  -17.3000  -44.2570 C   0  0  0  0  0  0  0  0  0  0  0  0
    4.8610  -15.9060  -44.2630 C   0  0  0  0  0  0  0  0  0  0  0  0
    4.5670  -15.3750  -42.9550 N   0  0  0  0  0  4  0  0  0  0  0  0
    3.2120  -15.7930  -42.5640 C   0  0  0  0  0  0  0  0  0  0  0  0
    4.5470  -13.9280  -43.0720 C   0  0  0  0  0  0  0  0  0  0  0  0
    2.3840  -21.4610  -40.7130 O   0  0  0  0  0  0  0  0  0  0  0  0
    1.2520  -20.6640  -40.4940 C   0  0  0  0  0  0  0  0  0  0  0  0
    3.7440  -20.7910  -38.4310 O   0  0  0  0  0  0  0  0  0  0  0  0
    3.7310  -21.0360  -42.8990 H   0  0  0  0  0  0  0  0  0  0  0  0
    7.2810  -19.5040  -41.0600 H   0  0  0  0  0  0  0  0  0  0  0  0
    5.3370  -19.9710  -44.2290 H   0  0  0  0  0  0  0  0  0  0  0  0
    7.8680  -23.9170  -42.2880 H   0  0  0  0  0  0  0  0  0  0  0  0
    9.1650  -25.2260  -46.8400 H   0  0  0  0  0  0  0  0  0  0  0  0
    7.5360  -23.3920  -46.5170 H   0  0  0  0  0  0  0  0  0  0  0  0
   11.0100  -27.7140  -42.8990 H   0  0  0  0  0  0  0  0  0  0  0  0
   10.1720  -25.4080  -41.6330 H   0  0  0  0  0  0  0  0  0  0  0  0
    9.0780  -26.7770  -41.9550 H   0  0  0  0  0  0  0  0  0  0  0  0
   12.1590  -25.1490  -43.9780 H   0  0  0  0  0  0  0  0  0  0  0  0
   12.9860  -26.5020  -43.0150 H   0  0  0  0  0  0  0  0  0  0  0  0
   12.0020  -25.2570  -42.2080 H   0  0  0  0  0  0  0  0  0  0  0  0
    6.2480  -17.4060  -42.3390 H   0  0  0  0  0  0  0  0  0  0  0  0
    7.3710  -16.8910  -43.5830 H   0  0  0  0  0  0  0  0  0  0  0  0
    4.5080  -17.9600  -43.9430 H   0  0  0  0  0  0  0  0  0  0  0  0
    5.5720  -17.6010  -45.3010 H   0  0  0  0  0  0  0  0  0  0  0  0
    5.4800  -15.1750  -44.8000 H   0  0  0  0  0  0  0  0  0  0  0  0
    3.8790  -15.9200  -44.8120 H   0  0  0  0  0  0  0  0  0  0  0  0
    5.2410  -15.6160  -42.2240 H   0  0  0  0  0  0  0  0  0  0  0  0
    3.1900  -16.8900  -42.3260 H   0  0  0  0  0  0  0  0  0  0  0  0
    2.8660  -15.2570  -41.6580 H   0  0  0  0  0  0  0  0  0  0  0  0
    2.5180  -15.5590  -43.4090 H   0  0  0  0  0  0  0  0  0  0  0  0
    5.2140  -13.4430  -42.3360 H   0  0  0  0  0  0  0  0  0  0  0  0
    3.5120  -13.5320  -42.9880 H   0  0  0  0  0  0  0  0  0  0  0  0
    4.9120  -13.5940  -44.0840 H   0  0  0  0  0  0  0  0  0  0  0  0
    1.3500  -20.0270  -39.5780 H   0  0  0  0  0  0  0  0  0  0  0  0
    1.1160  -20.0230  -41.4130 H   0  0  0  0  0  0  0  0  0  0  0  0
    0.3760  -21.3150  -40.4060 H   0  0  0  0  0  0  0  0  0  0  0  0
    3.5720  -21.7030  -38.0860 H   0  0  0  0  0  0  0  0  0  0  0  0
  2  3  1  0  0  0  0
  2  1  1  0  0  0  0
  3 35  1  0  0  0  0
  4 33  1  0  0  0  0
  4  3  2  0  0  0  0
  5  4  1  0  0  0  0
  6  5  2  0  0  0  0
  6  7  1  0  0  0  0
  7  2  2  0  0  0  0
  8 38  1  6  0  0  0
  8  9  1  0  0  0  0
  8  6  1  0  0  0  0
  9 27  1  0  0  0  0
 10  9  1  0  0  0  0
 10 11  2  0  0  0  0
 12 10  1  0  0  0  0
 13 12  2  0  0  0  0
 14 12  1  0  0  0  0
 14  8  1  0  0  0  0
 15 16  1  0  0  0  0
 15 14  2  0  0  0  0
 17 15  1  0  0  0  0
 17 18  1  0  0  0  0
 18 39  1  0  0  0  0
 19 18  2  0  0  0  0
 19 25  1  0  0  0  0
 20 23  1  0  0  0  0
 20 19  1  0  0  0  0
 21 22  1  0  0  0  0
 21 20  2  0  0  0  0
 22 17  2  0  0  0  0
 23 24  1  0  0  0  0
 24 26  1  0  0  0  0
 24 42  1  1  0  0  0
 24 25  1  0  0  0  0
 25 44  1  0  0  0  0
 25 43  1  0  0  0  0
 26 46  1  0  0  0  0
 26 47  1  0  0  0  0
 27 48  1  0  0  0  0
 28 50  1  0  0  0  0
 28 27  1  0  0  0  0
 29 28  1  0  0  0  0
 29 30  1  0  0  0  0
 30 31  1  0  0  0  0
 30 54  1  0  0  0  0
 31 55  1  0  0  0  0
 31 56  1  0  0  0  0
 32 59  1  0  0  0  0
 32 30  1  0  0  0  0
 32 58  1  0  0  0  0
 33 34  1  0  0  0  0
 34 63  1  0  0  0  0
 34 61  1  0  0  0  0
 35 64  1  0  0  0  0
 36  5  1  0  0  0  0
 37  7  1  0  0  0  0
 40 21  1  0  0  0  0
 41 22  1  0  0  0  0
 45 26  1  0  0  0  0
 49 27  1  0  0  0  0
 51 28  1  0  0  0  0
 52 29  1  0  0  0  0
 53 29  1  0  0  0  0
 57 31  1  0  0  0  0
 60 32  1  0  0  0  0
 62 34  1  0  0  0  0
M  END
>  <Pose>
1

>  <Score>
-4.52

$$$$
