
 OpenBabel03232221553D

 39 42  0  0  1  0  0  0  0  0999 V2000
    6.8090  -19.2140  -37.7000 B   0  0  0  0  0  0  0  0  0  0  0  0
    5.1610  -19.4850  -38.6080 C   0  0  0  0  0  0  0  0  0  0  0  0
    5.1510  -19.6920  -39.9660 C   0  0  0  0  0  0  0  0  0  0  0  0
    3.9410  -19.8860  -40.5980 C   0  0  0  0  0  0  0  0  0  0  0  0
    2.7270  -19.8850  -39.9460 C   0  0  0  0  0  0  0  0  0  0  0  0
    2.7450  -19.6770  -38.5830 C   0  0  0  0  0  0  0  0  0  0  0  0
    3.9400  -19.4800  -37.9270 C   0  0  0  0  0  0  0  0  0  0  0  0
    1.5000  -19.6590  -37.7640 C   0  0  2  0  0  0  0  0  0  0  0  0
    0.5150  -20.4320  -38.3980 N   0  0  0  0  0  4  0  0  0  0  0  0
   -0.8090  -19.9460  -38.4810 C   0  0  1  0  0  0  0  0  0  0  0  0
   -1.1690  -18.8740  -37.4880 C   0  0  0  0  0  0  0  0  0  0  0  0
   -0.1120  -17.8410  -37.3790 C   0  0  0  0  0  0  0  0  0  0  0  0
   -0.1590  -16.4910  -37.1570 C   0  0  0  0  0  0  0  0  0  0  0  0
    1.1620  -16.0800  -37.1650 C   0  0  0  0  0  0  0  0  0  0  0  0
    1.9610  -17.1590  -37.3850 N   0  0  0  0  0  0  0  0  0  0  0  0
    1.1820  -18.2410  -37.5170 C   0  0  0  0  0  0  0  0  0  0  0  0
    1.3970  -14.7370  -36.9600 C   0  0  0  0  0  0  0  0  0  0  0  0
    0.3670  -13.8440  -36.7570 C   0  0  0  0  0  0  0  0  0  0  0  0
   -0.9500  -14.2550  -36.7490 C   0  0  0  0  0  0  0  0  0  0  0  0
   -1.2040  -15.6020  -36.9530 C   0  0  0  0  0  0  0  0  0  0  0  0
   -1.1480  -19.4240  -39.8330 C   0  0  0  0  0  0  0  0  0  0  0  0
   -1.3010  -20.2450  -40.8010 O   0  0  0  0  0  0  0  0  0  0  0  0
   -1.2910  -18.0590  -40.0270 O   0  0  0  0  0  0  0  0  0  0  0  0
    3.9520  -20.1700  -42.4830 B   0  0  0  0  0  0  0  0  0  0  0  0
    6.3500  -19.7070  -40.7060 O   0  0  0  0  0  0  0  0  0  0  0  0
    1.7780  -20.0320  -40.4100 H   0  0  0  0  0  0  0  0  0  0  0  0
    4.0340  -19.3140  -36.8580 H   0  0  0  0  0  0  0  0  0  0  0  0
    1.7900  -20.0930  -36.7680 H   0  0  0  0  0  0  0  0  0  0  0  0
    0.8150  -20.7330  -39.3700 H   0  0  0  0  0  0  0  0  0  0  0  0
    0.4740  -21.3760  -37.8950 H   0  0  0  0  0  0  0  0  0  0  0  0
   -1.5620  -20.7740  -38.3060 H   0  0  0  0  0  0  0  0  0  0  0  0
   -1.3650  -19.2660  -36.4690 H   0  0  0  0  0  0  0  0  0  0  0  0
   -2.0970  -18.3670  -37.8250 H   0  0  0  0  0  0  0  0  0  0  0  0
    2.9980  -17.0600  -37.4280 H   0  0  0  0  0  0  0  0  0  0  0  0
    2.4160  -14.3900  -36.9610 H   0  0  0  0  0  0  0  0  0  0  0  0
    0.5610  -12.7720  -36.5920 H   0  0  0  0  0  0  0  0  0  0  0  0
   -1.7320  -13.5260  -36.5860 H   0  0  0  0  0  0  0  0  0  0  0  0
   -2.2280  -15.9500  -36.9520 H   0  0  0  0  0  0  0  0  0  0  0  0
    7.0920  -19.0870  -40.4120 H   0  0  0  0  0  0  0  0  0  0  0  0
  2  7  1  0  0  0  0
  2  1  1  0  0  0  0
  3  2  2  0  0  0  0
  4  3  1  0  0  0  0
  4  5  2  0  0  0  0
  5  6  1  0  0  0  0
  6  7  2  0  0  0  0
  6  8  1  0  0  0  0
  7 27  1  0  0  0  0
  8 16  1  0  0  0  0
  8 28  1  1  0  0  0
  9 30  1  0  0  0  0
  9  8  1  0  0  0  0
 10  9  1  0  0  0  0
 10 31  1  1  0  0  0
 10 11  1  0  0  0  0
 11 12  1  0  0  0  0
 11 32  1  0  0  0  0
 12 13  1  0  0  0  0
 13 20  1  0  0  0  0
 14 13  2  0  0  0  0
 14 17  1  0  0  0  0
 15 14  1  0  0  0  0
 16 15  1  0  0  0  0
 16 12  2  0  0  0  0
 17 18  2  0  0  0  0
 18 19  1  0  0  0  0
 18 36  1  0  0  0  0
 19 37  1  0  0  0  0
 20 38  1  0  0  0  0
 20 19  2  0  0  0  0
 21 10  1  0  0  0  0
 22 21  2  0  0  0  0
 23 21  1  0  0  0  0
 24  4  1  0  0  0  0
 25 39  1  0  0  0  0
 25  3  1  0  0  0  0
 26  5  1  0  0  0  0
 29  9  1  0  0  0  0
 33 11  1  0  0  0  0
 34 15  1  0  0  0  0
 35 17  1  0  0  0  0
M  END
>  <Pose>
1

>  <Score>
-4.40

$$$$
