
 OpenBabel03232221553D

 47 50  0  0  1  0  0  0  0  0999 V2000
   -2.1650  -18.0810  -36.1100 B   0  0  0  0  0  0  0  0  0  0  0  0
   -1.2760  -19.1600  -37.4270 C   0  0  0  0  0  0  0  0  0  0  0  0
   -0.0380  -18.8510  -37.8680 C   0  0  0  0  0  0  0  0  0  0  0  0
    0.5850  -19.6230  -38.8920 C   0  0  0  0  0  0  0  0  0  0  0  0
   -0.1100  -20.6630  -39.4050 C   0  0  0  0  0  0  0  0  0  0  0  0
   -1.3800  -20.9560  -38.9480 C   0  0  0  0  0  0  0  0  0  0  0  0
   -1.9710  -20.2210  -37.9660 C   0  0  0  0  0  0  0  0  0  0  0  0
    1.7220  -18.9300  -39.5280 C   0  0  0  0  0  0  0  0  0  0  0  0
    3.0380  -19.4070  -39.4020 N   0  0  2  0  0  4  0  0  0  0  0  0
    3.6270  -19.6250  -38.1780 C   0  0  0  0  0  0  0  0  0  0  0  0
    4.9430  -20.2480  -38.3010 N   0  0  2  0  0  0  0  0  0  0  0  0
    5.7690  -19.3660  -39.1080 C   0  0  0  0  0  0  0  0  0  0  0  0
    5.1690  -19.0810  -40.3950 N   0  0  2  0  0  0  0  0  0  0  0  0
    3.8700  -18.5420  -40.3070 C   0  0  0  0  0  0  0  0  0  0  0  0
    5.1480  -20.3100  -41.1610 C   0  0  0  0  0  0  0  0  0  0  0  0
    4.3310  -21.2930  -40.3610 C   0  0  2  0  0  0  0  0  0  0  0  0
    2.9840  -20.7050  -40.1620 C   0  0  0  0  0  0  0  0  0  0  0  0
    4.9120  -21.5260  -38.9690 C   0  0  0  0  0  0  0  0  0  0  0  0
    0.6470  -17.8060  -37.3580 O   0  0  0  0  0  0  0  0  0  0  0  0
    0.3650  -16.4290  -37.6790 C   0  0  0  0  0  0  0  0  0  0  0  0
    0.1510  -15.5120  -36.5630 C   0  0  0  0  0  0  0  0  0  0  0  0
   -0.9290  -15.2810  -36.0370 O   0  0  0  0  0  0  0  0  0  0  0  0
    1.2770  -14.8730  -36.0330 O   0  0  0  0  0  0  0  0  0  0  0  0
    1.4870  -13.4890  -36.1250 C   0  0  0  0  0  0  0  0  0  0  0  0
    0.3110  -21.2490  -40.2200 H   0  0  0  0  0  0  0  0  0  0  0  0
   -1.9190  -21.8110  -39.4140 H   0  0  0  0  0  0  0  0  0  0  0  0
   -2.9440  -20.4780  -37.5780 H   0  0  0  0  0  0  0  0  0  0  0  0
    1.5860  -17.8600  -39.7110 H   0  0  0  0  0  0  0  0  0  0  0  0
    1.5560  -19.2650  -40.7330 H   0  0  0  0  0  0  0  0  0  0  0  0
    2.9740  -20.1700  -37.4900 H   0  0  0  0  0  0  0  0  0  0  0  0
    3.8280  -18.6290  -37.7030 H   0  0  0  0  0  0  0  0  0  0  0  0
    6.7100  -19.9170  -39.3340 H   0  0  0  0  0  0  0  0  0  0  0  0
    6.0470  -18.4550  -38.5590 H   0  0  0  0  0  0  0  0  0  0  0  0
    3.8920  -17.5090  -39.9420 H   0  0  0  0  0  0  0  0  0  0  0  0
    3.3640  -18.6250  -41.3070 H   0  0  0  0  0  0  0  0  0  0  0  0
    4.5540  -20.1070  -42.0940 H   0  0  0  0  0  0  0  0  0  0  0  0
    6.1380  -20.7100  -41.3630 H   0  0  0  0  0  0  0  0  0  0  0  0
    4.1840  -22.2600  -40.8930 H   0  0  0  0  0  0  0  0  0  0  0  0
    2.4350  -20.4720  -41.1020 H   0  0  0  0  0  0  0  0  0  0  0  0
    2.3260  -21.3460  -39.5080 H   0  0  0  0  0  0  0  0  0  0  0  0
    5.9340  -21.8800  -39.1080 H   0  0  0  0  0  0  0  0  0  0  0  0
    4.2340  -22.2320  -38.4710 H   0  0  0  0  0  0  0  0  0  0  0  0
   -0.4610  -16.4180  -38.4580 H   0  0  0  0  0  0  0  0  0  0  0  0
    1.2680  -16.0280  -38.2460 H   0  0  0  0  0  0  0  0  0  0  0  0
    2.2500  -13.1570  -35.3900 H   0  0  0  0  0  0  0  0  0  0  0  0
    0.5160  -12.9660  -35.9760 H   0  0  0  0  0  0  0  0  0  0  0  0
    1.8620  -13.3110  -37.1720 H   0  0  0  0  0  0  0  0  0  0  0  0
  2  1  1  0  0  0  0
  3  2  1  0  0  0  0
  3 19  1  0  0  0  0
  4  3  2  0  0  0  0
  5  6  2  0  0  0  0
  5  4  1  0  0  0  0
  6  7  1  0  0  0  0
  7 27  1  0  0  0  0
  7  2  2  0  0  0  0
  8  4  1  0  0  0  0
  9  8  1  1  0  0  0
  9 10  1  0  0  0  0
 10 31  1  0  0  0  0
 10 30  1  0  0  0  0
 11 12  1  6  0  0  0
 11 10  1  0  0  0  0
 12 33  1  0  0  0  0
 13 15  1  6  0  0  0
 13 14  1  0  0  0  0
 13 12  1  0  0  0  0
 14 34  1  0  0  0  0
 14  9  1  0  0  0  0
 15 16  1  0  0  0  0
 16 38  1  6  0  0  0
 16 17  1  0  0  0  0
 16 18  1  0  0  0  0
 17 40  1  0  0  0  0
 17  9  1  0  0  0  0
 18 42  1  0  0  0  0
 18 11  1  0  0  0  0
 20 19  1  0  0  0  0
 20 21  1  0  0  0  0
 21 22  2  0  0  0  0
 21 23  1  0  0  0  0
 24 23  1  0  0  0  0
 24 46  1  0  0  0  0
 24 45  1  0  0  0  0
 25  5  1  0  0  0  0
 26  6  1  0  0  0  0
 28  8  1  0  0  0  0
 29  8  1  0  0  0  0
 32 12  1  0  0  0  0
 35 14  1  0  0  0  0
 36 15  1  0  0  0  0
 37 15  1  0  0  0  0
 39 17  1  0  0  0  0
 41 18  1  0  0  0  0
 43 20  1  0  0  0  0
 44 20  1  0  0  0  0
 47 24  1  0  0  0  0
M  END
>  <Pose>
1

>  <Score>
-3.85

$$$$
