
 OpenBabel03232221553D

 52 55  0  0  0  0  0  0  0  0999 V2000
   -2.0820  -10.5480  -35.0640 B   0  0  0  0  0  0  0  0  0  0  0  0
   -0.6540  -11.3840  -36.0000 C   0  0  0  0  0  0  0  0  0  0  0  0
   -0.2160  -10.8020  -37.1790 C   0  0  0  0  0  0  0  0  0  0  0  0
    0.8200  -11.4310  -37.8440 C   0  0  0  0  0  0  0  0  0  0  0  0
    1.3840  -12.5800  -37.3540 C   0  0  0  0  0  0  0  0  0  0  0  0
    0.9610  -13.1820  -36.1700 C   0  0  0  0  0  0  0  0  0  0  0  0
   -0.0720  -12.5420  -35.5210 C   0  0  0  0  0  0  0  0  0  0  0  0
    1.6150  -14.3840  -35.6960 C   0  0  0  0  0  0  0  0  0  0  0  0
    1.2860  -15.5560  -36.1200 N   0  0  0  0  0  0  0  0  0  0  0  0
    1.8790  -16.7320  -35.6940 N   0  0  0  0  0  0  0  0  0  0  0  0
    1.9540  -17.8580  -36.5600 C   0  0  0  0  0  0  0  0  0  0  0  0
    0.8550  -18.3590  -37.1010 N   0  0  0  0  0  4  0  0  0  0  0  0
    0.8350  -19.4000  -37.9510 C   0  0  0  0  0  0  0  0  0  0  0  0
    2.0290  -19.9540  -38.2580 N   0  0  0  0  0  0  0  0  0  0  0  0
    3.1920  -19.4850  -37.7340 C   0  0  0  0  0  0  0  0  0  0  0  0
    3.1330  -18.4310  -36.8820 N   0  0  0  0  0  0  0  0  0  0  0  0
    4.4320  -20.0620  -38.0750 N   0  0  0  0  0  0  0  0  0  0  0  0
    4.5230  -21.4220  -38.5400 C   0  0  0  0  0  0  0  0  0  0  0  0
    5.3010  -21.3460  -39.8630 C   0  0  0  0  0  0  0  0  0  0  0  0
    6.4810  -20.6640  -39.6500 O   0  0  0  0  0  0  0  0  0  0  0  0
    6.2290  -19.3130  -39.4110 C   0  0  0  0  0  0  0  0  0  0  0  0
    5.6410  -19.2830  -37.9840 C   0  0  0  0  0  0  0  0  0  0  0  0
   -0.3850  -19.9070  -38.5170 N   0  0  0  0  0  0  0  0  0  0  0  0
   -0.7770  -19.5840  -39.8590 C   0  0  0  0  0  0  0  0  0  0  0  0
   -1.9070  -20.3520  -40.4250 C   0  0  0  0  0  0  0  0  0  0  0  0
   -2.6760  -21.0250  -39.4860 O   0  0  0  0  0  0  0  0  0  0  0  0
   -1.8980  -21.7530  -38.5970 C   0  0  0  0  0  0  0  0  0  0  0  0
   -1.2080  -20.7520  -37.7030 C   0  0  0  0  0  0  0  0  0  0  0  0
    2.4310  -13.2120  -38.0340 O   0  0  0  0  0  0  0  0  0  0  0  0
   -0.7820   -9.6350  -37.6860 O   0  0  0  0  0  0  0  0  0  0  0  0
    1.1520  -10.9580  -38.7740 H   0  0  0  0  0  0  0  0  0  0  0  0
   -0.4180  -13.0060  -34.5850 H   0  0  0  0  0  0  0  0  0  0  0  0
    2.4040  -14.3090  -34.9660 H   0  0  0  0  0  0  0  0  0  0  0  0
    2.2690  -16.7990  -34.7470 H   0  0  0  0  0  0  0  0  0  0  0  0
    5.0990  -22.0310  -37.8140 H   0  0  0  0  0  0  0  0  0  0  0  0
    3.5110  -21.8600  -38.7320 H   0  0  0  0  0  0  0  0  0  0  0  0
    5.4590  -22.3790  -40.2190 H   0  0  0  0  0  0  0  0  0  0  0  0
    4.6360  -20.7960  -40.5740 H   0  0  0  0  0  0  0  0  0  0  0  0
    5.3760  -19.0040  -40.0850 H   0  0  0  0  0  0  0  0  0  0  0  0
    7.1110  -18.6870  -39.5180 H   0  0  0  0  0  0  0  0  0  0  0  0
    6.3700  -19.8810  -37.3630 H   0  0  0  0  0  0  0  0  0  0  0  0
    5.5020  -18.2620  -37.6150 H   0  0  0  0  0  0  0  0  0  0  0  0
   -0.9870  -18.4780  -39.8750 H   0  0  0  0  0  0  0  0  0  0  0  0
    0.1330  -19.7610  -40.5120 H   0  0  0  0  0  0  0  0  0  0  0  0
   -1.5480  -21.0690  -41.2080 H   0  0  0  0  0  0  0  0  0  0  0  0
   -2.5920  -19.6410  -40.9540 H   0  0  0  0  0  0  0  0  0  0  0  0
   -2.5550  -22.4410  -38.0590 H   0  0  0  0  0  0  0  0  0  0  0  0
   -1.0720  -22.3150  -39.1100 H   0  0  0  0  0  0  0  0  0  0  0  0
   -0.5960  -21.3690  -36.9930 H   0  0  0  0  0  0  0  0  0  0  0  0
   -1.9270  -20.1710  -37.0880 H   0  0  0  0  0  0  0  0  0  0  0  0
    3.3250  -13.3020  -37.5610 H   0  0  0  0  0  0  0  0  0  0  0  0
   -0.2470   -8.8820  -38.0910 H   0  0  0  0  0  0  0  0  0  0  0  0
  2  7  1  0  0  0  0
  2  1  1  0  0  0  0
  3  2  2  0  0  0  0
  4  5  2  0  0  0  0
  4  3  1  0  0  0  0
  5  6  1  0  0  0  0
  6  8  1  0  0  0  0
  6  7  2  0  0  0  0
  7 32  1  0  0  0  0
  8 33  1  0  0  0  0
  9  8  2  0  0  0  0
  9 10  1  0  0  0  0
 10 34  1  0  0  0  0
 11 10  1  0  0  0  0
 12 11  2  0  0  0  0
 13 12  2  0  0  0  0
 14 13  1  0  0  0  0
 14 15  2  0  0  0  0
 15 16  1  0  0  0  0
 16 11  1  0  0  0  0
 17 22  1  0  0  0  0
 17 15  1  0  0  0  0
 18 17  1  0  0  0  0
 18 35  1  0  0  0  0
 19 20  1  0  0  0  0
 19 18  1  0  0  0  0
 20 21  1  0  0  0  0
 21 22  1  0  0  0  0
 22 42  1  0  0  0  0
 22 41  1  0  0  0  0
 23 13  1  0  0  0  0
 23 28  1  0  0  0  0
 24 23  1  0  0  0  0
 25 24  1  0  0  0  0
 25 26  1  0  0  0  0
 26 27  1  0  0  0  0
 27 47  1  0  0  0  0
 27 28  1  0  0  0  0
 28 50  1  0  0  0  0
 28 49  1  0  0  0  0
 29 51  1  0  0  0  0
 29  5  1  0  0  0  0
 30  3  1  0  0  0  0
 31  4  1  0  0  0  0
 36 18  1  0  0  0  0
 37 19  1  0  0  0  0
 38 19  1  0  0  0  0
 39 21  1  0  0  0  0
 40 21  1  0  0  0  0
 43 24  1  0  0  0  0
 44 24  1  0  0  0  0
 45 25  1  0  0  0  0
 46 25  1  0  0  0  0
 48 27  1  0  0  0  0
 52 30  1  0  0  0  0
M  END
>  <Pose>
1

>  <Score>
-5.74

$$$$
