
 OpenBabel03232221553D

 46 49  0  0  1  0  0  0  0  0999 V2000
    5.6760  -26.5910  -45.0500 B   0  0  0  0  0  0  0  0  0  0  0  0
    5.6020  -25.0030  -43.9980 C   0  0  0  0  0  0  0  0  0  0  0  0
    6.7080  -24.1620  -43.9860 C   0  0  0  0  0  0  0  0  0  0  0  0
    6.6300  -23.0280  -43.2250 C   0  0  0  0  0  0  0  0  0  0  0  0
    5.5380  -22.6580  -42.4710 C   0  0  0  0  0  0  0  0  0  0  0  0
    4.4470  -23.5300  -42.5100 C   0  0  0  0  0  0  0  0  0  0  0  0
    4.4770  -24.6880  -43.2630 C   0  0  0  0  0  0  0  0  0  0  0  0
    5.4750  -21.4760  -41.6840 N   0  0  0  0  0  0  0  0  0  0  0  0
    5.1370  -21.4580  -40.2800 C   0  0  0  0  0  0  0  0  0  0  0  0
    5.9450  -20.2800  -39.7820 C   0  0  1  0  0  0  0  0  0  0  0  0
    5.6570  -19.2490  -40.8590 C   0  0  0  0  0  0  0  0  0  0  0  0
    5.7050  -20.1290  -42.0570 C   0  0  0  0  0  0  0  0  0  0  0  0
    5.9180  -19.7250  -43.2200 O   0  0  0  0  0  0  0  0  0  0  0  0
    5.5000  -19.8230  -38.4490 C   0  0  0  0  0  0  0  0  0  0  0  0
    6.2940  -19.2690  -37.6520 O   0  0  0  0  0  0  0  0  0  0  0  0
    4.1540  -20.0160  -38.0740 N   0  0  0  0  0  0  0  0  0  0  0  0
    3.6800  -19.6000  -36.7770 C   0  0  0  0  0  0  0  0  0  0  0  0
    2.5230  -18.6700  -36.8990 C   0  0  0  0  0  0  0  0  0  0  0  0
    1.3860  -18.8470  -37.6180 N   0  0  0  0  0  0  0  0  0  0  0  0
    0.5880  -17.7770  -37.4630 C   0  0  0  0  0  0  0  0  0  0  0  0
    1.2650  -16.9430  -36.6330 N   0  0  0  0  0  0  0  0  0  0  0  0
    2.4220  -17.4750  -36.2950 N   0  0  0  0  0  0  0  0  0  0  0  0
   -0.6810  -17.9390  -38.2460 C   0  0  0  0  0  0  0  0  0  0  0  0
   -0.3380  -19.0830  -39.1740 C   0  0  0  0  0  0  0  0  0  0  0  0
    0.7860  -19.8370  -38.4950 C   0  0  0  0  0  0  0  0  0  0  0  0
    7.9060  -24.5320  -44.7890 C   0  0  0  0  0  0  0  0  0  0  0  0
    7.5110  -22.3750  -43.2270 H   0  0  0  0  0  0  0  0  0  0  0  0
    3.5400  -23.3410  -41.9590 H   0  0  0  0  0  0  0  0  0  0  0  0
    3.6430  -25.3710  -43.3050 H   0  0  0  0  0  0  0  0  0  0  0  0
    4.0390  -21.2740  -40.2100 H   0  0  0  0  0  0  0  0  0  0  0  0
    5.4170  -22.3970  -39.7610 H   0  0  0  0  0  0  0  0  0  0  0  0
    7.0070  -20.5750  -39.8220 H   0  0  0  0  0  0  0  0  0  0  0  0
    6.5050  -18.5350  -40.8400 H   0  0  0  0  0  0  0  0  0  0  0  0
    4.6860  -18.7730  -40.7180 H   0  0  0  0  0  0  0  0  0  0  0  0
    3.4880  -20.4620  -38.7300 H   0  0  0  0  0  0  0  0  0  0  0  0
    3.3870  -20.4530  -36.1380 H   0  0  0  0  0  0  0  0  0  0  0  0
    4.4980  -19.0700  -36.2160 H   0  0  0  0  0  0  0  0  0  0  0  0
   -1.5040  -18.1790  -37.5580 H   0  0  0  0  0  0  0  0  0  0  0  0
   -0.8740  -17.0590  -38.8930 H   0  0  0  0  0  0  0  0  0  0  0  0
   -0.0490  -18.7300  -40.1880 H   0  0  0  0  0  0  0  0  0  0  0  0
   -1.2480  -19.6940  -39.3010 H   0  0  0  0  0  0  0  0  0  0  0  0
    1.5250  -20.2340  -39.2090 H   0  0  0  0  0  0  0  0  0  0  0  0
    0.3400  -20.6890  -37.9440 H   0  0  0  0  0  0  0  0  0  0  0  0
    8.7240  -23.8150  -44.5900 H   0  0  0  0  0  0  0  0  0  0  0  0
    8.2050  -25.5830  -44.6120 H   0  0  0  0  0  0  0  0  0  0  0  0
    7.6150  -24.3630  -45.8590 H   0  0  0  0  0  0  0  0  0  0  0  0
  1  2  1  0  0  0  0
  2  3  2  0  0  0  0
  2  7  1  0  0  0  0
  3  4  1  0  0  0  0
  4  5  2  0  0  0  0
  5  8  1  0  0  0  0
  6  5  1  0  0  0  0
  6 28  1  0  0  0  0
  7  6  2  0  0  0  0
  8  9  1  0  0  0  0
  9 30  1  0  0  0  0
  9 10  1  0  0  0  0
  9 31  1  0  0  0  0
 10 32  1  1  0  0  0
 10 14  1  0  0  0  0
 11 33  1  0  0  0  0
 11 34  1  0  0  0  0
 11 10  1  0  0  0  0
 12  8  1  0  0  0  0
 12 11  1  0  0  0  0
 13 12  2  0  0  0  0
 14 16  1  0  0  0  0
 14 15  2  0  0  0  0
 16 17  1  0  0  0  0
 17 37  1  0  0  0  0
 17 36  1  0  0  0  0
 18 17  1  0  0  0  0
 18 22  2  0  0  0  0
 19 20  1  0  0  0  0
 19 18  1  0  0  0  0
 20 21  2  0  0  0  0
 21 22  1  0  0  0  0
 23 38  1  0  0  0  0
 23 20  1  0  0  0  0
 24 25  1  0  0  0  0
 24 23  1  0  0  0  0
 25 43  1  0  0  0  0
 25 19  1  0  0  0  0
 26 45  1  0  0  0  0
 26 44  1  0  0  0  0
 26  3  1  0  0  0  0
 27  4  1  0  0  0  0
 29  7  1  0  0  0  0
 35 16  1  0  0  0  0
 39 23  1  0  0  0  0
 40 24  1  0  0  0  0
 41 24  1  0  0  0  0
 42 25  1  0  0  0  0
 46 26  1  0  0  0  0
M  END
>  <Pose>
1

>  <Score>
-4.12

$$$$
