
 OpenBabel03232221553D

 41 43  0  0  1  0  0  0  0  0999 V2000
    6.6890  -19.8210  -38.1450 B   0  0  0  0  0  0  0  0  0  0  0  0
    4.9910  -19.5110  -38.9920 C   0  0  0  0  0  0  0  0  0  0  0  0
    5.0270  -19.2780  -40.3750 C   0  0  0  0  0  0  0  0  0  0  0  0
    3.7970  -19.0590  -40.9570 C   0  0  0  0  0  0  0  0  0  0  0  0
    2.6160  -19.0730  -40.2090 C   0  0  0  0  0  0  0  0  0  0  0  0
    2.6070  -19.3040  -38.8560 C   0  0  0  0  0  0  0  0  0  0  0  0
    3.8270  -19.5240  -38.2640 C   0  0  0  0  0  0  0  0  0  0  0  0
    1.3330  -19.3160  -38.0730 C   0  0  0  0  0  0  0  0  0  0  0  0
    6.2590  -19.2770  -41.0700 N   0  0  0  0  0  0  0  0  0  0  0  0
    6.4830  -19.3990  -42.4420 C   0  0  0  0  0  0  0  0  0  0  0  0
    7.5380  -19.0110  -42.9620 O   0  0  0  0  0  0  0  0  0  0  0  0
    5.4350  -20.0050  -43.2860 C   0  0  0  0  0  0  0  0  0  0  0  0
    5.4440  -21.4300  -43.3660 N   0  0  1  0  0  4  0  0  0  0  0  0
    5.2380  -21.9510  -42.0060 C   0  0  0  0  0  0  0  0  0  0  0  0
    4.6660  -23.3400  -42.1440 C   0  0  0  0  0  0  0  0  0  0  0  0
    5.3650  -23.9520  -43.2740 N   0  0  1  0  0  0  0  0  0  0  0  0
    4.6980  -23.4420  -44.4680 C   0  0  0  0  0  0  0  0  0  0  0  0
    4.4080  -21.9640  -44.2460 C   0  0  0  0  0  0  0  0  0  0  0  0
    6.7320  -23.4560  -43.3140 C   0  0  0  0  0  0  0  0  0  0  0  0
    6.7020  -21.9990  -43.8030 C   0  0  0  0  0  0  0  0  0  0  0  0
    3.7360  -18.8700  -42.0230 H   0  0  0  0  0  0  0  0  0  0  0  0
    1.6500  -18.8980  -40.6850 H   0  0  0  0  0  0  0  0  0  0  0  0
    3.8560  -19.7100  -37.1940 H   0  0  0  0  0  0  0  0  0  0  0  0
    1.5230  -19.1170  -36.9970 H   0  0  0  0  0  0  0  0  0  0  0  0
    0.8080  -20.2700  -38.1570 H   0  0  0  0  0  0  0  0  0  0  0  0
    0.7410  -18.4510  -38.4410 H   0  0  0  0  0  0  0  0  0  0  0  0
    7.1270  -19.1690  -40.4650 H   0  0  0  0  0  0  0  0  0  0  0  0
    5.5260  -19.6360  -44.3530 H   0  0  0  0  0  0  0  0  0  0  0  0
    4.4080  -19.7160  -42.9490 H   0  0  0  0  0  0  0  0  0  0  0  0
    6.2270  -21.9300  -41.5140 H   0  0  0  0  0  0  0  0  0  0  0  0
    4.5640  -21.2710  -41.4470 H   0  0  0  0  0  0  0  0  0  0  0  0
    3.5850  -23.2430  -42.3420 H   0  0  0  0  0  0  0  0  0  0  0  0
    4.8580  -23.9510  -41.2170 H   0  0  0  0  0  0  0  0  0  0  0  0
    3.7160  -23.9470  -44.5750 H   0  0  0  0  0  0  0  0  0  0  0  0
    5.3260  -23.5820  -45.3810 H   0  0  0  0  0  0  0  0  0  0  0  0
    4.5070  -21.4800  -45.2190 H   0  0  0  0  0  0  0  0  0  0  0  0
    3.4390  -21.7870  -43.7550 H   0  0  0  0  0  0  0  0  0  0  0  0
    7.1510  -23.5510  -42.3030 H   0  0  0  0  0  0  0  0  0  0  0  0
    7.3200  -24.0840  -44.0170 H   0  0  0  0  0  0  0  0  0  0  0  0
    6.7370  -22.0570  -44.9150 H   0  0  0  0  0  0  0  0  0  0  0  0
    7.5780  -21.5150  -43.3600 H   0  0  0  0  0  0  0  0  0  0  0  0
  2  7  1  0  0  0  0
  2  1  1  0  0  0  0
  3  2  2  0  0  0  0
  4  3  1  0  0  0  0
  4  5  2  0  0  0  0
  5  6  1  0  0  0  0
  6  7  2  0  0  0  0
  6  8  1  0  0  0  0
  7 23  1  0  0  0  0
  8 24  1  0  0  0  0
  9 27  1  0  0  0  0
  9  3  1  0  0  0  0
 10  9  1  0  0  0  0
 11 10  2  0  0  0  0
 12 29  1  0  0  0  0
 12 10  1  0  0  0  0
 13 12  1  6  0  0  0
 13 14  1  0  0  0  0
 14 30  1  0  0  0  0
 14 31  1  0  0  0  0
 15 14  1  0  0  0  0
 15 33  1  0  0  0  0
 16 17  1  6  0  0  0
 16 15  1  0  0  0  0
 17 18  1  0  0  0  0
 18 37  1  0  0  0  0
 18 13  1  0  0  0  0
 19 16  1  0  0  0  0
 19 38  1  0  0  0  0
 20 13  1  0  0  0  0
 20 41  1  0  0  0  0
 20 19  1  0  0  0  0
 21  4  1  0  0  0  0
 22  5  1  0  0  0  0
 25  8  1  0  0  0  0
 26  8  1  0  0  0  0
 28 12  1  0  0  0  0
 32 15  1  0  0  0  0
 34 17  1  0  0  0  0
 35 17  1  0  0  0  0
 36 18  1  0  0  0  0
 39 19  1  0  0  0  0
 40 20  1  0  0  0  0
M  END
>  <Pose>
1

>  <Score>
-3.61

$$$$
