
 OpenBabel03232221553D

 33 36  0  0  1  0  0  0  0  0999 V2000
    6.5620  -22.9400  -43.8540 B   0  0  0  0  0  0  0  0  0  0  0  0
    4.8100  -23.5820  -43.3700 C   0  0  0  0  0  0  0  0  0  0  0  0
    4.1190  -22.8580  -42.4260 C   0  0  0  0  0  0  0  0  0  0  0  0
    2.8570  -23.3420  -42.0970 C   0  0  0  0  0  0  0  0  0  0  0  0
    2.3270  -24.4780  -42.6780 C   0  0  0  0  0  0  0  0  0  0  0  0
    3.0540  -25.1850  -43.6290 C   0  0  0  0  0  0  0  0  0  0  0  0
    4.2980  -24.7170  -43.9590 C   0  0  0  0  0  0  0  0  0  0  0  0
    4.6240  -21.6840  -41.8050 N   0  0  0  0  0  0  0  0  0  0  0  0
    5.8090  -21.5110  -41.0460 C   0  0  0  0  0  0  0  0  0  0  0  0
    6.6800  -22.3870  -40.8950 O   0  0  0  0  0  0  0  0  0  0  0  0
    5.8730  -20.1530  -40.4590 C   0  0  2  0  0  0  0  0  0  0  0  0
    5.8230  -20.1520  -38.9710 C   0  0  1  0  0  0  0  0  0  0  0  0
    4.7760  -19.2550  -38.6320 O   0  0  0  0  0  0  0  0  0  0  0  0
    3.7870  -19.8520  -39.4560 C   0  0  1  0  0  0  0  0  0  0  0  0
    4.4820  -19.5890  -40.7970 C   0  0  2  0  0  0  0  0  0  0  0  0
    3.9320  -20.4330  -41.8690 C   0  0  0  0  0  0  0  0  0  0  0  0
    3.0380  -20.1500  -42.6950 O   0  0  0  0  0  0  0  0  0  0  0  0
    3.9060  -21.2660  -39.0420 C   0  0  0  0  0  0  0  0  0  0  0  0
    5.1390  -21.4160  -38.5580 C   0  0  0  0  0  0  0  0  0  0  0  0
    7.0720  -19.8760  -38.2460 C   0  0  0  0  0  0  0  0  0  0  0  0
    7.0530  -18.5290  -37.8390 O   0  0  0  0  0  0  0  0  0  0  0  0
    2.2930  -22.7870  -41.3550 H   0  0  0  0  0  0  0  0  0  0  0  0
    1.3300  -24.8460  -42.4050 H   0  0  0  0  0  0  0  0  0  0  0  0
    2.6090  -26.0720  -44.0660 H   0  0  0  0  0  0  0  0  0  0  0  0
    4.8820  -25.2440  -44.6920 H   0  0  0  0  0  0  0  0  0  0  0  0
    6.6680  -19.5320  -40.8880 H   0  0  0  0  0  0  0  0  0  0  0  0
    2.8150  -19.4120  -39.3640 H   0  0  0  0  0  0  0  0  0  0  0  0
    4.5000  -18.5190  -40.9930 H   0  0  0  0  0  0  0  0  0  0  0  0
    3.1880  -22.0930  -39.0820 H   0  0  0  0  0  0  0  0  0  0  0  0
    5.5620  -22.2400  -38.0030 H   0  0  0  0  0  0  0  0  0  0  0  0
    7.9710  -19.9550  -38.9130 H   0  0  0  0  0  0  0  0  0  0  0  0
    7.2370  -20.5510  -37.3980 H   0  0  0  0  0  0  0  0  0  0  0  0
    7.9580  -18.1260  -37.9910 H   0  0  0  0  0  0  0  0  0  0  0  0
  1  2  1  0  0  0  0
  2  3  1  0  0  0  0
  3  4  2  0  0  0  0
  3  8  1  0  0  0  0
  4 22  1  0  0  0  0
  5 23  1  0  0  0  0
  5  4  1  0  0  0  0
  6  5  2  0  0  0  0
  7  6  1  0  0  0  0
  7  2  2  0  0  0  0
  8  9  1  0  0  0  0
  9 10  2  0  0  0  0
  9 11  1  0  0  0  0
 11 26  1  6  0  0  0
 11 12  1  0  0  0  0
 12 13  1  0  0  0  0
 12 19  1  0  0  0  0
 12 20  1  1  0  0  0
 14 27  1  1  0  0  0
 14 18  1  0  0  0  0
 14 13  1  0  0  0  0
 15 28  1  6  0  0  0
 15 11  1  0  0  0  0
 15 14  1  0  0  0  0
 16  8  1  0  0  0  0
 16 15  1  0  0  0  0
 17 16  2  0  0  0  0
 18 19  2  0  0  0  0
 19 30  1  0  0  0  0
 20 21  1  0  0  0  0
 20 32  1  0  0  0  0
 24  6  1  0  0  0  0
 25  7  1  0  0  0  0
 29 18  1  0  0  0  0
 31 20  1  0  0  0  0
 33 21  1  0  0  0  0
M  END
>  <Pose>
1

>  <Score>
-3.62

$$$$
