
 OpenBabel03232221553D

 36 39  0  0  1  0  0  0  0  0999 V2000
    5.7750  -21.4070  -38.9610 B   0  0  0  0  0  0  0  0  0  0  0  0
    4.1290  -20.4970  -39.0850 C   0  0  0  0  0  0  0  0  0  0  0  0
    3.3180  -20.6060  -40.2010 C   0  0  0  0  0  0  0  0  0  0  0  0
    2.1360  -19.8790  -40.1550 C   0  0  0  0  0  0  0  0  0  0  0  0
    1.7680  -19.0970  -39.0890 C   0  0  0  0  0  0  0  0  0  0  0  0
    2.5790  -19.0020  -38.0020 C   0  0  0  0  0  0  0  0  0  0  0  0
    3.7560  -19.7010  -38.0000 C   0  0  0  0  0  0  0  0  0  0  0  0
    3.6660  -21.4060  -41.3210 N   0  0  0  0  0  0  0  0  0  0  0  0
    3.9100  -22.8600  -41.3370 C   0  0  0  0  0  0  0  0  0  0  0  0
    4.8170  -22.9930  -42.4710 C   0  0  2  0  0  0  0  0  0  0  0  0
    6.1800  -22.7830  -42.1990 O   0  0  0  0  0  0  0  0  0  0  0  0
    6.6030  -22.8090  -43.5540 C   0  0  2  0  0  0  0  0  0  0  0  0
    5.8260  -21.5730  -44.0280 C   0  0  1  0  0  0  0  0  0  0  0  0
    4.4660  -21.8980  -43.4930 C   0  0  2  0  0  0  0  0  0  0  0  0
    3.8410  -20.9010  -42.6400 C   0  0  0  0  0  0  0  0  0  0  0  0
    3.4950  -19.7550  -42.9930 O   0  0  0  0  0  0  0  0  0  0  0  0
    6.4230  -20.4310  -43.2660 C   0  0  0  0  0  0  0  0  0  0  0  0
    6.9570  -19.4590  -43.8200 O   0  0  0  0  0  0  0  0  0  0  0  0
    6.3770  -20.4650  -41.8780 O   0  0  0  0  0  0  0  0  0  0  0  0
    6.0060  -19.2730  -41.1760 C   0  0  0  0  0  0  0  0  0  0  0  0
    5.9650  -24.0780  -44.0140 C   0  0  0  0  0  0  0  0  0  0  0  0
    4.8850  -24.2440  -43.2180 C   0  0  0  0  0  0  0  0  0  0  0  0
    1.4470  -19.9120  -40.9870 H   0  0  0  0  0  0  0  0  0  0  0  0
    0.8360  -18.5460  -39.0960 H   0  0  0  0  0  0  0  0  0  0  0  0
    2.3010  -18.3850  -37.1480 H   0  0  0  0  0  0  0  0  0  0  0  0
    4.3970  -19.6220  -37.1340 H   0  0  0  0  0  0  0  0  0  0  0  0
    4.4260  -23.0950  -40.3860 H   0  0  0  0  0  0  0  0  0  0  0  0
    2.9850  -23.4400  -41.4190 H   0  0  0  0  0  0  0  0  0  0  0  0
    7.6600  -22.7440  -43.6840 H   0  0  0  0  0  0  0  0  0  0  0  0
    5.8830  -21.4360  -45.1010 H   0  0  0  0  0  0  0  0  0  0  0  0
    3.7790  -22.3020  -44.2650 H   0  0  0  0  0  0  0  0  0  0  0  0
    5.8790  -19.4730  -40.1010 H   0  0  0  0  0  0  0  0  0  0  0  0
    5.0630  -18.8450  -41.5720 H   0  0  0  0  0  0  0  0  0  0  0  0
    6.8270  -18.5160  -41.2590 H   0  0  0  0  0  0  0  0  0  0  0  0
    6.3130  -24.7150  -44.8200 H   0  0  0  0  0  0  0  0  0  0  0  0
    4.2610  -25.1240  -43.1920 H   0  0  0  0  0  0  0  0  0  0  0  0
  2  1  1  0  0  0  0
  2  7  1  0  0  0  0
  3  4  1  0  0  0  0
  3  2  2  0  0  0  0
  4  5  2  0  0  0  0
  5  6  1  0  0  0  0
  6  7  2  0  0  0  0
  6 25  1  0  0  0  0
  7 26  1  0  0  0  0
  8  3  1  0  0  0  0
  9  8  1  0  0  0  0
  9 27  1  0  0  0  0
 10 22  1  6  0  0  0
 10 11  1  0  0  0  0
 10  9  1  0  0  0  0
 12 29  1  6  0  0  0
 12 11  1  0  0  0  0
 13 30  1  6  0  0  0
 13 12  1  0  0  0  0
 13 14  1  0  0  0  0
 13 17  1  0  0  0  0
 14 31  1  6  0  0  0
 14 15  1  0  0  0  0
 14 10  1  0  0  0  0
 15  8  1  0  0  0  0
 16 15  2  0  0  0  0
 17 19  1  0  0  0  0
 18 17  2  0  0  0  0
 19 20  1  0  0  0  0
 20 32  1  0  0  0  0
 21 12  1  0  0  0  0
 21 22  2  0  0  0  0
 22 36  1  0  0  0  0
 23  4  1  0  0  0  0
 24  5  1  0  0  0  0
 28  9  1  0  0  0  0
 33 20  1  0  0  0  0
 34 20  1  0  0  0  0
 35 21  1  0  0  0  0
M  END
>  <Pose>
1

>  <Score>
-3.03

$$$$
