
 OpenBabel03232221553D

 35 38  0  0  0  0  0  0  0  0999 V2000
    5.5960  -27.6120  -45.3050 B   0  0  0  0  0  0  0  0  0  0  0  0
    5.4970  -25.7530  -44.9330 C   0  0  0  0  0  0  0  0  0  0  0  0
    6.4630  -24.9830  -44.3390 C   0  0  0  0  0  0  0  0  0  0  0  0
    5.9710  -23.7380  -44.2750 N   0  0  0  0  0  0  0  0  0  0  0  0
    4.7610  -23.7180  -44.7990 N   0  0  0  0  0  0  0  0  0  0  0  0
    4.4210  -24.9560  -45.2240 C   0  0  0  0  0  0  0  0  0  0  0  0
    3.1220  -25.3520  -45.8790 C   0  0  0  0  0  0  0  0  0  0  0  0
    6.6720  -22.6060  -43.7150 C   0  0  0  0  0  0  0  0  0  0  0  0
    5.9570  -22.0570  -42.5120 C   0  0  0  0  0  0  0  0  0  0  0  0
    4.6640  -22.2300  -42.1830 N   0  0  0  0  0  0  0  0  0  0  0  0
    4.4060  -21.5860  -41.0430 N   0  0  0  0  0  0  0  0  0  0  0  0
    5.5340  -20.9840  -40.6170 C   0  0  0  0  0  0  0  0  0  0  0  0
    6.4700  -21.2880  -41.5350 N   0  0  0  0  0  0  0  0  0  0  0  0
    5.5070  -20.2520  -39.4460 C   0  0  0  0  0  0  0  0  0  0  0  0
    4.3610  -20.1120  -38.6900 C   0  0  0  0  0  0  0  0  0  0  0  0
    4.6110  -19.3520  -37.6050 N   0  0  0  0  0  0  0  0  0  0  0  0
    5.8840  -19.0080  -37.6550 N   0  0  0  0  0  0  0  0  0  0  0  0
    6.4730  -19.5380  -38.7670 C   0  0  0  0  0  0  0  0  0  0  0  0
    3.6890  -18.9590  -36.5520 C   0  0  0  0  0  0  0  0  0  0  0  0
    3.2570  -20.7290  -39.1490 N   0  0  0  0  0  0  0  0  0  0  0  0
    3.2910  -21.4480  -40.3030 C   0  0  0  0  0  0  0  0  0  0  0  0
    7.7950  -25.4810  -43.8680 C   0  0  0  0  0  0  0  0  0  0  0  0
    2.7250  -26.2090  -45.3180 H   0  0  0  0  0  0  0  0  0  0  0  0
    3.2690  -25.6510  -46.9220 H   0  0  0  0  0  0  0  0  0  0  0  0
    2.4010  -24.5180  -45.7590 H   0  0  0  0  0  0  0  0  0  0  0  0
    6.7800  -21.7990  -44.4920 H   0  0  0  0  0  0  0  0  0  0  0  0
    7.6940  -22.8790  -43.4050 H   0  0  0  0  0  0  0  0  0  0  0  0
    7.4920  -19.4300  -39.0730 H   0  0  0  0  0  0  0  0  0  0  0  0
    3.7480  -19.6390  -35.6700 H   0  0  0  0  0  0  0  0  0  0  0  0
    3.7990  -17.8960  -36.2700 H   0  0  0  0  0  0  0  0  0  0  0  0
    2.6310  -19.0560  -36.9300 H   0  0  0  0  0  0  0  0  0  0  0  0
    2.3930  -21.9490  -40.6760 H   0  0  0  0  0  0  0  0  0  0  0  0
    8.5220  -25.2430  -44.6510 H   0  0  0  0  0  0  0  0  0  0  0  0
    7.7550  -26.5780  -43.7160 H   0  0  0  0  0  0  0  0  0  0  0  0
    8.0590  -25.0490  -42.8700 H   0  0  0  0  0  0  0  0  0  0  0  0
  1  2  1  0  0  0  0
  2  3  2  0  0  0  0
  3  4  1  0  0  0  0
  3 22  1  0  0  0  0
  4  8  1  0  0  0  0
  5  4  1  0  0  0  0
  6  2  1  0  0  0  0
  6  5  2  0  0  0  0
  7 25  1  0  0  0  0
  7 23  1  0  0  0  0
  7  6  1  0  0  0  0
  8 27  1  0  0  0  0
  8  9  1  0  0  0  0
  9 10  2  0  0  0  0
  9 13  1  0  0  0  0
 10 11  1  0  0  0  0
 11 12  1  0  0  0  0
 11 21  1  0  0  0  0
 12 14  1  0  0  0  0
 13 12  2  0  0  0  0
 14 18  1  0  0  0  0
 14 15  2  0  0  0  0
 15 16  1  0  0  0  0
 16 19  1  0  0  0  0
 17 16  1  0  0  0  0
 18 17  2  0  0  0  0
 19 30  1  0  0  0  0
 19 29  1  0  0  0  0
 20 15  1  0  0  0  0
 21 20  2  0  0  0  0
 22 34  1  0  0  0  0
 22 35  1  0  0  0  0
 24  7  1  0  0  0  0
 26  8  1  0  0  0  0
 28 18  1  0  0  0  0
 31 19  1  0  0  0  0
 32 21  1  0  0  0  0
 33 22  1  0  0  0  0
M  END
>  <Pose>
1

>  <Score>
-3.84

$$$$
