
 OpenBabel03232221553D

 36 39  0  0  0  0  0  0  0  0999 V2000
   -2.0610  -21.8230  -38.7070 B   0  0  0  0  0  0  0  0  0  0  0  0
   -1.3810  -20.1830  -38.0500 C   0  0  0  0  0  0  0  0  0  0  0  0
   -0.0870  -19.7810  -38.4030 C   0  0  0  0  0  0  0  0  0  0  0  0
    0.3890  -18.5900  -37.9180 C   0  0  0  0  0  0  0  0  0  0  0  0
   -0.3790  -17.8010  -37.1030 C   0  0  0  0  0  0  0  0  0  0  0  0
   -1.6790  -18.1990  -36.7470 C   0  0  0  0  0  0  0  0  0  0  0  0
   -2.1580  -19.3980  -37.2340 C   0  0  0  0  0  0  0  0  0  0  0  0
    0.1800  -16.5870  -36.6340 N   0  0  0  0  0  0  0  0  0  0  0  0
    1.1620  -16.5240  -35.7540 N   0  0  0  0  0  0  0  0  0  0  0  0
    1.4830  -15.2730  -35.5000 N   0  0  0  0  0  0  0  0  0  0  0  0
    0.6990  -14.4920  -36.2250 N   0  0  0  0  0  0  0  0  0  0  0  0
   -0.1010  -15.3070  -36.9200 C   0  0  0  0  0  0  0  0  0  0  0  0
    1.7720  -18.0940  -38.2710 C   0  0  0  0  0  0  0  0  0  0  0  0
    1.8330  -17.3250  -39.2840 O   0  0  0  0  0  0  0  0  0  0  0  0
    2.8320  -18.4970  -37.4940 N   0  0  0  0  0  0  0  0  0  0  0  0
    3.8850  -18.8990  -36.7230 C   0  0  0  0  0  0  0  0  0  0  0  0
    5.1420  -19.2240  -37.5130 C   0  0  0  0  0  0  0  0  0  0  0  0
    5.2090  -20.1060  -38.5340 N   0  0  0  0  0  0  0  0  0  0  0  0
    6.4570  -20.1610  -39.0170 C   0  0  0  0  0  0  0  0  0  0  0  0
    7.1710  -19.2960  -38.2800 N   0  0  0  0  0  0  0  0  0  0  0  0
    6.3740  -18.7250  -37.3650 N   0  0  0  0  0  0  0  0  0  0  0  0
    6.7720  -21.0100  -40.0870 C   0  0  0  0  0  0  0  0  0  0  0  0
    5.8040  -21.7940  -40.6510 C   0  0  0  0  0  0  0  0  0  0  0  0
    4.5180  -21.7370  -40.1530 C   0  0  0  0  0  0  0  0  0  0  0  0
    4.2400  -20.8860  -39.0920 C   0  0  0  0  0  0  0  0  0  0  0  0
    0.5340  -20.3930  -39.0420 H   0  0  0  0  0  0  0  0  0  0  0  0
   -2.2490  -17.5500  -36.1060 H   0  0  0  0  0  0  0  0  0  0  0  0
   -3.1620  -19.7070  -36.9570 H   0  0  0  0  0  0  0  0  0  0  0  0
   -0.8550  -14.9820  -37.6100 H   0  0  0  0  0  0  0  0  0  0  0  0
    2.5580  -19.8010  -37.7750 H   0  0  0  0  0  0  0  0  0  0  0  0
    3.7160  -19.7940  -36.0580 H   0  0  0  0  0  0  0  0  0  0  0  0
    4.2660  -18.1260  -35.9810 H   0  0  0  0  0  0  0  0  0  0  0  0
    7.7940  -21.0170  -40.4320 H   0  0  0  0  0  0  0  0  0  0  0  0
    6.0140  -22.4730  -41.4900 H   0  0  0  0  0  0  0  0  0  0  0  0
    3.7180  -22.3190  -40.5480 H   0  0  0  0  0  0  0  0  0  0  0  0
    3.2500  -20.8140  -38.6730 H   0  0  0  0  0  0  0  0  0  0  0  0
  1  2  1  0  0  0  0
  2  7  1  0  0  0  0
  3  2  2  0  0  0  0
  3  4  1  0  0  0  0
  4  5  2  0  0  0  0
  5  6  1  0  0  0  0
  5  8  1  0  0  0  0
  6 27  1  0  0  0  0
  7 28  1  0  0  0  0
  7  6  2  0  0  0  0
  8  9  1  0  0  0  0
  9 10  2  0  0  0  0
 11 10  1  0  0  0  0
 12  8  1  0  0  0  0
 12 11  2  0  0  0  0
 13  4  1  0  0  0  0
 13 15  1  0  0  0  0
 14 13  2  0  0  0  0
 15 16  1  0  0  0  0
 16 31  1  0  0  0  0
 16 32  1  0  0  0  0
 17 21  2  0  0  0  0
 17 16  1  0  0  0  0
 18 17  1  0  0  0  0
 19 18  1  0  0  0  0
 19 20  2  0  0  0  0
 20 21  1  0  0  0  0
 22 19  1  0  0  0  0
 23 24  1  0  0  0  0
 23 22  2  0  0  0  0
 24 25  2  0  0  0  0
 25 36  1  0  0  0  0
 25 18  1  0  0  0  0
 26  3  1  0  0  0  0
 29 12  1  0  0  0  0
 30 15  1  0  0  0  0
 33 22  1  0  0  0  0
 34 23  1  0  0  0  0
 35 24  1  0  0  0  0
M  END
>  <Pose>
1

>  <Score>
-4.76

$$$$
