
 OpenBabel03232221553D

 48 51  0  0  0  0  0  0  0  0999 V2000
    6.5510  -22.3230  -42.7940 B   0  0  0  0  0  0  0  0  0  0  0  0
    4.7500  -22.9190  -42.6160 C   0  0  0  0  0  0  0  0  0  0  0  0
    3.6920  -22.1230  -42.2850 C   0  0  0  0  0  0  0  0  0  0  0  0
    2.3970  -22.5790  -42.1630 C   0  0  0  0  0  0  0  0  0  0  0  0
    2.1810  -23.9400  -42.3970 C   0  0  0  0  0  0  0  0  0  0  0  0
    3.2040  -24.7850  -42.7300 C   0  0  0  0  0  0  0  0  0  0  0  0
    4.4890  -24.2680  -42.8390 C   0  0  0  0  0  0  0  0  0  0  0  0
    0.8910  -24.4210  -42.2860 O   0  0  0  0  0  0  0  0  0  0  0  0
    0.6540  -25.6980  -41.7540 C   0  0  0  0  0  0  0  0  0  0  0  0
    1.2830  -21.7090  -41.8250 C   0  0  0  0  0  0  0  0  0  0  0  0
    1.2390  -20.8560  -40.8390 C   0  0  0  0  0  0  0  0  0  0  0  0
    2.2720  -20.6390  -39.9410 O   0  0  0  0  0  0  0  0  0  0  0  0
    1.9450  -19.6790  -39.0010 C   0  0  0  0  0  0  0  0  0  0  0  0
    0.6720  -19.2030  -39.2200 C   0  0  0  0  0  0  0  0  0  0  0  0
    0.1430  -18.2350  -38.3920 C   0  0  0  0  0  0  0  0  0  0  0  0
    0.8990  -17.7510  -37.3460 C   0  0  0  0  0  0  0  0  0  0  0  0
    2.1990  -18.2560  -37.1440 C   0  0  0  0  0  0  0  0  0  0  0  0
    2.7420  -19.2100  -37.9480 C   0  0  0  0  0  0  0  0  0  0  0  0
    4.0670  -19.7470  -37.8020 C   0  0  0  0  0  0  0  0  0  0  0  0
    5.1610  -19.2980  -38.5620 N   0  0  0  0  0  4  0  0  0  0  0  0
    6.4530  -19.4500  -37.9510 C   0  0  0  0  0  0  0  0  0  0  0  0
    7.0450  -20.8310  -38.0970 C   0  0  0  0  0  0  0  0  0  0  0  0
    6.1840  -21.7440  -38.6880 O   0  0  0  0  0  0  0  0  0  0  0  0
    5.8690  -21.2310  -39.9420 C   0  0  0  0  0  0  0  0  0  0  0  0
    5.1940  -19.8990  -39.9080 C   0  0  0  0  0  0  0  0  0  0  0  0
    2.8480  -17.6730  -36.0430 O   0  0  0  0  0  0  0  0  0  0  0  0
    0.1870  -19.9370  -40.3940 C   0  0  0  0  0  0  0  0  0  0  0  0
   -0.9330  -19.8100  -40.9360 O   0  0  0  0  0  0  0  0  0  0  0  0
    3.9010  -21.0640  -42.1110 H   0  0  0  0  0  0  0  0  0  0  0  0
    3.0880  -25.8580  -42.9200 H   0  0  0  0  0  0  0  0  0  0  0  0
    5.3200  -24.9370  -43.1070 H   0  0  0  0  0  0  0  0  0  0  0  0
   -0.3470  -26.0850  -42.1210 H   0  0  0  0  0  0  0  0  0  0  0  0
    0.5610  -25.6220  -40.6400 H   0  0  0  0  0  0  0  0  0  0  0  0
    1.3880  -26.4630  -42.0800 H   0  0  0  0  0  0  0  0  0  0  0  0
    0.3810  -21.7680  -42.4540 H   0  0  0  0  0  0  0  0  0  0  0  0
   -0.8650  -17.8640  -38.5760 H   0  0  0  0  0  0  0  0  0  0  0  0
    0.5400  -16.9950  -36.6670 H   0  0  0  0  0  0  0  0  0  0  0  0
    4.4230  -19.7120  -36.7110 H   0  0  0  0  0  0  0  0  0  0  0  0
    4.0580  -20.8940  -37.9480 H   0  0  0  0  0  0  0  0  0  0  0  0
    5.0360  -18.2870  -38.7750 H   0  0  0  0  0  0  0  0  0  0  0  0
    7.1410  -18.7570  -38.5230 H   0  0  0  0  0  0  0  0  0  0  0  0
    6.4610  -19.1000  -36.9190 H   0  0  0  0  0  0  0  0  0  0  0  0
    7.9810  -20.8350  -38.7270 H   0  0  0  0  0  0  0  0  0  0  0  0
    7.3780  -21.1980  -37.1050 H   0  0  0  0  0  0  0  0  0  0  0  0
    5.1240  -21.9520  -40.3920 H   0  0  0  0  0  0  0  0  0  0  0  0
    6.7840  -21.2530  -40.6010 H   0  0  0  0  0  0  0  0  0  0  0  0
    4.1600  -19.9190  -40.3100 H   0  0  0  0  0  0  0  0  0  0  0  0
    5.7570  -19.2210  -40.5820 H   0  0  0  0  0  0  0  0  0  0  0  0
  1  2  1  0  0  0  0
  2  3  1  0  0  0  0
  3  4  2  0  0  0  0
  3 29  1  0  0  0  0
  4 10  1  0  0  0  0
  5  8  1  0  0  0  0
  5  4  1  0  0  0  0
  6  5  2  0  0  0  0
  7  6  1  0  0  0  0
  7  2  2  0  0  0  0
  8  9  1  0  0  0  0
  9 33  1  0  0  0  0
 10 11  2  0  0  0  0
 11 27  1  0  0  0  0
 11 12  1  0  0  0  0
 12 13  1  0  0  0  0
 13 18  1  0  0  0  0
 14 13  2  0  0  0  0
 14 15  1  0  0  0  0
 15 16  2  0  0  0  0
 16 17  1  0  0  0  0
 16 37  1  0  0  0  0
 17 26  1  0  0  0  0
 18 19  1  0  0  0  0
 18 17  2  0  0  0  0
 19 38  1  0  0  0  0
 20 21  1  0  0  0  0
 20 19  1  0  0  0  0
 21 42  1  0  0  0  0
 22 21  1  0  0  0  0
 22 44  1  0  0  0  0
 23 22  1  0  0  0  0
 24 25  1  0  0  0  0
 24 23  1  0  0  0  0
 25 20  1  0  0  0  0
 27 14  1  0  0  0  0
 28 27  2  0  0  0  0
 30  6  1  0  0  0  0
 31  7  1  0  0  0  0
 32  9  1  0  0  0  0
 34  9  1  0  0  0  0
 35 10  1  0  0  0  0
 36 15  1  0  0  0  0
 39 19  1  0  0  0  0
 40 20  1  0  0  0  0
 41 21  1  0  0  0  0
 43 22  1  0  0  0  0
 45 24  1  0  0  0  0
 46 24  1  0  0  0  0
 47 25  1  0  0  0  0
 48 25  1  0  0  0  0
M  END
>  <Pose>
1

>  <Score>
-4.32

$$$$
