
 OpenBabel03232221553D

 54 57  0  0  0  0  0  0  0  0999 V2000
   13.1190  -24.5510  -42.8670 B   0  0  0  0  0  0  0  0  0  0  0  0
   11.5720  -24.9080  -43.9220 C   0  0  0  0  0  0  0  0  0  0  0  0
   10.4010  -25.3430  -43.3410 C   0  0  0  0  0  0  0  0  0  0  0  0
    9.2860  -25.5990  -44.1010 C   0  0  0  0  0  0  0  0  0  0  0  0
    9.3710  -25.4090  -45.4630 C   0  0  0  0  0  0  0  0  0  0  0  0
   10.5520  -24.9690  -46.0650 C   0  0  0  0  0  0  0  0  0  0  0  0
   11.6740  -24.7120  -45.2930 C   0  0  0  0  0  0  0  0  0  0  0  0
    8.2280  -25.6770  -46.2080 O   0  0  0  0  0  0  0  0  0  0  0  0
    7.6600  -26.9590  -46.3390 C   0  0  0  0  0  0  0  0  0  0  0  0
    8.0400  -26.0600  -43.4970 C   0  0  0  0  0  0  0  0  0  0  0  0
    6.9170  -25.4730  -43.6750 N   0  0  0  0  0  0  0  0  0  0  0  0
    5.7160  -25.9000  -43.1060 N   0  0  0  0  0  0  0  0  0  0  0  0
    4.6090  -25.0300  -42.9020 C   0  0  0  0  0  0  0  0  0  0  0  0
    3.3290  -25.3990  -43.1240 N   0  0  0  0  0  4  0  0  0  0  0  0
    2.3100  -24.5560  -42.9230 C   0  0  0  0  0  0  0  0  0  0  0  0
    2.5830  -23.3150  -42.4900 N   0  0  0  0  0  0  0  0  0  0  0  0
    3.8470  -22.8760  -42.2460 C   0  0  0  0  0  0  0  0  0  0  0  0
    4.8330  -23.7880  -42.4720 N   0  0  0  0  0  0  0  0  0  0  0  0
    4.1260  -21.5740  -41.7920 N   0  0  0  0  0  0  0  0  0  0  0  0
    4.7550  -20.6070  -42.6400 C   0  0  0  0  0  0  0  0  0  0  0  0
    5.9680  -20.0700  -41.8830 C   0  0  0  0  0  0  0  0  0  0  0  0
    5.5060  -19.5800  -40.6740 O   0  0  0  0  0  0  0  0  0  0  0  0
    5.0330  -20.5640  -39.8390 C   0  0  0  0  0  0  0  0  0  0  0  0
    3.7830  -21.1940  -40.4530 C   0  0  0  0  0  0  0  0  0  0  0  0
    0.9640  -24.9450  -43.1560 N   0  0  0  0  0  0  0  0  0  0  0  0
   -0.0950  -24.6770  -42.2080 C   0  0  0  0  0  0  0  0  0  0  0  0
   -1.0230  -25.8740  -42.0670 C   0  0  0  0  0  0  0  0  0  0  0  0
   -1.3460  -26.3950  -43.3250 O   0  0  0  0  0  0  0  0  0  0  0  0
   -0.2300  -26.8380  -43.9940 C   0  0  0  0  0  0  0  0  0  0  0  0
    0.6040  -25.6340  -44.3750 C   0  0  0  0  0  0  0  0  0  0  0  0
   10.3170  -25.4990  -42.2590 H   0  0  0  0  0  0  0  0  0  0  0  0
   10.5980  -24.8240  -47.1470 H   0  0  0  0  0  0  0  0  0  0  0  0
   12.5730  -24.3720  -45.7790 H   0  0  0  0  0  0  0  0  0  0  0  0
    8.1280  -27.4290  -47.2410 H   0  0  0  0  0  0  0  0  0  0  0  0
    7.7550  -27.5770  -45.4320 H   0  0  0  0  0  0  0  0  0  0  0  0
    6.5780  -26.8440  -46.5750 H   0  0  0  0  0  0  0  0  0  0  0  0
    8.0450  -26.9370  -42.8670 H   0  0  0  0  0  0  0  0  0  0  0  0
    5.6650  -26.9170  -42.8270 H   0  0  0  0  0  0  0  0  0  0  0  0
    5.0640  -21.0530  -43.6210 H   0  0  0  0  0  0  0  0  0  0  0  0
    4.0630  -19.7470  -42.7960 H   0  0  0  0  0  0  0  0  0  0  0  0
    6.3440  -19.2180  -42.4840 H   0  0  0  0  0  0  0  0  0  0  0  0
    6.7430  -20.8340  -41.7830 H   0  0  0  0  0  0  0  0  0  0  0  0
    5.7660  -21.3980  -39.7150 H   0  0  0  0  0  0  0  0  0  0  0  0
    4.7670  -20.1210  -38.8740 H   0  0  0  0  0  0  0  0  0  0  0  0
    3.4210  -22.0380  -39.8390 H   0  0  0  0  0  0  0  0  0  0  0  0
    3.0320  -20.3690  -40.4950 H   0  0  0  0  0  0  0  0  0  0  0  0
   -0.7280  -23.8710  -42.6790 H   0  0  0  0  0  0  0  0  0  0  0  0
    0.2730  -24.3860  -41.2200 H   0  0  0  0  0  0  0  0  0  0  0  0
   -0.5270  -26.6070  -41.4180 H   0  0  0  0  0  0  0  0  0  0  0  0
   -1.9890  -25.4940  -41.6460 H   0  0  0  0  0  0  0  0  0  0  0  0
    0.3240  -27.5330  -43.3310 H   0  0  0  0  0  0  0  0  0  0  0  0
   -0.5530  -27.4110  -44.8680 H   0  0  0  0  0  0  0  0  0  0  0  0
   -0.0300  -24.9710  -44.9710 H   0  0  0  0  0  0  0  0  0  0  0  0
    1.4970  -25.9150  -44.9560 H   0  0  0  0  0  0  0  0  0  0  0  0
  2  3  1  0  0  0  0
  2  1  1  0  0  0  0
  3 31  1  0  0  0  0
  4 10  1  0  0  0  0
  4  3  2  0  0  0  0
  5  4  1  0  0  0  0
  6  5  2  0  0  0  0
  6  7  1  0  0  0  0
  7  2  2  0  0  0  0
  8  5  1  0  0  0  0
  9  8  1  0  0  0  0
  9 35  1  0  0  0  0
 10 37  1  0  0  0  0
 11 10  2  0  0  0  0
 11 12  1  0  0  0  0
 12 13  1  0  0  0  0
 12 38  1  0  0  0  0
 13 18  1  0  0  0  0
 14 15  2  0  0  0  0
 14 13  2  0  0  0  0
 15 16  1  0  0  0  0
 16 17  2  0  0  0  0
 17 19  1  0  0  0  0
 18 17  1  0  0  0  0
 19 24  1  0  0  0  0
 20 21  1  0  0  0  0
 20 19  1  0  0  0  0
 21 42  1  0  0  0  0
 21 22  1  0  0  0  0
 22 23  1  0  0  0  0
 23 43  1  0  0  0  0
 23 44  1  0  0  0  0
 24 23  1  0  0  0  0
 24 45  1  0  0  0  0
 25 15  1  0  0  0  0
 25 26  1  0  0  0  0
 26 27  1  0  0  0  0
 26 48  1  0  0  0  0
 27 50  1  0  0  0  0
 27 49  1  0  0  0  0
 28 27  1  0  0  0  0
 29 51  1  0  0  0  0
 29 28  1  0  0  0  0
 30 29  1  0  0  0  0
 30 25  1  0  0  0  0
 32  6  1  0  0  0  0
 33  7  1  0  0  0  0
 34  9  1  0  0  0  0
 36  9  1  0  0  0  0
 39 20  1  0  0  0  0
 40 20  1  0  0  0  0
 41 21  1  0  0  0  0
 46 24  1  0  0  0  0
 47 26  1  0  0  0  0
 52 29  1  0  0  0  0
 53 30  1  0  0  0  0
 54 30  1  0  0  0  0
M  END
>  <Pose>
1

>  <Score>
-3.83

$$$$
