
 OpenBabel03232221553D

 45 48  0  0  0  0  0  0  0  0999 V2000
    4.9370  -19.6940  -38.6490 B   0  0  0  0  0  0  0  0  0  0  0  0
    4.8940  -20.1280  -40.5060 C   0  0  0  0  0  0  0  0  0  0  0  0
    5.6540  -21.1590  -40.9770 C   0  0  0  0  0  0  0  0  0  0  0  0
    5.7280  -21.5850  -42.2690 C   0  0  0  0  0  0  0  0  0  0  0  0
    4.9080  -20.8340  -43.1430 C   0  0  0  0  0  0  0  0  0  0  0  0
    4.1270  -19.7890  -42.7130 C   0  0  0  0  0  0  0  0  0  0  0  0
    4.1140  -19.4250  -41.3750 C   0  0  0  0  0  0  0  0  0  0  0  0
    4.8910  -21.1660  -44.4860 O   0  0  0  0  0  0  0  0  0  0  0  0
    3.7340  -21.2810  -45.2550 C   0  0  0  0  0  0  0  0  0  0  0  0
    6.4910  -22.6670  -42.8210 C   0  0  0  0  0  0  0  0  0  0  0  0
    6.2950  -23.8450  -43.3730 N   0  0  0  0  0  0  0  0  0  0  0  0
    7.4920  -24.4270  -43.7010 C   0  0  0  0  0  0  0  0  0  0  0  0
    8.4550  -23.5500  -43.3340 N   0  0  0  0  0  0  0  0  0  0  0  0
    7.8850  -22.5150  -42.8180 N   0  0  0  0  0  0  0  0  0  0  0  0
    7.2760  -25.6200  -44.2600 N   0  0  0  0  0  0  0  0  0  0  0  0
    5.9450  -25.8010  -44.2950 C   0  0  0  0  0  0  0  0  0  0  0  0
    5.3050  -24.6950  -43.7460 C   0  0  0  0  0  0  0  0  0  0  0  0
    3.9920  -24.5950  -43.6740 N   0  0  0  0  0  0  0  0  0  0  0  0
    3.2650  -25.6480  -44.1640 C   0  0  0  0  0  0  0  0  0  0  0  0
    2.0080  -25.6580  -44.1430 O   0  0  0  0  0  0  0  0  0  0  0  0
    3.8520  -26.7390  -44.7000 N   0  0  0  0  0  0  0  0  0  0  0  0
    5.1740  -26.8400  -44.7780 C   0  0  0  0  0  0  0  0  0  0  0  0
    5.7790  -27.8280  -45.2650 O   0  0  0  0  0  0  0  0  0  0  0  0
    3.1950  -23.4980  -43.2130 C   0  0  0  0  0  0  0  0  0  0  0  0
    8.2550  -26.5500  -44.7390 C   0  0  0  0  0  0  0  0  0  0  0  0
    9.5650  -26.3220  -44.0140 C   0  0  0  0  0  0  0  0  0  0  0  0
    9.3860  -26.6480  -42.6840 O   0  0  0  0  0  0  0  0  0  0  0  0
   10.5640  -26.4570  -41.9410 C   0  0  0  0  0  0  0  0  0  0  0  0
    6.2810  -21.7060  -40.2880 H   0  0  0  0  0  0  0  0  0  0  0  0
    3.4960  -19.2050  -43.3600 H   0  0  0  0  0  0  0  0  0  0  0  0
    3.5080  -18.6100  -41.0240 H   0  0  0  0  0  0  0  0  0  0  0  0
    2.9630  -20.5220  -45.0130 H   0  0  0  0  0  0  0  0  0  0  0  0
    3.9350  -21.1620  -46.3520 H   0  0  0  0  0  0  0  0  0  0  0  0
    3.3180  -22.3050  -45.1270 H   0  0  0  0  0  0  0  0  0  0  0  0
    3.2850  -27.5320  -45.0670 H   0  0  0  0  0  0  0  0  0  0  0  0
    3.5550  -22.5200  -43.5630 H   0  0  0  0  0  0  0  0  0  0  0  0
    2.1390  -23.6430  -43.6310 H   0  0  0  0  0  0  0  0  0  0  0  0
    3.0680  -23.5170  -42.1360 H   0  0  0  0  0  0  0  0  0  0  0  0
    8.3640  -26.5480  -45.8380 H   0  0  0  0  0  0  0  0  0  0  0  0
    7.9140  -27.5780  -44.4160 H   0  0  0  0  0  0  0  0  0  0  0  0
    9.8600  -25.2440  -44.0450 H   0  0  0  0  0  0  0  0  0  0  0  0
   10.3290  -26.9560  -44.5050 H   0  0  0  0  0  0  0  0  0  0  0  0
   11.3480  -27.1120  -42.3780 H   0  0  0  0  0  0  0  0  0  0  0  0
   10.4150  -26.7950  -40.9060 H   0  0  0  0  0  0  0  0  0  0  0  0
   10.9010  -25.4190  -41.9540 H   0  0  0  0  0  0  0  0  0  0  0  0
  2  1  1  0  0  0  0
  3  2  1  0  0  0  0
  3 29  1  0  0  0  0
  4  3  2  0  0  0  0
  5  6  2  0  0  0  0
  5  4  1  0  0  0  0
  6  7  1  0  0  0  0
  7 31  1  0  0  0  0
  7  2  2  0  0  0  0
  8  5  1  0  0  0  0
  9 34  1  0  0  0  0
  9 32  1  0  0  0  0
  9  8  1  0  0  0  0
 10 14  2  0  0  0  0
 10  4  1  0  0  0  0
 11 10  1  0  0  0  0
 12 11  1  0  0  0  0
 12 13  2  0  0  0  0
 13 14  1  0  0  0  0
 15 12  1  0  0  0  0
 16 15  1  0  0  0  0
 16 17  2  0  0  0  0
 17 18  1  0  0  0  0
 17 11  1  0  0  0  0
 18 24  1  0  0  0  0
 19 20  2  0  0  0  0
 19 18  1  0  0  0  0
 21 19  1  0  0  0  0
 22 21  1  0  0  0  0
 22 16  1  0  0  0  0
 23 22  2  0  0  0  0
 24 38  1  0  0  0  0
 25 40  1  0  0  0  0
 25 15  1  0  0  0  0
 25 26  1  0  0  0  0
 26 27  1  0  0  0  0
 27 28  1  0  0  0  0
 28 44  1  0  0  0  0
 30  6  1  0  0  0  0
 33  9  1  0  0  0  0
 35 21  1  0  0  0  0
 36 24  1  0  0  0  0
 37 24  1  0  0  0  0
 39 25  1  0  0  0  0
 41 26  1  0  0  0  0
 42 26  1  0  0  0  0
 43 28  1  0  0  0  0
 45 28  1  0  0  0  0
M  END
>  <Pose>
1

>  <Score>
-4.01

$$$$
