
 OpenBabel03232221553D

 50 53  0  0  0  0  0  0  0  0999 V2000
   10.8850  -26.4690  -41.9060 B   0  0  0  0  0  0  0  0  0  0  0  0
    9.6560  -26.1780  -43.3290 C   0  0  0  0  0  0  0  0  0  0  0  0
    8.5180  -25.3960  -43.1730 C   0  0  0  0  0  0  0  0  0  0  0  0
    7.6310  -25.1860  -44.1960 C   0  0  0  0  0  0  0  0  0  0  0  0
    7.8740  -25.7690  -45.4180 C   0  0  0  0  0  0  0  0  0  0  0  0
    8.9950  -26.5420  -45.5790 C   0  0  0  0  0  0  0  0  0  0  0  0
    9.9030  -26.7630  -44.5510 C   0  0  0  0  0  0  0  0  0  0  0  0
    6.4470  -24.3570  -43.9960 C   0  0  0  0  0  0  0  0  0  0  0  0
    5.3680  -24.8350  -43.5620 O   0  0  0  0  0  0  0  0  0  0  0  0
    6.5180  -22.9290  -44.3090 C   0  0  0  0  0  0  0  0  0  0  0  0
    5.8580  -22.0990  -43.3790 N   0  0  0  0  0  0  0  0  0  0  0  0
    6.4360  -20.8300  -43.1350 C   0  0  0  0  0  0  0  0  0  0  0  0
    5.7970  -20.0170  -42.0750 C   0  0  0  0  0  0  0  0  0  0  0  0
    5.6660  -20.7590  -40.8620 N   0  0  0  0  0  0  0  0  0  0  0  0
    5.6860  -22.1920  -40.9300 C   0  0  0  0  0  0  0  0  0  0  0  0
    5.2550  -22.7480  -42.2670 C   0  0  0  0  0  0  0  0  0  0  0  0
    5.4910  -20.1280  -39.6020 C   0  0  0  0  0  0  0  0  0  0  0  0
    4.2510  -20.0080  -39.1310 C   0  0  0  0  0  0  0  0  0  0  0  0
    2.9610  -20.3690  -39.5930 N   0  0  0  0  0  0  0  0  0  0  0  0
    2.0720  -19.9380  -38.5820 N   0  0  0  0  0  0  0  0  0  0  0  0
    2.8160  -19.3330  -37.5430 C   0  0  0  0  0  0  0  0  0  0  0  0
    4.1120  -19.3470  -37.8150 C   0  0  0  0  0  0  0  0  0  0  0  0
    5.2690  -18.8820  -37.1280 N   0  0  0  0  0  0  0  0  0  0  0  0
    6.4470  -19.0250  -37.6270 C   0  0  0  0  0  0  0  0  0  0  0  0
    6.6400  -19.6460  -38.8760 N   0  0  0  0  0  0  0  0  0  0  0  0
    2.2760  -18.7430  -36.2890 C   0  0  0  0  0  0  0  0  0  0  0  0
    2.6320  -21.0340  -40.8300 C   0  0  0  0  0  0  0  0  0  0  0  0
    8.3860  -24.9680  -42.1900 H   0  0  0  0  0  0  0  0  0  0  0  0
    7.1510  -25.5850  -46.2150 H   0  0  0  0  0  0  0  0  0  0  0  0
    9.2040  -27.0090  -46.5300 H   0  0  0  0  0  0  0  0  0  0  0  0
   10.7920  -27.3900  -44.7170 H   0  0  0  0  0  0  0  0  0  0  0  0
    6.1120  -22.7450  -45.3400 H   0  0  0  0  0  0  0  0  0  0  0  0
    7.5930  -22.5860  -44.3850 H   0  0  0  0  0  0  0  0  0  0  0  0
    7.5290  -20.9260  -43.0060 H   0  0  0  0  0  0  0  0  0  0  0  0
    6.3250  -20.2460  -44.1020 H   0  0  0  0  0  0  0  0  0  0  0  0
    4.7640  -19.7450  -42.4240 H   0  0  0  0  0  0  0  0  0  0  0  0
    6.3120  -19.0450  -41.9490 H   0  0  0  0  0  0  0  0  0  0  0  0
    6.5890  -22.6740  -40.5400 H   0  0  0  0  0  0  0  0  0  0  0  0
    4.8700  -22.5210  -40.2120 H   0  0  0  0  0  0  0  0  0  0  0  0
    5.5460  -23.8190  -42.2800 H   0  0  0  0  0  0  0  0  0  0  0  0
    4.1520  -22.7240  -42.4040 H   0  0  0  0  0  0  0  0  0  0  0  0
    1.0430  -20.0780  -38.6610 H   0  0  0  0  0  0  0  0  0  0  0  0
    7.3060  -18.6420  -37.0430 H   0  0  0  0  0  0  0  0  0  0  0  0
    7.5650  -19.7820  -39.3180 H   0  0  0  0  0  0  0  0  0  0  0  0
    1.1900  -18.5630  -36.4080 H   0  0  0  0  0  0  0  0  0  0  0  0
    2.8420  -17.8700  -35.9560 H   0  0  0  0  0  0  0  0  0  0  0  0
    2.3740  -19.5300  -35.4910 H   0  0  0  0  0  0  0  0  0  0  0  0
    3.1200  -20.6370  -41.7160 H   0  0  0  0  0  0  0  0  0  0  0  0
    2.7060  -22.1330  -40.6910 H   0  0  0  0  0  0  0  0  0  0  0  0
    1.5270  -20.8120  -40.9940 H   0  0  0  0  0  0  0  0  0  0  0  0
  2  3  1  0  0  0  0
  2  1  1  0  0  0  0
  3 28  1  0  0  0  0
  4  8  1  0  0  0  0
  4  3  2  0  0  0  0
  5  4  1  0  0  0  0
  6  5  2  0  0  0  0
  6  7  1  0  0  0  0
  7  2  2  0  0  0  0
  8  9  2  0  0  0  0
 10  8  1  0  0  0  0
 10 11  1  0  0  0  0
 11 12  1  0  0  0  0
 11 16  1  0  0  0  0
 12 34  1  0  0  0  0
 12 13  1  0  0  0  0
 13 37  1  0  0  0  0
 13 14  1  0  0  0  0
 14 17  1  0  0  0  0
 15 14  1  0  0  0  0
 15 38  1  0  0  0  0
 15 39  1  0  0  0  0
 16 15  1  0  0  0  0
 17 18  2  0  0  0  0
 17 25  1  0  0  0  0
 18 22  1  0  0  0  0
 19 18  1  0  0  0  0
 19 20  1  0  0  0  0
 20 21  1  0  0  0  0
 21 26  1  0  0  0  0
 22 21  2  0  0  0  0
 22 23  1  0  0  0  0
 24 23  2  0  0  0  0
 24 43  1  0  0  0  0
 25 24  1  0  0  0  0
 26 46  1  0  0  0  0
 26 47  1  0  0  0  0
 27 49  1  0  0  0  0
 27 19  1  0  0  0  0
 29  5  1  0  0  0  0
 30  6  1  0  0  0  0
 31  7  1  0  0  0  0
 32 10  1  0  0  0  0
 33 10  1  0  0  0  0
 35 12  1  0  0  0  0
 36 13  1  0  0  0  0
 40 16  1  0  0  0  0
 41 16  1  0  0  0  0
 42 20  1  0  0  0  0
 44 25  1  0  0  0  0
 45 26  1  0  0  0  0
 48 27  1  0  0  0  0
 50 27  1  0  0  0  0
M  END
>  <Pose>
1

>  <Score>
-4.85

$$$$
