
 OpenBabel03232221553D

 52 55  0  0  1  0  0  0  0  0999 V2000
   14.6410  -23.6810  -42.5540 B   0  0  0  0  0  0  0  0  0  0  0  0
   13.3430  -24.9580  -43.1840 C   0  0  0  0  0  0  0  0  0  0  0  0
   12.1390  -25.0780  -42.5330 C   0  0  0  0  0  0  0  0  0  0  0  0
   11.2180  -26.0000  -42.9810 C   0  0  0  0  0  0  0  0  0  0  0  0
   11.4890  -26.7830  -44.0570 C   0  0  0  0  0  0  0  0  0  0  0  0
   12.6920  -26.6460  -44.6940 C   0  0  0  0  0  0  0  0  0  0  0  0
   13.6630  -25.7310  -44.2810 C   0  0  0  0  0  0  0  0  0  0  0  0
    9.8930  -26.0600  -42.2570 C   0  0  0  0  0  0  0  0  0  0  0  0
    9.8150  -26.8730  -41.3520 O   0  0  0  0  0  0  0  0  0  0  0  0
    8.9570  -25.1510  -42.7400 N   0  0  0  0  0  0  0  0  0  0  0  0
    8.5040  -25.0810  -44.0810 C   0  0  1  0  0  0  0  0  0  0  0  0
    7.9630  -26.3860  -44.6430 C   0  0  0  0  0  0  0  0  0  0  0  0
    7.5580  -24.0050  -44.3390 C   0  0  0  0  0  0  0  0  0  0  0  0
    7.5920  -23.4820  -45.4970 O   0  0  0  0  0  0  0  0  0  0  0  0
    6.6410  -23.5310  -43.3580 N   0  0  0  0  0  0  0  0  0  0  0  0
    7.0330  -22.6390  -42.2960 C   0  0  0  0  0  0  0  0  0  0  0  0
    6.2530  -21.3450  -42.6280 C   0  0  0  0  0  0  0  0  0  0  0  0
    4.8260  -21.6560  -42.2650 C   0  0  2  0  0  0  0  0  0  0  0  0
    4.0040  -20.6240  -42.8940 N   0  0  0  0  0  0  0  0  0  0  0  0
    4.3660  -19.3100  -42.5140 C   0  0  0  0  0  0  0  0  0  0  0  0
    4.1590  -19.0390  -41.0350 C   0  0  0  0  0  0  0  0  0  0  0  0
    4.4080  -20.2400  -40.2170 C   0  0  0  0  0  0  0  0  0  0  0  0
    4.3910  -20.3770  -38.8800 N   0  0  0  0  0  0  0  0  0  0  0  0
    4.6730  -21.6690  -38.6050 C   0  0  0  0  0  0  0  0  0  0  0  0
    4.8640  -22.3190  -39.7810 N   0  0  0  0  0  0  0  0  0  0  0  0
    4.7080  -21.4550  -40.8030 C   0  0  0  0  0  0  0  0  0  0  0  0
    4.3270  -22.9840  -42.7160 C   0  0  0  0  0  0  0  0  0  0  0  0
    5.2750  -23.9110  -43.3970 C   0  0  0  0  0  0  0  0  0  0  0  0
   11.8680  -24.4590  -41.6640 H   0  0  0  0  0  0  0  0  0  0  0  0
   10.7300  -27.5110  -44.4150 H   0  0  0  0  0  0  0  0  0  0  0  0
   12.9470  -27.2580  -45.5630 H   0  0  0  0  0  0  0  0  0  0  0  0
   14.6120  -25.6050  -44.7850 H   0  0  0  0  0  0  0  0  0  0  0  0
    8.5720  -24.4050  -42.0860 H   0  0  0  0  0  0  0  0  0  0  0  0
    9.4470  -24.9510  -44.6950 H   0  0  0  0  0  0  0  0  0  0  0  0
    7.1840  -26.1480  -45.4340 H   0  0  0  0  0  0  0  0  0  0  0  0
    8.7740  -26.9330  -45.2470 H   0  0  0  0  0  0  0  0  0  0  0  0
    7.5200  -27.0420  -43.9250 H   0  0  0  0  0  0  0  0  0  0  0  0
    8.0890  -22.3340  -42.2620 H   0  0  0  0  0  0  0  0  0  0  0  0
    6.7080  -22.9120  -41.2980 H   0  0  0  0  0  0  0  0  0  0  0  0
    6.6760  -20.6100  -41.9170 H   0  0  0  0  0  0  0  0  0  0  0  0
    6.4300  -21.0000  -43.6360 H   0  0  0  0  0  0  0  0  0  0  0  0
    2.9760  -20.8150  -42.7820 H   0  0  0  0  0  0  0  0  0  0  0  0
    5.3820  -19.0760  -42.8470 H   0  0  0  0  0  0  0  0  0  0  0  0
    3.6960  -18.5980  -43.0420 H   0  0  0  0  0  0  0  0  0  0  0  0
    3.1010  -18.7110  -40.8370 H   0  0  0  0  0  0  0  0  0  0  0  0
    4.8470  -18.2100  -40.7570 H   0  0  0  0  0  0  0  0  0  0  0  0
    4.7310  -22.1000  -37.5980 H   0  0  0  0  0  0  0  0  0  0  0  0
    5.0900  -23.3340  -39.7650 H   0  0  0  0  0  0  0  0  0  0  0  0
    3.9260  -23.5200  -41.8310 H   0  0  0  0  0  0  0  0  0  0  0  0
    3.4340  -22.8620  -43.3990 H   0  0  0  0  0  0  0  0  0  0  0  0
    5.0030  -24.0620  -44.4520 H   0  0  0  0  0  0  0  0  0  0  0  0
    5.2240  -24.9460  -42.9310 H   0  0  0  0  0  0  0  0  0  0  0  0
  2  1  1  0  0  0  0
  2  3  1  0  0  0  0
  3 29  1  0  0  0  0
  4  3  2  0  0  0  0
  4  8  1  0  0  0  0
  5  4  1  0  0  0  0
  6  7  1  0  0  0  0
  6  5  2  0  0  0  0
  7  2  2  0  0  0  0
  8  9  2  0  0  0  0
 10  8  1  0  0  0  0
 10 33  1  0  0  0  0
 11 34  1  6  0  0  0
 11 10  1  0  0  0  0
 12 11  1  0  0  0  0
 12 37  1  0  0  0  0
 13 11  1  0  0  0  0
 13 15  1  0  0  0  0
 14 13  2  0  0  0  0
 15 16  1  0  0  0  0
 16 38  1  0  0  0  0
 16 39  1  0  0  0  0
 17 16  1  0  0  0  0
 17 18  1  0  0  0  0
 17 40  1  0  0  0  0
 18 26  1  1  0  0  0
 19 42  1  0  0  0  0
 19 20  1  0  0  0  0
 19 18  1  0  0  0  0
 20 21  1  0  0  0  0
 21 45  1  0  0  0  0
 21 46  1  0  0  0  0
 21 22  1  0  0  0  0
 22 23  1  0  0  0  0
 23 24  2  0  0  0  0
 24 47  1  0  0  0  0
 25 48  1  0  0  0  0
 25 24  1  0  0  0  0
 26 22  2  0  0  0  0
 26 25  1  0  0  0  0
 27 18  1  0  0  0  0
 27 49  1  0  0  0  0
 28 15  1  0  0  0  0
 28 52  1  0  0  0  0
 28 27  1  0  0  0  0
 30  5  1  0  0  0  0
 31  6  1  0  0  0  0
 32  7  1  0  0  0  0
 35 12  1  0  0  0  0
 36 12  1  0  0  0  0
 41 17  1  0  0  0  0
 43 20  1  0  0  0  0
 44 20  1  0  0  0  0
 50 27  1  0  0  0  0
 51 28  1  0  0  0  0
M  END
>  <Pose>
1

>  <Score>
-5.43

$$$$
