
 OpenBabel03232221553D

 49 52  0  0  0  0  0  0  0  0999 V2000
    6.6420  -25.4840  -44.0880 B   0  0  0  0  0  0  0  0  0  0  0  0
    5.8210  -23.9540  -43.3330 C   0  0  0  0  0  0  0  0  0  0  0  0
    6.5080  -22.7530  -43.3270 C   0  0  0  0  0  0  0  0  0  0  0  0
    5.9660  -21.6010  -42.7900 C   0  0  0  0  0  0  0  0  0  0  0  0
    4.6910  -21.6770  -42.2480 C   0  0  0  0  0  0  0  0  0  0  0  0
    4.0140  -22.8730  -42.2570 C   0  0  0  0  0  0  0  0  0  0  0  0
    4.5390  -24.0310  -42.7870 C   0  0  0  0  0  0  0  0  0  0  0  0
    6.6640  -20.3230  -42.7700 C   0  0  0  0  0  0  0  0  0  0  0  0
    7.0960  -19.8370  -43.8460 O   0  0  0  0  0  0  0  0  0  0  0  0
    6.8870  -19.5860  -41.5850 N   0  0  0  0  0  0  0  0  0  0  0  0
    5.7960  -19.0940  -40.7710 C   0  0  0  0  0  0  0  0  0  0  0  0
    5.6910  -19.8380  -39.4880 C   0  0  0  0  0  0  0  0  0  0  0  0
    6.7460  -20.3490  -39.0370 O   0  0  0  0  0  0  0  0  0  0  0  0
    4.4930  -19.9910  -38.7720 N   0  0  0  0  0  0  0  0  0  0  0  0
    3.4270  -20.8510  -39.2210 C   0  0  0  0  0  0  0  0  0  0  0  0
    2.2400  -19.9610  -39.5170 C   0  0  0  0  0  0  0  0  0  0  0  0
    1.9760  -19.0560  -38.3380 C   0  0  0  0  0  0  0  0  0  0  0  0
    2.1640  -17.6880  -38.7730 N   0  0  0  0  0  0  0  0  0  0  0  0
    1.8300  -16.7000  -37.8070 C   0  0  0  0  0  0  0  0  0  0  0  0
    0.6260  -16.9480  -36.9740 C   0  0  0  0  0  0  0  0  0  0  0  0
   -0.1340  -18.1640  -37.3330 C   0  0  0  0  0  0  0  0  0  0  0  0
   -1.4390  -18.5270  -37.1400 N   0  0  0  0  0  0  0  0  0  0  0  0
   -1.5790  -19.7480  -37.6710 C   0  0  0  0  0  0  0  0  0  0  0  0
   -0.4020  -20.1450  -38.1830 N   0  0  0  0  0  0  0  0  0  0  0  0
    0.5280  -19.1760  -37.9890 C   0  0  0  0  0  0  0  0  0  0  0  0
    2.8140  -19.3470  -37.1350 C   0  0  0  0  0  0  0  0  0  0  0  0
    4.2900  -19.2760  -37.5380 C   0  0  0  0  0  0  0  0  0  0  0  0
    7.4810  -22.7360  -43.7510 H   0  0  0  0  0  0  0  0  0  0  0  0
    4.1900  -20.8180  -41.8060 H   0  0  0  0  0  0  0  0  0  0  0  0
    3.0150  -22.9520  -41.8370 H   0  0  0  0  0  0  0  0  0  0  0  0
    4.0430  -24.9730  -42.8100 H   0  0  0  0  0  0  0  0  0  0  0  0
    7.8650  -19.3930  -41.2910 H   0  0  0  0  0  0  0  0  0  0  0  0
    4.8250  -19.2280  -41.2900 H   0  0  0  0  0  0  0  0  0  0  0  0
    5.9740  -18.0110  -40.6210 H   0  0  0  0  0  0  0  0  0  0  0  0
    3.1400  -21.5750  -38.4160 H   0  0  0  0  0  0  0  0  0  0  0  0
    3.7090  -21.4730  -40.0880 H   0  0  0  0  0  0  0  0  0  0  0  0
    1.3390  -20.5530  -39.7850 H   0  0  0  0  0  0  0  0  0  0  0  0
    2.5330  -19.3640  -40.4240 H   0  0  0  0  0  0  0  0  0  0  0  0
    3.1780  -17.5610  -39.0320 H   0  0  0  0  0  0  0  0  0  0  0  0
    1.6430  -15.7420  -38.3770 H   0  0  0  0  0  0  0  0  0  0  0  0
    2.6970  -16.4350  -37.1440 H   0  0  0  0  0  0  0  0  0  0  0  0
   -0.1030  -16.0850  -37.0010 H   0  0  0  0  0  0  0  0  0  0  0  0
    0.8860  -17.0170  -35.8780 H   0  0  0  0  0  0  0  0  0  0  0  0
   -2.1630  -17.9210  -36.6560 H   0  0  0  0  0  0  0  0  0  0  0  0
   -2.4890  -20.3240  -37.6860 H   0  0  0  0  0  0  0  0  0  0  0  0
    2.5630  -20.2850  -36.6400 H   0  0  0  0  0  0  0  0  0  0  0  0
    2.6630  -18.5290  -36.4090 H   0  0  0  0  0  0  0  0  0  0  0  0
    4.9280  -19.7340  -36.7540 H   0  0  0  0  0  0  0  0  0  0  0  0
    4.5480  -18.2150  -37.5990 H   0  0  0  0  0  0  0  0  0  0  0  0
  1  2  1  0  0  0  0
  2  3  2  0  0  0  0
  2  7  1  0  0  0  0
  3  4  1  0  0  0  0
  4  8  1  0  0  0  0
  4  5  2  0  0  0  0
  5 29  1  0  0  0  0
  6  5  1  0  0  0  0
  6 30  1  0  0  0  0
  7  6  2  0  0  0  0
  8 10  1  0  0  0  0
  9  8  2  0  0  0  0
 10 32  1  0  0  0  0
 10 11  1  0  0  0  0
 11 34  1  0  0  0  0
 11 12  1  0  0  0  0
 12 13  2  0  0  0  0
 12 14  1  0  0  0  0
 14 27  1  0  0  0  0
 15 14  1  0  0  0  0
 15 35  1  0  0  0  0
 16 15  1  0  0  0  0
 16 17  1  0  0  0  0
 17 25  1  0  0  0  0
 17 26  1  0  0  0  0
 18 17  1  0  0  0  0
 18 19  1  0  0  0  0
 19 41  1  0  0  0  0
 19 20  1  0  0  0  0
 20 43  1  0  0  0  0
 21 22  1  0  0  0  0
 21 20  1  0  0  0  0
 22 44  1  0  0  0  0
 23 22  1  0  0  0  0
 24 25  1  0  0  0  0
 24 23  2  0  0  0  0
 25 21  2  0  0  0  0
 26 46  1  0  0  0  0
 26 47  1  0  0  0  0
 27 26  1  0  0  0  0
 27 48  1  0  0  0  0
 28  3  1  0  0  0  0
 31  7  1  0  0  0  0
 33 11  1  0  0  0  0
 36 15  1  0  0  0  0
 37 16  1  0  0  0  0
 38 16  1  0  0  0  0
 39 18  1  0  0  0  0
 40 19  1  0  0  0  0
 42 20  1  0  0  0  0
 45 23  1  0  0  0  0
 49 27  1  0  0  0  0
M  END
>  <Pose>
1

>  <Score>
-4.90

$$$$
