
 OpenBabel03232221553D

 42 45  0  0  1  0  0  0  0  0999 V2000
   13.6230  -21.0730  -43.6770 B   0  0  0  0  0  0  0  0  0  0  0  0
   11.7460  -21.1540  -43.9650 C   0  0  0  0  0  0  0  0  0  0  0  0
   10.8970  -20.1450  -43.5820 C   0  0  0  0  0  0  0  0  0  0  0  0
    9.5380  -20.2130  -43.7710 C   0  0  0  0  0  0  0  0  0  0  0  0
    9.0020  -21.3270  -44.3650 C   0  0  0  0  0  0  0  0  0  0  0  0
    9.8250  -22.3710  -44.7680 C   0  0  0  0  0  0  0  0  0  0  0  0
   11.1730  -22.2710  -44.5650 C   0  0  0  0  0  0  0  0  0  0  0  0
    8.6300  -19.0840  -43.3340 C   0  0  0  0  0  0  0  0  0  0  0  0
    9.1090  -17.9590  -43.6750 O   0  0  0  0  0  0  0  0  0  0  0  0
    7.4700  -19.3810  -42.6630 N   0  0  0  0  0  0  0  0  0  0  0  0
    6.3500  -19.6650  -42.0090 C   0  0  2  0  0  0  0  0  0  0  0  0
    5.2690  -18.5260  -42.1040 C   0  0  0  0  0  0  0  0  0  0  0  0
    4.3320  -18.8690  -41.0900 N   0  0  0  0  0  0  0  0  0  0  0  0
    4.9730  -19.7520  -40.1260 C   0  0  1  0  0  0  0  0  0  0  0  0
    6.4090  -19.6810  -40.4500 C   0  0  0  0  0  0  0  0  0  0  0  0
    4.5680  -19.3920  -38.7580 C   0  0  0  0  0  0  0  0  0  0  0  0
    5.4110  -19.4170  -37.8450 O   0  0  0  0  0  0  0  0  0  0  0  0
    3.2320  -19.0230  -38.4830 N   0  0  0  0  0  0  0  0  0  0  0  0
    2.4570  -18.3370  -39.4930 C   0  0  2  0  0  0  0  0  0  0  0  0
    1.0270  -18.7960  -39.2910 C   0  0  0  0  0  0  0  0  0  0  0  0
    1.0670  -19.6500  -38.0720 C   0  0  0  0  0  0  0  0  0  0  0  0
    2.3300  -19.1640  -37.3450 C   0  0  0  0  0  0  0  0  0  0  0  0
    2.9700  -18.5360  -40.8450 C   0  0  0  0  0  0  0  0  0  0  0  0
    2.1860  -18.4120  -41.8500 O   0  0  0  0  0  0  0  0  0  0  0  0
   11.2910  -19.2520  -43.1140 H   0  0  0  0  0  0  0  0  0  0  0  0
    7.9550  -21.4480  -44.5360 H   0  0  0  0  0  0  0  0  0  0  0  0
    9.3670  -23.2480  -45.2410 H   0  0  0  0  0  0  0  0  0  0  0  0
   11.8390  -23.0800  -44.8750 H   0  0  0  0  0  0  0  0  0  0  0  0
    8.0690  -18.9780  -41.4900 H   0  0  0  0  0  0  0  0  0  0  0  0
    5.7100  -20.5660  -42.2310 H   0  0  0  0  0  0  0  0  0  0  0  0
    5.8250  -17.6030  -41.9540 H   0  0  0  0  0  0  0  0  0  0  0  0
    4.8740  -18.5580  -43.1310 H   0  0  0  0  0  0  0  0  0  0  0  0
    4.6290  -20.8050  -40.2850 H   0  0  0  0  0  0  0  0  0  0  0  0
    7.0150  -20.5510  -40.1320 H   0  0  0  0  0  0  0  0  0  0  0  0
    6.8890  -18.7300  -40.1720 H   0  0  0  0  0  0  0  0  0  0  0  0
    2.4240  -17.2230  -39.2820 H   0  0  0  0  0  0  0  0  0  0  0  0
    0.6910  -19.3840  -40.2000 H   0  0  0  0  0  0  0  0  0  0  0  0
    0.3230  -17.9630  -39.1150 H   0  0  0  0  0  0  0  0  0  0  0  0
    1.1920  -20.7120  -38.3920 H   0  0  0  0  0  0  0  0  0  0  0  0
    0.1710  -19.5590  -37.4220 H   0  0  0  0  0  0  0  0  0  0  0  0
    2.1120  -18.2250  -36.8430 H   0  0  0  0  0  0  0  0  0  0  0  0
    2.6090  -19.9320  -36.6320 H   0  0  0  0  0  0  0  0  0  0  0  0
  2  1  1  0  0  0  0
  2  3  1  0  0  0  0
  3 25  1  0  0  0  0
  4  3  2  0  0  0  0
  4  8  1  0  0  0  0
  5  4  1  0  0  0  0
  6  7  1  0  0  0  0
  6  5  2  0  0  0  0
  7  2  2  0  0  0  0
  8 10  1  0  0  0  0
  9  8  2  0  0  0  0
 10 11  1  0  0  0  0
 10 29  1  0  0  0  0
 11 30  1  6  0  0  0
 11 15  1  0  0  0  0
 12 11  1  0  0  0  0
 12 31  1  0  0  0  0
 12 13  1  0  0  0  0
 13 23  1  0  0  0  0
 13 14  1  0  0  0  0
 14 33  1  6  0  0  0
 14 16  1  0  0  0  0
 15 35  1  0  0  0  0
 15 34  1  0  0  0  0
 15 14  1  0  0  0  0
 16 18  1  0  0  0  0
 16 17  2  0  0  0  0
 18 22  1  0  0  0  0
 19 20  1  0  0  0  0
 19 36  1  1  0  0  0
 19 18  1  0  0  0  0
 20 38  1  0  0  0  0
 20 21  1  0  0  0  0
 21 40  1  0  0  0  0
 21 22  1  0  0  0  0
 22 41  1  0  0  0  0
 22 42  1  0  0  0  0
 23 19  1  0  0  0  0
 24 23  2  0  0  0  0
 26  5  1  0  0  0  0
 27  6  1  0  0  0  0
 28  7  1  0  0  0  0
 32 12  1  0  0  0  0
 37 20  1  0  0  0  0
 39 21  1  0  0  0  0
M  END
>  <Pose>
1

>  <Score>
-3.95

$$$$
