
 OpenBabel03232221553D

 42 45  0  0  1  0  0  0  0  0999 V2000
    6.8520  -19.3320  -37.8960 B   0  0  0  0  0  0  0  0  0  0  0  0
    5.0910  -19.8400  -38.3980 C   0  0  0  0  0  0  0  0  0  0  0  0
    4.8360  -20.6250  -39.4940 C   0  0  0  0  0  0  0  0  0  0  0  0
    3.5760  -21.0060  -39.8790 C   0  0  0  0  0  0  0  0  0  0  0  0
    2.5290  -20.5620  -39.1060 C   0  0  0  0  0  0  0  0  0  0  0  0
    2.7460  -19.7580  -37.9770 C   0  0  0  0  0  0  0  0  0  0  0  0
    4.0380  -19.3990  -37.6270 C   0  0  0  0  0  0  0  0  0  0  0  0
    3.3210  -21.8390  -41.0420 C   0  0  0  0  0  0  0  0  0  0  0  0
    2.4030  -21.4170  -41.8290 O   0  0  0  0  0  0  0  0  0  0  0  0
    3.9980  -23.0400  -41.3480 N   0  0  0  0  0  0  0  0  0  0  0  0
    3.8840  -23.6150  -42.6360 C   0  0  2  0  0  0  0  0  0  0  0  0
    2.7620  -24.5850  -42.8060 C   0  0  0  0  0  0  0  0  0  0  0  0
    3.1720  -25.3550  -43.9940 N   0  0  0  0  0  0  0  0  0  0  0  0
    4.5720  -25.0790  -44.2830 C   0  0  1  0  0  0  0  0  0  0  0  0
    5.0850  -24.5010  -43.0000 C   0  0  0  0  0  0  0  0  0  0  0  0
    5.2060  -26.3340  -44.6760 C   0  0  0  0  0  0  0  0  0  0  0  0
    6.3760  -26.5850  -44.3610 O   0  0  0  0  0  0  0  0  0  0  0  0
    4.4630  -27.2940  -45.4390 N   0  0  0  0  0  0  0  0  0  0  0  0
    3.2110  -26.8360  -45.9890 C   0  0  1  0  0  0  0  0  0  0  0  0
    2.5080  -27.9430  -46.6610 C   0  0  0  0  0  0  0  0  0  0  0  0
    3.6140  -28.9630  -46.8490 C   0  0  0  0  0  0  0  0  0  0  0  0
    4.6480  -28.6610  -45.8190 C   0  0  0  0  0  0  0  0  0  0  0  0
    2.4510  -26.2570  -44.8280 C   0  0  0  0  0  0  0  0  0  0  0  0
    1.2540  -26.5510  -44.6100 O   0  0  0  0  0  0  0  0  0  0  0  0
    5.6630  -20.9790  -40.1100 H   0  0  0  0  0  0  0  0  0  0  0  0
    1.5060  -20.8140  -39.3350 H   0  0  0  0  0  0  0  0  0  0  0  0
    1.9230  -19.4100  -37.3690 H   0  0  0  0  0  0  0  0  0  0  0  0
    4.1570  -18.7780  -36.7500 H   0  0  0  0  0  0  0  0  0  0  0  0
    4.5760  -23.4930  -40.6180 H   0  0  0  0  0  0  0  0  0  0  0  0
    3.8160  -22.8690  -43.4530 H   0  0  0  0  0  0  0  0  0  0  0  0
    2.7880  -25.2710  -41.9130 H   0  0  0  0  0  0  0  0  0  0  0  0
    1.7730  -24.1450  -42.9200 H   0  0  0  0  0  0  0  0  0  0  0  0
    4.5870  -24.3130  -45.1010 H   0  0  0  0  0  0  0  0  0  0  0  0
    5.2250  -25.3020  -42.2710 H   0  0  0  0  0  0  0  0  0  0  0  0
    5.9750  -23.8580  -43.1500 H   0  0  0  0  0  0  0  0  0  0  0  0
    3.4020  -25.9510  -46.6560 H   0  0  0  0  0  0  0  0  0  0  0  0
    2.2000  -27.6050  -47.6820 H   0  0  0  0  0  0  0  0  0  0  0  0
    1.6290  -28.3480  -46.1440 H   0  0  0  0  0  0  0  0  0  0  0  0
    4.0840  -28.8300  -47.8650 H   0  0  0  0  0  0  0  0  0  0  0  0
    3.1670  -29.9640  -46.7850 H   0  0  0  0  0  0  0  0  0  0  0  0
    4.5040  -29.3730  -44.9740 H   0  0  0  0  0  0  0  0  0  0  0  0
    5.6700  -28.8450  -46.2630 H   0  0  0  0  0  0  0  0  0  0  0  0
  2  1  1  0  0  0  0
  2  7  1  0  0  0  0
  3  2  2  0  0  0  0
  4  3  1  0  0  0  0
  4  5  2  0  0  0  0
  5  6  1  0  0  0  0
  6  7  2  0  0  0  0
  6 27  1  0  0  0  0
  7 28  1  0  0  0  0
  8  4  1  0  0  0  0
  9  8  2  0  0  0  0
 10  8  1  0  0  0  0
 10 29  1  0  0  0  0
 11 30  1  6  0  0  0
 11 10  1  0  0  0  0
 12 11  1  0  0  0  0
 12 31  1  0  0  0  0
 13 12  1  0  0  0  0
 14 33  1  6  0  0  0
 14 13  1  0  0  0  0
 14 15  1  0  0  0  0
 15 11  1  0  0  0  0
 15 34  1  0  0  0  0
 16 17  2  0  0  0  0
 16 14  1  0  0  0  0
 18 16  1  0  0  0  0
 19 36  1  6  0  0  0
 19 18  1  0  0  0  0
 19 23  1  0  0  0  0
 20 38  1  0  0  0  0
 20 19  1  0  0  0  0
 21 40  1  0  0  0  0
 21 20  1  0  0  0  0
 21 22  1  0  0  0  0
 22 18  1  0  0  0  0
 22 41  1  0  0  0  0
 23 24  2  0  0  0  0
 23 13  1  0  0  0  0
 25  3  1  0  0  0  0
 26  5  1  0  0  0  0
 32 12  1  0  0  0  0
 35 15  1  0  0  0  0
 37 20  1  0  0  0  0
 39 21  1  0  0  0  0
 42 22  1  0  0  0  0
M  END
>  <Pose>
1

>  <Score>
-4.28

$$$$
