
 OpenBabel03232221553D

 44 47  0  0  0  0  0  0  0  0999 V2000
    7.9860  -18.5450  -43.5890 B   0  0  0  0  0  0  0  0  0  0  0  0
    9.1000  -20.0660  -43.8830 C   0  0  0  0  0  0  0  0  0  0  0  0
    8.4880  -21.3260  -43.9240 C   0  0  0  0  0  0  0  0  0  0  0  0
    9.2270  -22.4960  -44.1540 C   0  0  0  0  0  0  0  0  0  0  0  0
   10.5750  -22.3550  -44.3260 C   0  0  0  0  0  0  0  0  0  0  0  0
   11.2160  -21.0980  -44.2890 C   0  0  0  0  0  0  0  0  0  0  0  0
   10.4300  -19.9380  -44.0590 C   0  0  0  0  0  0  0  0  0  0  0  0
    8.5130  -23.7300  -44.5770 C   0  0  0  0  0  0  0  0  0  0  0  0
    7.2730  -23.9700  -44.1340 C   0  0  0  0  0  0  0  0  0  0  0  0
    6.5670  -23.1990  -43.3080 O   0  0  0  0  0  0  0  0  0  0  0  0
    5.2850  -23.7660  -43.0950 C   0  0  0  0  0  0  0  0  0  0  0  0
    5.1450  -24.9200  -43.7900 C   0  0  0  0  0  0  0  0  0  0  0  0
    3.9110  -25.5640  -43.7480 C   0  0  0  0  0  0  0  0  0  0  0  0
    2.8910  -25.0550  -43.0080 C   0  0  0  0  0  0  0  0  0  0  0  0
    3.0750  -23.8940  -42.2850 C   0  0  0  0  0  0  0  0  0  0  0  0
    4.2620  -23.2010  -42.2850 C   0  0  0  0  0  0  0  0  0  0  0  0
    4.7650  -22.2880  -41.2790 C   0  0  0  0  0  0  0  0  0  0  0  0
    4.9440  -22.1700  -39.9490 N   0  0  0  0  0  4  0  0  0  0  0  0
    6.0320  -21.5960  -39.2870 C   0  0  0  0  0  0  0  0  0  0  0  0
    5.8170  -20.1190  -38.8900 C   0  0  0  0  0  0  0  0  0  0  0  0
    4.8300  -19.9450  -37.9500 O   0  0  0  0  0  0  0  0  0  0  0  0
    3.7680  -20.8170  -38.2180 C   0  0  0  0  0  0  0  0  0  0  0  0
    3.7320  -21.2670  -39.5830 C   0  0  0  0  0  0  0  0  0  0  0  0
    2.0010  -23.4160  -41.5310 O   0  0  0  0  0  0  0  0  0  0  0  0
    6.4330  -25.1200  -44.4950 C   0  0  0  0  0  0  0  0  0  0  0  0
    6.7390  -26.0730  -45.2350 O   0  0  0  0  0  0  0  0  0  0  0  0
    7.4530  -21.3490  -43.8160 H   0  0  0  0  0  0  0  0  0  0  0  0
   11.2110  -23.1790  -44.5100 H   0  0  0  0  0  0  0  0  0  0  0  0
   12.2580  -20.9180  -44.4280 H   0  0  0  0  0  0  0  0  0  0  0  0
   10.8920  -18.9780  -44.0460 H   0  0  0  0  0  0  0  0  0  0  0  0
    8.9820  -24.4520  -45.2050 H   0  0  0  0  0  0  0  0  0  0  0  0
    3.7840  -26.4630  -44.2920 H   0  0  0  0  0  0  0  0  0  0  0  0
    1.9000  -25.5620  -42.9840 H   0  0  0  0  0  0  0  0  0  0  0  0
    6.0250  -22.4230  -41.6240 H   0  0  0  0  0  0  0  0  0  0  0  0
    4.7890  -21.2020  -41.8230 H   0  0  0  0  0  0  0  0  0  0  0  0
    4.6900  -23.1110  -39.4640 H   0  0  0  0  0  0  0  0  0  0  0  0
    6.9980  -21.6540  -39.8170 H   0  0  0  0  0  0  0  0  0  0  0  0
    6.2040  -22.1150  -38.2530 H   0  0  0  0  0  0  0  0  0  0  0  0
    5.6930  -19.5190  -39.8150 H   0  0  0  0  0  0  0  0  0  0  0  0
    6.7870  -19.8280  -38.3840 H   0  0  0  0  0  0  0  0  0  0  0  0
    3.6590  -21.6500  -37.5180 H   0  0  0  0  0  0  0  0  0  0  0  0
    2.8170  -20.1910  -38.0840 H   0  0  0  0  0  0  0  0  0  0  0  0
    3.8410  -20.4360  -40.3680 H   0  0  0  0  0  0  0  0  0  0  0  0
    2.9020  -21.8660  -39.8370 H   0  0  0  0  0  0  0  0  0  0  0  0
  2  1  1  0  0  0  0
  3  2  1  0  0  0  0
  3 27  1  0  0  0  0
  4  3  2  0  0  0  0
  5  6  2  0  0  0  0
  5  4  1  0  0  0  0
  6  7  1  0  0  0  0
  7 30  1  0  0  0  0
  7  2  2  0  0  0  0
  8  4  1  0  0  0  0
  8  9  2  0  0  0  0
  9 10  1  0  0  0  0
 10 11  1  0  0  0  0
 11 16  1  0  0  0  0
 12 13  1  0  0  0  0
 12 11  2  0  0  0  0
 13 14  2  0  0  0  0
 14 33  1  0  0  0  0
 14 15  1  0  0  0  0
 15 24  1  0  0  0  0
 16 15  2  0  0  0  0
 16 17  1  0  0  0  0
 17 18  1  0  0  0  0
 18 23  1  0  0  0  0
 18 36  1  0  0  0  0
 18 19  1  0  0  0  0
 19 20  1  0  0  0  0
 19 38  1  0  0  0  0
 20 40  1  0  0  0  0
 20 21  1  0  0  0  0
 22 42  1  0  0  0  0
 22 21  1  0  0  0  0
 22 41  1  0  0  0  0
 23 22  1  0  0  0  0
 25  9  1  0  0  0  0
 25 12  1  0  0  0  0
 26 25  2  0  0  0  0
 28  5  1  0  0  0  0
 29  6  1  0  0  0  0
 31  8  1  0  0  0  0
 32 13  1  0  0  0  0
 34 17  1  0  0  0  0
 35 17  1  0  0  0  0
 37 19  1  0  0  0  0
 39 20  1  0  0  0  0
 43 23  1  0  0  0  0
 44 23  1  0  0  0  0
M  END
>  <Pose>
1

>  <Score>
-4.26

$$$$
