
 OpenBabel03232221553D

 50 53  0  0  0  0  0  0  0  0999 V2000
   11.0250  -26.4090  -42.1900 B   0  0  0  0  0  0  0  0  0  0  0  0
    9.6450  -26.0440  -43.4670 C   0  0  0  0  0  0  0  0  0  0  0  0
    8.3190  -26.0670  -43.1110 C   0  0  0  0  0  0  0  0  0  0  0  0
    7.2870  -25.8110  -43.9970 C   0  0  0  0  0  0  0  0  0  0  0  0
    7.6500  -25.5200  -45.2950 C   0  0  0  0  0  0  0  0  0  0  0  0
    8.9840  -25.4870  -45.6950 C   0  0  0  0  0  0  0  0  0  0  0  0
    9.9760  -25.7510  -44.7740 C   0  0  0  0  0  0  0  0  0  0  0  0
    5.8890  -25.8420  -43.5870 C   0  0  0  0  0  0  0  0  0  0  0  0
    5.2380  -24.8100  -43.2170 N   0  0  0  0  0  0  0  0  0  0  0  0
    3.8990  -24.8120  -42.8170 N   0  0  0  0  0  0  0  0  0  0  0  0
    3.2930  -23.6570  -42.2470 C   0  0  0  0  0  0  0  0  0  0  0  0
    1.9860  -23.4340  -42.4140 N   0  0  0  0  0  4  0  0  0  0  0  0
    1.3450  -22.3500  -41.8960 C   0  0  0  0  0  0  0  0  0  0  0  0
    2.1200  -21.4970  -41.1910 N   0  0  0  0  0  0  0  0  0  0  0  0
    3.4370  -21.6660  -40.9890 C   0  0  0  0  0  0  0  0  0  0  0  0
    3.9940  -22.7730  -41.5410 N   0  0  0  0  0  0  0  0  0  0  0  0
    4.2210  -20.7630  -40.2510 N   0  0  0  0  0  0  0  0  0  0  0  0
    4.7070  -21.0730  -38.9330 C   0  0  0  0  0  0  0  0  0  0  0  0
    6.1170  -20.4730  -38.8560 C   0  0  0  0  0  0  0  0  0  0  0  0
    6.6800  -20.3950  -40.1270 O   0  0  0  0  0  0  0  0  0  0  0  0
    6.0890  -19.4680  -40.9480 C   0  0  0  0  0  0  0  0  0  0  0  0
    4.5600  -19.4850  -40.8080 C   0  0  0  0  0  0  0  0  0  0  0  0
   -0.0380  -22.1360  -42.0860 N   0  0  0  0  0  0  0  0  0  0  0  0
   -0.9620  -23.2350  -42.0590 C   0  0  0  0  0  0  0  0  0  0  0  0
   -2.0340  -22.8880  -41.0330 C   0  0  0  0  0  0  0  0  0  0  0  0
   -2.6320  -21.7110  -41.4770 O   0  0  0  0  0  0  0  0  0  0  0  0
   -1.7750  -20.6280  -41.4070 C   0  0  0  0  0  0  0  0  0  0  0  0
   -0.5600  -20.8160  -42.3100 C   0  0  0  0  0  0  0  0  0  0  0  0
    8.0260  -26.2950  -42.0840 H   0  0  0  0  0  0  0  0  0  0  0  0
    6.8930  -25.3080  -46.0490 H   0  0  0  0  0  0  0  0  0  0  0  0
    9.2740  -25.2610  -46.7120 H   0  0  0  0  0  0  0  0  0  0  0  0
   10.9990  -25.7200  -45.1030 H   0  0  0  0  0  0  0  0  0  0  0  0
    5.3810  -26.7950  -43.5980 H   0  0  0  0  0  0  0  0  0  0  0  0
    3.3500  -25.6860  -42.9460 H   0  0  0  0  0  0  0  0  0  0  0  0
    4.7330  -22.1600  -38.7260 H   0  0  0  0  0  0  0  0  0  0  0  0
    4.0950  -20.5110  -38.2080 H   0  0  0  0  0  0  0  0  0  0  0  0
    6.7240  -21.1890  -38.2810 H   0  0  0  0  0  0  0  0  0  0  0  0
    6.1130  -19.4920  -38.3670 H   0  0  0  0  0  0  0  0  0  0  0  0
    6.4860  -18.4550  -40.8660 H   0  0  0  0  0  0  0  0  0  0  0  0
    6.2780  -19.7990  -42.0110 H   0  0  0  0  0  0  0  0  0  0  0  0
    4.0750  -19.3720  -41.7810 H   0  0  0  0  0  0  0  0  0  0  0  0
    4.2740  -18.6460  -40.1040 H   0  0  0  0  0  0  0  0  0  0  0  0
   -0.4870  -24.2050  -41.8430 H   0  0  0  0  0  0  0  0  0  0  0  0
   -1.4910  -23.2410  -43.0510 H   0  0  0  0  0  0  0  0  0  0  0  0
   -1.5060  -22.6540  -40.0940 H   0  0  0  0  0  0  0  0  0  0  0  0
   -2.7910  -23.6680  -40.9400 H   0  0  0  0  0  0  0  0  0  0  0  0
   -1.4670  -20.5300  -40.3370 H   0  0  0  0  0  0  0  0  0  0  0  0
   -2.3450  -19.7330  -41.7270 H   0  0  0  0  0  0  0  0  0  0  0  0
   -0.9360  -20.7490  -43.3520 H   0  0  0  0  0  0  0  0  0  0  0  0
    0.1620  -20.0110  -42.0970 H   0  0  0  0  0  0  0  0  0  0  0  0
  2  3  1  0  0  0  0
  2  1  1  0  0  0  0
  3 29  1  0  0  0  0
  4  8  1  0  0  0  0
  4  3  2  0  0  0  0
  5  4  1  0  0  0  0
  6  5  2  0  0  0  0
  6  7  1  0  0  0  0
  7  2  2  0  0  0  0
  8  9  2  0  0  0  0
  9 10  1  0  0  0  0
 10 11  1  0  0  0  0
 11 16  1  0  0  0  0
 12 11  2  0  0  0  0
 12 13  2  0  0  0  0
 13 14  1  0  0  0  0
 14 15  2  0  0  0  0
 15 17  1  0  0  0  0
 16 15  1  0  0  0  0
 17 18  1  0  0  0  0
 18 19  1  0  0  0  0
 18 35  1  0  0  0  0
 18 36  1  0  0  0  0
 19 38  1  0  0  0  0
 19 37  1  0  0  0  0
 20 19  1  0  0  0  0
 21 39  1  0  0  0  0
 21 22  1  0  0  0  0
 21 20  1  0  0  0  0
 22 17  1  0  0  0  0
 22 42  1  0  0  0  0
 23 24  1  0  0  0  0
 23 13  1  0  0  0  0
 24 43  1  0  0  0  0
 24 25  1  0  0  0  0
 25 46  1  0  0  0  0
 25 45  1  0  0  0  0
 26 27  1  0  0  0  0
 26 25  1  0  0  0  0
 27 47  1  0  0  0  0
 28 50  1  0  0  0  0
 28 23  1  0  0  0  0
 28 27  1  0  0  0  0
 30  5  1  0  0  0  0
 31  6  1  0  0  0  0
 32  7  1  0  0  0  0
 33  8  1  0  0  0  0
 34 10  1  0  0  0  0
 40 21  1  0  0  0  0
 41 22  1  0  0  0  0
 44 24  1  0  0  0  0
 48 27  1  0  0  0  0
 49 28  1  0  0  0  0
M  END
>  <Pose>
1

>  <Score>
-4.26

$$$$
