
 OpenBabel03232221553D

 63 66  0  0  1  0  0  0  0  0999 V2000
   -0.5560  -22.5080  -43.0500 B   0  0  0  0  0  0  0  0  0  0  0  0
   -0.9540  -21.1320  -41.7900 C   0  0  0  0  0  0  0  0  0  0  0  0
   -0.0960  -20.9000  -40.7360 C   0  0  0  0  0  0  0  0  0  0  0  0
   -0.3420  -19.9100  -39.7930 C   0  0  0  0  0  0  0  0  0  0  0  0
   -1.5020  -19.1750  -39.9830 C   0  0  0  0  0  0  0  0  0  0  0  0
   -2.3660  -19.3990  -41.0340 C   0  0  0  0  0  0  0  0  0  0  0  0
   -2.1010  -20.3880  -41.9570 C   0  0  0  0  0  0  0  0  0  0  0  0
    0.5900  -19.6600  -38.6680 C   0  0  2  0  0  0  0  0  0  0  0  0
    0.3680  -18.3110  -38.1830 N   0  0  0  0  0  0  0  0  0  0  0  0
    0.9950  -17.4450  -39.1180 C   0  0  0  0  0  0  0  0  0  0  0  0
    0.7110  -16.2500  -39.3560 O   0  0  0  0  0  0  0  0  0  0  0  0
    2.0650  -18.2270  -39.7750 C   0  0  0  0  0  0  0  0  0  0  0  0
    2.8580  -17.8350  -40.6590 O   0  0  0  0  0  0  0  0  0  0  0  0
    2.0040  -19.5520  -39.1730 C   0  0  0  0  0  0  0  0  0  0  0  0
    2.9890  -20.3910  -39.0790 C   0  0  0  0  0  0  0  0  0  0  0  0
    2.7620  -21.6090  -38.4040 O   0  0  0  0  0  0  0  0  0  0  0  0
    4.3280  -20.1930  -39.6160 C   0  0  0  0  0  0  0  0  0  0  0  0
    5.4920  -19.7530  -39.0820 C   0  0  0  0  0  0  0  0  0  0  0  0
    6.4460  -19.8240  -40.0340 N   0  0  0  0  0  0  0  0  0  0  0  0
    5.9490  -20.2960  -41.1850 C   0  0  0  0  0  0  0  0  0  0  0  0
    4.6220  -20.5360  -40.9510 C   0  0  0  0  0  0  0  0  0  0  0  0
    3.6520  -21.0730  -41.9530 C   0  0  0  0  0  0  0  0  0  0  0  0
    6.6820  -20.5130  -42.4480 C   0  0  0  0  0  0  0  0  0  0  0  0
    6.3760  -21.4750  -43.1680 O   0  0  0  0  0  0  0  0  0  0  0  0
    7.6990  -19.6580  -42.8300 O   0  0  0  0  0  0  0  0  0  0  0  0
    7.4990  -18.3050  -43.1680 C   0  0  0  0  0  0  0  0  0  0  0  0
    5.7290  -19.2190  -37.6990 C   0  0  0  0  0  0  0  0  0  0  0  0
   -0.3520  -17.9090  -36.9720 C   0  0  0  0  0  0  0  0  0  0  0  0
   -1.5170  -18.8340  -36.6970 C   0  0  0  0  0  0  0  0  0  0  0  0
   -2.7610  -18.3680  -37.2160 N   0  0  0  0  0  4  0  0  0  0  0  0
   -3.4900  -17.4940  -36.3040 C   0  0  0  0  0  0  0  0  0  0  0  0
   -4.5030  -16.7350  -37.1170 C   0  0  0  0  0  0  0  0  0  0  0  0
   -4.7860  -17.4370  -38.2630 O   0  0  0  0  0  0  0  0  0  0  0  0
   -4.9440  -18.7990  -38.0740 C   0  0  0  0  0  0  0  0  0  0  0  0
   -3.6810  -19.4570  -37.5200 C   0  0  0  0  0  0  0  0  0  0  0  0
    0.8020  -21.4940  -40.6050 H   0  0  0  0  0  0  0  0  0  0  0  0
   -1.7150  -18.3930  -39.2560 H   0  0  0  0  0  0  0  0  0  0  0  0
   -3.2720  -18.8140  -41.1690 H   0  0  0  0  0  0  0  0  0  0  0  0
   -2.7830  -20.5750  -42.7990 H   0  0  0  0  0  0  0  0  0  0  0  0
    0.5090  -20.4230  -37.8740 H   0  0  0  0  0  0  0  0  0  0  0  0
    7.4560  -19.5380  -39.8820 H   0  0  0  0  0  0  0  0  0  0  0  0
    3.7080  -20.4980  -42.9000 H   0  0  0  0  0  0  0  0  0  0  0  0
    2.6280  -20.9410  -41.5660 H   0  0  0  0  0  0  0  0  0  0  0  0
    3.8430  -22.1280  -42.1980 H   0  0  0  0  0  0  0  0  0  0  0  0
    6.7750  -17.7960  -42.4930 H   0  0  0  0  0  0  0  0  0  0  0  0
    7.1980  -18.1890  -44.2440 H   0  0  0  0  0  0  0  0  0  0  0  0
    8.4980  -17.8060  -43.0680 H   0  0  0  0  0  0  0  0  0  0  0  0
    6.2830  -19.9410  -37.0760 H   0  0  0  0  0  0  0  0  0  0  0  0
    4.7740  -18.9430  -37.2310 H   0  0  0  0  0  0  0  0  0  0  0  0
    6.3580  -18.2870  -37.8620 H   0  0  0  0  0  0  0  0  0  0  0  0
    0.3220  -17.9160  -36.0900 H   0  0  0  0  0  0  0  0  0  0  0  0
   -0.7880  -16.8950  -37.1060 H   0  0  0  0  0  0  0  0  0  0  0  0
   -1.5720  -18.9970  -35.5790 H   0  0  0  0  0  0  0  0  0  0  0  0
   -1.3310  -19.8380  -37.1150 H   0  0  0  0  0  0  0  0  0  0  0  0
   -2.5980  -17.8830  -38.1160 H   0  0  0  0  0  0  0  0  0  0  0  0
   -4.0720  -18.1760  -35.6190 H   0  0  0  0  0  0  0  0  0  0  0  0
   -2.8510  -16.8790  -35.6730 H   0  0  0  0  0  0  0  0  0  0  0  0
   -5.4380  -16.5190  -36.5700 H   0  0  0  0  0  0  0  0  0  0  0  0
   -4.0840  -15.7420  -37.4290 H   0  0  0  0  0  0  0  0  0  0  0  0
   -5.0950  -19.2340  -39.1030 H   0  0  0  0  0  0  0  0  0  0  0  0
   -5.8400  -19.0630  -37.4780 H   0  0  0  0  0  0  0  0  0  0  0  0
   -3.2610  -20.1910  -38.2090 H   0  0  0  0  0  0  0  0  0  0  0  0
   -3.9790  -19.9430  -36.5550 H   0  0  0  0  0  0  0  0  0  0  0  0
  1  2  1  0  0  0  0
  2  3  1  0  0  0  0
  3 36  1  0  0  0  0
  3  4  2  0  0  0  0
  4  8  1  0  0  0  0
  5  4  1  0  0  0  0
  5 37  1  0  0  0  0
  6  5  2  0  0  0  0
  7  2  2  0  0  0  0
  7  6  1  0  0  0  0
  8  9  1  0  0  0  0
  8 40  1  1  0  0  0
  9 28  1  0  0  0  0
 10  9  1  0  0  0  0
 11 10  2  0  0  0  0
 12 14  1  0  0  0  0
 12 10  1  0  0  0  0
 13 12  2  0  0  0  0
 14 15  2  0  0  0  0
 14  8  1  0  0  0  0
 15 16  1  0  0  0  0
 17 18  2  0  0  0  0
 17 15  1  0  0  0  0
 18 27  1  0  0  0  0
 19 41  1  0  0  0  0
 19 18  1  0  0  0  0
 20 21  2  0  0  0  0
 20 19  1  0  0  0  0
 21 17  1  0  0  0  0
 22 43  1  0  0  0  0
 22 21  1  0  0  0  0
 23 20  1  0  0  0  0
 24 23  2  0  0  0  0
 25 23  1  0  0  0  0
 26 47  1  0  0  0  0
 26 25  1  0  0  0  0
 26 45  1  0  0  0  0
 27 49  1  0  0  0  0
 27 48  1  0  0  0  0
 28 29  1  0  0  0  0
 28 51  1  0  0  0  0
 29 53  1  0  0  0  0
 30 29  1  0  0  0  0
 30 31  1  0  0  0  0
 31 57  1  0  0  0  0
 31 56  1  0  0  0  0
 32 58  1  0  0  0  0
 32 31  1  0  0  0  0
 33 34  1  0  0  0  0
 33 32  1  0  0  0  0
 34 35  1  0  0  0  0
 34 61  1  0  0  0  0
 35 30  1  0  0  0  0
 35 63  1  0  0  0  0
 38  6  1  0  0  0  0
 39  7  1  0  0  0  0
 42 22  1  0  0  0  0
 44 22  1  0  0  0  0
 46 26  1  0  0  0  0
 50 27  1  0  0  0  0
 52 28  1  0  0  0  0
 54 29  1  0  0  0  0
 55 30  1  0  0  0  0
 59 32  1  0  0  0  0
 60 34  1  0  0  0  0
 62 35  1  0  0  0  0
M  END
>  <Pose>
1

>  <Score>
-3.71

$$$$
