
 OpenBabel03232221553D

 56 59  0  0  1  0  0  0  0  0999 V2000
   -3.0940  -18.4140  -40.6950 B   0  0  0  0  0  0  0  0  0  0  0  0
   -1.7050  -19.2270  -39.6840 C   0  0  0  0  0  0  0  0  0  0  0  0
   -0.4190  -18.7070  -39.6250 C   0  0  0  0  0  0  0  0  0  0  0  0
    0.5820  -19.3030  -38.8930 C   0  0  0  0  0  0  0  0  0  0  0  0
    0.2830  -20.4450  -38.2110 C   0  0  0  0  0  0  0  0  0  0  0  0
   -1.0120  -20.9790  -38.2630 C   0  0  0  0  0  0  0  0  0  0  0  0
   -2.0120  -20.3810  -38.9950 C   0  0  0  0  0  0  0  0  0  0  0  0
    1.9410  -18.7050  -38.8600 C   0  0  1  0  0  0  0  0  0  0  0  0
    2.4300  -18.6170  -37.4940 N   0  0  0  0  0  0  0  0  0  0  0  0
    3.1780  -19.8240  -37.2390 C   0  0  0  0  0  0  0  0  0  0  0  0
    3.4690  -20.2580  -36.0970 O   0  0  0  0  0  0  0  0  0  0  0  0
    3.5070  -20.3990  -38.5260 C   0  0  0  0  0  0  0  0  0  0  0  0
    4.1540  -21.4650  -38.7680 O   0  0  0  0  0  0  0  0  0  0  0  0
    2.9520  -19.5260  -39.5520 C   0  0  0  0  0  0  0  0  0  0  0  0
    3.2910  -19.5350  -40.8330 C   0  0  0  0  0  0  0  0  0  0  0  0
    2.5620  -18.6260  -41.6270 O   0  0  0  0  0  0  0  0  0  0  0  0
    4.3170  -20.3840  -41.4150 C   0  0  0  0  0  0  0  0  0  0  0  0
    4.3000  -21.7590  -41.4280 C   0  0  0  0  0  0  0  0  0  0  0  0
    5.2880  -22.5130  -42.0270 C   0  0  0  0  0  0  0  0  0  0  0  0
    6.3550  -21.9040  -42.6470 C   0  0  0  0  0  0  0  0  0  0  0  0
    6.3900  -20.5230  -42.6430 C   0  0  0  0  0  0  0  0  0  0  0  0
    5.3950  -19.7770  -42.0410 C   0  0  0  0  0  0  0  0  0  0  0  0
    7.6320  -22.8470  -43.4210 Cl  0  0  0  0  0  0  0  0  0  0  0  0
    2.1260  -17.5780  -36.5650 C   0  0  0  0  0  0  0  0  0  0  0  0
    1.4880  -16.3400  -37.0490 C   0  0  0  0  0  0  0  0  0  0  0  0
    0.8090  -15.4290  -36.0960 C   0  0  0  0  0  0  0  0  0  0  0  0
    0.3220  -14.1830  -36.5830 N   0  0  0  0  0  4  0  0  0  0  0  0
    1.1340  -13.0920  -36.1080 C   0  0  0  0  0  0  0  0  0  0  0  0
    2.2450  -12.7120  -37.0640 C   0  0  0  0  0  0  0  0  0  0  0  0
    1.7060  -12.2030  -38.2470 O   0  0  0  0  0  0  0  0  0  0  0  0
    0.4170  -12.6950  -38.4580 C   0  0  0  0  0  0  0  0  0  0  0  0
    0.4300  -14.1480  -38.0750 C   0  0  0  0  0  0  0  0  0  0  0  0
   -0.2070  -17.8040  -40.1720 H   0  0  0  0  0  0  0  0  0  0  0  0
    1.0280  -20.9420  -37.6300 H   0  0  0  0  0  0  0  0  0  0  0  0
   -1.2530  -21.8750  -37.7270 H   0  0  0  0  0  0  0  0  0  0  0  0
   -3.0230  -20.7940  -39.0380 H   0  0  0  0  0  0  0  0  0  0  0  0
    1.8810  -17.6680  -39.2520 H   0  0  0  0  0  0  0  0  0  0  0  0
    3.4950  -22.2810  -40.9370 H   0  0  0  0  0  0  0  0  0  0  0  0
    5.2700  -23.5960  -42.0370 H   0  0  0  0  0  0  0  0  0  0  0  0
    7.2380  -20.0620  -43.1350 H   0  0  0  0  0  0  0  0  0  0  0  0
    5.4350  -18.6890  -42.0440 H   0  0  0  0  0  0  0  0  0  0  0  0
    3.1210  -17.2970  -36.0820 H   0  0  0  0  0  0  0  0  0  0  0  0
    1.4860  -18.0400  -35.7310 H   0  0  0  0  0  0  0  0  0  0  0  0
    0.7660  -16.5720  -37.9210 H   0  0  0  0  0  0  0  0  0  0  0  0
    2.2800  -15.6900  -37.5800 H   0  0  0  0  0  0  0  0  0  0  0  0
    1.4730  -15.1900  -35.2180 H   0  0  0  0  0  0  0  0  0  0  0  0
   -0.0780  -15.9630  -35.6110 H   0  0  0  0  0  0  0  0  0  0  0  0
   -0.6740  -14.0520  -36.4210 H   0  0  0  0  0  0  0  0  0  0  0  0
    1.5900  -13.3560  -35.1310 H   0  0  0  0  0  0  0  0  0  0  0  0
    0.5050  -12.1980  -35.9490 H   0  0  0  0  0  0  0  0  0  0  0  0
    2.8940  -13.5940  -37.2370 H   0  0  0  0  0  0  0  0  0  0  0  0
    2.8490  -11.9360  -36.5910 H   0  0  0  0  0  0  0  0  0  0  0  0
   -0.2730  -12.1130  -37.8240 H   0  0  0  0  0  0  0  0  0  0  0  0
    0.1610  -12.5410  -39.5290 H   0  0  0  0  0  0  0  0  0  0  0  0
    1.3940  -14.6270  -38.3430 H   0  0  0  0  0  0  0  0  0  0  0  0
   -0.4510  -14.6700  -38.4950 H   0  0  0  0  0  0  0  0  0  0  0  0
  1  2  1  0  0  0  0
  2  3  2  0  0  0  0
  2  7  1  0  0  0  0
  3  4  1  0  0  0  0
  4  8  1  0  0  0  0
  4  5  2  0  0  0  0
  5 34  1  0  0  0  0
  6  5  1  0  0  0  0
  6 35  1  0  0  0  0
  7  6  2  0  0  0  0
  8 37  1  6  0  0  0
  8  9  1  0  0  0  0
  9 10  1  0  0  0  0
  9 24  1  0  0  0  0
 10 11  2  0  0  0  0
 12 10  1  0  0  0  0
 13 12  2  0  0  0  0
 14  8  1  0  0  0  0
 14 12  1  0  0  0  0
 15 14  2  0  0  0  0
 16 15  1  0  0  0  0
 17 15  1  0  0  0  0
 18 17  1  0  0  0  0
 18 38  1  0  0  0  0
 19 18  2  0  0  0  0
 20 21  2  0  0  0  0
 20 19  1  0  0  0  0
 21 22  1  0  0  0  0
 22 17  2  0  0  0  0
 23 20  1  0  0  0  0
 24 42  1  0  0  0  0
 24 43  1  0  0  0  0
 25 24  1  0  0  0  0
 25 26  1  0  0  0  0
 26 47  1  0  0  0  0
 26 46  1  0  0  0  0
 27 48  1  0  0  0  0
 27 28  1  0  0  0  0
 27 26  1  0  0  0  0
 28 50  1  0  0  0  0
 28 49  1  0  0  0  0
 29 52  1  0  0  0  0
 29 28  1  0  0  0  0
 30 29  1  0  0  0  0
 31 30  1  0  0  0  0
 31 32  1  0  0  0  0
 31 53  1  0  0  0  0
 32 27  1  0  0  0  0
 33  3  1  0  0  0  0
 36  7  1  0  0  0  0
 39 19  1  0  0  0  0
 40 21  1  0  0  0  0
 41 22  1  0  0  0  0
 44 25  1  0  0  0  0
 45 25  1  0  0  0  0
 51 29  1  0  0  0  0
 54 31  1  0  0  0  0
 55 32  1  0  0  0  0
 56 32  1  0  0  0  0
M  END
>  <Pose>
1

>  <Score>
-3.86

$$$$
