
 OpenBabel03232221553D

 62 66  0  0  1  0  0  0  0  0999 V2000
    8.4970  -26.0650  -43.6880 B   0  0  0  0  0  0  0  0  0  0  0  0
    7.2020  -24.7110  -44.0890 C   0  0  0  0  0  0  0  0  0  0  0  0
    7.4100  -23.4080  -43.7200 C   0  0  0  0  0  0  0  0  0  0  0  0
    6.4910  -22.3740  -43.9890 C   0  0  0  0  0  0  0  0  0  0  0  0
    5.3670  -22.8050  -44.6590 C   0  0  0  0  0  0  0  0  0  0  0  0
    5.1380  -24.1100  -45.0400 C   0  0  0  0  0  0  0  0  0  0  0  0
    6.0660  -25.0850  -44.7540 C   0  0  0  0  0  0  0  0  0  0  0  0
    6.7990  -21.0380  -43.5760 C   0  0  2  0  0  0  0  0  0  0  0  0
    8.1330  -20.5500  -43.6120 N   0  0  0  0  0  0  0  0  0  0  0  0
    8.0200  -19.2150  -43.0160 C   0  0  0  0  0  0  0  0  0  0  0  0
    8.7610  -18.2450  -43.2430 O   0  0  0  0  0  0  0  0  0  0  0  0
    6.8640  -19.2680  -42.1060 C   0  0  0  0  0  0  0  0  0  0  0  0
    6.4060  -18.3540  -41.3830 O   0  0  0  0  0  0  0  0  0  0  0  0
    6.3490  -20.6310  -42.2120 C   0  0  0  0  0  0  0  0  0  0  0  0
    5.7010  -21.3010  -41.2940 C   0  0  0  0  0  0  0  0  0  0  0  0
    5.3540  -22.6350  -41.5980 O   0  0  0  0  0  0  0  0  0  0  0  0
    5.3290  -20.7290  -40.0090 C   0  0  0  0  0  0  0  0  0  0  0  0
    4.1380  -20.4130  -39.4820 N   0  0  0  0  0  0  0  0  0  0  0  0
    4.3100  -19.8670  -38.2740 C   0  0  0  0  0  0  0  0  0  0  0  0
    5.6470  -19.8390  -38.0320 N   0  0  0  0  0  0  0  0  0  0  0  0
    6.3090  -20.3610  -39.0730 C   0  0  0  0  0  0  0  0  0  0  0  0
    7.7850  -20.5170  -39.2120 C   0  0  0  0  0  0  0  0  0  0  0  0
    3.2310  -19.4580  -37.4950 C   0  0  0  0  0  0  0  0  0  0  0  0
    1.9670  -19.6430  -38.0210 C   0  0  0  0  0  0  0  0  0  0  0  0
    1.8230  -20.2110  -39.2730 C   0  0  0  0  0  0  0  0  0  0  0  0
    2.9030  -20.6060  -40.0250 C   0  0  0  0  0  0  0  0  0  0  0  0
    3.4820  -18.8570  -36.1620 C   0  0  0  0  0  0  0  0  0  0  0  0
    9.3940  -21.0630  -44.1170 C   0  0  0  0  0  0  0  0  0  0  0  0
   10.0750  -20.1990  -45.1220 C   0  0  0  0  0  0  0  0  0  0  0  0
   11.5210  -20.2740  -45.0430 N   0  0  0  0  0  4  0  0  0  0  0  0
   12.1350  -19.0060  -45.3710 C   0  0  0  0  0  0  0  0  0  0  0  0
   11.9140  -18.0170  -44.2220 C   0  0  0  0  0  0  0  0  0  0  0  0
   12.6280  -18.5320  -43.1350 O   0  0  0  0  0  0  0  0  0  0  0  0
   11.9100  -19.6700  -42.7150 C   0  0  0  0  0  0  0  0  0  0  0  0
   11.9590  -20.7670  -43.7530 C   0  0  0  0  0  0  0  0  0  0  0  0
    8.3400  -23.1750  -43.1910 H   0  0  0  0  0  0  0  0  0  0  0  0
    4.6290  -22.0920  -44.9170 H   0  0  0  0  0  0  0  0  0  0  0  0
    4.2430  -24.4090  -45.5640 H   0  0  0  0  0  0  0  0  0  0  0  0
    5.9370  -26.1180  -45.0280 H   0  0  0  0  0  0  0  0  0  0  0  0
    6.2150  -20.3240  -44.2540 H   0  0  0  0  0  0  0  0  0  0  0  0
    8.1820  -19.6160  -39.7210 H   0  0  0  0  0  0  0  0  0  0  0  0
    7.9680  -21.3900  -39.8490 H   0  0  0  0  0  0  0  0  0  0  0  0
    8.2500  -20.6380  -38.2010 H   0  0  0  0  0  0  0  0  0  0  0  0
    1.0980  -19.3320  -37.4320 H   0  0  0  0  0  0  0  0  0  0  0  0
    0.8390  -20.3590  -39.6920 H   0  0  0  0  0  0  0  0  0  0  0  0
    2.8070  -21.0500  -41.0000 H   0  0  0  0  0  0  0  0  0  0  0  0
    2.5280  -18.4710  -35.7460 H   0  0  0  0  0  0  0  0  0  0  0  0
    4.2050  -18.0090  -36.2720 H   0  0  0  0  0  0  0  0  0  0  0  0
    3.8870  -19.5670  -35.4350 H   0  0  0  0  0  0  0  0  0  0  0  0
   10.0810  -21.1620  -43.2450 H   0  0  0  0  0  0  0  0  0  0  0  0
    9.2570  -22.1140  -44.4830 H   0  0  0  0  0  0  0  0  0  0  0  0
    9.7860  -20.6370  -46.1320 H   0  0  0  0  0  0  0  0  0  0  0  0
    9.8040  -19.1610  -45.1740 H   0  0  0  0  0  0  0  0  0  0  0  0
   11.8640  -20.9630  -45.7570 H   0  0  0  0  0  0  0  0  0  0  0  0
   11.5780  -18.5930  -46.2330 H   0  0  0  0  0  0  0  0  0  0  0  0
   13.1840  -19.0960  -45.6500 H   0  0  0  0  0  0  0  0  0  0  0  0
   12.2300  -17.0110  -44.5130 H   0  0  0  0  0  0  0  0  0  0  0  0
   10.8490  -18.0600  -43.9410 H   0  0  0  0  0  0  0  0  0  0  0  0
   10.8420  -19.3480  -42.6440 H   0  0  0  0  0  0  0  0  0  0  0  0
   12.2710  -20.0570  -41.7620 H   0  0  0  0  0  0  0  0  0  0  0  0
   11.2280  -21.5390  -43.4360 H   0  0  0  0  0  0  0  0  0  0  0  0
   12.9480  -21.2630  -43.8080 H   0  0  0  0  0  0  0  0  0  0  0  0
  2  3  1  0  0  0  0
  2  1  1  0  0  0  0
  3 36  1  0  0  0  0
  4  3  2  0  0  0  0
  4  8  1  0  0  0  0
  5  4  1  0  0  0  0
  6  7  1  0  0  0  0
  6  5  2  0  0  0  0
  7  2  2  0  0  0  0
  8 40  1  6  0  0  0
  8 14  1  0  0  0  0
  9  8  1  0  0  0  0
  9 10  1  0  0  0  0
 10 12  1  0  0  0  0
 11 10  2  0  0  0  0
 12 13  2  0  0  0  0
 14 12  1  0  0  0  0
 14 15  2  0  0  0  0
 15 17  1  0  0  0  0
 16 15  1  0  0  0  0
 17 18  1  0  0  0  0
 17 21  2  0  0  0  0
 18 19  1  0  0  0  0
 19 20  2  0  0  0  0
 19 23  1  0  0  0  0
 21 20  1  0  0  0  0
 22 21  1  0  0  0  0
 22 43  1  0  0  0  0
 23 27  1  0  0  0  0
 24 23  2  0  0  0  0
 24 44  1  0  0  0  0
 25 24  1  0  0  0  0
 26 18  1  0  0  0  0
 26 25  2  0  0  0  0
 27 47  1  0  0  0  0
 27 49  1  0  0  0  0
 28  9  1  0  0  0  0
 28 50  1  0  0  0  0
 29 30  1  0  0  0  0
 29 28  1  0  0  0  0
 30 35  1  0  0  0  0
 31 30  1  0  0  0  0
 31 32  1  0  0  0  0
 32 58  1  0  0  0  0
 32 33  1  0  0  0  0
 33 34  1  0  0  0  0
 34 59  1  0  0  0  0
 34 60  1  0  0  0  0
 35 61  1  0  0  0  0
 35 34  1  0  0  0  0
 37  5  1  0  0  0  0
 38  6  1  0  0  0  0
 39  7  1  0  0  0  0
 41 22  1  0  0  0  0
 42 22  1  0  0  0  0
 45 25  1  0  0  0  0
 46 26  1  0  0  0  0
 48 27  1  0  0  0  0
 51 28  1  0  0  0  0
 52 29  1  0  0  0  0
 53 29  1  0  0  0  0
 54 30  1  0  0  0  0
 55 31  1  0  0  0  0
 56 31  1  0  0  0  0
 57 32  1  0  0  0  0
 62 35  1  0  0  0  0
M  END
>  <Pose>
1

>  <Score>
-3.87

$$$$
