
 OpenBabel03232221553D

 57 60  0  0  1  0  0  0  0  0999 V2000
    6.6270  -19.5530  -38.1130 B   0  0  0  0  0  0  0  0  0  0  0  0
    5.3100  -19.9170  -39.4330 C   0  0  0  0  0  0  0  0  0  0  0  0
    4.3690  -18.9360  -39.7490 C   0  0  0  0  0  0  0  0  0  0  0  0
    3.4180  -19.1680  -40.6860 C   0  0  0  0  0  0  0  0  0  0  0  0
    3.4110  -20.4140  -41.3220 C   0  0  0  0  0  0  0  0  0  0  0  0
    4.3320  -21.3690  -41.0110 C   0  0  0  0  0  0  0  0  0  0  0  0
    5.3070  -21.1540  -40.0610 C   0  0  0  0  0  0  0  0  0  0  0  0
    2.3960  -18.1930  -41.0850 C   0  0  2  0  0  0  0  0  0  0  0  0
    2.9020  -16.8650  -41.3720 N   0  0  0  0  0  0  0  0  0  0  0  0
    1.7640  -15.9990  -41.2570 C   0  0  0  0  0  0  0  0  0  0  0  0
    1.5910  -14.8960  -41.8040 O   0  0  0  0  0  0  0  0  0  0  0  0
    0.8190  -16.6570  -40.3630 C   0  0  0  0  0  0  0  0  0  0  0  0
   -0.3240  -16.2900  -39.9590 O   0  0  0  0  0  0  0  0  0  0  0  0
    1.4410  -17.9130  -39.9680 C   0  0  0  0  0  0  0  0  0  0  0  0
    1.1520  -18.6140  -38.8900 C   0  0  0  0  0  0  0  0  0  0  0  0
    1.8350  -19.8300  -38.7470 O   0  0  0  0  0  0  0  0  0  0  0  0
    0.2010  -18.2200  -37.8610 C   0  0  0  0  0  0  0  0  0  0  0  0
   -1.1030  -18.5250  -37.7920 N   0  0  0  0  0  0  0  0  0  0  0  0
   -1.6590  -18.0150  -36.6620 C   0  0  0  0  0  0  0  0  0  0  0  0
   -0.6390  -17.3740  -36.0270 N   0  0  0  0  0  0  0  0  0  0  0  0
    0.4890  -17.4720  -36.7100 C   0  0  0  0  0  0  0  0  0  0  0  0
    1.8460  -16.9500  -36.4350 C   0  0  0  0  0  0  0  0  0  0  0  0
   -2.9990  -18.1710  -36.3470 C   0  0  0  0  0  0  0  0  0  0  0  0
   -3.8270  -18.8700  -37.2010 C   0  0  0  0  0  0  0  0  0  0  0  0
   -3.2510  -19.3860  -38.3550 C   0  0  0  0  0  0  0  0  0  0  0  0
   -1.9300  -19.2140  -38.6330 C   0  0  0  0  0  0  0  0  0  0  0  0
    4.2670  -16.4650  -41.7220 C   0  0  0  0  0  0  0  0  0  0  0  0
    4.6670  -16.8580  -43.0970 C   0  0  0  0  0  0  0  0  0  0  0  0
    6.1020  -16.9840  -43.4030 C   0  0  0  0  0  0  0  0  0  0  0  0
    6.6030  -18.3020  -43.5840 N   0  0  0  0  0  4  0  0  0  0  0  0
    6.6790  -18.9820  -42.3130 C   0  0  0  0  0  0  0  0  0  0  0  0
    7.9890  -18.2300  -44.0830 C   0  0  0  0  0  0  0  0  0  0  0  0
    4.4260  -18.0120  -39.2240 H   0  0  0  0  0  0  0  0  0  0  0  0
    2.6570  -20.6100  -42.0710 H   0  0  0  0  0  0  0  0  0  0  0  0
    4.3320  -22.3480  -41.5060 H   0  0  0  0  0  0  0  0  0  0  0  0
    6.0520  -21.9210  -39.8070 H   0  0  0  0  0  0  0  0  0  0  0  0
    1.8230  -18.5190  -41.9520 H   0  0  0  0  0  0  0  0  0  0  0  0
    1.7310  -16.1560  -35.6620 H   0  0  0  0  0  0  0  0  0  0  0  0
    2.2570  -16.4290  -37.3320 H   0  0  0  0  0  0  0  0  0  0  0  0
    2.5440  -17.7120  -36.0540 H   0  0  0  0  0  0  0  0  0  0  0  0
   -3.3910  -17.7450  -35.4340 H   0  0  0  0  0  0  0  0  0  0  0  0
   -4.8810  -19.0280  -37.0130 H   0  0  0  0  0  0  0  0  0  0  0  0
   -3.8880  -19.9450  -39.0500 H   0  0  0  0  0  0  0  0  0  0  0  0
   -1.4560  -19.6060  -39.5430 H   0  0  0  0  0  0  0  0  0  0  0  0
    4.4160  -15.3870  -41.4970 H   0  0  0  0  0  0  0  0  0  0  0  0
    4.9450  -16.9990  -41.0270 H   0  0  0  0  0  0  0  0  0  0  0  0
    4.1250  -17.7720  -43.4490 H   0  0  0  0  0  0  0  0  0  0  0  0
    4.2600  -16.0510  -43.7800 H   0  0  0  0  0  0  0  0  0  0  0  0
    6.2840  -16.4220  -44.3610 H   0  0  0  0  0  0  0  0  0  0  0  0
    6.7130  -16.4120  -42.6440 H   0  0  0  0  0  0  0  0  0  0  0  0
    6.1050  -18.8580  -44.3120 H   0  0  0  0  0  0  0  0  0  0  0  0
    7.7110  -19.2850  -42.0360 H   0  0  0  0  0  0  0  0  0  0  0  0
    6.3270  -18.2820  -41.5310 H   0  0  0  0  0  0  0  0  0  0  0  0
    6.0160  -19.8650  -42.2550 H   0  0  0  0  0  0  0  0  0  0  0  0
    8.0130  -17.7570  -45.0910 H   0  0  0  0  0  0  0  0  0  0  0  0
    8.6210  -17.6790  -43.3440 H   0  0  0  0  0  0  0  0  0  0  0  0
    8.4220  -19.2400  -44.2080 H   0  0  0  0  0  0  0  0  0  0  0  0
  2  1  1  0  0  0  0
  3  2  1  0  0  0  0
  3 33  1  0  0  0  0
  4  3  2  0  0  0  0
  5  6  2  0  0  0  0
  5  4  1  0  0  0  0
  6  7  1  0  0  0  0
  7 36  1  0  0  0  0
  7  2  2  0  0  0  0
  8 37  1  6  0  0  0
  8  4  1  0  0  0  0
  8 14  1  0  0  0  0
  9 10  1  0  0  0  0
  9  8  1  0  0  0  0
 10 12  1  0  0  0  0
 11 10  2  0  0  0  0
 12 14  1  0  0  0  0
 12 13  2  0  0  0  0
 14 15  2  0  0  0  0
 15 16  1  0  0  0  0
 15 17  1  0  0  0  0
 17 18  1  0  0  0  0
 17 21  2  0  0  0  0
 18 19  1  0  0  0  0
 19 23  1  0  0  0  0
 19 20  2  0  0  0  0
 21 22  1  0  0  0  0
 21 20  1  0  0  0  0
 22 40  1  0  0  0  0
 22 38  1  0  0  0  0
 23 41  1  0  0  0  0
 24 42  1  0  0  0  0
 24 23  2  0  0  0  0
 25 24  1  0  0  0  0
 26 25  2  0  0  0  0
 26 18  1  0  0  0  0
 27 45  1  0  0  0  0
 27  9  1  0  0  0  0
 27 46  1  0  0  0  0
 28 27  1  0  0  0  0
 29 28  1  0  0  0  0
 29 50  1  0  0  0  0
 30 29  1  0  0  0  0
 30 31  1  0  0  0  0
 31 54  1  0  0  0  0
 31 52  1  0  0  0  0
 31 53  1  0  0  0  0
 32 30  1  0  0  0  0
 32 56  1  0  0  0  0
 34  5  1  0  0  0  0
 35  6  1  0  0  0  0
 39 22  1  0  0  0  0
 43 25  1  0  0  0  0
 44 26  1  0  0  0  0
 47 28  1  0  0  0  0
 48 28  1  0  0  0  0
 49 29  1  0  0  0  0
 51 30  1  0  0  0  0
 55 32  1  0  0  0  0
 57 32  1  0  0  0  0
M  END
>  <Pose>
1

>  <Score>
-3.71

$$$$
