
 OpenBabel03232221553D

 53 56  0  0  1  0  0  0  0  0999 V2000
   -1.4300  -21.2680  -38.3450 B   0  0  0  0  0  0  0  0  0  0  0  0
   -1.1530  -19.5710  -37.4950 C   0  0  0  0  0  0  0  0  0  0  0  0
    0.0830  -18.9450  -37.5150 C   0  0  0  0  0  0  0  0  0  0  0  0
    0.3150  -17.7280  -36.9120 C   0  0  0  0  0  0  0  0  0  0  0  0
   -0.7470  -17.1250  -36.2660 C   0  0  0  0  0  0  0  0  0  0  0  0
   -2.0000  -17.7420  -36.2360 C   0  0  0  0  0  0  0  0  0  0  0  0
   -2.2100  -18.9640  -36.8470 C   0  0  0  0  0  0  0  0  0  0  0  0
    1.6690  -17.1010  -36.9670 C   0  0  2  0  0  0  0  0  0  0  0  0
    1.7000  -15.9940  -37.9120 N   0  0  0  0  0  0  0  0  0  0  0  0
    1.6970  -16.6610  -39.1970 C   0  0  0  0  0  0  0  0  0  0  0  0
    1.2990  -16.1840  -40.2820 O   0  0  0  0  0  0  0  0  0  0  0  0
    2.2400  -18.0020  -39.0290 C   0  0  0  0  0  0  0  0  0  0  0  0
    2.4240  -18.9300  -39.8590 O   0  0  0  0  0  0  0  0  0  0  0  0
    2.5710  -18.1240  -37.6100 C   0  0  0  0  0  0  0  0  0  0  0  0
    3.4100  -18.9260  -37.0210 C   0  0  0  0  0  0  0  0  0  0  0  0
    3.5130  -18.8620  -35.6150 O   0  0  0  0  0  0  0  0  0  0  0  0
    4.2160  -19.8540  -37.7930 C   0  0  0  0  0  0  0  0  0  0  0  0
    3.8940  -21.1070  -37.9760 O   0  0  0  0  0  0  0  0  0  0  0  0
    4.7860  -21.7240  -38.7020 C   0  0  0  0  0  0  0  0  0  0  0  0
    5.7620  -20.8300  -39.0230 C   0  0  0  0  0  0  0  0  0  0  0  0
    5.4000  -19.6130  -38.4350 C   0  0  0  0  0  0  0  0  0  0  0  0
    1.7110  -14.5690  -37.7130 C   0  0  0  0  0  0  0  0  0  0  0  0
    1.1190  -14.1320  -36.3930 C   0  0  0  0  0  0  0  0  0  0  0  0
   -0.3520  -14.0630  -36.5070 C   0  0  0  0  0  0  0  0  0  0  0  0
   -0.8810  -12.7650  -36.8600 N   0  0  0  0  0  4  0  0  0  0  0  0
   -2.3080  -12.7890  -37.0780 C   0  0  0  0  0  0  0  0  0  0  0  0
   -3.1280  -12.3910  -35.9030 C   0  0  0  0  0  0  0  0  0  0  0  0
   -2.6530  -11.3150  -35.1830 O   0  0  0  0  0  0  0  0  0  0  0  0
   -1.3100  -11.4180  -34.8450 C   0  0  0  0  0  0  0  0  0  0  0  0
   -0.4420  -11.6800  -36.0490 C   0  0  0  0  0  0  0  0  0  0  0  0
    0.9140  -19.4280  -38.0260 H   0  0  0  0  0  0  0  0  0  0  0  0
   -0.5790  -16.1720  -35.7910 H   0  0  0  0  0  0  0  0  0  0  0  0
   -2.8150  -17.2620  -35.7300 H   0  0  0  0  0  0  0  0  0  0  0  0
   -3.1700  -19.4650  -36.8390 H   0  0  0  0  0  0  0  0  0  0  0  0
    2.0820  -16.8860  -35.9890 H   0  0  0  0  0  0  0  0  0  0  0  0
    4.7230  -22.7780  -38.9830 H   0  0  0  0  0  0  0  0  0  0  0  0
    6.6380  -21.0190  -39.6110 H   0  0  0  0  0  0  0  0  0  0  0  0
    5.9900  -18.7170  -38.5080 H   0  0  0  0  0  0  0  0  0  0  0  0
    2.7820  -14.2040  -37.7200 H   0  0  0  0  0  0  0  0  0  0  0  0
    1.2490  -14.0210  -38.5690 H   0  0  0  0  0  0  0  0  0  0  0  0
    1.5020  -13.1120  -36.1550 H   0  0  0  0  0  0  0  0  0  0  0  0
    1.4880  -14.8870  -35.6630 H   0  0  0  0  0  0  0  0  0  0  0  0
   -0.8720  -14.3290  -35.5500 H   0  0  0  0  0  0  0  0  0  0  0  0
   -0.6900  -14.8080  -37.2530 H   0  0  0  0  0  0  0  0  0  0  0  0
   -0.4720  -12.5800  -37.8310 H   0  0  0  0  0  0  0  0  0  0  0  0
   -2.5960  -12.1490  -37.9440 H   0  0  0  0  0  0  0  0  0  0  0  0
   -2.5870  -13.8260  -37.3650 H   0  0  0  0  0  0  0  0  0  0  0  0
   -4.1410  -12.0750  -36.2960 H   0  0  0  0  0  0  0  0  0  0  0  0
   -3.3840  -13.2620  -35.2280 H   0  0  0  0  0  0  0  0  0  0  0  0
   -1.0070  -10.4130  -34.4520 H   0  0  0  0  0  0  0  0  0  0  0  0
   -1.0930  -12.1410  -34.0550 H   0  0  0  0  0  0  0  0  0  0  0  0
   -0.4840  -10.7230  -36.6530 H   0  0  0  0  0  0  0  0  0  0  0  0
    0.5980  -11.7780  -35.7520 H   0  0  0  0  0  0  0  0  0  0  0  0
  1  2  1  0  0  0  0
  2  7  1  0  0  0  0
  3  2  2  0  0  0  0
  3  4  1  0  0  0  0
  4  5  2  0  0  0  0
  5  6  1  0  0  0  0
  5 32  1  0  0  0  0
  6 33  1  0  0  0  0
  7 34  1  0  0  0  0
  7  6  2  0  0  0  0
  8  4  1  0  0  0  0
  8 35  1  1  0  0  0
  9 22  1  0  0  0  0
  9  8  1  0  0  0  0
 10 12  1  0  0  0  0
 10  9  1  0  0  0  0
 11 10  2  0  0  0  0
 12 14  1  0  0  0  0
 13 12  2  0  0  0  0
 14 15  2  0  0  0  0
 14  8  1  0  0  0  0
 15 16  1  0  0  0  0
 17 15  1  0  0  0  0
 18 17  1  0  0  0  0
 19 18  1  0  0  0  0
 20 19  2  0  0  0  0
 20 21  1  0  0  0  0
 21 17  2  0  0  0  0
 22 23  1  0  0  0  0
 23 41  1  0  0  0  0
 23 42  1  0  0  0  0
 24 23  1  0  0  0  0
 24 43  1  0  0  0  0
 25 24  1  0  0  0  0
 25 30  1  0  0  0  0
 26 25  1  0  0  0  0
 26 27  1  0  0  0  0
 27 49  1  0  0  0  0
 27 28  1  0  0  0  0
 28 29  1  0  0  0  0
 29 50  1  0  0  0  0
 29 51  1  0  0  0  0
 30 53  1  0  0  0  0
 30 29  1  0  0  0  0
 31  3  1  0  0  0  0
 36 19  1  0  0  0  0
 37 20  1  0  0  0  0
 38 21  1  0  0  0  0
 39 22  1  0  0  0  0
 40 22  1  0  0  0  0
 44 24  1  0  0  0  0
 45 25  1  0  0  0  0
 46 26  1  0  0  0  0
 47 26  1  0  0  0  0
 48 27  1  0  0  0  0
 52 30  1  0  0  0  0
M  END
>  <Pose>
1

>  <Score>
-4.40

$$$$
