
 OpenBabel03232221553D

 38 41  0  0  1  0  0  0  0  0999 V2000
   10.9750  -26.6310  -42.2880 B   0  0  0  0  0  0  0  0  0  0  0  0
    9.8830  -25.3550  -43.1890 C   0  0  0  0  0  0  0  0  0  0  0  0
    8.5220  -25.3090  -42.9930 C   0  0  0  0  0  0  0  0  0  0  0  0
    7.6910  -24.3820  -43.6390 C   0  0  0  0  0  0  0  0  0  0  0  0
    8.3080  -23.5110  -44.4920 C   0  0  0  0  0  0  0  0  0  0  0  0
    9.6900  -23.5650  -44.6840 C   0  0  0  0  0  0  0  0  0  0  0  0
   10.4730  -24.4730  -44.0440 C   0  0  0  0  0  0  0  0  0  0  0  0
    6.3070  -24.4060  -43.3790 N   0  0  0  0  0  0  0  0  0  0  0  0
    5.4450  -23.3010  -43.4690 C   0  0  0  0  0  0  0  0  0  0  0  0
    5.6270  -22.2950  -44.1690 O   0  0  0  0  0  0  0  0  0  0  0  0
    4.1780  -23.2940  -42.6580 C   0  0  2  0  0  0  0  0  0  0  0  0
    3.7400  -21.9200  -42.2230 C   0  0  0  0  0  0  0  0  0  0  0  0
    4.3880  -22.0960  -40.9150 N   0  0  2  0  0  0  0  0  0  0  0  0
    4.3770  -23.5210  -41.1880 C   0  0  0  0  0  0  0  0  0  0  0  0
    4.8040  -21.1970  -39.8940 C   0  0  1  0  0  0  0  0  0  0  0  0
    6.1130  -20.9030  -39.6800 N   0  0  0  0  0  0  0  0  0  0  0  0
    6.4870  -20.0360  -38.6940 C   0  0  0  0  0  0  0  0  0  0  0  0
    5.5790  -19.4480  -37.9090 N   0  0  0  0  0  0  0  0  0  0  0  0
    4.2760  -19.6910  -38.0630 C   0  0  0  0  0  0  0  0  0  0  0  0
    3.1860  -19.2360  -37.4140 N   0  0  0  0  0  0  0  0  0  0  0  0
    2.1480  -19.8090  -37.9840 N   0  0  0  0  0  0  0  0  0  0  0  0
    2.5440  -20.6140  -38.9760 N   0  0  0  0  0  0  0  0  0  0  0  0
    3.9010  -20.5690  -39.0600 C   0  0  0  0  0  0  0  0  0  0  0  0
    3.1300  -18.2950  -36.2980 C   0  0  0  0  0  0  0  0  0  0  0  0
    8.0770  -26.0200  -42.3070 H   0  0  0  0  0  0  0  0  0  0  0  0
    7.7360  -22.7560  -45.0370 H   0  0  0  0  0  0  0  0  0  0  0  0
   10.1320  -22.8410  -45.3810 H   0  0  0  0  0  0  0  0  0  0  0  0
   11.5490  -24.4960  -44.2110 H   0  0  0  0  0  0  0  0  0  0  0  0
    5.8920  -25.3650  -43.0880 H   0  0  0  0  0  0  0  0  0  0  0  0
    3.3480  -23.8410  -43.1380 H   0  0  0  0  0  0  0  0  0  0  0  0
    4.2390  -21.0690  -42.7320 H   0  0  0  0  0  0  0  0  0  0  0  0
    2.6650  -21.7830  -42.0760 H   0  0  0  0  0  0  0  0  0  0  0  0
    5.3330  -24.0420  -40.9660 H   0  0  0  0  0  0  0  0  0  0  0  0
    3.5300  -23.9940  -40.6700 H   0  0  0  0  0  0  0  0  0  0  0  0
    7.5440  -19.8510  -38.5830 H   0  0  0  0  0  0  0  0  0  0  0  0
    2.1890  -17.7220  -36.2990 H   0  0  0  0  0  0  0  0  0  0  0  0
    3.9490  -17.5230  -36.3930 H   0  0  0  0  0  0  0  0  0  0  0  0
    3.2840  -18.7810  -35.3330 H   0  0  0  0  0  0  0  0  0  0  0  0
  2  3  1  0  0  0  0
  2  1  1  0  0  0  0
  3 25  1  0  0  0  0
  4  8  1  0  0  0  0
  4  3  2  0  0  0  0
  5  4  1  0  0  0  0
  6  5  2  0  0  0  0
  6  7  1  0  0  0  0
  7  2  2  0  0  0  0
  8 29  1  0  0  0  0
  9  8  1  0  0  0  0
  9 11  1  0  0  0  0
 10  9  2  0  0  0  0
 11 30  1  6  0  0  0
 11 12  1  0  0  0  0
 11 14  1  0  0  0  0
 12 32  1  0  0  0  0
 13 12  1  1  0  0  0
 13 15  1  0  0  0  0
 14 33  1  0  0  0  0
 14 13  1  0  0  0  0
 14 34  1  0  0  0  0
 15 16  1  6  0  0  0
 15 23  1  0  0  0  0
 16 17  2  0  0  0  0
 17 35  1  0  0  0  0
 17 18  1  0  0  0  0
 19 18  1  0  0  0  0
 19 20  1  0  0  0  0
 20 24  1  0  0  0  0
 21 20  1  0  0  0  0
 22 21  2  0  0  0  0
 23 22  1  0  0  0  0
 23 19  2  0  0  0  0
 24 38  1  0  0  0  0
 26  5  1  0  0  0  0
 27  6  1  0  0  0  0
 28  7  1  0  0  0  0
 31 12  1  0  0  0  0
 36 24  1  0  0  0  0
 37 24  1  0  0  0  0
M  END
>  <Pose>
1

>  <Score>
-4.26

$$$$
