
 OpenBabel03232221553D

 25 28  0  0  1  0  0  0  0  0999 V2000
    4.1900  -24.2760  -44.9910 B   0  0  0  0  0  0  0  0  0  0  0  0
    4.9680  -23.0860  -43.7210 C   0  0  0  0  0  0  0  0  0  0  0  0
    4.6550  -23.1540  -42.3730 C   0  0  0  0  0  0  0  0  0  0  0  0
    5.1730  -22.3360  -41.4050 C   0  0  0  0  0  0  0  0  0  0  0  0
    6.0880  -21.3770  -41.8880 C   0  0  0  0  0  0  0  0  0  0  0  0
    6.4210  -21.2810  -43.2170 C   0  0  0  0  0  0  0  0  0  0  0  0
    5.8640  -22.1370  -44.1400 C   0  0  0  0  0  0  0  0  0  0  0  0
    4.8810  -22.3710  -40.0250 N   0  0  0  0  0  0  0  0  0  0  0  0
    4.3810  -21.2770  -39.2800 C   0  0  1  0  0  0  0  0  0  0  0  0
    3.1210  -20.8620  -39.2100 N   0  0  0  0  0  0  0  0  0  0  0  0
    2.6890  -19.8150  -38.4870 C   0  0  0  0  0  0  0  0  0  0  0  0
    1.5100  -19.2120  -38.2570 N   0  0  0  0  0  0  0  0  0  0  0  0
    1.6450  -18.2050  -37.4520 O   0  0  0  0  0  0  0  0  0  0  0  0
    2.8900  -18.1230  -37.1400 N   0  0  0  0  0  0  0  0  0  0  0  0
    3.6060  -19.0870  -37.7420 C   0  0  0  0  0  0  0  0  0  0  0  0
    4.8920  -19.4690  -37.7810 N   0  0  0  0  0  0  0  0  0  0  0  0
    5.9430  -18.9390  -37.1610 N   0  0  0  0  0  0  0  0  0  0  0  0
    7.0150  -19.6660  -37.5080 N   0  0  0  0  0  0  0  0  0  0  0  0
    6.6080  -20.6310  -38.3360 N   0  0  0  0  0  0  0  0  0  0  0  0
    5.2890  -20.5200  -38.5140 C   0  0  0  0  0  0  0  0  0  0  0  0
    3.9540  -23.9140  -42.1080 H   0  0  0  0  0  0  0  0  0  0  0  0
    6.5400  -20.6940  -41.1940 H   0  0  0  0  0  0  0  0  0  0  0  0
    7.1280  -20.5350  -43.5730 H   0  0  0  0  0  0  0  0  0  0  0  0
    6.1210  -22.0660  -45.1830 H   0  0  0  0  0  0  0  0  0  0  0  0
    5.0610  -23.2960  -39.5400 H   0  0  0  0  0  0  0  0  0  0  0  0
  1  2  1  0  0  0  0
  2  3  1  0  0  0  0
  3 21  1  0  0  0  0
  3  4  2  0  0  0  0
  4  8  1  0  0  0  0
  5  4  1  0  0  0  0
  5 22  1  0  0  0  0
  6  5  2  0  0  0  0
  7  2  2  0  0  0  0
  7  6  1  0  0  0  0
  8 25  1  0  0  0  0
  9  8  1  1  0  0  0
  9 10  1  0  0  0  0
  9 20  1  0  0  0  0
 10 11  2  0  0  0  0
 11 12  1  0  0  0  0
 11 15  1  0  0  0  0
 12 13  1  0  0  0  0
 13 14  1  0  0  0  0
 15 14  2  0  0  0  0
 16 15  1  0  0  0  0
 16 17  1  0  0  0  0
 18 17  2  0  0  0  0
 19 18  1  0  0  0  0
 20 19  2  0  0  0  0
 20 16  1  0  0  0  0
 23  6  1  0  0  0  0
 24  7  1  0  0  0  0
M  END
>  <Pose>
1

>  <Score>
-4.75

$$$$
