
 OpenBabel03232221553D

 37 40  0  0  1  0  0  0  0  0999 V2000
    1.4610  -14.2070  -36.3340 B   0  0  0  0  0  0  0  0  0  0  0  0
    0.9670  -15.7390  -37.3560 C   0  0  0  0  0  0  0  0  0  0  0  0
    1.8440  -16.7560  -37.6390 C   0  0  0  0  0  0  0  0  0  0  0  0
    1.5080  -17.8870  -38.3800 C   0  0  0  0  0  0  0  0  0  0  0  0
    0.1990  -17.9340  -38.8330 C   0  0  0  0  0  0  0  0  0  0  0  0
   -0.6870  -16.9210  -38.5570 C   0  0  0  0  0  0  0  0  0  0  0  0
   -0.3340  -15.7980  -37.8130 C   0  0  0  0  0  0  0  0  0  0  0  0
    2.4450  -18.9110  -38.6490 N   0  0  0  0  0  0  0  0  0  0  0  0
    3.0330  -19.8700  -37.7480 C   0  0  0  0  0  0  0  0  0  0  0  0
    3.0970  -19.7080  -36.4970 O   0  0  0  0  0  0  0  0  0  0  0  0
    3.5190  -21.0150  -38.5160 C   0  0  2  0  0  0  0  0  0  0  0  0
    4.6700  -21.6260  -38.1030 O   0  0  0  0  0  0  0  0  0  0  0  0
    5.2440  -22.0160  -39.3110 N   0  0  0  0  0  0  0  0  0  0  0  0
    5.0310  -20.9890  -40.2490 C   0  0  0  0  0  0  0  0  0  0  0  0
    3.9590  -20.3280  -39.7870 C   0  0  0  0  0  0  0  0  0  0  0  0
    3.0340  -19.2100  -39.9260 C   0  0  0  0  0  0  0  0  0  0  0  0
    2.7920  -18.6030  -40.9910 O   0  0  0  0  0  0  0  0  0  0  0  0
    5.7470  -20.7040  -41.4830 C   0  0  0  0  0  0  0  0  0  0  0  0
    5.5980  -21.4260  -42.6720 C   0  0  0  0  0  0  0  0  0  0  0  0
    6.3730  -20.8810  -43.5880 N   0  0  0  0  0  0  0  0  0  0  0  0
    7.0100  -19.8480  -43.0410 N   0  0  0  0  0  0  0  0  0  0  0  0
    6.6510  -19.7220  -41.7750 C   0  0  0  0  0  0  0  0  0  0  0  0
    6.5330  -21.3190  -44.9740 C   0  0  0  0  0  0  0  0  0  0  0  0
    4.7400  -22.6180  -42.8690 C   0  0  0  0  0  0  0  0  0  0  0  0
    2.8700  -16.7180  -37.2890 H   0  0  0  0  0  0  0  0  0  0  0  0
   -0.1080  -18.7960  -39.4160 H   0  0  0  0  0  0  0  0  0  0  0  0
   -1.7290  -16.9300  -38.9040 H   0  0  0  0  0  0  0  0  0  0  0  0
   -1.0370  -15.0100  -37.6050 H   0  0  0  0  0  0  0  0  0  0  0  0
    2.7040  -21.7410  -38.7370 H   0  0  0  0  0  0  0  0  0  0  0  0
    5.7390  -22.9000  -39.4850 H   0  0  0  0  0  0  0  0  0  0  0  0
    7.0020  -18.9790  -41.0840 H   0  0  0  0  0  0  0  0  0  0  0  0
    6.3540  -20.4530  -45.6630 H   0  0  0  0  0  0  0  0  0  0  0  0
    7.5210  -21.7700  -45.1700 H   0  0  0  0  0  0  0  0  0  0  0  0
    5.7500  -22.0850  -45.1930 H   0  0  0  0  0  0  0  0  0  0  0  0
    4.3560  -23.0040  -41.8930 H   0  0  0  0  0  0  0  0  0  0  0  0
    3.9410  -22.3390  -43.5770 H   0  0  0  0  0  0  0  0  0  0  0  0
    5.3810  -23.3850  -43.3380 H   0  0  0  0  0  0  0  0  0  0  0  0
  2  1  1  0  0  0  0
  3  2  1  0  0  0  0
  3 25  1  0  0  0  0
  4  3  2  0  0  0  0
  5  6  2  0  0  0  0
  5  4  1  0  0  0  0
  6  7  1  0  0  0  0
  7 28  1  0  0  0  0
  7  2  2  0  0  0  0
  8  4  1  0  0  0  0
  8  9  1  0  0  0  0
  9 10  2  0  0  0  0
 11 29  1  6  0  0  0
 11 12  1  0  0  0  0
 11  9  1  0  0  0  0
 13 12  1  0  0  0  0
 14 15  2  0  0  0  0
 14 13  1  0  0  0  0
 15 11  1  0  0  0  0
 16 15  1  0  0  0  0
 16  8  1  0  0  0  0
 17 16  2  0  0  0  0
 18 14  1  0  0  0  0
 19 18  2  0  0  0  0
 20 21  1  0  0  0  0
 20 19  1  0  0  0  0
 21 22  2  0  0  0  0
 22 18  1  0  0  0  0
 22 31  1  0  0  0  0
 23 20  1  0  0  0  0
 24 19  1  0  0  0  0
 24 35  1  0  0  0  0
 26  5  1  0  0  0  0
 27  6  1  0  0  0  0
 30 13  1  0  0  0  0
 32 23  1  0  0  0  0
 33 23  1  0  0  0  0
 34 23  1  0  0  0  0
 36 24  1  0  0  0  0
 37 24  1  0  0  0  0
M  END
>  <Pose>
1

>  <Score>
-4.03

$$$$
