
 OpenBabel03232221553D

 33 36  0  0  1  0  0  0  0  0999 V2000
    0.9360  -15.3920  -36.3420 B   0  0  0  0  0  0  0  0  0  0  0  0
    1.0160  -17.0580  -37.2730 C   0  0  0  0  0  0  0  0  0  0  0  0
    2.0830  -17.3400  -38.0650 C   0  0  0  0  0  0  0  0  0  0  0  0
    2.2430  -18.5150  -38.7830 C   0  0  0  0  0  0  0  0  0  0  0  0
    1.2310  -19.4410  -38.6650 C   0  0  0  0  0  0  0  0  0  0  0  0
    0.1190  -19.1810  -37.8590 C   0  0  0  0  0  0  0  0  0  0  0  0
    0.0080  -17.9960  -37.1640 C   0  0  0  0  0  0  0  0  0  0  0  0
    3.4040  -18.7560  -39.6110 N   0  0  0  0  0  0  0  0  0  0  0  0
    4.6970  -19.1400  -39.1660 C   0  0  0  0  0  0  0  0  0  0  0  0
    5.1750  -18.8860  -37.9990 O   0  0  0  0  0  0  0  0  0  0  0  0
    5.3800  -19.8630  -40.2490 C   0  0  1  0  0  0  0  0  0  0  0  0
    5.1320  -21.3290  -40.0650 C   0  0  1  0  0  0  0  0  0  0  0  0
    3.7540  -21.3800  -40.3990 O   0  0  0  0  0  0  0  0  0  0  0  0
    3.8990  -20.9060  -41.7300 C   0  0  1  0  0  0  0  0  0  0  0  0
    4.5520  -19.5620  -41.4660 C   0  0  1  0  0  0  0  0  0  0  0  0
    3.4760  -18.6530  -41.0230 C   0  0  0  0  0  0  0  0  0  0  0  0
    2.7660  -17.9310  -41.7710 O   0  0  0  0  0  0  0  0  0  0  0  0
    4.8910  -21.8810  -42.2390 C   0  0  0  0  0  0  0  0  0  0  0  0
    5.6640  -22.1660  -41.1740 C   0  0  0  0  0  0  0  0  0  0  0  0
    5.4280  -21.8610  -38.7150 C   0  0  0  0  0  0  0  0  0  0  0  0
    6.7850  -21.6750  -38.4480 O   0  0  0  0  0  0  0  0  0  0  0  0
    2.8820  -16.5950  -38.1510 H   0  0  0  0  0  0  0  0  0  0  0  0
    1.2790  -20.3770  -39.1890 H   0  0  0  0  0  0  0  0  0  0  0  0
   -0.6900  -19.8880  -37.7450 H   0  0  0  0  0  0  0  0  0  0  0  0
   -0.8220  -17.7450  -36.5320 H   0  0  0  0  0  0  0  0  0  0  0  0
    6.4480  -19.6050  -40.3640 H   0  0  0  0  0  0  0  0  0  0  0  0
    2.9700  -20.8600  -42.2680 H   0  0  0  0  0  0  0  0  0  0  0  0
    5.1290  -19.1820  -42.3200 H   0  0  0  0  0  0  0  0  0  0  0  0
    5.0020  -22.2940  -43.2330 H   0  0  0  0  0  0  0  0  0  0  0  0
    6.4940  -22.8690  -41.1670 H   0  0  0  0  0  0  0  0  0  0  0  0
    4.8840  -21.3270  -37.9090 H   0  0  0  0  0  0  0  0  0  0  0  0
    5.1990  -22.9260  -38.6260 H   0  0  0  0  0  0  0  0  0  0  0  0
    7.3000  -22.4790  -38.7100 H   0  0  0  0  0  0  0  0  0  0  0  0
  2  7  1  0  0  0  0
  2  1  1  0  0  0  0
  3  2  2  0  0  0  0
  4  5  2  0  0  0  0
  4  3  1  0  0  0  0
  5  6  1  0  0  0  0
  6 24  1  0  0  0  0
  6  7  2  0  0  0  0
  7 25  1  0  0  0  0
  8  9  1  0  0  0  0
  8  4  1  0  0  0  0
  9 10  2  0  0  0  0
 11 26  1  6  0  0  0
 11 12  1  0  0  0  0
 11  9  1  0  0  0  0
 12 20  1  1  0  0  0
 13 12  1  0  0  0  0
 14 27  1  6  0  0  0
 14 15  1  0  0  0  0
 14 13  1  0  0  0  0
 15 28  1  6  0  0  0
 15 16  1  0  0  0  0
 15 11  1  0  0  0  0
 16  8  1  0  0  0  0
 17 16  2  0  0  0  0
 18 14  1  0  0  0  0
 18 19  2  0  0  0  0
 19 30  1  0  0  0  0
 19 12  1  0  0  0  0
 20 32  1  0  0  0  0
 20 21  1  0  0  0  0
 20 31  1  0  0  0  0
 22  3  1  0  0  0  0
 23  5  1  0  0  0  0
 29 18  1  0  0  0  0
 33 21  1  0  0  0  0
M  END
>  <Pose>
1

>  <Score>
-3.33

$$$$
