
 OpenBabel03232221553D

 37 40  0  0  1  0  0  0  0  0999 V2000
   11.2690  -27.0570  -43.1860 B   0  0  0  0  0  0  0  0  0  0  0  0
    9.9620  -26.0770  -44.1620 C   0  0  0  0  0  0  0  0  0  0  0  0
    8.8280  -25.5720  -43.5180 C   0  0  0  0  0  0  0  0  0  0  0  0
    7.8720  -24.8590  -44.2050 C   0  0  0  0  0  0  0  0  0  0  0  0
    8.0700  -24.6640  -45.5490 C   0  0  0  0  0  0  0  0  0  0  0  0
    9.2050  -25.1690  -46.1990 C   0  0  0  0  0  0  0  0  0  0  0  0
   10.1620  -25.8820  -45.5090 C   0  0  0  0  0  0  0  0  0  0  0  0
    6.7380  -24.3540  -43.5290 N   0  0  0  0  0  0  0  0  0  0  0  0
    5.4900  -25.0510  -43.3250 C   0  0  0  0  0  0  0  0  0  0  0  0
    5.2910  -26.2710  -43.3100 O   0  0  0  0  0  0  0  0  0  0  0  0
    4.4290  -24.0220  -43.1250 C   0  0  1  0  0  0  0  0  0  0  0  0
    3.4510  -24.3820  -42.2160 O   0  0  0  0  0  0  0  0  0  0  0  0
    3.0920  -23.1600  -41.6980 N   0  0  0  0  0  0  0  0  0  0  0  0
    4.3440  -22.4920  -41.4610 C   0  0  0  0  0  0  0  0  0  0  0  0
    5.1980  -22.9940  -42.3200 C   0  0  0  0  0  0  0  0  0  0  0  0
    6.5460  -23.0690  -42.8970 C   0  0  0  0  0  0  0  0  0  0  0  0
    7.3550  -22.1380  -42.8230 O   0  0  0  0  0  0  0  0  0  0  0  0
    4.6510  -21.4800  -40.4860 C   0  0  0  0  0  0  0  0  0  0  0  0
    5.8860  -21.4090  -39.8450 C   0  0  0  0  0  0  0  0  0  0  0  0
    5.8940  -20.3610  -39.0010 N   0  0  0  0  0  0  0  0  0  0  0  0
    4.7030  -19.7990  -39.1140 N   0  0  0  0  0  0  0  0  0  0  0  0
    3.9190  -20.4270  -39.9880 C   0  0  0  0  0  0  0  0  0  0  0  0
    2.5130  -20.0820  -40.3890 C   0  0  0  0  0  0  0  0  0  0  0  0
    7.0080  -19.9400  -38.1350 C   0  0  0  0  0  0  0  0  0  0  0  0
    8.7180  -25.7520  -42.4750 H   0  0  0  0  0  0  0  0  0  0  0  0
    7.3430  -24.1150  -46.1080 H   0  0  0  0  0  0  0  0  0  0  0  0
    9.3330  -24.9960  -47.2670 H   0  0  0  0  0  0  0  0  0  0  0  0
   11.0390  -26.2660  -46.0300 H   0  0  0  0  0  0  0  0  0  0  0  0
    4.0610  -23.6110  -44.0720 H   0  0  0  0  0  0  0  0  0  0  0  0
    2.1570  -22.7830  -41.5110 H   0  0  0  0  0  0  0  0  0  0  0  0
    6.7240  -22.0870  -39.9910 H   0  0  0  0  0  0  0  0  0  0  0  0
    1.7910  -20.3610  -39.6190 H   0  0  0  0  0  0  0  0  0  0  0  0
    2.3070  -20.4680  -41.3850 H   0  0  0  0  0  0  0  0  0  0  0  0
    2.5000  -18.9630  -40.4510 H   0  0  0  0  0  0  0  0  0  0  0  0
    7.5930  -19.2210  -38.7770 H   0  0  0  0  0  0  0  0  0  0  0  0
    7.6220  -20.7990  -37.8490 H   0  0  0  0  0  0  0  0  0  0  0  0
    6.5920  -19.3580  -37.3180 H   0  0  0  0  0  0  0  0  0  0  0  0
  2  3  1  0  0  0  0
  2  1  1  0  0  0  0
  3 25  1  0  0  0  0
  4  8  1  0  0  0  0
  4  3  2  0  0  0  0
  5  4  1  0  0  0  0
  6  5  2  0  0  0  0
  6  7  1  0  0  0  0
  7  2  2  0  0  0  0
  8  9  1  0  0  0  0
  8 16  1  0  0  0  0
  9 10  2  0  0  0  0
  9 11  1  0  0  0  0
 11 29  1  6  0  0  0
 11 15  1  0  0  0  0
 11 12  1  0  0  0  0
 12 13  1  0  0  0  0
 13 30  1  0  0  0  0
 13 14  1  0  0  0  0
 14 18  1  0  0  0  0
 15 14  2  0  0  0  0
 16 17  2  0  0  0  0
 16 15  1  0  0  0  0
 18 22  1  0  0  0  0
 18 19  2  0  0  0  0
 19 20  1  0  0  0  0
 20 24  1  0  0  0  0
 21 20  1  0  0  0  0
 22 21  2  0  0  0  0
 23 22  1  0  0  0  0
 23 32  1  0  0  0  0
 24 36  1  0  0  0  0
 24 37  1  0  0  0  0
 26  5  1  0  0  0  0
 27  6  1  0  0  0  0
 28  7  1  0  0  0  0
 31 19  1  0  0  0  0
 33 23  1  0  0  0  0
 34 23  1  0  0  0  0
 35 24  1  0  0  0  0
M  END
>  <Pose>
1

>  <Score>
-4.08

$$$$
