
 OpenBabel03232221553D

 45 48  0  0  1  0  0  0  0  0999 V2000
   -3.3900  -25.8770  -37.8800 B   0  0  0  0  0  0  0  0  0  0  0  0
   -2.2710  -26.9890  -38.9550 C   0  0  0  0  0  0  0  0  0  0  0  0
   -1.2740  -26.4740  -39.7380 C   0  0  0  0  0  0  0  0  0  0  0  0
   -0.4350  -27.2690  -40.5390 C   0  0  0  0  0  0  0  0  0  0  0  0
   -0.6990  -28.6520  -40.4770 C   0  0  0  0  0  0  0  0  0  0  0  0
   -1.6980  -29.1720  -39.6920 C   0  0  0  0  0  0  0  0  0  0  0  0
   -2.4900  -28.3390  -38.9270 C   0  0  0  0  0  0  0  0  0  0  0  0
    0.4820  -26.7240  -41.2500 O   0  0  0  0  0  0  0  0  0  0  0  0
    1.4700  -26.2350  -41.9260 C   0  0  0  0  0  0  0  0  0  0  0  0
    1.6230  -24.7220  -41.7060 C   0  0  0  0  0  0  0  0  0  0  0  0
    3.0020  -24.3770  -41.5370 N   0  0  0  0  0  0  0  0  0  0  0  0
    3.7920  -23.8290  -42.5840 C   0  0  0  0  0  0  0  0  0  0  0  0
    4.3890  -24.6910  -43.3190 O   0  0  0  0  0  0  0  0  0  0  0  0
    3.9560  -22.3860  -42.8570 C   0  0  0  0  0  0  0  0  0  0  0  0
    4.3890  -21.6070  -41.7290 N   0  0  0  0  0  0  0  0  0  0  0  0
    5.7660  -21.5620  -41.3170 C   0  0  0  0  0  0  0  0  0  0  0  0
    6.6890  -22.3550  -41.6290 O   0  0  0  0  0  0  0  0  0  0  0  0
    5.9280  -20.4010  -40.4420 C   0  0  1  0  0  0  0  0  0  0  0  0
    4.5490  -19.7180  -40.3430 C   0  0  2  0  0  0  0  0  0  0  0  0
    4.2910  -19.5150  -38.8910 C   0  0  2  0  0  0  0  0  0  0  0  0
    5.7330  -19.3940  -38.3550 C   0  0  0  0  0  0  0  0  0  0  0  0
    6.1710  -20.7270  -38.9940 C   0  0  1  0  0  0  0  0  0  0  0  0
    5.0390  -21.5890  -38.5110 C   0  0  0  0  0  0  0  0  0  0  0  0
    3.9610  -20.8400  -38.3090 C   0  0  0  0  0  0  0  0  0  0  0  0
    3.6260  -20.7640  -40.8550 C   0  0  0  0  0  0  0  0  0  0  0  0
    2.4190  -20.9110  -40.5960 O   0  0  0  0  0  0  0  0  0  0  0  0
   -1.0960  -25.3950  -39.7620 H   0  0  0  0  0  0  0  0  0  0  0  0
   -0.0650  -29.2680  -41.0840 H   0  0  0  0  0  0  0  0  0  0  0  0
   -1.8930  -30.2310  -39.6510 H   0  0  0  0  0  0  0  0  0  0  0  0
   -3.2700  -28.7630  -38.3170 H   0  0  0  0  0  0  0  0  0  0  0  0
    2.4680  -26.6630  -41.5560 H   0  0  0  0  0  0  0  0  0  0  0  0
    1.4910  -26.4220  -43.0490 H   0  0  0  0  0  0  0  0  0  0  0  0
    1.1250  -24.1590  -42.5150 H   0  0  0  0  0  0  0  0  0  0  0  0
    1.0140  -24.5210  -40.7750 H   0  0  0  0  0  0  0  0  0  0  0  0
    3.4510  -24.5330  -40.6090 H   0  0  0  0  0  0  0  0  0  0  0  0
    2.9300  -22.0110  -43.1530 H   0  0  0  0  0  0  0  0  0  0  0  0
    4.6270  -22.2210  -43.7540 H   0  0  0  0  0  0  0  0  0  0  0  0
    6.6960  -19.6720  -40.7960 H   0  0  0  0  0  0  0  0  0  0  0  0
    4.5210  -18.7990  -40.9520 H   0  0  0  0  0  0  0  0  0  0  0  0
    3.6600  -18.7050  -38.6070 H   0  0  0  0  0  0  0  0  0  0  0  0
    6.2580  -18.5410  -38.7800 H   0  0  0  0  0  0  0  0  0  0  0  0
    5.7590  -19.4680  -37.2610 H   0  0  0  0  0  0  0  0  0  0  0  0
    7.1490  -21.0420  -38.7200 H   0  0  0  0  0  0  0  0  0  0  0  0
    5.0460  -22.6580  -38.3370 H   0  0  0  0  0  0  0  0  0  0  0  0
    3.0130  -21.0500  -37.8370 H   0  0  0  0  0  0  0  0  0  0  0  0
  2  7  1  0  0  0  0
  2  1  1  0  0  0  0
  3  2  2  0  0  0  0
  4  5  2  0  0  0  0
  4  3  1  0  0  0  0
  5  6  1  0  0  0  0
  6 29  1  0  0  0  0
  6  7  2  0  0  0  0
  7 30  1  0  0  0  0
  8  4  1  0  0  0  0
  9 10  1  0  0  0  0
  9 31  1  0  0  0  0
  9  8  1  0  0  0  0
 10 11  1  0  0  0  0
 10 34  1  0  0  0  0
 11 35  1  0  0  0  0
 12 11  1  0  0  0  0
 13 12  2  0  0  0  0
 14 12  1  0  0  0  0
 14 15  1  0  0  0  0
 15 16  1  0  0  0  0
 15 25  1  0  0  0  0
 16 18  1  0  0  0  0
 17 16  2  0  0  0  0
 18 38  1  6  0  0  0
 18 19  1  0  0  0  0
 18 22  1  0  0  0  0
 19 39  1  6  0  0  0
 19 20  1  0  0  0  0
 20 40  1  1  0  0  0
 20 21  1  0  0  0  0
 20 24  1  0  0  0  0
 21 42  1  0  0  0  0
 22 43  1  1  0  0  0
 22 23  1  0  0  0  0
 22 21  1  0  0  0  0
 23 44  1  0  0  0  0
 23 24  2  0  0  0  0
 24 45  1  0  0  0  0
 25 26  2  0  0  0  0
 25 19  1  0  0  0  0
 27  3  1  0  0  0  0
 28  5  1  0  0  0  0
 32  9  1  0  0  0  0
 33 10  1  0  0  0  0
 36 14  1  0  0  0  0
 37 14  1  0  0  0  0
 41 21  1  0  0  0  0
M  END
>  <Pose>
1

>  <Score>
-4.48

$$$$
