
 OpenBabel03232221553D

 50 53  0  0  0  0  0  0  0  0999 V2000
   10.3610  -26.1690  -42.2320 B   0  0  0  0  0  0  0  0  0  0  0  0
    8.8570  -25.3010  -43.0060 C   0  0  0  0  0  0  0  0  0  0  0  0
    7.7070  -26.0210  -43.2960 C   0  0  0  0  0  0  0  0  0  0  0  0
    6.5960  -25.4170  -43.8600 C   0  0  0  0  0  0  0  0  0  0  0  0
    6.5820  -24.0770  -44.1590 C   0  0  0  0  0  0  0  0  0  0  0  0
    7.7340  -23.3690  -43.8660 C   0  0  0  0  0  0  0  0  0  0  0  0
    8.8450  -23.9560  -43.3050 C   0  0  0  0  0  0  0  0  0  0  0  0
    5.4100  -23.4350  -44.7520 C   0  0  0  0  0  0  0  0  0  0  0  0
    4.7000  -24.0970  -45.5260 O   0  0  0  0  0  0  0  0  0  0  0  0
    5.0740  -22.0120  -44.4330 C   0  0  0  0  0  0  0  0  0  0  0  0
    4.5080  -21.8460  -43.1250 N   0  0  0  0  0  0  0  0  0  0  0  0
    5.0620  -21.2230  -42.0710 C   0  0  0  0  0  0  0  0  0  0  0  0
    4.2040  -21.2840  -40.9890 C   0  0  0  0  0  0  0  0  0  0  0  0
    3.1350  -21.9580  -41.4320 N   0  0  0  0  0  0  0  0  0  0  0  0
    3.2920  -22.3100  -42.7210 C   0  0  0  0  0  0  0  0  0  0  0  0
    2.4070  -23.0320  -43.5580 N   0  0  0  0  0  0  0  0  0  0  0  0
    1.8000  -22.3650  -44.6640 C   0  0  0  0  0  0  0  0  0  0  0  0
    1.1760  -23.2140  -45.7080 C   0  0  0  0  0  0  0  0  0  0  0  0
    0.7480  -24.5140  -45.2830 N   0  0  0  0  0  0  0  0  0  0  0  0
    1.8600  -25.1510  -44.6050 C   0  0  0  0  0  0  0  0  0  0  0  0
    2.1370  -24.4120  -43.2950 C   0  0  0  0  0  0  0  0  0  0  0  0
   -0.4500  -24.4970  -44.4940 C   0  0  0  0  0  0  0  0  0  0  0  0
    4.5530  -20.7240  -39.8170 N   0  0  0  0  0  0  0  0  0  0  0  0
    5.7360  -20.0990  -39.6810 C   0  0  0  0  0  0  0  0  0  0  0  0
    6.1020  -19.5640  -38.6050 O   0  0  0  0  0  0  0  0  0  0  0  0
    6.5910  -20.0320  -40.7380 N   0  0  0  0  0  0  0  0  0  0  0  0
    6.2870  -20.5760  -41.9300 C   0  0  0  0  0  0  0  0  0  0  0  0
    7.1130  -20.4900  -42.8960 O   0  0  0  0  0  0  0  0  0  0  0  0
    3.6760  -20.7700  -38.6650 C   0  0  0  0  0  0  0  0  0  0  0  0
    7.7140  -27.0830  -43.0590 H   0  0  0  0  0  0  0  0  0  0  0  0
    5.7000  -26.0140  -44.0770 H   0  0  0  0  0  0  0  0  0  0  0  0
    7.7420  -22.3050  -44.0950 H   0  0  0  0  0  0  0  0  0  0  0  0
    9.7290  -23.3830  -43.0880 H   0  0  0  0  0  0  0  0  0  0  0  0
    5.9650  -21.3700  -44.6040 H   0  0  0  0  0  0  0  0  0  0  0  0
    4.3350  -21.6890  -45.1900 H   0  0  0  0  0  0  0  0  0  0  0  0
    1.0170  -21.6930  -44.2200 H   0  0  0  0  0  0  0  0  0  0  0  0
    2.5410  -21.6930  -45.1610 H   0  0  0  0  0  0  0  0  0  0  0  0
    1.8350  -23.3290  -46.6040 H   0  0  0  0  0  0  0  0  0  0  0  0
    0.2290  -22.6920  -46.0490 H   0  0  0  0  0  0  0  0  0  0  0  0
    2.7600  -24.9740  -45.2420 H   0  0  0  0  0  0  0  0  0  0  0  0
    1.7470  -26.2130  -44.4160 H   0  0  0  0  0  0  0  0  0  0  0  0
    1.2850  -24.5580  -42.5850 H   0  0  0  0  0  0  0  0  0  0  0  0
    2.9920  -24.9540  -42.8400 H   0  0  0  0  0  0  0  0  0  0  0  0
   -0.5070  -23.5180  -43.9370 H   0  0  0  0  0  0  0  0  0  0  0  0
   -0.5060  -25.3330  -43.7700 H   0  0  0  0  0  0  0  0  0  0  0  0
   -1.3680  -24.5250  -45.1120 H   0  0  0  0  0  0  0  0  0  0  0  0
    7.5010  -19.5380  -40.5900 H   0  0  0  0  0  0  0  0  0  0  0  0
    2.8970  -19.9980  -38.8350 H   0  0  0  0  0  0  0  0  0  0  0  0
    3.1640  -21.7530  -38.6400 H   0  0  0  0  0  0  0  0  0  0  0  0
    4.2330  -20.5660  -37.7300 H   0  0  0  0  0  0  0  0  0  0  0  0
  2  1  1  0  0  0  0
  3 30  1  0  0  0  0
  3  2  1  0  0  0  0
  4  3  2  0  0  0  0
  5  6  2  0  0  0  0
  5  4  1  0  0  0  0
  6  7  1  0  0  0  0
  7 33  1  0  0  0  0
  7  2  2  0  0  0  0
  8 10  1  0  0  0  0
  8  5  1  0  0  0  0
  9  8  2  0  0  0  0
 10 11  1  0  0  0  0
 11 15  1  0  0  0  0
 11 12  1  0  0  0  0
 12 27  1  0  0  0  0
 12 13  2  0  0  0  0
 13 23  1  0  0  0  0
 14 13  1  0  0  0  0
 15 14  2  0  0  0  0
 16 21  1  0  0  0  0
 16 15  1  0  0  0  0
 17 36  1  0  0  0  0
 17 16  1  0  0  0  0
 18 19  1  0  0  0  0
 18 17  1  0  0  0  0
 19 20  1  0  0  0  0
 19 22  1  0  0  0  0
 20 41  1  0  0  0  0
 20 21  1  0  0  0  0
 21 43  1  0  0  0  0
 21 42  1  0  0  0  0
 22 44  1  0  0  0  0
 22 45  1  0  0  0  0
 23 24  1  0  0  0  0
 23 29  1  0  0  0  0
 24 25  2  0  0  0  0
 26 47  1  0  0  0  0
 26 24  1  0  0  0  0
 27 26  1  0  0  0  0
 28 27  2  0  0  0  0
 29 49  1  0  0  0  0
 29 50  1  0  0  0  0
 31  4  1  0  0  0  0
 32  6  1  0  0  0  0
 34 10  1  0  0  0  0
 35 10  1  0  0  0  0
 37 17  1  0  0  0  0
 38 18  1  0  0  0  0
 39 18  1  0  0  0  0
 40 20  1  0  0  0  0
 46 22  1  0  0  0  0
 48 29  1  0  0  0  0
M  END
>  <Pose>
1

>  <Score>
-4.24

$$$$
