
 OpenBabel03232221553D

 58 61  0  0  1  0  0  0  0  0999 V2000
   13.0760  -28.5010  -44.2340 B   0  0  0  0  0  0  0  0  0  0  0  0
   11.4660  -27.5230  -44.0070 C   0  0  0  0  0  0  0  0  0  0  0  0
   11.1910  -26.9730  -42.7770 C   0  0  0  0  0  0  0  0  0  0  0  0
   10.0320  -26.2650  -42.5990 C   0  0  0  0  0  0  0  0  0  0  0  0
    9.1120  -26.0810  -43.6380 C   0  0  0  0  0  0  0  0  0  0  0  0
    9.4470  -26.6580  -44.8460 C   0  0  0  0  0  0  0  0  0  0  0  0
   10.6060  -27.3800  -45.0630 C   0  0  0  0  0  0  0  0  0  0  0  0
    7.8940  -25.3210  -43.4250 C   0  0  0  0  0  0  0  0  0  0  0  0
    6.8090  -25.9340  -43.3530 O   0  0  0  0  0  0  0  0  0  0  0  0
    7.9520  -23.8760  -43.3010 C   0  0  2  0  0  0  0  0  0  0  0  0
    6.6360  -23.2040  -42.9940 C   0  0  1  0  0  0  0  0  0  0  0  0
    6.9320  -21.8160  -43.2660 N   0  0  0  0  0  0  0  0  0  0  0  0
    7.8540  -21.8100  -44.3510 C   0  0  0  0  0  0  0  0  0  0  0  0
    8.2510  -20.7820  -44.9820 O   0  0  0  0  0  0  0  0  0  0  0  0
    8.2660  -23.2020  -44.6140 C   0  0  0  0  0  0  0  0  0  0  0  0
    8.7450  -23.6620  -45.6630 O   0  0  0  0  0  0  0  0  0  0  0  0
    6.4430  -20.6220  -42.6240 C   0  0  0  0  0  0  0  0  0  0  0  0
    5.8140  -20.8750  -41.2870 C   0  0  0  0  0  0  0  0  0  0  0  0
    6.0110  -19.8670  -40.3190 N   0  0  0  0  0  4  0  0  0  0  0  0
    6.1600  -20.5140  -39.0120 C   0  0  0  0  0  0  0  0  0  0  0  0
    4.8810  -21.1010  -38.5140 C   0  0  0  0  0  0  0  0  0  0  0  0
    3.7560  -20.6810  -39.1800 O   0  0  0  0  0  0  0  0  0  0  0  0
    3.7880  -19.3280  -39.4100 C   0  0  0  0  0  0  0  0  0  0  0  0
    4.9900  -18.8870  -40.2000 C   0  0  0  0  0  0  0  0  0  0  0  0
    5.5010  -23.7330  -43.7350 C   0  0  0  0  0  0  0  0  0  0  0  0
    4.4070  -24.3300  -43.0930 C   0  0  0  0  0  0  0  0  0  0  0  0
    3.3320  -24.8260  -43.8030 C   0  0  0  0  0  0  0  0  0  0  0  0
    3.2930  -24.7500  -45.1830 C   0  0  0  0  0  0  0  0  0  0  0  0
    4.3590  -24.1660  -45.8340 C   0  0  0  0  0  0  0  0  0  0  0  0
    5.4310  -23.6740  -45.1070 C   0  0  0  0  0  0  0  0  0  0  0  0
    2.2240  -25.2420  -45.9210 O   0  0  0  0  0  0  0  0  0  0  0  0
    2.2490  -25.4160  -43.1760 O   0  0  0  0  0  0  0  0  0  0  0  0
    1.4930  -24.7880  -42.1730 C   0  0  0  0  0  0  0  0  0  0  0  0
   11.9000  -27.1170  -41.9830 H   0  0  0  0  0  0  0  0  0  0  0  0
    9.7680  -25.8130  -41.6550 H   0  0  0  0  0  0  0  0  0  0  0  0
    8.7920  -26.5590  -45.7000 H   0  0  0  0  0  0  0  0  0  0  0  0
   10.8500  -27.8190  -46.0070 H   0  0  0  0  0  0  0  0  0  0  0  0
    8.7240  -23.5110  -42.5900 H   0  0  0  0  0  0  0  0  0  0  0  0
    6.4490  -23.3870  -41.9130 H   0  0  0  0  0  0  0  0  0  0  0  0
    5.6330  -20.2180  -43.2900 H   0  0  0  0  0  0  0  0  0  0  0  0
    7.1870  -19.8330  -42.5190 H   0  0  0  0  0  0  0  0  0  0  0  0
    6.1780  -21.8500  -40.8490 H   0  0  0  0  0  0  0  0  0  0  0  0
    4.7280  -21.0310  -41.4570 H   0  0  0  0  0  0  0  0  0  0  0  0
    6.9290  -19.3650  -40.4730 H   0  0  0  0  0  0  0  0  0  0  0  0
    7.0070  -21.2240  -39.0030 H   0  0  0  0  0  0  0  0  0  0  0  0
    6.4410  -19.6860  -38.3040 H   0  0  0  0  0  0  0  0  0  0  0  0
    4.9410  -22.2110  -38.6330 H   0  0  0  0  0  0  0  0  0  0  0  0
    4.7110  -20.8730  -37.4220 H   0  0  0  0  0  0  0  0  0  0  0  0
    2.8250  -19.0280  -39.9180 H   0  0  0  0  0  0  0  0  0  0  0  0
    3.7270  -18.8240  -38.4070 H   0  0  0  0  0  0  0  0  0  0  0  0
    4.6290  -18.4620  -41.1540 H   0  0  0  0  0  0  0  0  0  0  0  0
    5.4320  -18.0110  -39.6380 H   0  0  0  0  0  0  0  0  0  0  0  0
    4.4360  -24.3900  -42.0060 H   0  0  0  0  0  0  0  0  0  0  0  0
    4.3170  -24.1140  -46.9130 H   0  0  0  0  0  0  0  0  0  0  0  0
    6.2250  -23.2320  -45.6530 H   0  0  0  0  0  0  0  0  0  0  0  0
    2.1430  -24.3470  -41.3720 H   0  0  0  0  0  0  0  0  0  0  0  0
    0.8860  -25.5650  -41.6610 H   0  0  0  0  0  0  0  0  0  0  0  0
    0.8060  -24.0170  -42.5420 H   0  0  0  0  0  0  0  0  0  0  0  0
  1  2  1  0  0  0  0
  2  3  1  0  0  0  0
  3  4  2  0  0  0  0
  3 34  1  0  0  0  0
  4 35  1  0  0  0  0
  5  8  1  0  0  0  0
  5  4  1  0  0  0  0
  6  5  2  0  0  0  0
  7  6  1  0  0  0  0
  7  2  2  0  0  0  0
  8  9  2  0  0  0  0
  8 10  1  0  0  0  0
 10 11  1  0  0  0  0
 10 38  1  1  0  0  0
 11 39  1  1  0  0  0
 12 11  1  0  0  0  0
 12 17  1  0  0  0  0
 13 12  1  0  0  0  0
 14 13  2  0  0  0  0
 15 13  1  0  0  0  0
 15 10  1  0  0  0  0
 16 15  2  0  0  0  0
 17 41  1  0  0  0  0
 17 18  1  0  0  0  0
 18 42  1  0  0  0  0
 18 19  1  0  0  0  0
 19 24  1  0  0  0  0
 19 20  1  0  0  0  0
 20 45  1  0  0  0  0
 20 21  1  0  0  0  0
 20 46  1  0  0  0  0
 21 48  1  0  0  0  0
 22 21  1  0  0  0  0
 23 22  1  0  0  0  0
 23 50  1  0  0  0  0
 24 52  1  0  0  0  0
 24 23  1  0  0  0  0
 25 26  1  0  0  0  0
 25 11  1  0  0  0  0
 26 53  1  0  0  0  0
 27 32  1  0  0  0  0
 27 26  2  0  0  0  0
 28 27  1  0  0  0  0
 29 28  2  0  0  0  0
 29 30  1  0  0  0  0
 30 25  2  0  0  0  0
 31 28  1  0  0  0  0
 32 33  1  0  0  0  0
 33 57  1  0  0  0  0
 33 56  1  0  0  0  0
 36  6  1  0  0  0  0
 37  7  1  0  0  0  0
 40 17  1  0  0  0  0
 43 18  1  0  0  0  0
 44 19  1  0  0  0  0
 47 21  1  0  0  0  0
 49 23  1  0  0  0  0
 51 24  1  0  0  0  0
 54 29  1  0  0  0  0
 55 30  1  0  0  0  0
 58 33  1  0  0  0  0
M  END
>  <Pose>
1

>  <Score>
-5.09

$$$$
