
 OpenBabel03232221553D

 48 51  0  0  1  0  0  0  0  0999 V2000
    0.6370  -12.7910  -36.3750 B   0  0  0  0  0  0  0  0  0  0  0  0
    0.8050  -14.6110  -36.8950 C   0  0  0  0  0  0  0  0  0  0  0  0
    1.6890  -15.0430  -37.8620 C   0  0  0  0  0  0  0  0  0  0  0  0
    1.7870  -16.3740  -38.2160 C   0  0  0  0  0  0  0  0  0  0  0  0
    1.0030  -17.3420  -37.6230 C   0  0  0  0  0  0  0  0  0  0  0  0
    0.1210  -16.9110  -36.6600 C   0  0  0  0  0  0  0  0  0  0  0  0
    0.0170  -15.5890  -36.2990 C   0  0  0  0  0  0  0  0  0  0  0  0
    1.1070  -18.7590  -38.0020 C   0  0  0  0  0  0  0  0  0  0  0  0
    0.0440  -19.4520  -37.8540 O   0  0  0  0  0  0  0  0  0  0  0  0
    2.2780  -19.3420  -38.4940 N   0  0  0  0  0  0  0  0  0  0  0  0
    2.9370  -18.8090  -39.6590 C   0  0  2  0  0  0  0  0  0  0  0  0
    2.2270  -19.1730  -40.9400 C   0  0  0  0  0  0  0  0  0  0  0  0
    2.8840  -20.3860  -41.3790 N   0  0  0  0  0  0  0  0  0  0  0  0
    4.1730  -20.5180  -40.7220 C   0  0  1  0  0  0  0  0  0  0  0  0
    4.3110  -19.4140  -39.7330 C   0  0  0  0  0  0  0  0  0  0  0  0
    4.1840  -21.8660  -40.1090 C   0  0  0  0  0  0  0  0  0  0  0  0
    4.5340  -21.9950  -38.9150 O   0  0  0  0  0  0  0  0  0  0  0  0
    3.7920  -22.9660  -40.9100 N   0  0  0  0  0  0  0  0  0  0  0  0
    3.0310  -22.8380  -42.1320 C   0  0  1  0  0  0  0  0  0  0  0  0
    2.5520  -21.4340  -42.2800 C   0  0  0  0  0  0  0  0  0  0  0  0
    1.7940  -21.1240  -43.2680 O   0  0  0  0  0  0  0  0  0  0  0  0
    3.8290  -23.3040  -43.3250 C   0  0  0  0  0  0  0  0  0  0  0  0
    5.0610  -22.4860  -43.5100 C   0  0  0  0  0  0  0  0  0  0  0  0
    6.3040  -22.9780  -43.1110 C   0  0  0  0  0  0  0  0  0  0  0  0
    7.4090  -22.1790  -43.3060 C   0  0  0  0  0  0  0  0  0  0  0  0
    7.3380  -20.9200  -43.8770 C   0  0  0  0  0  0  0  0  0  0  0  0
    6.0920  -20.4790  -44.2540 C   0  0  0  0  0  0  0  0  0  0  0  0
    4.9510  -21.2330  -44.0830 C   0  0  0  0  0  0  0  0  0  0  0  0
    2.3060  -14.2690  -38.3270 H   0  0  0  0  0  0  0  0  0  0  0  0
    2.4920  -16.6270  -38.9690 H   0  0  0  0  0  0  0  0  0  0  0  0
   -0.5100  -17.6310  -36.1690 H   0  0  0  0  0  0  0  0  0  0  0  0
   -0.6890  -15.2530  -35.5300 H   0  0  0  0  0  0  0  0  0  0  0  0
    2.6900  -20.1670  -38.0290 H   0  0  0  0  0  0  0  0  0  0  0  0
    2.9450  -17.7130  -39.5960 H   0  0  0  0  0  0  0  0  0  0  0  0
    1.1670  -19.3080  -40.7050 H   0  0  0  0  0  0  0  0  0  0  0  0
    2.3170  -18.4170  -41.7290 H   0  0  0  0  0  0  0  0  0  0  0  0
    4.9740  -20.4200  -41.4850 H   0  0  0  0  0  0  0  0  0  0  0  0
    4.6930  -19.7590  -38.7640 H   0  0  0  0  0  0  0  0  0  0  0  0
    5.0050  -18.6390  -40.1160 H   0  0  0  0  0  0  0  0  0  0  0  0
    4.0870  -23.9170  -40.5670 H   0  0  0  0  0  0  0  0  0  0  0  0
    2.1170  -23.4570  -42.0180 H   0  0  0  0  0  0  0  0  0  0  0  0
    3.2240  -23.2780  -44.2490 H   0  0  0  0  0  0  0  0  0  0  0  0
    4.1600  -24.3380  -43.1010 H   0  0  0  0  0  0  0  0  0  0  0  0
    6.3430  -23.9610  -42.6670 H   0  0  0  0  0  0  0  0  0  0  0  0
    8.3970  -22.5500  -42.9990 H   0  0  0  0  0  0  0  0  0  0  0  0
    8.2410  -20.3360  -44.0060 H   0  0  0  0  0  0  0  0  0  0  0  0
    6.0210  -19.4840  -44.7070 H   0  0  0  0  0  0  0  0  0  0  0  0
    3.9780  -20.8780  -44.3820 H   0  0  0  0  0  0  0  0  0  0  0  0
  2  1  1  0  0  0  0
  2  7  1  0  0  0  0
  3  2  2  0  0  0  0
  4  3  1  0  0  0  0
  4  5  2  0  0  0  0
  5  6  1  0  0  0  0
  6  7  2  0  0  0  0
  6 31  1  0  0  0  0
  7 32  1  0  0  0  0
  8  9  2  0  0  0  0
  8  5  1  0  0  0  0
 10 33  1  0  0  0  0
 10  8  1  0  0  0  0
 11 34  1  1  0  0  0
 11 10  1  0  0  0  0
 12 35  1  0  0  0  0
 12 11  1  0  0  0  0
 13 12  1  0  0  0  0
 13 14  1  0  0  0  0
 14 37  1  6  0  0  0
 14 16  1  0  0  0  0
 14 15  1  0  0  0  0
 15 11  1  0  0  0  0
 15 38  1  0  0  0  0
 16 17  2  0  0  0  0
 18 40  1  0  0  0  0
 18 16  1  0  0  0  0
 19 41  1  1  0  0  0
 19 18  1  0  0  0  0
 20 19  1  0  0  0  0
 20 13  1  0  0  0  0
 21 20  2  0  0  0  0
 22 43  1  0  0  0  0
 22 19  1  0  0  0  0
 23 22  1  0  0  0  0
 23 24  1  0  0  0  0
 24 44  1  0  0  0  0
 25 24  2  0  0  0  0
 25 45  1  0  0  0  0
 26 25  1  0  0  0  0
 27 28  1  0  0  0  0
 27 26  2  0  0  0  0
 28 23  2  0  0  0  0
 29  3  1  0  0  0  0
 30  4  1  0  0  0  0
 36 12  1  0  0  0  0
 39 15  1  0  0  0  0
 42 22  1  0  0  0  0
 46 26  1  0  0  0  0
 47 27  1  0  0  0  0
 48 28  1  0  0  0  0
M  END
>  <Pose>
1

>  <Score>
-4.06

$$$$
