
 OpenBabel03232221553D

 42 45  0  0  1  0  0  0  0  0999 V2000
    0.0650  -19.5040  -38.0960 B   0  0  0  0  0  0  0  0  0  0  0  0
    1.8360  -19.8370  -38.6940 C   0  0  0  0  0  0  0  0  0  0  0  0
    2.0520  -20.2730  -39.9900 C   0  0  0  0  0  0  0  0  0  0  0  0
    3.3150  -20.5300  -40.4740 C   0  0  0  0  0  0  0  0  0  0  0  0
    4.4220  -20.3570  -39.6720 C   0  0  0  0  0  0  0  0  0  0  0  0
    4.2160  -19.9280  -38.3960 C   0  0  0  0  0  0  0  0  0  0  0  0
    2.9460  -19.6640  -37.8890 C   0  0  0  0  0  0  0  0  0  0  0  0
    5.7610  -20.6410  -40.2240 C   0  0  0  0  0  0  0  0  0  0  0  0
    6.2560  -21.7750  -40.0580 O   0  0  0  0  0  0  0  0  0  0  0  0
    6.4900  -19.6530  -40.9340 N   0  0  0  0  0  0  0  0  0  0  0  0
    5.8370  -18.8770  -41.9360 C   0  0  2  0  0  0  0  0  0  0  0  0
    5.2170  -19.7130  -43.0320 C   0  0  0  0  0  0  0  0  0  0  0  0
    6.3310  -19.9470  -43.9330 N   0  0  0  0  0  0  0  0  0  0  0  0
    7.2910  -18.8690  -43.7890 C   0  0  1  0  0  0  0  0  0  0  0  0
    6.8760  -18.0300  -42.6270 C   0  0  0  0  0  0  0  0  0  0  0  0
    8.6190  -19.5070  -43.6030 C   0  0  0  0  0  0  0  0  0  0  0  0
    9.4420  -19.1520  -42.7280 O   0  0  0  0  0  0  0  0  0  0  0  0
    9.0050  -20.5770  -44.4460 N   0  0  0  0  0  0  0  0  0  0  0  0
    8.0410  -21.4510  -45.0820 C   0  0  2  0  0  0  0  0  0  0  0  0
    8.5130  -21.4060  -46.5010 C   0  0  0  0  0  0  0  0  0  0  0  0
   10.0340  -21.4680  -46.3170 C   0  0  0  0  0  0  0  0  0  0  0  0
   10.2950  -21.0460  -44.8680 C   0  0  0  0  0  0  0  0  0  0  0  0
    6.6550  -20.9600  -44.8770 C   0  0  0  0  0  0  0  0  0  0  0  0
    5.6980  -21.4550  -45.5650 O   0  0  0  0  0  0  0  0  0  0  0  0
    1.2220  -20.4250  -40.6590 H   0  0  0  0  0  0  0  0  0  0  0  0
    3.4770  -20.8760  -41.5030 H   0  0  0  0  0  0  0  0  0  0  0  0
    5.0280  -19.7760  -37.7330 H   0  0  0  0  0  0  0  0  0  0  0  0
    2.7970  -19.3230  -36.8730 H   0  0  0  0  0  0  0  0  0  0  0  0
    7.5080  -19.4670  -40.7480 H   0  0  0  0  0  0  0  0  0  0  0  0
    5.0870  -18.2190  -41.4560 H   0  0  0  0  0  0  0  0  0  0  0  0
    4.4330  -19.1160  -43.5200 H   0  0  0  0  0  0  0  0  0  0  0  0
    4.7760  -20.6190  -42.6260 H   0  0  0  0  0  0  0  0  0  0  0  0
    7.3610  -18.2480  -44.7200 H   0  0  0  0  0  0  0  0  0  0  0  0
    7.6820  -17.7070  -41.9670 H   0  0  0  0  0  0  0  0  0  0  0  0
    6.3400  -17.1120  -42.9950 H   0  0  0  0  0  0  0  0  0  0  0  0
    8.1150  -22.4940  -44.7110 H   0  0  0  0  0  0  0  0  0  0  0  0
    8.1440  -22.2790  -47.0520 H   0  0  0  0  0  0  0  0  0  0  0  0
    8.2190  -20.4420  -46.9960 H   0  0  0  0  0  0  0  0  0  0  0  0
   10.5440  -20.7920  -47.0340 H   0  0  0  0  0  0  0  0  0  0  0  0
   10.4110  -22.4940  -46.4290 H   0  0  0  0  0  0  0  0  0  0  0  0
   10.6440  -21.9050  -44.2640 H   0  0  0  0  0  0  0  0  0  0  0  0
   11.0790  -20.2660  -44.8320 H   0  0  0  0  0  0  0  0  0  0  0  0
  2  1  1  0  0  0  0
  2  7  1  0  0  0  0
  3  2  2  0  0  0  0
  4  3  1  0  0  0  0
  4  5  2  0  0  0  0
  5  6  1  0  0  0  0
  6  7  2  0  0  0  0
  6 27  1  0  0  0  0
  7 28  1  0  0  0  0
  8  9  2  0  0  0  0
  8  5  1  0  0  0  0
 10 29  1  0  0  0  0
 10  8  1  0  0  0  0
 11 30  1  1  0  0  0
 11 10  1  0  0  0  0
 12 32  1  0  0  0  0
 12 11  1  0  0  0  0
 13 14  1  0  0  0  0
 13 12  1  0  0  0  0
 14 33  1  6  0  0  0
 14 16  1  0  0  0  0
 14 15  1  0  0  0  0
 15 34  1  0  0  0  0
 15 11  1  0  0  0  0
 16 17  2  0  0  0  0
 18 16  1  0  0  0  0
 19 23  1  0  0  0  0
 19 36  1  1  0  0  0
 19 18  1  0  0  0  0
 20 21  1  0  0  0  0
 20 19  1  0  0  0  0
 21 22  1  0  0  0  0
 22 42  1  0  0  0  0
 22 18  1  0  0  0  0
 22 41  1  0  0  0  0
 23 13  1  0  0  0  0
 24 23  2  0  0  0  0
 25  3  1  0  0  0  0
 26  4  1  0  0  0  0
 31 12  1  0  0  0  0
 35 15  1  0  0  0  0
 37 20  1  0  0  0  0
 38 20  1  0  0  0  0
 39 21  1  0  0  0  0
 40 21  1  0  0  0  0
M  END
>  <Pose>
1

>  <Score>
-3.92

$$$$
