
 OpenBabel03232221553D

 35 38  0  0  1  0  0  0  0  0999 V2000
   13.4970  -22.3070  -44.4650 B   0  0  0  0  0  0  0  0  0  0  0  0
   11.8040  -21.4600  -44.1960 C   0  0  0  0  0  0  0  0  0  0  0  0
   10.6560  -22.1320  -44.5000 C   0  0  0  0  0  0  0  0  0  0  0  0
    9.4250  -21.5380  -44.3100 C   0  0  0  0  0  0  0  0  0  0  0  0
    9.3230  -20.2450  -43.8060 C   0  0  0  0  0  0  0  0  0  0  0  0
   10.4910  -19.5830  -43.5050 C   0  0  0  0  0  0  0  0  0  0  0  0
   11.7190  -20.1640  -43.6900 C   0  0  0  0  0  0  0  0  0  0  0  0
    8.0130  -19.6710  -43.6130 C   0  0  0  0  0  0  0  0  0  0  0  0
    7.3190  -19.4200  -44.6510 O   0  0  0  0  0  0  0  0  0  0  0  0
    7.5310  -19.4020  -42.3150 N   0  0  0  0  0  0  0  0  0  0  0  0
    6.2620  -19.8700  -41.8850 N   0  0  0  0  0  0  0  0  0  0  0  0
    5.8890  -21.1690  -41.4410 C   0  0  0  0  0  0  0  0  0  0  0  0
    6.6890  -22.1620  -41.5350 O   0  0  0  0  0  0  0  0  0  0  0  0
    4.5090  -21.1580  -40.8910 C   0  0  2  0  0  0  0  0  0  0  0  0
    4.1750  -19.6780  -40.9100 C   0  0  1  0  0  0  0  0  0  0  0  0
    4.4470  -19.3100  -39.4680 C   0  0  1  0  0  0  0  0  0  0  0  0
    3.6170  -20.4370  -38.8190 C   0  0  0  0  0  0  0  0  0  0  0  0
    4.4960  -21.5400  -39.4380 C   0  0  2  0  0  0  0  0  0  0  0  0
    5.8170  -21.0810  -38.8790 C   0  0  0  0  0  0  0  0  0  0  0  0
    5.8010  -19.7640  -39.0430 C   0  0  0  0  0  0  0  0  0  0  0  0
    5.1200  -19.0370  -41.8410 C   0  0  0  0  0  0  0  0  0  0  0  0
    4.9250  -17.9670  -42.4580 O   0  0  0  0  0  0  0  0  0  0  0  0
   10.6970  -23.1250  -44.8880 H   0  0  0  0  0  0  0  0  0  0  0  0
    8.5400  -22.1070  -44.5710 H   0  0  0  0  0  0  0  0  0  0  0  0
   10.4310  -18.5630  -43.1070 H   0  0  0  0  0  0  0  0  0  0  0  0
   12.6500  -19.6600  -43.4620 H   0  0  0  0  0  0  0  0  0  0  0  0
    8.1030  -18.8460  -41.6540 H   0  0  0  0  0  0  0  0  0  0  0  0
    3.8170  -21.7640  -41.5060 H   0  0  0  0  0  0  0  0  0  0  0  0
    3.1260  -19.5310  -41.1480 H   0  0  0  0  0  0  0  0  0  0  0  0
    4.1490  -18.3340  -39.1680 H   0  0  0  0  0  0  0  0  0  0  0  0
    3.7060  -20.4020  -37.7280 H   0  0  0  0  0  0  0  0  0  0  0  0
    2.6040  -20.4420  -39.2100 H   0  0  0  0  0  0  0  0  0  0  0  0
    4.2040  -22.5260  -39.1810 H   0  0  0  0  0  0  0  0  0  0  0  0
    6.5400  -21.7530  -38.4630 H   0  0  0  0  0  0  0  0  0  0  0  0
    6.6570  -19.1270  -38.8860 H   0  0  0  0  0  0  0  0  0  0  0  0
  1  2  1  0  0  0  0
  2  7  1  0  0  0  0
  3  4  1  0  0  0  0
  3  2  2  0  0  0  0
  4  5  2  0  0  0  0
  5  8  1  0  0  0  0
  5  6  1  0  0  0  0
  6 25  1  0  0  0  0
  7  6  2  0  0  0  0
  7 26  1  0  0  0  0
  8 10  1  0  0  0  0
  9  8  2  0  0  0  0
 10 11  1  0  0  0  0
 10 27  1  0  0  0  0
 11 21  1  0  0  0  0
 11 12  1  0  0  0  0
 12 14  1  0  0  0  0
 13 12  2  0  0  0  0
 14 28  1  6  0  0  0
 14 18  1  0  0  0  0
 15 29  1  6  0  0  0
 15 14  1  0  0  0  0
 15 16  1  0  0  0  0
 16 30  1  1  0  0  0
 16 20  1  0  0  0  0
 16 17  1  0  0  0  0
 17 31  1  0  0  0  0
 18 33  1  1  0  0  0
 18 19  1  0  0  0  0
 18 17  1  0  0  0  0
 19 34  1  0  0  0  0
 20 35  1  0  0  0  0
 20 19  2  0  0  0  0
 21 15  1  0  0  0  0
 22 21  2  0  0  0  0
 23  3  1  0  0  0  0
 24  4  1  0  0  0  0
 32 17  1  0  0  0  0
M  END
>  <Pose>
1

>  <Score>
-3.92

$$$$
