
 OpenBabel03232221553D

 55 58  0  0  0  0  0  0  0  0999 V2000
   -2.4720  -10.9080  -34.4680 B   0  0  0  0  0  0  0  0  0  0  0  0
   -1.4930  -12.1230  -35.5890 C   0  0  0  0  0  0  0  0  0  0  0  0
   -0.1130  -12.1030  -35.6120 C   0  0  0  0  0  0  0  0  0  0  0  0
    0.5960  -12.9760  -36.4210 C   0  0  0  0  0  0  0  0  0  0  0  0
   -0.0700  -13.8760  -37.2150 C   0  0  0  0  0  0  0  0  0  0  0  0
   -1.4480  -13.9110  -37.2030 C   0  0  0  0  0  0  0  0  0  0  0  0
   -2.1400  -13.0350  -36.3920 C   0  0  0  0  0  0  0  0  0  0  0  0
    0.7290  -14.7750  -38.0690 C   0  0  0  0  0  0  0  0  0  0  0  0
    0.3000  -14.8410  -39.4270 N   0  0  0  0  0  0  0  0  0  0  0  0
    1.2240  -14.4140  -40.3900 C   0  0  0  0  0  0  0  0  0  0  0  0
    1.7030  -15.5520  -41.2860 C   0  0  0  0  0  0  0  0  0  0  0  0
    1.1400  -16.7530  -40.7750 N   0  0  0  0  0  0  0  0  0  0  0  0
   -0.3010  -16.8280  -40.7490 C   0  0  0  0  0  0  0  0  0  0  0  0
   -0.7260  -15.7460  -39.7500 C   0  0  0  0  0  0  0  0  0  0  0  0
    1.9060  -17.8280  -40.2910 C   0  0  0  0  0  0  0  0  0  0  0  0
    2.0680  -18.2260  -39.0180 N   0  0  0  0  0  0  0  0  0  0  0  0
    2.9260  -19.2740  -38.9850 C   0  0  0  0  0  0  0  0  0  0  0  0
    3.3250  -19.5560  -40.2730 C   0  0  0  0  0  0  0  0  0  0  0  0
    2.6930  -18.6700  -41.0430 N   0  0  0  0  0  0  0  0  0  0  0  0
    4.1860  -20.5660  -40.4940 N   0  0  0  0  0  0  0  0  0  0  0  0
    4.6740  -21.3120  -39.4930 C   0  0  0  0  0  0  0  0  0  0  0  0
    5.4890  -22.2570  -39.7410 O   0  0  0  0  0  0  0  0  0  0  0  0
    4.2980  -21.0520  -38.2290 N   0  0  0  0  0  0  0  0  0  0  0  0
    3.4410  -20.0540  -37.9740 C   0  0  0  0  0  0  0  0  0  0  0  0
    3.0920  -19.8130  -36.7920 O   0  0  0  0  0  0  0  0  0  0  0  0
    4.5920  -20.8350  -41.8780 C   0  0  0  0  0  0  0  0  0  0  0  0
    1.4360  -17.7140  -37.8330 C   0  0  0  0  0  0  0  0  0  0  0  0
    0.0590  -18.3030  -37.6210 C   0  0  0  0  0  0  0  0  0  0  0  0
   -0.5830  -17.8370  -36.4920 O   0  0  0  0  0  0  0  0  0  0  0  0
   -1.8550  -18.4550  -36.4910 C   0  0  0  0  0  0  0  0  0  0  0  0
    0.3930  -11.3920  -34.9880 H   0  0  0  0  0  0  0  0  0  0  0  0
    1.6770  -12.8970  -36.3800 H   0  0  0  0  0  0  0  0  0  0  0  0
   -2.0110  -14.6230  -37.8260 H   0  0  0  0  0  0  0  0  0  0  0  0
   -3.2310  -13.0790  -36.4010 H   0  0  0  0  0  0  0  0  0  0  0  0
    0.8340  -15.7760  -37.6130 H   0  0  0  0  0  0  0  0  0  0  0  0
    1.7700  -14.3330  -38.0910 H   0  0  0  0  0  0  0  0  0  0  0  0
    2.1660  -14.0870  -39.8440 H   0  0  0  0  0  0  0  0  0  0  0  0
    0.9310  -13.5180  -40.9930 H   0  0  0  0  0  0  0  0  0  0  0  0
    1.2850  -15.3020  -42.3140 H   0  0  0  0  0  0  0  0  0  0  0  0
    2.7910  -15.5330  -41.4320 H   0  0  0  0  0  0  0  0  0  0  0  0
   -0.6330  -17.8210  -40.4390 H   0  0  0  0  0  0  0  0  0  0  0  0
   -0.7530  -16.5660  -41.7490 H   0  0  0  0  0  0  0  0  0  0  0  0
   -1.0140  -16.2950  -38.8260 H   0  0  0  0  0  0  0  0  0  0  0  0
   -1.6610  -15.2650  -40.1010 H   0  0  0  0  0  0  0  0  0  0  0  0
    4.6800  -21.6390  -37.4320 H   0  0  0  0  0  0  0  0  0  0  0  0
    5.3870  -20.0940  -42.1280 H   0  0  0  0  0  0  0  0  0  0  0  0
    4.9140  -21.8610  -42.0350 H   0  0  0  0  0  0  0  0  0  0  0  0
    3.7160  -20.5750  -42.5200 H   0  0  0  0  0  0  0  0  0  0  0  0
    2.0140  -17.8860  -36.9030 H   0  0  0  0  0  0  0  0  0  0  0  0
    1.3230  -16.5900  -37.8980 H   0  0  0  0  0  0  0  0  0  0  0  0
    0.1280  -19.4210  -37.6370 H   0  0  0  0  0  0  0  0  0  0  0  0
   -0.5820  -18.0510  -38.4830 H   0  0  0  0  0  0  0  0  0  0  0  0
   -1.6890  -19.5660  -36.4480 H   0  0  0  0  0  0  0  0  0  0  0  0
   -2.4060  -18.2810  -37.4230 H   0  0  0  0  0  0  0  0  0  0  0  0
   -2.4100  -18.1110  -35.5980 H   0  0  0  0  0  0  0  0  0  0  0  0
  2  1  1  0  0  0  0
  3  2  1  0  0  0  0
  3 31  1  0  0  0  0
  4 32  1  0  0  0  0
  4  3  2  0  0  0  0
  5  6  2  0  0  0  0
  5  4  1  0  0  0  0
  6  7  1  0  0  0  0
  7  2  2  0  0  0  0
  8 35  1  0  0  0  0
  8  5  1  0  0  0  0
  9  8  1  0  0  0  0
 10 37  1  0  0  0  0
 10  9  1  0  0  0  0
 11 12  1  0  0  0  0
 11 10  1  0  0  0  0
 12 13  1  0  0  0  0
 12 15  1  0  0  0  0
 13 41  1  0  0  0  0
 13 14  1  0  0  0  0
 14  9  1  0  0  0  0
 14 43  1  0  0  0  0
 15 16  1  0  0  0  0
 16 17  1  0  0  0  0
 16 27  1  0  0  0  0
 17 24  1  0  0  0  0
 18 17  2  0  0  0  0
 19 15  2  0  0  0  0
 19 18  1  0  0  0  0
 20 18  1  0  0  0  0
 20 21  1  0  0  0  0
 21 23  1  0  0  0  0
 22 21  2  0  0  0  0
 23 24  1  0  0  0  0
 23 45  1  0  0  0  0
 24 25  2  0  0  0  0
 26 20  1  0  0  0  0
 27 28  1  0  0  0  0
 27 49  1  0  0  0  0
 28 29  1  0  0  0  0
 29 30  1  0  0  0  0
 30 53  1  0  0  0  0
 30 55  1  0  0  0  0
 33  6  1  0  0  0  0
 34  7  1  0  0  0  0
 36  8  1  0  0  0  0
 38 10  1  0  0  0  0
 39 11  1  0  0  0  0
 40 11  1  0  0  0  0
 42 13  1  0  0  0  0
 44 14  1  0  0  0  0
 46 26  1  0  0  0  0
 47 26  1  0  0  0  0
 48 26  1  0  0  0  0
 50 27  1  0  0  0  0
 51 28  1  0  0  0  0
 52 28  1  0  0  0  0
 54 30  1  0  0  0  0
M  END
>  <Pose>
1

>  <Score>
-4.15

$$$$
