
 OpenBabel03232221553D

 44 47  0  0  0  0  0  0  0  0999 V2000
    6.6810  -19.1230  -38.0250 B   0  0  0  0  0  0  0  0  0  0  0  0
    5.7430  -20.3350  -39.1850 C   0  0  0  0  0  0  0  0  0  0  0  0
    4.7650  -21.1710  -38.6970 C   0  0  0  0  0  0  0  0  0  0  0  0
    4.0930  -22.0450  -39.5300 C   0  0  0  0  0  0  0  0  0  0  0  0
    4.3670  -22.1210  -40.8850 C   0  0  0  0  0  0  0  0  0  0  0  0
    5.3460  -21.2820  -41.3690 C   0  0  0  0  0  0  0  0  0  0  0  0
    6.0300  -20.3960  -40.5320 C   0  0  0  0  0  0  0  0  0  0  0  0
    3.6340  -23.0530  -41.7360 C   0  0  0  0  0  0  0  0  0  0  0  0
    4.2560  -23.6330  -42.7690 C   0  0  0  0  0  0  0  0  0  0  0  0
    5.5840  -23.4000  -43.0900 O   0  0  0  0  0  0  0  0  0  0  0  0
    5.9770  -24.1300  -44.2080 C   0  0  0  0  0  0  0  0  0  0  0  0
    4.9060  -24.8540  -44.6360 C   0  0  0  0  0  0  0  0  0  0  0  0
    5.0230  -25.6740  -45.7400 C   0  0  0  0  0  0  0  0  0  0  0  0
    6.2410  -25.7210  -46.3670 C   0  0  0  0  0  0  0  0  0  0  0  0
    7.3440  -24.9770  -45.9280 C   0  0  0  0  0  0  0  0  0  0  0  0
    7.2470  -24.1550  -44.8330 C   0  0  0  0  0  0  0  0  0  0  0  0
    8.3080  -23.3190  -44.2590 C   0  0  0  0  0  0  0  0  0  0  0  0
    9.2100  -23.9080  -43.3480 N   0  0  0  0  0  4  0  0  0  0  0  0
    8.7690  -25.2120  -42.8970 C   0  0  0  0  0  0  0  0  0  0  0  0
    9.2390  -26.2720  -43.8760 C   0  0  0  0  0  0  0  0  0  0  0  0
   10.5800  -26.5170  -43.6280 O   0  0  0  0  0  0  0  0  0  0  0  0
   11.1750  -25.3080  -43.2510 C   0  0  0  0  0  0  0  0  0  0  0  0
   10.5150  -24.1520  -43.9860 C   0  0  0  0  0  0  0  0  0  0  0  0
    8.5490  -25.0820  -46.6240 O   0  0  0  0  0  0  0  0  0  0  0  0
    3.7710  -24.5700  -43.7460 C   0  0  0  0  0  0  0  0  0  0  0  0
    2.6030  -25.0330  -43.7930 O   0  0  0  0  0  0  0  0  0  0  0  0
    4.5580  -21.1060  -37.6340 H   0  0  0  0  0  0  0  0  0  0  0  0
    3.3210  -22.7040  -39.1360 H   0  0  0  0  0  0  0  0  0  0  0  0
    5.5960  -21.2990  -42.4110 H   0  0  0  0  0  0  0  0  0  0  0  0
    6.8020  -19.7330  -40.9010 H   0  0  0  0  0  0  0  0  0  0  0  0
    2.5880  -23.3160  -41.5840 H   0  0  0  0  0  0  0  0  0  0  0  0
    4.1810  -26.2580  -46.0930 H   0  0  0  0  0  0  0  0  0  0  0  0
    6.3640  -26.3510  -47.2280 H   0  0  0  0  0  0  0  0  0  0  0  0
    7.8520  -22.3790  -43.8650 H   0  0  0  0  0  0  0  0  0  0  0  0
    8.9280  -22.9720  -45.1440 H   0  0  0  0  0  0  0  0  0  0  0  0
    9.4290  -23.2800  -42.5480 H   0  0  0  0  0  0  0  0  0  0  0  0
    9.0610  -25.4520  -41.8580 H   0  0  0  0  0  0  0  0  0  0  0  0
    7.6590  -25.2440  -42.9360 H   0  0  0  0  0  0  0  0  0  0  0  0
    9.0630  -25.9010  -44.9020 H   0  0  0  0  0  0  0  0  0  0  0  0
    8.5970  -27.1710  -43.6820 H   0  0  0  0  0  0  0  0  0  0  0  0
   12.2480  -25.3950  -43.4990 H   0  0  0  0  0  0  0  0  0  0  0  0
   11.1130  -25.1520  -42.1470 H   0  0  0  0  0  0  0  0  0  0  0  0
   11.1590  -23.2570  -43.8530 H   0  0  0  0  0  0  0  0  0  0  0  0
   10.4350  -24.4020  -45.0430 H   0  0  0  0  0  0  0  0  0  0  0  0
  2  3  1  0  0  0  0
  2  1  1  0  0  0  0
  3 27  1  0  0  0  0
  4 28  1  0  0  0  0
  4  3  2  0  0  0  0
  5  4  1  0  0  0  0
  6  5  2  0  0  0  0
  6  7  1  0  0  0  0
  7  2  2  0  0  0  0
  8 31  1  0  0  0  0
  8  5  1  0  0  0  0
  9  8  2  0  0  0  0
 10  9  1  0  0  0  0
 11 10  1  0  0  0  0
 12 11  1  0  0  0  0
 12 25  1  0  0  0  0
 13 12  2  0  0  0  0
 14 15  2  0  0  0  0
 14 13  1  0  0  0  0
 15 16  1  0  0  0  0
 16 17  1  0  0  0  0
 16 11  2  0  0  0  0
 17 34  1  0  0  0  0
 17 18  1  0  0  0  0
 18 19  1  0  0  0  0
 18 36  1  0  0  0  0
 19 37  1  0  0  0  0
 20 40  1  0  0  0  0
 20 21  1  0  0  0  0
 20 19  1  0  0  0  0
 21 22  1  0  0  0  0
 22 42  1  0  0  0  0
 23 43  1  0  0  0  0
 23 18  1  0  0  0  0
 23 22  1  0  0  0  0
 24 15  1  0  0  0  0
 25  9  1  0  0  0  0
 26 25  2  0  0  0  0
 29  6  1  0  0  0  0
 30  7  1  0  0  0  0
 32 13  1  0  0  0  0
 33 14  1  0  0  0  0
 35 17  1  0  0  0  0
 38 19  1  0  0  0  0
 39 20  1  0  0  0  0
 41 22  1  0  0  0  0
 44 23  1  0  0  0  0
M  END
>  <Pose>
1

>  <Score>
-3.57

$$$$
