
 OpenBabel03232221553D

 42 45  0  0  0  0  0  0  0  0999 V2000
   -4.0350  -10.5810  -34.0600 B   0  0  0  0  0  0  0  0  0  0  0  0
   -2.6760  -11.3090  -35.1860 C   0  0  0  0  0  0  0  0  0  0  0  0
   -1.4010  -11.5530  -34.7000 C   0  0  0  0  0  0  0  0  0  0  0  0
   -0.4010  -12.0790  -35.4980 C   0  0  0  0  0  0  0  0  0  0  0  0
   -0.6470  -12.3830  -36.8210 C   0  0  0  0  0  0  0  0  0  0  0  0
   -1.9180  -12.1370  -37.2950 C   0  0  0  0  0  0  0  0  0  0  0  0
   -2.9230  -11.6130  -36.5090 C   0  0  0  0  0  0  0  0  0  0  0  0
    0.3910  -12.9390  -37.6820 C   0  0  0  0  0  0  0  0  0  0  0  0
    0.2000  -13.9300  -38.4610 N   0  0  0  0  0  0  0  0  0  0  0  0
    1.1430  -14.4920  -39.2930 N   0  0  0  0  0  0  0  0  0  0  0  0
    1.3400  -15.8940  -39.2760 C   0  0  0  0  0  0  0  0  0  0  0  0
    1.0720  -16.5620  -40.3000 O   0  0  0  0  0  0  0  0  0  0  0  0
    1.8590  -16.5780  -38.0630 C   0  0  0  0  0  0  0  0  0  0  0  0
    2.0040  -18.0040  -38.2820 N   0  0  0  0  0  0  0  0  0  0  0  0
    3.1600  -18.4900  -38.8280 N   0  0  0  0  0  0  0  0  0  0  0  0
    3.0530  -19.8200  -38.9520 C   0  0  0  0  0  0  0  0  0  0  0  0
    1.8440  -20.1280  -38.4840 N   0  0  0  0  0  0  0  0  0  0  0  0
    1.1760  -18.9900  -38.0600 C   0  0  0  0  0  0  0  0  0  0  0  0
   -0.1600  -19.0390  -37.5050 C   0  0  0  0  0  0  0  0  0  0  0  0
   -0.7360  -17.9380  -36.8760 N   0  0  0  0  0  0  0  0  0  0  0  0
   -1.9160  -18.2320  -36.4920 O   0  0  0  0  0  0  0  0  0  0  0  0
   -2.1920  -19.4360  -36.8060 N   0  0  0  0  0  0  0  0  0  0  0  0
   -1.1100  -19.9760  -37.4450 C   0  0  0  0  0  0  0  0  0  0  0  0
   -1.1460  -21.2950  -37.9130 N   0  0  0  0  0  0  0  0  0  0  0  0
    4.0460  -20.7450  -39.4850 C   0  0  0  0  0  0  0  0  0  0  0  0
    3.8170  -21.9020  -40.1140 N   0  0  0  0  0  0  0  0  0  0  0  0
    4.9720  -22.4520  -40.4450 O   0  0  0  0  0  0  0  0  0  0  0  0
    5.9610  -21.6980  -40.0570 N   0  0  0  0  0  0  0  0  0  0  0  0
    5.4100  -20.6060  -39.4430 C   0  0  0  0  0  0  0  0  0  0  0  0
    6.1730  -19.5500  -38.8830 N   0  0  0  0  0  0  0  0  0  0  0  0
   -1.1930  -11.3230  -33.6780 H   0  0  0  0  0  0  0  0  0  0  0  0
    0.6050  -12.2670  -35.1040 H   0  0  0  0  0  0  0  0  0  0  0  0
   -2.0920  -12.3860  -38.3500 H   0  0  0  0  0  0  0  0  0  0  0  0
   -3.9240  -11.4320  -36.9300 H   0  0  0  0  0  0  0  0  0  0  0  0
    1.3710  -12.4860  -37.6580 H   0  0  0  0  0  0  0  0  0  0  0  0
    1.7120  -13.8670  -39.9410 H   0  0  0  0  0  0  0  0  0  0  0  0
    2.6390  -16.0870  -37.5100 H   0  0  0  0  0  0  0  0  0  0  0  0
    0.9710  -16.5020  -37.3080 H   0  0  0  0  0  0  0  0  0  0  0  0
   -0.9530  -22.0790  -37.2470 H   0  0  0  0  0  0  0  0  0  0  0  0
   -1.3650  -21.5650  -38.8940 H   0  0  0  0  0  0  0  0  0  0  0  0
    5.7860  -18.9990  -38.0660 H   0  0  0  0  0  0  0  0  0  0  0  0
    7.1110  -19.2680  -39.2260 H   0  0  0  0  0  0  0  0  0  0  0  0
  2  3  1  0  0  0  0
  2  1  1  0  0  0  0
  3 31  1  0  0  0  0
  4 32  1  0  0  0  0
  4  3  2  0  0  0  0
  5  4  1  0  0  0  0
  6  5  2  0  0  0  0
  6  7  1  0  0  0  0
  7  2  2  0  0  0  0
  8 35  1  0  0  0  0
  8  5  1  0  0  0  0
  9  8  2  0  0  0  0
 10 11  1  0  0  0  0
 10  9  1  0  0  0  0
 11 13  1  0  0  0  0
 12 11  2  0  0  0  0
 13 37  1  0  0  0  0
 13 38  1  0  0  0  0
 14 13  1  0  0  0  0
 14 18  1  0  0  0  0
 15 14  1  0  0  0  0
 16 15  2  0  0  0  0
 16 17  1  0  0  0  0
 17 18  2  0  0  0  0
 18 19  1  0  0  0  0
 19 23  1  0  0  0  0
 19 20  2  0  0  0  0
 20 21  1  0  0  0  0
 22 21  1  0  0  0  0
 23 22  2  0  0  0  0
 24 23  1  0  0  0  0
 24 39  1  0  0  0  0
 25 29  1  0  0  0  0
 25 16  1  0  0  0  0
 26 25  2  0  0  0  0
 27 26  1  0  0  0  0
 27 28  1  0  0  0  0
 28 29  2  0  0  0  0
 29 30  1  0  0  0  0
 30 41  1  0  0  0  0
 33  6  1  0  0  0  0
 34  7  1  0  0  0  0
 36 10  1  0  0  0  0
 40 24  1  0  0  0  0
 42 30  1  0  0  0  0
M  END
>  <Pose>
1

>  <Score>
-5.36

$$$$
