
 OpenBabel03232221553D

 41 44  0  0  0  0  0  0  0  0999 V2000
    6.4730  -25.7200  -44.6820 B   0  0  0  0  0  0  0  0  0  0  0  0
    5.4510  -24.5420  -43.6070 C   0  0  0  0  0  0  0  0  0  0  0  0
    4.2550  -24.9710  -43.0700 C   0  0  0  0  0  0  0  0  0  0  0  0
    3.5200  -24.1270  -42.2970 C   0  0  0  0  0  0  0  0  0  0  0  0
    3.9290  -22.8220  -42.0170 C   0  0  0  0  0  0  0  0  0  0  0  0
    5.1240  -22.4590  -42.5820 C   0  0  0  0  0  0  0  0  0  0  0  0
    5.9080  -23.2650  -43.3690 C   0  0  0  0  0  0  0  0  0  0  0  0
    2.9930  -21.9590  -41.3210 C   0  0  0  0  0  0  0  0  0  0  0  0
    3.0420  -21.0810  -40.3280 N   0  0  0  0  0  0  0  0  0  0  0  0
    1.8160  -20.5510  -40.0960 C   0  0  0  0  0  0  0  0  0  0  0  0
    0.9820  -21.1350  -40.9760 N   0  0  0  0  0  0  0  0  0  0  0  0
    1.6490  -21.9690  -41.7050 N   0  0  0  0  0  0  0  0  0  0  0  0
    1.8350  -19.6630  -39.0950 N   0  0  0  0  0  0  0  0  0  0  0  0
    3.1050  -19.6330  -38.6750 C   0  0  0  0  0  0  0  0  0  0  0  0
    3.8920  -20.5180  -39.4250 C   0  0  0  0  0  0  0  0  0  0  0  0
    5.1780  -20.6830  -39.1590 N   0  0  0  0  0  0  0  0  0  0  0  0
    5.7100  -19.9490  -38.1340 C   0  0  0  0  0  0  0  0  0  0  0  0
    6.9250  -20.0730  -37.8520 O   0  0  0  0  0  0  0  0  0  0  0  0
    4.9870  -19.0900  -37.4050 N   0  0  0  0  0  0  0  0  0  0  0  0
    3.6780  -18.9140  -37.6530 C   0  0  0  0  0  0  0  0  0  0  0  0
    2.9660  -18.1170  -36.9890 O   0  0  0  0  0  0  0  0  0  0  0  0
    6.0710  -21.6400  -39.7590 C   0  0  0  0  0  0  0  0  0  0  0  0
    0.7250  -18.8940  -38.5790 C   0  0  0  0  0  0  0  0  0  0  0  0
   -0.3190  -19.7580  -37.9060 C   0  0  0  0  0  0  0  0  0  0  0  0
   -1.5560  -19.1280  -37.8500 O   0  0  0  0  0  0  0  0  0  0  0  0
   -1.6160  -18.4360  -36.6400 C   0  0  0  0  0  0  0  0  0  0  0  0
    3.8890  -25.9750  -43.2550 H   0  0  0  0  0  0  0  0  0  0  0  0
    2.5750  -24.4860  -41.8810 H   0  0  0  0  0  0  0  0  0  0  0  0
    5.4650  -21.4180  -42.4200 H   0  0  0  0  0  0  0  0  0  0  0  0
    6.8280  -22.9110  -43.7730 H   0  0  0  0  0  0  0  0  0  0  0  0
    5.3910  -18.5310  -36.6270 H   0  0  0  0  0  0  0  0  0  0  0  0
    5.6180  -22.6360  -39.8760 H   0  0  0  0  0  0  0  0  0  0  0  0
    6.6730  -21.2590  -40.5950 H   0  0  0  0  0  0  0  0  0  0  0  0
    6.9020  -21.8870  -38.9810 H   0  0  0  0  0  0  0  0  0  0  0  0
    0.2430  -18.3140  -39.3550 H   0  0  0  0  0  0  0  0  0  0  0  0
    1.1660  -18.2090  -37.8190 H   0  0  0  0  0  0  0  0  0  0  0  0
    0.0080  -19.9580  -36.8540 H   0  0  0  0  0  0  0  0  0  0  0  0
   -0.3660  -20.7170  -38.4240 H   0  0  0  0  0  0  0  0  0  0  0  0
   -0.7930  -17.6790  -36.5950 H   0  0  0  0  0  0  0  0  0  0  0  0
   -1.5740  -19.1080  -35.7590 H   0  0  0  0  0  0  0  0  0  0  0  0
   -2.5860  -17.8720  -36.5580 H   0  0  0  0  0  0  0  0  0  0  0  0
  1  2  1  0  0  0  0
  2  7  2  0  0  0  0
  2  3  1  0  0  0  0
  3  4  2  0  0  0  0
  4  5  1  0  0  0  0
  4 28  1  0  0  0  0
  5  8  1  0  0  0  0
  6 29  1  0  0  0  0
  6  5  2  0  0  0  0
  7  6  1  0  0  0  0
  8  9  1  0  0  0  0
  9 10  1  0  0  0  0
  9 15  1  0  0  0  0
 10 13  1  0  0  0  0
 11 10  2  0  0  0  0
 12  8  2  0  0  0  0
 12 11  1  0  0  0  0
 13 14  1  0  0  0  0
 13 23  1  0  0  0  0
 14 20  1  0  0  0  0
 15 16  1  0  0  0  0
 15 14  2  0  0  0  0
 16 17  1  0  0  0  0
 17 18  2  0  0  0  0
 17 19  1  0  0  0  0
 19 31  1  0  0  0  0
 20 19  1  0  0  0  0
 20 21  2  0  0  0  0
 22 16  1  0  0  0  0
 22 34  1  0  0  0  0
 23 24  1  0  0  0  0
 23 36  1  0  0  0  0
 24 25  1  0  0  0  0
 24 37  1  0  0  0  0
 25 26  1  0  0  0  0
 26 39  1  0  0  0  0
 26 41  1  0  0  0  0
 26 40  1  0  0  0  0
 27  3  1  0  0  0  0
 30  7  1  0  0  0  0
 32 22  1  0  0  0  0
 33 22  1  0  0  0  0
 35 23  1  0  0  0  0
 38 24  1  0  0  0  0
M  END
>  <Pose>
1

>  <Score>
-4.36

$$$$
