
 OpenBabel03232221553D

 57 60  0  0  0  0  0  0  0  0999 V2000
   -4.3570  -16.4280  -36.7010 B   0  0  0  0  0  0  0  0  0  0  0  0
   -2.6620  -17.1940  -37.1450 C   0  0  0  0  0  0  0  0  0  0  0  0
   -2.3700  -18.4450  -36.6870 C   0  0  0  0  0  0  0  0  0  0  0  0
   -1.1510  -19.0070  -36.9970 C   0  0  0  0  0  0  0  0  0  0  0  0
   -0.1840  -18.3610  -37.7630 C   0  0  0  0  0  0  0  0  0  0  0  0
   -0.5020  -17.1060  -38.2110 C   0  0  0  0  0  0  0  0  0  0  0  0
   -1.7380  -16.5120  -37.9080 C   0  0  0  0  0  0  0  0  0  0  0  0
    1.0940  -18.9440  -38.0730 C   0  0  0  0  0  0  0  0  0  0  0  0
    1.1790  -20.0830  -38.8370 C   0  0  0  0  0  0  0  0  0  0  0  0
    2.3260  -20.6680  -39.1250 O   0  0  0  0  0  0  0  0  0  0  0  0
    3.4660  -20.1920  -38.6940 C   0  0  0  0  0  0  0  0  0  0  0  0
    3.4490  -19.0740  -37.9390 C   0  0  0  0  0  0  0  0  0  0  0  0
    4.6330  -18.5510  -37.4680 C   0  0  0  0  0  0  0  0  0  0  0  0
    5.8030  -19.1920  -37.7840 C   0  0  0  0  0  0  0  0  0  0  0  0
    5.8090  -20.3580  -38.5720 C   0  0  0  0  0  0  0  0  0  0  0  0
    4.6510  -20.8940  -39.0510 C   0  0  0  0  0  0  0  0  0  0  0  0
    4.4990  -22.0630  -39.8820 C   0  0  0  0  0  0  0  0  0  0  0  0
    4.8220  -22.0890  -41.2500 N   0  0  0  0  0  4  0  0  0  0  0  0
    4.2790  -23.2190  -41.9160 C   0  0  0  0  0  0  0  0  0  0  0  0
    4.9650  -23.7470  -43.1140 C   0  0  0  0  0  0  0  0  0  0  0  0
    6.2990  -23.3420  -43.2270 N   0  0  0  0  0  0  0  0  0  0  0  0
    6.6160  -22.0040  -42.9770 C   0  0  0  0  0  0  0  0  0  0  0  0
    6.0710  -21.5560  -41.6580 C   0  0  0  0  0  0  0  0  0  0  0  0
    7.2970  -24.2630  -43.5740 C   0  0  0  0  0  0  0  0  0  0  0  0
    7.0800  -20.8650  -38.7870 O   0  0  0  0  0  0  0  0  0  0  0  0
    2.2900  -18.4050  -37.5960 C   0  0  0  0  0  0  0  0  0  0  0  0
    2.2770  -17.3810  -36.9050 O   0  0  0  0  0  0  0  0  0  0  0  0
   -0.0690  -20.6670  -39.3520 C   0  0  0  0  0  0  0  0  0  0  0  0
   -0.3220  -20.5290  -40.5750 O   0  0  0  0  0  0  0  0  0  0  0  0
   -0.9610  -21.3460  -38.5800 O   0  0  0  0  0  0  0  0  0  0  0  0
   -2.2300  -21.6860  -39.0830 C   0  0  0  0  0  0  0  0  0  0  0  0
   -3.1000  -20.4600  -39.0920 C   0  0  0  0  0  0  0  0  0  0  0  0
   -3.1180  -18.9710  -36.0790 H   0  0  0  0  0  0  0  0  0  0  0  0
   -0.9270  -19.9800  -36.6390 H   0  0  0  0  0  0  0  0  0  0  0  0
    0.1710  -16.5140  -38.8120 H   0  0  0  0  0  0  0  0  0  0  0  0
   -1.9820  -15.5260  -38.2600 H   0  0  0  0  0  0  0  0  0  0  0  0
    4.6030  -17.6470  -36.8610 H   0  0  0  0  0  0  0  0  0  0  0  0
    6.7350  -18.7910  -37.4250 H   0  0  0  0  0  0  0  0  0  0  0  0
    3.4130  -22.4640  -39.7950 H   0  0  0  0  0  0  0  0  0  0  0  0
    5.0560  -22.9360  -39.3990 H   0  0  0  0  0  0  0  0  0  0  0  0
    4.1270  -21.2760  -41.6380 H   0  0  0  0  0  0  0  0  0  0  0  0
    4.1590  -24.0560  -41.1710 H   0  0  0  0  0  0  0  0  0  0  0  0
    3.1790  -23.0410  -42.2050 H   0  0  0  0  0  0  0  0  0  0  0  0
    4.3990  -23.5000  -44.0730 H   0  0  0  0  0  0  0  0  0  0  0  0
    4.9550  -24.8850  -43.1370 H   0  0  0  0  0  0  0  0  0  0  0  0
    6.2690  -21.2890  -43.7740 H   0  0  0  0  0  0  0  0  0  0  0  0
    7.7310  -21.8850  -42.9790 H   0  0  0  0  0  0  0  0  0  0  0  0
    6.8330  -21.6840  -40.8640 H   0  0  0  0  0  0  0  0  0  0  0  0
    6.0260  -20.4130  -41.7460 H   0  0  0  0  0  0  0  0  0  0  0  0
    8.1980  -24.0890  -42.9470 H   0  0  0  0  0  0  0  0  0  0  0  0
    6.9580  -25.2990  -43.2830 H   0  0  0  0  0  0  0  0  0  0  0  0
    7.5460  -24.3440  -44.6500 H   0  0  0  0  0  0  0  0  0  0  0  0
   -2.1620  -22.1530  -40.0990 H   0  0  0  0  0  0  0  0  0  0  0  0
   -2.6980  -22.4990  -38.4510 H   0  0  0  0  0  0  0  0  0  0  0  0
   -4.1290  -20.6830  -38.7010 H   0  0  0  0  0  0  0  0  0  0  0  0
   -2.5890  -19.6520  -38.5390 H   0  0  0  0  0  0  0  0  0  0  0  0
   -3.1670  -20.1380  -40.1650 H   0  0  0  0  0  0  0  0  0  0  0  0
  2  1  1  0  0  0  0
  2  3  1  0  0  0  0
  3 33  1  0  0  0  0
  4  3  2  0  0  0  0
  4 34  1  0  0  0  0
  5  4  1  0  0  0  0
  6  7  1  0  0  0  0
  6  5  2  0  0  0  0
  7  2  2  0  0  0  0
  8  5  1  0  0  0  0
  8 26  1  0  0  0  0
  9  8  2  0  0  0  0
 10  9  1  0  0  0  0
 10 11  1  0  0  0  0
 11 12  1  0  0  0  0
 12 26  1  0  0  0  0
 12 13  2  0  0  0  0
 13 37  1  0  0  0  0
 14 13  1  0  0  0  0
 14 38  1  0  0  0  0
 15 14  2  0  0  0  0
 16 11  2  0  0  0  0
 16 15  1  0  0  0  0
 17 39  1  0  0  0  0
 17 40  1  0  0  0  0
 17 16  1  0  0  0  0
 18 17  1  0  0  0  0
 19 18  1  0  0  0  0
 19 42  1  0  0  0  0
 20 19  1  0  0  0  0
 21 20  1  0  0  0  0
 21 22  1  0  0  0  0
 22 23  1  0  0  0  0
 23 18  1  0  0  0  0
 23 48  1  0  0  0  0
 24 51  1  0  0  0  0
 24 21  1  0  0  0  0
 24 50  1  0  0  0  0
 25 15  1  0  0  0  0
 26 27  2  0  0  0  0
 28  9  1  0  0  0  0
 28 30  1  0  0  0  0
 29 28  2  0  0  0  0
 31 30  1  0  0  0  0
 31 54  1  0  0  0  0
 32 31  1  0  0  0  0
 32 55  1  0  0  0  0
 32 56  1  0  0  0  0
 35  6  1  0  0  0  0
 36  7  1  0  0  0  0
 41 18  1  0  0  0  0
 43 19  1  0  0  0  0
 44 20  1  0  0  0  0
 45 20  1  0  0  0  0
 46 22  1  0  0  0  0
 47 22  1  0  0  0  0
 49 23  1  0  0  0  0
 52 24  1  0  0  0  0
 53 31  1  0  0  0  0
 57 32  1  0  0  0  0
M  END
>  <Pose>
1

>  <Score>
-4.18

$$$$
