
 OpenBabel03232221553D

 58 62  0  0  1  0  0  0  0  0999 V2000
    6.6450  -18.8850  -37.7670 B   0  0  0  0  0  0  0  0  0  0  0  0
    5.9160  -20.0960  -39.0750 C   0  0  0  0  0  0  0  0  0  0  0  0
    5.0440  -21.0810  -38.7270 C   0  0  0  0  0  0  0  0  0  0  0  0
    4.5290  -21.9370  -39.6580 C   0  0  0  0  0  0  0  0  0  0  0  0
    4.8620  -21.8530  -40.9950 C   0  0  0  0  0  0  0  0  0  0  0  0
    5.7300  -20.8730  -41.3420 C   0  0  0  0  0  0  0  0  0  0  0  0
    6.2720  -19.9780  -40.3890 C   0  0  0  0  0  0  0  0  0  0  0  0
    4.2810  -22.8050  -41.9150 C   0  0  0  0  0  0  0  0  0  0  0  0
    5.0300  -23.8210  -42.5320 C   0  0  0  0  0  0  0  0  0  0  0  0
    4.1860  -24.5100  -43.2900 N   0  0  0  0  0  0  0  0  0  0  0  0
    4.1940  -25.5880  -44.1320 C   0  0  0  0  0  0  0  0  0  0  0  0
    2.8970  -25.7240  -44.5580 C   0  0  0  0  0  0  0  0  0  0  0  0
    2.1890  -24.7650  -43.9800 N   0  0  0  0  0  0  0  0  0  0  0  0
    2.9840  -23.9960  -43.1830 C   0  0  1  0  0  0  0  0  0  0  0  0
    3.0160  -22.9290  -42.3310 N   0  0  0  0  0  0  0  0  0  0  0  0
    1.8310  -22.1890  -42.0210 C   0  0  0  0  0  0  0  0  0  0  0  0
    1.9590  -21.0710  -41.0670 C   0  0  0  0  0  0  0  0  0  0  0  0
    0.8300  -20.7840  -40.1430 C   0  0  0  0  0  0  0  0  0  0  0  0
    1.2660  -20.0830  -38.9560 N   0  0  0  0  0  4  0  0  0  0  0  0
    0.2180  -19.3420  -38.3180 C   0  0  0  0  0  0  0  0  0  0  0  0
   -0.7490  -20.1680  -37.5190 C   0  0  0  0  0  0  0  0  0  0  0  0
   -2.0080  -19.3050  -37.3500 C   0  0  0  0  0  0  0  0  0  0  0  0
   -1.6450  -18.0820  -36.5830 C   0  0  0  0  0  0  0  0  0  0  0  0
   -0.4750  -17.3220  -37.1640 C   0  0  0  0  0  0  0  0  0  0  0  0
    0.7220  -18.2570  -37.3750 C   0  0  0  0  0  0  0  0  0  0  0  0
    2.5240  -26.7390  -45.4430 C   0  0  0  0  0  0  0  0  0  0  0  0
    3.4730  -27.6250  -45.9040 C   0  0  0  0  0  0  0  0  0  0  0  0
    4.7670  -27.4670  -45.4630 C   0  0  0  0  0  0  0  0  0  0  0  0
    5.1460  -26.4610  -44.5820 C   0  0  0  0  0  0  0  0  0  0  0  0
    4.7470  -21.1880  -37.6710 H   0  0  0  0  0  0  0  0  0  0  0  0
    3.8210  -22.7150  -39.3070 H   0  0  0  0  0  0  0  0  0  0  0  0
    6.0830  -20.6850  -42.3170 H   0  0  0  0  0  0  0  0  0  0  0  0
    6.9610  -19.2030  -40.6740 H   0  0  0  0  0  0  0  0  0  0  0  0
    6.0940  -24.0090  -42.4170 H   0  0  0  0  0  0  0  0  0  0  0  0
    1.1680  -24.6520  -44.1280 H   0  0  0  0  0  0  0  0  0  0  0  0
    0.9840  -22.8310  -41.8010 H   0  0  0  0  0  0  0  0  0  0  0  0
    1.5220  -21.6630  -43.0150 H   0  0  0  0  0  0  0  0  0  0  0  0
    2.8250  -21.3650  -40.3830 H   0  0  0  0  0  0  0  0  0  0  0  0
    2.3680  -20.1160  -41.5210 H   0  0  0  0  0  0  0  0  0  0  0  0
    0.2890  -21.6910  -39.8040 H   0  0  0  0  0  0  0  0  0  0  0  0
    0.1470  -20.0710  -40.6860 H   0  0  0  0  0  0  0  0  0  0  0  0
    1.8220  -20.6170  -38.2920 H   0  0  0  0  0  0  0  0  0  0  0  0
    1.9580  -19.3280  -39.3140 H   0  0  0  0  0  0  0  0  0  0  0  0
   -0.4000  -18.7770  -39.0790 H   0  0  0  0  0  0  0  0  0  0  0  0
   -0.9910  -21.1360  -37.9570 H   0  0  0  0  0  0  0  0  0  0  0  0
   -0.3430  -20.2820  -36.4730 H   0  0  0  0  0  0  0  0  0  0  0  0
   -2.4050  -19.0500  -38.3660 H   0  0  0  0  0  0  0  0  0  0  0  0
   -2.7550  -19.8690  -36.7660 H   0  0  0  0  0  0  0  0  0  0  0  0
   -2.5140  -17.3930  -36.5970 H   0  0  0  0  0  0  0  0  0  0  0  0
   -1.4350  -18.3590  -35.5340 H   0  0  0  0  0  0  0  0  0  0  0  0
   -0.1900  -16.5510  -36.4300 H   0  0  0  0  0  0  0  0  0  0  0  0
   -0.7750  -16.9060  -38.1270 H   0  0  0  0  0  0  0  0  0  0  0  0
    0.9980  -18.7030  -36.3870 H   0  0  0  0  0  0  0  0  0  0  0  0
    1.5180  -17.7010  -37.8680 H   0  0  0  0  0  0  0  0  0  0  0  0
    1.5090  -26.8540  -45.7830 H   0  0  0  0  0  0  0  0  0  0  0  0
    3.2190  -28.4360  -46.6020 H   0  0  0  0  0  0  0  0  0  0  0  0
    5.5080  -28.1580  -45.8220 H   0  0  0  0  0  0  0  0  0  0  0  0
    6.1540  -26.3400  -44.2390 H   0  0  0  0  0  0  0  0  0  0  0  0
  2  3  1  0  0  0  0
  2  1  1  0  0  0  0
  3 30  1  0  0  0  0
  4 31  1  0  0  0  0
  4  3  2  0  0  0  0
  5  4  1  0  0  0  0
  6  5  2  0  0  0  0
  6  7  1  0  0  0  0
  7  2  2  0  0  0  0
  8  5  1  0  0  0  0
  9 34  1  0  0  0  0
  9  8  2  0  0  0  0
 10 14  1  0  0  0  0
 10  9  1  0  0  0  0
 11 10  1  0  0  0  0
 12 11  1  0  0  0  0
 12 13  1  0  0  0  0
 14 13  1  1  0  0  0
 14 15  1  0  0  0  0
 15 16  1  0  0  0  0
 15  8  1  0  0  0  0
 16 36  1  0  0  0  0
 16 17  1  0  0  0  0
 17 38  1  0  0  0  0
 17 18  1  0  0  0  0
 18 40  1  0  0  0  0
 18 19  1  0  0  0  0
 19 20  1  0  0  0  0
 19 42  1  0  0  0  0
 20 21  1  0  0  0  0
 20 25  1  0  0  0  0
 21 22  1  0  0  0  0
 21 46  1  0  0  0  0
 22 48  1  0  0  0  0
 22 23  1  0  0  0  0
 23 50  1  0  0  0  0
 24 23  1  0  0  0  0
 24 51  1  0  0  0  0
 25 24  1  0  0  0  0
 25 53  1  0  0  0  0
 26 12  2  0  0  0  0
 27 28  2  0  0  0  0
 27 26  1  0  0  0  0
 28 29  1  0  0  0  0
 29 58  1  0  0  0  0
 29 11  2  0  0  0  0
 32  6  1  0  0  0  0
 33  7  1  0  0  0  0
 35 13  1  0  0  0  0
 37 16  1  0  0  0  0
 39 17  1  0  0  0  0
 41 18  1  0  0  0  0
 43 19  1  0  0  0  0
 44 20  1  0  0  0  0
 45 21  1  0  0  0  0
 47 22  1  0  0  0  0
 49 23  1  0  0  0  0
 52 24  1  0  0  0  0
 54 25  1  0  0  0  0
 55 26  1  0  0  0  0
 56 27  1  0  0  0  0
 57 28  1  0  0  0  0
M  END
>  <Pose>
1

>  <Score>
-4.49

$$$$
