
 OpenBabel03232221553D

 63 66  0  0  1  0  0  0  0  0999 V2000
    6.2030  -19.3370  -38.2420 B   0  0  0  0  0  0  0  0  0  0  0  0
    5.9400  -20.4000  -39.8210 C   0  0  0  0  0  0  0  0  0  0  0  0
    6.0330  -19.8090  -41.0610 C   0  0  0  0  0  0  0  0  0  0  0  0
    5.8470  -20.5600  -42.2260 C   0  0  0  0  0  0  0  0  0  0  0  0
    5.5670  -21.9080  -42.1650 C   0  0  0  0  0  0  0  0  0  0  0  0
    5.4830  -22.4600  -40.9070 C   0  0  0  0  0  0  0  0  0  0  0  0
    5.6620  -21.7370  -39.7520 C   0  0  0  0  0  0  0  0  0  0  0  0
    5.3750  -22.6930  -43.3870 C   0  0  2  0  0  0  0  0  0  0  0  0
    4.1140  -23.3820  -43.4290 N   0  0  0  0  0  0  0  0  0  0  0  0
    4.2980  -24.7700  -43.6330 C   0  0  0  0  0  0  0  0  0  0  0  0
    3.4120  -25.6730  -43.7440 O   0  0  0  0  0  0  0  0  0  0  0  0
    5.7480  -25.0570  -43.7040 C   0  0  0  0  0  0  0  0  0  0  0  0
    6.2520  -26.1890  -43.8800 O   0  0  0  0  0  0  0  0  0  0  0  0
    6.4020  -23.7770  -43.5310 C   0  0  0  0  0  0  0  0  0  0  0  0
    7.7080  -23.6330  -43.5560 C   0  0  0  0  0  0  0  0  0  0  0  0
    8.2260  -22.3260  -43.4430 O   0  0  0  0  0  0  0  0  0  0  0  0
    8.6780  -24.6910  -43.6810 C   0  0  0  0  0  0  0  0  0  0  0  0
    9.3120  -25.3310  -42.6740 C   0  0  0  0  0  0  0  0  0  0  0  0
   10.1980  -26.3560  -42.9330 C   0  0  0  0  0  0  0  0  0  0  0  0
   10.4940  -26.7940  -44.2060 C   0  0  0  0  0  0  0  0  0  0  0  0
    9.8340  -26.1240  -45.2170 C   0  0  0  0  0  0  0  0  0  0  0  0
    8.9510  -25.1030  -44.9940 C   0  0  0  0  0  0  0  0  0  0  0  0
   11.3880  -27.8280  -44.4590 O   0  0  0  0  0  0  0  0  0  0  0  0
   12.7840  -27.6090  -44.3220 C   0  0  0  0  0  0  0  0  0  0  0  0
   10.8750  -27.0370  -41.7800 C   0  0  0  0  0  0  0  0  0  0  0  0
    2.8320  -22.7170  -43.2870 C   0  0  0  0  0  0  0  0  0  0  0  0
    2.0370  -23.1980  -42.1040 C   0  0  0  0  0  0  0  0  0  0  0  0
    0.6960  -23.7250  -42.5130 C   0  0  0  0  0  0  0  0  0  0  0  0
    0.1680  -24.7000  -41.6030 N   0  0  0  0  0  4  0  0  0  0  0  0
    0.1500  -26.0420  -42.1470 C   0  0  0  0  0  0  0  0  0  0  0  0
   -0.1990  -26.9820  -40.9880 C   0  0  0  0  0  0  0  0  0  0  0  0
   -0.6260  -26.2610  -39.8830 O   0  0  0  0  0  0  0  0  0  0  0  0
   -1.6730  -25.3860  -40.2450 C   0  0  0  0  0  0  0  0  0  0  0  0
   -1.1270  -24.2830  -41.1450 C   0  0  0  0  0  0  0  0  0  0  0  0
    6.2540  -18.7520  -41.1250 H   0  0  0  0  0  0  0  0  0  0  0  0
    5.9190  -20.1000  -43.2000 H   0  0  0  0  0  0  0  0  0  0  0  0
    5.2570  -23.5390  -40.8710 H   0  0  0  0  0  0  0  0  0  0  0  0
    5.5850  -22.2160  -38.7980 H   0  0  0  0  0  0  0  0  0  0  0  0
    5.3940  -22.0040  -44.2540 H   0  0  0  0  0  0  0  0  0  0  0  0
    9.1190  -24.9970  -41.6500 H   0  0  0  0  0  0  0  0  0  0  0  0
   10.0760  -26.4760  -46.2330 H   0  0  0  0  0  0  0  0  0  0  0  0
    8.4700  -24.6230  -45.8410 H   0  0  0  0  0  0  0  0  0  0  0  0
   12.9690  -27.2780  -43.2670 H   0  0  0  0  0  0  0  0  0  0  0  0
   13.3710  -28.5140  -44.4860 H   0  0  0  0  0  0  0  0  0  0  0  0
   13.1040  -26.7400  -44.9620 H   0  0  0  0  0  0  0  0  0  0  0  0
   11.0410  -26.3380  -40.9350 H   0  0  0  0  0  0  0  0  0  0  0  0
   11.8150  -27.4720  -42.1630 H   0  0  0  0  0  0  0  0  0  0  0  0
   10.2120  -27.8910  -41.5070 H   0  0  0  0  0  0  0  0  0  0  0  0
    2.2250  -22.9050  -44.2060 H   0  0  0  0  0  0  0  0  0  0  0  0
    2.9500  -21.6180  -43.1860 H   0  0  0  0  0  0  0  0  0  0  0  0
    1.9400  -22.3520  -41.3840 H   0  0  0  0  0  0  0  0  0  0  0  0
    2.6100  -24.0300  -41.6500 H   0  0  0  0  0  0  0  0  0  0  0  0
   -0.0630  -22.9190  -42.5820 H   0  0  0  0  0  0  0  0  0  0  0  0
    0.7820  -24.1680  -43.5260 H   0  0  0  0  0  0  0  0  0  0  0  0
    0.8010  -24.7390  -40.7500 H   0  0  0  0  0  0  0  0  0  0  0  0
    1.1550  -26.3070  -42.4800 H   0  0  0  0  0  0  0  0  0  0  0  0
   -0.6390  -26.1580  -42.8990 H   0  0  0  0  0  0  0  0  0  0  0  0
   -0.9430  -27.7320  -41.2860 H   0  0  0  0  0  0  0  0  0  0  0  0
    0.7140  -27.5460  -40.6500 H   0  0  0  0  0  0  0  0  0  0  0  0
   -2.0030  -24.9290  -39.2790 H   0  0  0  0  0  0  0  0  0  0  0  0
   -2.5270  -25.9100  -40.6790 H   0  0  0  0  0  0  0  0  0  0  0  0
   -1.7740  -24.1380  -42.0390 H   0  0  0  0  0  0  0  0  0  0  0  0
   -0.9840  -23.3480  -40.5570 H   0  0  0  0  0  0  0  0  0  0  0  0
  2  7  1  0  0  0  0
  2  1  1  0  0  0  0
  3  2  2  0  0  0  0
  4  5  2  0  0  0  0
  4  3  1  0  0  0  0
  5  6  1  0  0  0  0
  6 37  1  0  0  0  0
  6  7  2  0  0  0  0
  7 38  1  0  0  0  0
  8 39  1  6  0  0  0
  8  5  1  0  0  0  0
  9  8  1  0  0  0  0
  9 26  1  0  0  0  0
 10  9  1  0  0  0  0
 11 10  2  0  0  0  0
 12 10  1  0  0  0  0
 12 14  1  0  0  0  0
 13 12  2  0  0  0  0
 14  8  1  0  0  0  0
 15 14  2  0  0  0  0
 15 16  1  0  0  0  0
 17 15  1  0  0  0  0
 17 18  1  0  0  0  0
 18 40  1  0  0  0  0
 19 18  2  0  0  0  0
 19 25  1  0  0  0  0
 20 19  1  0  0  0  0
 21 22  1  0  0  0  0
 21 20  2  0  0  0  0
 22 17  2  0  0  0  0
 23 24  1  0  0  0  0
 23 20  1  0  0  0  0
 24 43  1  0  0  0  0
 25 48  1  0  0  0  0
 25 46  1  0  0  0  0
 26 50  1  0  0  0  0
 26 27  1  0  0  0  0
 27 52  1  0  0  0  0
 27 51  1  0  0  0  0
 28 27  1  0  0  0  0
 28 29  1  0  0  0  0
 29 34  1  0  0  0  0
 29 55  1  0  0  0  0
 30 29  1  0  0  0  0
 30 31  1  0  0  0  0
 31 59  1  0  0  0  0
 31 32  1  0  0  0  0
 33 32  1  0  0  0  0
 33 60  1  0  0  0  0
 34 63  1  0  0  0  0
 34 33  1  0  0  0  0
 35  3  1  0  0  0  0
 36  4  1  0  0  0  0
 41 21  1  0  0  0  0
 42 22  1  0  0  0  0
 44 24  1  0  0  0  0
 45 24  1  0  0  0  0
 47 25  1  0  0  0  0
 49 26  1  0  0  0  0
 53 28  1  0  0  0  0
 54 28  1  0  0  0  0
 56 30  1  0  0  0  0
 57 30  1  0  0  0  0
 58 31  1  0  0  0  0
 61 33  1  0  0  0  0
 62 34  1  0  0  0  0
M  END
>  <Pose>
1

>  <Score>
-5.35

$$$$
