
 OpenBabel03232221553D

 60 63  0  0  1  0  0  0  0  0999 V2000
   -5.2450  -18.5820  -36.3330 B   0  0  0  0  0  0  0  0  0  0  0  0
   -3.5070  -18.0130  -36.8750 C   0  0  0  0  0  0  0  0  0  0  0  0
   -2.4240  -18.8410  -36.6970 C   0  0  0  0  0  0  0  0  0  0  0  0
   -1.1500  -18.4270  -37.0950 C   0  0  0  0  0  0  0  0  0  0  0  0
   -0.9470  -17.1960  -37.6670 C   0  0  0  0  0  0  0  0  0  0  0  0
   -2.0500  -16.3880  -37.8330 C   0  0  0  0  0  0  0  0  0  0  0  0
   -3.3180  -16.7820  -37.4460 C   0  0  0  0  0  0  0  0  0  0  0  0
    0.3850  -16.7840  -38.0890 C   0  0  2  0  0  0  0  0  0  0  0  0
    1.4090  -17.3720  -37.2500 N   0  0  0  0  0  0  0  0  0  0  0  0
    1.4400  -16.5960  -36.0500 C   0  0  0  0  0  0  0  0  0  0  0  0
    1.8250  -16.9770  -34.9170 O   0  0  0  0  0  0  0  0  0  0  0  0
    0.9360  -15.2770  -36.4160 C   0  0  0  0  0  0  0  0  0  0  0  0
    0.7770  -14.2570  -35.7000 O   0  0  0  0  0  0  0  0  0  0  0  0
    0.6170  -15.3130  -37.8400 C   0  0  0  0  0  0  0  0  0  0  0  0
    0.5260  -14.2920  -38.6570 C   0  0  0  0  0  0  0  0  0  0  0  0
    0.1490  -14.5900  -39.9780 O   0  0  0  0  0  0  0  0  0  0  0  0
    0.7990  -12.9160  -38.2570 C   0  0  0  0  0  0  0  0  0  0  0  0
    0.0460  -12.2130  -37.3440 C   0  0  0  0  0  0  0  0  0  0  0  0
    0.2860  -10.9010  -36.9760 C   0  0  0  0  0  0  0  0  0  0  0  0
    1.3380  -10.2470  -37.5500 C   0  0  0  0  0  0  0  0  0  0  0  0
    2.1270  -10.9190  -38.4790 C   0  0  0  0  0  0  0  0  0  0  0  0
    1.8580  -12.2270  -38.8220 C   0  0  0  0  0  0  0  0  0  0  0  0
   -0.5690  -10.3540  -36.0460 O   0  0  0  0  0  0  0  0  0  0  0  0
   -0.9180   -9.0220  -35.8900 C   0  0  0  0  0  0  0  0  0  0  0  0
    2.2600  -18.5360  -37.5510 C   0  0  0  0  0  0  0  0  0  0  0  0
    2.4420  -18.6840  -39.0690 C   0  0  0  0  0  0  0  0  0  0  0  0
    3.8980  -18.8900  -39.3740 C   0  0  0  0  0  0  0  0  0  0  0  0
    4.5130  -19.5960  -38.2760 N   0  0  0  0  0  4  0  0  0  0  0  0
    5.9350  -19.4670  -38.2210 C   0  0  0  0  0  0  0  0  0  0  0  0
    6.6370  -20.2360  -39.2880 C   0  0  0  0  0  0  0  0  0  0  0  0
    6.2810  -21.5730  -39.2500 O   0  0  0  0  0  0  0  0  0  0  0  0
    4.9070  -21.6520  -39.4810 C   0  0  0  0  0  0  0  0  0  0  0  0
    4.2040  -21.0150  -38.2980 C   0  0  0  0  0  0  0  0  0  0  0  0
   -2.6050  -19.8020  -36.2450 H   0  0  0  0  0  0  0  0  0  0  0  0
   -0.3480  -19.1080  -36.9330 H   0  0  0  0  0  0  0  0  0  0  0  0
   -1.8620  -15.4240  -38.2870 H   0  0  0  0  0  0  0  0  0  0  0  0
   -4.1570  -16.1230  -37.5970 H   0  0  0  0  0  0  0  0  0  0  0  0
    0.5330  -17.0210  -39.1590 H   0  0  0  0  0  0  0  0  0  0  0  0
   -0.7770  -12.7230  -36.8730 H   0  0  0  0  0  0  0  0  0  0  0  0
    1.5450   -9.2170  -37.2780 H   0  0  0  0  0  0  0  0  0  0  0  0
    2.9510  -10.3420  -38.9010 H   0  0  0  0  0  0  0  0  0  0  0  0
    2.5150  -12.7090  -39.5630 H   0  0  0  0  0  0  0  0  0  0  0  0
   -0.9630   -8.7050  -34.8100 H   0  0  0  0  0  0  0  0  0  0  0  0
   -0.2470   -8.3780  -36.4660 H   0  0  0  0  0  0  0  0  0  0  0  0
   -1.9560   -8.8830  -36.2580 H   0  0  0  0  0  0  0  0  0  0  0  0
    1.7340  -19.4340  -37.2300 H   0  0  0  0  0  0  0  0  0  0  0  0
    3.2150  -18.3320  -37.0610 H   0  0  0  0  0  0  0  0  0  0  0  0
    1.8910  -19.5370  -39.4560 H   0  0  0  0  0  0  0  0  0  0  0  0
    2.0850  -17.7670  -39.5850 H   0  0  0  0  0  0  0  0  0  0  0  0
    3.9360  -19.4760  -40.3210 H   0  0  0  0  0  0  0  0  0  0  0  0
    4.3850  -17.9280  -39.5190 H   0  0  0  0  0  0  0  0  0  0  0  0
    4.1100  -19.2260  -37.3840 H   0  0  0  0  0  0  0  0  0  0  0  0
    6.2050  -18.3890  -38.2800 H   0  0  0  0  0  0  0  0  0  0  0  0
    6.2770  -19.8210  -37.2170 H   0  0  0  0  0  0  0  0  0  0  0  0
    6.3390  -19.8520  -40.2950 H   0  0  0  0  0  0  0  0  0  0  0  0
    7.7350  -20.0890  -39.1670 H   0  0  0  0  0  0  0  0  0  0  0  0
    4.5500  -22.6930  -39.5980 H   0  0  0  0  0  0  0  0  0  0  0  0
    4.6040  -21.1020  -40.3990 H   0  0  0  0  0  0  0  0  0  0  0  0
    4.6470  -21.4690  -37.3900 H   0  0  0  0  0  0  0  0  0  0  0  0
    3.1220  -21.2080  -38.3310 H   0  0  0  0  0  0  0  0  0  0  0  0
  2  3  1  0  0  0  0
  2  1  1  0  0  0  0
  3 34  1  0  0  0  0
  4 35  1  0  0  0  0
  4  3  2  0  0  0  0
  5  4  1  0  0  0  0
  6  5  2  0  0  0  0
  6  7  1  0  0  0  0
  7  2  2  0  0  0  0
  8 38  1  6  0  0  0
  8 14  1  0  0  0  0
  8  5  1  0  0  0  0
  8  9  1  0  0  0  0
  9 10  1  0  0  0  0
 10 11  2  0  0  0  0
 12 10  1  0  0  0  0
 12 13  2  0  0  0  0
 14 12  1  0  0  0  0
 15 17  1  0  0  0  0
 15 14  2  0  0  0  0
 16 15  1  0  0  0  0
 17 18  1  0  0  0  0
 18 19  2  0  0  0  0
 18 39  1  0  0  0  0
 19 23  1  0  0  0  0
 20 40  1  0  0  0  0
 20 19  1  0  0  0  0
 21 20  2  0  0  0  0
 22 21  1  0  0  0  0
 22 17  2  0  0  0  0
 23 24  1  0  0  0  0
 24 43  1  0  0  0  0
 25  9  1  0  0  0  0
 25 46  1  0  0  0  0
 25 47  1  0  0  0  0
 26 25  1  0  0  0  0
 27 26  1  0  0  0  0
 27 28  1  0  0  0  0
 28 29  1  0  0  0  0
 28 52  1  0  0  0  0
 29 54  1  0  0  0  0
 30 31  1  0  0  0  0
 30 56  1  0  0  0  0
 30 29  1  0  0  0  0
 32 31  1  0  0  0  0
 32 33  1  0  0  0  0
 33 28  1  0  0  0  0
 33 59  1  0  0  0  0
 36  6  1  0  0  0  0
 37  7  1  0  0  0  0
 41 21  1  0  0  0  0
 42 22  1  0  0  0  0
 44 24  1  0  0  0  0
 45 24  1  0  0  0  0
 48 26  1  0  0  0  0
 49 26  1  0  0  0  0
 50 27  1  0  0  0  0
 51 27  1  0  0  0  0
 53 29  1  0  0  0  0
 55 30  1  0  0  0  0
 57 32  1  0  0  0  0
 58 32  1  0  0  0  0
 60 33  1  0  0  0  0
M  END
>  <Pose>
1

>  <Score>
-4.45

$$$$
