
 OpenBabel03232221553D

 55 58  0  0  1  0  0  0  0  0999 V2000
    1.9020  -18.5110  -44.7490 B   0  0  0  0  0  0  0  0  0  0  0  0
    1.9990  -18.4800  -42.8430 C   0  0  0  0  0  0  0  0  0  0  0  0
    3.0200  -17.8460  -42.1690 C   0  0  0  0  0  0  0  0  0  0  0  0
    3.0760  -17.8320  -40.7890 C   0  0  0  0  0  0  0  0  0  0  0  0
    2.1400  -18.4360  -40.0190 C   0  0  0  0  0  0  0  0  0  0  0  0
    1.1040  -19.0790  -40.7170 C   0  0  0  0  0  0  0  0  0  0  0  0
    1.0280  -19.1040  -42.0900 C   0  0  0  0  0  0  0  0  0  0  0  0
    2.1060  -18.5080  -38.5720 C   0  0  1  0  0  0  0  0  0  0  0  0
    3.2390  -19.0460  -37.8900 N   0  0  0  0  0  0  0  0  0  0  0  0
    3.1480  -18.5470  -36.5300 C   0  0  0  0  0  0  0  0  0  0  0  0
    3.7280  -19.0630  -35.5400 O   0  0  0  0  0  0  0  0  0  0  0  0
    2.2890  -17.3780  -36.5410 C   0  0  0  0  0  0  0  0  0  0  0  0
    1.9580  -16.6480  -35.5580 O   0  0  0  0  0  0  0  0  0  0  0  0
    1.8710  -17.1940  -37.9160 C   0  0  0  0  0  0  0  0  0  0  0  0
    1.4140  -16.0720  -38.4440 C   0  0  0  0  0  0  0  0  0  0  0  0
    1.1100  -16.1130  -39.8260 O   0  0  0  0  0  0  0  0  0  0  0  0
    1.2070  -14.8420  -37.7060 C   0  0  0  0  0  0  0  0  0  0  0  0
    0.0220  -14.7620  -36.9640 C   0  0  0  0  0  0  0  0  0  0  0  0
   -0.2830  -13.6670  -36.1820 C   0  0  0  0  0  0  0  0  0  0  0  0
    0.5770  -12.6350  -36.1210 N   0  0  0  0  0  0  0  0  0  0  0  0
    1.7260  -12.6850  -36.8260 C   0  0  0  0  0  0  0  0  0  0  0  0
    2.0460  -13.7850  -37.6200 C   0  0  0  0  0  0  0  0  0  0  0  0
    4.2890  -19.9740  -38.3120 C   0  0  0  0  0  0  0  0  0  0  0  0
    3.9510  -20.8190  -39.4930 C   0  0  0  0  0  0  0  0  0  0  0  0
    5.0820  -21.7680  -39.8570 C   0  0  0  0  0  0  0  0  0  0  0  0
    4.7160  -22.6200  -40.9640 N   0  0  0  0  0  4  0  0  0  0  0  0
    3.4150  -22.3000  -41.5060 C   0  0  0  0  0  0  0  0  0  0  0  0
    3.3420  -22.9520  -42.8880 C   0  0  0  0  0  0  0  0  0  0  0  0
    4.1070  -22.1940  -43.7740 O   0  0  0  0  0  0  0  0  0  0  0  0
    5.2910  -21.7530  -43.1830 C   0  0  0  0  0  0  0  0  0  0  0  0
    5.6880  -22.6310  -42.0140 C   0  0  0  0  0  0  0  0  0  0  0  0
    3.7760  -17.3590  -42.7690 H   0  0  0  0  0  0  0  0  0  0  0  0
    3.8990  -17.3000  -40.2920 H   0  0  0  0  0  0  0  0  0  0  0  0
    0.3130  -19.5860  -40.1800 H   0  0  0  0  0  0  0  0  0  0  0  0
    0.2000  -19.6190  -42.5950 H   0  0  0  0  0  0  0  0  0  0  0  0
    1.2330  -19.1350  -38.2400 H   0  0  0  0  0  0  0  0  0  0  0  0
   -0.6990  -15.5660  -36.9810 H   0  0  0  0  0  0  0  0  0  0  0  0
   -1.1940  -13.5970  -35.6060 H   0  0  0  0  0  0  0  0  0  0  0  0
    2.4250  -11.8520  -36.7800 H   0  0  0  0  0  0  0  0  0  0  0  0
    2.9900  -13.7840  -38.1340 H   0  0  0  0  0  0  0  0  0  0  0  0
    4.4980  -20.6350  -37.4550 H   0  0  0  0  0  0  0  0  0  0  0  0
    5.2360  -19.4410  -38.5360 H   0  0  0  0  0  0  0  0  0  0  0  0
    3.0150  -21.4360  -39.2930 H   0  0  0  0  0  0  0  0  0  0  0  0
    3.7330  -20.2110  -40.3740 H   0  0  0  0  0  0  0  0  0  0  0  0
    5.9410  -21.1710  -40.1670 H   0  0  0  0  0  0  0  0  0  0  0  0
    5.2610  -22.4100  -38.9810 H   0  0  0  0  0  0  0  0  0  0  0  0
    4.6530  -23.5940  -40.5800 H   0  0  0  0  0  0  0  0  0  0  0  0
    2.5790  -22.7140  -40.9250 H   0  0  0  0  0  0  0  0  0  0  0  0
    3.2790  -21.2160  -41.6190 H   0  0  0  0  0  0  0  0  0  0  0  0
    2.3120  -23.0830  -43.2140 H   0  0  0  0  0  0  0  0  0  0  0  0
    3.8300  -23.9410  -42.7850 H   0  0  0  0  0  0  0  0  0  0  0  0
    6.1260  -21.7980  -43.9100 H   0  0  0  0  0  0  0  0  0  0  0  0
    5.1610  -20.7080  -42.8200 H   0  0  0  0  0  0  0  0  0  0  0  0
    6.6450  -22.2800  -41.6340 H   0  0  0  0  0  0  0  0  0  0  0  0
    5.8510  -23.6550  -42.4380 H   0  0  0  0  0  0  0  0  0  0  0  0
  1  2  1  0  0  0  0
  2  3  2  0  0  0  0
  2  7  1  0  0  0  0
  3  4  1  0  0  0  0
  4 33  1  0  0  0  0
  4  5  2  0  0  0  0
  5  8  1  0  0  0  0
  6 34  1  0  0  0  0
  6  5  1  0  0  0  0
  7  6  2  0  0  0  0
  8 36  1  1  0  0  0
  8 14  1  0  0  0  0
  8  9  1  0  0  0  0
  9 10  1  0  0  0  0
 10 11  2  0  0  0  0
 12 10  1  0  0  0  0
 12 13  2  0  0  0  0
 14 12  1  0  0  0  0
 15 14  2  0  0  0  0
 15 17  1  0  0  0  0
 16 15  1  0  0  0  0
 17 22  2  0  0  0  0
 17 18  1  0  0  0  0
 18 19  2  0  0  0  0
 19 20  1  0  0  0  0
 19 38  1  0  0  0  0
 21 39  1  0  0  0  0
 21 20  2  0  0  0  0
 22 21  1  0  0  0  0
 23  9  1  0  0  0  0
 23 41  1  0  0  0  0
 24 43  1  0  0  0  0
 24 23  1  0  0  0  0
 25 24  1  0  0  0  0
 25 46  1  0  0  0  0
 26 47  1  0  0  0  0
 26 25  1  0  0  0  0
 27 26  1  0  0  0  0
 27 48  1  0  0  0  0
 28 51  1  0  0  0  0
 28 27  1  0  0  0  0
 29 30  1  0  0  0  0
 29 28  1  0  0  0  0
 30 53  1  0  0  0  0
 30 31  1  0  0  0  0
 31 54  1  0  0  0  0
 31 26  1  0  0  0  0
 32  3  1  0  0  0  0
 35  7  1  0  0  0  0
 37 18  1  0  0  0  0
 40 22  1  0  0  0  0
 42 23  1  0  0  0  0
 44 24  1  0  0  0  0
 45 25  1  0  0  0  0
 49 27  1  0  0  0  0
 50 28  1  0  0  0  0
 52 30  1  0  0  0  0
 55 31  1  0  0  0  0
M  END
>  <Pose>
1

>  <Score>
-4.20

$$$$
