
 OpenBabel03232221553D

 57 60  0  0  1  0  0  0  0  0999 V2000
    5.5700  -21.3750  -38.8380 B   0  0  0  0  0  0  0  0  0  0  0  0
    4.0550  -20.2710  -38.4170 C   0  0  0  0  0  0  0  0  0  0  0  0
    4.0880  -19.4080  -37.3360 C   0  0  0  0  0  0  0  0  0  0  0  0
    2.9810  -18.6130  -37.0430 C   0  0  0  0  0  0  0  0  0  0  0  0
    1.8330  -18.6490  -37.7970 C   0  0  0  0  0  0  0  0  0  0  0  0
    1.8210  -19.5150  -38.8690 C   0  0  0  0  0  0  0  0  0  0  0  0
    2.9070  -20.3040  -39.1670 C   0  0  0  0  0  0  0  0  0  0  0  0
    0.6630  -17.8080  -37.4610 C   0  0  1  0  0  0  0  0  0  0  0  0
    0.7580  -16.4930  -38.1220 N   0  0  0  0  0  0  0  0  0  0  0  0
    0.4540  -16.7580  -39.4870 C   0  0  0  0  0  0  0  0  0  0  0  0
    0.8440  -16.0430  -40.4540 O   0  0  0  0  0  0  0  0  0  0  0  0
   -0.3630  -17.9640  -39.5610 C   0  0  0  0  0  0  0  0  0  0  0  0
   -0.8240  -18.4970  -40.5910 O   0  0  0  0  0  0  0  0  0  0  0  0
   -0.5230  -18.3980  -38.1850 C   0  0  0  0  0  0  0  0  0  0  0  0
   -1.4920  -19.1070  -37.6660 C   0  0  0  0  0  0  0  0  0  0  0  0
   -1.5210  -19.3950  -36.3090 O   0  0  0  0  0  0  0  0  0  0  0  0
   -2.5760  -19.6280  -38.4770 C   0  0  0  0  0  0  0  0  0  0  0  0
   -2.8490  -20.8750  -38.9130 N   0  0  0  0  0  0  0  0  0  0  0  0
   -3.9520  -20.8830  -39.6750 C   0  0  0  0  0  0  0  0  0  0  0  0
   -4.3850  -19.6050  -39.7190 N   0  0  0  0  0  0  0  0  0  0  0  0
   -3.5960  -18.8150  -39.0170 C   0  0  0  0  0  0  0  0  0  0  0  0
   -3.6880  -17.3380  -38.7830 C   0  0  0  0  0  0  0  0  0  0  0  0
   -4.4750  -22.0450  -40.2450 C   0  0  0  0  0  0  0  0  0  0  0  0
   -3.8540  -23.2540  -40.0320 C   0  0  0  0  0  0  0  0  0  0  0  0
   -2.7250  -23.2270  -39.2460 C   0  0  0  0  0  0  0  0  0  0  0  0
   -2.2330  -22.0660  -38.6990 C   0  0  0  0  0  0  0  0  0  0  0  0
    1.1030  -15.2440  -37.4930 C   0  0  0  0  0  0  0  0  0  0  0  0
    1.8230  -14.2150  -38.2710 C   0  0  0  0  0  0  0  0  0  0  0  0
    2.4440  -13.0570  -37.5960 C   0  0  0  0  0  0  0  0  0  0  0  0
    3.5880  -12.4530  -38.2090 N   0  0  0  0  0  4  0  0  0  0  0  0
    3.0910  -11.7180  -39.4070 C   0  0  0  0  0  0  0  0  0  0  0  0
    4.1170  -11.4120  -37.3510 C   0  0  0  0  0  0  0  0  0  0  0  0
    4.9960  -19.3650  -36.7230 H   0  0  0  0  0  0  0  0  0  0  0  0
    3.0340  -17.9490  -36.1970 H   0  0  0  0  0  0  0  0  0  0  0  0
    0.9180  -19.5580  -39.4600 H   0  0  0  0  0  0  0  0  0  0  0  0
    2.8570  -20.9650  -40.0080 H   0  0  0  0  0  0  0  0  0  0  0  0
    0.4790  -17.7180  -36.3880 H   0  0  0  0  0  0  0  0  0  0  0  0
   -2.6970  -16.8700  -38.7670 H   0  0  0  0  0  0  0  0  0  0  0  0
   -4.2350  -17.1370  -37.8140 H   0  0  0  0  0  0  0  0  0  0  0  0
   -4.2900  -16.8660  -39.5860 H   0  0  0  0  0  0  0  0  0  0  0  0
   -5.3670  -22.0130  -40.8560 H   0  0  0  0  0  0  0  0  0  0  0  0
   -4.2440  -24.1720  -40.4660 H   0  0  0  0  0  0  0  0  0  0  0  0
   -2.2340  -24.1880  -39.0780 H   0  0  0  0  0  0  0  0  0  0  0  0
   -1.3510  -22.0540  -38.0890 H   0  0  0  0  0  0  0  0  0  0  0  0
    1.6410  -15.4250  -36.5170 H   0  0  0  0  0  0  0  0  0  0  0  0
    0.1040  -14.7780  -37.1890 H   0  0  0  0  0  0  0  0  0  0  0  0
    1.2380  -13.8980  -39.1870 H   0  0  0  0  0  0  0  0  0  0  0  0
    2.7030  -14.7810  -38.7580 H   0  0  0  0  0  0  0  0  0  0  0  0
    2.6650  -13.2810  -36.5060 H   0  0  0  0  0  0  0  0  0  0  0  0
    1.6500  -12.2480  -37.4960 H   0  0  0  0  0  0  0  0  0  0  0  0
    4.3380  -13.0780  -38.5050 H   0  0  0  0  0  0  0  0  0  0  0  0
    3.9210  -11.2170  -39.9220 H   0  0  0  0  0  0  0  0  0  0  0  0
    2.5580  -12.4270  -40.0720 H   0  0  0  0  0  0  0  0  0  0  0  0
    2.4290  -10.9320  -38.9890 H   0  0  0  0  0  0  0  0  0  0  0  0
    3.8800  -11.6060  -36.2800 H   0  0  0  0  0  0  0  0  0  0  0  0
    5.2210  -11.4340  -37.4350 H   0  0  0  0  0  0  0  0  0  0  0  0
    3.8070  -10.3960  -37.6580 H   0  0  0  0  0  0  0  0  0  0  0  0
  1  2  1  0  0  0  0
  2  3  1  0  0  0  0
  3  4  2  0  0  0  0
  3 33  1  0  0  0  0
  4 34  1  0  0  0  0
  5  8  1  0  0  0  0
  5  4  1  0  0  0  0
  6  5  2  0  0  0  0
  7  6  1  0  0  0  0
  7  2  2  0  0  0  0
  8 37  1  1  0  0  0
  9 27  1  0  0  0  0
  9  8  1  0  0  0  0
 10  9  1  0  0  0  0
 11 10  2  0  0  0  0
 12 10  1  0  0  0  0
 12 14  1  0  0  0  0
 13 12  2  0  0  0  0
 14 15  2  0  0  0  0
 14  8  1  0  0  0  0
 15 16  1  0  0  0  0
 17 15  1  0  0  0  0
 18 26  1  0  0  0  0
 18 17  1  0  0  0  0
 19 18  1  0  0  0  0
 20 19  2  0  0  0  0
 20 21  1  0  0  0  0
 21 22  1  0  0  0  0
 21 17  2  0  0  0  0
 22 38  1  0  0  0  0
 22 39  1  0  0  0  0
 23 24  2  0  0  0  0
 23 19  1  0  0  0  0
 24 25  1  0  0  0  0
 25 43  1  0  0  0  0
 25 26  2  0  0  0  0
 26 44  1  0  0  0  0
 27 46  1  0  0  0  0
 27 45  1  0  0  0  0
 28 29  1  0  0  0  0
 28 27  1  0  0  0  0
 29 50  1  0  0  0  0
 29 49  1  0  0  0  0
 30 29  1  0  0  0  0
 30 32  1  0  0  0  0
 31 54  1  0  0  0  0
 31 30  1  0  0  0  0
 32 55  1  0  0  0  0
 35  6  1  0  0  0  0
 36  7  1  0  0  0  0
 40 22  1  0  0  0  0
 41 23  1  0  0  0  0
 42 24  1  0  0  0  0
 47 28  1  0  0  0  0
 48 28  1  0  0  0  0
 51 30  1  0  0  0  0
 52 31  1  0  0  0  0
 53 31  1  0  0  0  0
 56 32  1  0  0  0  0
 57 32  1  0  0  0  0
M  END
>  <Pose>
1

>  <Score>
-4.16

$$$$
