
 OpenBabel03232221553D

 62 66  0  0  1  0  0  0  0  0999 V2000
   -0.8020  -14.3570  -44.2170 B   0  0  0  0  0  0  0  0  0  0  0  0
   -0.2510  -15.1330  -42.5630 C   0  0  0  0  0  0  0  0  0  0  0  0
    0.7780  -14.6010  -41.8090 C   0  0  0  0  0  0  0  0  0  0  0  0
    1.1760  -15.1620  -40.6130 C   0  0  0  0  0  0  0  0  0  0  0  0
    0.5510  -16.2770  -40.1350 C   0  0  0  0  0  0  0  0  0  0  0  0
   -0.4670  -16.8060  -40.8770 C   0  0  0  0  0  0  0  0  0  0  0  0
   -0.8780  -16.2620  -42.0720 C   0  0  0  0  0  0  0  0  0  0  0  0
    0.9090  -16.8910  -38.8940 C   0  0  2  0  0  0  0  0  0  0  0  0
    1.4230  -16.1780  -37.8010 N   0  0  0  0  0  0  0  0  0  0  0  0
    1.7180  -17.2300  -36.8430 C   0  0  0  0  0  0  0  0  0  0  0  0
    1.7650  -17.1440  -35.5690 O   0  0  0  0  0  0  0  0  0  0  0  0
    1.9640  -18.4550  -37.5960 C   0  0  0  0  0  0  0  0  0  0  0  0
    2.2560  -19.6300  -37.2030 O   0  0  0  0  0  0  0  0  0  0  0  0
    1.8030  -18.0730  -38.9980 C   0  0  0  0  0  0  0  0  0  0  0  0
    2.2960  -18.6630  -40.0710 C   0  0  0  0  0  0  0  0  0  0  0  0
    1.9840  -18.1780  -41.3340 O   0  0  0  0  0  0  0  0  0  0  0  0
    3.1720  -19.8220  -39.9990 C   0  0  0  0  0  0  0  0  0  0  0  0
    4.3440  -19.9320  -39.3500 N   0  0  0  0  0  0  0  0  0  0  0  0
    4.8370  -21.1840  -39.4920 C   0  0  0  0  0  0  0  0  0  0  0  0
    3.9510  -21.8560  -40.2450 N   0  0  0  0  0  0  0  0  0  0  0  0
    2.9290  -21.0700  -40.5740 C   0  0  0  0  0  0  0  0  0  0  0  0
    1.7210  -21.3700  -41.3880 C   0  0  0  0  0  0  0  0  0  0  0  0
    6.0370  -21.5740  -38.9360 C   0  0  0  0  0  0  0  0  0  0  0  0
    6.7950  -20.6930  -38.2020 C   0  0  0  0  0  0  0  0  0  0  0  0
    6.3080  -19.4140  -38.0480 C   0  0  0  0  0  0  0  0  0  0  0  0
    5.1190  -19.0800  -38.6170 C   0  0  0  0  0  0  0  0  0  0  0  0
    1.6770  -14.8320  -37.4020 C   0  0  0  0  0  0  0  0  0  0  0  0
    2.4870  -13.9130  -38.1710 C   0  0  0  0  0  0  0  0  0  0  0  0
    2.6670  -12.5120  -37.6360 C   0  0  0  0  0  0  0  0  0  0  0  0
    3.8500  -11.8730  -38.2060 N   0  0  0  0  0  4  0  0  0  0  0  0
    4.4850  -10.9340  -37.3290 C   0  0  0  0  0  0  0  0  0  0  0  0
    3.9460   -9.5360  -37.4100 C   0  0  0  0  0  0  0  0  0  0  0  0
    2.7490   -9.4440  -38.0690 O   0  0  0  0  0  0  0  0  0  0  0  0
    2.7150  -10.0160  -39.3130 C   0  0  0  0  0  0  0  0  0  0  0  0
    3.5710  -11.2320  -39.4540 C   0  0  0  0  0  0  0  0  0  0  0  0
    1.2860  -13.7090  -42.1790 H   0  0  0  0  0  0  0  0  0  0  0  0
    2.0160  -14.6690  -40.0670 H   0  0  0  0  0  0  0  0  0  0  0  0
   -1.0250  -17.7030  -40.5490 H   0  0  0  0  0  0  0  0  0  0  0  0
   -1.6980  -16.6920  -42.6640 H   0  0  0  0  0  0  0  0  0  0  0  0
   -0.0590  -17.3540  -38.5010 H   0  0  0  0  0  0  0  0  0  0  0  0
    0.8420  -20.9230  -40.8850 H   0  0  0  0  0  0  0  0  0  0  0  0
    1.6030  -22.4610  -41.4150 H   0  0  0  0  0  0  0  0  0  0  0  0
    1.8860  -20.9570  -42.3990 H   0  0  0  0  0  0  0  0  0  0  0  0
    6.3990  -22.5790  -39.0680 H   0  0  0  0  0  0  0  0  0  0  0  0
    7.7280  -20.9500  -37.7520 H   0  0  0  0  0  0  0  0  0  0  0  0
    6.8880  -18.7130  -37.4750 H   0  0  0  0  0  0  0  0  0  0  0  0
    4.7310  -18.0550  -38.5040 H   0  0  0  0  0  0  0  0  0  0  0  0
    2.0160  -14.7940  -36.3170 H   0  0  0  0  0  0  0  0  0  0  0  0
    0.6460  -14.3600  -37.3180 H   0  0  0  0  0  0  0  0  0  0  0  0
    3.4220  -14.3140  -38.6490 H   0  0  0  0  0  0  0  0  0  0  0  0
    1.8870  -13.7230  -39.1330 H   0  0  0  0  0  0  0  0  0  0  0  0
    2.8500  -12.5090  -36.5380 H   0  0  0  0  0  0  0  0  0  0  0  0
    1.8000  -11.9060  -37.9430 H   0  0  0  0  0  0  0  0  0  0  0  0
    4.5420  -12.6450  -38.3770 H   0  0  0  0  0  0  0  0  0  0  0  0
    4.5890  -11.2730  -36.2780 H   0  0  0  0  0  0  0  0  0  0  0  0
    5.5540  -10.8600  -37.6970 H   0  0  0  0  0  0  0  0  0  0  0  0
    4.6980   -8.7910  -37.7920 H   0  0  0  0  0  0  0  0  0  0  0  0
    3.7600   -9.1940  -36.3510 H   0  0  0  0  0  0  0  0  0  0  0  0
    2.9210   -9.2690  -40.1290 H   0  0  0  0  0  0  0  0  0  0  0  0
    1.6500  -10.3380  -39.5040 H   0  0  0  0  0  0  0  0  0  0  0  0
    4.5510  -10.9040  -39.8800 H   0  0  0  0  0  0  0  0  0  0  0  0
    3.1720  -11.9840  -40.1630 H   0  0  0  0  0  0  0  0  0  0  0  0
  1  2  1  0  0  0  0
  2  7  2  0  0  0  0
  2  3  1  0  0  0  0
  3  4  2  0  0  0  0
  4  5  1  0  0  0  0
  4 37  1  0  0  0  0
  5  8  1  0  0  0  0
  6 38  1  0  0  0  0
  6  5  2  0  0  0  0
  7  6  1  0  0  0  0
  8 40  1  1  0  0  0
  8  9  1  0  0  0  0
  9 27  1  0  0  0  0
  9 10  1  0  0  0  0
 10 11  2  0  0  0  0
 12 13  2  0  0  0  0
 12 10  1  0  0  0  0
 14  8  1  0  0  0  0
 14 12  1  0  0  0  0
 15 17  1  0  0  0  0
 15 14  2  0  0  0  0
 16 15  1  0  0  0  0
 17 18  1  0  0  0  0
 18 26  1  0  0  0  0
 19 18  1  0  0  0  0
 19 23  1  0  0  0  0
 20 19  2  0  0  0  0
 21 20  1  0  0  0  0
 21 17  2  0  0  0  0
 22 41  1  0  0  0  0
 22 21  1  0  0  0  0
 23 24  2  0  0  0  0
 24 25  1  0  0  0  0
 24 45  1  0  0  0  0
 25 46  1  0  0  0  0
 26 47  1  0  0  0  0
 26 25  2  0  0  0  0
 27 49  1  0  0  0  0
 27 48  1  0  0  0  0
 28 29  1  0  0  0  0
 28 27  1  0  0  0  0
 29 52  1  0  0  0  0
 30 29  1  0  0  0  0
 30 31  1  0  0  0  0
 31 55  1  0  0  0  0
 32 31  1  0  0  0  0
 32 58  1  0  0  0  0
 33 32  1  0  0  0  0
 34 33  1  0  0  0  0
 35 34  1  0  0  0  0
 35 30  1  0  0  0  0
 36  3  1  0  0  0  0
 39  7  1  0  0  0  0
 42 22  1  0  0  0  0
 43 22  1  0  0  0  0
 44 23  1  0  0  0  0
 50 28  1  0  0  0  0
 51 28  1  0  0  0  0
 53 29  1  0  0  0  0
 54 30  1  0  0  0  0
 56 31  1  0  0  0  0
 57 32  1  0  0  0  0
 59 34  1  0  0  0  0
 60 34  1  0  0  0  0
 61 35  1  0  0  0  0
 62 35  1  0  0  0  0
M  END
>  <Pose>
1

>  <Score>
-4.40

$$$$
