
 OpenBabel03232221553D

 54 57  0  0  1  0  0  0  0  0999 V2000
    4.4120  -16.3500  -45.2220 B   0  0  0  0  0  0  0  0  0  0  0  0
    3.9000  -17.6530  -43.9210 C   0  0  0  0  0  0  0  0  0  0  0  0
    4.7620  -17.9390  -42.9010 C   0  0  0  0  0  0  0  0  0  0  0  0
    4.4070  -18.8750  -41.9580 C   0  0  0  0  0  0  0  0  0  0  0  0
    3.2150  -19.5650  -41.9630 C   0  0  0  0  0  0  0  0  0  0  0  0
    2.3580  -19.2490  -43.0190 C   0  0  0  0  0  0  0  0  0  0  0  0
    2.6970  -18.3160  -43.9700 C   0  0  0  0  0  0  0  0  0  0  0  0
    2.8650  -20.5710  -40.9250 C   0  0  1  0  0  0  0  0  0  0  0  0
    4.0200  -21.2800  -40.4470 N   0  0  0  0  0  0  0  0  0  0  0  0
    4.3190  -20.7820  -39.1540 C   0  0  0  0  0  0  0  0  0  0  0  0
    5.3760  -21.0180  -38.5010 O   0  0  0  0  0  0  0  0  0  0  0  0
    3.2080  -19.9470  -38.6920 C   0  0  0  0  0  0  0  0  0  0  0  0
    3.1080  -19.3410  -37.5970 O   0  0  0  0  0  0  0  0  0  0  0  0
    2.2150  -19.9500  -39.7520 C   0  0  0  0  0  0  0  0  0  0  0  0
    0.9660  -19.5260  -39.6410 C   0  0  0  0  0  0  0  0  0  0  0  0
    0.1330  -19.6840  -40.7660 O   0  0  0  0  0  0  0  0  0  0  0  0
    0.3730  -18.9080  -38.4820 C   0  0  0  0  0  0  0  0  0  0  0  0
    0.5960  -17.7520  -37.8460 N   0  0  0  0  0  0  0  0  0  0  0  0
   -0.1980  -17.6350  -36.7680 C   0  0  0  0  0  0  0  0  0  0  0  0
   -0.9510  -18.7470  -36.7140 N   0  0  0  0  0  0  0  0  0  0  0  0
   -0.6310  -19.5410  -37.7370 C   0  0  0  0  0  0  0  0  0  0  0  0
   -1.2500  -20.8670  -38.0210 C   0  0  0  0  0  0  0  0  0  0  0  0
   -0.1960  -16.5280  -35.9270 C   0  0  0  0  0  0  0  0  0  0  0  0
    0.6610  -15.5000  -36.2130 C   0  0  0  0  0  0  0  0  0  0  0  0
    1.4780  -15.6160  -37.3220 C   0  0  0  0  0  0  0  0  0  0  0  0
    1.4390  -16.7340  -38.1230 C   0  0  0  0  0  0  0  0  0  0  0  0
    4.7660  -22.3390  -41.1620 C   0  0  0  0  0  0  0  0  0  0  0  0
    3.9100  -22.9150  -42.2700 C   0  0  0  0  0  0  0  0  0  0  0  0
    3.4850  -24.2470  -42.0210 N   0  0  0  0  0  4  0  0  0  0  0  0
    2.0250  -24.2740  -42.1220 C   0  0  0  0  0  0  0  0  0  0  0  0
    4.0220  -25.2350  -42.9040 C   0  0  0  0  0  0  0  0  0  0  0  0
    5.7380  -17.4380  -42.8130 H   0  0  0  0  0  0  0  0  0  0  0  0
    5.1150  -19.0730  -41.1680 H   0  0  0  0  0  0  0  0  0  0  0  0
    1.4020  -19.7470  -43.0960 H   0  0  0  0  0  0  0  0  0  0  0  0
    2.0230  -18.0810  -44.7820 H   0  0  0  0  0  0  0  0  0  0  0  0
    2.2020  -21.3080  -41.4330 H   0  0  0  0  0  0  0  0  0  0  0  0
   -1.9000  -20.8230  -38.9230 H   0  0  0  0  0  0  0  0  0  0  0  0
   -0.3930  -21.5660  -38.2150 H   0  0  0  0  0  0  0  0  0  0  0  0
   -1.7710  -21.2290  -37.1350 H   0  0  0  0  0  0  0  0  0  0  0  0
   -0.8770  -16.5270  -35.0760 H   0  0  0  0  0  0  0  0  0  0  0  0
    0.6660  -14.6360  -35.5610 H   0  0  0  0  0  0  0  0  0  0  0  0
    2.1710  -14.8110  -37.5750 H   0  0  0  0  0  0  0  0  0  0  0  0
    2.0680  -16.8510  -38.9980 H   0  0  0  0  0  0  0  0  0  0  0  0
    5.0770  -23.1300  -40.4530 H   0  0  0  0  0  0  0  0  0  0  0  0
    5.6530  -21.8460  -41.5790 H   0  0  0  0  0  0  0  0  0  0  0  0
    4.5280  -22.8550  -43.2030 H   0  0  0  0  0  0  0  0  0  0  0  0
    3.0600  -22.2010  -42.4450 H   0  0  0  0  0  0  0  0  0  0  0  0
    3.7090  -24.5570  -41.0330 H   0  0  0  0  0  0  0  0  0  0  0  0
    1.6960  -24.0760  -43.1510 H   0  0  0  0  0  0  0  0  0  0  0  0
    1.6280  -25.2550  -41.7380 H   0  0  0  0  0  0  0  0  0  0  0  0
    1.5540  -23.5000  -41.4780 H   0  0  0  0  0  0  0  0  0  0  0  0
    3.2470  -26.0290  -43.0420 H   0  0  0  0  0  0  0  0  0  0  0  0
    4.2450  -24.8470  -43.9190 H   0  0  0  0  0  0  0  0  0  0  0  0
    4.8960  -25.7650  -42.4470 H   0  0  0  0  0  0  0  0  0  0  0  0
  1  2  1  0  0  0  0
  2  3  1  0  0  0  0
  3 32  1  0  0  0  0
  3  4  2  0  0  0  0
  4 33  1  0  0  0  0
  5  4  1  0  0  0  0
  5  8  1  0  0  0  0
  6  5  2  0  0  0  0
  7  2  2  0  0  0  0
  7  6  1  0  0  0  0
  8 36  1  6  0  0  0
  8  9  1  0  0  0  0
  8 14  1  0  0  0  0
  9 10  1  0  0  0  0
 10 12  1  0  0  0  0
 10 11  2  0  0  0  0
 12 13  2  0  0  0  0
 14 15  2  0  0  0  0
 14 12  1  0  0  0  0
 15 17  1  0  0  0  0
 16 15  1  0  0  0  0
 17 18  1  0  0  0  0
 17 21  2  0  0  0  0
 18 19  1  0  0  0  0
 19 20  2  0  0  0  0
 19 23  1  0  0  0  0
 21 20  1  0  0  0  0
 22 21  1  0  0  0  0
 22 39  1  0  0  0  0
 23 40  1  0  0  0  0
 24 23  2  0  0  0  0
 24 41  1  0  0  0  0
 25 24  1  0  0  0  0
 26 18  1  0  0  0  0
 26 25  2  0  0  0  0
 27 44  1  0  0  0  0
 27  9  1  0  0  0  0
 28 29  1  0  0  0  0
 28 27  1  0  0  0  0
 29 48  1  0  0  0  0
 30 29  1  0  0  0  0
 30 50  1  0  0  0  0
 30 51  1  0  0  0  0
 31 54  1  0  0  0  0
 31 29  1  0  0  0  0
 34  6  1  0  0  0  0
 35  7  1  0  0  0  0
 37 22  1  0  0  0  0
 38 22  1  0  0  0  0
 42 25  1  0  0  0  0
 43 26  1  0  0  0  0
 45 27  1  0  0  0  0
 46 28  1  0  0  0  0
 47 28  1  0  0  0  0
 49 30  1  0  0  0  0
 52 31  1  0  0  0  0
 53 31  1  0  0  0  0
M  END
>  <Pose>
1

>  <Score>
-4.03

$$$$
