
 OpenBabel03232221553D

 44 47  0  0  0  0  0  0  0  0999 V2000
    2.1220  -19.9380  -40.2300 B   0  0  0  0  0  0  0  0  0  0  0  0
    3.9210  -19.7600  -40.8480 C   0  0  0  0  0  0  0  0  0  0  0  0
    4.9730  -20.3430  -40.1910 C   0  0  0  0  0  0  0  0  0  0  0  0
    6.2890  -20.2030  -40.6530 C   0  0  0  0  0  0  0  0  0  0  0  0
    6.6130  -19.4840  -41.7760 C   0  0  0  0  0  0  0  0  0  0  0  0
    5.5080  -18.9000  -42.4270 C   0  0  0  0  0  0  0  0  0  0  0  0
    4.2220  -19.0320  -41.9820 C   0  0  0  0  0  0  0  0  0  0  0  0
    7.8890  -19.2630  -42.3010 N   0  0  0  0  0  0  0  0  0  0  0  0
    8.4870  -19.9950  -43.3340 C   0  0  0  0  0  0  0  0  0  0  0  0
    8.1370  -21.2290  -43.5110 O   0  0  0  0  0  0  0  0  0  0  0  0
    9.5000  -19.5430  -44.2870 C   0  0  0  0  0  0  0  0  0  0  0  0
   10.8210  -20.0980  -43.9470 N   0  0  0  0  0  0  0  0  0  0  0  0
   11.1070  -21.3890  -44.0850 N   0  0  0  0  0  0  0  0  0  0  0  0
   12.3240  -21.8950  -43.7380 C   0  0  0  0  0  0  0  0  0  0  0  0
   13.2610  -21.0700  -43.2450 N   0  0  0  0  0  0  0  0  0  0  0  0
   14.4790  -21.7980  -42.9650 C   0  0  0  0  0  0  0  0  0  0  0  0
   14.2260  -23.2300  -43.3290 C   0  0  0  0  0  0  0  0  0  0  0  0
   12.8390  -23.2210  -43.7570 N   0  0  0  0  0  0  0  0  0  0  0  0
   12.1460  -24.3960  -44.1290 C   0  0  0  0  0  0  0  0  0  0  0  0
   11.6850  -24.6410  -45.3950 C   0  0  0  0  0  0  0  0  0  0  0  0
   10.9950  -25.7940  -45.7240 C   0  0  0  0  0  0  0  0  0  0  0  0
   10.7540  -26.7460  -44.7510 C   0  0  0  0  0  0  0  0  0  0  0  0
   11.2040  -26.5230  -43.4880 C   0  0  0  0  0  0  0  0  0  0  0  0
   11.8890  -25.3700  -43.1690 C   0  0  0  0  0  0  0  0  0  0  0  0
   13.0320  -19.7600  -43.0820 C   0  0  0  0  0  0  0  0  0  0  0  0
   13.9090  -18.9910  -42.6210 O   0  0  0  0  0  0  0  0  0  0  0  0
   11.7820  -19.3010  -43.4480 C   0  0  0  0  0  0  0  0  0  0  0  0
   11.5210  -18.0790  -43.3160 O   0  0  0  0  0  0  0  0  0  0  0  0
    4.7740  -20.9220  -39.3000 H   0  0  0  0  0  0  0  0  0  0  0  0
    7.0920  -20.6930  -40.1090 H   0  0  0  0  0  0  0  0  0  0  0  0
    5.7140  -18.3220  -43.3180 H   0  0  0  0  0  0  0  0  0  0  0  0
    3.3740  -18.5690  -42.4930 H   0  0  0  0  0  0  0  0  0  0  0  0
    8.4660  -18.4780  -41.8860 H   0  0  0  0  0  0  0  0  0  0  0  0
    9.6400  -18.4340  -44.2770 H   0  0  0  0  0  0  0  0  0  0  0  0
    9.2520  -19.8760  -45.3090 H   0  0  0  0  0  0  0  0  0  0  0  0
   15.2440  -21.4200  -43.6840 H   0  0  0  0  0  0  0  0  0  0  0  0
   14.8250  -21.6700  -41.9120 H   0  0  0  0  0  0  0  0  0  0  0  0
   14.3070  -23.8100  -42.3720 H   0  0  0  0  0  0  0  0  0  0  0  0
   14.9020  -23.6350  -44.1090 H   0  0  0  0  0  0  0  0  0  0  0  0
   11.8700  -23.9090  -46.1450 H   0  0  0  0  0  0  0  0  0  0  0  0
   10.6390  -25.9590  -46.7340 H   0  0  0  0  0  0  0  0  0  0  0  0
   10.2050  -27.6580  -45.0190 H   0  0  0  0  0  0  0  0  0  0  0  0
   11.0280  -27.2460  -42.7130 H   0  0  0  0  0  0  0  0  0  0  0  0
   12.2330  -25.2050  -42.1790 H   0  0  0  0  0  0  0  0  0  0  0  0
  2  1  1  0  0  0  0
  2  3  1  0  0  0  0
  3 29  1  0  0  0  0
  4  3  2  0  0  0  0
  4 30  1  0  0  0  0
  5  4  1  0  0  0  0
  6  7  1  0  0  0  0
  6  5  2  0  0  0  0
  7  2  2  0  0  0  0
  8 33  1  0  0  0  0
  8  5  1  0  0  0  0
  9  8  1  0  0  0  0
 10  9  2  0  0  0  0
 11 34  1  0  0  0  0
 11 12  1  0  0  0  0
 11  9  1  0  0  0  0
 12 27  1  0  0  0  0
 13 12  1  0  0  0  0
 13 14  2  0  0  0  0
 14 15  1  0  0  0  0
 15 25  1  0  0  0  0
 15 16  1  0  0  0  0
 16 37  1  0  0  0  0
 17 16  1  0  0  0  0
 17 38  1  0  0  0  0
 18 14  1  0  0  0  0
 18 17  1  0  0  0  0
 19 18  1  0  0  0  0
 19 24  1  0  0  0  0
 20 19  2  0  0  0  0
 21 20  1  0  0  0  0
 21 22  2  0  0  0  0
 22 23  1  0  0  0  0
 23 24  2  0  0  0  0
 23 43  1  0  0  0  0
 24 44  1  0  0  0  0
 25 26  2  0  0  0  0
 27 28  2  0  0  0  0
 27 25  1  0  0  0  0
 31  6  1  0  0  0  0
 32  7  1  0  0  0  0
 35 11  1  0  0  0  0
 36 16  1  0  0  0  0
 39 17  1  0  0  0  0
 40 20  1  0  0  0  0
 41 21  1  0  0  0  0
 42 22  1  0  0  0  0
M  END
>  <Pose>
1

>  <Score>
-4.14

$$$$
