
 OpenBabel03232221553D

 47 50  0  0  1  0  0  0  0  0999 V2000
    6.8020  -18.2600  -46.2890 B   0  0  0  0  0  0  0  0  0  0  0  0
    6.5780  -18.5130  -44.3990 C   0  0  0  0  0  0  0  0  0  0  0  0
    7.6030  -18.9950  -43.6240 C   0  0  0  0  0  0  0  0  0  0  0  0
    7.4570  -19.1820  -42.2970 C   0  0  0  0  0  0  0  0  0  0  0  0
    6.2250  -18.8890  -41.6300 C   0  0  0  0  0  0  0  0  0  0  0  0
    5.2240  -18.4080  -42.4440 C   0  0  0  0  0  0  0  0  0  0  0  0
    5.3760  -18.2170  -43.7950 C   0  0  0  0  0  0  0  0  0  0  0  0
    6.1700  -19.1920  -40.2930 N   0  0  0  0  0  0  0  0  0  0  0  0
    6.1180  -19.4820  -39.0030 C   0  0  0  0  0  0  0  0  0  0  0  0
    6.7000  -18.9280  -37.9880 O   0  0  0  0  0  0  0  0  0  0  0  0
    5.2490  -20.6630  -38.5180 C   0  0  2  0  0  0  0  0  0  0  0  0
    5.6430  -21.8220  -39.3840 C   0  0  0  0  0  0  0  0  0  0  0  0
    4.7970  -22.0130  -40.5700 C   0  0  0  0  0  0  0  0  0  0  0  0
    5.3290  -22.5090  -41.6000 O   0  0  0  0  0  0  0  0  0  0  0  0
    3.4300  -21.6440  -40.5380 N   0  0  0  0  0  0  0  0  0  0  0  0
    2.9500  -20.8000  -39.5130 C   0  0  0  0  0  0  0  0  0  0  0  0
    1.6220  -20.4670  -39.4950 N   0  0  0  0  0  0  0  0  0  0  0  0
    1.0980  -19.6850  -38.5480 C   0  0  0  0  0  0  0  0  0  0  0  0
    1.9210  -19.2250  -37.5970 N   0  0  0  0  0  0  0  0  0  0  0  0
    3.2520  -19.5250  -37.5690 C   0  0  0  0  0  0  0  0  0  0  0  0
    3.8180  -20.3320  -38.5360 C   0  0  0  0  0  0  0  0  0  0  0  0
    4.0880  -19.0000  -36.5430 N   0  0  0  0  0  0  0  0  0  0  0  0
   -0.3070  -19.3450  -38.5510 N   0  0  0  0  0  0  0  0  0  0  0  0
   -1.1220  -19.9460  -37.5540 C   0  0  0  0  0  0  0  0  0  0  0  0
   -2.4270  -19.2440  -37.3150 C   0  0  0  0  0  0  0  0  0  0  0  0
   -2.5470  -18.0760  -38.0610 O   0  0  0  0  0  0  0  0  0  0  0  0
   -2.2760  -18.2910  -39.4050 C   0  0  0  0  0  0  0  0  0  0  0  0
   -0.7830  -18.4190  -39.5590 C   0  0  0  0  0  0  0  0  0  0  0  0
    8.5580  -19.2330  -44.1120 H   0  0  0  0  0  0  0  0  0  0  0  0
    8.2680  -19.5700  -41.6770 H   0  0  0  0  0  0  0  0  0  0  0  0
    4.2390  -18.1700  -41.9990 H   0  0  0  0  0  0  0  0  0  0  0  0
    4.5570  -17.8290  -44.4130 H   0  0  0  0  0  0  0  0  0  0  0  0
    7.0410  -18.1780  -40.0330 H   0  0  0  0  0  0  0  0  0  0  0  0
    5.6120  -20.8970  -37.4670 H   0  0  0  0  0  0  0  0  0  0  0  0
    5.6180  -22.7480  -38.7460 H   0  0  0  0  0  0  0  0  0  0  0  0
    6.7020  -21.6650  -39.7160 H   0  0  0  0  0  0  0  0  0  0  0  0
    2.7430  -21.9850  -41.2710 H   0  0  0  0  0  0  0  0  0  0  0  0
    3.7490  -18.7720  -35.6040 H   0  0  0  0  0  0  0  0  0  0  0  0
    5.1030  -18.8310  -36.7620 H   0  0  0  0  0  0  0  0  0  0  0  0
   -1.3460  -20.9900  -37.9190 H   0  0  0  0  0  0  0  0  0  0  0  0
   -0.5090  -20.0810  -36.6250 H   0  0  0  0  0  0  0  0  0  0  0  0
   -3.3010  -19.9050  -37.5360 H   0  0  0  0  0  0  0  0  0  0  0  0
   -2.4940  -18.9670  -36.2490 H   0  0  0  0  0  0  0  0  0  0  0  0
   -2.6580  -17.3720  -39.9390 H   0  0  0  0  0  0  0  0  0  0  0  0
   -2.8190  -19.1780  -39.7830 H   0  0  0  0  0  0  0  0  0  0  0  0
   -0.4930  -18.7500  -40.5810 H   0  0  0  0  0  0  0  0  0  0  0  0
   -0.3370  -17.3980  -39.4270 H   0  0  0  0  0  0  0  0  0  0  0  0
  1  2  1  0  0  0  0
  2  7  2  0  0  0  0
  2  3  1  0  0  0  0
  3  4  2  0  0  0  0
  4 30  1  0  0  0  0
  4  5  1  0  0  0  0
  5  8  1  0  0  0  0
  6 31  1  0  0  0  0
  6  5  2  0  0  0  0
  7  6  1  0  0  0  0
  8 33  1  0  0  0  0
  8  9  1  0  0  0  0
  9 11  1  0  0  0  0
  9 10  2  0  0  0  0
 11 34  1  1  0  0  0
 12 35  1  0  0  0  0
 12 11  1  0  0  0  0
 13 15  1  0  0  0  0
 13 12  1  0  0  0  0
 14 13  2  0  0  0  0
 15 16  1  0  0  0  0
 16 17  1  0  0  0  0
 16 21  2  0  0  0  0
 17 18  2  0  0  0  0
 18 19  1  0  0  0  0
 19 20  2  0  0  0  0
 20 22  1  0  0  0  0
 21 11  1  0  0  0  0
 21 20  1  0  0  0  0
 22 38  1  0  0  0  0
 23 18  1  0  0  0  0
 23 24  1  0  0  0  0
 24 25  1  0  0  0  0
 24 41  1  0  0  0  0
 25 43  1  0  0  0  0
 26 25  1  0  0  0  0
 27 26  1  0  0  0  0
 28 47  1  0  0  0  0
 28 27  1  0  0  0  0
 28 23  1  0  0  0  0
 29  3  1  0  0  0  0
 32  7  1  0  0  0  0
 36 12  1  0  0  0  0
 37 15  1  0  0  0  0
 39 22  1  0  0  0  0
 40 24  1  0  0  0  0
 42 25  1  0  0  0  0
 44 27  1  0  0  0  0
 45 27  1  0  0  0  0
 46 28  1  0  0  0  0
M  END
>  <Pose>
1

>  <Score>
-5.03

$$$$
