
 OpenBabel03232221553D

 52 55  0  0  1  0  0  0  0  0999 V2000
    0.2450  -12.8360  -35.9010 B   0  0  0  0  0  0  0  0  0  0  0  0
    0.8700  -14.4430  -36.6830 C   0  0  0  0  0  0  0  0  0  0  0  0
    0.9500  -15.5940  -35.9190 C   0  0  0  0  0  0  0  0  0  0  0  0
    1.3860  -16.7810  -36.4040 C   0  0  0  0  0  0  0  0  0  0  0  0
    1.7810  -16.8310  -37.7800 C   0  0  0  0  0  0  0  0  0  0  0  0
    1.6900  -15.6710  -38.5110 C   0  0  0  0  0  0  0  0  0  0  0  0
    1.2420  -14.4740  -37.9960 C   0  0  0  0  0  0  0  0  0  0  0  0
    2.1430  -18.0820  -38.2150 N   0  0  0  0  0  0  0  0  0  0  0  0
    2.4990  -19.3090  -38.6430 C   0  0  0  0  0  0  0  0  0  0  0  0
    1.7470  -20.3690  -38.7620 O   0  0  0  0  0  0  0  0  0  0  0  0
    3.8870  -19.6320  -39.0690 C   0  0  2  0  0  0  0  0  0  0  0  0
    4.9140  -19.5450  -37.9550 C   0  0  0  0  0  0  0  0  0  0  0  0
    6.1530  -20.2380  -38.4200 C   0  0  0  0  0  0  0  0  0  0  0  0
    6.7090  -21.0630  -37.7170 O   0  0  0  0  0  0  0  0  0  0  0  0
    6.6270  -19.8830  -39.6910 N   0  0  0  0  0  0  0  0  0  0  0  0
    5.7670  -19.2950  -40.6470 C   0  0  0  0  0  0  0  0  0  0  0  0
    6.2310  -18.8600  -41.8360 N   0  0  0  0  0  0  0  0  0  0  0  0
    5.5140  -18.2140  -42.7550 C   0  0  0  0  0  0  0  0  0  0  0  0
    4.2140  -18.0000  -42.4230 N   0  0  0  0  0  0  0  0  0  0  0  0
    3.6770  -18.4120  -41.2460 C   0  0  0  0  0  0  0  0  0  0  0  0
    4.4100  -19.0750  -40.3100 C   0  0  0  0  0  0  0  0  0  0  0  0
    2.3360  -18.1480  -40.9840 O   0  0  0  0  0  0  0  0  0  0  0  0
    6.0120  -17.8120  -44.0170 N   0  0  0  0  0  0  0  0  0  0  0  0
    6.9440  -16.7440  -44.2710 C   0  0  0  0  0  0  0  0  0  0  0  0
    7.8920  -17.1900  -45.3800 C   0  0  0  0  0  0  0  0  0  0  0  0
    8.0910  -18.6770  -45.3920 C   0  0  2  0  0  0  0  0  0  0  0  0
    6.8070  -19.4010  -45.5980 C   0  0  0  0  0  0  0  0  0  0  0  0
    5.5800  -18.5420  -45.2140 C   0  0  0  0  0  0  0  0  0  0  0  0
    8.8370  -19.1470  -44.2000 C   0  0  0  0  0  0  0  0  0  0  0  0
    9.3560  -18.2830  -43.4640 O   0  0  0  0  0  0  0  0  0  0  0  0
    8.9940  -20.5080  -43.8570 N   0  0  0  0  0  0  0  0  0  0  0  0
    0.6450  -15.5500  -34.8550 H   0  0  0  0  0  0  0  0  0  0  0  0
    1.4490  -17.6830  -35.7940 H   0  0  0  0  0  0  0  0  0  0  0  0
    1.9680  -15.6800  -39.5660 H   0  0  0  0  0  0  0  0  0  0  0  0
    1.1790  -13.5720  -38.5940 H   0  0  0  0  0  0  0  0  0  0  0  0
    3.3030  -17.9700  -37.5410 H   0  0  0  0  0  0  0  0  0  0  0  0
    3.8100  -20.7950  -39.1950 H   0  0  0  0  0  0  0  0  0  0  0  0
    4.5810  -20.0670  -37.0370 H   0  0  0  0  0  0  0  0  0  0  0  0
    5.1580  -18.5100  -37.7010 H   0  0  0  0  0  0  0  0  0  0  0  0
    7.6290  -20.0290  -39.9900 H   0  0  0  0  0  0  0  0  0  0  0  0
    2.0160  -17.7890  -40.0870 H   0  0  0  0  0  0  0  0  0  0  0  0
    7.5510  -16.5100  -43.3800 H   0  0  0  0  0  0  0  0  0  0  0  0
    6.4940  -15.7930  -44.6020 H   0  0  0  0  0  0  0  0  0  0  0  0
    7.5690  -16.7740  -46.3480 H   0  0  0  0  0  0  0  0  0  0  0  0
    8.8810  -16.7120  -45.1800 H   0  0  0  0  0  0  0  0  0  0  0  0
    8.7430  -18.9180  -46.2760 H   0  0  0  0  0  0  0  0  0  0  0  0
    6.7710  -20.3200  -44.9460 H   0  0  0  0  0  0  0  0  0  0  0  0
    6.6530  -19.7650  -46.6280 H   0  0  0  0  0  0  0  0  0  0  0  0
    5.3530  -17.8690  -46.0400 H   0  0  0  0  0  0  0  0  0  0  0  0
    4.7780  -19.2640  -44.9700 H   0  0  0  0  0  0  0  0  0  0  0  0
    9.1040  -20.8290  -42.8770 H   0  0  0  0  0  0  0  0  0  0  0  0
    9.0000  -21.2170  -44.6190 H   0  0  0  0  0  0  0  0  0  0  0  0
  2  3  1  0  0  0  0
  2  1  1  0  0  0  0
  3 32  1  0  0  0  0
  4  3  2  0  0  0  0
  4 33  1  0  0  0  0
  5  4  1  0  0  0  0
  6  7  1  0  0  0  0
  6  5  2  0  0  0  0
  7  2  2  0  0  0  0
  8  5  1  0  0  0  0
  8 36  1  0  0  0  0
  9  8  1  0  0  0  0
 10  9  2  0  0  0  0
 11 37  1  6  0  0  0
 11  9  1  0  0  0  0
 11 12  1  0  0  0  0
 12 39  1  0  0  0  0
 12 38  1  0  0  0  0
 13 12  1  0  0  0  0
 13 14  2  0  0  0  0
 15 13  1  0  0  0  0
 16 21  2  0  0  0  0
 16 15  1  0  0  0  0
 17 16  1  0  0  0  0
 18 19  1  0  0  0  0
 18 17  2  0  0  0  0
 19 20  2  0  0  0  0
 20 22  1  0  0  0  0
 20 21  1  0  0  0  0
 21 11  1  0  0  0  0
 22 41  1  0  0  0  0
 23 18  1  0  0  0  0
 24 23  1  0  0  0  0
 24 42  1  0  0  0  0
 25 45  1  0  0  0  0
 25 24  1  0  0  0  0
 26 46  1  6  0  0  0
 26 25  1  0  0  0  0
 26 29  1  0  0  0  0
 27 26  1  0  0  0  0
 27 28  1  0  0  0  0
 27 47  1  0  0  0  0
 28 50  1  0  0  0  0
 28 23  1  0  0  0  0
 29 31  1  0  0  0  0
 29 30  2  0  0  0  0
 31 51  1  0  0  0  0
 34  6  1  0  0  0  0
 35  7  1  0  0  0  0
 40 15  1  0  0  0  0
 43 24  1  0  0  0  0
 44 25  1  0  0  0  0
 48 27  1  0  0  0  0
 49 28  1  0  0  0  0
 52 31  1  0  0  0  0
M  END
>  <Pose>
1

>  <Score>
-5.08

$$$$
