
 OpenBabel03232221553D

 47 50  0  0  1  0  0  0  0  0999 V2000
    0.9610  -16.3900  -35.9850 B   0  0  0  0  0  0  0  0  0  0  0  0
    1.9510  -17.6360  -37.0500 C   0  0  0  0  0  0  0  0  0  0  0  0
    2.9510  -18.4100  -36.5000 C   0  0  0  0  0  0  0  0  0  0  0  0
    3.6780  -19.3170  -37.2560 C   0  0  0  0  0  0  0  0  0  0  0  0
    3.4190  -19.4760  -38.6010 C   0  0  0  0  0  0  0  0  0  0  0  0
    2.4170  -18.6980  -39.1440 C   0  0  0  0  0  0  0  0  0  0  0  0
    1.6920  -17.7940  -38.3950 C   0  0  0  0  0  0  0  0  0  0  0  0
    4.1740  -20.4130  -39.3740 N   0  0  0  0  0  0  0  0  0  0  0  0
    4.3120  -21.7130  -39.1750 N   0  0  0  0  0  0  0  0  0  0  0  0
    5.0860  -22.2630  -40.0940 N   0  0  0  0  0  0  0  0  0  0  0  0
    5.4920  -21.2930  -40.9570 C   0  0  0  0  0  0  0  0  0  0  0  0
    4.8980  -20.1410  -40.4740 C   0  0  0  0  0  0  0  0  0  0  0  0
    5.1320  -19.0080  -41.1460 N   0  0  0  0  0  0  0  0  0  0  0  0
    5.9120  -19.0050  -42.2410 C   0  0  0  0  0  0  0  0  0  0  0  0
    6.4960  -20.1270  -42.7210 N   0  0  0  0  0  0  0  0  0  0  0  0
    6.2870  -21.2830  -42.0780 C   0  0  0  0  0  0  0  0  0  0  0  0
    6.8260  -22.3220  -42.5190 O   0  0  0  0  0  0  0  0  0  0  0  0
    7.3200  -20.0240  -43.9110 C   0  0  0  0  0  0  0  0  0  0  0  0
    8.7730  -19.9030  -43.5270 C   0  0  0  0  0  0  0  0  0  0  0  0
    9.1970  -18.8740  -42.9380 O   0  0  0  0  0  0  0  0  0  0  0  0
    9.6880  -20.9410  -43.8200 N   0  0  0  0  0  0  0  0  0  0  0  0
   11.0900  -20.8170  -43.5010 C   0  0  0  0  0  0  0  0  0  0  0  0
   11.8640  -21.3060  -44.7140 C   0  0  2  0  0  0  0  0  0  0  0  0
   11.5210  -22.5730  -45.1090 O   0  0  0  0  0  0  0  0  0  0  0  0
   10.4190  -23.0980  -44.4810 C   0  0  1  0  0  0  0  0  0  0  0  0
    9.2320  -22.1570  -44.4530 C   0  0  0  0  0  0  0  0  0  0  0  0
    9.9950  -24.4290  -45.0270 C   0  0  0  0  0  0  0  0  0  0  0  0
   13.3350  -21.3500  -44.2900 C   0  0  0  0  0  0  0  0  0  0  0  0
    3.1580  -18.2920  -35.4520 H   0  0  0  0  0  0  0  0  0  0  0  0
    4.4590  -19.9180  -36.8170 H   0  0  0  0  0  0  0  0  0  0  0  0
    2.1920  -18.8000  -40.1930 H   0  0  0  0  0  0  0  0  0  0  0  0
    0.9000  -17.1810  -38.8270 H   0  0  0  0  0  0  0  0  0  0  0  0
    6.0840  -18.0600  -42.7720 H   0  0  0  0  0  0  0  0  0  0  0  0
    7.2240  -20.9210  -44.5520 H   0  0  0  0  0  0  0  0  0  0  0  0
    7.0850  -19.0940  -44.4680 H   0  0  0  0  0  0  0  0  0  0  0  0
   11.3660  -21.3950  -42.5940 H   0  0  0  0  0  0  0  0  0  0  0  0
   11.2970  -19.7500  -43.3250 H   0  0  0  0  0  0  0  0  0  0  0  0
   11.7540  -20.5360  -45.5130 H   0  0  0  0  0  0  0  0  0  0  0  0
   10.6950  -23.2620  -43.3990 H   0  0  0  0  0  0  0  0  0  0  0  0
    8.4300  -22.6570  -43.8790 H   0  0  0  0  0  0  0  0  0  0  0  0
    8.8720  -21.8970  -45.4630 H   0  0  0  0  0  0  0  0  0  0  0  0
    9.5820  -25.0560  -44.2090 H   0  0  0  0  0  0  0  0  0  0  0  0
    9.1870  -24.3370  -45.7940 H   0  0  0  0  0  0  0  0  0  0  0  0
   10.8700  -24.9920  -45.4380 H   0  0  0  0  0  0  0  0  0  0  0  0
   13.4860  -20.4950  -43.6060 H   0  0  0  0  0  0  0  0  0  0  0  0
   13.5770  -22.2710  -43.7520 H   0  0  0  0  0  0  0  0  0  0  0  0
   13.9950  -21.1830  -45.1820 H   0  0  0  0  0  0  0  0  0  0  0  0
  2  3  1  0  0  0  0
  2  1  1  0  0  0  0
  3 29  1  0  0  0  0
  4 30  1  0  0  0  0
  4  3  2  0  0  0  0
  5  4  1  0  0  0  0
  6  5  2  0  0  0  0
  6  7  1  0  0  0  0
  7  2  2  0  0  0  0
  8  9  1  0  0  0  0
  8  5  1  0  0  0  0
 10  9  2  0  0  0  0
 11 12  2  0  0  0  0
 11 10  1  0  0  0  0
 12  8  1  0  0  0  0
 13 12  1  0  0  0  0
 14 13  2  0  0  0  0
 15 14  1  0  0  0  0
 15 16  1  0  0  0  0
 16 11  1  0  0  0  0
 17 16  2  0  0  0  0
 18 19  1  0  0  0  0
 18 15  1  0  0  0  0
 19 20  2  0  0  0  0
 21 19  1  0  0  0  0
 21 22  1  0  0  0  0
 22 37  1  0  0  0  0
 22 36  1  0  0  0  0
 23 38  1  6  0  0  0
 23 28  1  0  0  0  0
 23 22  1  0  0  0  0
 24 23  1  0  0  0  0
 24 25  1  0  0  0  0
 25 26  1  0  0  0  0
 25 39  1  1  0  0  0
 26 40  1  0  0  0  0
 26 21  1  0  0  0  0
 27 25  1  0  0  0  0
 27 42  1  0  0  0  0
 28 46  1  0  0  0  0
 28 45  1  0  0  0  0
 31  6  1  0  0  0  0
 32  7  1  0  0  0  0
 33 14  1  0  0  0  0
 34 18  1  0  0  0  0
 35 18  1  0  0  0  0
 41 26  1  0  0  0  0
 43 27  1  0  0  0  0
 44 27  1  0  0  0  0
 47 28  1  0  0  0  0
M  END
>  <Pose>
1

>  <Score>
-4.51

$$$$
