
 OpenBabel03232221553D

 56 59  0  0  1  0  0  0  0  0999 V2000
   12.0890  -28.1800  -43.6360 B   0  0  0  0  0  0  0  0  0  0  0  0
   10.5160  -27.1090  -43.8240 C   0  0  0  0  0  0  0  0  0  0  0  0
    9.7360  -27.1470  -44.9570 C   0  0  0  0  0  0  0  0  0  0  0  0
    8.5860  -26.3600  -45.0870 C   0  0  0  0  0  0  0  0  0  0  0  0
    8.1960  -25.5180  -44.0800 C   0  0  0  0  0  0  0  0  0  0  0  0
    8.9840  -25.4870  -42.9510 C   0  0  0  0  0  0  0  0  0  0  0  0
   10.1240  -26.2620  -42.8110 C   0  0  0  0  0  0  0  0  0  0  0  0
    7.0180  -24.7200  -44.2320 N   0  0  0  0  0  0  0  0  0  0  0  0
    5.7770  -24.8840  -43.5380 C   0  0  0  0  0  0  0  0  0  0  0  0
    5.3110  -25.9370  -43.0390 O   0  0  0  0  0  0  0  0  0  0  0  0
    5.1040  -23.5600  -43.5000 C   0  0  2  0  0  0  0  0  0  0  0  0
    5.8420  -22.6710  -44.4750 C   0  0  0  0  0  0  0  0  0  0  0  0
    6.8180  -23.6070  -45.0930 C   0  0  0  0  0  0  0  0  0  0  0  0
    7.4020  -23.4530  -46.2240 O   0  0  0  0  0  0  0  0  0  0  0  0
    5.0840  -23.0760  -42.1790 N   0  0  2  0  0  0  0  0  0  0  0  0
    3.8820  -22.5800  -41.6430 C   0  0  0  0  0  0  0  0  0  0  0  0
    4.1700  -21.9940  -40.2540 C   0  0  0  0  0  0  0  0  0  0  0  0
    5.0350  -20.7570  -40.3520 C   0  0  1  0  0  0  0  0  0  0  0  0
    6.0860  -20.9660  -41.3670 C   0  0  0  0  0  0  0  0  0  0  0  0
    6.2510  -22.4230  -41.7200 C   0  0  0  0  0  0  0  0  0  0  0  0
    4.1990  -19.6420  -40.5250 N   0  0  0  0  0  0  0  0  0  0  0  0
    3.4450  -19.1860  -39.4340 C   0  0  0  0  0  0  0  0  0  0  0  0
    1.9760  -19.1580  -39.8910 C   0  0  0  0  0  0  0  0  0  0  0  0
    1.9040  -18.1020  -40.9750 C   0  0  0  0  0  0  0  0  0  0  0  0
    3.2380  -17.7290  -41.5320 C   0  0  0  0  0  0  0  0  0  0  0  0
    4.1670  -18.9390  -41.7140 C   0  0  0  0  0  0  0  0  0  0  0  0
    5.6980  -20.6270  -39.0060 C   0  0  0  0  0  0  0  0  0  0  0  0
    5.4530  -21.4780  -38.0980 O   0  0  0  0  0  0  0  0  0  0  0  0
    6.6010  -19.5840  -38.6910 N   0  0  0  0  0  0  0  0  0  0  0  0
   10.0490  -27.8090  -45.7400 H   0  0  0  0  0  0  0  0  0  0  0  0
    8.0230  -26.4450  -46.0110 H   0  0  0  0  0  0  0  0  0  0  0  0
    8.7050  -24.8330  -42.1440 H   0  0  0  0  0  0  0  0  0  0  0  0
   10.7330  -26.2200  -41.9060 H   0  0  0  0  0  0  0  0  0  0  0  0
    4.0800  -23.7270  -43.9340 H   0  0  0  0  0  0  0  0  0  0  0  0
    6.4400  -21.8790  -43.9770 H   0  0  0  0  0  0  0  0  0  0  0  0
    5.1900  -22.2980  -45.2750 H   0  0  0  0  0  0  0  0  0  0  0  0
    3.4920  -21.7510  -42.2860 H   0  0  0  0  0  0  0  0  0  0  0  0
    3.0870  -23.3470  -41.4580 H   0  0  0  0  0  0  0  0  0  0  0  0
    4.8080  -22.7730  -39.7570 H   0  0  0  0  0  0  0  0  0  0  0  0
    3.2500  -21.8500  -39.6920 H   0  0  0  0  0  0  0  0  0  0  0  0
    7.0810  -20.6690  -40.9140 H   0  0  0  0  0  0  0  0  0  0  0  0
    6.0160  -20.3150  -42.2580 H   0  0  0  0  0  0  0  0  0  0  0  0
    7.1360  -22.5620  -42.4090 H   0  0  0  0  0  0  0  0  0  0  0  0
    6.5840  -22.9850  -40.7920 H   0  0  0  0  0  0  0  0  0  0  0  0
    3.5300  -19.8580  -38.5780 H   0  0  0  0  0  0  0  0  0  0  0  0
    3.7290  -18.1390  -39.2010 H   0  0  0  0  0  0  0  0  0  0  0  0
    1.7010  -20.1410  -40.3530 H   0  0  0  0  0  0  0  0  0  0  0  0
    1.3300  -18.9360  -39.0280 H   0  0  0  0  0  0  0  0  0  0  0  0
    1.1590  -18.3610  -41.7560 H   0  0  0  0  0  0  0  0  0  0  0  0
    1.4770  -17.1890  -40.4710 H   0  0  0  0  0  0  0  0  0  0  0  0
    3.0740  -17.3130  -42.5640 H   0  0  0  0  0  0  0  0  0  0  0  0
    3.7660  -16.9400  -40.9410 H   0  0  0  0  0  0  0  0  0  0  0  0
    5.1070  -18.5390  -42.1130 H   0  0  0  0  0  0  0  0  0  0  0  0
    3.7170  -19.5510  -42.5300 H   0  0  0  0  0  0  0  0  0  0  0  0
    6.4490  -19.0170  -37.8480 H   0  0  0  0  0  0  0  0  0  0  0  0
    7.4170  -19.3830  -39.2990 H   0  0  0  0  0  0  0  0  0  0  0  0
  2  1  1  0  0  0  0
  2  7  1  0  0  0  0
  3  2  2  0  0  0  0
  4  3  1  0  0  0  0
  4  5  2  0  0  0  0
  5  6  1  0  0  0  0
  6  7  2  0  0  0  0
  6 32  1  0  0  0  0
  7 33  1  0  0  0  0
  8  5  1  0  0  0  0
  8  9  1  0  0  0  0
  9 11  1  0  0  0  0
  9 10  2  0  0  0  0
 11 34  1  6  0  0  0
 11 15  1  0  0  0  0
 12 35  1  0  0  0  0
 12 11  1  0  0  0  0
 13 12  1  0  0  0  0
 13  8  1  0  0  0  0
 14 13  2  0  0  0  0
 15 20  1  6  0  0  0
 15 16  1  0  0  0  0
 16 38  1  0  0  0  0
 16 17  1  0  0  0  0
 17 39  1  0  0  0  0
 17 40  1  0  0  0  0
 18 17  1  0  0  0  0
 18 27  1  1  0  0  0
 19 41  1  0  0  0  0
 19 18  1  0  0  0  0
 20 19  1  0  0  0  0
 20 44  1  0  0  0  0
 21 18  1  0  0  0  0
 21 22  1  0  0  0  0
 22 46  1  0  0  0  0
 22 45  1  0  0  0  0
 23 22  1  0  0  0  0
 23 48  1  0  0  0  0
 24 50  1  0  0  0  0
 24 23  1  0  0  0  0
 25 24  1  0  0  0  0
 25 52  1  0  0  0  0
 26 25  1  0  0  0  0
 26 21  1  0  0  0  0
 27 29  1  0  0  0  0
 27 28  2  0  0  0  0
 29 55  1  0  0  0  0
 30  3  1  0  0  0  0
 31  4  1  0  0  0  0
 36 12  1  0  0  0  0
 37 16  1  0  0  0  0
 42 19  1  0  0  0  0
 43 20  1  0  0  0  0
 47 23  1  0  0  0  0
 49 24  1  0  0  0  0
 51 25  1  0  0  0  0
 53 26  1  0  0  0  0
 54 26  1  0  0  0  0
 56 29  1  0  0  0  0
M  END
>  <Pose>
1

>  <Score>
-4.21

$$$$
