
 OpenBabel03232221553D

 49 52  0  0  0  0  0  0  0  0999 V2000
    3.7030  -27.2480  -46.0640 B   0  0  0  0  0  0  0  0  0  0  0  0
    4.1090  -25.7280  -44.9720 C   0  0  0  0  0  0  0  0  0  0  0  0
    5.3050  -25.6340  -44.2880 C   0  0  0  0  0  0  0  0  0  0  0  0
    5.5950  -24.5260  -43.4970 C   0  0  0  0  0  0  0  0  0  0  0  0
    4.7010  -23.4840  -43.3640 C   0  0  0  0  0  0  0  0  0  0  0  0
    3.5100  -23.5830  -44.0480 C   0  0  0  0  0  0  0  0  0  0  0  0
    3.2210  -24.6800  -44.8340 C   0  0  0  0  0  0  0  0  0  0  0  0
    4.9630  -22.3370  -42.5650 N   0  0  0  0  0  0  0  0  0  0  0  0
    4.1670  -21.6840  -41.7020 C   0  0  0  0  0  0  0  0  0  0  0  0
    2.9830  -22.0410  -41.4740 O   0  0  0  0  0  0  0  0  0  0  0  0
    4.8250  -20.6080  -41.1300 C   0  0  0  0  0  0  0  0  0  0  0  0
    6.0440  -20.6090  -41.6550 C   0  0  0  0  0  0  0  0  0  0  0  0
    6.6810  -19.5660  -41.1000 N   0  0  0  0  0  0  0  0  0  0  0  0
    5.8730  -18.9460  -40.2590 N   0  0  0  0  0  0  0  0  0  0  0  0
    4.7270  -19.5720  -40.2620 N   0  0  0  0  0  0  0  0  0  0  0  0
    3.5440  -19.2520  -39.4980 C   0  0  0  0  0  0  0  0  0  0  0  0
    3.7990  -19.5580  -38.0410 C   0  0  0  0  0  0  0  0  0  0  0  0
    4.8250  -20.1980  -37.7220 O   0  0  0  0  0  0  0  0  0  0  0  0
    2.8910  -19.1270  -37.0630 N   0  0  0  0  0  0  0  0  0  0  0  0
    2.0940  -17.9670  -37.1290 C   0  0  0  0  0  0  0  0  0  0  0  0
    1.4570  -17.4900  -38.2460 C   0  0  0  0  0  0  0  0  0  0  0  0
    0.7030  -16.3340  -38.2490 C   0  0  0  0  0  0  0  0  0  0  0  0
    0.5900  -15.6310  -37.0680 C   0  0  0  0  0  0  0  0  0  0  0  0
    1.2180  -16.0790  -35.9170 C   0  0  0  0  0  0  0  0  0  0  0  0
    1.9610  -17.2280  -35.9380 C   0  0  0  0  0  0  0  0  0  0  0  0
   -0.1660  -14.4620  -37.0500 O   0  0  0  0  0  0  0  0  0  0  0  0
    0.3170  -13.3400  -36.3380 C   0  0  0  0  0  0  0  0  0  0  0  0
    0.0670  -15.8750  -39.4000 O   0  0  0  0  0  0  0  0  0  0  0  0
    0.8920  -15.3500  -40.4490 C   0  0  0  0  0  0  0  0  0  0  0  0
    6.1360  -21.6650  -42.5360 C   0  0  0  0  0  0  0  0  0  0  0  0
    7.1690  -21.9670  -43.2220 O   0  0  0  0  0  0  0  0  0  0  0  0
    6.0050  -26.4610  -44.3990 H   0  0  0  0  0  0  0  0  0  0  0  0
    6.5290  -24.4620  -42.9680 H   0  0  0  0  0  0  0  0  0  0  0  0
    2.8100  -22.7570  -43.9390 H   0  0  0  0  0  0  0  0  0  0  0  0
    2.2660  -24.7300  -45.3650 H   0  0  0  0  0  0  0  0  0  0  0  0
    7.6580  -19.2610  -41.2800 H   0  0  0  0  0  0  0  0  0  0  0  0
    6.0910  -18.0880  -39.6700 H   0  0  0  0  0  0  0  0  0  0  0  0
    2.6550  -19.8490  -39.8080 H   0  0  0  0  0  0  0  0  0  0  0  0
    3.3110  -18.1770  -39.5490 H   0  0  0  0  0  0  0  0  0  0  0  0
    2.7950  -19.7440  -36.1910 H   0  0  0  0  0  0  0  0  0  0  0  0
    1.5220  -18.0270  -39.1830 H   0  0  0  0  0  0  0  0  0  0  0  0
    1.1080  -15.4970  -35.0000 H   0  0  0  0  0  0  0  0  0  0  0  0
    2.4560  -17.5720  -35.0130 H   0  0  0  0  0  0  0  0  0  0  0  0
    1.3450  -13.1430  -36.7250 H   0  0  0  0  0  0  0  0  0  0  0  0
    0.3780  -13.5810  -35.2690 H   0  0  0  0  0  0  0  0  0  0  0  0
   -0.3410  -12.4660  -36.5530 H   0  0  0  0  0  0  0  0  0  0  0  0
    1.5400  -16.1680  -40.8690 H   0  0  0  0  0  0  0  0  0  0  0  0
    0.2690  -14.9190  -41.2570 H   0  0  0  0  0  0  0  0  0  0  0  0
    1.5570  -14.5530  -40.0550 H   0  0  0  0  0  0  0  0  0  0  0  0
  1  2  1  0  0  0  0
  2  7  2  0  0  0  0
  2  3  1  0  0  0  0
  3  4  2  0  0  0  0
  4  5  1  0  0  0  0
  4 33  1  0  0  0  0
  5  8  1  0  0  0  0
  6 34  1  0  0  0  0
  6  5  2  0  0  0  0
  7  6  1  0  0  0  0
  8 30  1  0  0  0  0
  8  9  1  0  0  0  0
  9 10  2  0  0  0  0
  9 11  1  0  0  0  0
 11 15  1  0  0  0  0
 12 11  2  0  0  0  0
 12 13  1  0  0  0  0
 13 14  1  0  0  0  0
 14 37  1  0  0  0  0
 15 14  1  0  0  0  0
 15 16  1  0  0  0  0
 16 17  1  0  0  0  0
 17 18  2  0  0  0  0
 17 19  1  0  0  0  0
 19 40  1  0  0  0  0
 20 19  1  0  0  0  0
 20 25  1  0  0  0  0
 21 20  2  0  0  0  0
 22 21  1  0  0  0  0
 22 23  2  0  0  0  0
 23 26  1  0  0  0  0
 23 24  1  0  0  0  0
 24 42  1  0  0  0  0
 25 24  2  0  0  0  0
 25 43  1  0  0  0  0
 26 27  1  0  0  0  0
 27 45  1  0  0  0  0
 28 22  1  0  0  0  0
 29 49  1  0  0  0  0
 29 28  1  0  0  0  0
 30 12  1  0  0  0  0
 31 30  2  0  0  0  0
 32  3  1  0  0  0  0
 35  7  1  0  0  0  0
 36 13  1  0  0  0  0
 38 16  1  0  0  0  0
 39 16  1  0  0  0  0
 41 21  1  0  0  0  0
 44 27  1  0  0  0  0
 46 27  1  0  0  0  0
 47 29  1  0  0  0  0
 48 29  1  0  0  0  0
M  END
>  <Pose>
1

>  <Score>
-4.80

$$$$
