
 OpenBabel03232221553D

 48 51  0  0  0  0  0  0  0  0999 V2000
   -3.2190  -18.4620  -36.9910 B   0  0  0  0  0  0  0  0  0  0  0  0
   -1.3720  -18.7420  -37.3840 C   0  0  0  0  0  0  0  0  0  0  0  0
   -0.9230  -19.8760  -38.0280 C   0  0  0  0  0  0  0  0  0  0  0  0
    0.4230  -20.0620  -38.3100 C   0  0  0  0  0  0  0  0  0  0  0  0
    1.3770  -19.1290  -37.9620 C   0  0  0  0  0  0  0  0  0  0  0  0
    0.9300  -17.9910  -37.3150 C   0  0  0  0  0  0  0  0  0  0  0  0
   -0.4080  -17.8050  -37.0340 C   0  0  0  0  0  0  0  0  0  0  0  0
    2.7670  -19.2800  -38.2370 N   0  0  0  0  0  0  0  0  0  0  0  0
    3.3640  -19.4530  -39.4490 C   0  0  0  0  0  0  0  0  0  0  0  0
    2.7370  -19.4990  -40.5340 O   0  0  0  0  0  0  0  0  0  0  0  0
    4.7310  -19.5680  -39.3130 C   0  0  0  0  0  0  0  0  0  0  0  0
    4.9750  -19.4660  -38.0140 C   0  0  0  0  0  0  0  0  0  0  0  0
    6.3050  -19.5770  -37.8490 N   0  0  0  0  0  0  0  0  0  0  0  0
    6.8540  -19.7440  -39.0440 N   0  0  0  0  0  0  0  0  0  0  0  0
    5.9120  -19.7440  -39.9690 N   0  0  0  0  0  0  0  0  0  0  0  0
    6.0610  -19.9070  -41.3850 C   0  0  0  0  0  0  0  0  0  0  0  0
    6.2370  -18.6010  -42.1240 C   0  0  0  0  0  0  0  0  0  0  0  0
    5.1910  -17.9460  -42.3210 O   0  0  0  0  0  0  0  0  0  0  0  0
    7.4880  -18.1610  -42.5530 N   0  0  0  0  0  0  0  0  0  0  0  0
    7.8660  -17.5380  -43.7540 C   0  0  0  0  0  0  0  0  0  0  0  0
    7.9290  -16.1470  -43.8310 C   0  0  0  0  0  0  0  0  0  0  0  0
    8.2750  -15.4980  -44.9860 C   0  0  0  0  0  0  0  0  0  0  0  0
    8.5770  -16.2250  -46.1380 C   0  0  0  0  0  0  0  0  0  0  0  0
    8.5070  -17.5930  -46.0300 C   0  0  0  0  0  0  0  0  0  0  0  0
    8.1620  -18.2500  -44.8720 C   0  0  0  0  0  0  0  0  0  0  0  0
    8.9160  -15.5330  -47.2780 O   0  0  0  0  0  0  0  0  0  0  0  0
    9.9420  -14.6050  -47.4160 C   0  0  0  0  0  0  0  0  0  0  0  0
   11.2610  -15.0610  -46.8910 C   0  0  0  0  0  0  0  0  0  0  0  0
    3.7780  -19.2900  -37.3570 C   0  0  0  0  0  0  0  0  0  0  0  0
    3.6130  -19.1530  -36.1040 O   0  0  0  0  0  0  0  0  0  0  0  0
   -1.6740  -20.6130  -38.3030 H   0  0  0  0  0  0  0  0  0  0  0  0
    0.7720  -20.9490  -38.8130 H   0  0  0  0  0  0  0  0  0  0  0  0
    1.6830  -17.2600  -37.0420 H   0  0  0  0  0  0  0  0  0  0  0  0
   -0.7310  -16.9090  -36.5300 H   0  0  0  0  0  0  0  0  0  0  0  0
    6.8410  -19.5390  -36.9650 H   0  0  0  0  0  0  0  0  0  0  0  0
    7.8950  -19.8580  -39.2190 H   0  0  0  0  0  0  0  0  0  0  0  0
    6.9650  -20.5340  -41.6090 H   0  0  0  0  0  0  0  0  0  0  0  0
    5.1650  -20.3920  -41.8610 H   0  0  0  0  0  0  0  0  0  0  0  0
    8.2950  -18.3230  -41.8550 H   0  0  0  0  0  0  0  0  0  0  0  0
    7.7000  -15.5650  -42.9560 H   0  0  0  0  0  0  0  0  0  0  0  0
    8.3150  -14.4010  -45.0120 H   0  0  0  0  0  0  0  0  0  0  0  0
    8.7310  -18.1950  -46.8940 H   0  0  0  0  0  0  0  0  0  0  0  0
    8.1300  -19.3470  -44.8540 H   0  0  0  0  0  0  0  0  0  0  0  0
   10.0800  -14.4080  -48.5220 H   0  0  0  0  0  0  0  0  0  0  0  0
    9.6880  -13.6300  -46.9500 H   0  0  0  0  0  0  0  0  0  0  0  0
   12.0470  -15.2070  -47.6580 H   0  0  0  0  0  0  0  0  0  0  0  0
   11.6800  -14.3080  -46.1840 H   0  0  0  0  0  0  0  0  0  0  0  0
   11.2080  -16.0120  -46.2980 H   0  0  0  0  0  0  0  0  0  0  0  0
  2  7  1  0  0  0  0
  2  1  1  0  0  0  0
  3  2  2  0  0  0  0
  4  3  1  0  0  0  0
  4  5  2  0  0  0  0
  5  6  1  0  0  0  0
  6 33  1  0  0  0  0
  6  7  2  0  0  0  0
  7 34  1  0  0  0  0
  8  5  1  0  0  0  0
  8 29  1  0  0  0  0
  9 11  1  0  0  0  0
  9  8  1  0  0  0  0
 10  9  2  0  0  0  0
 11 12  2  0  0  0  0
 12 13  1  0  0  0  0
 12 29  1  0  0  0  0
 13 35  1  0  0  0  0
 14 13  1  0  0  0  0
 15 11  1  0  0  0  0
 15 14  1  0  0  0  0
 16 15  1  0  0  0  0
 17 16  1  0  0  0  0
 18 17  2  0  0  0  0
 19 17  1  0  0  0  0
 19 39  1  0  0  0  0
 20 19  1  0  0  0  0
 21 20  1  0  0  0  0
 21 40  1  0  0  0  0
 22 21  2  0  0  0  0
 23 24  2  0  0  0  0
 23 22  1  0  0  0  0
 24 25  1  0  0  0  0
 25 43  1  0  0  0  0
 25 20  2  0  0  0  0
 26 23  1  0  0  0  0
 27 26  1  0  0  0  0
 27 45  1  0  0  0  0
 27 28  1  0  0  0  0
 28 48  1  0  0  0  0
 28 47  1  0  0  0  0
 29 30  2  0  0  0  0
 31  3  1  0  0  0  0
 32  4  1  0  0  0  0
 36 14  1  0  0  0  0
 37 16  1  0  0  0  0
 38 16  1  0  0  0  0
 41 22  1  0  0  0  0
 42 24  1  0  0  0  0
 44 27  1  0  0  0  0
 46 28  1  0  0  0  0
M  END
>  <Pose>
1

>  <Score>
-5.76

$$$$
