
 OpenBabel03232221553D

 41 44  0  0  1  0  0  0  0  0999 V2000
   -3.3090  -18.2340  -36.5770 B   0  0  0  0  0  0  0  0  0  0  0  0
   -1.5130  -18.6080  -37.1680 C   0  0  0  0  0  0  0  0  0  0  0  0
   -0.5220  -17.6850  -36.9480 C   0  0  0  0  0  0  0  0  0  0  0  0
    0.7370  -17.9650  -37.3720 C   0  0  0  0  0  0  0  0  0  0  0  0
    1.0960  -19.1480  -38.0290 C   0  0  0  0  0  0  0  0  0  0  0  0
    0.0900  -20.0520  -38.2370 C   0  0  0  0  0  0  0  0  0  0  0  0
   -1.1990  -19.7880  -37.8140 C   0  0  0  0  0  0  0  0  0  0  0  0
    2.4330  -19.3580  -38.4360 N   0  0  0  0  0  0  0  0  0  0  0  0
    3.5390  -19.8570  -37.6600 C   0  0  0  0  0  0  0  0  0  0  0  0
    3.4600  -20.5940  -36.6370 O   0  0  0  0  0  0  0  0  0  0  0  0
    4.7740  -19.3390  -38.2920 C   0  0  1  0  0  0  0  0  0  0  0  0
    5.9080  -20.2400  -38.2180 N   0  0  0  0  0  0  0  0  0  0  0  0
    6.4890  -19.9600  -39.4940 N   0  0  0  0  0  0  0  0  0  0  0  0
    5.4400  -19.8390  -40.4540 C   0  0  0  0  0  0  0  0  0  0  0  0
    4.3810  -19.4620  -39.7470 C   0  0  0  0  0  0  0  0  0  0  0  0
    2.9660  -19.1120  -39.7430 C   0  0  0  0  0  0  0  0  0  0  0  0
    2.3910  -18.6710  -40.7770 O   0  0  0  0  0  0  0  0  0  0  0  0
    5.5010  -20.0670  -41.8940 C   0  0  0  0  0  0  0  0  0  0  0  0
    4.8320  -19.3800  -42.7000 O   0  0  0  0  0  0  0  0  0  0  0  0
    6.3010  -21.0540  -42.4510 O   0  0  0  0  0  0  0  0  0  0  0  0
    5.9170  -21.7480  -43.6300 C   0  0  0  0  0  0  0  0  0  0  0  0
    6.5120  -23.1260  -43.6090 C   0  0  0  0  0  0  0  0  0  0  0  0
    7.8690  -23.3040  -43.3410 C   0  0  0  0  0  0  0  0  0  0  0  0
    8.4500  -24.5420  -43.3070 C   0  0  0  0  0  0  0  0  0  0  0  0
    7.6620  -25.6640  -43.5500 C   0  0  0  0  0  0  0  0  0  0  0  0
    6.3220  -25.4840  -43.8160 C   0  0  0  0  0  0  0  0  0  0  0  0
    5.7390  -24.2150  -43.8460 C   0  0  0  0  0  0  0  0  0  0  0  0
   -0.7660  -16.7530  -36.4380 H   0  0  0  0  0  0  0  0  0  0  0  0
    1.5210  -17.2410  -37.1990 H   0  0  0  0  0  0  0  0  0  0  0  0
    0.2890  -20.9920  -38.7380 H   0  0  0  0  0  0  0  0  0  0  0  0
   -1.9990  -20.4960  -37.9730 H   0  0  0  0  0  0  0  0  0  0  0  0
    5.0230  -18.3130  -38.0170 H   0  0  0  0  0  0  0  0  0  0  0  0
    5.4950  -21.2090  -38.3230 H   0  0  0  0  0  0  0  0  0  0  0  0
    7.5020  -19.8600  -39.6990 H   0  0  0  0  0  0  0  0  0  0  0  0
    4.8380  -21.7820  -43.7740 H   0  0  0  0  0  0  0  0  0  0  0  0
    6.3710  -21.2250  -44.4940 H   0  0  0  0  0  0  0  0  0  0  0  0
    8.4820  -22.4500  -43.1520 H   0  0  0  0  0  0  0  0  0  0  0  0
    9.4990  -24.6870  -43.1020 H   0  0  0  0  0  0  0  0  0  0  0  0
    8.0920  -26.6640  -43.5330 H   0  0  0  0  0  0  0  0  0  0  0  0
    5.6650  -26.3070  -44.0100 H   0  0  0  0  0  0  0  0  0  0  0  0
    4.6870  -24.1100  -44.0560 H   0  0  0  0  0  0  0  0  0  0  0  0
  2  3  1  0  0  0  0
  2  1  1  0  0  0  0
  3 28  1  0  0  0  0
  4 29  1  0  0  0  0
  4  3  2  0  0  0  0
  5  4  1  0  0  0  0
  6  5  2  0  0  0  0
  6  7  1  0  0  0  0
  7  2  2  0  0  0  0
  8  5  1  0  0  0  0
  8  9  1  0  0  0  0
  9 10  2  0  0  0  0
 11 12  1  0  0  0  0
 11 32  1  1  0  0  0
 11  9  1  0  0  0  0
 13 12  1  0  0  0  0
 14 15  2  0  0  0  0
 14 13  1  0  0  0  0
 15 16  1  0  0  0  0
 15 11  1  0  0  0  0
 16  8  1  0  0  0  0
 17 16  2  0  0  0  0
 18 14  1  0  0  0  0
 19 18  2  0  0  0  0
 20 18  1  0  0  0  0
 21 22  1  0  0  0  0
 21 20  1  0  0  0  0
 22 23  1  0  0  0  0
 23 24  2  0  0  0  0
 23 37  1  0  0  0  0
 24 38  1  0  0  0  0
 25 39  1  0  0  0  0
 25 24  1  0  0  0  0
 26 25  2  0  0  0  0
 27 26  1  0  0  0  0
 27 22  2  0  0  0  0
 30  6  1  0  0  0  0
 31  7  1  0  0  0  0
 33 12  1  0  0  0  0
 34 13  1  0  0  0  0
 35 21  1  0  0  0  0
 36 21  1  0  0  0  0
 40 26  1  0  0  0  0
 41 27  1  0  0  0  0
M  END
>  <Pose>
1

>  <Score>
-5.02

$$$$
