
 OpenBabel03232221553D

 45 48  0  0  1  0  0  0  0  0999 V2000
   -3.0410  -19.0020  -38.0260 B   0  0  0  0  0  0  0  0  0  0  0  0
   -1.1360  -19.0560  -38.0930 C   0  0  0  0  0  0  0  0  0  0  0  0
   -0.5150  -20.2170  -38.4710 C   0  0  0  0  0  0  0  0  0  0  0  0
    0.8730  -20.2630  -38.5220 C   0  0  0  0  0  0  0  0  0  0  0  0
    1.6480  -19.1710  -38.2020 C   0  0  0  0  0  0  0  0  0  0  0  0
    1.0030  -18.0150  -37.8240 C   0  0  0  0  0  0  0  0  0  0  0  0
   -0.3790  -17.9430  -37.7660 C   0  0  0  0  0  0  0  0  0  0  0  0
    3.0590  -19.3100  -38.2840 N   0  0  0  0  0  0  0  0  0  0  0  0
    3.8880  -19.0210  -37.1430 C   0  0  0  0  0  0  0  0  0  0  0  0
    3.3510  -18.6400  -36.0660 O   0  0  0  0  0  0  0  0  0  0  0  0
    5.2790  -19.1840  -37.3020 N   0  0  0  0  0  0  0  0  0  0  0  0
    5.8390  -19.5650  -38.3730 C   0  0  0  0  0  0  0  0  0  0  0  0
    5.1530  -19.9070  -39.6430 C   0  0  1  0  0  0  0  0  0  0  0  0
    5.7440  -19.0780  -40.7300 C   0  0  0  0  0  0  0  0  0  0  0  0
    5.7190  -19.6170  -42.0410 N   0  0  0  0  0  4  0  0  0  0  0  0
    4.9220  -20.7650  -42.2210 C   0  0  0  0  0  0  0  0  0  0  0  0
    4.7750  -21.6970  -41.1850 C   0  0  0  0  0  0  0  0  0  0  0  0
    3.9980  -22.8040  -41.3790 C   0  0  0  0  0  0  0  0  0  0  0  0
    3.3320  -23.0730  -42.5520 C   0  0  0  0  0  0  0  0  0  0  0  0
    3.4790  -22.1530  -43.5690 C   0  0  0  0  0  0  0  0  0  0  0  0
    4.2620  -21.0190  -43.4040 C   0  0  0  0  0  0  0  0  0  0  0  0
    2.4960  -24.2850  -42.7240 C   0  0  0  0  0  0  0  0  0  0  0  0
    5.5100  -21.3670  -39.9360 C   0  0  0  0  0  0  0  0  0  0  0  0
    7.0710  -19.8420  -42.5790 C   0  0  0  0  0  0  0  0  0  0  0  0
    3.6920  -19.7380  -39.4860 C   0  0  0  0  0  0  0  0  0  0  0  0
    2.9020  -19.9760  -40.4580 O   0  0  0  0  0  0  0  0  0  0  0  0
    7.2460  -19.6860  -38.3910 O   0  0  0  0  0  0  0  0  0  0  0  0
   -1.1330  -21.0690  -38.7210 H   0  0  0  0  0  0  0  0  0  0  0  0
    1.3020  -21.2120  -38.8300 H   0  0  0  0  0  0  0  0  0  0  0  0
    1.5820  -17.1350  -37.5660 H   0  0  0  0  0  0  0  0  0  0  0  0
   -0.9120  -17.0520  -37.4750 H   0  0  0  0  0  0  0  0  0  0  0  0
    5.2850  -18.0630  -40.6690 H   0  0  0  0  0  0  0  0  0  0  0  0
    6.8290  -18.9070  -40.4600 H   0  0  0  0  0  0  0  0  0  0  0  0
    5.3120  -18.8730  -42.6840 H   0  0  0  0  0  0  0  0  0  0  0  0
    3.9080  -23.5050  -40.5490 H   0  0  0  0  0  0  0  0  0  0  0  0
    2.9710  -22.3300  -44.5110 H   0  0  0  0  0  0  0  0  0  0  0  0
    4.3620  -20.3140  -44.2140 H   0  0  0  0  0  0  0  0  0  0  0  0
    2.3470  -24.5710  -43.7610 H   0  0  0  0  0  0  0  0  0  0  0  0
    2.9150  -25.0840  -42.0810 H   0  0  0  0  0  0  0  0  0  0  0  0
    1.4910  -24.0270  -42.2800 H   0  0  0  0  0  0  0  0  0  0  0  0
    5.2350  -22.0250  -39.1000 H   0  0  0  0  0  0  0  0  0  0  0  0
    6.5910  -21.3740  -40.1630 H   0  0  0  0  0  0  0  0  0  0  0  0
    7.4350  -20.8580  -42.3490 H   0  0  0  0  0  0  0  0  0  0  0  0
    7.7400  -19.0510  -42.1940 H   0  0  0  0  0  0  0  0  0  0  0  0
    7.0230  -19.7560  -43.6840 H   0  0  0  0  0  0  0  0  0  0  0  0
  2  1  1  0  0  0  0
  2  7  1  0  0  0  0
  3  2  2  0  0  0  0
  4  3  1  0  0  0  0
  4  5  2  0  0  0  0
  5  6  1  0  0  0  0
  6  7  2  0  0  0  0
  6 30  1  0  0  0  0
  7 31  1  0  0  0  0
  8  5  1  0  0  0  0
  8  9  1  0  0  0  0
  9 10  2  0  0  0  0
 11  9  1  0  0  0  0
 12 11  1  0  0  0  0
 13 25  1  1  0  0  0
 13 12  1  0  0  0  0
 14 32  1  0  0  0  0
 14 33  1  0  0  0  0
 14 13  1  0  0  0  0
 15 14  1  0  0  0  0
 16 15  1  0  0  0  0
 16 17  1  0  0  0  0
 17 23  1  0  0  0  0
 18 17  2  0  0  0  0
 18 35  1  0  0  0  0
 19 18  1  0  0  0  0
 20 21  1  0  0  0  0
 20 19  2  0  0  0  0
 21 16  2  0  0  0  0
 22 19  1  0  0  0  0
 22 40  1  0  0  0  0
 22 39  1  0  0  0  0
 23 13  1  0  0  0  0
 23 41  1  0  0  0  0
 24 43  1  0  0  0  0
 24 44  1  0  0  0  0
 24 15  1  0  0  0  0
 25  8  1  0  0  0  0
 26 25  2  0  0  0  0
 27 12  2  0  0  0  0
 28  3  1  0  0  0  0
 29  4  1  0  0  0  0
 34 15  1  0  0  0  0
 36 20  1  0  0  0  0
 37 21  1  0  0  0  0
 38 22  1  0  0  0  0
 42 23  1  0  0  0  0
 45 24  1  0  0  0  0
M  END
>  <Pose>
1

>  <Score>
-4.26

$$$$
