
 OpenBabel03232221553D

 50 53  0  0  0  0  0  0  0  0999 V2000
   13.7530  -24.4170  -42.3520 B   0  0  0  0  0  0  0  0  0  0  0  0
   12.0210  -24.8740  -43.0290 C   0  0  0  0  0  0  0  0  0  0  0  0
   11.2350  -25.8160  -42.3870 C   0  0  0  0  0  0  0  0  0  0  0  0
    9.9870  -26.1390  -42.8820 C   0  0  0  0  0  0  0  0  0  0  0  0
    9.4760  -25.5480  -44.0200 C   0  0  0  0  0  0  0  0  0  0  0  0
   10.2470  -24.6080  -44.6710 C   0  0  0  0  0  0  0  0  0  0  0  0
   11.4910  -24.2970  -44.1620 C   0  0  0  0  0  0  0  0  0  0  0  0
    8.2070  -25.9080  -44.4850 N   0  0  0  0  0  0  0  0  0  0  0  0
    8.0810  -26.9120  -45.4940 C   0  0  0  0  0  0  0  0  0  0  0  0
    9.1530  -27.4420  -45.9290 O   0  0  0  0  0  0  0  0  0  0  0  0
    6.7970  -27.2770  -45.9670 N   0  0  0  0  0  0  0  0  0  0  0  0
    5.5850  -26.6970  -45.4940 C   0  0  0  0  0  0  0  0  0  0  0  0
    4.4540  -27.0440  -45.9350 O   0  0  0  0  0  0  0  0  0  0  0  0
    5.6770  -25.6580  -44.4520 C   0  0  0  0  0  0  0  0  0  0  0  0
    4.5860  -25.0800  -43.9730 C   0  0  0  0  0  0  0  0  0  0  0  0
    4.7070  -24.0820  -42.9700 N   0  0  0  0  0  0  0  0  0  0  0  0
    3.7090  -23.1970  -42.5960 N   0  0  0  0  0  0  0  0  0  0  0  0
    3.7950  -22.2990  -41.4970 C   0  0  0  0  0  0  0  0  0  0  0  0
    2.7770  -21.5900  -40.9990 N   0  0  0  0  0  0  0  0  0  0  0  0
    3.2080  -20.8500  -39.9650 C   0  0  0  0  0  0  0  0  0  0  0  0
    4.5630  -21.1090  -39.8100 C   0  0  0  0  0  0  0  0  0  0  0  0
    4.8650  -21.9910  -40.7610 N   0  0  0  0  0  0  0  0  0  0  0  0
    5.2910  -20.5140  -38.8480 N   0  0  0  0  0  0  0  0  0  0  0  0
    4.6900  -19.6530  -38.0260 C   0  0  0  0  0  0  0  0  0  0  0  0
    5.3410  -19.0690  -37.1050 O   0  0  0  0  0  0  0  0  0  0  0  0
    3.3670  -19.3530  -38.1220 N   0  0  0  0  0  0  0  0  0  0  0  0
    2.6440  -19.9570  -39.0930 C   0  0  0  0  0  0  0  0  0  0  0  0
    1.4300  -19.6840  -39.1850 O   0  0  0  0  0  0  0  0  0  0  0  0
    2.7640  -18.4170  -37.2070 C   0  0  0  0  0  0  0  0  0  0  0  0
    6.6840  -20.8310  -38.7510 C   0  0  0  0  0  0  0  0  0  0  0  0
    1.3760  -21.5520  -41.4340 C   0  0  0  0  0  0  0  0  0  0  0  0
    7.0130  -25.3060  -43.9860 C   0  0  0  0  0  0  0  0  0  0  0  0
    7.1410  -24.4240  -43.0990 O   0  0  0  0  0  0  0  0  0  0  0  0
   11.6560  -26.2640  -41.4970 H   0  0  0  0  0  0  0  0  0  0  0  0
    9.4360  -26.8930  -42.3110 H   0  0  0  0  0  0  0  0  0  0  0  0
    9.8950  -24.1000  -45.5830 H   0  0  0  0  0  0  0  0  0  0  0  0
   12.0650  -23.5560  -44.7010 H   0  0  0  0  0  0  0  0  0  0  0  0
    6.7490  -28.0170  -46.7050 H   0  0  0  0  0  0  0  0  0  0  0  0
    3.6090  -25.3390  -44.3170 H   0  0  0  0  0  0  0  0  0  0  0  0
    5.6460  -24.0370  -42.4880 H   0  0  0  0  0  0  0  0  0  0  0  0
    2.8380  -23.2250  -43.2030 H   0  0  0  0  0  0  0  0  0  0  0  0
    3.4850  -18.1960  -36.3940 H   0  0  0  0  0  0  0  0  0  0  0  0
    1.8700  -18.8520  -36.7080 H   0  0  0  0  0  0  0  0  0  0  0  0
    2.4800  -17.4960  -37.7470 H   0  0  0  0  0  0  0  0  0  0  0  0
    7.3330  -20.0840  -39.2500 H   0  0  0  0  0  0  0  0  0  0  0  0
    6.9430  -20.9320  -37.6760 H   0  0  0  0  0  0  0  0  0  0  0  0
    6.8900  -21.8150  -39.2210 H   0  0  0  0  0  0  0  0  0  0  0  0
    0.8000  -22.2660  -40.7780 H   0  0  0  0  0  0  0  0  0  0  0  0
    0.9330  -20.5660  -41.2920 H   0  0  0  0  0  0  0  0  0  0  0  0
    1.3010  -21.9410  -42.4670 H   0  0  0  0  0  0  0  0  0  0  0  0
  2  3  1  0  0  0  0
  2  1  1  0  0  0  0
  3 34  1  0  0  0  0
  4  3  2  0  0  0  0
  4 35  1  0  0  0  0
  5  4  1  0  0  0  0
  6  7  1  0  0  0  0
  6  5  2  0  0  0  0
  7  2  2  0  0  0  0
  8  5  1  0  0  0  0
  8 32  1  0  0  0  0
  9  8  1  0  0  0  0
 10  9  2  0  0  0  0
 11 12  1  0  0  0  0
 11  9  1  0  0  0  0
 12 14  1  0  0  0  0
 13 12  2  0  0  0  0
 14 32  1  0  0  0  0
 14 15  2  0  0  0  0
 15 16  1  0  0  0  0
 16 17  1  0  0  0  0
 16 40  1  0  0  0  0
 17 18  1  0  0  0  0
 18 19  1  0  0  0  0
 18 22  2  0  0  0  0
 19 20  1  0  0  0  0
 20 21  2  0  0  0  0
 20 27  1  0  0  0  0
 21 23  1  0  0  0  0
 22 21  1  0  0  0  0
 23 30  1  0  0  0  0
 23 24  1  0  0  0  0
 24 25  2  0  0  0  0
 26 24  1  0  0  0  0
 26 29  1  0  0  0  0
 27 26  1  0  0  0  0
 28 27  2  0  0  0  0
 29 43  1  0  0  0  0
 29 42  1  0  0  0  0
 30 46  1  0  0  0  0
 31 49  1  0  0  0  0
 31 19  1  0  0  0  0
 31 48  1  0  0  0  0
 32 33  2  0  0  0  0
 36  6  1  0  0  0  0
 37  7  1  0  0  0  0
 38 11  1  0  0  0  0
 39 15  1  0  0  0  0
 41 17  1  0  0  0  0
 44 29  1  0  0  0  0
 45 30  1  0  0  0  0
 47 30  1  0  0  0  0
 50 31  1  0  0  0  0
M  END
>  <Pose>
1

>  <Score>
-5.36

$$$$
