
 OpenBabel03232221553D

 44 47  0  0  0  0  0  0  0  0999 V2000
    4.0460  -25.7960  -44.6100 B   0  0  0  0  0  0  0  0  0  0  0  0
    4.2010  -24.3950  -43.3580 C   0  0  0  0  0  0  0  0  0  0  0  0
    3.2030  -24.1040  -42.4510 C   0  0  0  0  0  0  0  0  0  0  0  0
    3.3410  -23.0610  -41.5340 C   0  0  0  0  0  0  0  0  0  0  0  0
    4.4900  -22.3040  -41.5240 C   0  0  0  0  0  0  0  0  0  0  0  0
    5.4640  -22.6230  -42.4430 C   0  0  0  0  0  0  0  0  0  0  0  0
    5.3560  -23.6390  -43.3540 C   0  0  0  0  0  0  0  0  0  0  0  0
    4.7220  -21.2290  -40.6370 N   0  0  0  0  0  0  0  0  0  0  0  0
    6.0800  -20.9280  -40.2320 C   0  0  0  0  0  0  0  0  0  0  0  0
    6.1610  -19.7980  -39.2320 C   0  0  0  0  0  0  0  0  0  0  0  0
    5.0600  -20.0480  -38.1900 C   0  0  0  0  0  0  0  0  0  0  0  0
    3.8250  -19.8010  -38.8870 N   0  0  0  0  0  0  0  0  0  0  0  0
    3.6910  -20.4070  -40.1060 C   0  0  0  0  0  0  0  0  0  0  0  0
    2.4930  -20.0730  -40.6160 N   0  0  0  0  0  0  0  0  0  0  0  0
    1.8970  -19.2640  -39.7050 C   0  0  0  0  0  0  0  0  0  0  0  0
    2.7300  -19.0870  -38.6100 C   0  0  0  0  0  0  0  0  0  0  0  0
    2.3390  -18.2980  -37.5470 C   0  0  0  0  0  0  0  0  0  0  0  0
    3.1350  -18.1610  -36.5580 O   0  0  0  0  0  0  0  0  0  0  0  0
    1.1360  -17.6980  -37.5790 N   0  0  0  0  0  0  0  0  0  0  0  0
    0.3480  -17.8860  -38.6520 C   0  0  0  0  0  0  0  0  0  0  0  0
   -0.7710  -17.3060  -38.6400 O   0  0  0  0  0  0  0  0  0  0  0  0
    0.7050  -18.6430  -39.6890 N   0  0  0  0  0  0  0  0  0  0  0  0
   -0.1740  -18.8240  -40.8350 C   0  0  0  0  0  0  0  0  0  0  0  0
    0.7140  -16.8670  -36.4640 C   0  0  0  0  0  0  0  0  0  0  0  0
    1.0850  -15.4440  -36.7640 C   0  0  0  0  0  0  0  0  0  0  0  0
    1.0990  -15.0250  -37.9450 O   0  0  0  0  0  0  0  0  0  0  0  0
    1.4260  -14.5400  -35.7320 N   0  0  0  0  0  0  0  0  0  0  0  0
    2.2880  -24.6870  -42.4390 H   0  0  0  0  0  0  0  0  0  0  0  0
    2.5350  -22.8700  -40.8410 H   0  0  0  0  0  0  0  0  0  0  0  0
    6.4020  -22.0480  -42.4750 H   0  0  0  0  0  0  0  0  0  0  0  0
    6.1560  -23.8420  -44.0500 H   0  0  0  0  0  0  0  0  0  0  0  0
    6.5120  -21.8310  -39.7100 H   0  0  0  0  0  0  0  0  0  0  0  0
    6.7410  -20.7370  -41.1090 H   0  0  0  0  0  0  0  0  0  0  0  0
    5.9610  -18.8190  -39.7470 H   0  0  0  0  0  0  0  0  0  0  0  0
    7.1260  -19.8070  -38.7330 H   0  0  0  0  0  0  0  0  0  0  0  0
    5.1920  -19.4340  -37.2980 H   0  0  0  0  0  0  0  0  0  0  0  0
    5.1140  -21.1530  -37.9800 H   0  0  0  0  0  0  0  0  0  0  0  0
    0.3690  -19.2140  -41.6940 H   0  0  0  0  0  0  0  0  0  0  0  0
   -1.0670  -19.4020  -40.5430 H   0  0  0  0  0  0  0  0  0  0  0  0
   -0.5440  -17.7900  -41.0900 H   0  0  0  0  0  0  0  0  0  0  0  0
    1.1940  -17.2010  -35.5310 H   0  0  0  0  0  0  0  0  0  0  0  0
   -0.3800  -16.9250  -36.3780 H   0  0  0  0  0  0  0  0  0  0  0  0
    2.1690  -14.7440  -35.0250 H   0  0  0  0  0  0  0  0  0  0  0  0
    0.9400  -13.6140  -35.6350 H   0  0  0  0  0  0  0  0  0  0  0  0
  1  2  1  0  0  0  0
  2  7  2  0  0  0  0
  2  3  1  0  0  0  0
  3 28  1  0  0  0  0
  3  4  2  0  0  0  0
  4  5  1  0  0  0  0
  4 29  1  0  0  0  0
  5  8  1  0  0  0  0
  6  5  2  0  0  0  0
  7  6  1  0  0  0  0
  8  9  1  0  0  0  0
  8 13  1  0  0  0  0
  9 32  1  0  0  0  0
  9 10  1  0  0  0  0
 10 35  1  0  0  0  0
 10 11  1  0  0  0  0
 11 37  1  0  0  0  0
 11 36  1  0  0  0  0
 12 16  1  0  0  0  0
 12 11  1  0  0  0  0
 13 12  1  0  0  0  0
 14 13  2  0  0  0  0
 14 15  1  0  0  0  0
 15 22  1  0  0  0  0
 15 16  2  0  0  0  0
 16 17  1  0  0  0  0
 17 18  2  0  0  0  0
 19 17  1  0  0  0  0
 19 24  1  0  0  0  0
 20 21  2  0  0  0  0
 20 19  1  0  0  0  0
 22 20  1  0  0  0  0
 23 39  1  0  0  0  0
 23 22  1  0  0  0  0
 24 42  1  0  0  0  0
 24 41  1  0  0  0  0
 25 24  1  0  0  0  0
 25 27  1  0  0  0  0
 26 25  2  0  0  0  0
 27 44  1  0  0  0  0
 27 43  1  0  0  0  0
 30  6  1  0  0  0  0
 31  7  1  0  0  0  0
 33  9  1  0  0  0  0
 34 10  1  0  0  0  0
 38 23  1  0  0  0  0
 40 23  1  0  0  0  0
M  END
>  <Pose>
1

>  <Score>
-4.06

$$$$
