
 OpenBabel03232221553D

 47 51  0  0  1  0  0  0  0  0999 V2000
   -1.6100  -11.2190  -36.8920 B   0  0  0  0  0  0  0  0  0  0  0  0
   -0.6090  -12.8410  -36.6380 C   0  0  0  0  0  0  0  0  0  0  0  0
   -1.1800  -14.0690  -36.7870 C   0  0  0  0  0  0  0  0  0  0  0  0
   -0.4220  -15.2210  -36.5940 C   0  0  0  0  0  0  0  0  0  0  0  0
    0.9120  -15.1600  -36.2500 C   0  0  0  0  0  0  0  0  0  0  0  0
    1.4560  -13.9020  -36.1070 C   0  0  0  0  0  0  0  0  0  0  0  0
    0.7300  -12.7480  -36.2920 C   0  0  0  0  0  0  0  0  0  0  0  0
    1.6570  -16.3570  -36.0610 N   0  0  0  0  0  0  0  0  0  0  0  0
    2.0740  -16.8850  -34.9150 N   0  0  0  0  0  0  0  0  0  0  0  0
    2.7490  -18.0280  -35.1410 C   0  0  0  0  0  0  0  0  0  0  0  0
    3.3010  -18.8090  -34.2210 C   0  0  0  0  0  0  0  0  0  0  0  0
    2.7770  -18.2590  -36.5010 C   0  0  0  0  0  0  0  0  0  0  0  0
    3.3390  -19.2740  -37.1620 C   0  0  0  0  0  0  0  0  0  0  0  0
    3.2280  -19.2870  -38.5810 N   0  0  0  0  0  4  0  0  0  0  0  0
    4.0810  -20.0910  -39.4070 C   0  0  2  0  0  0  0  0  0  0  0  0
    3.7830  -19.8670  -40.8560 C   0  0  0  0  0  0  0  0  0  0  0  0
    4.7330  -20.6240  -41.6590 N   0  0  1  0  0  0  0  0  0  0  0  0
    6.0700  -20.1430  -41.3350 C   0  0  0  0  0  0  0  0  0  0  0  0
    6.4140  -20.4060  -39.9590 N   0  0  2  0  0  0  0  0  0  0  0  0
    6.2420  -21.8280  -39.6770 C   0  0  0  0  0  0  0  0  0  0  0  0
    4.8950  -22.2700  -39.9580 N   0  0  2  0  0  0  0  0  0  0  0  0
    4.6010  -22.0250  -41.3510 C   0  0  0  0  0  0  0  0  0  0  0  0
    3.9510  -21.5680  -39.1220 C   0  0  0  0  0  0  0  0  0  0  0  0
    5.5230  -19.6780  -39.0950 C   0  0  0  0  0  0  0  0  0  0  0  0
    2.0800  -17.1870  -37.0380 C   0  0  0  0  0  0  0  0  0  0  0  0
    1.8810  -17.0290  -38.2640 O   0  0  0  0  0  0  0  0  0  0  0  0
   -2.2190  -14.1390  -37.0560 H   0  0  0  0  0  0  0  0  0  0  0  0
   -0.8800  -16.1920  -36.7140 H   0  0  0  0  0  0  0  0  0  0  0  0
    2.4990  -13.8360  -35.8380 H   0  0  0  0  0  0  0  0  0  0  0  0
    1.1520  -11.7520  -36.1810 H   0  0  0  0  0  0  0  0  0  0  0  0
    1.9020  -16.4740  -33.9760 H   0  0  0  0  0  0  0  0  0  0  0  0
    3.2280  -18.5460  -33.1750 H   0  0  0  0  0  0  0  0  0  0  0  0
    3.8300  -19.7110  -34.4560 H   0  0  0  0  0  0  0  0  0  0  0  0
    3.8490  -20.0370  -36.6020 H   0  0  0  0  0  0  0  0  0  0  0  0
    2.5050  -18.6930  -39.0130 H   0  0  0  0  0  0  0  0  0  0  0  0
    3.8110  -18.7970  -41.0840 H   0  0  0  0  0  0  0  0  0  0  0  0
    2.7540  -20.2470  -41.0500 H   0  0  0  0  0  0  0  0  0  0  0  0
    6.0940  -19.0600  -41.5130 H   0  0  0  0  0  0  0  0  0  0  0  0
    6.8060  -20.6870  -41.9720 H   0  0  0  0  0  0  0  0  0  0  0  0
    6.5600  -22.0320  -38.6490 H   0  0  0  0  0  0  0  0  0  0  0  0
    6.9380  -22.3590  -40.3600 H   0  0  0  0  0  0  0  0  0  0  0  0
    3.5400  -22.3040  -41.5780 H   0  0  0  0  0  0  0  0  0  0  0  0
    5.2920  -22.5850  -42.0040 H   0  0  0  0  0  0  0  0  0  0  0  0
    2.9250  -21.9020  -39.3790 H   0  0  0  0  0  0  0  0  0  0  0  0
    4.1470  -21.8070  -38.0540 H   0  0  0  0  0  0  0  0  0  0  0  0
    5.5790  -18.5950  -39.3310 H   0  0  0  0  0  0  0  0  0  0  0  0
    5.7090  -19.9030  -38.0260 H   0  0  0  0  0  0  0  0  0  0  0  0
  1  2  1  0  0  0  0
  2  7  1  0  0  0  0
  3  2  2  0  0  0  0
  3  4  1  0  0  0  0
  4  5  2  0  0  0  0
  5  6  1  0  0  0  0
  5  8  1  0  0  0  0
  6 29  1  0  0  0  0
  7 30  1  0  0  0  0
  7  6  2  0  0  0  0
  8  9  1  0  0  0  0
  9 31  1  0  0  0  0
 10  9  1  0  0  0  0
 10 11  1  0  0  0  0
 11 32  1  0  0  0  0
 12 10  2  0  0  0  0
 13 34  1  0  0  0  0
 13 12  1  0  0  0  0
 14 13  2  0  0  0  0
 15 23  1  0  0  0  0
 15 24  1  0  0  0  0
 15 14  1  1  0  0  0
 16 15  1  0  0  0  0
 17 22  1  1  0  0  0
 17 18  1  0  0  0  0
 17 16  1  0  0  0  0
 19 18  1  6  0  0  0
 19 20  1  0  0  0  0
 19 24  1  0  0  0  0
 20 40  1  0  0  0  0
 21 22  1  6  0  0  0
 21 20  1  0  0  0  0
 21 23  1  0  0  0  0
 23 45  1  0  0  0  0
 24 47  1  0  0  0  0
 25 12  1  0  0  0  0
 25  8  1  0  0  0  0
 26 25  2  0  0  0  0
 27  3  1  0  0  0  0
 28  4  1  0  0  0  0
 33 11  1  0  0  0  0
 35 14  1  0  0  0  0
 36 16  1  0  0  0  0
 37 16  1  0  0  0  0
 38 18  1  0  0  0  0
 39 18  1  0  0  0  0
 41 20  1  0  0  0  0
 42 22  1  0  0  0  0
 43 22  1  0  0  0  0
 44 23  1  0  0  0  0
 46 24  1  0  0  0  0
M  END
>  <Pose>
1

>  <Score>
-4.19

$$$$
