
 OpenBabel03232221553D

 49 52  0  0  1  0  0  0  0  0999 V2000
    6.3950   -9.2980  -40.3740 B   0  0  0  0  0  0  0  0  0  0  0  0
    5.1910  -10.5920  -39.6220 C   0  0  0  0  0  0  0  0  0  0  0  0
    4.8540  -10.5160  -38.2890 C   0  0  0  0  0  0  0  0  0  0  0  0
    3.9780  -11.4580  -37.7430 C   0  0  0  0  0  0  0  0  0  0  0  0
    3.4440  -12.4610  -38.5170 C   0  0  0  0  0  0  0  0  0  0  0  0
    3.7920  -12.5190  -39.8440 C   0  0  0  0  0  0  0  0  0  0  0  0
    4.6530  -11.6000  -40.3960 C   0  0  0  0  0  0  0  0  0  0  0  0
    2.5810  -13.3850  -37.9690 O   0  0  0  0  0  0  0  0  0  0  0  0
    1.3030  -12.9840  -37.5690 C   0  0  0  0  0  0  0  0  0  0  0  0
    0.9410  -13.4560  -36.2200 C   0  0  0  0  0  0  0  0  0  0  0  0
    0.2100  -12.7600  -35.4930 O   0  0  0  0  0  0  0  0  0  0  0  0
    1.4240  -14.6980  -35.7620 N   0  0  0  0  0  0  0  0  0  0  0  0
    0.9280  -15.9440  -36.2460 C   0  0  0  0  0  0  0  0  0  0  0  0
    1.7010  -16.7660  -36.9800 N   0  0  0  0  0  0  0  0  0  0  0  0
    1.2080  -17.9170  -37.4090 C   0  0  0  0  0  0  0  0  0  0  0  0
    1.7710  -18.8870  -38.1410 N   0  0  0  0  0  0  0  0  0  0  0  0
    0.8180  -19.8350  -38.2850 C   0  0  0  0  0  0  0  0  0  0  0  0
   -0.3020  -19.4610  -37.6600 N   0  0  0  0  0  0  0  0  0  0  0  0
   -0.1110  -18.2670  -37.0960 C   0  0  0  0  0  0  0  0  0  0  0  0
   -0.9100  -17.4280  -36.3420 C   0  0  0  0  0  0  0  0  0  0  0  0
   -0.3590  -16.2800  -35.9380 N   0  0  0  0  0  0  0  0  0  0  0  0
   -2.2090  -17.8250  -36.0610 O   0  0  0  0  0  0  0  0  0  0  0  0
    3.0650  -19.0040  -38.6960 C   0  0  2  0  0  0  0  0  0  0  0  0
    3.0260  -19.4660  -40.0190 O   0  0  0  0  0  0  0  0  0  0  0  0
    3.2900  -20.8250  -39.8750 C   0  0  2  0  0  0  0  0  0  0  0  0
    4.5470  -20.7680  -39.0190 C   0  0  1  0  0  0  0  0  0  0  0  0
    4.0610  -19.7890  -37.9530 C   0  0  1  0  0  0  0  0  0  0  0  0
    5.1390  -18.9930  -37.5060 O   0  0  0  0  0  0  0  0  0  0  0  0
    4.9220  -21.9810  -38.5140 O   0  0  0  0  0  0  0  0  0  0  0  0
    3.5310  -21.5070  -41.1910 C   0  0  0  0  0  0  0  0  0  0  0  0
    3.6450  -22.8670  -41.0990 O   0  0  0  0  0  0  0  0  0  0  0  0
    5.2750   -9.7290  -37.6910 H   0  0  0  0  0  0  0  0  0  0  0  0
    3.7620  -11.3360  -36.6950 H   0  0  0  0  0  0  0  0  0  0  0  0
    3.4100  -13.2870  -40.5230 H   0  0  0  0  0  0  0  0  0  0  0  0
    4.9430  -11.6250  -41.4410 H   0  0  0  0  0  0  0  0  0  0  0  0
    0.5690  -13.4560  -38.2790 H   0  0  0  0  0  0  0  0  0  0  0  0
    1.1400  -11.8920  -37.6770 H   0  0  0  0  0  0  0  0  0  0  0  0
    2.1870  -14.7370  -35.0260 H   0  0  0  0  0  0  0  0  0  0  0  0
    0.9140  -20.7850  -38.8300 H   0  0  0  0  0  0  0  0  0  0  0  0
   -2.3250  -18.3970  -35.2170 H   0  0  0  0  0  0  0  0  0  0  0  0
    3.4860  -17.9570  -38.8060 H   0  0  0  0  0  0  0  0  0  0  0  0
    2.5290  -21.3460  -39.2620 H   0  0  0  0  0  0  0  0  0  0  0  0
    5.3650  -20.2660  -39.5770 H   0  0  0  0  0  0  0  0  0  0  0  0
    3.7320  -20.3600  -37.1020 H   0  0  0  0  0  0  0  0  0  0  0  0
    5.1550  -19.1010  -36.5220 H   0  0  0  0  0  0  0  0  0  0  0  0
    4.2580  -22.7170  -38.7100 H   0  0  0  0  0  0  0  0  0  0  0  0
    4.3970  -21.0040  -41.6660 H   0  0  0  0  0  0  0  0  0  0  0  0
    2.6520  -21.2690  -41.8410 H   0  0  0  0  0  0  0  0  0  0  0  0
    3.9440  -23.0970  -40.1810 H   0  0  0  0  0  0  0  0  0  0  0  0
  1  2  1  0  0  0  0
  2  3  1  0  0  0  0
  3  4  2  0  0  0  0
  3 32  1  0  0  0  0
  4 33  1  0  0  0  0
  5  8  1  0  0  0  0
  5  4  1  0  0  0  0
  6  5  2  0  0  0  0
  7  6  1  0  0  0  0
  7  2  2  0  0  0  0
  8  9  1  0  0  0  0
  9 10  1  0  0  0  0
 10 12  1  0  0  0  0
 10 11  2  0  0  0  0
 12 38  1  0  0  0  0
 13 21  1  0  0  0  0
 13 12  1  0  0  0  0
 14 13  2  0  0  0  0
 15 19  2  0  0  0  0
 15 14  1  0  0  0  0
 16 15  1  0  0  0  0
 17 16  1  0  0  0  0
 17 18  2  0  0  0  0
 18 19  1  0  0  0  0
 19 20  1  0  0  0  0
 20 22  1  0  0  0  0
 20 21  2  0  0  0  0
 22 40  1  0  0  0  0
 23 41  1  6  0  0  0
 23 16  1  0  0  0  0
 23 27  1  0  0  0  0
 24 25  1  0  0  0  0
 24 23  1  0  0  0  0
 25 42  1  1  0  0  0
 25 26  1  0  0  0  0
 26 43  1  6  0  0  0
 26 29  1  0  0  0  0
 26 27  1  0  0  0  0
 27 28  1  0  0  0  0
 27 44  1  1  0  0  0
 28 45  1  0  0  0  0
 30 31  1  0  0  0  0
 30 25  1  0  0  0  0
 31 49  1  0  0  0  0
 34  6  1  0  0  0  0
 35  7  1  0  0  0  0
 36  9  1  0  0  0  0
 37  9  1  0  0  0  0
 39 17  1  0  0  0  0
 46 29  1  0  0  0  0
 47 30  1  0  0  0  0
 48 30  1  0  0  0  0
M  END
>  <Pose>
1

>  <Score>
-6.41

$$$$
