
 OpenBabel03232221553D

 39 43  0  0  1  0  0  0  0  0999 V2000
    2.8020  -24.3320  -42.6860 B   0  0  0  0  0  0  0  0  0  0  0  0
    4.6860  -24.1460  -42.9620 C   0  0  0  0  0  0  0  0  0  0  0  0
    5.4500  -25.2400  -43.3240 C   0  0  0  0  0  0  0  0  0  0  0  0
    6.8110  -25.1230  -43.5210 C   0  0  0  0  0  0  0  0  0  0  0  0
    7.5120  -23.9500  -43.3730 C   0  0  0  0  0  0  0  0  0  0  0  0
    6.7510  -22.8710  -43.0130 C   0  0  0  0  0  0  0  0  0  0  0  0
    5.3710  -22.9300  -42.8030 C   0  0  0  0  0  0  0  0  0  0  0  0
    4.6170  -21.7920  -42.2760 C   0  0  0  0  0  0  0  0  0  0  0  0
    4.9040  -21.2770  -41.0030 N   0  0  2  0  0  4  0  0  0  0  0  0
    3.5230  -20.8960  -40.5350 C   0  0  0  0  0  0  0  0  0  0  0  0
    3.4950  -20.0730  -39.4020 N   0  0  2  0  0  0  0  0  0  0  0  0
    4.2790  -18.8890  -39.7060 C   0  0  0  0  0  0  0  0  0  0  0  0
    5.6430  -19.3180  -39.8950 N   0  0  2  0  0  0  0  0  0  0  0  0
    5.7800  -20.1090  -41.0750 C   0  0  0  0  0  0  0  0  0  0  0  0
    6.1830  -20.0800  -38.7630 C   0  0  0  0  0  0  0  0  0  0  0  0
    5.3930  -21.2960  -38.6560 N   0  0  2  0  0  0  0  0  0  0  0  0
    5.4090  -22.0630  -39.9200 C   0  0  0  0  0  0  0  0  0  0  0  0
    4.0600  -20.8690  -38.3060 C   0  0  0  0  0  0  0  0  0  0  0  0
    8.8300  -24.2790  -43.6480 O   0  0  0  0  0  0  0  0  0  0  0  0
    9.0110  -25.6840  -43.3200 C   0  0  0  0  0  0  0  0  0  0  0  0
    7.7460  -26.1370  -43.8900 O   0  0  0  0  0  0  0  0  0  0  0  0
    4.8920  -26.1410  -43.4120 H   0  0  0  0  0  0  0  0  0  0  0  0
    7.2950  -21.8900  -42.8860 H   0  0  0  0  0  0  0  0  0  0  0  0
    3.5130  -22.1550  -42.1900 H   0  0  0  0  0  0  0  0  0  0  0  0
    4.5410  -21.0580  -43.1180 H   0  0  0  0  0  0  0  0  0  0  0  0
    3.0990  -21.9160  -40.2830 H   0  0  0  0  0  0  0  0  0  0  0  0
    2.9250  -20.5110  -41.3530 H   0  0  0  0  0  0  0  0  0  0  0  0
    4.1850  -18.0710  -38.9860 H   0  0  0  0  0  0  0  0  0  0  0  0
    3.9140  -18.5630  -40.7260 H   0  0  0  0  0  0  0  0  0  0  0  0
    5.6550  -19.4810  -41.9320 H   0  0  0  0  0  0  0  0  0  0  0  0
    6.8150  -20.5720  -41.0120 H   0  0  0  0  0  0  0  0  0  0  0  0
    7.2390  -20.2240  -38.9410 H   0  0  0  0  0  0  0  0  0  0  0  0
    5.9460  -19.4790  -37.8640 H   0  0  0  0  0  0  0  0  0  0  0  0
    4.8540  -23.0090  -39.7090 H   0  0  0  0  0  0  0  0  0  0  0  0
    6.4920  -22.3010  -40.1100 H   0  0  0  0  0  0  0  0  0  0  0  0
    3.3750  -21.6770  -38.1020 H   0  0  0  0  0  0  0  0  0  0  0  0
    4.1880  -20.1570  -37.4610 H   0  0  0  0  0  0  0  0  0  0  0  0
    8.8390  -25.8800  -42.2220 H   0  0  0  0  0  0  0  0  0  0  0  0
    9.8700  -26.1280  -43.7690 H   0  0  0  0  0  0  0  0  0  0  0  0
  2  7  1  0  0  0  0
  2  1  1  0  0  0  0
  3  2  2  0  0  0  0
  4  5  2  0  0  0  0
  4  3  1  0  0  0  0
  5  6  1  0  0  0  0
  6 23  1  0  0  0  0
  6  7  2  0  0  0  0
  7  8  1  0  0  0  0
  8 24  1  0  0  0  0
  9  8  1  6  0  0  0
  9 10  1  0  0  0  0
  9 17  1  0  0  0  0
 10 26  1  0  0  0  0
 11 10  1  6  0  0  0
 11 18  1  0  0  0  0
 12 11  1  0  0  0  0
 12 28  1  0  0  0  0
 13 14  1  6  0  0  0
 13 12  1  0  0  0  0
 13 15  1  0  0  0  0
 14 31  1  0  0  0  0
 14  9  1  0  0  0  0
 15 16  1  0  0  0  0
 15 33  1  0  0  0  0
 16 17  1  6  0  0  0
 16 18  1  0  0  0  0
 17 34  1  0  0  0  0
 18 36  1  0  0  0  0
 18 37  1  0  0  0  0
 19  5  1  0  0  0  0
 19 20  1  0  0  0  0
 20 38  1  0  0  0  0
 21  4  1  0  0  0  0
 21 20  1  0  0  0  0
 22  3  1  0  0  0  0
 25  8  1  0  0  0  0
 27 10  1  0  0  0  0
 29 12  1  0  0  0  0
 30 14  1  0  0  0  0
 32 15  1  0  0  0  0
 35 17  1  0  0  0  0
 39 20  1  0  0  0  0
M  END
>  <Pose>
1

>  <Score>
-3.75

$$$$
