
 OpenBabel03232221553D

 49 52  0  0  0  0  0  0  0  0999 V2000
    6.7850  -20.2650  -38.4040 B   0  0  0  0  0  0  0  0  0  0  0  0
    5.0220  -19.6760  -38.8460 C   0  0  0  0  0  0  0  0  0  0  0  0
    4.1140  -19.3880  -37.8540 C   0  0  0  0  0  0  0  0  0  0  0  0
    2.8440  -18.9630  -38.1550 C   0  0  0  0  0  0  0  0  0  0  0  0
    2.5080  -18.8340  -39.4730 C   0  0  0  0  0  0  0  0  0  0  0  0
    3.4310  -19.1280  -40.4760 C   0  0  0  0  0  0  0  0  0  0  0  0
    4.7130  -19.5560  -40.2000 C   0  0  0  0  0  0  0  0  0  0  0  0
    5.7220  -19.8520  -41.2470 C   0  0  0  0  0  0  0  0  0  0  0  0
    5.3080  -20.9930  -42.0410 N   0  0  0  0  0  0  0  0  0  0  0  0
    4.6780  -20.5140  -43.2990 C   0  0  0  0  0  0  0  0  0  0  0  0
    4.1000  -21.7890  -43.9050 C   0  0  0  0  0  0  0  0  0  0  0  0
    4.5480  -22.9770  -43.2770 N   0  0  0  0  0  0  0  0  0  0  0  0
    5.9770  -23.0220  -43.1060 C   0  0  0  0  0  0  0  0  0  0  0  0
    6.4740  -21.7250  -42.5380 C   0  0  0  0  0  0  0  0  0  0  0  0
    3.7800  -23.4960  -42.2090 C   0  0  0  0  0  0  0  0  0  0  0  0
    2.7170  -24.4170  -42.5650 C   0  0  0  0  0  0  0  0  0  0  0  0
    2.4460  -24.6590  -43.7610 O   0  0  0  0  0  0  0  0  0  0  0  0
    1.9550  -25.0690  -41.5690 N   0  0  0  0  0  0  0  0  0  0  0  0
    0.6510  -25.6600  -41.8410 C   0  0  0  0  0  0  0  0  0  0  0  0
   -0.5430  -25.2090  -41.1090 C   0  0  0  0  0  0  0  0  0  0  0  0
    0.0850  -26.5080  -40.7050 C   0  0  0  0  0  0  0  0  0  0  0  0
    1.2310  -18.4070  -39.7990 O   0  0  0  0  0  0  0  0  0  0  0  0
    0.1730  -18.3450  -38.8780 C   0  0  0  0  0  0  0  0  0  0  0  0
    0.6680  -18.0620  -37.4950 C   0  0  0  0  0  0  0  0  0  0  0  0
    1.9000  -18.6610  -37.1830 O   0  0  0  0  0  0  0  0  0  0  0  0
    4.3620  -19.4830  -36.7950 H   0  0  0  0  0  0  0  0  0  0  0  0
    3.0880  -18.9890  -41.4710 H   0  0  0  0  0  0  0  0  0  0  0  0
    6.7300  -19.9970  -40.8420 H   0  0  0  0  0  0  0  0  0  0  0  0
    5.7480  -18.9710  -41.9340 H   0  0  0  0  0  0  0  0  0  0  0  0
    3.9340  -19.7420  -43.1180 H   0  0  0  0  0  0  0  0  0  0  0  0
    5.5070  -20.1080  -43.9150 H   0  0  0  0  0  0  0  0  0  0  0  0
    4.4730  -21.8080  -44.9720 H   0  0  0  0  0  0  0  0  0  0  0  0
    2.9990  -21.7220  -44.0030 H   0  0  0  0  0  0  0  0  0  0  0  0
    6.4630  -23.2720  -44.0810 H   0  0  0  0  0  0  0  0  0  0  0  0
    6.2560  -23.8910  -42.4410 H   0  0  0  0  0  0  0  0  0  0  0  0
    7.3060  -21.7850  -41.8470 H   0  0  0  0  0  0  0  0  0  0  0  0
    6.8870  -21.1490  -43.4260 H   0  0  0  0  0  0  0  0  0  0  0  0
    4.4400  -23.9720  -41.4460 H   0  0  0  0  0  0  0  0  0  0  0  0
    3.3110  -22.6330  -41.6560 H   0  0  0  0  0  0  0  0  0  0  0  0
    2.2920  -25.1660  -40.5670 H   0  0  0  0  0  0  0  0  0  0  0  0
    0.5510  -26.0310  -42.8650 H   0  0  0  0  0  0  0  0  0  0  0  0
   -0.5080  -24.4030  -40.3370 H   0  0  0  0  0  0  0  0  0  0  0  0
   -1.5280  -25.2850  -41.6110 H   0  0  0  0  0  0  0  0  0  0  0  0
    0.6520  -26.5190  -39.7550 H   0  0  0  0  0  0  0  0  0  0  0  0
   -0.3650  -27.4570  -41.0600 H   0  0  0  0  0  0  0  0  0  0  0  0
   -0.4150  -19.2740  -38.9570 H   0  0  0  0  0  0  0  0  0  0  0  0
   -0.4610  -17.4660  -39.1850 H   0  0  0  0  0  0  0  0  0  0  0  0
    0.7640  -16.9490  -37.3620 H   0  0  0  0  0  0  0  0  0  0  0  0
   -0.0780  -18.4770  -36.7780 H   0  0  0  0  0  0  0  0  0  0  0  0
  2  1  1  0  0  0  0
  2  3  1  0  0  0  0
  3 26  1  0  0  0  0
  4  3  2  0  0  0  0
  4 25  1  0  0  0  0
  5  4  1  0  0  0  0
  6  7  1  0  0  0  0
  6  5  2  0  0  0  0
  7  2  2  0  0  0  0
  8 28  1  0  0  0  0
  8  7  1  0  0  0  0
  9  8  1  0  0  0  0
 10 30  1  0  0  0  0
 10  9  1  0  0  0  0
 11 10  1  0  0  0  0
 11 12  1  0  0  0  0
 12 13  1  0  0  0  0
 12 15  1  0  0  0  0
 13 14  1  0  0  0  0
 13 35  1  0  0  0  0
 14  9  1  0  0  0  0
 14 36  1  0  0  0  0
 15 39  1  0  0  0  0
 15 38  1  0  0  0  0
 16 15  1  0  0  0  0
 16 18  1  0  0  0  0
 17 16  2  0  0  0  0
 18 40  1  0  0  0  0
 19 18  1  0  0  0  0
 19 20  1  0  0  0  0
 19 21  1  0  0  0  0
 20 21  1  0  0  0  0
 20 42  1  0  0  0  0
 21 44  1  0  0  0  0
 22  5  1  0  0  0  0
 22 23  1  0  0  0  0
 23 24  1  0  0  0  0
 24 48  1  0  0  0  0
 24 25  1  0  0  0  0
 24 49  1  0  0  0  0
 27  6  1  0  0  0  0
 29  8  1  0  0  0  0
 31 10  1  0  0  0  0
 32 11  1  0  0  0  0
 33 11  1  0  0  0  0
 34 13  1  0  0  0  0
 37 14  1  0  0  0  0
 41 19  1  0  0  0  0
 43 20  1  0  0  0  0
 45 21  1  0  0  0  0
 46 23  1  0  0  0  0
 47 23  1  0  0  0  0
M  END
>  <Pose>
1

>  <Score>
-3.89

$$$$
