
 OpenBabel03232221553D

 44 47  0  0  1  0  0  0  0  0999 V2000
    6.6810  -19.4610  -38.0590 B   0  0  0  0  0  0  0  0  0  0  0  0
    4.9110  -19.5470  -38.7270 C   0  0  0  0  0  0  0  0  0  0  0  0
    3.8520  -19.7600  -37.8640 C   0  0  0  0  0  0  0  0  0  0  0  0
    2.5310  -19.8320  -38.3110 C   0  0  0  0  0  0  0  0  0  0  0  0
    2.3010  -19.6800  -39.6760 C   0  0  0  0  0  0  0  0  0  0  0  0
    3.3730  -19.4690  -40.5180 C   0  0  0  0  0  0  0  0  0  0  0  0
    4.6930  -19.3960  -40.0790 C   0  0  0  0  0  0  0  0  0  0  0  0
    5.7810  -19.1770  -41.0110 C   0  0  0  0  0  0  0  0  0  0  0  0
    5.6340  -19.3410  -42.2560 N   0  0  0  0  0  0  0  0  0  0  0  0
    6.5690  -19.1740  -43.2590 N   0  0  0  0  0  0  0  0  0  0  0  0
    7.6680  -20.0440  -43.4290 C   0  0  1  0  0  0  0  0  0  0  0  0
    7.4030  -21.3600  -43.3790 N   0  0  0  0  0  0  0  0  0  0  0  0
    8.3600  -22.3100  -43.5580 C   0  0  0  0  0  0  0  0  0  0  0  0
    9.5920  -21.8580  -43.7870 N   0  0  0  0  0  0  0  0  0  0  0  0
    9.9200  -20.5700  -43.8490 C   0  0  0  0  0  0  0  0  0  0  0  0
    8.9210  -19.6560  -43.6620 N   0  0  0  0  0  0  0  0  0  0  0  0
   11.2120  -20.1320  -44.0890 O   0  0  0  0  0  0  0  0  0  0  0  0
   12.0220  -19.6790  -43.0370 C   0  0  0  0  0  0  0  0  0  0  0  0
    8.0010  -23.6570  -43.4800 N   0  0  0  0  0  0  0  0  0  0  0  0
    6.6430  -24.0870  -43.7100 C   0  0  0  0  0  0  0  0  0  0  0  0
    6.5790  -25.5780  -43.9700 C   0  0  0  0  0  0  0  0  0  0  0  0
    7.6390  -26.1080  -44.6290 O   0  0  0  0  0  0  0  0  0  0  0  0
    8.8890  -25.6470  -44.3570 C   0  0  0  0  0  0  0  0  0  0  0  0
    8.9770  -24.6760  -43.1840 C   0  0  0  0  0  0  0  0  0  0  0  0
    0.9410  -19.7910  -39.8570 O   0  0  0  0  0  0  0  0  0  0  0  0
    0.3000  -20.1930  -38.6630 C   0  0  0  0  0  0  0  0  0  0  0  0
    1.3060  -20.0310  -37.6970 O   0  0  0  0  0  0  0  0  0  0  0  0
    4.0410  -19.8780  -36.7880 H   0  0  0  0  0  0  0  0  0  0  0  0
    3.1340  -19.3550  -41.5880 H   0  0  0  0  0  0  0  0  0  0  0  0
    6.7390  -18.8700  -40.6400 H   0  0  0  0  0  0  0  0  0  0  0  0
    6.4590  -18.3730  -43.9170 H   0  0  0  0  0  0  0  0  0  0  0  0
   12.0750  -18.5600  -43.1190 H   0  0  0  0  0  0  0  0  0  0  0  0
   13.0800  -20.0310  -43.1380 H   0  0  0  0  0  0  0  0  0  0  0  0
   11.6490  -20.0250  -42.0510 H   0  0  0  0  0  0  0  0  0  0  0  0
    6.0970  -23.5230  -44.4760 H   0  0  0  0  0  0  0  0  0  0  0  0
    6.0820  -23.9230  -42.7370 H   0  0  0  0  0  0  0  0  0  0  0  0
    6.3790  -26.1680  -43.0290 H   0  0  0  0  0  0  0  0  0  0  0  0
    5.6550  -25.7420  -44.6010 H   0  0  0  0  0  0  0  0  0  0  0  0
    9.6520  -26.4590  -44.2780 H   0  0  0  0  0  0  0  0  0  0  0  0
    9.2090  -25.0280  -45.2490 H   0  0  0  0  0  0  0  0  0  0  0  0
    8.5980  -25.2020  -42.2710 H   0  0  0  0  0  0  0  0  0  0  0  0
   10.0030  -24.3340  -43.0880 H   0  0  0  0  0  0  0  0  0  0  0  0
   -0.1100  -21.2220  -38.7060 H   0  0  0  0  0  0  0  0  0  0  0  0
   -0.5060  -19.4440  -38.4760 H   0  0  0  0  0  0  0  0  0  0  0  0
  2  1  1  0  0  0  0
  2  3  1  0  0  0  0
  3 28  1  0  0  0  0
  4  3  2  0  0  0  0
  4 27  1  0  0  0  0
  5  4  1  0  0  0  0
  6  7  1  0  0  0  0
  6  5  2  0  0  0  0
  7  2  2  0  0  0  0
  8 30  1  0  0  0  0
  8  7  1  0  0  0  0
  9  8  2  0  0  0  0
 10  9  1  0  0  0  0
 11 12  1  0  0  0  0
 11 10  1  6  0  0  0
 13 19  1  0  0  0  0
 13 12  2  0  0  0  0
 14 13  1  0  0  0  0
 15 14  2  0  0  0  0
 15 16  2  0  0  0  0
 16 11  1  0  0  0  0
 17 15  1  0  0  0  0
 17 18  1  0  0  0  0
 18 34  1  0  0  0  0
 19 24  1  0  0  0  0
 20 19  1  0  0  0  0
 20 36  1  0  0  0  0
 21 20  1  0  0  0  0
 21 37  1  0  0  0  0
 22 23  1  0  0  0  0
 22 21  1  0  0  0  0
 23 39  1  0  0  0  0
 23 24  1  0  0  0  0
 24 42  1  0  0  0  0
 24 41  1  0  0  0  0
 25  5  1  0  0  0  0
 25 26  1  0  0  0  0
 26 44  1  0  0  0  0
 26 27  1  0  0  0  0
 29  6  1  0  0  0  0
 31 10  1  0  0  0  0
 32 18  1  0  0  0  0
 33 18  1  0  0  0  0
 35 20  1  0  0  0  0
 38 21  1  0  0  0  0
 40 23  1  0  0  0  0
 43 26  1  0  0  0  0
M  END
>  <Pose>
1

>  <Score>
-4.43

$$$$
