
 OpenBabel03232221553D

 53 57  0  0  1  0  0  0  0  0999 V2000
    1.5410  -25.0430  -42.4020 B   0  0  0  0  0  0  0  0  0  0  0  0
    3.2030  -24.7830  -43.2800 C   0  0  0  0  0  0  0  0  0  0  0  0
    3.4620  -25.3290  -44.5150 C   0  0  0  0  0  0  0  0  0  0  0  0
    4.6490  -25.1490  -45.1540 C   0  0  0  0  0  0  0  0  0  0  0  0
    5.6340  -24.3970  -44.5530 C   0  0  0  0  0  0  0  0  0  0  0  0
    5.3930  -23.8310  -43.2950 C   0  0  0  0  0  0  0  0  0  0  0  0
    4.1860  -24.0130  -42.6420 C   0  0  0  0  0  0  0  0  0  0  0  0
    3.8810  -23.4700  -41.3710 N   0  0  0  0  0  0  0  0  0  0  0  0
    4.0180  -22.1150  -41.0070 C   0  0  0  0  0  0  0  0  0  0  0  0
    3.8980  -21.1420  -41.7700 O   0  0  0  0  0  0  0  0  0  0  0  0
    4.3410  -21.8100  -39.5610 C   0  0  0  0  0  0  0  0  0  0  0  0
    3.4990  -20.7580  -39.0400 N   0  0  0  0  0  0  0  0  0  0  0  0
    2.9890  -19.8680  -39.9710 C   0  0  0  0  0  0  0  0  0  0  0  0
    2.7050  -18.4650  -39.5970 C   0  0  0  0  0  0  0  0  0  0  0  0
    2.6170  -18.3720  -38.1680 N   0  0  0  0  0  0  0  0  0  0  0  0
    3.7750  -18.8780  -37.4730 C   0  0  0  0  0  0  0  0  0  0  0  0
    3.8090  -20.3630  -37.7220 C   0  0  0  0  0  0  0  0  0  0  0  0
    1.5420  -17.8540  -37.4270 C   0  0  1  0  0  0  0  0  0  0  0  0
    1.6410  -16.7840  -36.5980 N   0  0  0  0  0  0  0  0  0  0  0  0
    0.5920  -16.3100  -35.9020 C   0  0  0  0  0  0  0  0  0  0  0  0
   -0.6210  -16.8830  -35.9990 N   0  0  0  0  0  0  0  0  0  0  0  0
   -0.8130  -17.9510  -36.7990 C   0  0  0  0  0  0  0  0  0  0  0  0
   -1.8990  -18.7140  -37.0860 N   0  0  0  0  0  0  0  0  0  0  0  0
   -1.4890  -19.6300  -37.9440 N   0  0  0  0  0  0  0  0  0  0  0  0
   -0.1920  -19.5000  -38.2280 C   0  0  0  0  0  0  0  0  0  0  0  0
    0.2670  -18.4230  -37.5020 C   0  0  0  0  0  0  0  0  0  0  0  0
   -3.2430  -18.5310  -36.5350 C   0  0  0  0  0  0  0  0  0  0  0  0
    6.8230  -24.2280  -45.2160 O   0  0  0  0  0  0  0  0  0  0  0  0
    7.3150  -25.1120  -46.1930 C   0  0  0  0  0  0  0  0  0  0  0  0
    6.2980  -26.1020  -46.6630 C   0  0  0  0  0  0  0  0  0  0  0  0
    4.9520  -25.6810  -46.4000 O   0  0  0  0  0  0  0  0  0  0  0  0
    2.6930  -25.9210  -44.9970 H   0  0  0  0  0  0  0  0  0  0  0  0
    6.1790  -23.2540  -42.8600 H   0  0  0  0  0  0  0  0  0  0  0  0
    3.5150  -24.1420  -40.6250 H   0  0  0  0  0  0  0  0  0  0  0  0
    4.1350  -22.7480  -39.0130 H   0  0  0  0  0  0  0  0  0  0  0  0
    5.4220  -21.5850  -39.4750 H   0  0  0  0  0  0  0  0  0  0  0  0
    3.6800  -19.8390  -40.8670 H   0  0  0  0  0  0  0  0  0  0  0  0
    2.0450  -20.3070  -40.4180 H   0  0  0  0  0  0  0  0  0  0  0  0
    3.5000  -17.7620  -39.9480 H   0  0  0  0  0  0  0  0  0  0  0  0
    1.7860  -18.1210  -40.1130 H   0  0  0  0  0  0  0  0  0  0  0  0
    3.7630  -18.6540  -36.4050 H   0  0  0  0  0  0  0  0  0  0  0  0
    4.7170  -18.4630  -37.9200 H   0  0  0  0  0  0  0  0  0  0  0  0
    3.1390  -20.8870  -37.0090 H   0  0  0  0  0  0  0  0  0  0  0  0
    4.8410  -20.7030  -37.4820 H   0  0  0  0  0  0  0  0  0  0  0  0
    0.7890  -15.4490  -35.2700 H   0  0  0  0  0  0  0  0  0  0  0  0
    0.4490  -20.0750  -38.8830 H   0  0  0  0  0  0  0  0  0  0  0  0
   -4.0260  -18.5990  -37.3120 H   0  0  0  0  0  0  0  0  0  0  0  0
   -3.4810  -19.3070  -35.7730 H   0  0  0  0  0  0  0  0  0  0  0  0
   -3.2630  -17.5540  -36.0040 H   0  0  0  0  0  0  0  0  0  0  0  0
    7.7380  -24.5090  -47.0420 H   0  0  0  0  0  0  0  0  0  0  0  0
    8.1790  -25.6760  -45.7370 H   0  0  0  0  0  0  0  0  0  0  0  0
    6.4300  -27.0570  -46.0800 H   0  0  0  0  0  0  0  0  0  0  0  0
    6.4210  -26.3720  -47.7190 H   0  0  0  0  0  0  0  0  0  0  0  0
  2  7  1  0  0  0  0
  2  1  1  0  0  0  0
  3  2  2  0  0  0  0
  4  5  2  0  0  0  0
  4  3  1  0  0  0  0
  5  6  1  0  0  0  0
  6 33  1  0  0  0  0
  6  7  2  0  0  0  0
  7  8  1  0  0  0  0
  8  9  1  0  0  0  0
  8 34  1  0  0  0  0
  9 11  1  0  0  0  0
 10  9  2  0  0  0  0
 11 36  1  0  0  0  0
 11 12  1  0  0  0  0
 11 35  1  0  0  0  0
 12 17  1  0  0  0  0
 13 14  1  0  0  0  0
 13 12  1  0  0  0  0
 14 15  1  0  0  0  0
 15 16  1  0  0  0  0
 16 41  1  0  0  0  0
 17 44  1  0  0  0  0
 17 16  1  0  0  0  0
 17 43  1  0  0  0  0
 18 15  1  6  0  0  0
 18 19  1  0  0  0  0
 19 20  2  0  0  0  0
 20 45  1  0  0  0  0
 21 20  1  0  0  0  0
 22 21  1  0  0  0  0
 23 22  1  0  0  0  0
 23 27  1  0  0  0  0
 24 23  1  0  0  0  0
 25 24  2  0  0  0  0
 25 26  1  0  0  0  0
 26 18  1  0  0  0  0
 26 22  2  0  0  0  0
 27 49  1  0  0  0  0
 27 48  1  0  0  0  0
 28  5  1  0  0  0  0
 29 51  1  0  0  0  0
 29 28  1  0  0  0  0
 30 31  1  0  0  0  0
 30 29  1  0  0  0  0
 30 52  1  0  0  0  0
 31  4  1  0  0  0  0
 32  3  1  0  0  0  0
 37 13  1  0  0  0  0
 38 13  1  0  0  0  0
 39 14  1  0  0  0  0
 40 14  1  0  0  0  0
 42 16  1  0  0  0  0
 46 25  1  0  0  0  0
 47 27  1  0  0  0  0
 50 29  1  0  0  0  0
 53 30  1  0  0  0  0
M  END
>  <Pose>
1

>  <Score>
-4.60

$$$$
