
 OpenBabel03232221553D

 44 47  0  0  0  0  0  0  0  0999 V2000
   -1.3700   -9.7420  -34.9090 B   0  0  0  0  0  0  0  0  0  0  0  0
   -1.5780  -11.4740  -35.6800 C   0  0  0  0  0  0  0  0  0  0  0  0
   -0.4690  -12.1930  -36.0940 C   0  0  0  0  0  0  0  0  0  0  0  0
   -0.5890  -13.4550  -36.6580 C   0  0  0  0  0  0  0  0  0  0  0  0
   -1.8740  -13.9480  -36.7790 C   0  0  0  0  0  0  0  0  0  0  0  0
   -2.9900  -13.2570  -36.3770 C   0  0  0  0  0  0  0  0  0  0  0  0
   -2.8440  -12.0090  -35.8210 C   0  0  0  0  0  0  0  0  0  0  0  0
   -1.9990  -15.2060  -37.3410 C   0  0  0  0  0  0  0  0  0  0  0  0
   -3.1570  -15.7200  -37.4820 O   0  0  0  0  0  0  0  0  0  0  0  0
   -0.8610  -15.8760  -37.7360 C   0  0  0  0  0  0  0  0  0  0  0  0
    0.3940  -15.3310  -37.5870 C   0  0  0  0  0  0  0  0  0  0  0  0
    0.4580  -14.1380  -37.0510 O   0  0  0  0  0  0  0  0  0  0  0  0
    1.5760  -16.0840  -38.0240 C   0  0  0  0  0  0  0  0  0  0  0  0
    2.2750  -15.5980  -38.9600 O   0  0  0  0  0  0  0  0  0  0  0  0
    1.9550  -17.3120  -37.4450 N   0  0  0  0  0  0  0  0  0  0  0  0
    1.0620  -18.4380  -37.5540 C   0  0  0  0  0  0  0  0  0  0  0  0
    1.7230  -19.6560  -38.1620 C   0  0  0  0  0  0  0  0  0  0  0  0
    3.0970  -19.6400  -37.8200 N   0  0  0  0  0  0  0  0  0  0  0  0
    3.3430  -19.0630  -36.5570 C   0  0  0  0  0  0  0  0  0  0  0  0
    3.1910  -17.5410  -36.7380 C   0  0  0  0  0  0  0  0  0  0  0  0
    4.0150  -19.3760  -38.8530 C   0  0  0  0  0  0  0  0  0  0  0  0
    5.4250  -19.4920  -38.4930 C   0  0  0  0  0  0  0  0  0  0  0  0
    6.1500  -18.5530  -37.8640 N   0  0  0  0  0  0  0  0  0  0  0  0
    7.3390  -19.0180  -37.7230 O   0  0  0  0  0  0  0  0  0  0  0  0
    7.4440  -20.2220  -38.2270 N   0  0  0  0  0  0  0  0  0  0  0  0
    6.2390  -20.5660  -38.7320 C   0  0  0  0  0  0  0  0  0  0  0  0
    5.8810  -21.8490  -39.4070 C   0  0  0  0  0  0  0  0  0  0  0  0
    0.5050  -11.7600  -35.9750 H   0  0  0  0  0  0  0  0  0  0  0  0
   -3.9650  -13.7070  -36.5030 H   0  0  0  0  0  0  0  0  0  0  0  0
   -3.7230  -11.4490  -35.4970 H   0  0  0  0  0  0  0  0  0  0  0  0
   -0.9750  -16.8640  -38.1750 H   0  0  0  0  0  0  0  0  0  0  0  0
    0.1310  -18.1650  -38.1210 H   0  0  0  0  0  0  0  0  0  0  0  0
    0.7180  -18.7260  -36.5160 H   0  0  0  0  0  0  0  0  0  0  0  0
    1.5550  -19.6610  -39.2710 H   0  0  0  0  0  0  0  0  0  0  0  0
    1.2180  -20.5860  -37.7670 H   0  0  0  0  0  0  0  0  0  0  0  0
    2.5410  -19.3710  -35.8570 H   0  0  0  0  0  0  0  0  0  0  0  0
    4.3250  -19.2490  -36.1190 H   0  0  0  0  0  0  0  0  0  0  0  0
    3.1620  -17.0380  -35.7490 H   0  0  0  0  0  0  0  0  0  0  0  0
    4.0730  -17.1310  -37.2670 H   0  0  0  0  0  0  0  0  0  0  0  0
    3.8210  -18.3670  -39.2720 H   0  0  0  0  0  0  0  0  0  0  0  0
    3.8080  -20.0860  -39.7040 H   0  0  0  0  0  0  0  0  0  0  0  0
    4.7900  -22.0760  -39.2670 H   0  0  0  0  0  0  0  0  0  0  0  0
    6.0790  -21.7410  -40.4760 H   0  0  0  0  0  0  0  0  0  0  0  0
    6.4220  -22.6960  -38.9320 H   0  0  0  0  0  0  0  0  0  0  0  0
  2  1  1  0  0  0  0
  3 28  1  0  0  0  0
  3  2  2  0  0  0  0
  4  3  1  0  0  0  0
  5  4  2  0  0  0  0
  5  6  1  0  0  0  0
  6  7  2  0  0  0  0
  7  2  1  0  0  0  0
  7 30  1  0  0  0  0
  8  5  1  0  0  0  0
  9  8  2  0  0  0  0
 10 11  2  0  0  0  0
 10  8  1  0  0  0  0
 11 12  1  0  0  0  0
 12  4  1  0  0  0  0
 13 11  1  0  0  0  0
 13 15  1  0  0  0  0
 14 13  2  0  0  0  0
 15 20  1  0  0  0  0
 16 15  1  0  0  0  0
 16 33  1  0  0  0  0
 17 18  1  0  0  0  0
 17 35  1  0  0  0  0
 17 16  1  0  0  0  0
 18 19  1  0  0  0  0
 19 37  1  0  0  0  0
 19 36  1  0  0  0  0
 20 19  1  0  0  0  0
 20 38  1  0  0  0  0
 21 22  1  0  0  0  0
 21 18  1  0  0  0  0
 22 23  2  0  0  0  0
 23 24  1  0  0  0  0
 25 24  1  0  0  0  0
 26 22  1  0  0  0  0
 26 25  2  0  0  0  0
 27 42  1  0  0  0  0
 27 44  1  0  0  0  0
 27 26  1  0  0  0  0
 29  6  1  0  0  0  0
 31 10  1  0  0  0  0
 32 16  1  0  0  0  0
 34 17  1  0  0  0  0
 39 20  1  0  0  0  0
 40 21  1  0  0  0  0
 41 21  1  0  0  0  0
 43 27  1  0  0  0  0
M  END
>  <Pose>
1

>  <Score>
-4.24

$$$$
