
 OpenBabel03232221553D

 44 47  0  0  0  0  0  0  0  0999 V2000
   -0.4130  -25.2960  -41.3080 B   0  0  0  0  0  0  0  0  0  0  0  0
    1.0760  -25.2640  -42.4900 C   0  0  0  0  0  0  0  0  0  0  0  0
    2.2610  -24.5960  -42.1630 C   0  0  0  0  0  0  0  0  0  0  0  0
    3.3440  -24.5700  -43.0160 C   0  0  0  0  0  0  0  0  0  0  0  0
    3.2570  -25.2310  -44.2470 C   0  0  0  0  0  0  0  0  0  0  0  0
    2.0780  -25.8900  -44.5600 C   0  0  0  0  0  0  0  0  0  0  0  0
    1.0090  -25.9040  -43.6960 C   0  0  0  0  0  0  0  0  0  0  0  0
    4.4710  -25.0860  -44.9760 N   0  0  0  0  0  0  0  0  0  0  0  0
    5.3450  -24.3080  -44.1720 C   0  0  0  0  0  0  0  0  0  0  0  0
    6.5250  -23.9240  -44.3990 O   0  0  0  0  0  0  0  0  0  0  0  0
    4.6600  -23.9580  -42.9090 C   0  0  0  0  0  0  0  0  0  0  0  0
    5.1380  -23.2620  -41.9350 N   0  0  0  0  0  0  0  0  0  0  0  0
    4.3990  -22.9890  -40.7810 N   0  0  0  0  0  0  0  0  0  0  0  0
    4.5590  -21.7940  -40.0370 C   0  0  0  0  0  0  0  0  0  0  0  0
    5.3490  -21.7820  -39.0660 O   0  0  0  0  0  0  0  0  0  0  0  0
    3.8120  -20.5980  -40.4000 C   0  0  0  0  0  0  0  0  0  0  0  0
    2.8220  -20.2240  -39.4090 N   0  0  0  0  0  0  0  0  0  0  0  0
    3.0390  -19.8790  -38.1520 N   0  0  0  0  0  0  0  0  0  0  0  0
    1.8960  -19.6030  -37.5460 N   0  0  0  0  0  0  0  0  0  0  0  0
    0.9030  -19.7720  -38.4360 C   0  0  0  0  0  0  0  0  0  0  0  0
    1.5070  -20.1530  -39.5690 N   0  0  0  0  0  0  0  0  0  0  0  0
   -0.5170  -19.5700  -38.1690 C   0  0  0  0  0  0  0  0  0  0  0  0
   -0.9160  -18.7570  -37.1300 C   0  0  0  0  0  0  0  0  0  0  0  0
   -2.2750  -18.5610  -36.8730 C   0  0  0  0  0  0  0  0  0  0  0  0
   -3.2490  -19.1640  -37.6360 C   0  0  0  0  0  0  0  0  0  0  0  0
   -2.8510  -19.9800  -38.6800 C   0  0  0  0  0  0  0  0  0  0  0  0
   -1.4980  -20.1700  -38.9290 C   0  0  0  0  0  0  0  0  0  0  0  0
    4.8310  -25.5970  -46.2830 C   0  0  0  0  0  0  0  0  0  0  0  0
    5.2920  -26.9730  -46.1820 C   0  0  0  0  0  0  0  0  0  0  0  0
    5.6580  -28.1160  -46.0940 C   0  0  0  0  0  0  0  0  0  0  0  0
    2.2920  -24.0960  -41.2020 H   0  0  0  0  0  0  0  0  0  0  0  0
    1.9660  -26.4130  -45.4980 H   0  0  0  0  0  0  0  0  0  0  0  0
    0.0750  -26.4250  -43.9420 H   0  0  0  0  0  0  0  0  0  0  0  0
    3.7130  -23.7010  -40.4570 H   0  0  0  0  0  0  0  0  0  0  0  0
    3.3210  -20.7250  -41.3830 H   0  0  0  0  0  0  0  0  0  0  0  0
    4.5410  -19.7610  -40.5310 H   0  0  0  0  0  0  0  0  0  0  0  0
   -0.1640  -18.2690  -36.5110 H   0  0  0  0  0  0  0  0  0  0  0  0
   -2.5930  -17.9190  -36.0520 H   0  0  0  0  0  0  0  0  0  0  0  0
   -4.3090  -18.9940  -37.4150 H   0  0  0  0  0  0  0  0  0  0  0  0
   -3.6130  -20.4580  -39.2860 H   0  0  0  0  0  0  0  0  0  0  0  0
   -1.1700  -20.8080  -39.7450 H   0  0  0  0  0  0  0  0  0  0  0  0
    3.9680  -25.5720  -46.9920 H   0  0  0  0  0  0  0  0  0  0  0  0
    5.6000  -24.9150  -46.7210 H   0  0  0  0  0  0  0  0  0  0  0  0
    5.9820  -29.1390  -46.0010 H   0  0  0  0  0  0  0  0  0  0  0  0
  2  3  1  0  0  0  0
  2  1  1  0  0  0  0
  3 31  1  0  0  0  0
  4 11  1  0  0  0  0
  4  3  2  0  0  0  0
  5  4  1  0  0  0  0
  6  5  2  0  0  0  0
  6  7  1  0  0  0  0
  7  2  2  0  0  0  0
  8  5  1  0  0  0  0
  8  9  1  0  0  0  0
  9 11  1  0  0  0  0
 10  9  2  0  0  0  0
 11 12  2  0  0  0  0
 12 13  1  0  0  0  0
 13 34  1  0  0  0  0
 13 14  1  0  0  0  0
 14 15  2  0  0  0  0
 16 14  1  0  0  0  0
 16 17  1  0  0  0  0
 17 18  1  0  0  0  0
 18 19  1  0  0  0  0
 20 22  1  0  0  0  0
 20 19  2  0  0  0  0
 21 17  1  0  0  0  0
 21 20  1  0  0  0  0
 22 23  1  0  0  0  0
 23 24  2  0  0  0  0
 23 37  1  0  0  0  0
 24 38  1  0  0  0  0
 25 39  1  0  0  0  0
 25 24  1  0  0  0  0
 26 25  2  0  0  0  0
 27 26  1  0  0  0  0
 27 22  2  0  0  0  0
 28 29  1  0  0  0  0
 28  8  1  0  0  0  0
 29 30  3  0  0  0  0
 30 44  1  0  0  0  0
 32  6  1  0  0  0  0
 33  7  1  0  0  0  0
 35 16  1  0  0  0  0
 36 16  1  0  0  0  0
 40 26  1  0  0  0  0
 41 27  1  0  0  0  0
 42 28  1  0  0  0  0
 43 28  1  0  0  0  0
M  END
>  <Pose>
1

>  <Score>
-4.53

$$$$
