
 OpenBabel03232221553D

 58 61  0  0  0  0  0  0  0  0999 V2000
    6.5700  -19.2060  -37.7430 B   0  0  0  0  0  0  0  0  0  0  0  0
    5.8520  -20.3000  -39.1340 C   0  0  0  0  0  0  0  0  0  0  0  0
    6.0470  -19.9900  -40.4880 C   0  0  0  0  0  0  0  0  0  0  0  0
    5.4960  -20.8480  -41.3940 C   0  0  0  0  0  0  0  0  0  0  0  0
    4.7720  -21.9730  -41.0570 C   0  0  0  0  0  0  0  0  0  0  0  0
    4.5770  -22.2710  -39.7270 C   0  0  0  0  0  0  0  0  0  0  0  0
    5.1340  -21.4170  -38.7650 C   0  0  0  0  0  0  0  0  0  0  0  0
    4.3180  -22.6780  -42.2050 N   0  0  0  0  0  0  0  0  0  0  0  0
    4.7920  -21.9240  -43.3510 C   0  0  0  0  0  0  0  0  0  0  0  0
    4.6060  -22.2380  -44.5450 O   0  0  0  0  0  0  0  0  0  0  0  0
    5.5090  -20.7850  -42.8230 C   0  0  0  0  0  0  0  0  0  0  0  0
    5.9610  -19.7690  -43.4510 N   0  0  0  0  0  0  0  0  0  0  0  0
    6.4390  -18.7070  -43.3860 N   0  0  0  0  0  0  0  0  0  0  0  0
    7.0210  -17.4200  -43.3290 C   0  0  0  0  0  0  0  0  0  0  0  0
    6.6050  -16.3190  -43.6100 O   0  0  0  0  0  0  0  0  0  0  0  0
    8.4720  -17.5420  -42.8090 C   0  0  0  0  0  0  0  0  0  0  0  0
    9.2070  -18.0400  -43.9480 O   0  0  0  0  0  0  0  0  0  0  0  0
   10.3140  -18.8730  -43.6160 N   0  0  0  0  0  0  0  0  0  0  0  0
   10.6230  -19.8850  -44.3280 C   0  0  0  0  0  0  0  0  0  0  0  0
   11.7400  -20.7240  -43.9610 C   0  0  0  0  0  0  0  0  0  0  0  0
   12.9600  -20.2830  -43.5700 C   0  0  0  0  0  0  0  0  0  0  0  0
   13.9430  -21.2760  -43.3260 C   0  0  0  0  0  0  0  0  0  0  0  0
   13.7920  -22.5950  -43.4280 C   0  0  0  0  0  0  0  0  0  0  0  0
   12.5550  -22.9850  -43.8170 C   0  0  0  0  0  0  0  0  0  0  0  0
   11.5040  -22.2010  -44.1030 C   0  0  0  0  0  0  0  0  0  0  0  0
   14.8520  -23.4650  -43.1480 O   0  0  0  0  0  0  0  0  0  0  0  0
   14.6280  -24.8640  -43.0180 C   0  0  0  0  0  0  0  0  0  0  0  0
    3.5860  -23.9240  -42.3590 C   0  0  0  0  0  0  0  0  0  0  0  0
    2.2440  -23.7760  -42.0770 N   0  0  0  0  0  0  0  0  0  0  0  0
    1.6670  -22.6820  -42.7460 C   0  0  0  0  0  0  0  0  0  0  0  0
    0.3180  -23.0970  -43.3390 C   0  0  0  0  0  0  0  0  0  0  0  0
    0.6360  -24.2730  -44.0730 O   0  0  0  0  0  0  0  0  0  0  0  0
    0.8000  -25.3390  -43.1790 C   0  0  0  0  0  0  0  0  0  0  0  0
    1.4890  -24.9520  -41.9070 C   0  0  0  0  0  0  0  0  0  0  0  0
    6.6180  -19.1550  -40.6720 H   0  0  0  0  0  0  0  0  0  0  0  0
    4.0270  -23.1430  -39.3840 H   0  0  0  0  0  0  0  0  0  0  0  0
    4.9600  -21.6360  -37.7340 H   0  0  0  0  0  0  0  0  0  0  0  0
    6.7440  -18.6880  -44.7410 H   0  0  0  0  0  0  0  0  0  0  0  0
    8.7310  -16.3960  -42.9050 H   0  0  0  0  0  0  0  0  0  0  0  0
    8.6280  -17.8700  -41.8740 H   0  0  0  0  0  0  0  0  0  0  0  0
   10.0680  -20.1310  -45.2310 H   0  0  0  0  0  0  0  0  0  0  0  0
   13.1800  -19.2500  -43.4490 H   0  0  0  0  0  0  0  0  0  0  0  0
   14.9210  -20.8720  -43.0030 H   0  0  0  0  0  0  0  0  0  0  0  0
   12.4350  -24.0990  -43.9070 H   0  0  0  0  0  0  0  0  0  0  0  0
   10.5280  -22.4510  -44.3950 H   0  0  0  0  0  0  0  0  0  0  0  0
   14.5180  -25.3360  -44.0310 H   0  0  0  0  0  0  0  0  0  0  0  0
   15.5870  -25.3030  -42.5930 H   0  0  0  0  0  0  0  0  0  0  0  0
   13.8040  -25.1280  -42.3340 H   0  0  0  0  0  0  0  0  0  0  0  0
    4.1370  -24.6500  -41.7240 H   0  0  0  0  0  0  0  0  0  0  0  0
    3.8090  -24.2790  -43.4080 H   0  0  0  0  0  0  0  0  0  0  0  0
    1.5490  -21.7840  -42.0950 H   0  0  0  0  0  0  0  0  0  0  0  0
    2.3250  -22.3620  -43.5690 H   0  0  0  0  0  0  0  0  0  0  0  0
    0.0280  -22.3250  -44.0410 H   0  0  0  0  0  0  0  0  0  0  0  0
   -0.4320  -23.3000  -42.5820 H   0  0  0  0  0  0  0  0  0  0  0  0
    1.3380  -26.1620  -43.6630 H   0  0  0  0  0  0  0  0  0  0  0  0
   -0.2300  -25.6920  -42.9260 H   0  0  0  0  0  0  0  0  0  0  0  0
    0.6910  -24.7950  -41.0760 H   0  0  0  0  0  0  0  0  0  0  0  0
    2.0990  -25.7790  -41.5320 H   0  0  0  0  0  0  0  0  0  0  0  0
  2  7  1  0  0  0  0
  2  1  1  0  0  0  0
  3  2  2  0  0  0  0
  4  5  2  0  0  0  0
  4  3  1  0  0  0  0
  5  6  1  0  0  0  0
  6 36  1  0  0  0  0
  6  7  2  0  0  0  0
  7 37  1  0  0  0  0
  8  5  1  0  0  0  0
  9 11  1  0  0  0  0
  9  8  1  0  0  0  0
 10  9  2  0  0  0  0
 11  4  1  0  0  0  0
 12 13  1  0  0  0  0
 12 11  2  0  0  0  0
 13 14  1  0  0  0  0
 14 16  1  0  0  0  0
 15 14  2  0  0  0  0
 16 40  1  0  0  0  0
 17 18  1  0  0  0  0
 17 16  1  0  0  0  0
 19 20  1  0  0  0  0
 19 18  2  0  0  0  0
 20 21  1  0  0  0  0
 21 42  1  0  0  0  0
 21 22  2  0  0  0  0
 22 43  1  0  0  0  0
 23 22  1  0  0  0  0
 23 26  1  0  0  0  0
 24 23  2  0  0  0  0
 25 20  2  0  0  0  0
 25 24  1  0  0  0  0
 26 27  1  0  0  0  0
 27 47  1  0  0  0  0
 27 48  1  0  0  0  0
 28  8  1  0  0  0  0
 28 29  1  0  0  0  0
 28 49  1  0  0  0  0
 29 34  1  0  0  0  0
 30 51  1  0  0  0  0
 30 29  1  0  0  0  0
 31 30  1  0  0  0  0
 31 54  1  0  0  0  0
 32 31  1  0  0  0  0
 32 33  1  0  0  0  0
 33 56  1  0  0  0  0
 33 34  1  0  0  0  0
 34 58  1  0  0  0  0
 34 57  1  0  0  0  0
 35  3  1  0  0  0  0
 38 13  1  0  0  0  0
 39 16  1  0  0  0  0
 41 19  1  0  0  0  0
 44 24  1  0  0  0  0
 45 25  1  0  0  0  0
 46 27  1  0  0  0  0
 50 28  1  0  0  0  0
 52 30  1  0  0  0  0
 53 31  1  0  0  0  0
 55 33  1  0  0  0  0
M  END
>  <Pose>
1

>  <Score>
-4.43

$$$$
