
 OpenBabel03232221553D

 59 62  0  0  0  0  0  0  0  0999 V2000
    6.2680  -25.6980  -43.9980 B   0  0  0  0  0  0  0  0  0  0  0  0
    6.5230  -23.8450  -43.5530 C   0  0  0  0  0  0  0  0  0  0  0  0
    5.6670  -23.1860  -42.7010 C   0  0  0  0  0  0  0  0  0  0  0  0
    5.8100  -21.8480  -42.3510 C   0  0  0  0  0  0  0  0  0  0  0  0
    6.8820  -21.1350  -42.8950 C   0  0  0  0  0  0  0  0  0  0  0  0
    7.7410  -21.7960  -43.7500 C   0  0  0  0  0  0  0  0  0  0  0  0
    7.5780  -23.1370  -44.0870 C   0  0  0  0  0  0  0  0  0  0  0  0
    6.8630  -19.7820  -42.4190 N   0  0  0  0  0  0  0  0  0  0  0  0
    5.7390  -19.6700  -41.5560 C   0  0  0  0  0  0  0  0  0  0  0  0
    5.3950  -18.6320  -40.9480 O   0  0  0  0  0  0  0  0  0  0  0  0
    5.0600  -20.9500  -41.4930 C   0  0  0  0  0  0  0  0  0  0  0  0
    4.0050  -21.2400  -40.8180 N   0  0  0  0  0  0  0  0  0  0  0  0
    3.3390  -20.3220  -40.0150 N   0  0  0  0  0  0  0  0  0  0  0  0
    3.4490  -20.4070  -38.6120 C   0  0  0  0  0  0  0  0  0  0  0  0
    3.8990  -21.4590  -38.0380 O   0  0  0  0  0  0  0  0  0  0  0  0
    3.0640  -19.3050  -37.6940 C   0  0  0  0  0  0  0  0  0  0  0  0
    1.6530  -19.1000  -37.7390 O   0  0  0  0  0  0  0  0  0  0  0  0
    1.1310  -17.8420  -37.4900 C   0  0  0  0  0  0  0  0  0  0  0  0
   -0.1670  -17.7060  -37.0450 C   0  0  0  0  0  0  0  0  0  0  0  0
   -0.6850  -16.4390  -36.7970 C   0  0  0  0  0  0  0  0  0  0  0  0
    0.0920  -15.3130  -36.9940 C   0  0  0  0  0  0  0  0  0  0  0  0
    1.3730  -15.4630  -37.4350 C   0  0  0  0  0  0  0  0  0  0  0  0
    1.8880  -16.7250  -37.6820 C   0  0  0  0  0  0  0  0  0  0  0  0
   -0.9640  -18.8030  -36.8400 O   0  0  0  0  0  0  0  0  0  0  0  0
   -2.3000  -18.6500  -36.4310 C   0  0  0  0  0  0  0  0  0  0  0  0
    7.8330  -18.7610  -42.7780 C   0  0  0  0  0  0  0  0  0  0  0  0
    7.3290  -17.7200  -43.5990 N   0  0  0  0  0  0  0  0  0  0  0  0
    7.0530  -16.4880  -42.9430 C   0  0  0  0  0  0  0  0  0  0  0  0
    6.4410  -15.4560  -43.8950 C   0  0  0  0  0  0  0  0  0  0  0  0
    6.0520  -16.1640  -45.0800 N   0  0  0  0  0  0  0  0  0  0  0  0
    7.1640  -16.6830  -45.8140 C   0  0  0  0  0  0  0  0  0  0  0  0
    7.9520  -17.5890  -44.8850 C   0  0  0  0  0  0  0  0  0  0  0  0
    5.0800  -15.4730  -45.8790 C   0  0  0  0  0  0  0  0  0  0  0  0
    4.8330  -23.7460  -42.2790 H   0  0  0  0  0  0  0  0  0  0  0  0
    8.5960  -21.2810  -44.2010 H   0  0  0  0  0  0  0  0  0  0  0  0
    8.2450  -23.6590  -44.7530 H   0  0  0  0  0  0  0  0  0  0  0  0
    2.7680  -19.5850  -40.4520 H   0  0  0  0  0  0  0  0  0  0  0  0
    3.3370  -19.5020  -36.6450 H   0  0  0  0  0  0  0  0  0  0  0  0
    3.5640  -18.3630  -37.9820 H   0  0  0  0  0  0  0  0  0  0  0  0
   -1.7120  -16.3450  -36.4450 H   0  0  0  0  0  0  0  0  0  0  0  0
   -0.2890  -14.3080  -36.8080 H   0  0  0  0  0  0  0  0  0  0  0  0
    1.9850  -14.6060  -37.5910 H   0  0  0  0  0  0  0  0  0  0  0  0
    2.9060  -16.7830  -38.0270 H   0  0  0  0  0  0  0  0  0  0  0  0
   -2.3960  -18.0430  -35.5050 H   0  0  0  0  0  0  0  0  0  0  0  0
   -2.8330  -18.0620  -37.2230 H   0  0  0  0  0  0  0  0  0  0  0  0
   -2.7380  -19.6660  -36.3300 H   0  0  0  0  0  0  0  0  0  0  0  0
    8.3470  -18.3590  -41.8720 H   0  0  0  0  0  0  0  0  0  0  0  0
    8.6400  -19.2870  -43.3530 H   0  0  0  0  0  0  0  0  0  0  0  0
    6.2770  -16.6650  -42.1700 H   0  0  0  0  0  0  0  0  0  0  0  0
    7.9300  -16.0510  -42.4220 H   0  0  0  0  0  0  0  0  0  0  0  0
    5.5590  -14.9640  -43.4600 H   0  0  0  0  0  0  0  0  0  0  0  0
    7.2110  -14.6810  -44.0710 H   0  0  0  0  0  0  0  0  0  0  0  0
    7.8380  -15.9130  -46.2310 H   0  0  0  0  0  0  0  0  0  0  0  0
    6.7440  -17.2510  -46.6830 H   0  0  0  0  0  0  0  0  0  0  0  0
    8.9820  -17.1690  -44.7350 H   0  0  0  0  0  0  0  0  0  0  0  0
    7.9880  -18.5870  -45.3630 H   0  0  0  0  0  0  0  0  0  0  0  0
    4.3170  -16.1890  -46.2890 H   0  0  0  0  0  0  0  0  0  0  0  0
    5.5190  -14.8960  -46.7140 H   0  0  0  0  0  0  0  0  0  0  0  0
    4.5070  -14.8000  -45.1920 H   0  0  0  0  0  0  0  0  0  0  0  0
  1  2  1  0  0  0  0
  2  3  1  0  0  0  0
  3  4  2  0  0  0  0
  3 34  1  0  0  0  0
  4 11  1  0  0  0  0
  5  8  1  0  0  0  0
  5  4  1  0  0  0  0
  6  5  2  0  0  0  0
  7  6  1  0  0  0  0
  7  2  2  0  0  0  0
  8  9  1  0  0  0  0
  9 11  1  0  0  0  0
  9 10  2  0  0  0  0
 11 12  2  0  0  0  0
 12 13  1  0  0  0  0
 13 14  1  0  0  0  0
 14 15  2  0  0  0  0
 14 16  1  0  0  0  0
 16 38  1  0  0  0  0
 17 16  1  0  0  0  0
 17 18  1  0  0  0  0
 18 19  1  0  0  0  0
 19 24  1  0  0  0  0
 19 20  2  0  0  0  0
 20 40  1  0  0  0  0
 21 41  1  0  0  0  0
 21 20  1  0  0  0  0
 22 21  2  0  0  0  0
 23 18  2  0  0  0  0
 23 22  1  0  0  0  0
 24 25  1  0  0  0  0
 25 46  1  0  0  0  0
 25 44  1  0  0  0  0
 26  8  1  0  0  0  0
 26 47  1  0  0  0  0
 27 28  1  0  0  0  0
 27 26  1  0  0  0  0
 28 50  1  0  0  0  0
 28 49  1  0  0  0  0
 29 51  1  0  0  0  0
 29 28  1  0  0  0  0
 30 29  1  0  0  0  0
 31 30  1  0  0  0  0
 31 32  1  0  0  0  0
 32 55  1  0  0  0  0
 32 27  1  0  0  0  0
 33 59  1  0  0  0  0
 33 30  1  0  0  0  0
 35  6  1  0  0  0  0
 36  7  1  0  0  0  0
 37 13  1  0  0  0  0
 39 16  1  0  0  0  0
 42 22  1  0  0  0  0
 43 23  1  0  0  0  0
 45 25  1  0  0  0  0
 48 26  1  0  0  0  0
 52 29  1  0  0  0  0
 53 31  1  0  0  0  0
 54 31  1  0  0  0  0
 56 32  1  0  0  0  0
 57 33  1  0  0  0  0
 58 33  1  0  0  0  0
M  END
>  <Pose>
1

>  <Score>
-4.06

$$$$
