
 OpenBabel03232221553D

 45 48  0  0  1  0  0  0  0  0999 V2000
    3.9810  -16.4480  -43.9610 B   0  0  0  0  0  0  0  0  0  0  0  0
    4.0020  -18.1510  -43.0620 C   0  0  0  0  0  0  0  0  0  0  0  0
    4.2730  -18.2970  -41.7320 C   0  0  0  0  0  0  0  0  0  0  0  0
    4.3080  -19.5310  -41.1360 C   0  0  0  0  0  0  0  0  0  0  0  0
    4.0590  -20.6160  -41.9270 C   0  0  0  0  0  0  0  0  0  0  0  0
    3.7760  -20.4940  -43.2940 C   0  0  0  0  0  0  0  0  0  0  0  0
    3.7450  -19.2470  -43.8830 C   0  0  0  0  0  0  0  0  0  0  0  0
    4.1680  -21.8220  -41.1960 N   0  0  0  0  0  0  0  0  0  0  0  0
    4.5020  -21.4850  -39.8860 C   0  0  0  0  0  0  0  0  0  0  0  0
    4.6950  -22.3310  -38.9740 O   0  0  0  0  0  0  0  0  0  0  0  0
    4.5880  -19.9830  -39.7610 C   0  0  2  0  0  0  0  0  0  0  0  0
    3.6070  -19.6370  -38.7440 C   0  0  0  0  0  0  0  0  0  0  0  0
    4.0110  -19.1230  -37.5500 C   0  0  0  0  0  0  0  0  0  0  0  0
    2.8820  -18.9140  -36.8160 N   0  0  0  0  0  0  0  0  0  0  0  0
    1.8370  -19.2770  -37.5130 N   0  0  0  0  0  0  0  0  0  0  0  0
    2.2070  -19.7410  -38.7300 C   0  0  0  0  0  0  0  0  0  0  0  0
    1.2710  -20.2170  -39.7810 C   0  0  0  0  0  0  0  0  0  0  0  0
   -0.1360  -19.9380  -39.4200 C   0  0  0  0  0  0  0  0  0  0  0  0
   -0.8590  -19.0500  -39.9400 O   0  0  0  0  0  0  0  0  0  0  0  0
   -0.7000  -20.7160  -38.4340 O   0  0  0  0  0  0  0  0  0  0  0  0
   -2.0580  -21.0490  -38.3130 C   0  0  0  0  0  0  0  0  0  0  0  0
   -2.3240  -22.3620  -39.0110 C   0  0  0  0  0  0  0  0  0  0  0  0
    5.3650  -18.8960  -37.2350 O   0  0  0  0  0  0  0  0  0  0  0  0
    6.2920  -19.2250  -38.2050 C   0  0  0  0  0  0  0  0  0  0  0  0
    5.9640  -19.7220  -39.3640 C   0  0  0  0  0  0  0  0  0  0  0  0
    7.0230  -20.0460  -40.3240 C   0  0  0  0  0  0  0  0  0  0  0  0
    7.8540  -20.3160  -41.0660 N   0  0  0  0  0  0  0  0  0  0  0  0
    7.6850  -18.9940  -37.8830 N   0  0  0  0  0  0  0  0  0  0  0  0
    3.9610  -23.1860  -41.7240 C   0  0  0  0  0  0  0  0  0  0  0  0
    4.4630  -17.4300  -41.1460 H   0  0  0  0  0  0  0  0  0  0  0  0
    3.5740  -21.3430  -43.9290 H   0  0  0  0  0  0  0  0  0  0  0  0
    3.5280  -19.1360  -44.9360 H   0  0  0  0  0  0  0  0  0  0  0  0
    0.8210  -19.2340  -37.2120 H   0  0  0  0  0  0  0  0  0  0  0  0
    1.4530  -19.7320  -40.7550 H   0  0  0  0  0  0  0  0  0  0  0  0
    1.4120  -21.3110  -39.9680 H   0  0  0  0  0  0  0  0  0  0  0  0
   -2.6890  -20.2840  -38.8700 H   0  0  0  0  0  0  0  0  0  0  0  0
   -2.3730  -21.0440  -37.2610 H   0  0  0  0  0  0  0  0  0  0  0  0
   -1.3880  -22.6570  -39.5700 H   0  0  0  0  0  0  0  0  0  0  0  0
   -3.1140  -22.2870  -39.7570 H   0  0  0  0  0  0  0  0  0  0  0  0
   -2.4830  -23.1910  -38.2810 H   0  0  0  0  0  0  0  0  0  0  0  0
    7.9990  -18.4730  -37.0460 H   0  0  0  0  0  0  0  0  0  0  0  0
    8.3950  -19.3730  -38.5290 H   0  0  0  0  0  0  0  0  0  0  0  0
    2.8570  -23.3630  -41.8200 H   0  0  0  0  0  0  0  0  0  0  0  0
    4.4810  -23.3050  -42.6950 H   0  0  0  0  0  0  0  0  0  0  0  0
    4.3350  -23.9030  -40.9810 H   0  0  0  0  0  0  0  0  0  0  0  0
  1  2  1  0  0  0  0
  2  3  1  0  0  0  0
  3 30  1  0  0  0  0
  3  4  2  0  0  0  0
  5  8  1  0  0  0  0
  5  4  1  0  0  0  0
  6  5  2  0  0  0  0
  7  6  1  0  0  0  0
  7  2  2  0  0  0  0
  8  9  1  0  0  0  0
  9 11  1  0  0  0  0
  9 10  2  0  0  0  0
 11  4  1  6  0  0  0
 11 25  1  0  0  0  0
 11 12  1  0  0  0  0
 12 16  2  0  0  0  0
 12 13  1  0  0  0  0
 13 23  1  0  0  0  0
 13 14  2  0  0  0  0
 15 33  1  0  0  0  0
 15 14  1  0  0  0  0
 16 15  1  0  0  0  0
 17 18  1  0  0  0  0
 17 16  1  0  0  0  0
 18 20  1  0  0  0  0
 19 18  2  0  0  0  0
 20 21  1  0  0  0  0
 21 37  1  0  0  0  0
 22 21  1  0  0  0  0
 22 40  1  0  0  0  0
 24 28  1  0  0  0  0
 24 23  1  0  0  0  0
 25 24  2  0  0  0  0
 26 25  1  0  0  0  0
 27 26  3  0  0  0  0
 28 41  1  0  0  0  0
 29  8  1  0  0  0  0
 29 45  1  0  0  0  0
 31  6  1  0  0  0  0
 32  7  1  0  0  0  0
 34 17  1  0  0  0  0
 35 17  1  0  0  0  0
 36 21  1  0  0  0  0
 38 22  1  0  0  0  0
 39 22  1  0  0  0  0
 42 28  1  0  0  0  0
 43 29  1  0  0  0  0
 44 29  1  0  0  0  0
M  END
>  <Pose>
1

>  <Score>
-3.88

$$$$
