
 OpenBabel03232221553D

 36 39  0  0  1  0  0  0  0  0999 V2000
    3.7810  -24.6020  -42.9160 B   0  0  0  0  0  0  0  0  0  0  0  0
    3.5640  -22.6890  -42.8470 C   0  0  0  0  0  0  0  0  0  0  0  0
    3.4830  -22.0290  -41.6490 C   0  0  0  0  0  0  0  0  0  0  0  0
    3.3280  -20.6590  -41.6250 C   0  0  0  0  0  0  0  0  0  0  0  0
    3.2620  -20.0060  -42.8250 C   0  0  0  0  0  0  0  0  0  0  0  0
    3.3460  -20.6850  -44.0570 C   0  0  0  0  0  0  0  0  0  0  0  0
    3.5000  -22.0460  -44.0620 C   0  0  0  0  0  0  0  0  0  0  0  0
    3.1020  -18.6030  -42.6370 N   0  0  0  0  0  0  0  0  0  0  0  0
    3.0660  -18.3550  -41.2590 C   0  0  0  0  0  0  0  0  0  0  0  0
    2.9330  -17.2110  -40.7260 O   0  0  0  0  0  0  0  0  0  0  0  0
    3.2090  -19.6640  -40.5310 C   0  0  2  0  0  0  0  0  0  0  0  0
    4.4220  -19.5450  -39.7300 C   0  0  0  0  0  0  0  0  0  0  0  0
    4.3790  -19.5900  -38.3710 C   0  0  0  0  0  0  0  0  0  0  0  0
    5.6650  -19.4520  -37.9350 N   0  0  0  0  0  0  0  0  0  0  0  0
    6.4820  -19.3260  -38.9600 N   0  0  0  0  0  0  0  0  0  0  0  0
    5.7650  -19.3770  -40.0800 C   0  0  0  0  0  0  0  0  0  0  0  0
    6.2220  -19.2810  -41.5020 C   0  0  0  0  0  0  0  0  0  0  0  0
    3.1870  -19.7510  -37.6560 O   0  0  0  0  0  0  0  0  0  0  0  0
    2.0320  -19.8640  -38.4230 C   0  0  0  0  0  0  0  0  0  0  0  0
    2.0100  -19.8280  -39.7300 C   0  0  0  0  0  0  0  0  0  0  0  0
    0.6940  -19.9640  -40.3770 C   0  0  0  0  0  0  0  0  0  0  0  0
   -0.3550  -20.0900  -40.8770 N   0  0  0  0  0  0  0  0  0  0  0  0
    0.7610  -20.0340  -37.7350 N   0  0  0  0  0  0  0  0  0  0  0  0
    2.9930  -17.5840  -43.6920 C   0  0  0  0  0  0  0  0  0  0  0  0
    3.5380  -22.5600  -40.7120 H   0  0  0  0  0  0  0  0  0  0  0  0
    3.2930  -20.1650  -45.0040 H   0  0  0  0  0  0  0  0  0  0  0  0
    3.5680  -22.6030  -45.0100 H   0  0  0  0  0  0  0  0  0  0  0  0
    7.5280  -19.2030  -38.9530 H   0  0  0  0  0  0  0  0  0  0  0  0
    7.3350  -19.1520  -41.4600 H   0  0  0  0  0  0  0  0  0  0  0  0
    6.0670  -20.2450  -42.0460 H   0  0  0  0  0  0  0  0  0  0  0  0
    5.8270  -18.4080  -42.0200 H   0  0  0  0  0  0  0  0  0  0  0  0
    0.1410  -19.2000  -37.7560 H   0  0  0  0  0  0  0  0  0  0  0  0
    0.4870  -20.8950  -37.2650 H   0  0  0  0  0  0  0  0  0  0  0  0
    2.0120  -17.0860  -43.5690 H   0  0  0  0  0  0  0  0  0  0  0  0
    3.7720  -16.8270  -43.4390 H   0  0  0  0  0  0  0  0  0  0  0  0
    3.1580  -18.0110  -44.6820 H   0  0  0  0  0  0  0  0  0  0  0  0
  1  2  1  0  0  0  0
  2  3  1  0  0  0  0
  3  4  2  0  0  0  0
  3 25  1  0  0  0  0
  5  8  1  0  0  0  0
  5  4  1  0  0  0  0
  6  5  2  0  0  0  0
  7  6  1  0  0  0  0
  7  2  2  0  0  0  0
  8  9  1  0  0  0  0
  9 10  2  0  0  0  0
  9 11  1  0  0  0  0
 11  4  1  6  0  0  0
 11 12  1  0  0  0  0
 11 20  1  0  0  0  0
 12 13  1  0  0  0  0
 13 14  2  0  0  0  0
 13 18  1  0  0  0  0
 15 28  1  0  0  0  0
 15 14  1  0  0  0  0
 16 12  2  0  0  0  0
 16 15  1  0  0  0  0
 17 29  1  0  0  0  0
 17 16  1  0  0  0  0
 19 23  1  0  0  0  0
 19 18  1  0  0  0  0
 20 19  2  0  0  0  0
 21 20  1  0  0  0  0
 22 21  3  0  0  0  0
 23 33  1  0  0  0  0
 24 34  1  0  0  0  0
 24 35  1  0  0  0  0
 24  8  1  0  0  0  0
 26  6  1  0  0  0  0
 27  7  1  0  0  0  0
 30 17  1  0  0  0  0
 31 17  1  0  0  0  0
 32 23  1  0  0  0  0
 36 24  1  0  0  0  0
M  END
>  <Pose>
1

>  <Score>
-4.05

$$$$
