
 OpenBabel03232221553D

 46 49  0  0  0  0  0  0  0  0999 V2000
    0.0980  -20.1810  -40.8550 B   0  0  0  0  0  0  0  0  0  0  0  0
    1.5290  -19.8950  -39.6160 C   0  0  0  0  0  0  0  0  0  0  0  0
    2.8340  -19.7130  -40.0710 C   0  0  0  0  0  0  0  0  0  0  0  0
    3.9040  -19.5060  -39.2280 C   0  0  0  0  0  0  0  0  0  0  0  0
    3.6370  -19.4840  -37.8800 C   0  0  0  0  0  0  0  0  0  0  0  0
    2.3370  -19.6620  -37.3860 C   0  0  0  0  0  0  0  0  0  0  0  0
    1.3030  -19.8640  -38.2640 C   0  0  0  0  0  0  0  0  0  0  0  0
    4.8680  -19.2640  -37.2040 N   0  0  0  0  0  0  0  0  0  0  0  0
    5.9280  -19.1460  -38.1340 C   0  0  0  0  0  0  0  0  0  0  0  0
    7.1470  -18.9470  -37.9130 O   0  0  0  0  0  0  0  0  0  0  0  0
    5.3360  -19.3000  -39.4730 C   0  0  0  0  0  0  0  0  0  0  0  0
    5.9850  -19.2550  -40.6160 C   0  0  0  0  0  0  0  0  0  0  0  0
    5.4060  -19.4020  -41.8830 N   0  0  0  0  0  0  0  0  0  0  0  0
    6.0430  -19.9750  -42.9690 N   0  0  0  0  0  0  0  0  0  0  0  0
    6.7630  -21.1980  -42.9070 C   0  0  0  0  0  0  0  0  0  0  0  0
    6.5270  -21.9460  -41.9450 O   0  0  0  0  0  0  0  0  0  0  0  0
    7.7580  -21.6060  -43.9230 C   0  0  0  0  0  0  0  0  0  0  0  0
    8.9440  -20.8940  -43.8210 N   0  0  0  0  0  0  0  0  0  0  0  0
   10.2210  -21.2680  -43.8970 C   0  0  0  0  0  0  0  0  0  0  0  0
   11.0280  -20.1630  -43.6610 C   0  0  0  0  0  0  0  0  0  0  0  0
   10.2020  -19.1210  -43.4440 N   0  0  0  0  0  0  0  0  0  0  0  0
    8.9650  -19.5520  -43.5390 C   0  0  0  0  0  0  0  0  0  0  0  0
   12.4020  -20.2910  -43.6950 C   0  0  0  0  0  0  0  0  0  0  0  0
   13.1070  -19.2730  -43.4750 O   0  0  0  0  0  0  0  0  0  0  0  0
   12.8980  -21.4910  -43.9570 N   0  0  0  0  0  0  0  0  0  0  0  0
   12.1060  -22.5540  -44.1860 C   0  0  0  0  0  0  0  0  0  0  0  0
   12.6170  -23.6730  -44.4320 O   0  0  0  0  0  0  0  0  0  0  0  0
   10.7460  -22.4810  -44.1640 N   0  0  0  0  0  0  0  0  0  0  0  0
    9.9290  -23.6260  -44.4490 C   0  0  0  0  0  0  0  0  0  0  0  0
   14.3570  -21.6840  -44.0020 C   0  0  0  0  0  0  0  0  0  0  0  0
    3.0160  -19.7280  -41.1330 H   0  0  0  0  0  0  0  0  0  0  0  0
    2.1670  -19.6380  -36.3240 H   0  0  0  0  0  0  0  0  0  0  0  0
    0.2920  -20.0030  -37.8600 H   0  0  0  0  0  0  0  0  0  0  0  0
    4.9890  -19.1950  -36.1660 H   0  0  0  0  0  0  0  0  0  0  0  0
    7.0530  -19.0880  -40.5810 H   0  0  0  0  0  0  0  0  0  0  0  0
    4.4170  -19.0450  -41.9850 H   0  0  0  0  0  0  0  0  0  0  0  0
    6.0050  -19.4930  -43.8930 H   0  0  0  0  0  0  0  0  0  0  0  0
    7.7630  -22.6880  -43.9390 H   0  0  0  0  0  0  0  0  0  0  0  0
    7.2640  -21.3340  -44.9200 H   0  0  0  0  0  0  0  0  0  0  0  0
    8.1010  -18.9190  -43.4110 H   0  0  0  0  0  0  0  0  0  0  0  0
   10.6680  -24.4950  -44.5650 H   0  0  0  0  0  0  0  0  0  0  0  0
    9.2880  -23.9960  -43.6650 H   0  0  0  0  0  0  0  0  0  0  0  0
    9.5090  -23.6130  -45.4820 H   0  0  0  0  0  0  0  0  0  0  0  0
   14.7930  -21.2150  -43.0970 H   0  0  0  0  0  0  0  0  0  0  0  0
   14.7980  -21.1560  -44.8750 H   0  0  0  0  0  0  0  0  0  0  0  0
   14.6180  -22.7600  -44.0460 H   0  0  0  0  0  0  0  0  0  0  0  0
  1  2  1  0  0  0  0
  2  7  1  0  0  0  0
  3  2  2  0  0  0  0
  3  4  1  0  0  0  0
  4  5  2  0  0  0  0
  5  6  1  0  0  0  0
  5  8  1  0  0  0  0
  6 32  1  0  0  0  0
  7 33  1  0  0  0  0
  7  6  2  0  0  0  0
  8 34  1  0  0  0  0
  9 10  2  0  0  0  0
  9  8  1  0  0  0  0
 11  4  1  0  0  0  0
 11  9  1  0  0  0  0
 12 35  1  0  0  0  0
 12 11  2  0  0  0  0
 13 12  1  0  0  0  0
 14 15  1  0  0  0  0
 14 13  1  0  0  0  0
 15 16  2  0  0  0  0
 17 18  1  0  0  0  0
 17 15  1  0  0  0  0
 18 22  1  0  0  0  0
 19 18  1  0  0  0  0
 19 20  2  0  0  0  0
 20 21  1  0  0  0  0
 22 21  2  0  0  0  0
 22 40  1  0  0  0  0
 23 20  1  0  0  0  0
 23 24  2  0  0  0  0
 25 23  1  0  0  0  0
 26 28  1  0  0  0  0
 26 25  1  0  0  0  0
 27 26  2  0  0  0  0
 28 19  1  0  0  0  0
 29 28  1  0  0  0  0
 29 42  1  0  0  0  0
 30 25  1  0  0  0  0
 30 44  1  0  0  0  0
 31  3  1  0  0  0  0
 36 13  1  0  0  0  0
 37 14  1  0  0  0  0
 38 17  1  0  0  0  0
 39 17  1  0  0  0  0
 41 29  1  0  0  0  0
 43 29  1  0  0  0  0
 45 30  1  0  0  0  0
 46 30  1  0  0  0  0
M  END
>  <Pose>
1

>  <Score>
-4.19

$$$$
