
 OpenBabel03232221553D

 41 44  0  0  0  0  0  0  0  0999 V2000
   11.5940  -29.4900  -47.6240 B   0  0  0  0  0  0  0  0  0  0  0  0
   11.5260  -28.8140  -45.8520 C   0  0  0  0  0  0  0  0  0  0  0  0
   10.6140  -27.8710  -45.4710 C   0  0  0  0  0  0  0  0  0  0  0  0
   10.5780  -27.3850  -44.1820 C   0  0  0  0  0  0  0  0  0  0  0  0
   11.4370  -27.8110  -43.2200 C   0  0  0  0  0  0  0  0  0  0  0  0
   12.3740  -28.7770  -43.6010 C   0  0  0  0  0  0  0  0  0  0  0  0
   12.4150  -29.2640  -44.8830 C   0  0  0  0  0  0  0  0  0  0  0  0
   11.2040  -27.1680  -41.9860 N   0  0  0  0  0  0  0  0  0  0  0  0
   10.1190  -26.2490  -42.1360 C   0  0  0  0  0  0  0  0  0  0  0  0
    9.5890  -25.4860  -41.3260 O   0  0  0  0  0  0  0  0  0  0  0  0
    9.7030  -26.3810  -43.5640 C   0  0  0  0  0  0  0  0  0  0  0  0
    8.7960  -25.7400  -43.9950 N   0  0  0  0  0  0  0  0  0  0  0  0
    7.8900  -24.8050  -43.6420 N   0  0  0  0  0  0  0  0  0  0  0  0
    8.2020  -23.4360  -43.7390 C   0  0  0  0  0  0  0  0  0  0  0  0
    9.3300  -23.1090  -44.2530 O   0  0  0  0  0  0  0  0  0  0  0  0
    7.3740  -22.3000  -43.3230 C   0  0  0  0  0  0  0  0  0  0  0  0
    6.3670  -22.5750  -42.3380 N   0  0  0  0  0  0  0  0  0  0  0  0
    5.3320  -21.6420  -42.0470 C   0  0  0  0  0  0  0  0  0  0  0  0
    4.5020  -21.4090  -43.0100 O   0  0  0  0  0  0  0  0  0  0  0  0
    5.1340  -20.9500  -40.8100 C   0  0  0  0  0  0  0  0  0  0  0  0
    3.9040  -20.6380  -40.2510 C   0  0  0  0  0  0  0  0  0  0  0  0
    3.7860  -19.9870  -39.0710 C   0  0  0  0  0  0  0  0  0  0  0  0
    4.9010  -19.5960  -38.3570 C   0  0  0  0  0  0  0  0  0  0  0  0
    6.1290  -19.8770  -38.8700 C   0  0  0  0  0  0  0  0  0  0  0  0
    6.2710  -20.5540  -40.0900 C   0  0  0  0  0  0  0  0  0  0  0  0
    4.4760  -18.9570  -37.1810 O   0  0  0  0  0  0  0  0  0  0  0  0
    3.2320  -19.6410  -36.8990 C   0  0  0  0  0  0  0  0  0  0  0  0
    2.6750  -19.5470  -38.2590 O   0  0  0  0  0  0  0  0  0  0  0  0
    9.9130  -27.4990  -46.1820 H   0  0  0  0  0  0  0  0  0  0  0  0
   13.0550  -29.1220  -42.8710 H   0  0  0  0  0  0  0  0  0  0  0  0
   13.1150  -30.0120  -45.2200 H   0  0  0  0  0  0  0  0  0  0  0  0
   11.7210  -27.3070  -41.0850 H   0  0  0  0  0  0  0  0  0  0  0  0
    6.9360  -25.0890  -43.2880 H   0  0  0  0  0  0  0  0  0  0  0  0
    8.0650  -21.5430  -42.8640 H   0  0  0  0  0  0  0  0  0  0  0  0
    6.9090  -21.8250  -44.2140 H   0  0  0  0  0  0  0  0  0  0  0  0
    6.3590  -23.4480  -41.7880 H   0  0  0  0  0  0  0  0  0  0  0  0
    2.9870  -20.9270  -40.7960 H   0  0  0  0  0  0  0  0  0  0  0  0
    7.0280  -19.5650  -38.3080 H   0  0  0  0  0  0  0  0  0  0  0  0
    7.2060  -20.7750  -40.4930 H   0  0  0  0  0  0  0  0  0  0  0  0
    2.6110  -19.1890  -36.1670 H   0  0  0  0  0  0  0  0  0  0  0  0
    3.4450  -20.6910  -36.6890 H   0  0  0  0  0  0  0  0  0  0  0  0
  1  2  1  0  0  0  0
  2  3  2  0  0  0  0
  2  7  1  0  0  0  0
  3  4  1  0  0  0  0
  4 11  1  0  0  0  0
  4  5  2  0  0  0  0
  5  8  1  0  0  0  0
  6  5  1  0  0  0  0
  6 30  1  0  0  0  0
  7  6  2  0  0  0  0
  8 32  1  0  0  0  0
  9  8  1  0  0  0  0
  9 10  2  0  0  0  0
 11  9  1  0  0  0  0
 12 13  1  0  0  0  0
 12 11  2  0  0  0  0
 13 33  1  0  0  0  0
 14 13  1  0  0  0  0
 14 16  1  0  0  0  0
 15 14  2  0  0  0  0
 16 34  1  0  0  0  0
 16 17  1  0  0  0  0
 17 18  1  0  0  0  0
 17 36  1  0  0  0  0
 18 20  1  0  0  0  0
 19 18  2  0  0  0  0
 20 21  2  0  0  0  0
 20 25  1  0  0  0  0
 21 22  1  0  0  0  0
 22 23  2  0  0  0  0
 22 28  1  0  0  0  0
 23 26  1  0  0  0  0
 24 23  1  0  0  0  0
 24 38  1  0  0  0  0
 25 24  2  0  0  0  0
 26 27  1  0  0  0  0
 27 41  1  0  0  0  0
 27 40  1  0  0  0  0
 28 27  1  0  0  0  0
 29  3  1  0  0  0  0
 31  7  1  0  0  0  0
 35 16  1  0  0  0  0
 37 21  1  0  0  0  0
 39 25  1  0  0  0  0
M  END
>  <Pose>
1

>  <Score>
-4.98

$$$$
