
 OpenBabel03232221553D

 51 56  0  0  1  0  0  0  0  0999 V2000
    1.2270  -11.0810  -40.4350 B   0  0  0  0  0  0  0  0  0  0  0  0
    1.3340  -12.3180  -38.9870 C   0  0  0  0  0  0  0  0  0  0  0  0
    0.4120  -13.3450  -38.8230 C   0  0  0  0  0  0  0  0  0  0  0  0
    0.4950  -14.2290  -37.7810 C   0  0  0  0  0  0  0  0  0  0  0  0
    1.5410  -14.0600  -36.8870 C   0  0  0  0  0  0  0  0  0  0  0  0
    2.4590  -13.0430  -37.0430 C   0  0  0  0  0  0  0  0  0  0  0  0
    2.3650  -12.1600  -38.0940 C   0  0  0  0  0  0  0  0  0  0  0  0
    1.4840  -15.0620  -35.8680 N   0  0  0  0  0  0  0  0  0  0  0  0
    0.3720  -15.8960  -36.1160 C   0  0  0  0  0  0  0  0  0  0  0  0
    0.0540  -16.8640  -35.4110 O   0  0  0  0  0  0  0  0  0  0  0  0
   -0.2860  -15.3800  -37.3350 C   0  0  1  0  0  0  0  0  0  0  0  0
   -1.6540  -15.1210  -37.0000 N   0  0  2  0  0  0  0  0  0  0  0  0
   -2.2650  -16.4480  -36.9530 C   0  0  2  0  0  0  0  0  0  0  0  0
   -1.5510  -17.2760  -37.9700 C   0  0  1  0  0  0  0  0  0  0  0  0
   -0.4090  -16.4290  -38.4120 C   0  0  2  0  0  0  0  0  0  0  0  0
    0.7320  -17.3360  -38.4770 C   0  0  0  0  0  0  0  0  0  0  0  0
    1.8630  -17.0730  -38.9420 O   0  0  0  0  0  0  0  0  0  0  0  0
    0.3710  -18.5790  -37.9270 N   0  0  0  0  0  0  0  0  0  0  0  0
   -0.9540  -18.5170  -37.3790 C   0  0  0  0  0  0  0  0  0  0  0  0
   -1.5180  -19.3050  -36.5790 O   0  0  0  0  0  0  0  0  0  0  0  0
    1.1830  -19.7550  -37.9000 C   0  0  0  0  0  0  0  0  0  0  0  0
    2.5800  -19.5730  -38.3690 C   0  0  2  0  0  0  0  0  0  0  0  0
    3.1280  -20.7070  -38.9570 O   0  0  0  0  0  0  0  0  0  0  0  0
    4.4730  -20.3910  -39.0900 C   0  0  0  0  0  0  0  0  0  0  0  0
    4.8830  -19.5860  -37.8970 C   0  0  0  0  0  0  0  0  0  0  0  0
    3.5470  -19.0940  -37.3410 C   0  0  0  0  0  0  0  0  0  0  0  0
   -3.6990  -16.2520  -37.4230 C   0  0  0  0  0  0  0  0  0  0  0  0
   -3.8530  -14.7680  -37.6850 C   0  0  0  0  0  0  0  0  0  0  0  0
   -2.3990  -14.3960  -38.0090 C   0  0  0  0  0  0  0  0  0  0  0  0
   -0.3720  -13.3920  -39.5810 H   0  0  0  0  0  0  0  0  0  0  0  0
    3.2950  -12.8930  -36.3440 H   0  0  0  0  0  0  0  0  0  0  0  0
    3.1060  -11.3480  -38.2100 H   0  0  0  0  0  0  0  0  0  0  0  0
    2.1760  -15.1460  -35.0660 H   0  0  0  0  0  0  0  0  0  0  0  0
   -2.2320  -16.8640  -35.9350 H   0  0  0  0  0  0  0  0  0  0  0  0
   -2.2280  -17.5700  -38.8170 H   0  0  0  0  0  0  0  0  0  0  0  0
   -0.6080  -15.9010  -39.3660 H   0  0  0  0  0  0  0  0  0  0  0  0
    1.2200  -20.1140  -36.8480 H   0  0  0  0  0  0  0  0  0  0  0  0
    0.7410  -20.6020  -38.4810 H   0  0  0  0  0  0  0  0  0  0  0  0
    2.5550  -18.7960  -39.1830 H   0  0  0  0  0  0  0  0  0  0  0  0
    5.0370  -21.3660  -39.0390 H   0  0  0  0  0  0  0  0  0  0  0  0
    4.7090  -19.9100  -40.0600 H   0  0  0  0  0  0  0  0  0  0  0  0
    5.5320  -18.7230  -38.1520 H   0  0  0  0  0  0  0  0  0  0  0  0
    5.3340  -20.2270  -37.1110 H   0  0  0  0  0  0  0  0  0  0  0  0
    3.3720  -19.4390  -36.3240 H   0  0  0  0  0  0  0  0  0  0  0  0
    3.5590  -17.9650  -37.2980 H   0  0  0  0  0  0  0  0  0  0  0  0
   -4.4340  -16.6470  -36.7130 H   0  0  0  0  0  0  0  0  0  0  0  0
   -3.8880  -16.7720  -38.3960 H   0  0  0  0  0  0  0  0  0  0  0  0
   -4.2130  -14.2030  -36.8230 H   0  0  0  0  0  0  0  0  0  0  0  0
   -4.4630  -14.5360  -38.5570 H   0  0  0  0  0  0  0  0  0  0  0  0
   -2.2900  -13.3140  -37.9460 H   0  0  0  0  0  0  0  0  0  0  0  0
   -2.2420  -14.7490  -39.0340 H   0  0  0  0  0  0  0  0  0  0  0  0
  1  2  1  0  0  0  0
  2  3  2  0  0  0  0
  2  7  1  0  0  0  0
  3  4  1  0  0  0  0
  4  5  2  0  0  0  0
  5  8  1  0  0  0  0
  6  5  1  0  0  0  0
  6 31  1  0  0  0  0
  7  6  2  0  0  0  0
  8 33  1  0  0  0  0
  9  8  1  0  0  0  0
  9 10  2  0  0  0  0
 11  4  1  6  0  0  0
 11 12  1  0  0  0  0
 11  9  1  0  0  0  0
 12 29  1  6  0  0  0
 12 13  1  0  0  0  0
 13 34  1  1  0  0  0
 14 35  1  6  0  0  0
 14 19  1  0  0  0  0
 14 13  1  0  0  0  0
 15 36  1  6  0  0  0
 15 14  1  0  0  0  0
 15 11  1  0  0  0  0
 16 15  1  0  0  0  0
 16 18  1  0  0  0  0
 17 16  2  0  0  0  0
 18 21  1  0  0  0  0
 18 19  1  0  0  0  0
 19 20  2  0  0  0  0
 21 37  1  0  0  0  0
 22 39  1  6  0  0  0
 22 21  1  0  0  0  0
 22 26  1  0  0  0  0
 23 22  1  0  0  0  0
 24 40  1  0  0  0  0
 24 23  1  0  0  0  0
 24 25  1  0  0  0  0
 25 26  1  0  0  0  0
 25 43  1  0  0  0  0
 26 45  1  0  0  0  0
 26 44  1  0  0  0  0
 27 13  1  0  0  0  0
 27 46  1  0  0  0  0
 28 27  1  0  0  0  0
 28 48  1  0  0  0  0
 29 50  1  0  0  0  0
 29 28  1  0  0  0  0
 30  3  1  0  0  0  0
 32  7  1  0  0  0  0
 38 21  1  0  0  0  0
 41 24  1  0  0  0  0
 42 25  1  0  0  0  0
 47 27  1  0  0  0  0
 49 28  1  0  0  0  0
 51 29  1  0  0  0  0
M  END
>  <Pose>
1

>  <Score>
-3.97

$$$$
