
 OpenBabel03232221553D

 41 44  0  0  1  0  0  0  0  0999 V2000
    3.2510  -14.4680  -42.0000 B   0  0  0  0  0  0  0  0  0  0  0  0
    1.9630  -15.7020  -41.3260 C   0  0  0  0  0  0  0  0  0  0  0  0
    2.2840  -16.3770  -40.1740 C   0  0  0  0  0  0  0  0  0  0  0  0
    1.3710  -17.2920  -39.6400 C   0  0  0  0  0  0  0  0  0  0  0  0
    0.1880  -17.4940  -40.2730 C   0  0  0  0  0  0  0  0  0  0  0  0
   -0.1610  -16.8130  -41.4550 C   0  0  0  0  0  0  0  0  0  0  0  0
    0.7560  -15.9200  -41.9560 C   0  0  0  0  0  0  0  0  0  0  0  0
   -0.5900  -18.4560  -39.5850 N   0  0  0  0  0  0  0  0  0  0  0  0
    0.1430  -18.8740  -38.4720 C   0  0  0  0  0  0  0  0  0  0  0  0
   -0.2100  -19.7490  -37.5910 O   0  0  0  0  0  0  0  0  0  0  0  0
    1.4380  -18.1300  -38.4530 C   0  0  2  0  0  0  0  0  0  0  0  0
    1.4930  -17.4590  -37.1810 C   0  0  0  0  0  0  0  0  0  0  0  0
    2.3900  -17.8090  -36.2420 C   0  0  0  0  0  0  0  0  0  0  0  0
    2.1800  -16.9860  -35.1630 N   0  0  0  0  0  0  0  0  0  0  0  0
    1.1880  -16.1700  -35.4470 N   0  0  0  0  0  0  0  0  0  0  0  0
    0.7140  -16.4000  -36.6720 C   0  0  0  0  0  0  0  0  0  0  0  0
   -0.3990  -15.7090  -37.3850 C   0  0  0  0  0  0  0  0  0  0  0  0
    3.3320  -18.8390  -36.4180 O   0  0  0  0  0  0  0  0  0  0  0  0
    3.2950  -19.4990  -37.6400 C   0  0  0  0  0  0  0  0  0  0  0  0
    2.4520  -19.2050  -38.5820 C   0  0  0  0  0  0  0  0  0  0  0  0
    2.4970  -19.9760  -39.8580 C   0  0  0  0  0  0  0  0  0  0  0  0
    1.7190  -20.9390  -39.9840 O   0  0  0  0  0  0  0  0  0  0  0  0
    3.3460  -19.6730  -40.8880 O   0  0  0  0  0  0  0  0  0  0  0  0
    4.6930  -19.2960  -40.7340 C   0  0  0  0  0  0  0  0  0  0  0  0
    5.5200  -20.5850  -40.6700 C   0  0  0  0  0  0  0  0  0  0  0  0
    4.2320  -20.5700  -37.8960 N   0  0  0  0  0  0  0  0  0  0  0  0
    3.2400  -16.2140  -39.6610 H   0  0  0  0  0  0  0  0  0  0  0  0
   -1.0980  -16.9780  -41.9500 H   0  0  0  0  0  0  0  0  0  0  0  0
    0.5380  -15.3690  -42.8620 H   0  0  0  0  0  0  0  0  0  0  0  0
   -1.5540  -18.8180  -39.8370 H   0  0  0  0  0  0  0  0  0  0  0  0
    2.7180  -17.0080  -34.2670 H   0  0  0  0  0  0  0  0  0  0  0  0
   -0.7430  -14.8350  -36.7960 H   0  0  0  0  0  0  0  0  0  0  0  0
   -1.2460  -16.4240  -37.4210 H   0  0  0  0  0  0  0  0  0  0  0  0
   -0.0990  -15.3240  -38.3730 H   0  0  0  0  0  0  0  0  0  0  0  0
    4.8660  -18.6660  -39.8560 H   0  0  0  0  0  0  0  0  0  0  0  0
    5.0230  -18.7640  -41.6520 H   0  0  0  0  0  0  0  0  0  0  0  0
    5.0620  -21.3730  -41.3000 H   0  0  0  0  0  0  0  0  0  0  0  0
    6.5540  -20.4200  -41.0240 H   0  0  0  0  0  0  0  0  0  0  0  0
    5.5940  -20.9040  -39.6030 H   0  0  0  0  0  0  0  0  0  0  0  0
    5.0300  -20.3750  -38.5050 H   0  0  0  0  0  0  0  0  0  0  0  0
    4.0760  -21.4830  -37.4680 H   0  0  0  0  0  0  0  0  0  0  0  0
  1  2  1  0  0  0  0
  2  3  1  0  0  0  0
  3 27  1  0  0  0  0
  3  4  2  0  0  0  0
  5  4  1  0  0  0  0
  5  8  1  0  0  0  0
  6  5  2  0  0  0  0
  7  6  1  0  0  0  0
  7  2  2  0  0  0  0
  8  9  1  0  0  0  0
  9 11  1  0  0  0  0
  9 10  2  0  0  0  0
 11  4  1  6  0  0  0
 11 12  1  0  0  0  0
 12 16  1  0  0  0  0
 12 13  2  0  0  0  0
 13 14  1  0  0  0  0
 14 31  1  0  0  0  0
 15 14  1  0  0  0  0
 16 15  2  0  0  0  0
 17 32  1  0  0  0  0
 17 16  1  0  0  0  0
 18 13  1  0  0  0  0
 19 18  1  0  0  0  0
 20 11  1  0  0  0  0
 20 19  2  0  0  0  0
 21 20  1  0  0  0  0
 22 21  2  0  0  0  0
 23 24  1  0  0  0  0
 23 21  1  0  0  0  0
 24 25  1  0  0  0  0
 24 35  1  0  0  0  0
 25 39  1  0  0  0  0
 26 19  1  0  0  0  0
 26 41  1  0  0  0  0
 28  6  1  0  0  0  0
 29  7  1  0  0  0  0
 30  8  1  0  0  0  0
 33 17  1  0  0  0  0
 34 17  1  0  0  0  0
 36 24  1  0  0  0  0
 37 25  1  0  0  0  0
 38 25  1  0  0  0  0
 40 26  1  0  0  0  0
M  END
>  <Pose>
1

>  <Score>
-4.03

$$$$
