
 OpenBabel03232221553D

 38 41  0  0  1  0  0  0  0  0999 V2000
    9.2670  -25.3630  -43.1320 B   0  0  0  0  0  0  0  0  0  0  0  0
    7.6340  -24.4960  -43.5660 C   0  0  0  0  0  0  0  0  0  0  0  0
    7.2910  -23.2490  -43.0330 C   0  0  0  0  0  0  0  0  0  0  0  0
    6.1120  -22.6300  -43.3510 C   0  0  0  0  0  0  0  0  0  0  0  0
    5.2460  -23.2430  -44.2090 C   0  0  0  0  0  0  0  0  0  0  0  0
    5.5440  -24.4920  -44.7690 C   0  0  0  0  0  0  0  0  0  0  0  0
    6.7350  -25.0890  -44.4320 C   0  0  0  0  0  0  0  0  0  0  0  0
    4.0890  -22.4490  -44.4110 N   0  0  0  0  0  0  0  0  0  0  0  0
    4.2390  -21.2820  -43.6410 C   0  0  0  0  0  0  0  0  0  0  0  0
    3.4400  -20.3150  -43.5350 O   0  0  0  0  0  0  0  0  0  0  0  0
    5.5350  -21.3410  -42.9280 C   0  0  1  0  0  0  0  0  0  0  0  0
    5.2920  -21.3260  -41.4490 C   0  0  0  0  0  0  0  0  0  0  0  0
    5.8000  -20.4660  -40.6060 C   0  0  0  0  0  0  0  0  0  0  0  0
    6.6520  -19.4570  -41.1130 N   0  0  0  0  0  0  0  0  0  0  0  0
    6.9400  -19.3910  -42.5000 C   0  0  0  0  0  0  0  0  0  0  0  0
    6.4330  -20.2520  -43.3480 C   0  0  0  0  0  0  0  0  0  0  0  0
    6.7810  -20.1140  -44.7660 C   0  0  0  0  0  0  0  0  0  0  0  0
    7.0600  -19.9870  -45.8800 N   0  0  0  0  0  0  0  0  0  0  0  0
    7.8190  -18.3450  -42.9970 N   0  0  0  0  0  0  0  0  0  0  0  0
    5.3140  -20.7980  -39.2450 C   0  0  0  0  0  0  0  0  0  0  0  0
    4.4820  -21.9230  -39.3660 O   0  0  0  0  0  0  0  0  0  0  0  0
    4.4450  -22.2730  -40.7020 C   0  0  0  0  0  0  0  0  0  0  0  0
    3.7840  -23.2550  -41.1870 O   0  0  0  0  0  0  0  0  0  0  0  0
    4.4360  -19.6730  -38.6920 C   0  0  0  0  0  0  0  0  0  0  0  0
    6.4770  -21.0610  -38.2980 C   0  0  0  0  0  0  0  0  0  0  0  0
    8.0130  -22.8070  -42.3570 H   0  0  0  0  0  0  0  0  0  0  0  0
    4.8880  -25.0050  -45.4480 H   0  0  0  0  0  0  0  0  0  0  0  0
    6.9700  -26.0600  -44.8660 H   0  0  0  0  0  0  0  0  0  0  0  0
    3.2650  -22.7080  -45.0390 H   0  0  0  0  0  0  0  0  0  0  0  0
    7.0900  -18.7370  -40.4810 H   0  0  0  0  0  0  0  0  0  0  0  0
    7.6640  -17.8500  -43.8900 H   0  0  0  0  0  0  0  0  0  0  0  0
    8.6370  -18.0910  -42.4190 H   0  0  0  0  0  0  0  0  0  0  0  0
    3.8040  -20.1450  -37.9100 H   0  0  0  0  0  0  0  0  0  0  0  0
    5.0320  -18.8970  -38.2030 H   0  0  0  0  0  0  0  0  0  0  0  0
    3.7690  -19.3100  -39.4800 H   0  0  0  0  0  0  0  0  0  0  0  0
    6.5360  -20.2730  -37.5110 H   0  0  0  0  0  0  0  0  0  0  0  0
    6.2800  -22.0590  -37.8210 H   0  0  0  0  0  0  0  0  0  0  0  0
    7.4130  -21.1430  -38.8690 H   0  0  0  0  0  0  0  0  0  0  0  0
  2  1  1  0  0  0  0
  2  3  1  0  0  0  0
  3 26  1  0  0  0  0
  4  3  2  0  0  0  0
  4 11  1  0  0  0  0
  5  4  1  0  0  0  0
  6  7  1  0  0  0  0
  6  5  2  0  0  0  0
  7  2  2  0  0  0  0
  8  5  1  0  0  0  0
  8  9  1  0  0  0  0
  9 10  2  0  0  0  0
 11  9  1  6  0  0  0
 11 12  1  0  0  0  0
 12 22  1  0  0  0  0
 12 13  2  0  0  0  0
 13 20  1  0  0  0  0
 14 13  1  0  0  0  0
 14 30  1  0  0  0  0
 15 14  1  0  0  0  0
 16 11  1  0  0  0  0
 16 15  2  0  0  0  0
 17 16  1  0  0  0  0
 18 17  3  0  0  0  0
 19 15  1  0  0  0  0
 19 32  1  0  0  0  0
 20 24  1  0  0  0  0
 20 25  1  0  0  0  0
 21 20  1  0  0  0  0
 22 21  1  0  0  0  0
 23 22  2  0  0  0  0
 24 34  1  0  0  0  0
 24 33  1  0  0  0  0
 25 37  1  0  0  0  0
 25 36  1  0  0  0  0
 27  6  1  0  0  0  0
 28  7  1  0  0  0  0
 29  8  1  0  0  0  0
 31 19  1  0  0  0  0
 35 24  1  0  0  0  0
 38 25  1  0  0  0  0
M  END
>  <Pose>
1

>  <Score>
-4.07

$$$$
