
 OpenBabel03232221553D

 49 52  0  0  1  0  0  0  0  0999 V2000
   10.2170  -24.8770  -44.5300 B   0  0  0  0  0  0  0  0  0  0  0  0
    8.3390  -24.8930  -44.1290 C   0  0  0  0  0  0  0  0  0  0  0  0
    7.7010  -23.7890  -43.5930 C   0  0  0  0  0  0  0  0  0  0  0  0
    6.3530  -23.7910  -43.3010 C   0  0  0  0  0  0  0  0  0  0  0  0
    5.6680  -24.9580  -43.5720 C   0  0  0  0  0  0  0  0  0  0  0  0
    6.3070  -26.0700  -44.1100 C   0  0  0  0  0  0  0  0  0  0  0  0
    7.6390  -26.0420  -44.3900 C   0  0  0  0  0  0  0  0  0  0  0  0
    4.2910  -24.7820  -43.2020 N   0  0  0  0  0  0  0  0  0  0  0  0
    4.1140  -23.4740  -42.6870 C   0  0  0  0  0  0  0  0  0  0  0  0
    3.0210  -23.0240  -42.2710 O   0  0  0  0  0  0  0  0  0  0  0  0
    5.4200  -22.7850  -42.7410 C   0  0  1  0  0  0  0  0  0  0  0  0
    5.8190  -22.3280  -41.4370 N   0  0  0  0  0  0  0  0  0  0  0  0
    5.0810  -21.0960  -41.2600 C   0  0  2  0  0  0  0  0  0  0  0  0
    5.1970  -20.4160  -42.5980 C   0  0  2  0  0  0  0  0  0  0  0  0
    5.2930  -21.5620  -43.5770 C   0  0  1  0  0  0  0  0  0  0  0  0
    6.4490  -21.2500  -44.4290 C   0  0  0  0  0  0  0  0  0  0  0  0
    6.8190  -21.8750  -45.4550 O   0  0  0  0  0  0  0  0  0  0  0  0
    7.1350  -20.0860  -43.9140 N   0  0  0  0  0  0  0  0  0  0  0  0
    6.4510  -19.6470  -42.7510 C   0  0  0  0  0  0  0  0  0  0  0  0
    6.8710  -18.7450  -41.9880 O   0  0  0  0  0  0  0  0  0  0  0  0
    8.3100  -19.4610  -44.4690 C   0  0  0  0  0  0  0  0  0  0  0  0
    8.6080  -18.1350  -43.8120 C   0  0  0  0  0  0  0  0  0  0  0  0
    9.5030  -20.4040  -44.2880 C   0  0  0  0  0  0  0  0  0  0  0  0
    8.1320  -19.1980  -45.9480 C   0  0  0  0  0  0  0  0  0  0  0  0
    5.6580  -20.2960  -40.1230 C   0  0  0  0  0  0  0  0  0  0  0  0
    5.7380  -21.1040  -38.8950 C   0  0  0  0  0  0  0  0  0  0  0  0
    6.7290  -20.9470  -38.1310 O   0  0  0  0  0  0  0  0  0  0  0  0
    4.7720  -22.0610  -38.4950 N   0  0  0  0  0  0  0  0  0  0  0  0
    8.3150  -22.9250  -43.4130 H   0  0  0  0  0  0  0  0  0  0  0  0
    5.7600  -26.9820  -44.3190 H   0  0  0  0  0  0  0  0  0  0  0  0
    8.1120  -26.9340  -44.8130 H   0  0  0  0  0  0  0  0  0  0  0  0
    3.5720  -25.5290  -43.3130 H   0  0  0  0  0  0  0  0  0  0  0  0
    6.8280  -22.1060  -41.4540 H   0  0  0  0  0  0  0  0  0  0  0  0
    4.0100  -21.2850  -41.0020 H   0  0  0  0  0  0  0  0  0  0  0  0
    4.3290  -19.7960  -42.8630 H   0  0  0  0  0  0  0  0  0  0  0  0
    4.3700  -21.6420  -44.1940 H   0  0  0  0  0  0  0  0  0  0  0  0
    7.7380  -17.4660  -43.9730 H   0  0  0  0  0  0  0  0  0  0  0  0
    9.4620  -17.6310  -44.3280 H   0  0  0  0  0  0  0  0  0  0  0  0
    8.8890  -18.2550  -42.7440 H   0  0  0  0  0  0  0  0  0  0  0  0
    9.5520  -20.6270  -43.2030 H   0  0  0  0  0  0  0  0  0  0  0  0
   10.4310  -19.9360  -44.6310 H   0  0  0  0  0  0  0  0  0  0  0  0
    9.2370  -21.3350  -44.8430 H   0  0  0  0  0  0  0  0  0  0  0  0
    8.7530  -18.3230  -46.2210 H   0  0  0  0  0  0  0  0  0  0  0  0
    8.4400  -20.0430  -46.5810 H   0  0  0  0  0  0  0  0  0  0  0  0
    7.0630  -18.9920  -46.1300 H   0  0  0  0  0  0  0  0  0  0  0  0
    6.7280  -20.0900  -40.4240 H   0  0  0  0  0  0  0  0  0  0  0  0
    5.2060  -19.3050  -39.9940 H   0  0  0  0  0  0  0  0  0  0  0  0
    4.4870  -22.8860  -39.0430 H   0  0  0  0  0  0  0  0  0  0  0  0
    4.3100  -21.9090  -37.5600 H   0  0  0  0  0  0  0  0  0  0  0  0
  1  2  1  0  0  0  0
  2  3  1  0  0  0  0
  3 29  1  0  0  0  0
  3  4  2  0  0  0  0
  5  4  1  0  0  0  0
  5  8  1  0  0  0  0
  6  5  2  0  0  0  0
  7  2  2  0  0  0  0
  7  6  1  0  0  0  0
  8  9  1  0  0  0  0
  9 10  2  0  0  0  0
 11  4  1  6  0  0  0
 11  9  1  0  0  0  0
 11 12  1  0  0  0  0
 12 13  1  0  0  0  0
 13 34  1  1  0  0  0
 13 25  1  0  0  0  0
 14 35  1  6  0  0  0
 14 13  1  0  0  0  0
 15 36  1  6  0  0  0
 15 11  1  0  0  0  0
 15 14  1  0  0  0  0
 16 18  1  0  0  0  0
 16 15  1  0  0  0  0
 17 16  2  0  0  0  0
 18 19  1  0  0  0  0
 19 14  1  0  0  0  0
 19 20  2  0  0  0  0
 21 23  1  0  0  0  0
 21 18  1  0  0  0  0
 21 22  1  0  0  0  0
 22 39  1  0  0  0  0
 23 40  1  0  0  0  0
 24 21  1  0  0  0  0
 25 47  1  0  0  0  0
 25 26  1  0  0  0  0
 26 28  1  0  0  0  0
 26 27  2  0  0  0  0
 28 49  1  0  0  0  0
 30  6  1  0  0  0  0
 31  7  1  0  0  0  0
 32  8  1  0  0  0  0
 33 12  1  0  0  0  0
 37 22  1  0  0  0  0
 38 22  1  0  0  0  0
 41 23  1  0  0  0  0
 42 23  1  0  0  0  0
 43 24  1  0  0  0  0
 44 24  1  0  0  0  0
 45 24  1  0  0  0  0
 46 25  1  0  0  0  0
 48 28  1  0  0  0  0
M  END
>  <Pose>
1

>  <Score>
-3.94

$$$$
