
 OpenBabel03232221553D

 53 57  0  0  1  0  0  0  0  0999 V2000
   12.8310  -21.7460  -46.1340 B   0  0  0  0  0  0  0  0  0  0  0  0
   12.5470  -23.0320  -44.7510 C   0  0  0  0  0  0  0  0  0  0  0  0
   11.3890  -23.7700  -44.6500 C   0  0  0  0  0  0  0  0  0  0  0  0
   11.1830  -24.7090  -43.6280 C   0  0  0  0  0  0  0  0  0  0  0  0
   12.1930  -24.8740  -42.7120 C   0  0  0  0  0  0  0  0  0  0  0  0
   13.3640  -24.1340  -42.8070 C   0  0  0  0  0  0  0  0  0  0  0  0
   13.5540  -23.2150  -43.8150 C   0  0  0  0  0  0  0  0  0  0  0  0
   11.8410  -25.8360  -41.7370 N   0  0  0  0  0  0  0  0  0  0  0  0
   10.5470  -26.3020  -42.0500 C   0  0  0  0  0  0  0  0  0  0  0  0
    9.9520  -27.1740  -41.3570 O   0  0  0  0  0  0  0  0  0  0  0  0
   10.0820  -25.6010  -43.2660 C   0  0  1  0  0  0  0  0  0  0  0  0
    8.8620  -24.8390  -42.9820 N   0  0  0  0  0  0  0  0  0  0  0  0
    8.0930  -24.8660  -44.2060 C   0  0  1  0  0  0  0  0  0  0  0  0
    8.4780  -26.0750  -44.9640 C   0  0  2  0  0  0  0  0  0  0  0  0
    9.7030  -26.6320  -44.2620 C   0  0  1  0  0  0  0  0  0  0  0  0
   10.6560  -26.9400  -45.3220 C   0  0  0  0  0  0  0  0  0  0  0  0
   11.8480  -27.3060  -45.1710 O   0  0  0  0  0  0  0  0  0  0  0  0
   10.0350  -26.7670  -46.6140 N   0  0  0  0  0  0  0  0  0  0  0  0
    8.9460  -25.8580  -46.3480 C   0  0  0  0  0  0  0  0  0  0  0  0
    8.4940  -25.0400  -47.1620 O   0  0  0  0  0  0  0  0  0  0  0  0
   10.3710  -27.3640  -47.8670 C   0  0  0  0  0  0  0  0  0  0  0  0
   10.5840  -28.8490  -47.8550 C   0  0  0  0  0  0  0  0  0  0  0  0
    9.3630  -29.6550  -48.0260 C   0  0  0  0  0  0  0  0  0  0  0  0
    9.1300  -30.7280  -47.1750 C   0  0  0  0  0  0  0  0  0  0  0  0
    7.9980  -31.4600  -47.3050 C   0  0  0  0  0  0  0  0  0  0  0  0
    7.0520  -31.1910  -48.2510 C   0  0  0  0  0  0  0  0  0  0  0  0
    7.2940  -30.1180  -49.0950 C   0  0  0  0  0  0  0  0  0  0  0  0
    8.4280  -29.3650  -48.9840 C   0  0  0  0  0  0  0  0  0  0  0  0
    6.6170  -24.7820  -43.8980 C   0  0  1  0  0  0  0  0  0  0  0  0
    6.2280  -25.8760  -43.1480 O   0  0  0  0  0  0  0  0  0  0  0  0
    6.2380  -23.4730  -43.2500 C   0  0  0  0  0  0  0  0  0  0  0  0
   10.6230  -23.6080  -45.3920 H   0  0  0  0  0  0  0  0  0  0  0  0
   14.1720  -24.2580  -42.0870 H   0  0  0  0  0  0  0  0  0  0  0  0
   14.4670  -22.6240  -43.9070 H   0  0  0  0  0  0  0  0  0  0  0  0
   12.4410  -26.1480  -40.9250 H   0  0  0  0  0  0  0  0  0  0  0  0
    9.0820  -23.8590  -42.6920 H   0  0  0  0  0  0  0  0  0  0  0  0
    8.3480  -23.9610  -44.7850 H   0  0  0  0  0  0  0  0  0  0  0  0
    7.6790  -26.8470  -45.0280 H   0  0  0  0  0  0  0  0  0  0  0  0
    9.4020  -27.6030  -43.7990 H   0  0  0  0  0  0  0  0  0  0  0  0
    9.5320  -27.1020  -48.5830 H   0  0  0  0  0  0  0  0  0  0  0  0
   11.3090  -26.9030  -48.2790 H   0  0  0  0  0  0  0  0  0  0  0  0
   11.0870  -29.1670  -46.9050 H   0  0  0  0  0  0  0  0  0  0  0  0
   11.3480  -29.1060  -48.6480 H   0  0  0  0  0  0  0  0  0  0  0  0
    9.8630  -30.9760  -46.4040 H   0  0  0  0  0  0  0  0  0  0  0  0
    7.8610  -32.3000  -46.6050 H   0  0  0  0  0  0  0  0  0  0  0  0
    6.1490  -31.7670  -48.3610 H   0  0  0  0  0  0  0  0  0  0  0  0
    6.5370  -29.8990  -49.8490 H   0  0  0  0  0  0  0  0  0  0  0  0
    8.6180  -28.5340  -49.6360 H   0  0  0  0  0  0  0  0  0  0  0  0
    6.0840  -24.8270  -44.8750 H   0  0  0  0  0  0  0  0  0  0  0  0
    6.9820  -26.4360  -42.8840 H   0  0  0  0  0  0  0  0  0  0  0  0
    6.1130  -22.6560  -43.9740 H   0  0  0  0  0  0  0  0  0  0  0  0
    6.9290  -23.1680  -42.4550 H   0  0  0  0  0  0  0  0  0  0  0  0
    5.2410  -23.6260  -42.7680 H   0  0  0  0  0  0  0  0  0  0  0  0
  1  2  1  0  0  0  0
  2  3  2  0  0  0  0
  2  7  1  0  0  0  0
  3  4  1  0  0  0  0
  4  5  2  0  0  0  0
  5  8  1  0  0  0  0
  6  5  1  0  0  0  0
  6 33  1  0  0  0  0
  7  6  2  0  0  0  0
  8 35  1  0  0  0  0
  9  8  1  0  0  0  0
  9 10  2  0  0  0  0
 11  4  1  6  0  0  0
 11 12  1  0  0  0  0
 11  9  1  0  0  0  0
 12 36  1  0  0  0  0
 13 37  1  6  0  0  0
 13 29  1  0  0  0  0
 13 12  1  0  0  0  0
 14 38  1  1  0  0  0
 14 15  1  0  0  0  0
 14 13  1  0  0  0  0
 15 39  1  1  0  0  0
 15 11  1  0  0  0  0
 16 17  2  0  0  0  0
 16 15  1  0  0  0  0
 18 19  1  0  0  0  0
 18 16  1  0  0  0  0
 19 14  1  0  0  0  0
 20 19  2  0  0  0  0
 21 22  1  0  0  0  0
 21 18  1  0  0  0  0
 22 42  1  0  0  0  0
 23 22  1  0  0  0  0
 23 24  1  0  0  0  0
 24 44  1  0  0  0  0
 25 24  2  0  0  0  0
 25 45  1  0  0  0  0
 26 25  1  0  0  0  0
 27 28  1  0  0  0  0
 27 26  2  0  0  0  0
 28 23  2  0  0  0  0
 29 49  1  6  0  0  0
 29 31  1  0  0  0  0
 29 30  1  0  0  0  0
 30 50  1  0  0  0  0
 31 53  1  0  0  0  0
 31 52  1  0  0  0  0
 32  3  1  0  0  0  0
 34  7  1  0  0  0  0
 40 21  1  0  0  0  0
 41 21  1  0  0  0  0
 43 22  1  0  0  0  0
 46 26  1  0  0  0  0
 47 27  1  0  0  0  0
 48 28  1  0  0  0  0
 51 31  1  0  0  0  0
M  END
>  <Pose>
1

>  <Score>
-4.21

$$$$
