
 OpenBabel03232221553D

 45 48  0  0  1  0  0  0  0  0999 V2000
    5.8490  -21.4720  -38.9980 B   0  0  0  0  0  0  0  0  0  0  0  0
    4.7690  -21.2940  -40.5630 C   0  0  0  0  0  0  0  0  0  0  0  0
    4.7940  -22.2160  -41.5790 C   0  0  0  0  0  0  0  0  0  0  0  0
    4.0140  -22.1170  -42.7450 C   0  0  0  0  0  0  0  0  0  0  0  0
    3.1950  -21.0330  -42.8440 C   0  0  0  0  0  0  0  0  0  0  0  0
    3.1570  -20.0760  -41.8120 C   0  0  0  0  0  0  0  0  0  0  0  0
    3.9330  -20.2010  -40.6830 C   0  0  0  0  0  0  0  0  0  0  0  0
    2.4610  -21.0640  -44.0600 N   0  0  0  0  0  0  0  0  0  0  0  0
    2.8460  -22.2300  -44.7500 C   0  0  0  0  0  0  0  0  0  0  0  0
    2.3870  -22.6120  -45.8890 O   0  0  0  0  0  0  0  0  0  0  0  0
    3.8600  -22.9250  -43.9360 C   0  0  2  0  0  0  0  0  0  0  0  0
    3.2140  -24.2070  -43.6030 N   0  0  0  0  0  0  0  0  0  0  0  0
    3.7400  -25.2190  -44.4650 C   0  0  2  0  0  0  0  0  0  0  0  0
    5.1090  -24.7500  -44.7930 C   0  0  1  0  0  0  0  0  0  0  0  0
    5.0950  -23.2490  -44.6920 C   0  0  2  0  0  0  0  0  0  0  0  0
    6.3710  -22.9340  -44.0900 C   0  0  0  0  0  0  0  0  0  0  0  0
    6.8970  -21.7830  -44.0600 O   0  0  0  0  0  0  0  0  0  0  0  0
    6.9330  -24.1200  -43.5450 N   0  0  0  0  0  0  0  0  0  0  0  0
    6.0280  -25.2020  -43.7010 C   0  0  0  0  0  0  0  0  0  0  0  0
    6.0530  -26.2600  -43.0410 O   0  0  0  0  0  0  0  0  0  0  0  0
    8.2520  -24.1560  -42.9260 C   0  0  0  0  0  0  0  0  0  0  0  0
    9.0890  -25.2810  -43.4540 C   0  0  0  0  0  0  0  0  0  0  0  0
    9.4910  -26.2690  -42.3920 C   0  0  0  0  0  0  0  0  0  0  0  0
   11.0090  -26.1360  -42.2270 C   0  0  0  0  0  0  0  0  0  0  0  0
    2.9010  -25.5080  -45.6880 C   0  0  0  0  0  0  0  0  0  0  0  0
    5.4500  -23.0550  -41.4590 H   0  0  0  0  0  0  0  0  0  0  0  0
    2.4830  -19.2200  -41.9340 H   0  0  0  0  0  0  0  0  0  0  0  0
    3.9170  -19.4730  -39.8770 H   0  0  0  0  0  0  0  0  0  0  0  0
    1.7510  -20.3530  -44.4030 H   0  0  0  0  0  0  0  0  0  0  0  0
    3.3500  -24.4410  -42.5950 H   0  0  0  0  0  0  0  0  0  0  0  0
    3.8360  -26.1720  -43.8490 H   0  0  0  0  0  0  0  0  0  0  0  0
    5.4750  -25.1000  -45.7850 H   0  0  0  0  0  0  0  0  0  0  0  0
    4.9690  -22.7910  -45.7200 H   0  0  0  0  0  0  0  0  0  0  0  0
    8.7900  -23.2130  -43.1250 H   0  0  0  0  0  0  0  0  0  0  0  0
    8.1240  -24.2570  -41.8210 H   0  0  0  0  0  0  0  0  0  0  0  0
   10.0110  -24.8500  -43.8720 H   0  0  0  0  0  0  0  0  0  0  0  0
    8.4930  -25.8240  -44.2180 H   0  0  0  0  0  0  0  0  0  0  0  0
    9.2310  -27.3130  -42.6840 H   0  0  0  0  0  0  0  0  0  0  0  0
    9.0010  -26.0450  -41.4430 H   0  0  0  0  0  0  0  0  0  0  0  0
   11.4410  -27.0610  -41.8020 H   0  0  0  0  0  0  0  0  0  0  0  0
   11.4600  -25.8420  -43.1900 H   0  0  0  0  0  0  0  0  0  0  0  0
   11.1540  -25.2530  -41.5400 H   0  0  0  0  0  0  0  0  0  0  0  0
    2.9090  -26.6240  -45.8830 H   0  0  0  0  0  0  0  0  0  0  0  0
    1.8640  -25.2630  -45.4700 H   0  0  0  0  0  0  0  0  0  0  0  0
    3.3270  -25.0770  -46.6080 H   0  0  0  0  0  0  0  0  0  0  0  0
  2  1  1  0  0  0  0
  3 26  1  0  0  0  0
  3  2  2  0  0  0  0
  4  3  1  0  0  0  0
  5  4  2  0  0  0  0
  5  6  1  0  0  0  0
  6  7  2  0  0  0  0
  7  2  1  0  0  0  0
  7 28  1  0  0  0  0
  8  5  1  0  0  0  0
  9  8  1  0  0  0  0
 10  9  2  0  0  0  0
 11  9  1  6  0  0  0
 11 12  1  0  0  0  0
 11  4  1  0  0  0  0
 12 30  1  0  0  0  0
 13 31  1  1  0  0  0
 13 12  1  0  0  0  0
 14 32  1  6  0  0  0
 14 15  1  0  0  0  0
 14 13  1  0  0  0  0
 14 19  1  0  0  0  0
 15 33  1  6  0  0  0
 15 16  1  0  0  0  0
 15 11  1  0  0  0  0
 16 17  2  0  0  0  0
 16 18  1  0  0  0  0
 18 21  1  0  0  0  0
 19 18  1  0  0  0  0
 19 20  2  0  0  0  0
 21 35  1  0  0  0  0
 22 21  1  0  0  0  0
 22 23  1  0  0  0  0
 23 24  1  0  0  0  0
 23 39  1  0  0  0  0
 24 40  1  0  0  0  0
 24 42  1  0  0  0  0
 25 44  1  0  0  0  0
 25 13  1  0  0  0  0
 27  6  1  0  0  0  0
 29  8  1  0  0  0  0
 34 21  1  0  0  0  0
 36 22  1  0  0  0  0
 37 22  1  0  0  0  0
 38 23  1  0  0  0  0
 41 24  1  0  0  0  0
 43 25  1  0  0  0  0
 45 25  1  0  0  0  0
M  END
>  <Pose>
1

>  <Score>
-3.46

$$$$
