
 OpenBabel03232221553D

 39 42  0  0  1  0  0  0  0  0999 V2000
   -0.7590  -17.6890  -38.1900 B   0  0  0  0  0  0  0  0  0  0  0  0
    1.0450  -18.2630  -38.4100 C   0  0  0  0  0  0  0  0  0  0  0  0
    1.5070  -18.4760  -39.6760 C   0  0  0  0  0  0  0  0  0  0  0  0
    2.8140  -18.8940  -39.8650 C   0  0  0  0  0  0  0  0  0  0  0  0
    3.6500  -19.0960  -38.7740 C   0  0  0  0  0  0  0  0  0  0  0  0
    3.1970  -18.8840  -37.4870 C   0  0  0  0  0  0  0  0  0  0  0  0
    1.8920  -18.4690  -37.3480 C   0  0  0  0  0  0  0  0  0  0  0  0
    4.9970  -19.5190  -38.8440 N   0  0  0  0  0  0  0  0  0  0  0  0
    5.8520  -19.2680  -37.8460 N   0  0  0  0  0  0  0  0  0  0  0  0
    6.9950  -19.7820  -38.2160 N   0  0  0  0  0  0  0  0  0  0  0  0
    6.8850  -20.3440  -39.4080 N   0  0  0  0  0  0  0  0  0  0  0  0
    5.5950  -20.1790  -39.8220 C   0  0  0  0  0  0  0  0  0  0  0  0
    5.1170  -20.7030  -41.1480 C   0  0  2  0  0  0  0  0  0  0  0  0
    4.2540  -19.7270  -41.8080 N   0  0  0  0  0  0  0  0  0  0  0  0
    3.1050  -19.0630  -41.2940 C   0  0  0  0  0  0  0  0  0  0  0  0
    2.2770  -18.5840  -42.1180 O   0  0  0  0  0  0  0  0  0  0  0  0
    4.2470  -21.8900  -40.8370 C   0  0  0  0  0  0  0  0  0  0  0  0
    4.1320  -22.7620  -42.0440 C   0  0  0  0  0  0  0  0  0  0  0  0
    5.3880  -23.2280  -42.3300 O   0  0  0  0  0  0  0  0  0  0  0  0
    6.2930  -22.2820  -42.7300 C   0  0  0  0  0  0  0  0  0  0  0  0
    6.2880  -21.0030  -42.0090 C   0  0  0  0  0  0  0  0  0  0  0  0
    3.2710  -23.9850  -41.7050 C   0  0  0  0  0  0  0  0  0  0  0  0
    3.4610  -22.0860  -43.2100 C   0  0  0  0  0  0  0  0  0  0  0  0
    0.9050  -18.3370  -40.5660 H   0  0  0  0  0  0  0  0  0  0  0  0
    3.8770  -19.0510  -36.6640 H   0  0  0  0  0  0  0  0  0  0  0  0
    1.5260  -18.3010  -36.3500 H   0  0  0  0  0  0  0  0  0  0  0  0
    4.5000  -19.4640  -42.8100 H   0  0  0  0  0  0  0  0  0  0  0  0
    3.2340  -21.5120  -40.5660 H   0  0  0  0  0  0  0  0  0  0  0  0
    4.6750  -22.5050  -40.0180 H   0  0  0  0  0  0  0  0  0  0  0  0
    6.1310  -22.1340  -43.8400 H   0  0  0  0  0  0  0  0  0  0  0  0
    7.3100  -22.7760  -42.6860 H   0  0  0  0  0  0  0  0  0  0  0  0
    7.2440  -20.9200  -41.4100 H   0  0  0  0  0  0  0  0  0  0  0  0
    6.3970  -20.1700  -42.7660 H   0  0  0  0  0  0  0  0  0  0  0  0
    3.4230  -24.3110  -40.6640 H   0  0  0  0  0  0  0  0  0  0  0  0
    3.3680  -24.7690  -42.4570 H   0  0  0  0  0  0  0  0  0  0  0  0
    2.2080  -23.6120  -41.7640 H   0  0  0  0  0  0  0  0  0  0  0  0
    2.9800  -22.8900  -43.8420 H   0  0  0  0  0  0  0  0  0  0  0  0
    4.1700  -21.5790  -43.8940 H   0  0  0  0  0  0  0  0  0  0  0  0
    2.6350  -21.4370  -42.8900 H   0  0  0  0  0  0  0  0  0  0  0  0
  2  1  1  0  0  0  0
  2  7  1  0  0  0  0
  3  2  2  0  0  0  0
  4  3  1  0  0  0  0
  4  5  2  0  0  0  0
  5  6  1  0  0  0  0
  6  7  2  0  0  0  0
  6 25  1  0  0  0  0
  7 26  1  0  0  0  0
  8  5  1  0  0  0  0
  8  9  1  0  0  0  0
 10  9  2  0  0  0  0
 11 10  1  0  0  0  0
 12 11  2  0  0  0  0
 12  8  1  0  0  0  0
 13 17  1  0  0  0  0
 13 12  1  1  0  0  0
 14 15  1  0  0  0  0
 14 13  1  0  0  0  0
 15  4  1  0  0  0  0
 16 15  2  0  0  0  0
 17 28  1  0  0  0  0
 17 29  1  0  0  0  0
 18 22  1  0  0  0  0
 18 17  1  0  0  0  0
 19 18  1  0  0  0  0
 20 31  1  0  0  0  0
 20 19  1  0  0  0  0
 20 21  1  0  0  0  0
 21 32  1  0  0  0  0
 21 13  1  0  0  0  0
 22 34  1  0  0  0  0
 23 39  1  0  0  0  0
 23 18  1  0  0  0  0
 24  3  1  0  0  0  0
 27 14  1  0  0  0  0
 30 20  1  0  0  0  0
 33 21  1  0  0  0  0
 35 22  1  0  0  0  0
 36 22  1  0  0  0  0
 37 23  1  0  0  0  0
 38 23  1  0  0  0  0
M  END
>  <Pose>
1

>  <Score>
-3.55

$$$$
