
 OpenBabel03232221553D

 33 36  0  0  1  0  0  0  0  0999 V2000
    8.9690  -22.8450  -44.3140 B   0  0  0  0  0  0  0  0  0  0  0  0
    7.4550  -21.7050  -44.4460 C   0  0  0  0  0  0  0  0  0  0  0  0
    6.8950  -21.2130  -43.3010 C   0  0  0  0  0  0  0  0  0  0  0  0
    5.7800  -20.3740  -43.3990 C   0  0  0  0  0  0  0  0  0  0  0  0
    5.2910  -20.0760  -44.6280 C   0  0  0  0  0  0  0  0  0  0  0  0
    5.8710  -20.5860  -45.8080 C   0  0  0  0  0  0  0  0  0  0  0  0
    6.9660  -21.4100  -45.7070 C   0  0  0  0  0  0  0  0  0  0  0  0
    4.1910  -19.2510  -44.7790 O   0  0  0  0  0  0  0  0  0  0  0  0
    3.5960  -18.7330  -43.6490 C   0  0  0  0  0  0  0  0  0  0  0  0
    4.0120  -18.9760  -42.4290 C   0  0  0  0  0  0  0  0  0  0  0  0
    5.1620  -19.8320  -42.1710 C   0  0  1  0  0  0  0  0  0  0  0  0
    4.8710  -20.9070  -41.1920 C   0  0  0  0  0  0  0  0  0  0  0  0
    5.6540  -20.7140  -40.0880 C   0  0  0  0  0  0  0  0  0  0  0  0
    5.3830  -21.7050  -39.1890 N   0  0  0  0  0  0  0  0  0  0  0  0
    4.4600  -22.4710  -39.7430 N   0  0  0  0  0  0  0  0  0  0  0  0
    4.1190  -22.0240  -40.9580 C   0  0  0  0  0  0  0  0  0  0  0  0
    3.1010  -22.6740  -41.8380 C   0  0  0  0  0  0  0  0  0  0  0  0
    6.4720  -19.5730  -40.2370 N   0  0  0  0  0  0  0  0  0  0  0  0
    6.1940  -19.0160  -41.4960 C   0  0  0  0  0  0  0  0  0  0  0  0
    6.7170  -17.9890  -42.0050 O   0  0  0  0  0  0  0  0  0  0  0  0
    3.3350  -18.3960  -41.2940 C   0  0  0  0  0  0  0  0  0  0  0  0
    2.7920  -17.9480  -40.3750 N   0  0  0  0  0  0  0  0  0  0  0  0
    2.4540  -17.8780  -43.8220 N   0  0  0  0  0  0  0  0  0  0  0  0
    7.2490  -21.4220  -42.3040 H   0  0  0  0  0  0  0  0  0  0  0  0
    5.4570  -20.3300  -46.7780 H   0  0  0  0  0  0  0  0  0  0  0  0
    7.4620  -21.8360  -46.5670 H   0  0  0  0  0  0  0  0  0  0  0  0
    4.0750  -23.3170  -39.2440 H   0  0  0  0  0  0  0  0  0  0  0  0
    3.0410  -22.1560  -42.8000 H   0  0  0  0  0  0  0  0  0  0  0  0
    2.1220  -22.6870  -41.2990 H   0  0  0  0  0  0  0  0  0  0  0  0
    3.3510  -23.7490  -42.0270 H   0  0  0  0  0  0  0  0  0  0  0  0
    7.1730  -19.2170  -39.5050 H   0  0  0  0  0  0  0  0  0  0  0  0
    2.1800  -17.2240  -43.0570 H   0  0  0  0  0  0  0  0  0  0  0  0
    1.8770  -17.8850  -44.6930 H   0  0  0  0  0  0  0  0  0  0  0  0
  2  1  1  0  0  0  0
  2  3  1  0  0  0  0
  3 24  1  0  0  0  0
  4  3  2  0  0  0  0
  5  4  1  0  0  0  0
  6  7  1  0  0  0  0
  6  5  2  0  0  0  0
  7  2  2  0  0  0  0
  8  5  1  0  0  0  0
  8  9  1  0  0  0  0
  9 10  2  0  0  0  0
 10 11  1  0  0  0  0
 10 21  1  0  0  0  0
 11  4  1  6  0  0  0
 11 19  1  0  0  0  0
 11 12  1  0  0  0  0
 12 16  2  0  0  0  0
 12 13  1  0  0  0  0
 13 14  2  0  0  0  0
 15 27  1  0  0  0  0
 15 14  1  0  0  0  0
 16 15  1  0  0  0  0
 17 29  1  0  0  0  0
 17 16  1  0  0  0  0
 18 13  1  0  0  0  0
 18 31  1  0  0  0  0
 19 18  1  0  0  0  0
 20 19  2  0  0  0  0
 21 22  3  0  0  0  0
 23  9  1  0  0  0  0
 23 32  1  0  0  0  0
 25  6  1  0  0  0  0
 26  7  1  0  0  0  0
 28 17  1  0  0  0  0
 30 17  1  0  0  0  0
 33 23  1  0  0  0  0
M  END
>  <Pose>
1

>  <Score>
-3.85

$$$$
