
 OpenBabel03232221553D

 44 47  0  0  0  0  0  0  0  0999 V2000
    4.0900  -22.9740  -42.0810 B   0  0  0  0  0  0  0  0  0  0  0  0
    4.1130  -21.7860  -40.6050 C   0  0  0  0  0  0  0  0  0  0  0  0
    3.0050  -21.0310  -40.2680 C   0  0  0  0  0  0  0  0  0  0  0  0
    2.9720  -20.1610  -39.1930 C   0  0  0  0  0  0  0  0  0  0  0  0
    4.1130  -20.0510  -38.4250 C   0  0  0  0  0  0  0  0  0  0  0  0
    5.2560  -20.7820  -38.7140 C   0  0  0  0  0  0  0  0  0  0  0  0
    5.2460  -21.6350  -39.7930 C   0  0  0  0  0  0  0  0  0  0  0  0
    4.1090  -19.2180  -37.3820 O   0  0  0  0  0  0  0  0  0  0  0  0
    3.0900  -18.5060  -37.0530 C   0  0  0  0  0  0  0  0  0  0  0  0
    3.0770  -17.7120  -36.0610 O   0  0  0  0  0  0  0  0  0  0  0  0
    1.9210  -18.5690  -37.7810 C   0  0  0  0  0  0  0  0  0  0  0  0
    1.8700  -19.4120  -38.8680 C   0  0  0  0  0  0  0  0  0  0  0  0
    0.7730  -17.7350  -37.4290 C   0  0  0  0  0  0  0  0  0  0  0  0
   -0.3200  -18.2680  -36.7640 C   0  0  0  0  0  0  0  0  0  0  0  0
   -1.3700  -17.4570  -36.3880 C   0  0  0  0  0  0  0  0  0  0  0  0
   -2.3350  -18.0180  -35.7790 O   0  0  0  0  0  0  0  0  0  0  0  0
   -1.3550  -16.1860  -36.6510 O   0  0  0  0  0  0  0  0  0  0  0  0
   -0.3800  -15.6330  -37.2620 C   0  0  0  0  0  0  0  0  0  0  0  0
    0.7340  -16.3860  -37.6810 C   0  0  0  0  0  0  0  0  0  0  0  0
    1.7560  -15.7700  -38.3430 C   0  0  0  0  0  0  0  0  0  0  0  0
    1.6510  -14.3940  -38.5730 C   0  0  0  0  0  0  0  0  0  0  0  0
    0.5470  -13.6830  -38.1450 C   0  0  0  0  0  0  0  0  0  0  0  0
   -0.5030  -14.2730  -37.4780 C   0  0  0  0  0  0  0  0  0  0  0  0
   -1.5700  -13.4490  -36.9760 C   0  0  0  0  0  0  0  0  0  0  0  0
   -1.4570  -12.6040  -35.8590 N   0  0  0  0  0  4  0  0  0  0  0  0
   -0.1410  -12.1540  -35.4950 C   0  0  0  0  0  0  0  0  0  0  0  0
   -2.4510  -11.5010  -35.8830 C   0  0  0  0  0  0  0  0  0  0  0  0
    0.5430  -12.2990  -38.4230 O   0  0  0  0  0  0  0  0  0  0  0  0
    2.0790  -21.1110  -40.8570 H   0  0  0  0  0  0  0  0  0  0  0  0
    6.1140  -20.6390  -38.0770 H   0  0  0  0  0  0  0  0  0  0  0  0
    6.1020  -22.2360  -40.0790 H   0  0  0  0  0  0  0  0  0  0  0  0
    0.9680  -19.4960  -39.5110 H   0  0  0  0  0  0  0  0  0  0  0  0
   -0.3220  -19.3370  -36.5630 H   0  0  0  0  0  0  0  0  0  0  0  0
    2.6100  -16.3290  -38.7040 H   0  0  0  0  0  0  0  0  0  0  0  0
    2.4810  -13.9350  -39.0900 H   0  0  0  0  0  0  0  0  0  0  0  0
   -2.4290  -14.1780  -36.7150 H   0  0  0  0  0  0  0  0  0  0  0  0
   -2.0510  -12.8710  -37.8170 H   0  0  0  0  0  0  0  0  0  0  0  0
   -1.7600  -13.1700  -35.0140 H   0  0  0  0  0  0  0  0  0  0  0  0
    0.1000  -11.1190  -35.8540 H   0  0  0  0  0  0  0  0  0  0  0  0
    0.6770  -12.8660  -35.7470 H   0  0  0  0  0  0  0  0  0  0  0  0
   -0.0220  -12.0290  -34.3650 H   0  0  0  0  0  0  0  0  0  0  0  0
   -3.0500  -11.5310  -36.8300 H   0  0  0  0  0  0  0  0  0  0  0  0
   -3.2470  -11.6330  -35.1050 H   0  0  0  0  0  0  0  0  0  0  0  0
   -1.9720  -10.5430  -35.6650 H   0  0  0  0  0  0  0  0  0  0  0  0
  1  2  1  0  0  0  0
  2  3  2  0  0  0  0
  2  7  1  0  0  0  0
  3  4  1  0  0  0  0
  4 12  1  0  0  0  0
  4  5  2  0  0  0  0
  5  8  1  0  0  0  0
  6  5  1  0  0  0  0
  6 30  1  0  0  0  0
  7  6  2  0  0  0  0
  8  9  1  0  0  0  0
  9 10  2  0  0  0  0
 11 13  1  0  0  0  0
 11  9  1  0  0  0  0
 12 11  2  0  0  0  0
 13 14  2  0  0  0  0
 14 33  1  0  0  0  0
 14 15  1  0  0  0  0
 15 16  2  0  0  0  0
 17 15  1  0  0  0  0
 18 17  1  0  0  0  0
 19 13  1  0  0  0  0
 19 18  2  0  0  0  0
 20 19  1  0  0  0  0
 21 20  2  0  0  0  0
 21 22  1  0  0  0  0
 22 23  2  0  0  0  0
 23 18  1  0  0  0  0
 23 24  1  0  0  0  0
 24 36  1  0  0  0  0
 24 25  1  0  0  0  0
 25 26  1  0  0  0  0
 25 38  1  0  0  0  0
 26 41  1  0  0  0  0
 27 25  1  0  0  0  0
 27 44  1  0  0  0  0
 27 43  1  0  0  0  0
 28 22  1  0  0  0  0
 29  3  1  0  0  0  0
 31  7  1  0  0  0  0
 32 12  1  0  0  0  0
 34 20  1  0  0  0  0
 35 21  1  0  0  0  0
 37 24  1  0  0  0  0
 39 26  1  0  0  0  0
 40 26  1  0  0  0  0
 42 27  1  0  0  0  0
M  END
>  <Pose>
1

>  <Score>
-4.05

$$$$
