
 OpenBabel03232221553D

 54 57  0  0  0  0  0  0  0  0999 V2000
   -3.5580  -17.7160  -36.5540 B   0  0  0  0  0  0  0  0  0  0  0  0
   -1.9270  -18.4930  -37.1780 C   0  0  0  0  0  0  0  0  0  0  0  0
   -0.8300  -17.7220  -37.5200 C   0  0  0  0  0  0  0  0  0  0  0  0
    0.3590  -18.2510  -37.9720 C   0  0  0  0  0  0  0  0  0  0  0  0
    0.4930  -19.6210  -38.1020 C   0  0  0  0  0  0  0  0  0  0  0  0
    1.6510  -20.1620  -38.5540 N   0  0  0  0  0  0  0  0  0  0  0  0
    2.7130  -19.4120  -38.8920 C   0  0  0  0  0  0  0  0  0  0  0  0
    2.5850  -18.0790  -38.7650 N   0  0  0  0  0  0  0  0  0  0  0  0
    1.4510  -17.4890  -38.3190 C   0  0  0  0  0  0  0  0  0  0  0  0
    1.3660  -16.0410  -38.2030 C   0  0  0  0  0  0  0  0  0  0  0  0
    1.2050  -15.4130  -36.9780 C   0  0  0  0  0  0  0  0  0  0  0  0
    1.1030  -14.0390  -36.8570 C   0  0  0  0  0  0  0  0  0  0  0  0
    1.1690  -13.2810  -38.0320 C   0  0  0  0  0  0  0  0  0  0  0  0
    1.3290  -13.8740  -39.2670 C   0  0  0  0  0  0  0  0  0  0  0  0
    1.4230  -15.2270  -39.3380 C   0  0  0  0  0  0  0  0  0  0  0  0
    1.1240  -16.3890  -35.5200 Cl  0  0  0  0  0  0  0  0  0  0  0  0
    3.9140  -20.0150  -39.3610 N   0  0  0  0  0  4  0  0  0  0  0  0
    3.8370  -21.4570  -39.2790 C   0  0  0  0  0  0  0  0  0  0  0  0
    4.8850  -22.0400  -40.1730 C   0  0  0  0  0  0  0  0  0  0  0  0
    5.8320  -21.0000  -40.5170 N   0  0  0  0  0  0  0  0  0  0  0  0
    6.2860  -20.1330  -39.4440 C   0  0  0  0  0  0  0  0  0  0  0  0
    5.0920  -19.5980  -38.6460 C   0  0  0  0  0  0  0  0  0  0  0  0
    6.2580  -20.8800  -41.8500 C   0  0  0  0  0  0  0  0  0  0  0  0
    6.8510  -19.8240  -42.1840 O   0  0  0  0  0  0  0  0  0  0  0  0
    6.0360  -21.9310  -42.8460 C   0  0  0  0  0  0  0  0  0  0  0  0
    7.3340  -22.6110  -43.1690 C   0  0  0  0  0  0  0  0  0  0  0  0
    7.1520  -24.0660  -43.5420 C   0  0  0  0  0  0  0  0  0  0  0  0
    8.3700  -24.8740  -43.3350 C   0  0  0  0  0  0  0  0  0  0  0  0
    9.1850  -24.9430  -44.2860 O   0  0  0  0  0  0  0  0  0  0  0  0
    8.5790  -25.5210  -42.1270 O   0  0  0  0  0  0  0  0  0  0  0  0
   -0.5940  -20.3970  -37.7640 C   0  0  0  0  0  0  0  0  0  0  0  0
   -1.7910  -19.8580  -37.3090 C   0  0  0  0  0  0  0  0  0  0  0  0
   -0.9560  -16.6530  -37.4220 H   0  0  0  0  0  0  0  0  0  0  0  0
    0.9780  -13.5500  -35.8950 H   0  0  0  0  0  0  0  0  0  0  0  0
    1.0880  -12.1930  -37.9300 H   0  0  0  0  0  0  0  0  0  0  0  0
    1.3810  -13.2700  -40.1790 H   0  0  0  0  0  0  0  0  0  0  0  0
    1.5430  -15.6980  -40.3020 H   0  0  0  0  0  0  0  0  0  0  0  0
    4.0300  -19.7320  -40.3560 H   0  0  0  0  0  0  0  0  0  0  0  0
    2.8110  -21.7430  -39.5900 H   0  0  0  0  0  0  0  0  0  0  0  0
    3.9610  -21.7330  -38.2100 H   0  0  0  0  0  0  0  0  0  0  0  0
    4.3740  -22.4440  -41.0720 H   0  0  0  0  0  0  0  0  0  0  0  0
    5.3980  -22.8890  -39.6730 H   0  0  0  0  0  0  0  0  0  0  0  0
    6.8650  -20.7730  -38.7460 H   0  0  0  0  0  0  0  0  0  0  0  0
    6.9510  -19.3350  -39.7800 H   0  0  0  0  0  0  0  0  0  0  0  0
    5.1130  -19.9380  -37.6050 H   0  0  0  0  0  0  0  0  0  0  0  0
    5.1880  -18.5040  -38.6450 H   0  0  0  0  0  0  0  0  0  0  0  0
    5.3460  -22.7400  -42.4690 H   0  0  0  0  0  0  0  0  0  0  0  0
    5.5360  -21.5470  -43.7590 H   0  0  0  0  0  0  0  0  0  0  0  0
    7.8360  -22.1330  -44.0490 H   0  0  0  0  0  0  0  0  0  0  0  0
    8.0500  -22.5460  -42.3380 H   0  0  0  0  0  0  0  0  0  0  0  0
    6.8950  -24.1000  -44.6180 H   0  0  0  0  0  0  0  0  0  0  0  0
    6.2760  -24.4790  -42.9800 H   0  0  0  0  0  0  0  0  0  0  0  0
   -0.4910  -21.4710  -37.8650 H   0  0  0  0  0  0  0  0  0  0  0  0
   -2.6460  -20.4560  -37.0400 H   0  0  0  0  0  0  0  0  0  0  0  0
  2  1  1  0  0  0  0
  3 33  1  0  0  0  0
  3  2  2  0  0  0  0
  4  3  1  0  0  0  0
  5  4  2  0  0  0  0
  5 31  1  0  0  0  0
  6  5  1  0  0  0  0
  7  8  1  0  0  0  0
  7  6  2  0  0  0  0
  8  9  2  0  0  0  0
  9 10  1  0  0  0  0
  9  4  1  0  0  0  0
 10 11  1  0  0  0  0
 11 12  2  0  0  0  0
 11 16  1  0  0  0  0
 12 34  1  0  0  0  0
 13 35  1  0  0  0  0
 13 12  1  0  0  0  0
 14 13  2  0  0  0  0
 15 14  1  0  0  0  0
 15 10  2  0  0  0  0
 17 18  1  0  0  0  0
 17  7  1  0  0  0  0
 17 22  1  0  0  0  0
 18 40  1  0  0  0  0
 19 42  1  0  0  0  0
 19 18  1  0  0  0  0
 20 19  1  0  0  0  0
 20 21  1  0  0  0  0
 21 43  1  0  0  0  0
 21 22  1  0  0  0  0
 22 46  1  0  0  0  0
 22 45  1  0  0  0  0
 23 20  1  0  0  0  0
 24 23  2  0  0  0  0
 25 47  1  0  0  0  0
 25 23  1  0  0  0  0
 26 25  1  0  0  0  0
 26 50  1  0  0  0  0
 27 28  1  0  0  0  0
 27 26  1  0  0  0  0
 27 52  1  0  0  0  0
 28 30  1  0  0  0  0
 29 28  2  0  0  0  0
 31 32  2  0  0  0  0
 32  2  1  0  0  0  0
 32 54  1  0  0  0  0
 36 14  1  0  0  0  0
 37 15  1  0  0  0  0
 38 17  1  0  0  0  0
 39 18  1  0  0  0  0
 41 19  1  0  0  0  0
 44 21  1  0  0  0  0
 48 25  1  0  0  0  0
 49 26  1  0  0  0  0
 51 27  1  0  0  0  0
 53 31  1  0  0  0  0
M  END
>  <Pose>
1

>  <Score>
-5.05

$$$$
