
 OpenBabel03232221553D

 50 53  0  0  0  0  0  0  0  0999 V2000
    3.5300  -18.5360  -46.2570 B   0  0  0  0  0  0  0  0  0  0  0  0
    4.4960  -18.7630  -44.6150 C   0  0  0  0  0  0  0  0  0  0  0  0
    3.8570  -19.0140  -43.4280 C   0  0  0  0  0  0  0  0  0  0  0  0
    4.5680  -19.1770  -42.2350 C   0  0  0  0  0  0  0  0  0  0  0  0
    5.9330  -19.0870  -42.2410 C   0  0  0  0  0  0  0  0  0  0  0  0
    6.3830  -19.2820  -40.9620 N   0  0  0  0  0  0  0  0  0  0  0  0
    5.3680  -19.4960  -40.1210 C   0  0  0  0  0  0  0  0  0  0  0  0
    4.2130  -19.4280  -40.9410 C   0  0  0  0  0  0  0  0  0  0  0  0
    5.3240  -19.7390  -38.6930 C   0  0  0  0  0  0  0  0  0  0  0  0
    6.2990  -20.3870  -38.1510 O   0  0  0  0  0  0  0  0  0  0  0  0
    4.3100  -19.3350  -37.8240 N   0  0  0  0  0  0  0  0  0  0  0  0
    4.3890  -18.2800  -36.8500 C   0  0  0  0  0  0  0  0  0  0  0  0
    3.0600  -18.0740  -36.1110 C   0  0  0  0  0  0  0  0  0  0  0  0
    1.9890  -18.0140  -37.0930 N   0  0  0  0  0  0  0  0  0  0  0  0
    1.9650  -18.9680  -38.2030 C   0  0  0  0  0  0  0  0  0  0  0  0
    3.0010  -20.0410  -37.8580 C   0  0  0  0  0  0  0  0  0  0  0  0
    0.9650  -17.0470  -37.0000 C   0  0  0  0  0  0  0  0  0  0  0  0
   -0.1810  -17.4530  -36.6930 O   0  0  0  0  0  0  0  0  0  0  0  0
    1.2760  -15.6490  -37.2570 C   0  0  0  0  0  0  0  0  0  0  0  0
    0.8160  -14.7230  -36.2470 N   0  0  0  0  0  0  0  0  0  0  0  0
   -0.5460  -14.2980  -36.5770 C   0  0  0  0  0  0  0  0  0  0  0  0
   -0.5420  -12.9940  -37.2950 C   0  0  0  0  0  0  0  0  0  0  0  0
    0.5660  -12.8960  -38.1330 O   0  0  0  0  0  0  0  0  0  0  0  0
    1.7470  -12.7710  -37.3980 C   0  0  0  0  0  0  0  0  0  0  0  0
    1.6750  -13.5610  -36.1110 C   0  0  0  0  0  0  0  0  0  0  0  0
    6.5840  -18.8340  -43.4330 C   0  0  0  0  0  0  0  0  0  0  0  0
    5.8700  -18.6730  -44.6120 C   0  0  0  0  0  0  0  0  0  0  0  0
    2.7790  -19.0920  -43.3950 H   0  0  0  0  0  0  0  0  0  0  0  0
    7.3900  -19.2580  -40.7470 H   0  0  0  0  0  0  0  0  0  0  0  0
    3.2110  -19.5570  -40.5890 H   0  0  0  0  0  0  0  0  0  0  0  0
    4.6270  -17.3380  -37.4150 H   0  0  0  0  0  0  0  0  0  0  0  0
    5.1180  -18.5270  -36.0640 H   0  0  0  0  0  0  0  0  0  0  0  0
    2.8620  -18.9090  -35.4150 H   0  0  0  0  0  0  0  0  0  0  0  0
    3.1310  -17.1410  -35.5570 H   0  0  0  0  0  0  0  0  0  0  0  0
    0.9710  -19.4590  -38.2890 H   0  0  0  0  0  0  0  0  0  0  0  0
    2.2560  -18.5230  -39.1610 H   0  0  0  0  0  0  0  0  0  0  0  0
    2.7960  -20.5000  -36.8810 H   0  0  0  0  0  0  0  0  0  0  0  0
    3.0160  -20.8130  -38.6270 H   0  0  0  0  0  0  0  0  0  0  0  0
    0.7440  -15.3560  -38.2040 H   0  0  0  0  0  0  0  0  0  0  0  0
    2.3530  -15.4560  -37.4490 H   0  0  0  0  0  0  0  0  0  0  0  0
   -1.0080  -15.0670  -37.2420 H   0  0  0  0  0  0  0  0  0  0  0  0
   -1.1290  -14.2630  -35.6350 H   0  0  0  0  0  0  0  0  0  0  0  0
   -1.4440  -12.9630  -37.9480 H   0  0  0  0  0  0  0  0  0  0  0  0
   -0.5510  -12.1120  -36.6080 H   0  0  0  0  0  0  0  0  0  0  0  0
    2.5900  -13.0290  -38.0440 H   0  0  0  0  0  0  0  0  0  0  0  0
    1.8480  -11.7010  -37.1270 H   0  0  0  0  0  0  0  0  0  0  0  0
    2.6690  -13.8210  -35.7810 H   0  0  0  0  0  0  0  0  0  0  0  0
    1.1960  -12.9100  -35.3500 H   0  0  0  0  0  0  0  0  0  0  0  0
    7.6750  -18.7610  -43.4350 H   0  0  0  0  0  0  0  0  0  0  0  0
    6.3830  -18.4730  -45.5600 H   0  0  0  0  0  0  0  0  0  0  0  0
  1  2  1  0  0  0  0
  2 27  2  0  0  0  0
  2  3  1  0  0  0  0
  3 28  1  0  0  0  0
  3  4  2  0  0  0  0
  4  8  1  0  0  0  0
  5  4  1  0  0  0  0
  5  6  1  0  0  0  0
  6 29  1  0  0  0  0
  6  7  1  0  0  0  0
  7  9  1  0  0  0  0
  8 30  1  0  0  0  0
  8  7  2  0  0  0  0
  9 10  2  0  0  0  0
  9 11  1  0  0  0  0
 11 12  1  0  0  0  0
 12 13  1  0  0  0  0
 12 32  1  0  0  0  0
 13 34  1  0  0  0  0
 13 33  1  0  0  0  0
 14 17  1  0  0  0  0
 14 13  1  0  0  0  0
 15 16  1  0  0  0  0
 15 14  1  0  0  0  0
 16 11  1  0  0  0  0
 16 37  1  0  0  0  0
 17 18  2  0  0  0  0
 19 17  1  0  0  0  0
 19 20  1  0  0  0  0
 20 25  1  0  0  0  0
 21 20  1  0  0  0  0
 21 42  1  0  0  0  0
 22 44  1  0  0  0  0
 22 21  1  0  0  0  0
 23 24  1  0  0  0  0
 23 22  1  0  0  0  0
 24 46  1  0  0  0  0
 24 25  1  0  0  0  0
 25 47  1  0  0  0  0
 25 48  1  0  0  0  0
 26  5  2  0  0  0  0
 27 26  1  0  0  0  0
 31 12  1  0  0  0  0
 35 15  1  0  0  0  0
 36 15  1  0  0  0  0
 38 16  1  0  0  0  0
 39 19  1  0  0  0  0
 40 19  1  0  0  0  0
 41 21  1  0  0  0  0
 43 22  1  0  0  0  0
 45 24  1  0  0  0  0
 49 26  1  0  0  0  0
 50 27  1  0  0  0  0
M  END
>  <Pose>
1

>  <Score>
-4.02

$$$$
