
 OpenBabel03232221553D

 41 44  0  0  0  0  0  0  0  0999 V2000
   -2.8950  -17.5050  -37.0180 B   0  0  0  0  0  0  0  0  0  0  0  0
   -0.9980  -17.5490  -36.8950 C   0  0  0  0  0  0  0  0  0  0  0  0
   -0.2550  -18.4900  -37.5780 C   0  0  0  0  0  0  0  0  0  0  0  0
    1.1220  -18.5360  -37.4990 C   0  0  0  0  0  0  0  0  0  0  0  0
    1.7600  -17.6010  -36.7050 C   0  0  0  0  0  0  0  0  0  0  0  0
    3.0720  -17.8750  -36.8110 N   0  0  0  0  0  0  0  0  0  0  0  0
    3.2850  -18.9330  -37.6330 C   0  0  0  0  0  0  0  0  0  0  0  0
    2.0560  -19.3670  -38.0810 C   0  0  0  0  0  0  0  0  0  0  0  0
    2.0140  -20.4200  -38.9200 N   0  0  0  0  0  0  0  0  0  0  0  0
    3.1300  -21.0530  -39.3280 C   0  0  0  0  0  0  0  0  0  0  0  0
    4.3380  -20.6530  -38.9100 N   0  0  0  0  0  0  0  0  0  0  0  0
    4.4020  -19.6060  -38.0740 C   0  0  0  0  0  0  0  0  0  0  0  0
    5.5270  -19.2170  -37.6700 O   0  0  0  0  0  0  0  0  0  0  0  0
    5.5630  -21.3420  -39.3510 C   0  0  0  0  0  0  0  0  0  0  0  0
    5.8020  -21.1000  -40.7920 C   0  0  0  0  0  0  0  0  0  0  0  0
    5.6920  -22.2200  -41.6550 N   0  0  0  0  0  0  0  0  0  0  0  0
    6.5630  -22.2140  -42.7780 C   0  0  0  0  0  0  0  0  0  0  0  0
    5.9230  -21.6890  -44.0320 C   0  0  0  0  0  0  0  0  0  0  0  0
    4.5350  -22.0810  -44.1520 N   0  0  0  0  0  0  0  0  0  0  0  0
    4.2230  -23.1910  -43.2690 C   0  0  0  0  0  0  0  0  0  0  0  0
    4.3610  -22.6680  -41.8600 C   0  0  0  0  0  0  0  0  0  0  0  0
    1.0030  -16.6650  -36.0250 C   0  0  0  0  0  0  0  0  0  0  0  0
   -0.3740  -16.6120  -36.0970 C   0  0  0  0  0  0  0  0  0  0  0  0
   -0.7440  -19.2270  -38.2030 H   0  0  0  0  0  0  0  0  0  0  0  0
    3.8400  -17.3610  -36.3390 H   0  0  0  0  0  0  0  0  0  0  0  0
    3.0780  -21.9030  -40.0070 H   0  0  0  0  0  0  0  0  0  0  0  0
    5.3680  -22.4180  -39.1460 H   0  0  0  0  0  0  0  0  0  0  0  0
    6.3480  -21.0200  -38.6730 H   0  0  0  0  0  0  0  0  0  0  0  0
    5.1340  -20.2950  -41.1560 H   0  0  0  0  0  0  0  0  0  0  0  0
    6.8490  -20.6940  -40.9050 H   0  0  0  0  0  0  0  0  0  0  0  0
    7.4920  -21.6490  -42.5680 H   0  0  0  0  0  0  0  0  0  0  0  0
    6.8640  -23.2620  -42.9890 H   0  0  0  0  0  0  0  0  0  0  0  0
    6.4510  -22.0170  -44.9490 H   0  0  0  0  0  0  0  0  0  0  0  0
    5.9500  -20.5820  -44.0200 H   0  0  0  0  0  0  0  0  0  0  0  0
    3.8820  -21.2810  -43.9910 H   0  0  0  0  0  0  0  0  0  0  0  0
    4.9680  -23.9800  -43.4390 H   0  0  0  0  0  0  0  0  0  0  0  0
    3.1840  -23.4930  -43.5130 H   0  0  0  0  0  0  0  0  0  0  0  0
    4.1920  -23.5230  -41.1470 H   0  0  0  0  0  0  0  0  0  0  0  0
    3.5870  -21.8980  -41.6700 H   0  0  0  0  0  0  0  0  0  0  0  0
    1.5070  -15.9290  -35.3990 H   0  0  0  0  0  0  0  0  0  0  0  0
   -0.9690  -15.8690  -35.5590 H   0  0  0  0  0  0  0  0  0  0  0  0
  1  2  1  0  0  0  0
  2 23  1  0  0  0  0
  3  4  1  0  0  0  0
  3  2  2  0  0  0  0
  4  5  2  0  0  0  0
  5 22  1  0  0  0  0
  6  5  1  0  0  0  0
  6 25  1  0  0  0  0
  7  6  1  0  0  0  0
  8  7  2  0  0  0  0
  8  4  1  0  0  0  0
  9  8  1  0  0  0  0
 10  9  2  0  0  0  0
 10 11  1  0  0  0  0
 11 12  1  0  0  0  0
 12 13  2  0  0  0  0
 12  7  1  0  0  0  0
 14 27  1  0  0  0  0
 14 11  1  0  0  0  0
 14 28  1  0  0  0  0
 15 14  1  0  0  0  0
 16 15  1  0  0  0  0
 17 31  1  0  0  0  0
 17 16  1  0  0  0  0
 18 34  1  0  0  0  0
 18 17  1  0  0  0  0
 19 18  1  0  0  0  0
 19 35  1  0  0  0  0
 19 20  1  0  0  0  0
 20 21  1  0  0  0  0
 21 39  1  0  0  0  0
 21 16  1  0  0  0  0
 21 38  1  0  0  0  0
 22 40  1  0  0  0  0
 23 22  2  0  0  0  0
 23 41  1  0  0  0  0
 24  3  1  0  0  0  0
 26 10  1  0  0  0  0
 29 15  1  0  0  0  0
 30 15  1  0  0  0  0
 32 17  1  0  0  0  0
 33 18  1  0  0  0  0
 36 20  1  0  0  0  0
 37 20  1  0  0  0  0
M  END
>  <Pose>
1

>  <Score>
-4.06

$$$$
