
 OpenBabel03232221553D

 55 58  0  0  0  0  0  0  0  0999 V2000
    8.9940  -18.1690  -44.3250 B   0  0  0  0  0  0  0  0  0  0  0  0
    8.6000  -20.0010  -44.1200 C   0  0  0  0  0  0  0  0  0  0  0  0
    7.3310  -20.4290  -43.7670 C   0  0  0  0  0  0  0  0  0  0  0  0
    7.0240  -21.7480  -43.5970 C   0  0  0  0  0  0  0  0  0  0  0  0
    5.8310  -22.3510  -43.3120 N   0  0  0  0  0  0  0  0  0  0  0  0
    6.0430  -23.6790  -43.3280 C   0  0  0  0  0  0  0  0  0  0  0  0
    7.4160  -23.9270  -43.6010 C   0  0  0  0  0  0  0  0  0  0  0  0
    7.9780  -22.6880  -43.7710 C   0  0  0  0  0  0  0  0  0  0  0  0
    9.2660  -22.2820  -44.1290 C   0  0  0  0  0  0  0  0  0  0  0  0
    9.5920  -20.9450  -44.3080 C   0  0  0  0  0  0  0  0  0  0  0  0
   10.8750  -20.5050  -44.6780 O   0  0  0  0  0  0  0  0  0  0  0  0
    8.1360  -25.2050  -43.5290 C   0  0  0  0  0  0  0  0  0  0  0  0
    8.1410  -25.9240  -44.5640 O   0  0  0  0  0  0  0  0  0  0  0  0
    8.8080  -25.6740  -42.4490 O   0  0  0  0  0  0  0  0  0  0  0  0
   10.1490  -25.9320  -42.2360 C   0  0  0  0  0  0  0  0  0  0  0  0
   10.7210  -27.0580  -43.0880 C   0  0  0  0  0  0  0  0  0  0  0  0
    5.0890  -24.7780  -43.1820 C   0  0  0  0  0  0  0  0  0  0  0  0
    3.7240  -24.4740  -42.8830 N   0  0  0  0  0  4  0  0  0  0  0  0
    3.0570  -24.4690  -41.7040 C   0  0  0  0  0  0  0  0  0  0  0  0
    1.5980  -24.9030  -41.9860 C   0  0  0  0  0  0  0  0  0  0  0  0
    1.4720  -24.4760  -43.4460 C   0  0  0  0  0  0  0  0  0  0  0  0
    2.8260  -24.9630  -43.9430 C   0  0  0  0  0  0  0  0  0  0  0  0
    4.6950  -21.5780  -42.7720 C   0  0  0  0  0  0  0  0  0  0  0  0
    5.1210  -21.1810  -41.3410 C   0  0  0  0  0  0  0  0  0  0  0  0
    5.6760  -19.9400  -41.2190 C   0  0  0  0  0  0  0  0  0  0  0  0
    6.0770  -19.5040  -39.9450 C   0  0  0  0  0  0  0  0  0  0  0  0
    5.9280  -20.2650  -38.8240 C   0  0  0  0  0  0  0  0  0  0  0  0
    5.3520  -21.5240  -38.9990 C   0  0  0  0  0  0  0  0  0  0  0  0
    4.9530  -21.9730  -40.2640 C   0  0  0  0  0  0  0  0  0  0  0  0
    6.5360  -19.7000  -43.6290 H   0  0  0  0  0  0  0  0  0  0  0  0
   10.0450  -23.0330  -44.2930 H   0  0  0  0  0  0  0  0  0  0  0  0
   11.0020  -20.0420  -45.5890 H   0  0  0  0  0  0  0  0  0  0  0  0
   10.7210  -25.0040  -42.5380 H   0  0  0  0  0  0  0  0  0  0  0  0
   10.3820  -26.1440  -41.1880 H   0  0  0  0  0  0  0  0  0  0  0  0
   11.8310  -26.9910  -43.1090 H   0  0  0  0  0  0  0  0  0  0  0  0
   10.4720  -28.0590  -42.6890 H   0  0  0  0  0  0  0  0  0  0  0  0
   10.3440  -27.0150  -44.1430 H   0  0  0  0  0  0  0  0  0  0  0  0
    5.0870  -25.3940  -44.0900 H   0  0  0  0  0  0  0  0  0  0  0  0
    5.4390  -25.4320  -42.2950 H   0  0  0  0  0  0  0  0  0  0  0  0
    3.7220  -23.3470  -43.2340 H   0  0  0  0  0  0  0  0  0  0  0  0
    2.8770  -23.3890  -41.2800 H   0  0  0  0  0  0  0  0  0  0  0  0
    3.3840  -25.0390  -40.8410 H   0  0  0  0  0  0  0  0  0  0  0  0
    0.9070  -24.4060  -41.3130 H   0  0  0  0  0  0  0  0  0  0  0  0
    1.5850  -25.9800  -41.9740 H   0  0  0  0  0  0  0  0  0  0  0  0
    1.4040  -23.3770  -43.4390 H   0  0  0  0  0  0  0  0  0  0  0  0
    0.6250  -24.9390  -43.9280 H   0  0  0  0  0  0  0  0  0  0  0  0
    2.8260  -26.0590  -43.9240 H   0  0  0  0  0  0  0  0  0  0  0  0
    3.0860  -24.5620  -44.9340 H   0  0  0  0  0  0  0  0  0  0  0  0
    3.7590  -22.0560  -42.6940 H   0  0  0  0  0  0  0  0  0  0  0  0
    4.6600  -20.6190  -43.3040 H   0  0  0  0  0  0  0  0  0  0  0  0
    5.8150  -19.2810  -42.0640 H   0  0  0  0  0  0  0  0  0  0  0  0
    6.5280  -18.5230  -39.8170 H   0  0  0  0  0  0  0  0  0  0  0  0
    6.2400  -19.9150  -37.8430 H   0  0  0  0  0  0  0  0  0  0  0  0
    5.2100  -22.1320  -38.1320 H   0  0  0  0  0  0  0  0  0  0  0  0
    4.5250  -22.9390  -40.3460 H   0  0  0  0  0  0  0  0  0  0  0  0
  1  2  1  0  0  0  0
  2  3  1  0  0  0  0
  3 30  1  0  0  0  0
  3  4  2  0  0  0  0
  4  5  1  0  0  0  0
  5 23  1  0  0  0  0
  6  5  1  0  0  0  0
  6 17  1  0  0  0  0
  7 12  1  0  0  0  0
  7  6  2  0  0  0  0
  8  7  1  0  0  0  0
  8  4  1  0  0  0  0
  9  8  2  0  0  0  0
 10  9  1  0  0  0  0
 10  2  2  0  0  0  0
 11 10  1  0  0  0  0
 12 14  1  0  0  0  0
 13 12  2  0  0  0  0
 14 15  1  0  0  0  0
 15 34  1  0  0  0  0
 16 36  1  0  0  0  0
 16 15  1  0  0  0  0
 17 18  1  0  0  0  0
 17 39  1  0  0  0  0
 18 19  1  0  0  0  0
 19 41  1  0  0  0  0
 19 42  1  0  0  0  0
 20 44  1  0  0  0  0
 20 19  1  0  0  0  0
 20 43  1  0  0  0  0
 21 45  1  0  0  0  0
 21 20  1  0  0  0  0
 22 47  1  0  0  0  0
 22 21  1  0  0  0  0
 22 18  1  0  0  0  0
 23 49  1  0  0  0  0
 23 24  1  0  0  0  0
 24 25  2  0  0  0  0
 24 29  1  0  0  0  0
 25 26  1  0  0  0  0
 26 52  1  0  0  0  0
 26 27  2  0  0  0  0
 27 53  1  0  0  0  0
 28 27  1  0  0  0  0
 28 54  1  0  0  0  0
 29 28  2  0  0  0  0
 31  9  1  0  0  0  0
 32 11  1  0  0  0  0
 33 15  1  0  0  0  0
 35 16  1  0  0  0  0
 37 16  1  0  0  0  0
 38 17  1  0  0  0  0
 40 18  1  0  0  0  0
 46 21  1  0  0  0  0
 48 22  1  0  0  0  0
 50 23  1  0  0  0  0
 51 25  1  0  0  0  0
 55 29  1  0  0  0  0
M  END
>  <Pose>
1

>  <Score>
-4.05

$$$$
