
 OpenBabel03232221553D

 43 46  0  0  1  0  0  0  0  0999 V2000
   14.9100  -18.6730  -43.4770 B   0  0  0  0  0  0  0  0  0  0  0  0
   14.3190  -20.4930  -43.3850 C   0  0  0  0  0  0  0  0  0  0  0  0
   15.1710  -21.5010  -42.9380 C   0  0  0  0  0  0  0  0  0  0  0  0
   14.6730  -22.7830  -42.9020 C   0  0  0  0  0  0  0  0  0  0  0  0
   15.2090  -23.9600  -42.5360 N   0  0  0  0  0  0  0  0  0  0  0  0
   14.3080  -24.9270  -42.6860 N   0  0  0  0  0  0  0  0  0  0  0  0
   13.1500  -24.4390  -43.1520 C   0  0  0  0  0  0  0  0  0  0  0  0
   13.3900  -23.0580  -43.2890 C   0  0  0  0  0  0  0  0  0  0  0  0
   12.5460  -22.0770  -43.7290 C   0  0  0  0  0  0  0  0  0  0  0  0
   13.0200  -20.7900  -43.7740 C   0  0  0  0  0  0  0  0  0  0  0  0
   11.9420  -25.0910  -43.4600 N   0  0  0  0  0  0  0  0  0  0  0  0
   10.6310  -24.4880  -43.1350 C   0  0  0  0  0  0  0  0  0  0  0  0
    9.8080  -25.6850  -42.6850 C   0  0  2  0  0  0  0  0  0  0  0  0
   10.3580  -26.8090  -43.5370 C   0  0  0  0  0  0  0  0  0  0  0  0
   11.6710  -26.3550  -44.0630 C   0  0  0  0  0  0  0  0  0  0  0  0
   12.4030  -26.9430  -44.8710 O   0  0  0  0  0  0  0  0  0  0  0  0
    8.4090  -25.3300  -42.9710 C   0  0  0  0  0  0  0  0  0  0  0  0
    7.5150  -26.2060  -43.0300 O   0  0  0  0  0  0  0  0  0  0  0  0
    8.0950  -23.9590  -43.1790 N   0  0  0  0  0  0  0  0  0  0  0  0
    6.7330  -23.5110  -43.3640 C   0  0  0  0  0  0  0  0  0  0  0  0
    6.6340  -22.3080  -44.2790 C   0  0  0  0  0  0  0  0  0  0  0  0
    7.2310  -21.1160  -43.6450 C   0  0  0  0  0  0  0  0  0  0  0  0
    8.3460  -20.5130  -44.0890 N   0  0  0  0  0  0  0  0  0  0  0  0
    8.6380  -19.4650  -43.3190 C   0  0  0  0  0  0  0  0  0  0  0  0
    7.6860  -19.3890  -42.3500 N   0  0  0  0  0  0  0  0  0  0  0  0
    6.8350  -20.3980  -42.5590 C   0  0  0  0  0  0  0  0  0  0  0  0
   16.1650  -21.2090  -42.6520 H   0  0  0  0  0  0  0  0  0  0  0  0
   14.5120  -25.9200  -42.4620 H   0  0  0  0  0  0  0  0  0  0  0  0
   11.5320  -22.3420  -44.0240 H   0  0  0  0  0  0  0  0  0  0  0  0
   12.3790  -19.9920  -44.1150 H   0  0  0  0  0  0  0  0  0  0  0  0
   10.7530  -23.7610  -42.3400 H   0  0  0  0  0  0  0  0  0  0  0  0
   10.2550  -24.0120  -44.0470 H   0  0  0  0  0  0  0  0  0  0  0  0
    9.9200  -25.8790  -41.6140 H   0  0  0  0  0  0  0  0  0  0  0  0
   10.6170  -27.6430  -42.8160 H   0  0  0  0  0  0  0  0  0  0  0  0
    9.6760  -27.2130  -44.2760 H   0  0  0  0  0  0  0  0  0  0  0  0
    8.8770  -23.2760  -43.1990 H   0  0  0  0  0  0  0  0  0  0  0  0
    6.1470  -24.3220  -43.8170 H   0  0  0  0  0  0  0  0  0  0  0  0
    6.2620  -23.2600  -42.3890 H   0  0  0  0  0  0  0  0  0  0  0  0
    7.2260  -22.5460  -45.1840 H   0  0  0  0  0  0  0  0  0  0  0  0
    5.5970  -22.1400  -44.6510 H   0  0  0  0  0  0  0  0  0  0  0  0
    9.4740  -18.8000  -43.4440 H   0  0  0  0  0  0  0  0  0  0  0  0
    7.6930  -18.6460  -41.6140 H   0  0  0  0  0  0  0  0  0  0  0  0
    5.9730  -20.5870  -41.9430 H   0  0  0  0  0  0  0  0  0  0  0  0
  1  2  1  0  0  0  0
  2  3  2  0  0  0  0
  3  4  1  0  0  0  0
  3 27  1  0  0  0  0
  4  5  2  0  0  0  0
  6  5  1  0  0  0  0
  6 28  1  0  0  0  0
  7  6  1  0  0  0  0
  8  7  2  0  0  0  0
  8  4  1  0  0  0  0
  9  8  1  0  0  0  0
 10  9  2  0  0  0  0
 10  2  1  0  0  0  0
 11  7  1  0  0  0  0
 11 12  1  0  0  0  0
 12 13  1  0  0  0  0
 12 31  1  0  0  0  0
 13 33  1  1  0  0  0
 14 34  1  0  0  0  0
 14 13  1  0  0  0  0
 15 14  1  0  0  0  0
 15 11  1  0  0  0  0
 16 15  2  0  0  0  0
 17 13  1  0  0  0  0
 18 17  2  0  0  0  0
 19 17  1  0  0  0  0
 20 19  1  0  0  0  0
 20 38  1  0  0  0  0
 21 22  1  0  0  0  0
 21 20  1  0  0  0  0
 22 26  2  0  0  0  0
 23 22  1  0  0  0  0
 23 24  2  0  0  0  0
 24 25  1  0  0  0  0
 25 42  1  0  0  0  0
 26 25  1  0  0  0  0
 26 43  1  0  0  0  0
 29  9  1  0  0  0  0
 30 10  1  0  0  0  0
 32 12  1  0  0  0  0
 35 14  1  0  0  0  0
 36 19  1  0  0  0  0
 37 20  1  0  0  0  0
 39 21  1  0  0  0  0
 40 21  1  0  0  0  0
 41 24  1  0  0  0  0
M  END
>  <Pose>
1

>  <Score>
-4.88

$$$$
