
 OpenBabel03232221553D

 42 45  0  0  0  0  0  0  0  0999 V2000
   10.7020  -12.7030  -40.6690 B   0  0  0  0  0  0  0  0  0  0  0  0
    9.9110  -13.8710  -41.9800 C   0  0  0  0  0  0  0  0  0  0  0  0
    9.0000  -14.8800  -41.7590 C   0  0  0  0  0  0  0  0  0  0  0  0
    8.6900  -15.4660  -42.9300 N   0  0  0  0  0  0  0  0  0  0  0  0
    9.3850  -14.8420  -43.8570 N   0  0  0  0  0  0  0  0  0  0  0  0
   10.1370  -13.8730  -43.3390 C   0  0  0  0  0  0  0  0  0  0  0  0
    7.7980  -16.5430  -43.1730 C   0  0  0  0  0  0  0  0  0  0  0  0
    6.4480  -16.3220  -43.2960 C   0  0  0  0  0  0  0  0  0  0  0  0
    5.5650  -17.3420  -43.5300 C   0  0  0  0  0  0  0  0  0  0  0  0
    5.9700  -18.6860  -43.6630 C   0  0  0  0  0  0  0  0  0  0  0  0
    7.3240  -18.8950  -43.5360 C   0  0  0  0  0  0  0  0  0  0  0  0
    8.2180  -17.8400  -43.2970 C   0  0  0  0  0  0  0  0  0  0  0  0
    4.9700  -19.7090  -43.8680 C   0  0  0  0  0  0  0  0  0  0  0  0
    4.1000  -19.4280  -44.7840 O   0  0  0  0  0  0  0  0  0  0  0  0
    4.8050  -20.9320  -43.2380 N   0  0  0  0  0  0  0  0  0  0  0  0
    5.6910  -22.0540  -43.0910 C   0  0  0  0  0  0  0  0  0  0  0  0
    6.2840  -21.9750  -41.6970 C   0  0  0  0  0  0  0  0  0  0  0  0
    5.2430  -21.4880  -40.7080 C   0  0  0  0  0  0  0  0  0  0  0  0
    5.4350  -22.2350  -39.4840 N   0  0  0  0  0  0  0  0  0  0  0  0
    6.4390  -21.5760  -38.7250 C   0  0  0  0  0  0  0  0  0  0  0  0
    7.1520  -22.0550  -37.7840 O   0  0  0  0  0  0  0  0  0  0  0  0
    6.5100  -20.2300  -39.2200 N   0  0  0  0  0  0  0  0  0  0  0  0
    5.5360  -20.1080  -40.2790 C   0  0  0  0  0  0  0  0  0  0  0  0
    5.0800  -19.0210  -40.6940 O   0  0  0  0  0  0  0  0  0  0  0  0
    3.8370  -21.6940  -41.1730 C   0  0  0  0  0  0  0  0  0  0  0  0
    3.5090  -21.1600  -42.5260 C   0  0  0  0  0  0  0  0  0  0  0  0
    8.6000  -15.1570  -40.7920 H   0  0  0  0  0  0  0  0  0  0  0  0
   10.8240  -13.1770  -43.8390 H   0  0  0  0  0  0  0  0  0  0  0  0
    6.1250  -15.2810  -43.1950 H   0  0  0  0  0  0  0  0  0  0  0  0
    4.5160  -17.1270  -43.6220 H   0  0  0  0  0  0  0  0  0  0  0  0
    7.7130  -19.8960  -43.5970 H   0  0  0  0  0  0  0  0  0  0  0  0
    9.2780  -18.0470  -43.2040 H   0  0  0  0  0  0  0  0  0  0  0  0
    5.0100  -22.9940  -43.0060 H   0  0  0  0  0  0  0  0  0  0  0  0
    6.3620  -22.2860  -43.8910 H   0  0  0  0  0  0  0  0  0  0  0  0
    6.6880  -22.9390  -41.3930 H   0  0  0  0  0  0  0  0  0  0  0  0
    7.0990  -21.2340  -41.7200 H   0  0  0  0  0  0  0  0  0  0  0  0
    4.9510  -23.0990  -39.1740 H   0  0  0  0  0  0  0  0  0  0  0  0
    7.1280  -19.4480  -38.9120 H   0  0  0  0  0  0  0  0  0  0  0  0
    3.1850  -21.1360  -40.4390 H   0  0  0  0  0  0  0  0  0  0  0  0
    3.5220  -22.7580  -41.0600 H   0  0  0  0  0  0  0  0  0  0  0  0
    3.0100  -21.9510  -43.1240 H   0  0  0  0  0  0  0  0  0  0  0  0
    2.8900  -20.2620  -42.5470 H   0  0  0  0  0  0  0  0  0  0  0  0
  2  3  2  0  0  0  0
  2  1  1  0  0  0  0
  3 27  1  0  0  0  0
  4  3  1  0  0  0  0
  5  6  2  0  0  0  0
  5  4  1  0  0  0  0
  6  2  1  0  0  0  0
  7  4  1  0  0  0  0
  8 29  1  0  0  0  0
  8  7  1  0  0  0  0
  9  8  2  0  0  0  0
 10 11  2  0  0  0  0
 10  9  1  0  0  0  0
 11 12  1  0  0  0  0
 12 32  1  0  0  0  0
 12  7  2  0  0  0  0
 13 10  1  0  0  0  0
 13 15  1  0  0  0  0
 14 13  2  0  0  0  0
 15 16  1  0  0  0  0
 15 26  1  0  0  0  0
 16 33  1  0  0  0  0
 16 17  1  0  0  0  0
 17 35  1  0  0  0  0
 17 18  1  0  0  0  0
 18 23  1  0  0  0  0
 18 19  1  0  0  0  0
 19 37  1  0  0  0  0
 19 20  1  0  0  0  0
 20 21  2  0  0  0  0
 22 38  1  0  0  0  0
 22 20  1  0  0  0  0
 23 22  1  0  0  0  0
 24 23  2  0  0  0  0
 25 40  1  0  0  0  0
 25 18  1  0  0  0  0
 25 39  1  0  0  0  0
 26 25  1  0  0  0  0
 28  6  1  0  0  0  0
 30  9  1  0  0  0  0
 31 11  1  0  0  0  0
 34 16  1  0  0  0  0
 36 17  1  0  0  0  0
 41 26  1  0  0  0  0
 42 26  1  0  0  0  0
M  END
>  <Pose>
1

>  <Score>
-4.25

$$$$
