
 OpenBabel03232221553D

 41 44  0  0  0  0  0  0  0  0999 V2000
    1.1540  -12.5580  -37.4060 B   0  0  0  0  0  0  0  0  0  0  0  0
    1.3940  -14.4500  -37.2730 C   0  0  0  0  0  0  0  0  0  0  0  0
    1.8850  -15.1950  -38.3120 C   0  0  0  0  0  0  0  0  0  0  0  0
    2.0500  -16.5170  -38.1930 N   0  0  0  0  0  0  0  0  0  0  0  0
    1.7550  -17.2160  -37.0640 C   0  0  0  0  0  0  0  0  0  0  0  0
    1.2520  -16.4460  -36.0090 C   0  0  0  0  0  0  0  0  0  0  0  0
    1.0720  -15.0920  -36.1000 C   0  0  0  0  0  0  0  0  0  0  0  0
    1.9650  -18.6120  -36.9850 N   0  0  0  0  0  0  0  0  0  0  0  0
    1.7840  -19.3820  -38.1590 C   0  0  0  0  0  0  0  0  0  0  0  0
    2.6700  -20.0200  -38.8640 C   0  0  0  0  0  0  0  0  0  0  0  0
    1.9490  -20.6490  -39.9720 C   0  0  0  0  0  0  0  0  0  0  0  0
    2.5060  -21.3600  -40.8660 O   0  0  0  0  0  0  0  0  0  0  0  0
    0.5460  -20.3550  -39.9070 N   0  0  0  0  0  0  0  0  0  0  0  0
    0.4290  -19.5380  -38.7420 C   0  0  0  0  0  0  0  0  0  0  0  0
   -0.6360  -19.0400  -38.2930 O   0  0  0  0  0  0  0  0  0  0  0  0
   -0.4720  -20.7910  -40.7930 C   0  0  0  0  0  0  0  0  0  0  0  0
   -0.3740  -20.7030  -42.1580 C   0  0  0  0  0  0  0  0  0  0  0  0
   -1.4010  -21.1630  -43.0090 C   0  0  0  0  0  0  0  0  0  0  0  0
   -2.5440  -21.7210  -42.4840 C   0  0  0  0  0  0  0  0  0  0  0  0
   -2.6460  -21.8120  -41.1190 C   0  0  0  0  0  0  0  0  0  0  0  0
   -1.6210  -21.3520  -40.2920 C   0  0  0  0  0  0  0  0  0  0  0  0
    4.0810  -20.1120  -38.6520 N   0  0  0  0  0  0  0  0  0  0  0  0
    4.7480  -19.0750  -38.1140 C   0  0  0  0  0  0  0  0  0  0  0  0
    6.1360  -19.1300  -37.8990 C   0  0  0  0  0  0  0  0  0  0  0  0
    6.8410  -20.2680  -38.2460 C   0  0  0  0  0  0  0  0  0  0  0  0
    6.1350  -21.3160  -38.7960 C   0  0  0  0  0  0  0  0  0  0  0  0
    4.7820  -21.2230  -38.9870 C   0  0  0  0  0  0  0  0  0  0  0  0
    2.1330  -14.6950  -39.2330 H   0  0  0  0  0  0  0  0  0  0  0  0
    1.0060  -16.9860  -35.0970 H   0  0  0  0  0  0  0  0  0  0  0  0
    0.6810  -14.4890  -35.2780 H   0  0  0  0  0  0  0  0  0  0  0  0
    2.2380  -19.0550  -36.1080 H   0  0  0  0  0  0  0  0  0  0  0  0
    0.5110  -20.2670  -42.5940 H   0  0  0  0  0  0  0  0  0  0  0  0
   -1.2770  -21.0700  -44.0850 H   0  0  0  0  0  0  0  0  0  0  0  0
   -3.3300  -22.0740  -43.1520 H   0  0  0  0  0  0  0  0  0  0  0  0
   -3.5440  -22.2480  -40.6970 H   0  0  0  0  0  0  0  0  0  0  0  0
   -1.7690  -21.4610  -39.2300 H   0  0  0  0  0  0  0  0  0  0  0  0
    4.1740  -18.1940  -37.8480 H   0  0  0  0  0  0  0  0  0  0  0  0
    6.6340  -18.2650  -37.4570 H   0  0  0  0  0  0  0  0  0  0  0  0
    7.9230  -20.3250  -38.0870 H   0  0  0  0  0  0  0  0  0  0  0  0
    6.6750  -22.2060  -39.0720 H   0  0  0  0  0  0  0  0  0  0  0  0
    4.2090  -22.0560  -39.4250 H   0  0  0  0  0  0  0  0  0  0  0  0
  1  2  1  0  0  0  0
  2  7  1  0  0  0  0
  3  4  1  0  0  0  0
  3  2  2  0  0  0  0
  4  5  2  0  0  0  0
  5  8  1  0  0  0  0
  5  6  1  0  0  0  0
  6 29  1  0  0  0  0
  7  6  2  0  0  0  0
  7 30  1  0  0  0  0
  8 31  1  0  0  0  0
  9  8  1  0  0  0  0
 10 22  1  0  0  0  0
 10  9  2  0  0  0  0
 11 13  1  0  0  0  0
 11 10  1  0  0  0  0
 12 11  2  0  0  0  0
 13 14  1  0  0  0  0
 14 15  2  0  0  0  0
 14  9  1  0  0  0  0
 16 21  1  0  0  0  0
 16 13  1  0  0  0  0
 17 16  2  0  0  0  0
 18 19  2  0  0  0  0
 18 17  1  0  0  0  0
 19 20  1  0  0  0  0
 20 35  1  0  0  0  0
 20 21  2  0  0  0  0
 21 36  1  0  0  0  0
 22 23  1  0  0  0  0
 23 24  1  0  0  0  0
 23 37  1  0  0  0  0
 24 38  1  0  0  0  0
 25 39  1  0  0  0  0
 25 24  2  0  0  0  0
 26 25  1  0  0  0  0
 27 26  2  0  0  0  0
 27 22  1  0  0  0  0
 28  3  1  0  0  0  0
 32 17  1  0  0  0  0
 33 18  1  0  0  0  0
 34 19  1  0  0  0  0
 40 26  1  0  0  0  0
 41 27  1  0  0  0  0
M  END
>  <Pose>
1

>  <Score>
-4.10

$$$$
