
 OpenBabel03232221553D

 43 46  0  0  0  0  0  0  0  0999 V2000
    0.7770  -19.8700  -38.5960 B   0  0  0  0  0  0  0  0  0  0  0  0
    2.6640  -19.7030  -38.3520 C   0  0  0  0  0  0  0  0  0  0  0  0
    3.1650  -19.0130  -37.2940 C   0  0  0  0  0  0  0  0  0  0  0  0
    4.4780  -18.8880  -37.1100 N   0  0  0  0  0  0  0  0  0  0  0  0
    5.3280  -19.4510  -37.9820 C   0  0  0  0  0  0  0  0  0  0  0  0
    4.8710  -20.1680  -39.0820 C   0  0  0  0  0  0  0  0  0  0  0  0
    3.5160  -20.3020  -39.2780 C   0  0  0  0  0  0  0  0  0  0  0  0
    5.8550  -20.7460  -39.9660 C   0  0  0  0  0  0  0  0  0  0  0  0
    6.1910  -21.9370  -39.8530 O   0  0  0  0  0  0  0  0  0  0  0  0
    6.4880  -19.9340  -41.0260 N   0  0  0  0  0  0  0  0  0  0  0  0
    6.2020  -20.3260  -42.3360 C   0  0  0  0  0  0  0  0  0  0  0  0
    6.3580  -21.6620  -42.8720 C   0  0  0  0  0  0  0  0  0  0  0  0
    7.6680  -21.8490  -43.4400 C   0  0  0  0  0  0  0  0  0  0  0  0
    7.9950  -23.0290  -44.0000 C   0  0  0  0  0  0  0  0  0  0  0  0
    7.0760  -24.0930  -44.0410 C   0  0  0  0  0  0  0  0  0  0  0  0
    5.8230  -23.9330  -43.5010 C   0  0  0  0  0  0  0  0  0  0  0  0
    5.4720  -22.7080  -42.9130 C   0  0  0  0  0  0  0  0  0  0  0  0
    4.1560  -22.5480  -42.2410 C   0  0  0  0  0  0  0  0  0  0  0  0
    3.4790  -23.8710  -41.9000 C   0  0  0  0  0  0  0  0  0  0  0  0
    3.5190  -24.7940  -43.0110 N   0  0  0  0  0  0  0  0  0  0  0  0
    4.8300  -25.0020  -43.5550 C   0  0  0  0  0  0  0  0  0  0  0  0
    5.0510  -26.1220  -44.0590 O   0  0  0  0  0  0  0  0  0  0  0  0
    2.3370  -25.4480  -43.5290 C   0  0  0  0  0  0  0  0  0  0  0  0
    7.4780  -25.2400  -44.6180 O   0  0  0  0  0  0  0  0  0  0  0  0
    9.3150  -22.9170  -44.4620 O   0  0  0  0  0  0  0  0  0  0  0  0
    9.7280  -21.5670  -44.4120 C   0  0  0  0  0  0  0  0  0  0  0  0
    8.7680  -20.9930  -43.5470 O   0  0  0  0  0  0  0  0  0  0  0  0
    2.5220  -18.5260  -36.5410 H   0  0  0  0  0  0  0  0  0  0  0  0
    6.4050  -19.3710  -37.8640 H   0  0  0  0  0  0  0  0  0  0  0  0
    3.1300  -20.8540  -40.1180 H   0  0  0  0  0  0  0  0  0  0  0  0
    7.0910  -19.2020  -40.6250 H   0  0  0  0  0  0  0  0  0  0  0  0
    5.1000  -19.9830  -42.5410 H   0  0  0  0  0  0  0  0  0  0  0  0
    6.7160  -19.5600  -43.0570 H   0  0  0  0  0  0  0  0  0  0  0  0
    3.4260  -21.9790  -42.8250 H   0  0  0  0  0  0  0  0  0  0  0  0
    4.2830  -22.0800  -41.2350 H   0  0  0  0  0  0  0  0  0  0  0  0
    2.4290  -23.6010  -41.6280 H   0  0  0  0  0  0  0  0  0  0  0  0
    4.0240  -24.2860  -41.0230 H   0  0  0  0  0  0  0  0  0  0  0  0
    1.7920  -24.6820  -44.1350 H   0  0  0  0  0  0  0  0  0  0  0  0
    1.6750  -25.7520  -42.6990 H   0  0  0  0  0  0  0  0  0  0  0  0
    2.6300  -26.2640  -44.2030 H   0  0  0  0  0  0  0  0  0  0  0  0
    7.6360  -25.4720  -45.5380 H   0  0  0  0  0  0  0  0  0  0  0  0
   10.7600  -21.4620  -44.0180 H   0  0  0  0  0  0  0  0  0  0  0  0
    9.6720  -21.1690  -45.4380 H   0  0  0  0  0  0  0  0  0  0  0  0
  1  2  1  0  0  0  0
  2  3  1  0  0  0  0
  3  4  2  0  0  0  0
  3 28  1  0  0  0  0
  5 29  1  0  0  0  0
  5  4  1  0  0  0  0
  6  5  2  0  0  0  0
  7  6  1  0  0  0  0
  7  2  2  0  0  0  0
  8  9  2  0  0  0  0
  8  6  1  0  0  0  0
 10 31  1  0  0  0  0
 10  8  1  0  0  0  0
 11 10  1  0  0  0  0
 12 11  1  0  0  0  0
 13 12  2  0  0  0  0
 14 13  1  0  0  0  0
 15 14  2  0  0  0  0
 15 16  1  0  0  0  0
 16 17  2  0  0  0  0
 17 12  1  0  0  0  0
 17 18  1  0  0  0  0
 18 19  1  0  0  0  0
 18 35  1  0  0  0  0
 19 36  1  0  0  0  0
 19 37  1  0  0  0  0
 20 19  1  0  0  0  0
 21 16  1  0  0  0  0
 21 20  1  0  0  0  0
 22 21  2  0  0  0  0
 23 20  1  0  0  0  0
 23 39  1  0  0  0  0
 24 15  1  0  0  0  0
 25 26  1  0  0  0  0
 25 14  1  0  0  0  0
 26 42  1  0  0  0  0
 26 27  1  0  0  0  0
 27 13  1  0  0  0  0
 30  7  1  0  0  0  0
 32 11  1  0  0  0  0
 33 11  1  0  0  0  0
 34 18  1  0  0  0  0
 38 23  1  0  0  0  0
 40 23  1  0  0  0  0
 41 24  1  0  0  0  0
 43 26  1  0  0  0  0
M  END
>  <Pose>
1

>  <Score>
-4.98

$$$$
