
 OpenBabel03232221553D

 48 41  0  0  1  0  0  0  0  0999 V2000
    5.5850  -19.6340  -38.5680 B   0  0  0  0  0  0  0  0  0  0  0  0
    4.9490  -20.7290  -39.9690 C   0  0  0  0  0  0  0  0  0  0  0  0
    5.8170  -21.6000  -40.6100 C   0  0  0  0  0  0  0  0  0  0  0  0
    5.3180  -22.3570  -41.5980 N   0  0  0  0  0  0  0  0  0  0  0  0
    4.0370  -22.3200  -41.9980 C   0  0  0  0  0  0  0  0  0  0  0  0
    3.1850  -21.4540  -41.3590 C   0  0  0  0  0  0  0  0  0  0  0  0
    3.6210  -20.6380  -40.3280 C   0  0  1  0  0  0  0  0  0  0  0  0
    1.7900  -21.3850  -41.7630 C   0  0  0  0  0  0  0  0  0  0  0  0
    1.3710  -22.0650  -42.7420 O   0  0  0  0  0  0  0  0  0  0  0  0
    0.8850  -20.5790  -41.0960 O   0  0  0  0  0  0  0  0  0  0  0  0
    5.1490  -22.1600  -39.4890 N   0  0  0  0  0  0  0  0  0  0  0  0
    5.6420  -22.0690  -40.8530 C   0  0  0  0  0  0  0  0  0  0  0  0
    5.0020  -20.9290  -41.6140 C   0  0  0  0  0  0  0  0  0  0  0  0
    3.7350  -21.4080  -42.3000 C   0  0  0  0  0  0  0  0  0  0  0  0
    2.6150  -21.5840  -41.2990 C   0  0  0  0  0  0  0  0  0  0  0  0
    2.9870  -20.9370  -40.0300 C   0  0  0  0  0  0  0  0  0  0  0  0
    4.0930  -21.2030  -39.2590 C   0  0  1  0  0  0  0  0  0  0  0  0
    4.2830  -20.5200  -38.1280 N   0  0  0  0  0  0  0  0  0  0  0  0
    3.4310  -19.5800  -37.7110 C   0  0  0  0  0  0  0  0  0  0  0  0
    2.3200  -19.2980  -38.4640 C   0  0  0  0  0  0  0  0  0  0  0  0
    2.0970  -19.9880  -39.6390 C   0  0  0  0  0  0  0  0  0  0  0  0
    0.9270  -19.6770  -40.4120 N   0  0  0  0  0  0  0  0  0  0  0  0
    1.3990  -18.3280  -38.0780 C   0  0  0  0  0  0  0  0  0  0  0  0
    1.6340  -17.6500  -36.9070 C   0  0  0  0  0  0  0  0  0  0  0  0
    2.7460  -17.9330  -36.1540 C   0  0  0  0  0  0  0  0  0  0  0  0
    3.6620  -18.9070  -36.5500 C   0  0  0  0  0  0  0  0  0  0  0  0
    6.2510  -21.8150  -38.5970 C   0  0  0  0  0  0  0  0  0  0  0  0
    6.8460  -21.6390  -40.2950 H   0  0  0  0  0  0  0  0  0  0  0  0
    3.7110  -22.9570  -42.7980 H   0  0  0  0  0  0  0  0  0  0  0  0
    2.9830  -19.9570  -39.8120 H   0  0  0  0  0  0  0  0  0  0  0  0
    4.8120  -23.1300  -39.2860 H   0  0  0  0  0  0  0  0  0  0  0  0
    5.4890  -22.9960  -41.4270 H   0  0  0  0  0  0  0  0  0  0  0  0
    6.7460  -21.8770  -40.8720 H   0  0  0  0  0  0  0  0  0  0  0  0
    5.6950  -20.6190  -42.4250 H   0  0  0  0  0  0  0  0  0  0  0  0
    4.7960  -20.1240  -40.8890 H   0  0  0  0  0  0  0  0  0  0  0  0
    3.4680  -20.6900  -43.0770 H   0  0  0  0  0  0  0  0  0  0  0  0
    3.9510  -22.3870  -42.7540 H   0  0  0  0  0  0  0  0  0  0  0  0
    1.6820  -21.1600  -41.7230 H   0  0  0  0  0  0  0  0  0  0  0  0
    2.3890  -22.6780  -41.1390 H   0  0  0  0  0  0  0  0  0  0  0  0
    0.6930  -18.6920  -40.6130 H   0  0  0  0  0  0  0  0  0  0  0  0
    0.3040  -20.4340  -40.7750 H   0  0  0  0  0  0  0  0  0  0  0  0
    0.5360  -18.1290  -38.6910 H   0  0  0  0  0  0  0  0  0  0  0  0
    0.9430  -16.8850  -36.5660 H   0  0  0  0  0  0  0  0  0  0  0  0
    2.9350  -17.4070  -35.2370 H   0  0  0  0  0  0  0  0  0  0  0  0
    4.5440  -19.1470  -35.9740 H   0  0  0  0  0  0  0  0  0  0  0  0
    7.1570  -22.3040  -38.9900 H   0  0  0  0  0  0  0  0  0  0  0  0
    6.0110  -22.0740  -37.5550 H   0  0  0  0  0  0  0  0  0  0  0  0
    6.4150  -20.7110  -38.6790 H   0  0  0  0  0  0  0  0  0  0  0  0
  1 18  1  0  0  0  0
  2 17  1  0  0  0  0
  4 32  1  0  0  0  0
  4 12  1  0  0  0  0
  6 15  1  0  0  0  0
  7 16  1  6  0  0  0
  7  2  1  0  0  0  0
  7 17  1  0  0  0  0
  8 15  1  0  0  0  0
  9  8  2  0  0  0  0
 10 41  1  0  0  0  0
 11 31  1  0  0  0  0
 11 27  1  0  0  0  0
 12  3  1  0  0  0  0
 13  4  1  0  0  0  0
 13 35  1  0  0  0  0
 14  5  1  0  0  0  0
 14  6  1  0  0  0  0
 17 11  1  1  0  0  0
 17 18  1  0  0  0  0
 18 19  1  0  0  0  0
 19 26  1  0  0  0  0
 20 23  1  0  0  0  0
 20 19  2  0  0  0  0
 21 20  1  0  0  0  0
 23 24  2  0  0  0  0
 24 43  1  0  0  0  0
 24 25  1  0  0  0  0
 25 44  1  0  0  0  0
 26 25  2  0  0  0  0
 26 45  1  0  0  0  0
 27 47  1  0  0  0  0
 30 21  1  0  0  0  0
 33  3  1  0  0  0  0
 34 13  1  0  0  0  0
 36 14  1  0  0  0  0
 37  5  1  0  0  0  0
 40 22  1  0  0  0  0
 42 23  1  0  0  0  0
 46 27  1  0  0  0  0
 48 27  1  0  0  0  0
M  END
>  <Pose>
1

>  <Score>
-5.03

$$$$
