
 OpenBabel03232221553D

 45 41  0  0  1  0  0  0  0  0999 V2000
    6.0010  -21.2540  -38.9070 B   0  0  0  0  0  0  0  0  0  0  0  0
    4.3740  -20.2640  -38.8630 C   0  0  0  0  0  0  0  0  0  0  0  0
    4.0750  -19.3910  -37.8390 C   0  0  0  0  0  0  0  0  0  0  0  0
    2.9280  -18.6900  -37.8010 N   0  0  0  0  0  0  0  0  0  0  0  0
    2.0440  -18.8470  -38.7970 C   0  0  0  0  0  0  0  0  0  0  0  0
    2.2680  -19.6980  -39.8560 C   0  0  0  0  0  0  0  0  0  0  0  0
    3.4440  -20.4010  -39.8690 C   0  0  0  0  0  0  0  0  0  0  0  0
    1.2960  -19.8570  -40.9310 C   0  0  0  0  0  0  0  0  0  0  0  0
    1.5700  -20.5960  -41.9090 O   0  0  0  0  0  0  0  0  0  0  0  0
    0.0900  -19.1790  -40.8340 O   0  0  0  0  0  0  0  0  0  0  0  0
    0.4060  -18.7190  -38.0870 N   0  0  0  0  0  0  0  0  0  0  0  0
    0.6940  -17.2880  -37.8740 C   0  0  0  0  0  0  0  0  0  0  0  0
    1.3440  -17.1260  -36.5390 C   0  0  0  0  0  0  0  0  0  0  0  0
    2.6380  -17.8940  -36.5200 C   0  0  0  0  0  0  0  0  0  0  0  0
    2.7830  -18.8760  -37.6060 C   0  0  0  0  0  0  0  0  0  0  0  0
    1.7050  -19.2790  -38.3640 C   0  0  2  0  0  0  0  0  0  0  0  0
    1.9060  -20.1720  -39.3310 N   0  0  0  0  0  0  0  0  0  0  0  0
    3.1110  -20.7100  -39.6130 C   0  0  0  0  0  0  0  0  0  0  0  0
    4.2120  -20.3310  -38.8750 C   0  0  0  0  0  0  0  0  0  0  0  0
    4.0530  -19.4090  -37.8640 C   0  0  0  0  0  0  0  0  0  0  0  0
    5.1920  -19.0200  -37.1050 N   0  0  0  0  0  0  0  0  0  0  0  0
    5.4600  -20.8860  -39.1640 C   0  0  2  0  0  0  0  0  0  0  0  0
    5.6410  -21.8090  -40.1700 C   0  0  0  0  0  0  0  0  0  0  0  0
    4.5350  -22.1850  -40.9050 C   0  0  0  0  0  0  0  0  0  0  0  0
    3.2950  -21.6350  -40.6190 C   0  0  0  0  0  0  0  0  0  0  0  0
   -0.4560  -18.7820  -39.2490 C   0  0  0  0  0  0  0  0  0  0  0  0
    4.8240  -19.2920  -37.0440 H   0  0  0  0  0  0  0  0  0  0  0  0
    1.1260  -18.2790  -38.7590 H   0  0  0  0  0  0  0  0  0  0  0  0
    3.6970  -21.0920  -40.6650 H   0  0  0  0  0  0  0  0  0  0  0  0
   -0.0260  -19.1320  -37.2440 H   0  0  0  0  0  0  0  0  0  0  0  0
   -0.2320  -16.6880  -37.8980 H   0  0  0  0  0  0  0  0  0  0  0  0
    1.4020  -17.0050  -38.6870 H   0  0  0  0  0  0  0  0  0  0  0  0
    1.4930  -16.0450  -36.3270 H   0  0  0  0  0  0  0  0  0  0  0  0
    0.6190  -17.5280  -35.7720 H   0  0  0  0  0  0  0  0  0  0  0  0
    3.4580  -17.1340  -36.5270 H   0  0  0  0  0  0  0  0  0  0  0  0
    2.7060  -18.3740  -35.5100 H   0  0  0  0  0  0  0  0  0  0  0  0
    5.7480  -18.2150  -37.4670 H   0  0  0  0  0  0  0  0  0  0  0  0
    5.5020  -19.4720  -36.2330 H   0  0  0  0  0  0  0  0  0  0  0  0
    6.3200  -20.5930  -38.5920 H   0  0  0  0  0  0  0  0  0  0  0  0
    6.6300  -22.2170  -40.3620 H   0  0  0  0  0  0  0  0  0  0  0  0
    4.6930  -22.9110  -41.6910 H   0  0  0  0  0  0  0  0  0  0  0  0
    2.4470  -21.9520  -41.2160 H   0  0  0  0  0  0  0  0  0  0  0  0
    0.1450  -18.4950  -40.1360 H   0  0  0  0  0  0  0  0  0  0  0  0
   -0.8720  -19.8190  -39.3470 H   0  0  0  0  0  0  0  0  0  0  0  0
   -1.2600  -18.0360  -39.0900 H   0  0  0  0  0  0  0  0  0  0  0  0
  1 39  1  0  0  0  0
  2 20  2  0  0  0  0
  5  4  1  0  0  0  0
  6 18  1  0  0  0  0
  6 17  1  0  0  0  0
  7 18  1  0  0  0  0
  7 19  1  0  0  0  0
  8 10  1  0  0  0  0
  8 17  1  0  0  0  0
  9  8  2  0  0  0  0
 10 43  1  0  0  0  0
 11 30  1  0  0  0  0
 12 13  1  0  0  0  0
 13 14  1  0  0  0  0
 13 33  1  0  0  0  0
 13 34  1  0  0  0  0
 14 36  1  0  0  0  0
 15 14  1  0  0  0  0
 16  5  1  6  0  0  0
 16 15  1  0  0  0  0
 17 16  1  0  0  0  0
 20  4  1  0  0  0  0
 21 27  1  0  0  0  0
 21 38  1  0  0  0  0
 22  1  1  0  0  0  0
 22  2  1  1  0  0  0
 23 22  1  0  0  0  0
 24 25  1  0  0  0  0
 24 23  2  0  0  0  0
 26 45  1  0  0  0  0
 26 11  1  0  0  0  0
 28 11  1  0  0  0  0
 29 25  1  0  0  0  0
 31 12  1  0  0  0  0
 32 12  1  0  0  0  0
 35 14  1  0  0  0  0
 37 21  1  0  0  0  0
 40 23  1  0  0  0  0
 41 24  1  0  0  0  0
 42 25  1  0  0  0  0
 44 26  1  0  0  0  0
M  END
>  <Pose>
1

>  <Score>
-4.68

$$$$
