
 OpenBabel03232221553D

 44 47  0  0  1  0  0  0  0  0999 V2000
    8.0740  -21.5340  -43.7200 B   0  0  0  0  0  0  0  0  0  0  0  0
    6.4810  -21.9710  -42.7530 C   0  0  0  0  0  0  0  0  0  0  0  0
    6.0830  -21.2480  -41.6470 C   0  0  0  0  0  0  0  0  0  0  0  0
    4.9310  -21.5530  -40.9410 C   0  0  0  0  0  0  0  0  0  0  0  0
    4.1950  -22.6240  -41.4000 C   0  0  0  0  0  0  0  0  0  0  0  0
    4.5610  -23.3690  -42.4980 C   0  0  0  0  0  0  0  0  0  0  0  0
    5.7150  -23.0500  -43.1940 C   0  0  0  0  0  0  0  0  0  0  0  0
    3.4930  -24.8430  -43.0830 B   0  0  0  0  0  0  0  0  0  0  0  0
    4.7430  -20.6380  -39.8260 C   0  0  0  0  0  0  0  0  0  0  0  0
    3.8130  -20.5850  -38.9480 N   0  0  0  0  0  0  0  0  0  0  0  0
    3.7850  -19.6260  -37.9310 N   0  0  0  0  0  0  0  0  0  0  0  0
    2.8850  -18.5450  -38.0630 C   0  0  0  0  0  0  0  0  0  0  0  0
    2.7280  -17.9840  -39.1660 O   0  0  0  0  0  0  0  0  0  0  0  0
    2.0850  -18.0240  -36.9090 C   0  0  0  0  0  0  0  0  0  0  0  0
    1.3640  -16.8290  -37.2510 N   0  0  0  0  0  0  0  0  0  0  0  0
    0.9150  -15.8940  -36.2800 C   0  0  0  0  0  0  0  0  0  0  0  0
    0.7890  -16.2800  -35.0980 O   0  0  0  0  0  0  0  0  0  0  0  0
    0.5810  -14.4720  -36.5960 C   0  0  2  0  0  0  0  0  0  0  0  0
    0.7160  -14.1950  -37.9590 O   0  0  0  0  0  0  0  0  0  0  0  0
    1.7100  -13.3930  -38.5140 C   0  0  0  0  0  0  0  0  0  0  0  0
    2.3640  -12.5380  -37.6660 C   0  0  0  0  0  0  0  0  0  0  0  0
    3.3630  -11.7220  -38.1950 C   0  0  0  0  0  0  0  0  0  0  0  0
    3.7100  -11.7460  -39.5270 C   0  0  0  0  0  0  0  0  0  0  0  0
    3.0290  -12.6210  -40.3510 C   0  0  0  0  0  0  0  0  0  0  0  0
    2.0420  -13.4280  -39.8350 C   0  0  0  0  0  0  0  0  0  0  0  0
    2.0260  -12.5060  -36.3410 O   0  0  0  0  0  0  0  0  0  0  0  0
    1.2830  -13.5080  -35.7050 C   0  0  0  0  0  0  0  0  0  0  0  0
    5.8800  -19.7120  -39.8780 C   0  0  0  0  0  0  0  0  0  0  0  0
    6.0560  -18.7700  -39.0590 O   0  0  0  0  0  0  0  0  0  0  0  0
    6.6530  -20.1220  -40.9880 N   0  0  0  0  0  0  0  0  0  0  0  0
    3.2920  -22.9000  -40.8830 H   0  0  0  0  0  0  0  0  0  0  0  0
    6.0160  -23.6120  -44.0480 H   0  0  0  0  0  0  0  0  0  0  0  0
    4.4350  -19.7610  -37.1270 H   0  0  0  0  0  0  0  0  0  0  0  0
    1.3500  -18.8230  -36.6720 H   0  0  0  0  0  0  0  0  0  0  0  0
    2.7220  -17.8930  -36.0060 H   0  0  0  0  0  0  0  0  0  0  0  0
    1.1400  -16.5960  -38.2470 H   0  0  0  0  0  0  0  0  0  0  0  0
   -0.5260  -14.3980  -36.3810 H   0  0  0  0  0  0  0  0  0  0  0  0
    3.8660  -11.0540  -37.5060 H   0  0  0  0  0  0  0  0  0  0  0  0
    4.4900  -11.0980  -39.8950 H   0  0  0  0  0  0  0  0  0  0  0  0
    3.3120  -12.6360  -41.4180 H   0  0  0  0  0  0  0  0  0  0  0  0
    1.5240  -14.1030  -40.5030 H   0  0  0  0  0  0  0  0  0  0  0  0
    0.5430  -13.0080  -35.0070 H   0  0  0  0  0  0  0  0  0  0  0  0
    1.9860  -14.0640  -35.0420 H   0  0  0  0  0  0  0  0  0  0  0  0
    7.5280  -19.6610  -41.2890 H   0  0  0  0  0  0  0  0  0  0  0  0
  1  2  1  0  0  0  0
  2  3  1  0  0  0  0
  3 30  1  0  0  0  0
  3  4  2  0  0  0  0
  4  9  1  0  0  0  0
  5  4  1  0  0  0  0
  5 31  1  0  0  0  0
  6  5  2  0  0  0  0
  7  2  2  0  0  0  0
  7  6  1  0  0  0  0
  8  6  1  0  0  0  0
  9 10  2  0  0  0  0
 10 11  1  0  0  0  0
 11 33  1  0  0  0  0
 12 11  1  0  0  0  0
 12 14  1  0  0  0  0
 13 12  2  0  0  0  0
 14 34  1  0  0  0  0
 14 35  1  0  0  0  0
 15 14  1  0  0  0  0
 15 16  1  0  0  0  0
 16 17  2  0  0  0  0
 18 37  1  1  0  0  0
 18 16  1  0  0  0  0
 18 27  1  0  0  0  0
 19 18  1  0  0  0  0
 20 19  1  0  0  0  0
 20 21  1  0  0  0  0
 21 26  1  0  0  0  0
 22 21  2  0  0  0  0
 22 38  1  0  0  0  0
 23 22  1  0  0  0  0
 24 25  1  0  0  0  0
 24 23  2  0  0  0  0
 25 20  2  0  0  0  0
 26 27  1  0  0  0  0
 27 43  1  0  0  0  0
 27 42  1  0  0  0  0
 28  9  1  0  0  0  0
 28 29  2  0  0  0  0
 30 28  1  0  0  0  0
 32  7  1  0  0  0  0
 36 15  1  0  0  0  0
 39 23  1  0  0  0  0
 40 24  1  0  0  0  0
 41 25  1  0  0  0  0
 44 30  1  0  0  0  0
M  END
>  <Pose>
1

>  <Score>
-5.41

$$$$
