
 OpenBabel03232221553D

 31 34  0  0  0  0  0  0  0  0999 V2000
    1.0190  -25.4430  -43.0820 B   0  0  0  0  0  0  0  0  0  0  0  0
    2.8020  -24.7370  -43.1850 C   0  0  0  0  0  0  0  0  0  0  0  0
    3.7090  -25.4130  -43.9740 C   0  0  0  0  0  0  0  0  0  0  0  0
    4.9840  -24.9090  -44.0490 C   0  0  0  0  0  0  0  0  0  0  0  0
    5.3310  -23.7550  -43.3440 C   0  0  0  0  0  0  0  0  0  0  0  0
    4.4340  -23.0730  -42.5540 C   0  0  0  0  0  0  0  0  0  0  0  0
    3.1390  -23.5960  -42.4860 C   0  0  0  0  0  0  0  0  0  0  0  0
    4.7740  -21.8420  -41.7960 C   0  0  0  0  0  0  0  0  0  0  0  0
    4.7010  -22.1150  -40.3810 N   0  0  0  0  0  0  0  0  0  0  0  0
    5.1650  -21.1060  -39.4650 C   0  0  0  0  0  0  0  0  0  0  0  0
    6.4520  -20.7330  -39.4400 N   0  0  0  0  0  0  0  0  0  0  0  0
    6.8770  -19.7890  -38.5820 C   0  0  0  0  0  0  0  0  0  0  0  0
    6.0000  -19.1710  -37.6950 C   0  0  0  0  0  0  0  0  0  0  0  0
    4.7220  -19.5470  -37.7260 N   0  0  0  0  0  0  0  0  0  0  0  0
    4.2890  -20.5000  -38.5920 C   0  0  0  0  0  0  0  0  0  0  0  0
    2.9720  -20.6640  -38.3930 N   0  0  0  0  0  0  0  0  0  0  0  0
    2.5580  -19.8510  -37.4350 N   0  0  0  0  0  0  0  0  0  0  0  0
    3.6330  -19.1700  -37.0310 C   0  0  0  0  0  0  0  0  0  0  0  0
    5.6940  -25.7610  -44.8960 O   0  0  0  0  0  0  0  0  0  0  0  0
    5.0100  -27.0240  -44.8970 C   0  0  0  0  0  0  0  0  0  0  0  0
    3.6570  -26.5600  -44.7750 O   0  0  0  0  0  0  0  0  0  0  0  0
    6.3370  -23.4000  -43.4280 H   0  0  0  0  0  0  0  0  0  0  0  0
    2.3900  -23.1090  -41.8850 H   0  0  0  0  0  0  0  0  0  0  0  0
    3.9930  -21.0660  -42.0180 H   0  0  0  0  0  0  0  0  0  0  0  0
    5.7620  -21.4320  -42.0940 H   0  0  0  0  0  0  0  0  0  0  0  0
    4.3280  -23.0060  -40.0140 H   0  0  0  0  0  0  0  0  0  0  0  0
    7.9040  -19.4720  -38.5410 H   0  0  0  0  0  0  0  0  0  0  0  0
    6.3430  -18.4200  -37.0120 H   0  0  0  0  0  0  0  0  0  0  0  0
    3.5950  -18.4200  -36.2420 H   0  0  0  0  0  0  0  0  0  0  0  0
    5.1790  -27.5910  -45.8100 H   0  0  0  0  0  0  0  0  0  0  0  0
    5.2550  -27.5610  -43.9600 H   0  0  0  0  0  0  0  0  0  0  0  0
  2  1  1  0  0  0  0
  2  7  1  0  0  0  0
  3  2  2  0  0  0  0
  4  3  1  0  0  0  0
  4  5  2  0  0  0  0
  5  6  1  0  0  0  0
  6  7  2  0  0  0  0
  6  8  1  0  0  0  0
  7 23  1  0  0  0  0
  8  9  1  0  0  0  0
  9 26  1  0  0  0  0
  9 10  1  0  0  0  0
 10 11  2  0  0  0  0
 10 15  1  0  0  0  0
 11 12  1  0  0  0  0
 12 27  1  0  0  0  0
 12 13  2  0  0  0  0
 13 28  1  0  0  0  0
 14 13  1  0  0  0  0
 14 18  1  0  0  0  0
 15 16  2  0  0  0  0
 15 14  1  0  0  0  0
 16 17  1  0  0  0  0
 17 18  2  0  0  0  0
 18 29  1  0  0  0  0
 19  4  1  0  0  0  0
 20 19  1  0  0  0  0
 20 21  1  0  0  0  0
 20 31  1  0  0  0  0
 21  3  1  0  0  0  0
 22  5  1  0  0  0  0
 24  8  1  0  0  0  0
 25  8  1  0  0  0  0
 30 20  1  0  0  0  0
M  END
>  <Pose>
1

>  <Score>
-4.77

$$$$
