
 OpenBabel03232221553D

 46 49  0  0  0  0  0  0  0  0999 V2000
   -1.1260  -18.0620  -36.6490 B   0  0  0  0  0  0  0  0  0  0  0  0
   -0.3910  -16.2840  -36.7920 C   0  0  0  0  0  0  0  0  0  0  0  0
    0.7620  -15.9280  -37.3890 N   0  0  0  0  0  0  0  0  0  0  0  0
    0.9290  -14.6010  -37.2810 C   0  0  0  0  0  0  0  0  0  0  0  0
   -0.1590  -14.1040  -36.5910 C   0  0  0  0  0  0  0  0  0  0  0  0
   -0.9400  -15.1560  -36.3100 N   0  0  0  0  0  0  0  0  0  0  0  0
   -0.2280  -12.7790  -36.3550 N   0  0  0  0  0  0  0  0  0  0  0  0
    0.7250  -11.9130  -36.7660 C   0  0  0  0  0  0  0  0  0  0  0  0
    0.6220  -10.6730  -36.5230 O   0  0  0  0  0  0  0  0  0  0  0  0
    1.7980  -12.3620  -37.4420 N   0  0  0  0  0  0  0  0  0  0  0  0
    1.8760  -13.6820  -37.6830 C   0  0  0  0  0  0  0  0  0  0  0  0
    2.8670  -14.1080  -38.3100 O   0  0  0  0  0  0  0  0  0  0  0  0
    2.8070  -11.4130  -37.8740 C   0  0  0  0  0  0  0  0  0  0  0  0
   -1.3730  -12.2670  -35.6300 C   0  0  0  0  0  0  0  0  0  0  0  0
    1.6260  -16.8620  -38.0290 C   0  0  0  0  0  0  0  0  0  0  0  0
    1.5810  -18.2680  -37.5530 C   0  0  0  0  0  0  0  0  0  0  0  0
    1.9370  -19.2880  -38.4820 N   0  0  0  0  0  0  0  0  0  0  0  0
    3.1880  -19.7730  -38.6780 C   0  0  0  0  0  0  0  0  0  0  0  0
    3.1540  -20.7390  -39.6530 C   0  0  0  0  0  0  0  0  0  0  0  0
    1.8660  -20.8170  -40.0260 N   0  0  0  0  0  0  0  0  0  0  0  0
    1.1310  -19.9440  -39.3220 C   0  0  0  0  0  0  0  0  0  0  0  0
   -0.7670  -19.6360  -39.4570 B   0  0  0  0  0  0  0  0  0  0  0  0
    4.2580  -21.4130  -40.0730 N   0  0  0  0  0  0  0  0  0  0  0  0
    5.4240  -21.0920  -39.4830 C   0  0  0  0  0  0  0  0  0  0  0  0
    6.4550  -21.7100  -39.8630 O   0  0  0  0  0  0  0  0  0  0  0  0
    5.5170  -20.1550  -38.5240 N   0  0  0  0  0  0  0  0  0  0  0  0
    4.4300  -19.4990  -38.1190 C   0  0  0  0  0  0  0  0  0  0  0  0
    4.4490  -18.6100  -37.2260 O   0  0  0  0  0  0  0  0  0  0  0  0
    6.7960  -19.8460  -37.9200 C   0  0  0  0  0  0  0  0  0  0  0  0
    4.1840  -22.4340  -41.1100 C   0  0  0  0  0  0  0  0  0  0  0  0
    3.7630  -11.9280  -38.0790 H   0  0  0  0  0  0  0  0  0  0  0  0
    2.5170  -10.8840  -38.8100 H   0  0  0  0  0  0  0  0  0  0  0  0
    2.9300  -10.6680  -37.0590 H   0  0  0  0  0  0  0  0  0  0  0  0
   -1.0040  -11.4500  -34.9530 H   0  0  0  0  0  0  0  0  0  0  0  0
   -1.8140  -13.0490  -35.0050 H   0  0  0  0  0  0  0  0  0  0  0  0
   -2.0940  -11.8150  -36.3460 H   0  0  0  0  0  0  0  0  0  0  0  0
    1.4580  -16.9110  -39.1470 H   0  0  0  0  0  0  0  0  0  0  0  0
    2.6690  -16.4350  -37.9570 H   0  0  0  0  0  0  0  0  0  0  0  0
    0.5460  -18.4440  -37.1570 H   0  0  0  0  0  0  0  0  0  0  0  0
    2.2220  -18.4030  -36.6260 H   0  0  0  0  0  0  0  0  0  0  0  0
    6.8010  -18.8440  -37.4460 H   0  0  0  0  0  0  0  0  0  0  0  0
    7.0590  -20.5730  -37.1010 H   0  0  0  0  0  0  0  0  0  0  0  0
    7.6140  -19.8160  -38.6850 H   0  0  0  0  0  0  0  0  0  0  0  0
    3.2750  -23.0630  -41.0100 H   0  0  0  0  0  0  0  0  0  0  0  0
    4.2700  -21.9830  -42.1230 H   0  0  0  0  0  0  0  0  0  0  0  0
    5.0440  -23.1170  -40.9470 H   0  0  0  0  0  0  0  0  0  0  0  0
  2  1  1  0  0  0  0
  2  6  2  0  0  0  0
  3  4  1  0  0  0  0
  3  2  1  0  0  0  0
  4  5  2  0  0  0  0
  5  7  1  0  0  0  0
  5  6  1  0  0  0  0
  7 14  1  0  0  0  0
  8  9  2  0  0  0  0
  8  7  1  0  0  0  0
 10  8  1  0  0  0  0
 11 10  1  0  0  0  0
 11  4  1  0  0  0  0
 12 11  2  0  0  0  0
 13 10  1  0  0  0  0
 13 33  1  0  0  0  0
 14 35  1  0  0  0  0
 14 34  1  0  0  0  0
 15 38  1  0  0  0  0
 15 16  1  0  0  0  0
 15  3  1  0  0  0  0
 16 39  1  0  0  0  0
 16 40  1  0  0  0  0
 17 16  1  0  0  0  0
 18 17  1  0  0  0  0
 18 27  1  0  0  0  0
 19 18  2  0  0  0  0
 20 19  1  0  0  0  0
 20 21  2  0  0  0  0
 21 17  1  0  0  0  0
 22 21  1  0  0  0  0
 23 19  1  0  0  0  0
 23 24  1  0  0  0  0
 24 26  1  0  0  0  0
 25 24  2  0  0  0  0
 26 27  1  0  0  0  0
 26 29  1  0  0  0  0
 27 28  2  0  0  0  0
 29 41  1  0  0  0  0
 29 42  1  0  0  0  0
 30 44  1  0  0  0  0
 30 46  1  0  0  0  0
 30 23  1  0  0  0  0
 31 13  1  0  0  0  0
 32 13  1  0  0  0  0
 36 14  1  0  0  0  0
 37 15  1  0  0  0  0
 43 29  1  0  0  0  0
 45 30  1  0  0  0  0
M  END
>  <Pose>
1

>  <Score>
-4.63

$$$$
