
 OpenBabel03232221553D

 43 46  0  0  0  0  0  0  0  0999 V2000
    3.8790  -24.7050  -43.1210 B   0  0  0  0  0  0  0  0  0  0  0  0
    4.5660  -23.1810  -42.2100 C   0  0  0  0  0  0  0  0  0  0  0  0
    5.4290  -22.2940  -42.7940 N   0  0  0  0  0  0  0  0  0  0  0  0
    5.6730  -21.3750  -41.8380 C   0  0  0  0  0  0  0  0  0  0  0  0
    4.9810  -21.6750  -40.6750 C   0  0  0  0  0  0  0  0  0  0  0  0
    4.3010  -22.8100  -40.9490 N   0  0  0  0  0  0  0  0  0  0  0  0
    5.0260  -20.9330  -39.5560 N   0  0  0  0  0  0  0  0  0  0  0  0
    5.7990  -19.8330  -39.5950 C   0  0  0  0  0  0  0  0  0  0  0  0
    5.8770  -19.0950  -38.5560 O   0  0  0  0  0  0  0  0  0  0  0  0
    6.4880  -19.5040  -40.7030 N   0  0  0  0  0  0  0  0  0  0  0  0
    6.4440  -20.2540  -41.8400 C   0  0  0  0  0  0  0  0  0  0  0  0
    7.0870  -19.9330  -42.8600 O   0  0  0  0  0  0  0  0  0  0  0  0
    4.3010  -21.2550  -38.3450 C   0  0  0  0  0  0  0  0  0  0  0  0
    5.9110  -22.3840  -44.1560 C   0  0  0  0  0  0  0  0  0  0  0  0
    6.9990  -23.3990  -44.3500 C   0  0  0  0  0  0  0  0  0  0  0  0
    7.8390  -23.6580  -43.1320 C   0  0  0  0  0  0  0  0  0  0  0  0
    9.2190  -23.9100  -43.5220 N   0  0  0  0  0  0  0  0  0  0  0  0
    9.9390  -25.0460  -43.3770 C   0  0  0  0  0  0  0  0  0  0  0  0
   11.2080  -24.8730  -43.8770 C   0  0  0  0  0  0  0  0  0  0  0  0
   11.2490  -23.6060  -44.3310 N   0  0  0  0  0  0  0  0  0  0  0  0
   10.0460  -23.0320  -44.1120 C   0  0  0  0  0  0  0  0  0  0  0  0
    9.5350  -21.2470  -44.5550 B   0  0  0  0  0  0  0  0  0  0  0  0
   12.1500  -25.8350  -43.8700 N   0  0  0  0  0  0  0  0  0  0  0  0
   11.7940  -27.0270  -43.3320 C   0  0  0  0  0  0  0  0  0  0  0  0
   12.6790  -27.9360  -43.3240 O   0  0  0  0  0  0  0  0  0  0  0  0
   10.5590  -27.2380  -42.8300 N   0  0  0  0  0  0  0  0  0  0  0  0
    9.6220  -26.2670  -42.8430 C   0  0  0  0  0  0  0  0  0  0  0  0
    8.4650  -26.4320  -42.3850 O   0  0  0  0  0  0  0  0  0  0  0  0
   13.4870  -25.6050  -44.4130 C   0  0  0  0  0  0  0  0  0  0  0  0
    7.0910  -18.6550  -40.7500 H   0  0  0  0  0  0  0  0  0  0  0  0
    3.9440  -22.3060  -38.3510 H   0  0  0  0  0  0  0  0  0  0  0  0
    5.0290  -21.2050  -37.4860 H   0  0  0  0  0  0  0  0  0  0  0  0
    3.4240  -20.5970  -38.1820 H   0  0  0  0  0  0  0  0  0  0  0  0
    6.1990  -21.3750  -44.5260 H   0  0  0  0  0  0  0  0  0  0  0  0
    5.0400  -22.7480  -44.7750 H   0  0  0  0  0  0  0  0  0  0  0  0
    7.6290  -23.1670  -45.2380 H   0  0  0  0  0  0  0  0  0  0  0  0
    6.5050  -24.3860  -44.6020 H   0  0  0  0  0  0  0  0  0  0  0  0
    7.8820  -22.7080  -42.5210 H   0  0  0  0  0  0  0  0  0  0  0  0
    7.4550  -24.4790  -42.5290 H   0  0  0  0  0  0  0  0  0  0  0  0
   10.3420  -28.1730  -42.4310 H   0  0  0  0  0  0  0  0  0  0  0  0
   13.4500  -25.4360  -45.5090 H   0  0  0  0  0  0  0  0  0  0  0  0
   13.9640  -24.7180  -43.9540 H   0  0  0  0  0  0  0  0  0  0  0  0
   14.0650  -26.5260  -44.2400 H   0  0  0  0  0  0  0  0  0  0  0  0
  1  2  1  0  0  0  0
  2  6  2  0  0  0  0
  3  2  1  0  0  0  0
  3  4  1  0  0  0  0
  4  5  2  0  0  0  0
  5  7  1  0  0  0  0
  6  5  1  0  0  0  0
  7 13  1  0  0  0  0
  8  7  1  0  0  0  0
  8  9  2  0  0  0  0
 10  8  1  0  0  0  0
 11  4  1  0  0  0  0
 11 10  1  0  0  0  0
 12 11  2  0  0  0  0
 13 33  1  0  0  0  0
 13 32  1  0  0  0  0
 14  3  1  0  0  0  0
 15 14  1  0  0  0  0
 15 16  1  0  0  0  0
 16 39  1  0  0  0  0
 16 38  1  0  0  0  0
 17 18  1  0  0  0  0
 17 16  1  0  0  0  0
 18 27  1  0  0  0  0
 19 23  1  0  0  0  0
 19 18  2  0  0  0  0
 20 21  2  0  0  0  0
 20 19  1  0  0  0  0
 21 17  1  0  0  0  0
 22 21  1  0  0  0  0
 23 24  1  0  0  0  0
 24 25  2  0  0  0  0
 24 26  1  0  0  0  0
 26 40  1  0  0  0  0
 27 26  1  0  0  0  0
 27 28  2  0  0  0  0
 29 43  1  0  0  0  0
 29 42  1  0  0  0  0
 29 23  1  0  0  0  0
 30 10  1  0  0  0  0
 31 13  1  0  0  0  0
 34 14  1  0  0  0  0
 35 14  1  0  0  0  0
 36 15  1  0  0  0  0
 37 15  1  0  0  0  0
 41 29  1  0  0  0  0
M  END
>  <Pose>
1

>  <Score>
-5.83

$$$$
