
 OpenBabel03162216113D

 43 46  0  0  0  0  0  0  0  0999 V2000
    6.8480  -20.1620  -38.2420 B   0  0  0  0  0  0  0  0  0  0  0  0
    5.0370  -19.5900  -38.1030 C   0  0  0  0  0  0  0  0  0  0  0  0
    4.1020  -19.8430  -39.0690 N   0  0  0  0  0  0  0  0  0  0  0  0
    2.9680  -19.2860  -38.6020 C   0  0  0  0  0  0  0  0  0  0  0  0
    3.1800  -18.6920  -37.3690 C   0  0  0  0  0  0  0  0  0  0  0  0
    4.4840  -18.9040  -37.0910 N   0  0  0  0  0  0  0  0  0  0  0  0
    2.2280  -18.0620  -36.6590 N   0  0  0  0  0  0  0  0  0  0  0  0
    0.9990  -18.0230  -37.2040 C   0  0  0  0  0  0  0  0  0  0  0  0
    0.0600  -17.4360  -36.5690 O   0  0  0  0  0  0  0  0  0  0  0  0
    0.7480  -18.5880  -38.3990 N   0  0  0  0  0  0  0  0  0  0  0  0
    1.7110  -19.2270  -39.1210 C   0  0  0  0  0  0  0  0  0  0  0  0
    1.4610  -19.7470  -40.2280 O   0  0  0  0  0  0  0  0  0  0  0  0
    2.4590  -17.4430  -35.3710 C   0  0  0  0  0  0  0  0  0  0  0  0
    4.3550  -20.5780  -40.2920 C   0  0  0  0  0  0  0  0  0  0  0  0
    4.3480  -19.7240  -41.5260 C   0  0  0  0  0  0  0  0  0  0  0  0
    4.0080  -20.4570  -42.7920 C   0  0  0  0  0  0  0  0  0  0  0  0
    5.0960  -21.3550  -43.1560 N   0  0  0  0  0  0  0  0  0  0  0  0
    5.0760  -22.7040  -43.2510 C   0  0  0  0  0  0  0  0  0  0  0  0
    6.3130  -23.1740  -43.6250 C   0  0  0  0  0  0  0  0  0  0  0  0
    7.0910  -22.0830  -43.7550 N   0  0  0  0  0  0  0  0  0  0  0  0
    6.3500  -20.9900  -43.4700 C   0  0  0  0  0  0  0  0  0  0  0  0
    6.9360  -19.1730  -43.4950 B   0  0  0  0  0  0  0  0  0  0  0  0
    6.5940  -24.4790  -43.7990 N   0  0  0  0  0  0  0  0  0  0  0  0
    5.5770  -25.3500  -43.5860 C   0  0  0  0  0  0  0  0  0  0  0  0
    5.8380  -26.5810  -43.7500 O   0  0  0  0  0  0  0  0  0  0  0  0
    4.3480  -24.9310  -43.2190 N   0  0  0  0  0  0  0  0  0  0  0  0
    4.0780  -23.6200  -43.0470 C   0  0  0  0  0  0  0  0  0  0  0  0
    2.9460  -23.1980  -42.7070 O   0  0  0  0  0  0  0  0  0  0  0  0
    7.9250  -24.9330  -44.1960 C   0  0  0  0  0  0  0  0  0  0  0  0
   -0.1980  -18.5660  -38.8350 H   0  0  0  0  0  0  0  0  0  0  0  0
    3.5420  -17.3000  -35.1770 H   0  0  0  0  0  0  0  0  0  0  0  0
    2.0350  -16.4000  -35.4110 H   0  0  0  0  0  0  0  0  0  0  0  0
    2.0360  -18.0280  -34.5310 H   0  0  0  0  0  0  0  0  0  0  0  0
    3.6590  -21.4420  -40.3680 H   0  0  0  0  0  0  0  0  0  0  0  0
    5.4060  -20.9800  -40.2050 H   0  0  0  0  0  0  0  0  0  0  0  0
    5.2890  -19.1410  -41.6330 H   0  0  0  0  0  0  0  0  0  0  0  0
    3.5410  -18.9410  -41.3950 H   0  0  0  0  0  0  0  0  0  0  0  0
    3.1310  -21.1390  -42.5860 H   0  0  0  0  0  0  0  0  0  0  0  0
    3.7780  -19.7820  -43.6150 H   0  0  0  0  0  0  0  0  0  0  0  0
    3.6070  -25.6440  -43.0700 H   0  0  0  0  0  0  0  0  0  0  0  0
    8.1770  -24.5840  -45.2200 H   0  0  0  0  0  0  0  0  0  0  0  0
    8.7050  -24.5490  -43.5110 H   0  0  0  0  0  0  0  0  0  0  0  0
    7.8940  -26.0330  -44.2200 H   0  0  0  0  0  0  0  0  0  0  0  0
  1  2  1  0  0  0  0
  2  6  2  0  0  0  0
  3  4  1  0  0  0  0
  3  2  1  0  0  0  0
  4  5  2  0  0  0  0
  5  6  1  0  0  0  0
  5  7  1  0  0  0  0
  7 13  1  0  0  0  0
  8  7  1  0  0  0  0
  8  9  2  0  0  0  0
 10  8  1  0  0  0  0
 11  4  1  0  0  0  0
 11 10  1  0  0  0  0
 12 11  2  0  0  0  0
 13 31  1  0  0  0  0
 13 33  1  0  0  0  0
 14 35  1  0  0  0  0
 14  3  1  0  0  0  0
 15 37  1  0  0  0  0
 15 14  1  0  0  0  0
 16 38  1  0  0  0  0
 16 15  1  0  0  0  0
 17 16  1  0  0  0  0
 18 17  1  0  0  0  0
 18 27  1  0  0  0  0
 19 18  2  0  0  0  0
 20 19  1  0  0  0  0
 20 21  2  0  0  0  0
 21 17  1  0  0  0  0
 22 21  1  0  0  0  0
 23 19  1  0  0  0  0
 23 24  1  0  0  0  0
 24 26  1  0  0  0  0
 25 24  2  0  0  0  0
 26 40  1  0  0  0  0
 26 27  1  0  0  0  0
 27 28  2  0  0  0  0
 29 23  1  0  0  0  0
 29 42  1  0  0  0  0
 30 10  1  0  0  0  0
 32 13  1  0  0  0  0
 34 14  1  0  0  0  0
 36 15  1  0  0  0  0
 39 16  1  0  0  0  0
 41 29  1  0  0  0  0
 43 29  1  0  0  0  0
M  END
>  <Pose>
1

>  <Score>
-4.71

$$$$
