
 OpenBabel03232221553D

 50 54  0  0  1  0  0  0  0  0999 V2000
   -0.6660  -27.1190  -40.1280 B   0  0  0  0  0  0  0  0  0  0  0  0
    0.1570  -26.1390  -41.5570 C   0  0  0  0  0  0  0  0  0  0  0  0
    1.2580  -25.3680  -41.4990 N   0  0  0  0  0  0  0  0  0  0  0  0
    1.5300  -24.8480  -42.6890 N   0  0  0  0  0  0  0  0  0  0  0  0
    0.5690  -25.3100  -43.5100 C   0  0  0  0  0  0  0  0  0  0  0  0
   -0.2790  -26.1010  -42.8370 N   0  0  0  0  0  0  0  0  0  0  0  0
    2.6370  -23.9600  -43.0390 C   0  0  2  0  0  0  0  0  0  0  0  0
    3.2570  -23.4130  -41.7730 C   0  0  0  0  0  0  0  0  0  0  0  0
    4.5210  -22.6780  -42.1130 C   0  0  2  0  0  0  0  0  0  0  0  0
    4.0950  -21.4540  -42.9360 C   0  0  0  0  0  0  0  0  0  0  0  0
    3.3670  -21.9310  -44.1680 C   0  0  2  0  0  0  0  0  0  0  0  0
    2.1590  -22.7730  -43.8480 C   0  0  0  0  0  0  0  0  0  0  0  0
    4.3240  -22.7030  -45.0190 C   0  0  0  0  0  0  0  0  0  0  0  0
    4.8020  -23.9050  -44.2360 C   0  0  2  0  0  0  0  0  0  0  0  0
    3.6120  -24.7290  -43.8750 C   0  0  0  0  0  0  0  0  0  0  0  0
    5.4760  -23.4540  -42.9580 C   0  0  0  0  0  0  0  0  0  0  0  0
    5.2210  -22.2120  -40.8980 C   0  0  0  0  0  0  0  0  0  0  0  0
    6.4120  -21.8280  -41.0130 O   0  0  0  0  0  0  0  0  0  0  0  0
    4.5650  -22.1980  -39.6330 N   0  0  0  0  0  0  0  0  0  0  0  0
    4.1870  -21.0270  -38.9250 C   0  0  0  0  0  0  0  0  0  0  0  0
    5.0550  -20.0500  -38.5280 C   0  0  0  0  0  0  0  0  0  0  0  0
    4.3270  -19.1050  -37.8870 N   0  0  0  0  0  0  0  0  0  0  0  0
    3.0640  -19.4740  -37.8840 N   0  0  0  0  0  0  0  0  0  0  0  0
    2.9270  -20.6480  -38.5090 C   0  0  0  0  0  0  0  0  0  0  0  0
    4.8040  -17.8720  -37.2850 C   0  0  0  0  0  0  0  0  0  0  0  0
    6.4890  -19.9230  -38.6930 C   0  0  0  0  0  0  0  0  0  0  0  0
    7.2880  -20.5750  -37.9750 O   0  0  0  0  0  0  0  0  0  0  0  0
    7.0930  -19.0720  -39.6580 N   0  0  0  0  0  0  0  0  0  0  0  0
    0.4900  -25.0790  -44.5620 H   0  0  0  0  0  0  0  0  0  0  0  0
    2.5320  -22.6350  -41.3930 H   0  0  0  0  0  0  0  0  0  0  0  0
    3.3600  -24.1490  -40.9770 H   0  0  0  0  0  0  0  0  0  0  0  0
    4.9620  -20.8700  -43.2560 H   0  0  0  0  0  0  0  0  0  0  0  0
    3.4150  -20.8010  -42.3760 H   0  0  0  0  0  0  0  0  0  0  0  0
    3.0200  -21.0480  -44.7340 H   0  0  0  0  0  0  0  0  0  0  0  0
    1.3720  -22.1930  -43.3350 H   0  0  0  0  0  0  0  0  0  0  0  0
    1.7410  -23.1280  -44.8020 H   0  0  0  0  0  0  0  0  0  0  0  0
    5.1740  -22.0510  -45.3340 H   0  0  0  0  0  0  0  0  0  0  0  0
    3.8350  -23.0450  -45.9480 H   0  0  0  0  0  0  0  0  0  0  0  0
    5.5160  -24.5220  -44.8010 H   0  0  0  0  0  0  0  0  0  0  0  0
    3.1000  -25.0510  -44.7920 H   0  0  0  0  0  0  0  0  0  0  0  0
    3.9700  -25.6230  -43.3240 H   0  0  0  0  0  0  0  0  0  0  0  0
    5.8090  -24.3480  -42.3920 H   0  0  0  0  0  0  0  0  0  0  0  0
    6.3010  -22.7840  -43.2500 H   0  0  0  0  0  0  0  0  0  0  0  0
    4.3560  -23.1230  -39.2130 H   0  0  0  0  0  0  0  0  0  0  0  0
    2.0040  -21.2130  -38.6700 H   0  0  0  0  0  0  0  0  0  0  0  0
    3.9370  -17.2100  -37.0960 H   0  0  0  0  0  0  0  0  0  0  0  0
    5.3880  -17.3390  -38.0870 H   0  0  0  0  0  0  0  0  0  0  0  0
    5.3990  -18.0480  -36.3670 H   0  0  0  0  0  0  0  0  0  0  0  0
    7.6490  -19.5280  -40.4390 H   0  0  0  0  0  0  0  0  0  0  0  0
    7.0360  -18.0360  -39.6590 H   0  0  0  0  0  0  0  0  0  0  0  0
  2  3  2  0  0  0  0
  2  1  1  0  0  0  0
  4  3  1  0  0  0  0
  5  6  2  0  0  0  0
  5  4  1  0  0  0  0
  6  2  1  0  0  0  0
  7  4  1  1  0  0  0
  7  8  1  0  0  0  0
  8 30  1  0  0  0  0
  8 31  1  0  0  0  0
  9  8  1  0  0  0  0
  9 17  1  1  0  0  0
 10 33  1  0  0  0  0
 10  9  1  0  0  0  0
 11 34  1  6  0  0  0
 11 12  1  0  0  0  0
 11 10  1  0  0  0  0
 12 35  1  0  0  0  0
 12  7  1  0  0  0  0
 13 14  1  0  0  0  0
 13 11  1  0  0  0  0
 14 39  1  6  0  0  0
 14 15  1  0  0  0  0
 14 16  1  0  0  0  0
 15 41  1  0  0  0  0
 15  7  1  0  0  0  0
 16 42  1  0  0  0  0
 16  9  1  0  0  0  0
 17 19  1  0  0  0  0
 18 17  2  0  0  0  0
 19 44  1  0  0  0  0
 19 20  1  0  0  0  0
 20 21  2  0  0  0  0
 20 24  1  0  0  0  0
 21 22  1  0  0  0  0
 22 23  1  0  0  0  0
 22 25  1  0  0  0  0
 24 23  2  0  0  0  0
 25 46  1  0  0  0  0
 25 48  1  0  0  0  0
 26 21  1  0  0  0  0
 26 27  2  0  0  0  0
 28 26  1  0  0  0  0
 29  5  1  0  0  0  0
 32 10  1  0  0  0  0
 36 12  1  0  0  0  0
 37 13  1  0  0  0  0
 38 13  1  0  0  0  0
 40 15  1  0  0  0  0
 43 16  1  0  0  0  0
 45 24  1  0  0  0  0
 47 25  1  0  0  0  0
 49 28  1  0  0  0  0
 50 28  1  0  0  0  0
M  END
>  <Pose>
1

>  <Score>
-4.66

$$$$
