
 OpenBabel03232221553D

 37 40  0  0  1  0  0  0  0  0999 V2000
    0.3540  -16.5040  -40.0040 B   0  0  0  0  0  0  0  0  0  0  0  0
    1.5190  -17.3890  -38.7870 C   0  0  0  0  0  0  0  0  0  0  0  0
    2.3880  -18.3870  -39.0630 N   0  0  0  0  0  0  0  0  0  0  0  0
    3.0600  -18.7480  -37.9950 N   0  0  0  0  0  0  0  0  0  0  0  0
    2.6190  -17.9670  -36.9920 C   0  0  0  0  0  0  0  0  0  0  0  0
    2.9660  -17.8940  -35.7030 N   0  0  0  0  0  0  0  0  0  0  0  0
    2.3920  -17.0070  -34.8700 C   0  0  0  0  0  0  0  0  0  0  0  0
    1.4450  -16.1620  -35.3140 N   0  0  0  0  0  0  0  0  0  0  0  0
    1.0370  -16.1780  -36.6210 C   0  0  0  0  0  0  0  0  0  0  0  0
    1.6330  -17.0850  -37.4520 C   0  0  0  0  0  0  0  0  0  0  0  0
   -0.0190  -15.2930  -37.0240 N   0  0  0  0  0  0  0  0  0  0  0  0
   -1.3950  -15.6730  -36.9530 C   0  0  1  0  0  0  0  0  0  0  0  0
   -2.2360  -15.0370  -37.9920 C   0  0  0  0  0  0  0  0  0  0  0  0
   -1.6670  -14.0400  -38.7360 O   0  0  0  0  0  0  0  0  0  0  0  0
   -0.8010  -13.2370  -38.0010 C   0  0  0  0  0  0  0  0  0  0  0  0
    0.3780  -13.9970  -37.4830 C   0  0  0  0  0  0  0  0  0  0  0  0
   -1.5530  -17.1430  -36.8800 C   0  0  0  0  0  0  0  0  0  0  0  0
   -1.2990  -18.0090  -37.8620 N   0  0  0  0  0  0  0  0  0  0  0  0
   -1.5810  -19.2470  -37.3660 C   0  0  0  0  0  0  0  0  0  0  0  0
   -1.9940  -19.0650  -36.0990 N   0  0  0  0  0  0  0  0  0  0  0  0
   -1.9690  -17.7920  -35.8310 O   0  0  0  0  0  0  0  0  0  0  0  0
   -1.4600  -20.5450  -38.0690 C   0  0  0  0  0  0  0  0  0  0  0  0
    4.0720  -19.7860  -37.9300 C   0  0  0  0  0  0  0  0  0  0  0  0
    2.7310  -17.0100  -33.8280 H   0  0  0  0  0  0  0  0  0  0  0  0
   -1.7670  -15.2190  -35.9560 H   0  0  0  0  0  0  0  0  0  0  0  0
   -3.2450  -14.7110  -37.5890 H   0  0  0  0  0  0  0  0  0  0  0  0
   -2.5260  -15.8520  -38.7230 H   0  0  0  0  0  0  0  0  0  0  0  0
   -0.4250  -12.4550  -38.6970 H   0  0  0  0  0  0  0  0  0  0  0  0
   -1.3400  -12.6820  -37.1940 H   0  0  0  0  0  0  0  0  0  0  0  0
    1.2180  -14.0380  -38.2170 H   0  0  0  0  0  0  0  0  0  0  0  0
    0.8270  -13.4780  -36.5810 H   0  0  0  0  0  0  0  0  0  0  0  0
   -1.6640  -20.3730  -39.1640 H   0  0  0  0  0  0  0  0  0  0  0  0
   -2.2020  -21.2830  -37.7180 H   0  0  0  0  0  0  0  0  0  0  0  0
   -0.4310  -20.9740  -37.9880 H   0  0  0  0  0  0  0  0  0  0  0  0
    3.9810  -20.4420  -38.8180 H   0  0  0  0  0  0  0  0  0  0  0  0
    3.9040  -20.4020  -37.0120 H   0  0  0  0  0  0  0  0  0  0  0  0
    5.1070  -19.3610  -37.9590 H   0  0  0  0  0  0  0  0  0  0  0  0
  1  2  1  0  0  0  0
  2 10  1  0  0  0  0
  3  2  2  0  0  0  0
  3  4  1  0  0  0  0
  4 23  1  0  0  0  0
  4  5  1  0  0  0  0
  5  6  1  0  0  0  0
  6  7  2  0  0  0  0
  7 24  1  0  0  0  0
  8  7  1  0  0  0  0
  9  8  2  0  0  0  0
 10  5  2  0  0  0  0
 10  9  1  0  0  0  0
 11 12  1  0  0  0  0
 11  9  1  0  0  0  0
 12 17  1  0  0  0  0
 12 25  1  1  0  0  0
 13 26  1  0  0  0  0
 13 12  1  0  0  0  0
 14 15  1  0  0  0  0
 14 13  1  0  0  0  0
 15 16  1  0  0  0  0
 15 29  1  0  0  0  0
 16 11  1  0  0  0  0
 16 31  1  0  0  0  0
 17 21  1  0  0  0  0
 18 19  1  0  0  0  0
 18 17  2  0  0  0  0
 19 20  2  0  0  0  0
 20 21  1  0  0  0  0
 22 34  1  0  0  0  0
 22 33  1  0  0  0  0
 22 19  1  0  0  0  0
 23 36  1  0  0  0  0
 27 13  1  0  0  0  0
 28 15  1  0  0  0  0
 30 16  1  0  0  0  0
 32 22  1  0  0  0  0
 35 23  1  0  0  0  0
 37 23  1  0  0  0  0
M  END
>  <Pose>
1

>  <Score>
-3.58

$$$$
