
 OpenBabel03232221553D

 53 56  0  0  1  0  0  0  0  0999 V2000
    5.2700  -21.4320  -39.1780 B   0  0  0  0  0  0  0  0  0  0  0  0
    5.5570  -20.1830  -40.5760 C   0  0  0  0  0  0  0  0  0  0  0  0
    6.6330  -20.0530  -41.3730 N   0  0  0  0  0  0  0  0  0  0  0  0
    6.4930  -19.0680  -42.2190 N   0  0  0  0  0  0  0  0  0  0  0  0
    5.2880  -18.5100  -41.9930 C   0  0  0  0  0  0  0  0  0  0  0  0
    4.6340  -17.4760  -42.5500 N   0  0  0  0  0  0  0  0  0  0  0  0
    3.4220  -17.0910  -42.1430 C   0  0  0  0  0  0  0  0  0  0  0  0
    2.8320  -17.7500  -41.1520 N   0  0  0  0  0  0  0  0  0  0  0  0
    3.4090  -18.8040  -40.5280 C   0  0  0  0  0  0  0  0  0  0  0  0
    4.6710  -19.2010  -40.9540 C   0  0  0  0  0  0  0  0  0  0  0  0
    2.7460  -19.4990  -39.5110 N   0  0  0  0  0  0  0  0  0  0  0  0
    1.5380  -20.2330  -39.7610 C   0  0  0  0  0  0  0  0  0  0  0  0
    0.4280  -19.4090  -39.1020 C   0  0  0  0  0  0  0  0  0  0  0  0
    0.9830  -18.4990  -38.0930 N   0  0  0  0  0  0  0  0  0  0  0  0
    1.9900  -19.2060  -37.2980 C   0  0  0  0  0  0  0  0  0  0  0  0
    3.2150  -19.4930  -38.1470 C   0  0  0  0  0  0  0  0  0  0  0  0
   -0.1200  -18.1390  -37.2150 C   0  0  2  0  0  0  0  0  0  0  0  0
   -1.4230  -18.3050  -38.0430 C   0  0  0  0  0  0  0  0  0  0  0  0
   -0.0190  -16.7350  -36.7800 C   0  0  0  0  0  0  0  0  0  0  0  0
   -0.4040  -16.5460  -35.5520 O   0  0  0  0  0  0  0  0  0  0  0  0
    0.4210  -15.6180  -37.5090 N   0  0  0  0  0  0  0  0  0  0  0  0
    1.1120  -15.5850  -38.7620 C   0  0  0  0  0  0  0  0  0  0  0  0
    2.2850  -14.6270  -38.8030 C   0  0  0  0  0  0  0  0  0  0  0  0
    2.0910  -13.3800  -38.0120 C   0  0  0  0  0  0  0  0  0  0  0  0
    1.4690  -13.6460  -36.6580 C   0  0  0  0  0  0  0  0  0  0  0  0
    0.1320  -14.2870  -36.9290 C   0  0  0  0  0  0  0  0  0  0  0  0
    7.4060  -18.5870  -43.2460 C   0  0  0  0  0  0  0  0  0  0  0  0
    2.9110  -16.2290  -42.6270 H   0  0  0  0  0  0  0  0  0  0  0  0
    1.5700  -21.1560  -39.1010 H   0  0  0  0  0  0  0  0  0  0  0  0
    1.3150  -20.4580  -40.8000 H   0  0  0  0  0  0  0  0  0  0  0  0
    0.0030  -18.7650  -39.8940 H   0  0  0  0  0  0  0  0  0  0  0  0
   -0.3910  -20.0360  -38.7080 H   0  0  0  0  0  0  0  0  0  0  0  0
    2.2950  -18.5260  -36.4890 H   0  0  0  0  0  0  0  0  0  0  0  0
    1.6120  -20.1570  -36.9120 H   0  0  0  0  0  0  0  0  0  0  0  0
    4.0220  -18.8000  -37.9350 H   0  0  0  0  0  0  0  0  0  0  0  0
    3.5710  -20.5460  -37.9350 H   0  0  0  0  0  0  0  0  0  0  0  0
   -0.1650  -18.7980  -36.3460 H   0  0  0  0  0  0  0  0  0  0  0  0
   -1.2040  -18.1420  -39.1150 H   0  0  0  0  0  0  0  0  0  0  0  0
   -2.1580  -17.5400  -37.7420 H   0  0  0  0  0  0  0  0  0  0  0  0
   -1.8540  -19.3000  -37.8730 H   0  0  0  0  0  0  0  0  0  0  0  0
    0.3430  -15.1990  -39.5090 H   0  0  0  0  0  0  0  0  0  0  0  0
    1.4580  -16.5380  -39.1440 H   0  0  0  0  0  0  0  0  0  0  0  0
    2.3940  -14.3190  -39.8780 H   0  0  0  0  0  0  0  0  0  0  0  0
    3.2180  -15.1470  -38.5550 H   0  0  0  0  0  0  0  0  0  0  0  0
    1.4690  -12.6630  -38.5770 H   0  0  0  0  0  0  0  0  0  0  0  0
    3.0720  -12.9110  -37.8450 H   0  0  0  0  0  0  0  0  0  0  0  0
    2.1440  -14.3240  -36.0800 H   0  0  0  0  0  0  0  0  0  0  0  0
    1.3640  -12.6800  -36.1390 H   0  0  0  0  0  0  0  0  0  0  0  0
   -0.4930  -14.3590  -36.0340 H   0  0  0  0  0  0  0  0  0  0  0  0
   -0.3900  -13.6810  -37.6920 H   0  0  0  0  0  0  0  0  0  0  0  0
    7.7840  -17.5610  -43.0030 H   0  0  0  0  0  0  0  0  0  0  0  0
    6.8280  -18.4980  -44.1810 H   0  0  0  0  0  0  0  0  0  0  0  0
    8.2960  -19.2300  -43.3200 H   0  0  0  0  0  0  0  0  0  0  0  0
  2  1  1  0  0  0  0
  3  2  2  0  0  0  0
  4  5  1  0  0  0  0
  4  3  1  0  0  0  0
  5 10  2  0  0  0  0
  6  7  2  0  0  0  0
  6  5  1  0  0  0  0
  7  8  1  0  0  0  0
  8  9  2  0  0  0  0
  9 11  1  0  0  0  0
 10  2  1  0  0  0  0
 10  9  1  0  0  0  0
 11 16  1  0  0  0  0
 12 11  1  0  0  0  0
 12 13  1  0  0  0  0
 12 29  1  0  0  0  0
 13 32  1  0  0  0  0
 13 14  1  0  0  0  0
 14 15  1  0  0  0  0
 14 17  1  0  0  0  0
 15 34  1  0  0  0  0
 15 33  1  0  0  0  0
 16 35  1  0  0  0  0
 16 36  1  0  0  0  0
 16 15  1  0  0  0  0
 17 19  1  0  0  0  0
 17 37  1  1  0  0  0
 18 40  1  0  0  0  0
 18 39  1  0  0  0  0
 18 17  1  0  0  0  0
 19 20  2  0  0  0  0
 21 26  1  0  0  0  0
 21 19  1  0  0  0  0
 22 21  1  0  0  0  0
 23 22  1  0  0  0  0
 23 44  1  0  0  0  0
 23 24  1  0  0  0  0
 24 46  1  0  0  0  0
 24 25  1  0  0  0  0
 25 48  1  0  0  0  0
 25 47  1  0  0  0  0
 26 25  1  0  0  0  0
 26 49  1  0  0  0  0
 27 51  1  0  0  0  0
 27  4  1  0  0  0  0
 28  7  1  0  0  0  0
 30 12  1  0  0  0  0
 31 13  1  0  0  0  0
 38 18  1  0  0  0  0
 41 22  1  0  0  0  0
 42 22  1  0  0  0  0
 43 23  1  0  0  0  0
 45 24  1  0  0  0  0
 50 26  1  0  0  0  0
 52 27  1  0  0  0  0
 53 27  1  0  0  0  0
M  END
>  <Pose>
1

>  <Score>
-3.59

$$$$
