
 OpenBabel03232221553D

 49 52  0  0  1  0  0  0  0  0999 V2000
   11.4770  -19.7630  -43.6620 B   0  0  0  0  0  0  0  0  0  0  0  0
    9.5540  -19.7090  -43.6000 C   0  0  0  0  0  0  0  0  0  0  0  0
    8.8330  -19.3870  -42.5570 O   0  0  0  0  0  0  0  0  0  0  0  0
    7.5340  -19.4500  -42.8490 C   0  0  0  0  0  0  0  0  0  0  0  0
    7.4440  -19.8390  -44.1670 C   0  0  0  0  0  0  0  0  0  0  0  0
    8.7130  -20.0090  -44.6600 C   0  0  0  0  0  0  0  0  0  0  0  0
    6.4560  -19.1540  -41.9180 C   0  0  0  0  0  0  0  0  0  0  0  0
    5.5080  -18.4270  -42.2800 O   0  0  0  0  0  0  0  0  0  0  0  0
    6.4700  -19.6780  -40.6130 N   0  0  0  0  0  0  0  0  0  0  0  0
    5.3110  -20.2760  -39.9820 C   0  0  1  0  0  0  0  0  0  0  0  0
    5.5480  -21.7340  -39.8220 C   0  0  0  0  0  0  0  0  0  0  0  0
    4.9150  -19.5630  -38.7550 C   0  0  0  0  0  0  0  0  0  0  0  0
    5.8500  -18.9290  -38.1510 O   0  0  0  0  0  0  0  0  0  0  0  0
    3.6380  -19.5050  -38.1850 N   0  0  0  0  0  0  0  0  0  0  0  0
    3.3880  -18.9450  -36.8730 C   0  0  0  0  0  0  0  0  0  0  0  0
    2.4770  -17.7680  -37.0400 C   0  0  0  0  0  0  0  0  0  0  0  0
    1.2530  -18.1090  -37.8290 C   0  0  1  0  0  0  0  0  0  0  0  0
    0.0850  -17.7830  -37.0300 N   0  0  0  0  0  0  0  0  0  0  0  0
    0.0590  -16.3430  -36.8450 C   0  0  0  0  0  0  0  0  0  0  0  0
   -0.5550  -15.7620  -38.1230 C   0  0  0  0  0  0  0  0  0  0  0  0
    0.3030  -16.2380  -39.2340 C   0  0  0  0  0  0  0  0  0  0  0  0
    0.4330  -15.7550  -40.4850 N   0  0  0  0  0  0  0  0  0  0  0  0
    1.3330  -16.5240  -41.1180 C   0  0  0  0  0  0  0  0  0  0  0  0
    1.7510  -17.4710  -40.2590 N   0  0  0  0  0  0  0  0  0  0  0  0
    1.1310  -17.3220  -39.0770 C   0  0  0  0  0  0  0  0  0  0  0  0
    1.2340  -19.6080  -38.1300 C   0  0  0  0  0  0  0  0  0  0  0  0
    2.4650  -20.0120  -38.8740 C   0  0  0  0  0  0  0  0  0  0  0  0
    6.5180  -19.9780  -44.6910 H   0  0  0  0  0  0  0  0  0  0  0  0
    9.0130  -20.3110  -45.6630 H   0  0  0  0  0  0  0  0  0  0  0  0
    7.3530  -19.6400  -40.0640 H   0  0  0  0  0  0  0  0  0  0  0  0
    4.4550  -20.1590  -40.7100 H   0  0  0  0  0  0  0  0  0  0  0  0
    6.5480  -21.9810  -40.2360 H   0  0  0  0  0  0  0  0  0  0  0  0
    4.8470  -22.3910  -40.3790 H   0  0  0  0  0  0  0  0  0  0  0  0
    5.6070  -22.0460  -38.7540 H   0  0  0  0  0  0  0  0  0  0  0  0
    4.3010  -18.7280  -36.3150 H   0  0  0  0  0  0  0  0  0  0  0  0
    2.8500  -19.7160  -36.2440 H   0  0  0  0  0  0  0  0  0  0  0  0
    2.1750  -17.4510  -36.0000 H   0  0  0  0  0  0  0  0  0  0  0  0
    3.0440  -16.9170  -37.4690 H   0  0  0  0  0  0  0  0  0  0  0  0
    0.1580  -18.1990  -36.0600 H   0  0  0  0  0  0  0  0  0  0  0  0
   -0.4750  -16.0270  -35.9460 H   0  0  0  0  0  0  0  0  0  0  0  0
    1.1020  -15.9220  -36.8180 H   0  0  0  0  0  0  0  0  0  0  0  0
   -1.5510  -16.2550  -38.2570 H   0  0  0  0  0  0  0  0  0  0  0  0
   -0.6310  -14.6720  -38.0710 H   0  0  0  0  0  0  0  0  0  0  0  0
   -0.0510  -14.9370  -40.9350 H   0  0  0  0  0  0  0  0  0  0  0  0
    1.6760  -16.4230  -42.1290 H   0  0  0  0  0  0  0  0  0  0  0  0
    0.3300  -19.7830  -38.7580 H   0  0  0  0  0  0  0  0  0  0  0  0
    1.0940  -20.1260  -37.1750 H   0  0  0  0  0  0  0  0  0  0  0  0
    2.5400  -21.1360  -38.7860 H   0  0  0  0  0  0  0  0  0  0  0  0
    2.4520  -19.7540  -39.9370 H   0  0  0  0  0  0  0  0  0  0  0  0
  1  2  1  0  0  0  0
  2  3  1  0  0  0  0
  4  3  1  0  0  0  0
  4  7  1  0  0  0  0
  5  4  2  0  0  0  0
  6  5  1  0  0  0  0
  6  2  2  0  0  0  0
  7  9  1  0  0  0  0
  8  7  2  0  0  0  0
  9 30  1  0  0  0  0
  9 10  1  0  0  0  0
 10 31  1  6  0  0  0
 10 11  1  0  0  0  0
 10 12  1  0  0  0  0
 11 34  1  0  0  0  0
 12 14  1  0  0  0  0
 12 13  2  0  0  0  0
 14 15  1  0  0  0  0
 15 35  1  0  0  0  0
 15 36  1  0  0  0  0
 16 15  1  0  0  0  0
 16 37  1  0  0  0  0
 17 25  1  6  0  0  0
 17 16  1  0  0  0  0
 17 18  1  0  0  0  0
 18 19  1  0  0  0  0
 18 39  1  0  0  0  0
 19 41  1  0  0  0  0
 19 40  1  0  0  0  0
 20 43  1  0  0  0  0
 20 19  1  0  0  0  0
 21 25  2  0  0  0  0
 21 20  1  0  0  0  0
 22 21  1  0  0  0  0
 23 22  1  0  0  0  0
 23 24  2  0  0  0  0
 24 25  1  0  0  0  0
 26 17  1  0  0  0  0
 26 47  1  0  0  0  0
 27 48  1  0  0  0  0
 27 14  1  0  0  0  0
 27 26  1  0  0  0  0
 28  5  1  0  0  0  0
 29  6  1  0  0  0  0
 32 11  1  0  0  0  0
 33 11  1  0  0  0  0
 38 16  1  0  0  0  0
 42 20  1  0  0  0  0
 44 22  1  0  0  0  0
 45 23  1  0  0  0  0
 46 26  1  0  0  0  0
 49 27  1  0  0  0  0
M  END
>  <Pose>
1

>  <Score>
-4.45

$$$$
