
 OpenBabel03232221553D

 49 52  0  0  0  0  0  0  0  0999 V2000
   14.4380  -24.4220  -42.5430 B   0  0  0  0  0  0  0  0  0  0  0  0
   13.8320  -22.6800  -43.1250 C   0  0  0  0  0  0  0  0  0  0  0  0
   12.7020  -22.1160  -42.8960 O   0  0  0  0  0  0  0  0  0  0  0  0
   12.6250  -20.9380  -43.4380 C   0  0  0  0  0  0  0  0  0  0  0  0
   13.8200  -20.7100  -44.0810 C   0  0  0  0  0  0  0  0  0  0  0  0
   14.5940  -21.8250  -43.8820 C   0  0  0  0  0  0  0  0  0  0  0  0
   11.5010  -19.9860  -43.4020 C   0  0  0  0  0  0  0  0  0  0  0  0
   11.4810  -19.1220  -42.5130 O   0  0  0  0  0  0  0  0  0  0  0  0
   10.4540  -20.0400  -44.3550 N   0  0  0  0  0  0  0  0  0  0  0  0
    9.5680  -18.9060  -44.5170 C   0  0  0  0  0  0  0  0  0  0  0  0
    8.1290  -19.2600  -44.2280 C   0  0  0  0  0  0  0  0  0  0  0  0
    7.9760  -20.6850  -44.5690 N   0  0  0  0  0  0  0  0  0  0  0  0
    8.7260  -21.1460  -45.6860 C   0  0  0  0  0  0  0  0  0  0  0  0
   10.1900  -21.1810  -45.2110 C   0  0  0  0  0  0  0  0  0  0  0  0
    7.1020  -21.4450  -43.7540 C   0  0  0  0  0  0  0  0  0  0  0  0
    6.6770  -20.9880  -42.5440 N   0  0  0  0  0  0  0  0  0  0  0  0
    5.8520  -21.6990  -41.7610 C   0  0  0  0  0  0  0  0  0  0  0  0
    5.4130  -22.9110  -42.1630 N   0  0  0  0  0  0  0  0  0  0  0  0
    5.7790  -23.4440  -43.3430 C   0  0  0  0  0  0  0  0  0  0  0  0
    6.6440  -22.6730  -44.1340 C   0  0  0  0  0  0  0  0  0  0  0  0
    5.3080  -24.7770  -43.8060 C   0  0  0  0  0  0  0  0  0  0  0  0
    5.4370  -21.1780  -40.5090 N   0  0  0  0  0  0  0  0  0  0  0  0
    6.0760  -21.5160  -39.2610 C   0  0  0  0  0  0  0  0  0  0  0  0
    6.4590  -20.2680  -38.5240 C   0  0  0  0  0  0  0  0  0  0  0  0
    5.9130  -19.1140  -39.0840 O   0  0  0  0  0  0  0  0  0  0  0  0
    4.5540  -19.2840  -39.3330 C   0  0  0  0  0  0  0  0  0  0  0  0
    4.3210  -20.2590  -40.4620 C   0  0  0  0  0  0  0  0  0  0  0  0
   14.1040  -19.8080  -44.6480 H   0  0  0  0  0  0  0  0  0  0  0  0
   15.6100  -21.9780  -44.2580 H   0  0  0  0  0  0  0  0  0  0  0  0
    9.6510  -18.4490  -45.5230 H   0  0  0  0  0  0  0  0  0  0  0  0
    9.8370  -18.0940  -43.7790 H   0  0  0  0  0  0  0  0  0  0  0  0
    7.8510  -19.1000  -43.1870 H   0  0  0  0  0  0  0  0  0  0  0  0
    7.4320  -18.7300  -44.9390 H   0  0  0  0  0  0  0  0  0  0  0  0
    8.4140  -22.1470  -45.9880 H   0  0  0  0  0  0  0  0  0  0  0  0
    8.6590  -20.4130  -46.5300 H   0  0  0  0  0  0  0  0  0  0  0  0
   10.3050  -22.1480  -44.7310 H   0  0  0  0  0  0  0  0  0  0  0  0
   10.8920  -21.1260  -46.0640 H   0  0  0  0  0  0  0  0  0  0  0  0
    6.9220  -23.1220  -45.0710 H   0  0  0  0  0  0  0  0  0  0  0  0
    6.1680  -25.4610  -43.9480 H   0  0  0  0  0  0  0  0  0  0  0  0
    4.5520  -25.1380  -43.1110 H   0  0  0  0  0  0  0  0  0  0  0  0
    4.8290  -24.6170  -44.8000 H   0  0  0  0  0  0  0  0  0  0  0  0
    7.0120  -22.1110  -39.4410 H   0  0  0  0  0  0  0  0  0  0  0  0
    5.3890  -22.1340  -38.6280 H   0  0  0  0  0  0  0  0  0  0  0  0
    6.0840  -20.3180  -37.4650 H   0  0  0  0  0  0  0  0  0  0  0  0
    7.5600  -20.1500  -38.4740 H   0  0  0  0  0  0  0  0  0  0  0  0
    4.1110  -18.3090  -39.6010 H   0  0  0  0  0  0  0  0  0  0  0  0
    4.0380  -19.6240  -38.3950 H   0  0  0  0  0  0  0  0  0  0  0  0
    4.1980  -19.7010  -41.4190 H   0  0  0  0  0  0  0  0  0  0  0  0
    3.3840  -20.8290  -40.2350 H   0  0  0  0  0  0  0  0  0  0  0  0
  2  3  1  0  0  0  0
  2  1  1  0  0  0  0
  4  7  1  0  0  0  0
  4  3  1  0  0  0  0
  5  6  1  0  0  0  0
  5  4  2  0  0  0  0
  6  2  2  0  0  0  0
  7  8  2  0  0  0  0
  9  7  1  0  0  0  0
 10  9  1  0  0  0  0
 10 11  1  0  0  0  0
 10 31  1  0  0  0  0
 11 32  1  0  0  0  0
 12 11  1  0  0  0  0
 12 15  1  0  0  0  0
 13 14  1  0  0  0  0
 13 12  1  0  0  0  0
 14 36  1  0  0  0  0
 14  9  1  0  0  0  0
 15 16  1  0  0  0  0
 16 17  2  0  0  0  0
 17 22  1  0  0  0  0
 18 17  1  0  0  0  0
 19 18  2  0  0  0  0
 20 15  2  0  0  0  0
 20 19  1  0  0  0  0
 21 19  1  0  0  0  0
 21 40  1  0  0  0  0
 22 27  1  0  0  0  0
 22 23  1  0  0  0  0
 23 43  1  0  0  0  0
 23 24  1  0  0  0  0
 24 45  1  0  0  0  0
 24 44  1  0  0  0  0
 25 24  1  0  0  0  0
 26 25  1  0  0  0  0
 26 47  1  0  0  0  0
 27 49  1  0  0  0  0
 27 26  1  0  0  0  0
 28  5  1  0  0  0  0
 29  6  1  0  0  0  0
 30 10  1  0  0  0  0
 33 11  1  0  0  0  0
 34 13  1  0  0  0  0
 35 13  1  0  0  0  0
 37 14  1  0  0  0  0
 38 20  1  0  0  0  0
 39 21  1  0  0  0  0
 41 21  1  0  0  0  0
 42 23  1  0  0  0  0
 46 26  1  0  0  0  0
 48 27  1  0  0  0  0
M  END
>  <Pose>
1

>  <Score>
-4.32

$$$$
