
 OpenBabel03232221553D

 53 56  0  0  0  0  0  0  0  0999 V2000
   -1.4790  -20.8750  -38.5070 B   0  0  0  0  0  0  0  0  0  0  0  0
   -0.0140  -19.7060  -38.1330 C   0  0  0  0  0  0  0  0  0  0  0  0
    1.1670  -20.0700  -37.7020 O   0  0  0  0  0  0  0  0  0  0  0  0
    1.9710  -19.0490  -37.5350 C   0  0  0  0  0  0  0  0  0  0  0  0
    1.2540  -17.9310  -37.8860 C   0  0  0  0  0  0  0  0  0  0  0  0
   -0.0010  -18.3340  -38.2660 C   0  0  0  0  0  0  0  0  0  0  0  0
    3.3730  -19.0950  -37.0610 C   0  0  0  0  0  0  0  0  0  0  0  0
    3.6820  -18.5280  -36.0020 O   0  0  0  0  0  0  0  0  0  0  0  0
    4.3450  -19.7890  -37.8290 N   0  0  0  0  0  0  0  0  0  0  0  0
    5.7010  -19.2630  -37.9640 C   0  0  0  0  0  0  0  0  0  0  0  0
    6.5180  -20.1620  -38.8900 C   0  0  0  0  0  0  0  0  0  0  0  0
    5.7340  -20.3660  -40.0920 N   0  0  0  0  0  0  0  0  0  0  0  0
    4.4200  -20.9340  -39.9690 C   0  0  0  0  0  0  0  0  0  0  0  0
    4.0530  -21.0340  -38.5110 C   0  0  0  0  0  0  0  0  0  0  0  0
    6.2440  -20.0150  -41.3850 C   0  0  0  0  0  0  0  0  0  0  0  0
    6.6110  -18.7600  -41.6790 N   0  0  0  0  0  0  0  0  0  0  0  0
    7.0820  -18.4610  -42.8950 C   0  0  0  0  0  0  0  0  0  0  0  0
    7.2030  -19.3950  -43.8580 N   0  0  0  0  0  0  0  0  0  0  0  0
    6.8520  -20.6730  -43.6290 C   0  0  0  0  0  0  0  0  0  0  0  0
    6.3700  -20.9610  -42.3690 C   0  0  0  0  0  0  0  0  0  0  0  0
    6.9600  -21.6910  -44.6080 N   0  0  0  0  0  0  0  0  0  0  0  0
    5.9090  -21.8810  -45.5860 C   0  0  0  0  0  0  0  0  0  0  0  0
    6.4520  -22.8070  -46.6550 C   0  0  0  0  0  0  0  0  0  0  0  0
    6.7790  -24.0700  -46.0500 N   0  0  0  0  0  0  0  0  0  0  0  0
    7.5410  -23.9830  -44.8450 C   0  0  0  0  0  0  0  0  0  0  0  0
    8.1000  -22.5840  -44.6900 C   0  0  0  0  0  0  0  0  0  0  0  0
    5.5990  -24.8910  -45.9560 C   0  0  0  0  0  0  0  0  0  0  0  0
    7.4880  -17.0690  -43.2100 C   0  0  0  0  0  0  0  0  0  0  0  0
    1.6020  -16.9110  -37.8710 H   0  0  0  0  0  0  0  0  0  0  0  0
   -0.8420  -17.7090  -38.6100 H   0  0  0  0  0  0  0  0  0  0  0  0
    6.1920  -19.1790  -36.9810 H   0  0  0  0  0  0  0  0  0  0  0  0
    5.6450  -18.2440  -38.4010 H   0  0  0  0  0  0  0  0  0  0  0  0
    7.4700  -19.6870  -39.1350 H   0  0  0  0  0  0  0  0  0  0  0  0
    6.6510  -21.1300  -38.3570 H   0  0  0  0  0  0  0  0  0  0  0  0
    3.6770  -20.3230  -40.5370 H   0  0  0  0  0  0  0  0  0  0  0  0
    4.4450  -21.9840  -40.3770 H   0  0  0  0  0  0  0  0  0  0  0  0
    3.0100  -21.3510  -38.3800 H   0  0  0  0  0  0  0  0  0  0  0  0
    4.7150  -21.8120  -38.0580 H   0  0  0  0  0  0  0  0  0  0  0  0
    6.0750  -21.9740  -42.1360 H   0  0  0  0  0  0  0  0  0  0  0  0
    5.0310  -22.3340  -45.1060 H   0  0  0  0  0  0  0  0  0  0  0  0
    5.6540  -20.8820  -45.9960 H   0  0  0  0  0  0  0  0  0  0  0  0
    5.6410  -22.9530  -47.3910 H   0  0  0  0  0  0  0  0  0  0  0  0
    7.3160  -22.3350  -47.1520 H   0  0  0  0  0  0  0  0  0  0  0  0
    8.3850  -24.7030  -44.8560 H   0  0  0  0  0  0  0  0  0  0  0  0
    6.9260  -24.2060  -43.9590 H   0  0  0  0  0  0  0  0  0  0  0  0
    8.6640  -22.3200  -45.6190 H   0  0  0  0  0  0  0  0  0  0  0  0
    8.7300  -22.4860  -43.7850 H   0  0  0  0  0  0  0  0  0  0  0  0
    4.7560  -24.4760  -46.5130 H   0  0  0  0  0  0  0  0  0  0  0  0
    5.8470  -25.8970  -46.3860 H   0  0  0  0  0  0  0  0  0  0  0  0
    5.3240  -25.0250  -44.8880 H   0  0  0  0  0  0  0  0  0  0  0  0
    8.3730  -17.1000  -43.8770 H   0  0  0  0  0  0  0  0  0  0  0  0
    6.6550  -16.5370  -43.7160 H   0  0  0  0  0  0  0  0  0  0  0  0
    7.8090  -16.5550  -42.2870 H   0  0  0  0  0  0  0  0  0  0  0  0
  1  2  1  0  0  0  0
  2  3  1  0  0  0  0
  3  4  1  0  0  0  0
  4  7  1  0  0  0  0
  5 29  1  0  0  0  0
  5  4  2  0  0  0  0
  6  2  2  0  0  0  0
  6  5  1  0  0  0  0
  7  8  2  0  0  0  0
  9  7  1  0  0  0  0
 10  9  1  0  0  0  0
 10 31  1  0  0  0  0
 11 34  1  0  0  0  0
 11 10  1  0  0  0  0
 12 13  1  0  0  0  0
 12 11  1  0  0  0  0
 13 14  1  0  0  0  0
 14 37  1  0  0  0  0
 14 38  1  0  0  0  0
 14  9  1  0  0  0  0
 15 12  1  0  0  0  0
 16 15  1  0  0  0  0
 17 16  2  0  0  0  0
 18 19  2  0  0  0  0
 18 17  1  0  0  0  0
 19 20  1  0  0  0  0
 20 39  1  0  0  0  0
 20 15  2  0  0  0  0
 21 19  1  0  0  0  0
 22 40  1  0  0  0  0
 22 21  1  0  0  0  0
 23 24  1  0  0  0  0
 23 22  1  0  0  0  0
 24 27  1  0  0  0  0
 24 25  1  0  0  0  0
 25 26  1  0  0  0  0
 25 45  1  0  0  0  0
 26 21  1  0  0  0  0
 26 47  1  0  0  0  0
 27 50  1  0  0  0  0
 28 17  1  0  0  0  0
 28 53  1  0  0  0  0
 30  6  1  0  0  0  0
 32 10  1  0  0  0  0
 33 11  1  0  0  0  0
 35 13  1  0  0  0  0
 36 13  1  0  0  0  0
 41 22  1  0  0  0  0
 42 23  1  0  0  0  0
 43 23  1  0  0  0  0
 44 25  1  0  0  0  0
 46 26  1  0  0  0  0
 48 27  1  0  0  0  0
 49 27  1  0  0  0  0
 51 28  1  0  0  0  0
 52 28  1  0  0  0  0
M  END
>  <Pose>
1

>  <Score>
-3.78

$$$$
