
 OpenBabel03232221553D

 43 46  0  0  0  0  0  0  0  0999 V2000
    0.4190  -14.7600  -36.6160 B   0  0  0  0  0  0  0  0  0  0  0  0
    0.7990  -16.5490  -37.0680 C   0  0  0  0  0  0  0  0  0  0  0  0
    2.0630  -17.1060  -36.8540 C   0  0  0  0  0  0  0  0  0  0  0  0
    2.2900  -18.4110  -37.2000 C   0  0  0  0  0  0  0  0  0  0  0  0
    1.2180  -19.1140  -37.7570 C   0  0  0  0  0  0  0  0  0  0  0  0
    0.0650  -18.5540  -37.9360 O   0  0  0  0  0  0  0  0  0  0  0  0
   -0.1840  -17.3310  -37.6230 C   0  0  0  0  0  0  0  0  0  0  0  0
   -1.3380  -16.8770  -37.8360 O   0  0  0  0  0  0  0  0  0  0  0  0
    3.5650  -19.0800  -37.0200 C   0  0  0  0  0  0  0  0  0  0  0  0
    3.9830  -19.0230  -35.7690 O   0  0  0  0  0  0  0  0  0  0  0  0
    4.4010  -19.7510  -37.9000 N   0  0  0  0  0  0  0  0  0  0  0  0
    3.9250  -21.0150  -38.5170 C   0  0  0  0  0  0  0  0  0  0  0  0
    4.0050  -20.8800  -40.0190 C   0  0  0  0  0  0  0  0  0  0  0  0
    5.3290  -20.5800  -40.3980 N   0  0  0  0  0  0  0  0  0  0  0  0
    6.1990  -20.4630  -39.2780 C   0  0  0  0  0  0  0  0  0  0  0  0
    5.7000  -19.3710  -38.3020 C   0  0  0  0  0  0  0  0  0  0  0  0
    5.8850  -21.3810  -41.4420 C   0  0  0  0  0  0  0  0  0  0  0  0
    6.6630  -20.6520  -42.4590 C   0  0  0  0  0  0  0  0  0  0  0  0
    7.0810  -19.3670  -42.3410 C   0  0  0  0  0  0  0  0  0  0  0  0
    7.8000  -18.7710  -43.3470 C   0  0  0  0  0  0  0  0  0  0  0  0
    8.0970  -19.4800  -44.4790 C   0  0  0  0  0  0  0  0  0  0  0  0
    7.6840  -20.7860  -44.6210 C   0  0  0  0  0  0  0  0  0  0  0  0
    6.9750  -21.3510  -43.6110 C   0  0  0  0  0  0  0  0  0  0  0  0
    8.8220  -18.6840  -45.3490 O   0  0  0  0  0  0  0  0  0  0  0  0
    8.6530  -17.3480  -44.8950 C   0  0  0  0  0  0  0  0  0  0  0  0
    8.3580  -17.4940  -43.5190 O   0  0  0  0  0  0  0  0  0  0  0  0
    2.7920  -16.4620  -36.4230 H   0  0  0  0  0  0  0  0  0  0  0  0
    1.3340  -20.1780  -38.0600 H   0  0  0  0  0  0  0  0  0  0  0  0
    2.8650  -21.1630  -38.1990 H   0  0  0  0  0  0  0  0  0  0  0  0
    4.5360  -21.8480  -38.1760 H   0  0  0  0  0  0  0  0  0  0  0  0
    3.6600  -21.8610  -40.4730 H   0  0  0  0  0  0  0  0  0  0  0  0
    3.2360  -20.1570  -40.3980 H   0  0  0  0  0  0  0  0  0  0  0  0
    6.3810  -21.3520  -38.6830 H   0  0  0  0  0  0  0  0  0  0  0  0
    7.1860  -20.1060  -39.6830 H   0  0  0  0  0  0  0  0  0  0  0  0
    5.8030  -18.4110  -38.8270 H   0  0  0  0  0  0  0  0  0  0  0  0
    6.4100  -19.3550  -37.4280 H   0  0  0  0  0  0  0  0  0  0  0  0
    6.6100  -22.0960  -40.9480 H   0  0  0  0  0  0  0  0  0  0  0  0
    5.1510  -22.0310  -41.9470 H   0  0  0  0  0  0  0  0  0  0  0  0
    6.8630  -18.7920  -41.4610 H   0  0  0  0  0  0  0  0  0  0  0  0
    7.9230  -21.3360  -45.5170 H   0  0  0  0  0  0  0  0  0  0  0  0
    6.6570  -22.3820  -43.7380 H   0  0  0  0  0  0  0  0  0  0  0  0
    7.8900  -16.8010  -45.4450 H   0  0  0  0  0  0  0  0  0  0  0  0
    9.6050  -16.7770  -44.9520 H   0  0  0  0  0  0  0  0  0  0  0  0
  2  3  2  0  0  0  0
  2  1  1  0  0  0  0
  3 27  1  0  0  0  0
  4  9  1  0  0  0  0
  4  3  1  0  0  0  0
  5  4  2  0  0  0  0
  6  5  1  0  0  0  0
  6  7  1  0  0  0  0
  7  2  1  0  0  0  0
  8  7  2  0  0  0  0
  9 10  2  0  0  0  0
 11  9  1  0  0  0  0
 12 29  1  0  0  0  0
 12 30  1  0  0  0  0
 12 11  1  0  0  0  0
 13 12  1  0  0  0  0
 14 13  1  0  0  0  0
 14 15  1  0  0  0  0
 15 33  1  0  0  0  0
 15 16  1  0  0  0  0
 16 11  1  0  0  0  0
 16 36  1  0  0  0  0
 17 37  1  0  0  0  0
 17 14  1  0  0  0  0
 18 19  1  0  0  0  0
 18 17  1  0  0  0  0
 19 39  1  0  0  0  0
 20 19  2  0  0  0  0
 21 20  1  0  0  0  0
 22 21  2  0  0  0  0
 22 23  1  0  0  0  0
 23 18  2  0  0  0  0
 24 25  1  0  0  0  0
 24 21  1  0  0  0  0
 25 26  1  0  0  0  0
 26 20  1  0  0  0  0
 28  5  1  0  0  0  0
 31 13  1  0  0  0  0
 32 13  1  0  0  0  0
 34 15  1  0  0  0  0
 35 16  1  0  0  0  0
 38 17  1  0  0  0  0
 40 22  1  0  0  0  0
 41 23  1  0  0  0  0
 42 25  1  0  0  0  0
 43 25  1  0  0  0  0
M  END
>  <Pose>
1

>  <Score>
-3.76

$$$$
