
 OpenBabel03232221553D

 63 66  0  0  1  0  0  0  0  0999 V2000
    4.3130  -19.2950  -35.5110 B   0  0  0  0  0  0  0  0  0  0  0  0
    4.6390  -19.2410  -37.3850 C   0  0  0  0  0  0  0  0  0  0  0  0
    3.5670  -19.3410  -38.2360 C   0  0  0  0  0  0  0  0  0  0  0  0
    3.6920  -19.3130  -39.5750 N   0  0  0  0  0  0  0  0  0  0  0  0
    4.9740  -19.1760  -40.0320 C   0  0  0  0  0  0  0  0  0  0  0  0
    5.1730  -19.1420  -41.2810 O   0  0  0  0  0  0  0  0  0  0  0  0
    6.0280  -19.0780  -39.2380 N   0  0  0  0  0  0  0  0  0  0  0  0
    5.9040  -19.1060  -37.9000 C   0  0  0  0  0  0  0  0  0  0  0  0
    6.8780  -19.0140  -37.1140 O   0  0  0  0  0  0  0  0  0  0  0  0
    2.5980  -19.4140  -40.4870 C   0  0  2  0  0  0  0  0  0  0  0  0
    1.6520  -18.2090  -40.4050 C   0  0  2  0  0  0  0  0  0  0  0  0
    0.6590  -18.4410  -39.3180 C   0  0  0  0  0  0  0  0  0  0  0  0
   -0.1740  -19.6510  -39.6750 C   0  0  0  0  0  0  0  0  0  0  0  0
    0.4320  -20.4550  -40.6220 O   0  0  0  0  0  0  0  0  0  0  0  0
    1.7860  -20.6620  -40.3920 C   0  0  0  0  0  0  0  0  0  0  0  0
   -0.5160  -20.3540  -38.4110 C   0  0  0  0  0  0  0  0  0  0  0  0
   -1.3950  -21.5660  -38.7550 C   0  0  0  0  0  0  0  0  0  0  0  0
   -2.6400  -21.0730  -39.2450 N   0  0  0  0  0  0  0  0  0  0  0  0
   -2.6680  -19.5920  -39.4940 C   0  0  0  0  0  0  0  0  0  0  0  0
   -1.4720  -19.1510  -40.2710 C   0  0  0  0  0  0  0  0  0  0  0  0
   -3.7740  -21.8180  -39.5040 C   0  0  0  0  0  0  0  0  0  0  0  0
   -4.8340  -21.1230  -39.8590 O   0  0  0  0  0  0  0  0  0  0  0  0
   -3.9990  -23.2190  -39.4540 C   0  0  0  0  0  0  0  0  0  0  0  0
   -3.6080  -23.9570  -38.3220 C   0  0  0  0  0  0  0  0  0  0  0  0
   -3.7830  -25.2930  -38.1470 C   0  0  0  0  0  0  0  0  0  0  0  0
   -4.4150  -25.9870  -39.2000 C   0  0  0  0  0  0  0  0  0  0  0  0
   -4.8010  -25.2980  -40.2990 C   0  0  0  0  0  0  0  0  0  0  0  0
   -4.6030  -23.9150  -40.4500 C   0  0  0  0  0  0  0  0  0  0  0  0
   -3.3850  -25.9750  -37.0360 O   0  0  0  0  0  0  0  0  0  0  0  0
   -3.9300  -27.0290  -36.3650 C   0  0  0  0  0  0  0  0  0  0  0  0
   -3.7770  -26.9210  -34.8870 C   0  0  0  0  0  0  0  0  0  0  0  0
   -3.5410  -28.2500  -34.3210 N   0  0  0  0  0  0  0  0  0  0  0  0
    0.9570  -18.1740  -41.6170 O   0  0  0  0  0  0  0  0  0  0  0  0
    2.4130  -16.9300  -40.2760 C   0  0  0  0  0  0  0  0  0  0  0  0
    2.5940  -19.4450  -37.8310 H   0  0  0  0  0  0  0  0  0  0  0  0
    6.9940  -18.9750  -39.6150 H   0  0  0  0  0  0  0  0  0  0  0  0
    3.0340  -19.3330  -41.5290 H   0  0  0  0  0  0  0  0  0  0  0  0
    1.0970  -18.5140  -38.3050 H   0  0  0  0  0  0  0  0  0  0  0  0
    0.0070  -17.5190  -39.2760 H   0  0  0  0  0  0  0  0  0  0  0  0
    1.8850  -21.2290  -39.4680 H   0  0  0  0  0  0  0  0  0  0  0  0
    2.1180  -21.3660  -41.2130 H   0  0  0  0  0  0  0  0  0  0  0  0
   -1.1060  -19.6970  -37.7640 H   0  0  0  0  0  0  0  0  0  0  0  0
    0.3650  -20.6810  -37.8220 H   0  0  0  0  0  0  0  0  0  0  0  0
   -1.5090  -22.1010  -37.7650 H   0  0  0  0  0  0  0  0  0  0  0  0
   -0.8010  -22.1690  -39.4580 H   0  0  0  0  0  0  0  0  0  0  0  0
   -2.8040  -19.0450  -38.5620 H   0  0  0  0  0  0  0  0  0  0  0  0
   -3.5940  -19.4170  -40.0890 H   0  0  0  0  0  0  0  0  0  0  0  0
   -1.6180  -19.5420  -41.3200 H   0  0  0  0  0  0  0  0  0  0  0  0
   -1.4850  -18.0390  -40.3420 H   0  0  0  0  0  0  0  0  0  0  0  0
   -3.1530  -23.4000  -37.5300 H   0  0  0  0  0  0  0  0  0  0  0  0
   -4.5480  -27.0450  -39.0480 H   0  0  0  0  0  0  0  0  0  0  0  0
   -5.2890  -25.8510  -41.1050 H   0  0  0  0  0  0  0  0  0  0  0  0
   -4.9710  -23.5190  -41.3630 H   0  0  0  0  0  0  0  0  0  0  0  0
   -3.3860  -27.9840  -36.6670 H   0  0  0  0  0  0  0  0  0  0  0  0
   -5.0220  -27.1610  -36.6300 H   0  0  0  0  0  0  0  0  0  0  0  0
   -2.9980  -26.2800  -34.5010 H   0  0  0  0  0  0  0  0  0  0  0  0
   -4.7750  -26.6240  -34.4480 H   0  0  0  0  0  0  0  0  0  0  0  0
   -2.6790  -28.6810  -34.6870 H   0  0  0  0  0  0  0  0  0  0  0  0
   -4.3730  -28.8470  -34.3440 H   0  0  0  0  0  0  0  0  0  0  0  0
    0.7200  -17.2540  -41.8980 H   0  0  0  0  0  0  0  0  0  0  0  0
    3.2190  -16.9510  -39.5300 H   0  0  0  0  0  0  0  0  0  0  0  0
    2.7890  -16.6570  -41.2890 H   0  0  0  0  0  0  0  0  0  0  0  0
    1.6850  -16.1340  -40.0000 H   0  0  0  0  0  0  0  0  0  0  0  0
  2  1  1  0  0  0  0
  3 35  1  0  0  0  0
  3  2  2  0  0  0  0
  4  3  1  0  0  0  0
  5  4  1  0  0  0  0
  5  7  1  0  0  0  0
  6  5  2  0  0  0  0
  7  8  1  0  0  0  0
  8  2  1  0  0  0  0
  8  9  2  0  0  0  0
 10 37  1  6  0  0  0
 10 11  1  0  0  0  0
 10 15  1  0  0  0  0
 10  4  1  0  0  0  0
 11 33  1  6  0  0  0
 11 34  1  0  0  0  0
 11 12  1  0  0  0  0
 12 39  1  0  0  0  0
 12 38  1  0  0  0  0
 13 12  1  0  0  0  0
 13 16  1  0  0  0  0
 14 15  1  0  0  0  0
 14 13  1  0  0  0  0
 15 40  1  0  0  0  0
 16 43  1  0  0  0  0
 16 42  1  0  0  0  0
 17 16  1  0  0  0  0
 17 44  1  0  0  0  0
 18 17  1  0  0  0  0
 19 18  1  0  0  0  0
 19 46  1  0  0  0  0
 20 13  1  0  0  0  0
 20 19  1  0  0  0  0
 21 23  1  0  0  0  0
 21 18  1  0  0  0  0
 22 21  2  0  0  0  0
 23 24  1  0  0  0  0
 24 25  2  0  0  0  0
 24 50  1  0  0  0  0
 25 29  1  0  0  0  0
 26 51  1  0  0  0  0
 26 25  1  0  0  0  0
 27 26  2  0  0  0  0
 28 27  1  0  0  0  0
 28 23  2  0  0  0  0
 29 30  1  0  0  0  0
 30 31  1  0  0  0  0
 31 56  1  0  0  0  0
 31 57  1  0  0  0  0
 31 32  1  0  0  0  0
 34 63  1  0  0  0  0
 34 61  1  0  0  0  0
 36  7  1  0  0  0  0
 41 15  1  0  0  0  0
 45 17  1  0  0  0  0
 47 19  1  0  0  0  0
 48 20  1  0  0  0  0
 49 20  1  0  0  0  0
 52 27  1  0  0  0  0
 53 28  1  0  0  0  0
 54 30  1  0  0  0  0
 55 30  1  0  0  0  0
 58 32  1  0  0  0  0
 59 32  1  0  0  0  0
 60 33  1  0  0  0  0
 62 34  1  0  0  0  0
M  END
>  <Pose>
1

>  <Score>
-4.12

$$$$
