
 OpenBabel03232221553D

 63 66  0  0  1  0  0  0  0  0999 V2000
    1.0050  -16.6030  -39.6370 B   0  0  0  0  0  0  0  0  0  0  0  0
    2.1600  -17.6920  -38.5550 C   0  0  0  0  0  0  0  0  0  0  0  0
    3.0780  -18.5290  -39.1460 C   0  0  0  0  0  0  0  0  0  0  0  0
    3.8840  -19.2880  -38.4110 N   0  0  0  0  0  0  0  0  0  0  0  0
    3.8200  -19.2550  -37.0830 C   0  0  0  0  0  0  0  0  0  0  0  0
    4.5760  -19.9680  -36.3430 O   0  0  0  0  0  0  0  0  0  0  0  0
    2.9300  -18.4460  -36.4880 N   0  0  0  0  0  0  0  0  0  0  0  0
    2.0880  -17.6540  -37.1780 C   0  0  0  0  0  0  0  0  0  0  0  0
    1.2590  -16.9010  -36.5880 O   0  0  0  0  0  0  0  0  0  0  0  0
    4.8450  -20.1540  -39.0640 C   0  0  1  0  0  0  0  0  0  0  0  0
    4.2930  -21.4350  -39.5450 C   0  0  1  0  0  0  0  0  0  0  0  0
    5.0290  -22.0170  -40.7590 C   0  0  0  0  0  0  0  0  0  0  0  0
    5.0940  -21.0040  -41.8750 C   0  0  2  0  0  0  0  0  0  0  0  0
    4.9420  -19.7130  -41.4060 O   0  0  0  0  0  0  0  0  0  0  0  0
    5.5270  -19.4500  -40.2050 C   0  0  0  0  0  0  0  0  0  0  0  0
    4.0160  -21.3650  -42.8810 C   0  0  0  0  0  0  0  0  0  0  0  0
    4.5920  -22.1940  -43.9970 C   0  0  0  0  0  0  0  0  0  0  0  0
    5.5390  -23.1250  -43.4390 N   0  0  0  0  0  0  0  0  0  0  0  0
    6.7620  -22.5420  -42.9060 C   0  0  0  0  0  0  0  0  0  0  0  0
    6.4530  -21.1130  -42.5250 C   0  0  0  0  0  0  0  0  0  0  0  0
    5.2880  -24.5000  -43.4400 C   0  0  0  0  0  0  0  0  0  0  0  0
    4.4380  -24.9040  -42.5650 O   0  0  0  0  0  0  0  0  0  0  0  0
    5.8530  -25.5450  -44.2870 C   0  0  1  0  0  0  0  0  0  0  0  0
    4.8630  -26.0890  -45.2180 N   0  0  0  0  0  0  0  0  0  0  0  0
    7.0300  -25.1210  -45.1360 C   0  0  0  0  0  0  0  0  0  0  0  0
    8.2570  -25.6690  -44.4460 C   0  0  0  0  0  0  0  0  0  0  0  0
    8.6430  -25.1730  -43.2280 C   0  0  0  0  0  0  0  0  0  0  0  0
    9.7790  -25.7060  -42.6270 C   0  0  0  0  0  0  0  0  0  0  0  0
   10.5120  -26.7080  -43.2230 C   0  0  0  0  0  0  0  0  0  0  0  0
   10.0910  -27.1810  -44.4490 C   0  0  0  0  0  0  0  0  0  0  0  0
    8.9690  -26.6720  -45.0710 C   0  0  0  0  0  0  0  0  0  0  0  0
   11.6320  -27.1990  -42.5790 O   0  0  0  0  0  0  0  0  0  0  0  0
    4.5230  -22.3950  -38.5260 O   0  0  0  0  0  0  0  0  0  0  0  0
    2.8200  -21.4540  -39.7920 C   0  0  0  0  0  0  0  0  0  0  0  0
    3.0930  -18.5230  -40.2380 H   0  0  0  0  0  0  0  0  0  0  0  0
    2.8790  -18.4200  -35.4250 H   0  0  0  0  0  0  0  0  0  0  0  0
    5.6460  -20.3340  -38.2780 H   0  0  0  0  0  0  0  0  0  0  0  0
    6.0480  -22.3200  -40.4930 H   0  0  0  0  0  0  0  0  0  0  0  0
    4.4790  -22.8970  -41.1070 H   0  0  0  0  0  0  0  0  0  0  0  0
    5.5730  -18.3470  -40.0450 H   0  0  0  0  0  0  0  0  0  0  0  0
    6.5920  -19.8260  -40.2450 H   0  0  0  0  0  0  0  0  0  0  0  0
    3.1880  -21.9200  -42.4160 H   0  0  0  0  0  0  0  0  0  0  0  0
    3.5920  -20.4570  -43.3640 H   0  0  0  0  0  0  0  0  0  0  0  0
    3.7890  -22.6640  -44.6020 H   0  0  0  0  0  0  0  0  0  0  0  0
    5.0880  -21.4840  -44.7090 H   0  0  0  0  0  0  0  0  0  0  0  0
    7.1590  -23.0550  -42.0340 H   0  0  0  0  0  0  0  0  0  0  0  0
    7.5400  -22.5240  -43.6890 H   0  0  0  0  0  0  0  0  0  0  0  0
    6.5320  -20.4240  -43.3940 H   0  0  0  0  0  0  0  0  0  0  0  0
    7.2540  -20.8060  -41.8300 H   0  0  0  0  0  0  0  0  0  0  0  0
    6.1910  -26.3840  -43.6470 H   0  0  0  0  0  0  0  0  0  0  0  0
    4.0900  -25.4090  -45.3840 H   0  0  0  0  0  0  0  0  0  0  0  0
    4.4220  -26.9330  -44.7750 H   0  0  0  0  0  0  0  0  0  0  0  0
    7.0200  -25.5390  -46.1400 H   0  0  0  0  0  0  0  0  0  0  0  0
    7.1450  -24.0410  -45.2080 H   0  0  0  0  0  0  0  0  0  0  0  0
    8.0600  -24.3930  -42.7760 H   0  0  0  0  0  0  0  0  0  0  0  0
   10.0850  -25.3180  -41.6690 H   0  0  0  0  0  0  0  0  0  0  0  0
   10.6520  -27.9570  -44.9230 H   0  0  0  0  0  0  0  0  0  0  0  0
    8.6310  -27.0360  -46.0320 H   0  0  0  0  0  0  0  0  0  0  0  0
   12.1670  -26.6760  -41.8860 H   0  0  0  0  0  0  0  0  0  0  0  0
    4.1160  -23.2650  -38.7470 H   0  0  0  0  0  0  0  0  0  0  0  0
    2.4480  -20.7140  -40.5050 H   0  0  0  0  0  0  0  0  0  0  0  0
    2.5430  -22.4580  -40.1700 H   0  0  0  0  0  0  0  0  0  0  0  0
    2.2930  -21.3780  -38.7940 H   0  0  0  0  0  0  0  0  0  0  0  0
  1  2  1  0  0  0  0
  2  8  1  0  0  0  0
  3  2  2  0  0  0  0
  3  4  1  0  0  0  0
  4  5  1  0  0  0  0
  5  7  1  0  0  0  0
  5  6  2  0  0  0  0
  7 36  1  0  0  0  0
  8  9  2  0  0  0  0
  8  7  1  0  0  0  0
 10  4  1  0  0  0  0
 10 37  1  1  0  0  0
 11 10  1  0  0  0  0
 11 33  1  1  0  0  0
 12 38  1  0  0  0  0
 12 11  1  0  0  0  0
 13 14  1  1  0  0  0
 13 12  1  0  0  0  0
 14 15  1  0  0  0  0
 15 40  1  0  0  0  0
 15 10  1  0  0  0  0
 16 42  1  0  0  0  0
 16 13  1  0  0  0  0
 17 18  1  0  0  0  0
 17 16  1  0  0  0  0
 18 19  1  0  0  0  0
 19 20  1  0  0  0  0
 19 46  1  0  0  0  0
 20 13  1  0  0  0  0
 20 49  1  0  0  0  0
 21 18  1  0  0  0  0
 21 22  2  0  0  0  0
 23 50  1  1  0  0  0
 23 21  1  0  0  0  0
 24 52  1  0  0  0  0
 24 23  1  0  0  0  0
 25 26  1  0  0  0  0
 25 23  1  0  0  0  0
 26 27  1  0  0  0  0
 27 55  1  0  0  0  0
 27 28  2  0  0  0  0
 28 56  1  0  0  0  0
 29 28  1  0  0  0  0
 29 32  1  0  0  0  0
 30 29  2  0  0  0  0
 31 30  1  0  0  0  0
 31 26  2  0  0  0  0
 32 59  1  0  0  0  0
 34 11  1  0  0  0  0
 34 63  1  0  0  0  0
 35  3  1  0  0  0  0
 39 12  1  0  0  0  0
 41 15  1  0  0  0  0
 43 16  1  0  0  0  0
 44 17  1  0  0  0  0
 45 17  1  0  0  0  0
 47 19  1  0  0  0  0
 48 20  1  0  0  0  0
 51 24  1  0  0  0  0
 53 25  1  0  0  0  0
 54 25  1  0  0  0  0
 57 30  1  0  0  0  0
 58 31  1  0  0  0  0
 60 33  1  0  0  0  0
 61 34  1  0  0  0  0
 62 34  1  0  0  0  0
M  END
>  <Pose>
1

>  <Score>
-4.64

$$$$
