
 OpenBabel03232221553D

 41 44  0  0  1  0  0  0  0  0999 V2000
   14.3010  -22.4890  -45.2200 B   0  0  0  0  0  0  0  0  0  0  0  0
   12.9170  -21.4140  -44.4460 C   0  0  0  0  0  0  0  0  0  0  0  0
   11.5810  -21.7000  -44.6260 C   0  0  0  0  0  0  0  0  0  0  0  0
   10.5940  -20.9380  -44.0760 N   0  0  0  0  0  0  0  0  0  0  0  0
   10.9410  -19.8720  -43.3330 C   0  0  0  0  0  0  0  0  0  0  0  0
    9.8180  -19.2750  -42.8960 N   0  0  0  0  0  0  0  0  0  0  0  0
    8.7460  -19.9480  -43.3520 C   0  0  0  0  0  0  0  0  0  0  0  0
    9.2490  -20.9950  -44.0950 C   0  0  0  0  0  0  0  0  0  0  0  0
    7.3130  -19.6390  -43.1150 C   0  0  0  0  0  0  0  0  0  0  0  0
    7.0590  -19.3740  -41.7170 N   0  0  0  0  0  0  0  0  0  0  0  0
    5.7720  -18.9960  -41.3040 C   0  0  0  0  0  0  0  0  0  0  0  0
    4.9610  -18.5340  -42.1340 O   0  0  0  0  0  0  0  0  0  0  0  0
    5.3640  -19.1390  -39.8940 C   0  0  1  0  0  0  0  0  0  0  0  0
    3.9050  -19.5090  -39.8000 C   0  0  0  0  0  0  0  0  0  0  0  0
    3.7440  -20.7730  -40.4920 N   0  0  0  0  0  0  0  0  0  0  0  0
    4.7070  -21.7070  -40.4220 C   0  0  0  0  0  0  0  0  0  0  0  0
    4.2860  -22.7590  -41.1520 N   0  0  0  0  0  0  0  0  0  0  0  0
    3.1150  -22.4970  -41.6550 N   0  0  0  0  0  0  0  0  0  0  0  0
    2.7670  -21.2680  -41.2520 C   0  0  0  0  0  0  0  0  0  0  0  0
    1.4720  -20.6290  -41.6420 C   0  0  0  0  0  0  0  0  0  0  0  0
    5.9660  -21.5580  -39.6750 C   0  0  0  0  0  0  0  0  0  0  0  0
    6.2350  -20.1680  -39.2200 C   0  0  0  0  0  0  0  0  0  0  0  0
   12.2810  -19.5570  -43.1320 C   0  0  0  0  0  0  0  0  0  0  0  0
   13.2770  -20.3220  -43.6850 C   0  0  0  0  0  0  0  0  0  0  0  0
   11.3150  -22.5480  -45.2190 H   0  0  0  0  0  0  0  0  0  0  0  0
    8.7220  -21.7710  -44.6330 H   0  0  0  0  0  0  0  0  0  0  0  0
    7.0130  -18.7830  -43.7670 H   0  0  0  0  0  0  0  0  0  0  0  0
    6.6850  -20.5110  -43.4480 H   0  0  0  0  0  0  0  0  0  0  0  0
    7.8150  -19.4600  -41.0100 H   0  0  0  0  0  0  0  0  0  0  0  0
    5.5650  -18.1700  -39.3800 H   0  0  0  0  0  0  0  0  0  0  0  0
    3.6400  -19.6370  -38.7230 H   0  0  0  0  0  0  0  0  0  0  0  0
    3.3040  -18.6950  -40.2520 H   0  0  0  0  0  0  0  0  0  0  0  0
    1.5360  -19.5450  -41.5110 H   0  0  0  0  0  0  0  0  0  0  0  0
    1.2520  -20.8290  -42.7250 H   0  0  0  0  0  0  0  0  0  0  0  0
    0.6600  -21.0910  -41.0470 H   0  0  0  0  0  0  0  0  0  0  0  0
    5.9430  -22.2150  -38.7610 H   0  0  0  0  0  0  0  0  0  0  0  0
    6.7870  -21.9610  -40.3030 H   0  0  0  0  0  0  0  0  0  0  0  0
    7.3020  -19.9030  -39.4540 H   0  0  0  0  0  0  0  0  0  0  0  0
    6.1200  -20.0520  -38.1200 H   0  0  0  0  0  0  0  0  0  0  0  0
   12.4930  -18.6870  -42.5240 H   0  0  0  0  0  0  0  0  0  0  0  0
   14.3070  -20.0380  -43.5010 H   0  0  0  0  0  0  0  0  0  0  0  0
  1  2  1  0  0  0  0
  2 24  1  0  0  0  0
  3  2  2  0  0  0  0
  3  4  1  0  0  0  0
  4  5  1  0  0  0  0
  5 23  1  0  0  0  0
  5  6  2  0  0  0  0
  7  9  1  0  0  0  0
  7  6  1  0  0  0  0
  8  4  1  0  0  0  0
  8  7  2  0  0  0  0
  9 10  1  0  0  0  0
 10 11  1  0  0  0  0
 10 29  1  0  0  0  0
 11 13  1  0  0  0  0
 12 11  2  0  0  0  0
 13 14  1  0  0  0  0
 13 30  1  1  0  0  0
 13 22  1  0  0  0  0
 14 31  1  0  0  0  0
 15 16  1  0  0  0  0
 15 14  1  0  0  0  0
 16 21  1  0  0  0  0
 17 16  2  0  0  0  0
 18 19  2  0  0  0  0
 18 17  1  0  0  0  0
 19 15  1  0  0  0  0
 20 33  1  0  0  0  0
 20 19  1  0  0  0  0
 20 35  1  0  0  0  0
 21 22  1  0  0  0  0
 21 36  1  0  0  0  0
 22 39  1  0  0  0  0
 23 40  1  0  0  0  0
 24 41  1  0  0  0  0
 24 23  2  0  0  0  0
 25  3  1  0  0  0  0
 26  8  1  0  0  0  0
 27  9  1  0  0  0  0
 28  9  1  0  0  0  0
 32 14  1  0  0  0  0
 34 20  1  0  0  0  0
 37 21  1  0  0  0  0
 38 22  1  0  0  0  0
M  END
>  <Pose>
1

>  <Score>
-4.13

$$$$
