
 OpenBabel03232221553D

 37 40  0  0  1  0  0  0  0  0999 V2000
   -0.2520  -14.7410  -36.8730 B   0  0  0  0  0  0  0  0  0  0  0  0
    1.0130  -16.1800  -36.7370 C   0  0  0  0  0  0  0  0  0  0  0  0
    1.3450  -16.9530  -37.8280 C   0  0  0  0  0  0  0  0  0  0  0  0
    2.2370  -17.9740  -37.7470 N   0  0  0  0  0  0  0  0  0  0  0  0
    2.7160  -18.8450  -38.6220 N   0  0  0  0  0  0  0  0  0  0  0  0
    3.5970  -19.6830  -38.0590 C   0  0  0  0  0  0  0  0  0  0  0  0
    3.6490  -19.2730  -36.7260 C   0  0  0  0  0  0  0  0  0  0  0  0
    2.7940  -18.2040  -36.5440 C   0  0  0  0  0  0  0  0  0  0  0  0
    2.4750  -17.4470  -35.4610 N   0  0  0  0  0  0  0  0  0  0  0  0
    1.5970  -16.4340  -35.5160 C   0  0  0  0  0  0  0  0  0  0  0  0
    4.3620  -20.7890  -38.6510 C   0  0  0  0  0  0  0  0  0  0  0  0
    4.8420  -21.6780  -37.8970 O   0  0  0  0  0  0  0  0  0  0  0  0
    4.5840  -20.9060  -40.0470 N   0  0  0  0  0  0  0  0  0  0  0  0
    4.8320  -22.1770  -40.6240 C   0  0  0  0  0  0  0  0  0  0  0  0
    5.6400  -22.1260  -41.8660 C   0  0  2  0  0  0  0  0  0  0  0  0
    6.0240  -20.8180  -42.3130 N   0  0  2  0  0  0  0  0  0  0  0  0
    4.9040  -19.8960  -42.2860 C   0  0  0  0  0  0  0  0  0  0  0  0
    4.5450  -19.6980  -40.8260 C   0  0  0  0  0  0  0  0  0  0  0  0
    6.5670  -21.0520  -43.6170 C   0  0  0  0  0  0  0  0  0  0  0  0
    5.7080  -22.1340  -44.2210 C   0  0  0  0  0  0  0  0  0  0  0  0
    4.8920  -22.6760  -43.0690 C   0  0  0  0  0  0  0  0  0  0  0  0
    0.8730  -16.7340  -38.7730 H   0  0  0  0  0  0  0  0  0  0  0  0
    4.2800  -19.7560  -35.9960 H   0  0  0  0  0  0  0  0  0  0  0  0
    1.3460  -15.8300  -34.6390 H   0  0  0  0  0  0  0  0  0  0  0  0
    3.8610  -22.6920  -40.8260 H   0  0  0  0  0  0  0  0  0  0  0  0
    5.3330  -22.8480  -39.8600 H   0  0  0  0  0  0  0  0  0  0  0  0
    6.5790  -22.7130  -41.7420 H   0  0  0  0  0  0  0  0  0  0  0  0
    5.2670  -18.9300  -42.6840 H   0  0  0  0  0  0  0  0  0  0  0  0
    4.0550  -20.2150  -42.9030 H   0  0  0  0  0  0  0  0  0  0  0  0
    3.5330  -19.2530  -40.7330 H   0  0  0  0  0  0  0  0  0  0  0  0
    5.2520  -18.9260  -40.3870 H   0  0  0  0  0  0  0  0  0  0  0  0
    7.6150  -21.4380  -43.4680 H   0  0  0  0  0  0  0  0  0  0  0  0
    6.6000  -20.1440  -44.2490 H   0  0  0  0  0  0  0  0  0  0  0  0
    5.0780  -21.6970  -45.0230 H   0  0  0  0  0  0  0  0  0  0  0  0
    6.3260  -22.9270  -44.6920 H   0  0  0  0  0  0  0  0  0  0  0  0
    4.8570  -23.7740  -43.0450 H   0  0  0  0  0  0  0  0  0  0  0  0
    3.8690  -22.2540  -43.0640 H   0  0  0  0  0  0  0  0  0  0  0  0
  1  2  1  0  0  0  0
  2 10  1  0  0  0  0
  3  4  1  0  0  0  0
  3  2  2  0  0  0  0
  4  8  1  0  0  0  0
  5  6  2  0  0  0  0
  5  4  1  0  0  0  0
  6  7  1  0  0  0  0
  7  8  2  0  0  0  0
  7 23  1  0  0  0  0
  8  9  1  0  0  0  0
 10  9  2  0  0  0  0
 10 24  1  0  0  0  0
 11  6  1  0  0  0  0
 11 12  2  0  0  0  0
 13 11  1  0  0  0  0
 14 13  1  0  0  0  0
 14 26  1  0  0  0  0
 15 27  1  1  0  0  0
 15 14  1  0  0  0  0
 16 19  1  6  0  0  0
 16 17  1  0  0  0  0
 16 15  1  0  0  0  0
 17 18  1  0  0  0  0
 18 30  1  0  0  0  0
 18 31  1  0  0  0  0
 18 13  1  0  0  0  0
 19 32  1  0  0  0  0
 20 19  1  0  0  0  0
 20 21  1  0  0  0  0
 21 37  1  0  0  0  0
 21 36  1  0  0  0  0
 21 15  1  0  0  0  0
 22  3  1  0  0  0  0
 25 14  1  0  0  0  0
 28 17  1  0  0  0  0
 29 17  1  0  0  0  0
 33 19  1  0  0  0  0
 34 20  1  0  0  0  0
 35 20  1  0  0  0  0
M  END
>  <Pose>
1

>  <Score>
-3.83

$$$$
