
 OpenBabel03232221553D

 39 42  0  0  0  0  0  0  0  0999 V2000
   -0.9980  -19.7470  -38.0910 B   0  0  0  0  0  0  0  0  0  0  0  0
    0.8850  -19.8900  -38.3340 C   0  0  0  0  0  0  0  0  0  0  0  0
    1.7460  -19.2300  -37.5150 C   0  0  0  0  0  0  0  0  0  0  0  0
    3.0590  -19.3250  -37.6800 N   0  0  0  0  0  0  0  0  0  0  0  0
    4.0790  -18.7810  -37.0150 N   0  0  0  0  0  0  0  0  0  0  0  0
    5.2210  -19.1980  -37.5860 C   0  0  0  0  0  0  0  0  0  0  0  0
    4.9230  -20.0290  -38.6420 C   0  0  0  0  0  0  0  0  0  0  0  0
    3.5350  -20.0910  -38.6780 C   0  0  0  0  0  0  0  0  0  0  0  0
    2.6980  -20.7490  -39.4950 N   0  0  0  0  0  0  0  0  0  0  0  0
    1.3740  -20.6680  -39.3480 C   0  0  0  0  0  0  0  0  0  0  0  0
    5.8180  -20.7090  -39.5450 C   0  0  0  0  0  0  0  0  0  0  0  0
    6.8770  -21.2080  -39.0670 O   0  0  0  0  0  0  0  0  0  0  0  0
    5.5200  -20.8190  -40.9280 N   0  0  0  0  0  0  0  0  0  0  0  0
    4.7210  -19.7440  -41.5350 C   0  0  0  0  0  0  0  0  0  0  0  0
    5.1240  -19.7720  -43.0100 C   0  0  0  0  0  0  0  0  0  0  0  0
    6.5310  -20.0410  -43.0250 N   0  0  0  0  0  0  0  0  0  0  0  0
    6.8290  -21.5000  -42.9200 C   0  0  0  0  0  0  0  0  0  0  0  0
    5.9790  -21.9450  -41.7280 C   0  0  0  0  0  0  0  0  0  0  0  0
    7.5830  -19.1410  -43.0770 C   0  0  0  0  0  0  0  0  0  0  0  0
    8.7240  -19.5380  -42.5950 O   0  0  0  0  0  0  0  0  0  0  0  0
    7.6210  -17.7850  -43.5970 C   0  0  0  0  0  0  0  0  0  0  0  0
    7.6860  -16.6820  -42.8380 O   0  0  0  0  0  0  0  0  0  0  0  0
    7.7050  -15.6060  -43.5480 C   0  0  0  0  0  0  0  0  0  0  0  0
    7.6520  -15.9370  -44.8790 C   0  0  0  0  0  0  0  0  0  0  0  0
    7.5980  -17.3210  -44.8910 C   0  0  0  0  0  0  0  0  0  0  0  0
    1.3560  -18.6070  -36.7040 H   0  0  0  0  0  0  0  0  0  0  0  0
    6.2070  -18.9070  -37.2450 H   0  0  0  0  0  0  0  0  0  0  0  0
    0.6740  -21.1850  -39.9890 H   0  0  0  0  0  0  0  0  0  0  0  0
    5.0480  -18.7820  -41.1340 H   0  0  0  0  0  0  0  0  0  0  0  0
    3.6580  -19.9720  -41.4300 H   0  0  0  0  0  0  0  0  0  0  0  0
    4.7510  -18.9640  -43.6080 H   0  0  0  0  0  0  0  0  0  0  0  0
    4.5740  -20.6910  -43.4420 H   0  0  0  0  0  0  0  0  0  0  0  0
    7.8980  -21.6700  -42.7650 H   0  0  0  0  0  0  0  0  0  0  0  0
    6.4480  -21.9250  -43.8710 H   0  0  0  0  0  0  0  0  0  0  0  0
    5.1140  -22.5440  -42.0550 H   0  0  0  0  0  0  0  0  0  0  0  0
    6.6340  -22.5570  -41.0830 H   0  0  0  0  0  0  0  0  0  0  0  0
    7.7560  -14.5690  -43.1820 H   0  0  0  0  0  0  0  0  0  0  0  0
    7.6490  -15.2740  -45.7480 H   0  0  0  0  0  0  0  0  0  0  0  0
    7.5350  -17.8880  -45.8090 H   0  0  0  0  0  0  0  0  0  0  0  0
  2  1  1  0  0  0  0
  2  3  2  0  0  0  0
  3 26  1  0  0  0  0
  4  3  1  0  0  0  0
  4  5  1  0  0  0  0
  6 27  1  0  0  0  0
  6  5  2  0  0  0  0
  7  6  1  0  0  0  0
  8  7  2  0  0  0  0
  8  4  1  0  0  0  0
  9 10  2  0  0  0  0
  9  8  1  0  0  0  0
 10  2  1  0  0  0  0
 11 12  2  0  0  0  0
 11  7  1  0  0  0  0
 13 11  1  0  0  0  0
 14 30  1  0  0  0  0
 14 29  1  0  0  0  0
 14 13  1  0  0  0  0
 15 14  1  0  0  0  0
 16 15  1  0  0  0  0
 16 17  1  0  0  0  0
 17 33  1  0  0  0  0
 17 18  1  0  0  0  0
 18 36  1  0  0  0  0
 18 13  1  0  0  0  0
 19 16  1  0  0  0  0
 19 20  2  0  0  0  0
 21 19  1  0  0  0  0
 21 22  1  0  0  0  0
 23 37  1  0  0  0  0
 23 22  1  0  0  0  0
 24 23  2  0  0  0  0
 25 24  1  0  0  0  0
 25 21  2  0  0  0  0
 28 10  1  0  0  0  0
 31 15  1  0  0  0  0
 32 15  1  0  0  0  0
 34 17  1  0  0  0  0
 35 18  1  0  0  0  0
 38 24  1  0  0  0  0
 39 25  1  0  0  0  0
M  END
>  <Pose>
1

>  <Score>
-3.52

$$$$
