
 OpenBabel03232221553D

 40 43  0  0  0  0  0  0  0  0999 V2000
    6.3010  -10.2760  -40.3800 B   0  0  0  0  0  0  0  0  0  0  0  0
    5.0030  -11.1140  -39.2440 C   0  0  0  0  0  0  0  0  0  0  0  0
    4.1340  -12.0710  -39.7210 C   0  0  0  0  0  0  0  0  0  0  0  0
    3.2070  -12.6820  -38.9520 N   0  0  0  0  0  0  0  0  0  0  0  0
    3.0720  -12.3890  -37.6470 C   0  0  0  0  0  0  0  0  0  0  0  0
    2.1550  -12.9870  -36.8670 N   0  0  0  0  0  0  0  0  0  0  0  0
    1.2990  -13.9290  -37.3310 C   0  0  0  0  0  0  0  0  0  0  0  0
    1.4190  -14.2450  -38.6680 C   0  0  0  0  0  0  0  0  0  0  0  0
    2.3740  -13.6150  -39.4590 C   0  0  0  0  0  0  0  0  0  0  0  0
    2.4910  -13.8930  -40.6630 O   0  0  0  0  0  0  0  0  0  0  0  0
    0.2980  -14.5770  -36.4450 C   0  0  0  0  0  0  0  0  0  0  0  0
    0.1730  -15.9600  -36.6520 O   0  0  0  0  0  0  0  0  0  0  0  0
    1.1950  -16.8800  -36.5550 C   0  0  0  0  0  0  0  0  0  0  0  0
    2.2700  -16.5530  -36.0110 O   0  0  0  0  0  0  0  0  0  0  0  0
    0.9830  -18.2390  -37.1040 C   0  0  0  0  0  0  0  0  0  0  0  0
    2.1210  -18.6730  -37.8610 N   0  0  0  0  0  0  0  0  0  0  0  0
    3.3450  -19.1350  -37.3340 C   0  0  0  0  0  0  0  0  0  0  0  0
    3.7000  -19.2630  -36.1340 O   0  0  0  0  0  0  0  0  0  0  0  0
    4.2350  -19.4760  -38.4650 C   0  0  0  0  0  0  0  0  0  0  0  0
    3.5500  -19.2230  -39.6220 C   0  0  0  0  0  0  0  0  0  0  0  0
    4.1090  -19.4400  -40.8480 C   0  0  0  0  0  0  0  0  0  0  0  0
    5.3930  -19.9260  -40.9070 C   0  0  0  0  0  0  0  0  0  0  0  0
    6.0850  -20.1830  -39.7390 C   0  0  0  0  0  0  0  0  0  0  0  0
    5.5300  -19.9670  -38.4970 C   0  0  0  0  0  0  0  0  0  0  0  0
    2.2220  -18.7180  -39.2660 C   0  0  0  0  0  0  0  0  0  0  0  0
    1.3330  -18.3870  -40.1090 O   0  0  0  0  0  0  0  0  0  0  0  0
    3.9400  -11.4210  -37.1340 C   0  0  0  0  0  0  0  0  0  0  0  0
    4.8890  -10.7910  -37.9080 C   0  0  0  0  0  0  0  0  0  0  0  0
    4.2220  -12.3280  -40.7780 H   0  0  0  0  0  0  0  0  0  0  0  0
    0.7610  -15.0010  -39.1100 H   0  0  0  0  0  0  0  0  0  0  0  0
    0.5390  -14.4110  -35.3770 H   0  0  0  0  0  0  0  0  0  0  0  0
   -0.7240  -14.1280  -36.5970 H   0  0  0  0  0  0  0  0  0  0  0  0
    0.1220  -18.1360  -37.8250 H   0  0  0  0  0  0  0  0  0  0  0  0
    0.6930  -18.9640  -36.3130 H   0  0  0  0  0  0  0  0  0  0  0  0
    3.5610  -19.2370  -41.7510 H   0  0  0  0  0  0  0  0  0  0  0  0
    5.8150  -20.0910  -41.8860 H   0  0  0  0  0  0  0  0  0  0  0  0
    7.0920  -20.5640  -39.8490 H   0  0  0  0  0  0  0  0  0  0  0  0
    6.0640  -20.1640  -37.5830 H   0  0  0  0  0  0  0  0  0  0  0  0
    3.8250  -11.1930  -36.0880 H   0  0  0  0  0  0  0  0  0  0  0  0
    5.5590  -10.0420  -37.5070 H   0  0  0  0  0  0  0  0  0  0  0  0
  1  2  1  0  0  0  0
  2 28  2  0  0  0  0
  3  2  1  0  0  0  0
  3  4  1  0  0  0  0
  4  5  1  0  0  0  0
  5 27  2  0  0  0  0
  5  6  1  0  0  0  0
  7  6  2  0  0  0  0
  7 11  1  0  0  0  0
  8  7  1  0  0  0  0
  9  4  1  0  0  0  0
  9  8  1  0  0  0  0
 10  9  2  0  0  0  0
 11 31  1  0  0  0  0
 12 13  1  0  0  0  0
 12 11  1  0  0  0  0
 13 14  2  0  0  0  0
 15 13  1  0  0  0  0
 15 34  1  0  0  0  0
 16 17  1  0  0  0  0
 16 15  1  0  0  0  0
 17 18  2  0  0  0  0
 19 17  1  0  0  0  0
 20 25  1  0  0  0  0
 20 19  2  0  0  0  0
 21 20  1  0  0  0  0
 22 21  2  0  0  0  0
 22 23  1  0  0  0  0
 23 24  2  0  0  0  0
 24 19  1  0  0  0  0
 24 38  1  0  0  0  0
 25 16  1  0  0  0  0
 26 25  2  0  0  0  0
 27 39  1  0  0  0  0
 28 40  1  0  0  0  0
 28 27  1  0  0  0  0
 29  3  1  0  0  0  0
 30  8  1  0  0  0  0
 32 11  1  0  0  0  0
 33 15  1  0  0  0  0
 35 21  1  0  0  0  0
 36 22  1  0  0  0  0
 37 23  1  0  0  0  0
M  END
>  <Pose>
1

>  <Score>
-4.01

$$$$
