
 OpenBabel03232221553D

 47 50  0  0  0  0  0  0  0  0999 V2000
    6.2800  -19.9150  -39.0250 B   0  0  0  0  0  0  0  0  0  0  0  0
    5.3450  -21.0520  -40.2260 C   0  0  0  0  0  0  0  0  0  0  0  0
    5.9550  -21.7960  -41.1750 C   0  0  0  0  0  0  0  0  0  0  0  0
    5.3120  -22.6620  -41.9640 N   0  0  0  0  0  0  0  0  0  0  0  0
    3.9970  -22.8040  -41.8090 C   0  0  0  0  0  0  0  0  0  0  0  0
    3.3190  -23.6760  -42.6080 N   0  0  0  0  0  0  0  0  0  0  0  0
    3.9060  -24.4030  -43.5480 C   0  0  0  0  0  0  0  0  0  0  0  0
    5.2650  -24.2750  -43.7270 C   0  0  0  0  0  0  0  0  0  0  0  0
    5.9330  -24.9990  -44.6950 C   0  0  0  0  0  0  0  0  0  0  0  0
    5.2750  -25.8950  -45.5390 C   0  0  0  0  0  0  0  0  0  0  0  0
    3.9160  -26.0150  -45.3500 C   0  0  0  0  0  0  0  0  0  0  0  0
    3.2420  -25.2910  -44.3810 C   0  0  0  0  0  0  0  0  0  0  0  0
    5.9380  -23.3810  -42.9020 C   0  0  0  0  0  0  0  0  0  0  0  0
    7.1730  -23.2550  -43.0560 O   0  0  0  0  0  0  0  0  0  0  0  0
    3.3610  -22.0700  -40.8660 N   0  0  0  0  0  0  0  0  0  0  0  0
    3.9270  -21.1920  -40.0490 C   0  0  0  0  0  0  0  0  0  0  0  0
    3.3440  -20.3490  -39.1570 N   0  0  0  0  0  0  0  0  0  0  0  0
    2.7690  -19.5180  -38.2790 C   0  0  0  0  0  0  0  0  0  0  0  0
    1.6000  -18.8340  -38.6380 C   0  0  0  0  0  0  0  0  0  0  0  0
    1.1280  -17.8180  -37.8750 C   0  0  0  0  0  0  0  0  0  0  0  0
    1.7860  -17.4440  -36.7280 C   0  0  0  0  0  0  0  0  0  0  0  0
    2.9360  -18.0800  -36.3160 C   0  0  0  0  0  0  0  0  0  0  0  0
    3.3960  -19.1050  -37.1090 C   0  0  0  0  0  0  0  0  0  0  0  0
    0.7600  -19.2750  -39.7590 C   0  0  0  0  0  0  0  0  0  0  0  0
   -0.4870  -19.2070  -39.6150 O   0  0  0  0  0  0  0  0  0  0  0  0
    1.2170  -19.7610  -40.9500 O   0  0  0  0  0  0  0  0  0  0  0  0
    1.7070  -18.9260  -41.9820 C   0  0  0  0  0  0  0  0  0  0  0  0
    2.9300  -18.1450  -41.4950 C   0  0  0  0  0  0  0  0  0  0  0  0
    2.4560  -16.9040  -40.7760 C   0  0  0  0  0  0  0  0  0  0  0  0
    7.0300  -21.6960  -41.3200 H   0  0  0  0  0  0  0  0  0  0  0  0
    6.9880  -24.8550  -44.7820 H   0  0  0  0  0  0  0  0  0  0  0  0
    5.8200  -26.4550  -46.2940 H   0  0  0  0  0  0  0  0  0  0  0  0
    3.3700  -26.7050  -45.9910 H   0  0  0  0  0  0  0  0  0  0  0  0
    2.1780  -25.3740  -44.2250 H   0  0  0  0  0  0  0  0  0  0  0  0
    2.3100  -22.2770  -40.8430 H   0  0  0  0  0  0  0  0  0  0  0  0
    4.5330  -19.7300  -38.8920 H   0  0  0  0  0  0  0  0  0  0  0  0
    0.2140  -17.2550  -38.1270 H   0  0  0  0  0  0  0  0  0  0  0  0
    1.3870  -16.6250  -36.1470 H   0  0  0  0  0  0  0  0  0  0  0  0
    3.4050  -17.7400  -35.4070 H   0  0  0  0  0  0  0  0  0  0  0  0
    4.3030  -19.5870  -36.7660 H   0  0  0  0  0  0  0  0  0  0  0  0
    2.0390  -19.4700  -42.8830 H   0  0  0  0  0  0  0  0  0  0  0  0
    0.9500  -18.1750  -42.2990 H   0  0  0  0  0  0  0  0  0  0  0  0
    3.5330  -18.7490  -40.7900 H   0  0  0  0  0  0  0  0  0  0  0  0
    3.5490  -17.8160  -42.3630 H   0  0  0  0  0  0  0  0  0  0  0  0
    2.4940  -16.0340  -41.4550 H   0  0  0  0  0  0  0  0  0  0  0  0
    1.3970  -17.0270  -40.4220 H   0  0  0  0  0  0  0  0  0  0  0  0
    3.1160  -16.6750  -39.9130 H   0  0  0  0  0  0  0  0  0  0  0  0
  2 16  2  0  0  0  0
  2  1  1  0  0  0  0
  3  2  1  0  0  0  0
  4  5  1  0  0  0  0
  4  3  1  0  0  0  0
  5 15  1  0  0  0  0
  6  5  2  0  0  0  0
  7  6  1  0  0  0  0
  8  7  1  0  0  0  0
  8 13  1  0  0  0  0
  9  8  2  0  0  0  0
 10 11  2  0  0  0  0
 10  9  1  0  0  0  0
 11 12  1  0  0  0  0
 12 34  1  0  0  0  0
 12  7  2  0  0  0  0
 13  4  1  0  0  0  0
 14 13  2  0  0  0  0
 15 35  1  0  0  0  0
 15 16  1  0  0  0  0
 16 17  1  0  0  0  0
 17 36  1  0  0  0  0
 17 18  1  0  0  0  0
 18 23  1  0  0  0  0
 19 18  2  0  0  0  0
 19 20  1  0  0  0  0
 20 21  2  0  0  0  0
 21 22  1  0  0  0  0
 21 38  1  0  0  0  0
 22 39  1  0  0  0  0
 23 40  1  0  0  0  0
 23 22  2  0  0  0  0
 24 25  2  0  0  0  0
 24 19  1  0  0  0  0
 26 24  1  0  0  0  0
 27 28  1  0  0  0  0
 27 26  1  0  0  0  0
 28 43  1  0  0  0  0
 28 29  1  0  0  0  0
 29 46  1  0  0  0  0
 29 47  1  0  0  0  0
 30  3  1  0  0  0  0
 31  9  1  0  0  0  0
 32 10  1  0  0  0  0
 33 11  1  0  0  0  0
 37 20  1  0  0  0  0
 41 27  1  0  0  0  0
 42 27  1  0  0  0  0
 44 28  1  0  0  0  0
 45 29  1  0  0  0  0
M  END
>  <Pose>
1

>  <Score>
-4.12

$$$$
