
 OpenBabel03232221553D

 56 59  0  0  1  0  0  0  0  0999 V2000
    0.3780  -12.6780  -36.1250 B   0  0  0  0  0  0  0  0  0  0  0  0
    0.5410  -14.3330  -37.0930 C   0  0  0  0  0  0  0  0  0  0  0  0
    0.9750  -15.4740  -36.4390 C   0  0  0  0  0  0  0  0  0  0  0  0
    1.0950  -16.6740  -37.1330 C   0  0  0  0  0  0  0  0  0  0  0  0
    0.7900  -16.7600  -38.4720 C   0  0  0  0  0  0  0  0  0  0  0  0
    0.3620  -15.6070  -39.0910 C   0  0  0  0  0  0  0  0  0  0  0  0
    0.2350  -14.4100  -38.4310 C   0  0  0  0  0  0  0  0  0  0  0  0
    0.9100  -18.0010  -39.2070 C   0  0  0  0  0  0  0  0  0  0  0  0
    0.8480  -17.9820  -40.4650 O   0  0  0  0  0  0  0  0  0  0  0  0
    1.1060  -19.3190  -38.5480 C   0  0  0  0  0  0  0  0  0  0  0  0
    2.2350  -20.0200  -39.0830 N   0  0  0  0  0  0  0  0  0  0  0  0
    2.2710  -20.7280  -40.1890 N   0  0  0  0  0  0  0  0  0  0  0  0
    3.4950  -21.2430  -40.3800 C   0  0  0  0  0  0  0  0  0  0  0  0
    4.2530  -20.8380  -39.3510 N   0  0  0  0  0  0  0  0  0  0  0  0
    3.4580  -20.0740  -38.5450 C   0  0  2  0  0  0  0  0  0  0  0  0
    3.8660  -19.4230  -37.3020 C   0  0  0  0  0  0  0  0  0  0  0  0
    5.0160  -18.4620  -37.4880 C   0  0  0  0  0  0  0  0  0  0  0  0
    6.3220  -19.1840  -37.7380 C   0  0  0  0  0  0  0  0  0  0  0  0
    6.3920  -19.8240  -39.0900 C   0  0  0  0  0  0  0  0  0  0  0  0
    5.6520  -21.1530  -39.1370 C   0  0  0  0  0  0  0  0  0  0  0  0
    3.9540  -22.0900  -41.4890 C   0  0  0  0  0  0  0  0  0  0  0  0
    3.6170  -23.4680  -41.3050 N   0  0  0  0  0  0  0  0  0  0  0  0
    3.0760  -24.2800  -42.3430 C   0  0  0  0  0  0  0  0  0  0  0  0
    1.7330  -24.5700  -42.4240 C   0  0  0  0  0  0  0  0  0  0  0  0
    1.2220  -25.3480  -43.4310 C   0  0  0  0  0  0  0  0  0  0  0  0
    2.0560  -25.8520  -44.3790 C   0  0  0  0  0  0  0  0  0  0  0  0
    3.4010  -25.5650  -44.3000 C   0  0  0  0  0  0  0  0  0  0  0  0
    3.9260  -24.7820  -43.2930 C   0  0  0  0  0  0  0  0  0  0  0  0
    1.5730  -26.6370  -45.3990 O   0  0  0  0  0  0  0  0  0  0  0  0
    0.3900  -27.3900  -45.2900 C   0  0  0  0  0  0  0  0  0  0  0  0
    1.2100  -15.3980  -35.3950 H   0  0  0  0  0  0  0  0  0  0  0  0
    1.4330  -17.5470  -36.6040 H   0  0  0  0  0  0  0  0  0  0  0  0
    0.1140  -15.6560  -40.1600 H   0  0  0  0  0  0  0  0  0  0  0  0
   -0.1030  -13.5450  -38.9670 H   0  0  0  0  0  0  0  0  0  0  0  0
    1.1320  -19.2250  -37.4460 H   0  0  0  0  0  0  0  0  0  0  0  0
    0.1860  -19.9210  -38.8070 H   0  0  0  0  0  0  0  0  0  0  0  0
    3.0350  -18.8490  -36.8550 H   0  0  0  0  0  0  0  0  0  0  0  0
    4.1940  -20.1510  -36.5050 H   0  0  0  0  0  0  0  0  0  0  0  0
    4.8400  -17.7050  -38.2530 H   0  0  0  0  0  0  0  0  0  0  0  0
    5.1370  -17.9220  -36.5160 H   0  0  0  0  0  0  0  0  0  0  0  0
    6.5730  -19.8750  -36.9310 H   0  0  0  0  0  0  0  0  0  0  0  0
    7.1180  -18.3850  -37.7200 H   0  0  0  0  0  0  0  0  0  0  0  0
    5.9790  -19.1850  -39.8680 H   0  0  0  0  0  0  0  0  0  0  0  0
    7.4770  -20.0070  -39.3180 H   0  0  0  0  0  0  0  0  0  0  0  0
    5.8230  -21.7510  -38.2290 H   0  0  0  0  0  0  0  0  0  0  0  0
    6.0250  -21.7280  -39.9990 H   0  0  0  0  0  0  0  0  0  0  0  0
    5.0670  -21.9840  -41.5650 H   0  0  0  0  0  0  0  0  0  0  0  0
    3.5470  -21.7440  -42.4540 H   0  0  0  0  0  0  0  0  0  0  0  0
    3.7640  -23.9180  -40.3900 H   0  0  0  0  0  0  0  0  0  0  0  0
    1.1050  -24.1380  -41.6340 H   0  0  0  0  0  0  0  0  0  0  0  0
    0.1670  -25.5470  -43.4540 H   0  0  0  0  0  0  0  0  0  0  0  0
    4.0970  -25.9550  -45.0470 H   0  0  0  0  0  0  0  0  0  0  0  0
    5.0020  -24.5620  -43.2490 H   0  0  0  0  0  0  0  0  0  0  0  0
    0.3220  -28.1280  -46.0990 H   0  0  0  0  0  0  0  0  0  0  0  0
    0.3980  -27.9170  -44.3150 H   0  0  0  0  0  0  0  0  0  0  0  0
   -0.5140  -26.7400  -45.3100 H   0  0  0  0  0  0  0  0  0  0  0  0
  2  3  1  0  0  0  0
  2  1  1  0  0  0  0
  3 31  1  0  0  0  0
  4 32  1  0  0  0  0
  4  3  2  0  0  0  0
  5  4  1  0  0  0  0
  6  5  2  0  0  0  0
  6  7  1  0  0  0  0
  7  2  2  0  0  0  0
  8 10  1  0  0  0  0
  8  5  1  0  0  0  0
  9  8  2  0  0  0  0
 10 35  1  0  0  0  0
 11 10  1  0  0  0  0
 11 15  1  0  0  0  0
 12 11  1  0  0  0  0
 13 12  2  0  0  0  0
 13 14  1  0  0  0  0
 14 20  1  0  0  0  0
 15 14  1  1  0  0  0
 15 16  1  0  0  0  0
 16 37  1  0  0  0  0
 16 38  1  0  0  0  0
 17 16  1  0  0  0  0
 17 40  1  0  0  0  0
 18 42  1  0  0  0  0
 18 17  1  0  0  0  0
 18 41  1  0  0  0  0
 19 18  1  0  0  0  0
 20 19  1  0  0  0  0
 20 45  1  0  0  0  0
 21 22  1  0  0  0  0
 21 13  1  0  0  0  0
 22 49  1  0  0  0  0
 23 22  1  0  0  0  0
 24 23  1  0  0  0  0
 24 50  1  0  0  0  0
 25 24  2  0  0  0  0
 26 27  2  0  0  0  0
 26 25  1  0  0  0  0
 27 28  1  0  0  0  0
 28 53  1  0  0  0  0
 28 23  2  0  0  0  0
 29 30  1  0  0  0  0
 29 26  1  0  0  0  0
 30 55  1  0  0  0  0
 33  6  1  0  0  0  0
 34  7  1  0  0  0  0
 36 10  1  0  0  0  0
 39 17  1  0  0  0  0
 43 19  1  0  0  0  0
 44 19  1  0  0  0  0
 46 20  1  0  0  0  0
 47 21  1  0  0  0  0
 48 21  1  0  0  0  0
 51 25  1  0  0  0  0
 52 27  1  0  0  0  0
 54 30  1  0  0  0  0
 56 30  1  0  0  0  0
M  END
>  <Pose>
1

>  <Score>
-4.82

$$$$
