
 OpenBabel03232221553D

 50 53  0  0  1  0  0  0  0  0999 V2000
   -0.7370  -19.1600  -37.6100 B   0  0  0  0  0  0  0  0  0  0  0  0
    0.9720  -19.6730  -38.3020 C   0  0  0  0  0  0  0  0  0  0  0  0
    2.1000  -19.4550  -37.5440 C   0  0  0  0  0  0  0  0  0  0  0  0
    3.3600  -19.8170  -38.0210 C   0  0  0  0  0  0  0  0  0  0  0  0
    3.4140  -20.4020  -39.2900 C   0  0  0  0  0  0  0  0  0  0  0  0
    2.3070  -20.6210  -40.0470 C   0  0  0  0  0  0  0  0  0  0  0  0
    1.0650  -20.2540  -39.5560 C   0  0  0  0  0  0  0  0  0  0  0  0
    4.7290  -20.8320  -39.8050 C   0  0  1  0  0  0  0  0  0  0  0  0
    4.5960  -21.3880  -41.1450 N   0  0  0  0  0  0  0  0  0  0  0  0
    3.4000  -22.0940  -41.5880 C   0  0  0  0  0  0  0  0  0  0  0  0
    3.5930  -22.8330  -42.8620 C   0  0  0  0  0  0  0  0  0  0  0  0
    4.7970  -23.7390  -42.8710 C   0  0  0  0  0  0  0  0  0  0  0  0
    5.9080  -22.9510  -43.5390 C   0  0  0  0  0  0  0  0  0  0  0  0
    6.3450  -21.7760  -42.8450 C   0  0  0  0  0  0  0  0  0  0  0  0
    5.7840  -21.1020  -41.8150 C   0  0  0  0  0  0  0  0  0  0  0  0
    6.3950  -19.9440  -41.2940 N   0  0  0  0  0  4  0  0  0  0  0  0
    5.6640  -19.7080  -40.0830 C   0  0  0  0  0  0  0  0  0  0  0  0
    6.1880  -18.9170  -42.2640 C   0  0  0  0  0  0  0  0  0  0  0  0
    7.2510  -18.3960  -42.9830 C   0  0  0  0  0  0  0  0  0  0  0  0
    6.9570  -17.3480  -43.8450 C   0  0  0  0  0  0  0  0  0  0  0  0
    5.6930  -16.8140  -44.0150 C   0  0  0  0  0  0  0  0  0  0  0  0
    4.6420  -17.3780  -43.2620 C   0  0  0  0  0  0  0  0  0  0  0  0
    4.9410  -18.3950  -42.4300 C   0  0  0  0  0  0  0  0  0  0  0  0
    8.5000  -18.9150  -42.8260 O   0  0  0  0  0  0  0  0  0  0  0  0
    9.1420  -19.6170  -43.8580 C   0  0  0  0  0  0  0  0  0  0  0  0
    5.2510  -21.8150  -39.0050 O   0  0  0  0  0  0  0  0  0  0  0  0
    2.0540  -19.0020  -36.5520 H   0  0  0  0  0  0  0  0  0  0  0  0
    4.2040  -19.6440  -37.3820 H   0  0  0  0  0  0  0  0  0  0  0  0
    2.3650  -21.0830  -41.0470 H   0  0  0  0  0  0  0  0  0  0  0  0
    0.1740  -20.4300  -40.1750 H   0  0  0  0  0  0  0  0  0  0  0  0
    3.1510  -22.8340  -40.7950 H   0  0  0  0  0  0  0  0  0  0  0  0
    2.5630  -21.3690  -41.7860 H   0  0  0  0  0  0  0  0  0  0  0  0
    2.7040  -23.5060  -43.0110 H   0  0  0  0  0  0  0  0  0  0  0  0
    3.5960  -22.0950  -43.6910 H   0  0  0  0  0  0  0  0  0  0  0  0
    4.6120  -24.6350  -43.5530 H   0  0  0  0  0  0  0  0  0  0  0  0
    5.1040  -24.0580  -41.8550 H   0  0  0  0  0  0  0  0  0  0  0  0
    5.5210  -22.6850  -44.5750 H   0  0  0  0  0  0  0  0  0  0  0  0
    6.7660  -23.6600  -43.7010 H   0  0  0  0  0  0  0  0  0  0  0  0
    7.2780  -21.3550  -43.1840 H   0  0  0  0  0  0  0  0  0  0  0  0
    7.4070  -20.0570  -41.0580 H   0  0  0  0  0  0  0  0  0  0  0  0
    5.1590  -18.7150  -40.0740 H   0  0  0  0  0  0  0  0  0  0  0  0
    6.3860  -19.6460  -39.2510 H   0  0  0  0  0  0  0  0  0  0  0  0
    7.8110  -16.9540  -44.3920 H   0  0  0  0  0  0  0  0  0  0  0  0
    5.4770  -16.0040  -44.6870 H   0  0  0  0  0  0  0  0  0  0  0  0
    3.6640  -16.9680  -43.3780 H   0  0  0  0  0  0  0  0  0  0  0  0
    4.0740  -18.7830  -41.8530 H   0  0  0  0  0  0  0  0  0  0  0  0
    8.4470  -20.3850  -44.2650 H   0  0  0  0  0  0  0  0  0  0  0  0
    9.4110  -18.8990  -44.6450 H   0  0  0  0  0  0  0  0  0  0  0  0
   10.0580  -20.1220  -43.4230 H   0  0  0  0  0  0  0  0  0  0  0  0
    4.8870  -22.7090  -39.1750 H   0  0  0  0  0  0  0  0  0  0  0  0
  2  1  1  0  0  0  0
  2  3  1  0  0  0  0
  3 27  1  0  0  0  0
  4  3  2  0  0  0  0
  4 28  1  0  0  0  0
  5  4  1  0  0  0  0
  6  7  1  0  0  0  0
  6  5  2  0  0  0  0
  7  2  2  0  0  0  0
  8  5  1  0  0  0  0
  8 26  1  1  0  0  0
  9  8  1  0  0  0  0
 10  9  1  0  0  0  0
 10 31  1  0  0  0  0
 11 10  1  0  0  0  0
 12 11  1  0  0  0  0
 12 36  1  0  0  0  0
 13 12  1  0  0  0  0
 13 14  1  0  0  0  0
 14 15  2  0  0  0  0
 15 16  1  0  0  0  0
 15  9  1  0  0  0  0
 16 40  1  0  0  0  0
 16 17  1  0  0  0  0
 17 41  1  0  0  0  0
 17  8  1  0  0  0  0
 17 42  1  0  0  0  0
 18 16  1  0  0  0  0
 19 24  1  0  0  0  0
 19 18  2  0  0  0  0
 20 19  1  0  0  0  0
 21 20  2  0  0  0  0
 21 22  1  0  0  0  0
 22 23  2  0  0  0  0
 23 18  1  0  0  0  0
 23 46  1  0  0  0  0
 25 49  1  0  0  0  0
 25 24  1  0  0  0  0
 29  6  1  0  0  0  0
 30  7  1  0  0  0  0
 32 10  1  0  0  0  0
 33 11  1  0  0  0  0
 34 11  1  0  0  0  0
 35 12  1  0  0  0  0
 37 13  1  0  0  0  0
 38 13  1  0  0  0  0
 39 14  1  0  0  0  0
 43 20  1  0  0  0  0
 44 21  1  0  0  0  0
 45 22  1  0  0  0  0
 47 25  1  0  0  0  0
 48 25  1  0  0  0  0
 50 26  1  0  0  0  0
M  END
>  <Pose>
1

>  <Score>
-3.55

$$$$
