
 OpenBabel03232221553D

 50 53  0  0  1  0  0  0  0  0999 V2000
    5.8310  -26.6690  -44.9410 B   0  0  0  0  0  0  0  0  0  0  0  0
    5.5890  -25.0370  -43.9730 C   0  0  0  0  0  0  0  0  0  0  0  0
    6.6060  -24.1130  -43.8680 C   0  0  0  0  0  0  0  0  0  0  0  0
    6.4110  -22.9360  -43.1570 C   0  0  0  0  0  0  0  0  0  0  0  0
    5.2360  -22.6450  -42.5480 C   0  0  0  0  0  0  0  0  0  0  0  0
    4.1910  -23.5880  -42.6510 C   0  0  0  0  0  0  0  0  0  0  0  0
    4.3950  -24.7460  -43.3560 C   0  0  0  0  0  0  0  0  0  0  0  0
    4.8920  -21.4570  -41.7700 C   0  0  2  0  0  0  0  0  0  0  0  0
    4.7470  -20.2200  -42.4680 N   0  0  0  0  0  0  0  0  0  0  0  0
    3.8300  -19.9040  -43.5200 C   0  0  0  0  0  0  0  0  0  0  0  0
    4.3660  -19.1910  -44.7000 C   0  0  0  0  0  0  0  0  0  0  0  0
    5.8040  -18.8170  -44.6760 C   0  0  0  0  0  0  0  0  0  0  0  0
    6.0840  -17.6620  -43.7130 C   0  0  0  0  0  0  0  0  0  0  0  0
    6.2930  -18.2730  -42.3640 C   0  0  0  0  0  0  0  0  0  0  0  0
    5.7290  -19.3500  -41.8430 C   0  0  0  0  0  0  0  0  0  0  0  0
    6.0200  -19.8530  -40.5450 N   0  0  0  0  0  4  0  0  0  0  0  0
    6.0760  -21.2580  -40.8180 C   0  0  0  0  0  0  0  0  0  0  0  0
    4.9860  -19.4900  -39.6680 C   0  0  0  0  0  0  0  0  0  0  0  0
    5.0630  -19.7950  -38.2960 C   0  0  0  0  0  0  0  0  0  0  0  0
    4.0700  -19.4590  -37.4170 C   0  0  0  0  0  0  0  0  0  0  0  0
    2.9390  -18.7970  -37.8460 C   0  0  0  0  0  0  0  0  0  0  0  0
    2.8410  -18.4880  -39.1780 C   0  0  0  0  0  0  0  0  0  0  0  0
    3.8420  -18.8280  -40.0640 C   0  0  0  0  0  0  0  0  0  0  0  0
    1.9230  -18.4540  -36.9340 O   0  0  0  0  0  0  0  0  0  0  0  0
    1.5700  -17.1090  -36.7490 C   0  0  0  0  0  0  0  0  0  0  0  0
    3.7380  -21.7970  -41.0380 O   0  0  0  0  0  0  0  0  0  0  0  0
    7.5620  -24.2770  -44.3210 H   0  0  0  0  0  0  0  0  0  0  0  0
    7.2100  -22.2170  -43.0690 H   0  0  0  0  0  0  0  0  0  0  0  0
    3.2210  -23.4130  -42.1850 H   0  0  0  0  0  0  0  0  0  0  0  0
    3.6050  -25.4800  -43.4460 H   0  0  0  0  0  0  0  0  0  0  0  0
    3.2980  -20.8620  -43.7960 H   0  0  0  0  0  0  0  0  0  0  0  0
    2.9620  -19.2690  -43.1450 H   0  0  0  0  0  0  0  0  0  0  0  0
    3.7880  -18.2790  -44.9940 H   0  0  0  0  0  0  0  0  0  0  0  0
    4.2410  -19.8740  -45.5960 H   0  0  0  0  0  0  0  0  0  0  0  0
    6.4780  -19.6760  -44.4620 H   0  0  0  0  0  0  0  0  0  0  0  0
    6.0830  -18.4420  -45.6840 H   0  0  0  0  0  0  0  0  0  0  0  0
    7.0790  -17.2430  -44.0410 H   0  0  0  0  0  0  0  0  0  0  0  0
    5.2730  -16.9410  -43.7400 H   0  0  0  0  0  0  0  0  0  0  0  0
    7.0060  -17.7570  -41.7320 H   0  0  0  0  0  0  0  0  0  0  0  0
    6.9510  -19.4620  -40.2510 H   0  0  0  0  0  0  0  0  0  0  0  0
    6.0730  -21.9190  -39.9630 H   0  0  0  0  0  0  0  0  0  0  0  0
    7.0100  -21.4470  -41.4040 H   0  0  0  0  0  0  0  0  0  0  0  0
    5.9520  -20.3080  -38.0010 H   0  0  0  0  0  0  0  0  0  0  0  0
    4.1430  -19.6990  -36.3650 H   0  0  0  0  0  0  0  0  0  0  0  0
    1.9390  -17.9570  -39.5230 H   0  0  0  0  0  0  0  0  0  0  0  0
    3.7150  -18.5540  -41.1180 H   0  0  0  0  0  0  0  0  0  0  0  0
    1.4250  -16.5600  -37.7020 H   0  0  0  0  0  0  0  0  0  0  0  0
    2.3540  -16.6200  -36.1280 H   0  0  0  0  0  0  0  0  0  0  0  0
    0.6180  -17.0370  -36.1960 H   0  0  0  0  0  0  0  0  0  0  0  0
    3.9420  -22.6800  -40.6360 H   0  0  0  0  0  0  0  0  0  0  0  0
  1  2  1  0  0  0  0
  2  3  2  0  0  0  0
  2  7  1  0  0  0  0
  3  4  1  0  0  0  0
  4 28  1  0  0  0  0
  4  5  2  0  0  0  0
  5  8  1  0  0  0  0
  6  5  1  0  0  0  0
  6 29  1  0  0  0  0
  7  6  2  0  0  0  0
  8 26  1  1  0  0  0
  8 17  1  0  0  0  0
  9 15  1  0  0  0  0
  9  8  1  0  0  0  0
 10 32  1  0  0  0  0
 10  9  1  0  0  0  0
 11 12  1  0  0  0  0
 11 10  1  0  0  0  0
 12 35  1  0  0  0  0
 12 13  1  0  0  0  0
 13 14  1  0  0  0  0
 14 15  2  0  0  0  0
 14 39  1  0  0  0  0
 15 16  1  0  0  0  0
 16 40  1  0  0  0  0
 16 18  1  0  0  0  0
 17 16  1  0  0  0  0
 17 41  1  0  0  0  0
 18 19  1  0  0  0  0
 19 43  1  0  0  0  0
 19 20  2  0  0  0  0
 20 44  1  0  0  0  0
 21 20  1  0  0  0  0
 21 24  1  0  0  0  0
 22 21  2  0  0  0  0
 23 18  2  0  0  0  0
 23 22  1  0  0  0  0
 24 25  1  0  0  0  0
 25 49  1  0  0  0  0
 25 48  1  0  0  0  0
 26 50  1  0  0  0  0
 27  3  1  0  0  0  0
 30  7  1  0  0  0  0
 31 10  1  0  0  0  0
 33 11  1  0  0  0  0
 34 11  1  0  0  0  0
 36 12  1  0  0  0  0
 37 13  1  0  0  0  0
 38 13  1  0  0  0  0
 42 17  1  0  0  0  0
 45 22  1  0  0  0  0
 46 23  1  0  0  0  0
 47 25  1  0  0  0  0
M  END
>  <Pose>
1

>  <Score>
-3.58

$$$$
