
 OpenBabel03232221553D

 47 50  0  0  1  0  0  0  0  0999 V2000
    6.2880  -26.8680  -45.1630 B   0  0  0  0  0  0  0  0  0  0  0  0
    5.9410  -25.2320  -44.2190 C   0  0  0  0  0  0  0  0  0  0  0  0
    6.9550  -24.3140  -44.0690 C   0  0  0  0  0  0  0  0  0  0  0  0
    6.6900  -23.1270  -43.3880 C   0  0  0  0  0  0  0  0  0  0  0  0
    5.4520  -22.8350  -42.8570 C   0  0  0  0  0  0  0  0  0  0  0  0
    4.4500  -23.7720  -43.0210 C   0  0  0  0  0  0  0  0  0  0  0  0
    4.6970  -24.9540  -43.6950 C   0  0  0  0  0  0  0  0  0  0  0  0
    5.2400  -21.5570  -42.1340 C   0  0  2  0  0  0  0  0  0  0  0  0
    5.6760  -20.3990  -42.8840 N   0  0  0  0  0  0  0  0  0  0  0  0
    5.8210  -20.0140  -44.2720 C   0  0  0  0  0  0  0  0  0  0  0  0
    5.5180  -18.5460  -44.4930 C   0  0  0  0  0  0  0  0  0  0  0  0
    6.4380  -17.7440  -43.6340 C   0  0  0  0  0  0  0  0  0  0  0  0
    6.4130  -18.2050  -42.2300 C   0  0  0  0  0  0  0  0  0  0  0  0
    6.0560  -19.4480  -41.8920 C   0  0  0  0  0  0  0  0  0  0  0  0
    6.0160  -20.0140  -40.6010 N   0  0  0  0  0  4  0  0  0  0  0  0
    6.0760  -21.4620  -40.8900 C   0  0  0  0  0  0  0  0  0  0  0  0
    4.9190  -19.7060  -39.8050 C   0  0  0  0  0  0  0  0  0  0  0  0
    3.9260  -18.8350  -40.1810 C   0  0  0  0  0  0  0  0  0  0  0  0
    2.8610  -18.5560  -39.3210 C   0  0  0  0  0  0  0  0  0  0  0  0
    2.7810  -19.1450  -38.0860 C   0  0  0  0  0  0  0  0  0  0  0  0
    3.7720  -20.0220  -37.7010 C   0  0  0  0  0  0  0  0  0  0  0  0
    4.8150  -20.2920  -38.5500 C   0  0  0  0  0  0  0  0  0  0  0  0
    3.9260  -18.1990  -41.4060 O   0  0  0  0  0  0  0  0  0  0  0  0
    2.9440  -17.2760  -41.7400 C   0  0  0  0  0  0  0  0  0  0  0  0
    3.9020  -21.4840  -41.7600 O   0  0  0  0  0  0  0  0  0  0  0  0
    7.9690  -24.4700  -44.4690 H   0  0  0  0  0  0  0  0  0  0  0  0
    7.4800  -22.3730  -43.2500 H   0  0  0  0  0  0  0  0  0  0  0  0
    3.4640  -23.5390  -42.5960 H   0  0  0  0  0  0  0  0  0  0  0  0
    3.9050  -25.6820  -43.8200 H   0  0  0  0  0  0  0  0  0  0  0  0
    6.9090  -20.1390  -44.5420 H   0  0  0  0  0  0  0  0  0  0  0  0
    5.2060  -20.6580  -44.9360 H   0  0  0  0  0  0  0  0  0  0  0  0
    4.4470  -18.3140  -44.3940 H   0  0  0  0  0  0  0  0  0  0  0  0
    5.7900  -18.3330  -45.5610 H   0  0  0  0  0  0  0  0  0  0  0  0
    6.2720  -16.6510  -43.7260 H   0  0  0  0  0  0  0  0  0  0  0  0
    7.4820  -17.9640  -44.0020 H   0  0  0  0  0  0  0  0  0  0  0  0
    6.7030  -17.4740  -41.4730 H   0  0  0  0  0  0  0  0  0  0  0  0
    6.9410  -19.8530  -40.0830 H   0  0  0  0  0  0  0  0  0  0  0  0
    7.1000  -21.7550  -41.1160 H   0  0  0  0  0  0  0  0  0  0  0  0
    5.6360  -22.0080  -40.0370 H   0  0  0  0  0  0  0  0  0  0  0  0
    2.0600  -17.8760  -39.5730 H   0  0  0  0  0  0  0  0  0  0  0  0
    1.9580  -18.9580  -37.3770 H   0  0  0  0  0  0  0  0  0  0  0  0
    3.6920  -20.4820  -36.7250 H   0  0  0  0  0  0  0  0  0  0  0  0
    5.5810  -20.9700  -38.2450 H   0  0  0  0  0  0  0  0  0  0  0  0
    1.8960  -17.5840  -41.5050 H   0  0  0  0  0  0  0  0  0  0  0  0
    2.9160  -17.0560  -42.8570 H   0  0  0  0  0  0  0  0  0  0  0  0
    3.1380  -16.2950  -41.2370 H   0  0  0  0  0  0  0  0  0  0  0  0
    3.5880  -22.4130  -41.6480 H   0  0  0  0  0  0  0  0  0  0  0  0
  1  2  1  0  0  0  0
  2  3  2  0  0  0  0
  2  7  1  0  0  0  0
  3  4  1  0  0  0  0
  4 27  1  0  0  0  0
  4  5  2  0  0  0  0
  5  8  1  0  0  0  0
  6  5  1  0  0  0  0
  6 28  1  0  0  0  0
  7  6  2  0  0  0  0
  8 25  1  1  0  0  0
  8 16  1  0  0  0  0
  9  8  1  0  0  0  0
  9 14  1  0  0  0  0
 10  9  1  0  0  0  0
 11 32  1  0  0  0  0
 11 10  1  0  0  0  0
 11 12  1  0  0  0  0
 12 13  1  0  0  0  0
 13 14  2  0  0  0  0
 13 36  1  0  0  0  0
 14 15  1  0  0  0  0
 15 37  1  0  0  0  0
 15 17  1  0  0  0  0
 16 15  1  0  0  0  0
 16 39  1  0  0  0  0
 17 22  1  0  0  0  0
 18 17  2  0  0  0  0
 18 19  1  0  0  0  0
 19 20  2  0  0  0  0
 20 21  1  0  0  0  0
 20 41  1  0  0  0  0
 21 42  1  0  0  0  0
 22 43  1  0  0  0  0
 22 21  2  0  0  0  0
 23 18  1  0  0  0  0
 24 44  1  0  0  0  0
 24 23  1  0  0  0  0
 24 46  1  0  0  0  0
 25 47  1  0  0  0  0
 26  3  1  0  0  0  0
 29  7  1  0  0  0  0
 30 10  1  0  0  0  0
 31 10  1  0  0  0  0
 33 11  1  0  0  0  0
 34 12  1  0  0  0  0
 35 12  1  0  0  0  0
 38 16  1  0  0  0  0
 40 19  1  0  0  0  0
 45 24  1  0  0  0  0
M  END
>  <Pose>
1

>  <Score>
-3.54

$$$$
