
 OpenBabel03232221553D

 53 56  0  0  1  0  0  0  0  0999 V2000
   -1.3620  -10.3310  -35.4860 B   0  0  0  0  0  0  0  0  0  0  0  0
   -0.7960  -12.0930  -35.9860 C   0  0  0  0  0  0  0  0  0  0  0  0
    0.4780  -12.5400  -35.7170 C   0  0  0  0  0  0  0  0  0  0  0  0
    0.8780  -13.8120  -36.0990 C   0  0  0  0  0  0  0  0  0  0  0  0
    0.0260  -14.6910  -36.7640 C   0  0  0  0  0  0  0  0  0  0  0  0
   -1.2230  -14.2000  -37.0050 C   0  0  0  0  0  0  0  0  0  0  0  0
   -1.6520  -12.9290  -36.6340 C   0  0  0  0  0  0  0  0  0  0  0  0
    0.4940  -15.9330  -37.1390 N   0  0  0  0  0  4  0  0  0  0  0  0
    1.1580  -16.0480  -38.4030 C   0  0  1  0  0  0  0  0  0  0  0  0
   -0.0520  -16.0490  -39.3350 C   0  0  0  0  0  0  0  0  0  0  0  0
   -1.0320  -16.8640  -38.6000 N   0  0  0  0  0  0  0  0  0  0  0  0
   -2.1400  -17.4510  -39.2670 C   0  0  0  0  0  0  0  0  0  0  0  0
   -3.0200  -18.3020  -38.4030 C   0  0  0  0  0  0  0  0  0  0  0  0
   -2.1710  -19.2750  -37.6310 C   0  0  0  0  0  0  0  0  0  0  0  0
   -2.0320  -18.6610  -36.2310 C   0  0  0  0  0  0  0  0  0  0  0  0
   -0.9610  -17.6450  -36.2680 C   0  0  0  0  0  0  0  0  0  0  0  0
   -0.5590  -16.8760  -37.2540 C   0  0  0  0  0  0  0  0  0  0  0  0
    2.1200  -15.1340  -38.6950 O   0  0  0  0  0  0  0  0  0  0  0  0
    1.7860  -17.3890  -38.5820 C   0  0  0  0  0  0  0  0  0  0  0  0
    1.9160  -18.3300  -37.6050 C   0  0  0  0  0  0  0  0  0  0  0  0
    2.5150  -19.5860  -37.8440 C   0  0  0  0  0  0  0  0  0  0  0  0
    2.9960  -19.9110  -39.0890 C   0  0  0  0  0  0  0  0  0  0  0  0
    2.8700  -18.9690  -40.0810 C   0  0  0  0  0  0  0  0  0  0  0  0
    2.2860  -17.7460  -39.8450 C   0  0  0  0  0  0  0  0  0  0  0  0
    3.5890  -21.1600  -39.3380 O   0  0  0  0  0  0  0  0  0  0  0  0
    4.6160  -21.6650  -38.5170 C   0  0  0  0  0  0  0  0  0  0  0  0
    5.9780  -21.4200  -39.0850 C   0  0  0  0  0  0  0  0  0  0  0  0
    1.1250  -11.8460  -35.1990 H   0  0  0  0  0  0  0  0  0  0  0  0
    1.8910  -14.0800  -35.8490 H   0  0  0  0  0  0  0  0  0  0  0  0
   -1.9460  -14.7850  -37.5120 H   0  0  0  0  0  0  0  0  0  0  0  0
   -2.6850  -12.6200  -36.8750 H   0  0  0  0  0  0  0  0  0  0  0  0
    1.2070  -16.2010  -36.3910 H   0  0  0  0  0  0  0  0  0  0  0  0
   -0.4340  -15.0830  -39.6060 H   0  0  0  0  0  0  0  0  0  0  0  0
    0.1150  -16.6060  -40.2690 H   0  0  0  0  0  0  0  0  0  0  0  0
   -2.7710  -16.6450  -39.6990 H   0  0  0  0  0  0  0  0  0  0  0  0
   -1.7410  -18.1290  -40.0890 H   0  0  0  0  0  0  0  0  0  0  0  0
   -3.6070  -17.6270  -37.7490 H   0  0  0  0  0  0  0  0  0  0  0  0
   -3.6630  -18.8980  -39.0780 H   0  0  0  0  0  0  0  0  0  0  0  0
   -2.5900  -20.2910  -37.5600 H   0  0  0  0  0  0  0  0  0  0  0  0
   -1.1330  -19.3660  -38.0130 H   0  0  0  0  0  0  0  0  0  0  0  0
   -2.9730  -18.1740  -35.9070 H   0  0  0  0  0  0  0  0  0  0  0  0
   -1.8270  -19.4890  -35.5190 H   0  0  0  0  0  0  0  0  0  0  0  0
   -0.4270  -17.5660  -35.3410 H   0  0  0  0  0  0  0  0  0  0  0  0
    2.9490  -15.2670  -38.2000 H   0  0  0  0  0  0  0  0  0  0  0  0
    1.5690  -18.1140  -36.6150 H   0  0  0  0  0  0  0  0  0  0  0  0
    2.5870  -20.2860  -37.0220 H   0  0  0  0  0  0  0  0  0  0  0  0
    3.2590  -19.2590  -41.0700 H   0  0  0  0  0  0  0  0  0  0  0  0
    2.2040  -17.0090  -40.6410 H   0  0  0  0  0  0  0  0  0  0  0  0
    4.4650  -22.7860  -38.4850 H   0  0  0  0  0  0  0  0  0  0  0  0
    4.5220  -21.3600  -37.4480 H   0  0  0  0  0  0  0  0  0  0  0  0
    5.9310  -21.0830  -40.1500 H   0  0  0  0  0  0  0  0  0  0  0  0
    6.6590  -22.2920  -39.0340 H   0  0  0  0  0  0  0  0  0  0  0  0
    6.4770  -20.6440  -38.4340 H   0  0  0  0  0  0  0  0  0  0  0  0
  2  3  1  0  0  0  0
  2  1  1  0  0  0  0
  3 28  1  0  0  0  0
  4 29  1  0  0  0  0
  4  3  2  0  0  0  0
  5  4  1  0  0  0  0
  6  5  2  0  0  0  0
  6  7  1  0  0  0  0
  7  2  2  0  0  0  0
  8  5  1  0  0  0  0
  8 32  1  0  0  0  0
  9 18  1  6  0  0  0
  9  8  1  0  0  0  0
 10 11  1  0  0  0  0
 10  9  1  0  0  0  0
 11 17  1  0  0  0  0
 12 11  1  0  0  0  0
 12 13  1  0  0  0  0
 13 37  1  0  0  0  0
 13 14  1  0  0  0  0
 14 39  1  0  0  0  0
 14 15  1  0  0  0  0
 15 41  1  0  0  0  0
 15 42  1  0  0  0  0
 16 15  1  0  0  0  0
 16 43  1  0  0  0  0
 17  8  1  0  0  0  0
 17 16  2  0  0  0  0
 18 44  1  0  0  0  0
 19  9  1  0  0  0  0
 19 20  1  0  0  0  0
 20 45  1  0  0  0  0
 21 20  2  0  0  0  0
 21 46  1  0  0  0  0
 22 21  1  0  0  0  0
 23 24  1  0  0  0  0
 23 22  2  0  0  0  0
 24 19  2  0  0  0  0
 25 22  1  0  0  0  0
 25 26  1  0  0  0  0
 26 49  1  0  0  0  0
 26 50  1  0  0  0  0
 27 52  1  0  0  0  0
 27 26  1  0  0  0  0
 27 53  1  0  0  0  0
 30  6  1  0  0  0  0
 31  7  1  0  0  0  0
 33 10  1  0  0  0  0
 34 10  1  0  0  0  0
 35 12  1  0  0  0  0
 36 12  1  0  0  0  0
 38 13  1  0  0  0  0
 40 14  1  0  0  0  0
 47 23  1  0  0  0  0
 48 24  1  0  0  0  0
 51 27  1  0  0  0  0
M  END
>  <Pose>
1

>  <Score>
-3.67

$$$$
