
 OpenBabel03232221553D

 66 69  0  0  1  0  0  0  0  0999 V2000
    9.1780  -19.6950  -44.4510 B   0  0  0  0  0  0  0  0  0  0  0  0
    8.4380  -21.3990  -43.9800 C   0  0  0  0  0  0  0  0  0  0  0  0
    7.1440  -21.4800  -43.5240 C   0  0  0  0  0  0  0  0  0  0  0  0
    6.5640  -22.7090  -43.1670 C   0  0  0  0  0  0  0  0  0  0  0  0
    7.3600  -23.8250  -43.3000 C   0  0  0  0  0  0  0  0  0  0  0  0
    8.6600  -23.7710  -43.7540 C   0  0  0  0  0  0  0  0  0  0  0  0
    9.2060  -22.5560  -44.0980 C   0  0  0  0  0  0  0  0  0  0  0  0
   10.5960  -22.3940  -44.5970 C   0  0  0  0  0  0  0  0  0  0  0  0
    9.7390  -25.3350  -43.9280 B   0  0  0  0  0  0  0  0  0  0  0  0
    5.1980  -22.7480  -42.6880 C   0  0  0  0  0  0  0  0  0  0  0  0
    4.6450  -23.8310  -42.4720 O   0  0  0  0  0  0  0  0  0  0  0  0
    4.4730  -21.4850  -42.4620 C   0  0  1  0  0  0  0  0  0  0  0  0
    4.9680  -20.4940  -43.4930 C   0  0  0  0  0  0  0  0  0  0  0  0
    6.3710  -20.3290  -43.4040 O   0  0  0  0  0  0  0  0  0  0  0  0
    2.9820  -21.6300  -42.5060 C   0  0  0  0  0  0  0  0  0  0  0  0
    2.2840  -20.6450  -43.2380 N   0  0  0  0  0  4  0  0  0  0  0  0
    1.1120  -21.2160  -43.8350 C   0  0  0  0  0  0  0  0  0  0  0  0
    0.0210  -21.5600  -42.8850 C   0  0  2  0  0  0  0  0  0  0  0  0
    0.1740  -21.0840  -41.4930 C   0  0  0  0  0  0  0  0  0  0  0  0
    1.0670  -19.9240  -41.2810 C   0  0  0  0  0  0  0  0  0  0  0  0
    1.8500  -19.4990  -42.4880 C   0  0  0  0  0  0  0  0  0  0  0  0
   -0.0910  -23.0880  -42.8430 C   0  0  0  0  0  0  0  0  0  0  0  0
    4.9050  -20.9950  -41.0950 C   0  0  0  0  0  0  0  0  0  0  0  0
    4.3350  -21.6890  -39.9910 N   0  0  0  0  0  4  0  0  0  0  0  0
    3.3300  -20.8550  -39.3340 C   0  0  0  0  0  0  0  0  0  0  0  0
    3.8480  -20.2070  -38.0830 C   0  0  1  0  0  0  0  0  0  0  0  0
    5.2560  -19.7100  -38.3160 C   0  0  0  0  0  0  0  0  0  0  0  0
    6.1370  -20.9050  -38.5070 C   0  0  0  0  0  0  0  0  0  0  0  0
    5.2870  -22.0630  -38.9680 C   0  0  0  0  0  0  0  0  0  0  0  0
    2.9860  -18.9610  -37.8350 C   0  0  0  0  0  0  0  0  0  0  0  0
    6.9620  -24.8020  -43.0390 H   0  0  0  0  0  0  0  0  0  0  0  0
   10.5400  -21.9970  -45.6350 H   0  0  0  0  0  0  0  0  0  0  0  0
   11.1930  -23.3030  -44.5070 H   0  0  0  0  0  0  0  0  0  0  0  0
   11.0430  -21.5560  -43.9910 H   0  0  0  0  0  0  0  0  0  0  0  0
    4.7520  -20.8390  -44.5150 H   0  0  0  0  0  0  0  0  0  0  0  0
    4.4380  -19.5060  -43.3920 H   0  0  0  0  0  0  0  0  0  0  0  0
    2.7810  -22.6160  -42.9750 H   0  0  0  0  0  0  0  0  0  0  0  0
    2.6170  -21.7180  -41.4620 H   0  0  0  0  0  0  0  0  0  0  0  0
    2.8860  -20.2850  -44.0210 H   0  0  0  0  0  0  0  0  0  0  0  0
    0.7530  -20.4680  -44.6030 H   0  0  0  0  0  0  0  0  0  0  0  0
    1.4310  -22.0930  -44.4350 H   0  0  0  0  0  0  0  0  0  0  0  0
   -0.9440  -21.2150  -43.3240 H   0  0  0  0  0  0  0  0  0  0  0  0
   -0.8510  -20.8100  -41.1090 H   0  0  0  0  0  0  0  0  0  0  0  0
    0.4910  -21.9210  -40.8000 H   0  0  0  0  0  0  0  0  0  0  0  0
    1.7800  -20.0990  -40.4210 H   0  0  0  0  0  0  0  0  0  0  0  0
    0.4910  -19.0090  -40.9480 H   0  0  0  0  0  0  0  0  0  0  0  0
    2.6100  -18.7770  -42.2200 H   0  0  0  0  0  0  0  0  0  0  0  0
    1.1190  -18.9510  -43.1550 H   0  0  0  0  0  0  0  0  0  0  0  0
   -1.1530  -23.4000  -42.6790 H   0  0  0  0  0  0  0  0  0  0  0  0
    0.3490  -23.5160  -43.7540 H   0  0  0  0  0  0  0  0  0  0  0  0
    0.5070  -23.4400  -41.9810 H   0  0  0  0  0  0  0  0  0  0  0  0
    4.5900  -19.9140  -41.0500 H   0  0  0  0  0  0  0  0  0  0  0  0
    6.0300  -20.9450  -41.0560 H   0  0  0  0  0  0  0  0  0  0  0  0
    3.8490  -22.5330  -40.3060 H   0  0  0  0  0  0  0  0  0  0  0  0
    2.4220  -21.4290  -39.0840 H   0  0  0  0  0  0  0  0  0  0  0  0
    3.0060  -20.0220  -40.0120 H   0  0  0  0  0  0  0  0  0  0  0  0
    3.7490  -20.8260  -37.1820 H   0  0  0  0  0  0  0  0  0  0  0  0
    5.5480  -19.1270  -37.4190 H   0  0  0  0  0  0  0  0  0  0  0  0
    5.2390  -19.0300  -39.1740 H   0  0  0  0  0  0  0  0  0  0  0  0
    7.0000  -20.7520  -39.1500 H   0  0  0  0  0  0  0  0  0  0  0  0
    6.5420  -21.2030  -37.4970 H   0  0  0  0  0  0  0  0  0  0  0  0
    4.6680  -22.4370  -38.1000 H   0  0  0  0  0  0  0  0  0  0  0  0
    5.9560  -22.8830  -39.2310 H   0  0  0  0  0  0  0  0  0  0  0  0
    1.9610  -19.1240  -38.2410 H   0  0  0  0  0  0  0  0  0  0  0  0
    3.4620  -18.0540  -38.2630 H   0  0  0  0  0  0  0  0  0  0  0  0
    2.8770  -18.7680  -36.7480 H   0  0  0  0  0  0  0  0  0  0  0  0
  1  2  1  0  0  0  0
  2  3  1  0  0  0  0
  3 14  1  0  0  0  0
  3  4  2  0  0  0  0
  4 10  1  0  0  0  0
  5  4  1  0  0  0  0
  5 31  1  0  0  0  0
  6  5  2  0  0  0  0
  7  2  2  0  0  0  0
  7  6  1  0  0  0  0
  8 33  1  0  0  0  0
  8  7  1  0  0  0  0
  8 34  1  0  0  0  0
  9  6  1  0  0  0  0
 10 11  2  0  0  0  0
 10 12  1  0  0  0  0
 12 15  1  6  0  0  0
 12 23  1  0  0  0  0
 13 14  1  0  0  0  0
 13 36  1  0  0  0  0
 13 12  1  0  0  0  0
 15 38  1  0  0  0  0
 16 15  1  0  0  0  0
 16 21  1  0  0  0  0
 17 16  1  0  0  0  0
 17 18  1  0  0  0  0
 18 42  1  6  0  0  0
 18 22  1  0  0  0  0
 18 19  1  0  0  0  0
 19 20  1  0  0  0  0
 19 43  1  0  0  0  0
 19 44  1  0  0  0  0
 20 46  1  0  0  0  0
 20 45  1  0  0  0  0
 21 47  1  0  0  0  0
 21 20  1  0  0  0  0
 22 49  1  0  0  0  0
 22 51  1  0  0  0  0
 23 53  1  0  0  0  0
 23 52  1  0  0  0  0
 23 24  1  0  0  0  0
 24 25  1  0  0  0  0
 24 29  1  0  0  0  0
 25 55  1  0  0  0  0
 25 26  1  0  0  0  0
 26 30  1  0  0  0  0
 26 57  1  1  0  0  0
 27 26  1  0  0  0  0
 27 58  1  0  0  0  0
 28 27  1  0  0  0  0
 28 61  1  0  0  0  0
 29 28  1  0  0  0  0
 29 62  1  0  0  0  0
 30 66  1  0  0  0  0
 32  8  1  0  0  0  0
 35 13  1  0  0  0  0
 37 15  1  0  0  0  0
 39 16  1  0  0  0  0
 40 17  1  0  0  0  0
 41 17  1  0  0  0  0
 48 21  1  0  0  0  0
 50 22  1  0  0  0  0
 54 24  1  0  0  0  0
 56 25  1  0  0  0  0
 59 27  1  0  0  0  0
 60 28  1  0  0  0  0
 63 29  1  0  0  0  0
 64 30  1  0  0  0  0
 65 30  1  0  0  0  0
M  END
>  <Pose>
1

>  <Score>
-3.40

$$$$
