
 OpenBabel03232221553D

 50 53  0  0  0  0  0  0  0  0999 V2000
    0.0610   -8.8790  -37.7860 F   0  0  0  0  0  0  0  0  0  0  0  0
    0.1680  -10.2010  -37.4810 C   0  0  0  0  0  0  0  0  0  0  0  0
   -0.4360  -10.7410  -36.3630 C   0  0  0  0  0  0  0  0  0  0  0  0
   -0.3140  -12.0830  -36.0720 C   0  0  0  0  0  0  0  0  0  0  0  0
    0.4120  -12.9450  -36.8780 C   0  0  0  0  0  0  0  0  0  0  0  0
    1.0120  -12.3970  -37.9920 C   0  0  0  0  0  0  0  0  0  0  0  0
    0.8920  -11.0460  -38.2890 C   0  0  0  0  0  0  0  0  0  0  0  0
    0.5440  -14.3640  -36.5750 C   0  0  0  0  0  0  0  0  0  0  0  0
    1.4140  -14.7760  -35.7230 N   0  0  0  0  0  0  0  0  0  0  0  0
    1.5940  -16.1100  -35.3860 N   0  0  0  0  0  0  0  0  0  0  0  0
    1.5050  -17.1220  -36.3700 C   0  0  0  0  0  0  0  0  0  0  0  0
    0.2980  -17.6210  -36.7120 N   0  0  0  0  0  4  0  0  0  0  0  0
    0.1420  -18.5920  -37.6460 C   0  0  0  0  0  0  0  0  0  0  0  0
    1.2560  -19.0420  -38.2270 N   0  0  0  0  0  0  0  0  0  0  0  0
    2.4890  -18.5920  -37.9370 C   0  0  0  0  0  0  0  0  0  0  0  0
    2.5770  -17.6300  -37.0020 N   0  0  0  0  0  0  0  0  0  0  0  0
    3.6310  -19.1200  -38.5990 N   0  0  0  0  0  0  0  0  0  0  0  0
    3.7710  -18.9160  -40.0280 C   0  0  0  0  0  0  0  0  0  0  0  0
    5.0300  -19.5980  -40.5130 C   0  0  0  0  0  0  0  0  0  0  0  0
    6.1450  -19.3150  -39.7760 O   0  0  0  0  0  0  0  0  0  0  0  0
    5.9930  -19.2810  -38.4160 C   0  0  0  0  0  0  0  0  0  0  0  0
    4.6700  -19.8530  -37.9370 C   0  0  0  0  0  0  0  0  0  0  0  0
   -1.1540  -19.0820  -37.9680 N   0  0  0  0  0  0  0  0  0  0  0  0
   -1.5940  -20.4350  -37.7190 C   0  0  0  0  0  0  0  0  0  0  0  0
   -2.0890  -20.9170  -39.0810 C   0  0  0  0  0  0  0  0  0  0  0  0
   -3.1980  -20.2310  -39.4140 O   0  0  0  0  0  0  0  0  0  0  0  0
   -3.2360  -18.9000  -39.2730 C   0  0  0  0  0  0  0  0  0  0  0  0
   -2.1270  -18.2100  -38.5840 C   0  0  0  0  0  0  0  0  0  0  0  0
   -1.4430   -9.5750  -35.2350 B   0  0  0  0  0  0  0  0  0  0  0  0
   -0.7900  -12.5210  -35.1880 H   0  0  0  0  0  0  0  0  0  0  0  0
    1.5870  -13.0730  -38.6330 H   0  0  0  0  0  0  0  0  0  0  0  0
    1.3740  -10.6320  -39.1740 H   0  0  0  0  0  0  0  0  0  0  0  0
   -0.0980  -15.0620  -37.0750 H   0  0  0  0  0  0  0  0  0  0  0  0
    1.7940  -16.3730  -34.4070 H   0  0  0  0  0  0  0  0  0  0  0  0
    2.9240  -19.4130  -40.5840 H   0  0  0  0  0  0  0  0  0  0  0  0
    3.8220  -17.8380  -40.2040 H   0  0  0  0  0  0  0  0  0  0  0  0
    5.2130  -19.1910  -41.5500 H   0  0  0  0  0  0  0  0  0  0  0  0
    4.8630  -20.6790  -40.6520 H   0  0  0  0  0  0  0  0  0  0  0  0
    5.9950  -18.2110  -38.0910 H   0  0  0  0  0  0  0  0  0  0  0  0
    6.8530  -19.8160  -37.9510 H   0  0  0  0  0  0  0  0  0  0  0  0
    4.6390  -20.9010  -38.3040 H   0  0  0  0  0  0  0  0  0  0  0  0
    4.6190  -19.7680  -36.8500 H   0  0  0  0  0  0  0  0  0  0  0  0
   -2.4990  -20.3660  -37.0800 H   0  0  0  0  0  0  0  0  0  0  0  0
   -0.8130  -21.0890  -37.3100 H   0  0  0  0  0  0  0  0  0  0  0  0
   -1.2550  -20.7830  -39.7940 H   0  0  0  0  0  0  0  0  0  0  0  0
   -2.3500  -22.0120  -39.0170 H   0  0  0  0  0  0  0  0  0  0  0  0
   -4.2000  -18.6280  -38.7450 H   0  0  0  0  0  0  0  0  0  0  0  0
   -3.3780  -18.4390  -40.2980 H   0  0  0  0  0  0  0  0  0  0  0  0
   -2.4980  -17.5450  -37.7470 H   0  0  0  0  0  0  0  0  0  0  0  0
   -1.6160  -17.4790  -39.2790 H   0  0  0  0  0  0  0  0  0  0  0  0
  1  2  1  0  0  0  0
  2  3  1  0  0  0  0
  3  4  2  0  0  0  0
  3 29  1  0  0  0  0
  4 30  1  0  0  0  0
  5  8  1  0  0  0  0
  5  4  1  0  0  0  0
  6  5  2  0  0  0  0
  7  6  1  0  0  0  0
  7  2  2  0  0  0  0
  8  9  2  0  0  0  0
  9 10  1  0  0  0  0
 10 34  1  0  0  0  0
 11 10  1  0  0  0  0
 12 11  2  0  0  0  0
 13 12  2  0  0  0  0
 14 15  2  0  0  0  0
 14 13  1  0  0  0  0
 15 16  1  0  0  0  0
 16 11  1  0  0  0  0
 17 15  1  0  0  0  0
 17 22  1  0  0  0  0
 18 17  1  0  0  0  0
 19 18  1  0  0  0  0
 19 20  1  0  0  0  0
 20 21  1  0  0  0  0
 21 39  1  0  0  0  0
 21 40  1  0  0  0  0
 21 22  1  0  0  0  0
 22 42  1  0  0  0  0
 23 24  1  0  0  0  0
 23 13  1  0  0  0  0
 24 44  1  0  0  0  0
 24 43  1  0  0  0  0
 25 46  1  0  0  0  0
 25 24  1  0  0  0  0
 26 27  1  0  0  0  0
 26 25  1  0  0  0  0
 27 47  1  0  0  0  0
 27 28  1  0  0  0  0
 28 23  1  0  0  0  0
 28 49  1  0  0  0  0
 31  6  1  0  0  0  0
 32  7  1  0  0  0  0
 33  8  1  0  0  0  0
 35 18  1  0  0  0  0
 36 18  1  0  0  0  0
 37 19  1  0  0  0  0
 38 19  1  0  0  0  0
 41 22  1  0  0  0  0
 45 25  1  0  0  0  0
 48 27  1  0  0  0  0
 50 28  1  0  0  0  0
M  END
>  <Pose>
1

>  <Score>
-4.86

$$$$
