
 OpenBabel03232221553D

 41 44  0  0  0  0  0  0  0  0999 V2000
    0.0870  -20.8620  -38.5500 F   0  0  0  0  0  0  0  0  0  0  0  0
   -0.5110  -19.7870  -37.9580 C   0  0  0  0  0  0  0  0  0  0  0  0
    0.3070  -18.7400  -37.5050 C   0  0  0  0  0  0  0  0  0  0  0  0
   -0.3400  -17.6830  -36.9170 C   0  0  0  0  0  0  0  0  0  0  0  0
   -1.7190  -17.6730  -36.7910 C   0  0  0  0  0  0  0  0  0  0  0  0
   -2.5090  -18.6940  -37.2330 C   0  0  0  0  0  0  0  0  0  0  0  0
   -1.8750  -19.7620  -37.8250 C   0  0  0  0  0  0  0  0  0  0  0  0
    1.7180  -18.8300  -37.6750 N   0  0  0  0  0  0  0  0  0  0  0  0
    2.7110  -18.1680  -36.9610 C   0  0  0  0  0  0  0  0  0  0  0  0
    2.6900  -16.9410  -36.7700 O   0  0  0  0  0  0  0  0  0  0  0  0
    3.8680  -18.9030  -36.3780 C   0  0  0  0  0  0  0  0  0  0  0  0
    4.8420  -19.1810  -37.4180 N   0  0  0  0  0  0  0  0  0  0  0  0
    6.0940  -18.7880  -37.5000 N   0  0  0  0  0  0  0  0  0  0  0  0
    6.6510  -19.2540  -38.6080 N   0  0  0  0  0  0  0  0  0  0  0  0
    5.7230  -19.9790  -39.2700 C   0  0  0  0  0  0  0  0  0  0  0  0
    4.6310  -19.9260  -38.5360 C   0  0  0  0  0  0  0  0  0  0  0  0
    3.6770  -20.6690  -39.2130 C   0  0  0  0  0  0  0  0  0  0  0  0
    2.5060  -20.8430  -38.8130 O   0  0  0  0  0  0  0  0  0  0  0  0
    4.1820  -21.1740  -40.3540 N   0  0  0  0  0  0  0  0  0  0  0  0
    5.4560  -20.7440  -40.3900 C   0  0  0  0  0  0  0  0  0  0  0  0
    6.2850  -20.9920  -41.2930 O   0  0  0  0  0  0  0  0  0  0  0  0
    3.4940  -21.9860  -41.3050 C   0  0  0  0  0  0  0  0  0  0  0  0
    4.0130  -23.1980  -41.7180 C   0  0  0  0  0  0  0  0  0  0  0  0
    3.3610  -23.9970  -42.6370 C   0  0  0  0  0  0  0  0  0  0  0  0
    2.1550  -23.6120  -43.1850 C   0  0  0  0  0  0  0  0  0  0  0  0
    1.6180  -22.4050  -42.7870 C   0  0  0  0  0  0  0  0  0  0  0  0
    2.2860  -21.6220  -41.8670 C   0  0  0  0  0  0  0  0  0  0  0  0
    1.2300  -24.6970  -44.4590 B   0  0  0  0  0  0  0  0  0  0  0  0
    0.2090  -16.8450  -36.5470 H   0  0  0  0  0  0  0  0  0  0  0  0
   -2.2220  -16.8230  -36.3200 H   0  0  0  0  0  0  0  0  0  0  0  0
   -3.5820  -18.6390  -37.1110 H   0  0  0  0  0  0  0  0  0  0  0  0
   -2.5120  -20.5740  -38.1760 H   0  0  0  0  0  0  0  0  0  0  0  0
    2.0650  -19.4890  -38.4480 H   0  0  0  0  0  0  0  0  0  0  0  0
    3.4790  -19.8820  -35.9880 H   0  0  0  0  0  0  0  0  0  0  0  0
    4.3150  -18.3440  -35.5350 H   0  0  0  0  0  0  0  0  0  0  0  0
    6.5590  -18.1860  -36.7720 H   0  0  0  0  0  0  0  0  0  0  0  0
    7.6400  -19.0910  -38.9200 H   0  0  0  0  0  0  0  0  0  0  0  0
    4.9700  -23.4940  -41.2780 H   0  0  0  0  0  0  0  0  0  0  0  0
    3.7780  -24.9380  -42.9490 H   0  0  0  0  0  0  0  0  0  0  0  0
    0.6590  -22.1040  -43.2250 H   0  0  0  0  0  0  0  0  0  0  0  0
    1.8730  -20.6760  -41.5510 H   0  0  0  0  0  0  0  0  0  0  0  0
  1  2  1  0  0  0  0
  2  7  2  0  0  0  0
  2  3  1  0  0  0  0
  3  4  2  0  0  0  0
  4  5  1  0  0  0  0
  4 29  1  0  0  0  0
  5 30  1  0  0  0  0
  6 31  1  0  0  0  0
  6  5  2  0  0  0  0
  7  6  1  0  0  0  0
  8  3  1  0  0  0  0
  8  9  1  0  0  0  0
  9 10  2  0  0  0  0
  9 11  1  0  0  0  0
 11 34  1  0  0  0  0
 11 35  1  0  0  0  0
 12 11  1  0  0  0  0
 13 12  1  0  0  0  0
 13 36  1  0  0  0  0
 14 13  1  0  0  0  0
 15 14  1  0  0  0  0
 15 16  2  0  0  0  0
 16 12  1  0  0  0  0
 17 18  2  0  0  0  0
 17 16  1  0  0  0  0
 19 17  1  0  0  0  0
 20 19  1  0  0  0  0
 20 15  1  0  0  0  0
 21 20  2  0  0  0  0
 22 19  1  0  0  0  0
 23 22  1  0  0  0  0
 23 38  1  0  0  0  0
 24 23  2  0  0  0  0
 25 26  2  0  0  0  0
 25 24  1  0  0  0  0
 26 27  1  0  0  0  0
 27 41  1  0  0  0  0
 27 22  2  0  0  0  0
 28 25  1  0  0  0  0
 32  7  1  0  0  0  0
 33  8  1  0  0  0  0
 37 14  1  0  0  0  0
 39 24  1  0  0  0  0
 40 26  1  0  0  0  0
M  END
>  <Pose>
1

>  <Score>
-5.39

$$$$
