
 OpenBabel03232221553D

 41 44  0  0  0  0  0  0  0  0999 V2000
    8.0830  -18.1190  -46.1610 F   0  0  0  0  0  0  0  0  0  0  0  0
    7.5250  -18.6280  -45.0220 C   0  0  0  0  0  0  0  0  0  0  0  0
    6.9290  -19.8570  -45.0470 C   0  0  0  0  0  0  0  0  0  0  0  0
    6.3570  -20.3870  -43.8880 C   0  0  0  0  0  0  0  0  0  0  0  0
    6.3700  -19.7010  -42.6950 C   0  0  0  0  0  0  0  0  0  0  0  0
    6.9820  -18.4570  -42.7030 C   0  0  0  0  0  0  0  0  0  0  0  0
    7.5490  -17.9260  -43.8390 C   0  0  0  0  0  0  0  0  0  0  0  0
    5.8090  -20.1960  -41.4800 N   0  0  0  0  0  0  0  0  0  0  0  0
    5.0310  -19.5520  -40.5930 C   0  0  0  0  0  0  0  0  0  0  0  0
    4.6900  -18.3500  -40.7660 O   0  0  0  0  0  0  0  0  0  0  0  0
    4.6820  -20.3560  -39.5240 C   0  0  0  0  0  0  0  0  0  0  0  0
    5.2680  -21.5240  -39.7720 C   0  0  0  0  0  0  0  0  0  0  0  0
    4.9580  -22.3360  -38.7570 N   0  0  0  0  0  0  0  0  0  0  0  0
    4.1980  -21.6710  -37.9070 N   0  0  0  0  0  0  0  0  0  0  0  0
    4.0050  -20.4330  -38.3520 N   0  0  0  0  0  0  0  0  0  0  0  0
    3.2490  -19.3650  -37.7650 C   0  0  0  0  0  0  0  0  0  0  0  0
    1.9030  -19.1660  -38.3120 C   0  0  0  0  0  0  0  0  0  0  0  0
    1.1230  -20.1310  -38.2790 O   0  0  0  0  0  0  0  0  0  0  0  0
    1.5250  -17.9300  -38.8450 N   0  0  0  0  0  0  0  0  0  0  0  0
    1.2630  -16.7120  -38.1760 C   0  0  0  0  0  0  0  0  0  0  0  0
    1.1030  -15.5270  -38.8540 C   0  0  0  0  0  0  0  0  0  0  0  0
    0.8440  -14.3040  -38.2280 C   0  0  0  0  0  0  0  0  0  0  0  0
    0.7510  -14.3240  -36.8590 C   0  0  0  0  0  0  0  0  0  0  0  0
    0.9070  -15.4940  -36.1580 C   0  0  0  0  0  0  0  0  0  0  0  0
    1.1600  -16.6800  -36.7960 C   0  0  0  0  0  0  0  0  0  0  0  0
    0.3950  -12.6730  -35.9300 B   0  0  0  0  0  0  0  0  0  0  0  0
    5.9580  -21.4410  -40.9620 C   0  0  0  0  0  0  0  0  0  0  0  0
    6.6430  -22.3280  -41.5480 O   0  0  0  0  0  0  0  0  0  0  0  0
    6.9170  -20.3990  -45.9820 H   0  0  0  0  0  0  0  0  0  0  0  0
    5.8960  -21.3500  -43.9260 H   0  0  0  0  0  0  0  0  0  0  0  0
    6.9900  -17.9130  -41.7490 H   0  0  0  0  0  0  0  0  0  0  0  0
    8.0220  -16.9560  -43.8270 H   0  0  0  0  0  0  0  0  0  0  0  0
    5.2880  -23.3380  -38.6850 H   0  0  0  0  0  0  0  0  0  0  0  0
    3.8050  -22.0360  -37.0280 H   0  0  0  0  0  0  0  0  0  0  0  0
    3.8230  -18.4090  -37.9490 H   0  0  0  0  0  0  0  0  0  0  0  0
    3.2330  -19.4400  -36.6390 H   0  0  0  0  0  0  0  0  0  0  0  0
    1.4060  -17.8580  -39.9190 H   0  0  0  0  0  0  0  0  0  0  0  0
    1.1630  -15.4410  -39.9350 H   0  0  0  0  0  0  0  0  0  0  0  0
    0.7230  -13.3840  -38.7870 H   0  0  0  0  0  0  0  0  0  0  0  0
    0.8300  -15.4960  -35.0700 H   0  0  0  0  0  0  0  0  0  0  0  0
    1.2810  -17.6130  -36.2070 H   0  0  0  0  0  0  0  0  0  0  0  0
  1  2  1  0  0  0  0
  2  7  1  0  0  0  0
  3  2  2  0  0  0  0
  3  4  1  0  0  0  0
  4  5  2  0  0  0  0
  5  8  1  0  0  0  0
  6  5  1  0  0  0  0
  6 31  1  0  0  0  0
  7 32  1  0  0  0  0
  7  6  2  0  0  0  0
  8 27  1  0  0  0  0
  8  9  1  0  0  0  0
  9 11  1  0  0  0  0
 10  9  2  0  0  0  0
 11 15  1  0  0  0  0
 12 11  2  0  0  0  0
 12 13  1  0  0  0  0
 13 33  1  0  0  0  0
 13 14  1  0  0  0  0
 14 34  1  0  0  0  0
 15 14  1  0  0  0  0
 15 16  1  0  0  0  0
 16 36  1  0  0  0  0
 17 18  2  0  0  0  0
 17 16  1  0  0  0  0
 19 17  1  0  0  0  0
 19 20  1  0  0  0  0
 20 25  1  0  0  0  0
 21 22  1  0  0  0  0
 21 20  2  0  0  0  0
 22 23  2  0  0  0  0
 23 24  1  0  0  0  0
 23 26  1  0  0  0  0
 24 40  1  0  0  0  0
 25 41  1  0  0  0  0
 25 24  2  0  0  0  0
 27 12  1  0  0  0  0
 28 27  2  0  0  0  0
 29  3  1  0  0  0  0
 30  4  1  0  0  0  0
 35 16  1  0  0  0  0
 37 19  1  0  0  0  0
 38 21  1  0  0  0  0
 39 22  1  0  0  0  0
M  END
>  <Pose>
1

>  <Score>
-4.75

$$$$
