
 OpenBabel03232221553D

 39 42  0  0  1  0  0  0  0  0999 V2000
   10.8550  -26.5470  -42.1280 I   0  0  0  0  0  0  0  0  0  0  0  0
    9.8150  -25.1960  -43.3600 C   0  0  0  0  0  0  0  0  0  0  0  0
    8.4220  -25.2480  -43.4310 C   0  0  0  0  0  0  0  0  0  0  0  0
    7.7040  -24.3830  -44.2220 C   0  0  0  0  0  0  0  0  0  0  0  0
    8.4550  -23.4510  -44.9510 C   0  0  0  0  0  0  0  0  0  0  0  0
    9.8230  -23.4080  -44.8760 C   0  0  0  0  0  0  0  0  0  0  0  0
   10.5220  -24.2820  -44.0780 C   0  0  0  0  0  0  0  0  0  0  0  0
   10.8090  -22.1270  -45.8830 B   0  0  0  0  0  0  0  0  0  0  0  0
    6.2210  -24.3860  -44.3250 C   0  0  2  0  0  0  0  0  0  0  0  0
    5.8110  -23.0020  -44.3960 N   0  0  0  0  0  0  0  0  0  0  0  0
    5.8660  -22.1880  -43.2200 C   0  0  0  0  0  0  0  0  0  0  0  0
    6.0140  -20.4740  -42.9630 S   0  0  0  0  0  0  0  0  0  0  0  0
    5.9890  -20.4440  -41.2640 C   0  0  0  0  0  0  0  0  0  0  0  0
    5.8690  -21.7520  -40.9410 C   0  0  0  0  0  0  0  0  0  0  0  0
    5.8060  -22.6510  -41.9370 C   0  0  0  0  0  0  0  0  0  0  0  0
    5.6730  -24.1360  -41.9040 C   0  0  0  0  0  0  0  0  0  0  0  0
    5.5980  -24.7560  -40.8170 O   0  0  0  0  0  0  0  0  0  0  0  0
    5.6270  -24.8880  -43.0980 N   0  0  0  0  0  0  0  0  0  0  0  0
    5.8190  -22.0290  -39.4440 C   0  0  0  0  0  0  0  0  0  0  0  0
    5.3710  -20.7830  -38.7520 C   0  0  0  0  0  0  0  0  0  0  0  0
    6.4130  -19.7810  -39.0290 N   0  0  0  0  0  4  0  0  0  0  0  0
    6.0740  -19.2850  -40.3460 C   0  0  0  0  0  0  0  0  0  0  0  0
    6.4180  -18.7390  -38.0290 C   0  0  0  0  0  0  0  0  0  0  0  0
    7.7550  -26.1940  -42.6850 O   0  0  0  0  0  0  0  0  0  0  0  0
    7.8930  -22.7700  -45.5770 H   0  0  0  0  0  0  0  0  0  0  0  0
   11.6180  -24.2530  -44.0110 H   0  0  0  0  0  0  0  0  0  0  0  0
    5.8730  -24.9670  -45.2040 H   0  0  0  0  0  0  0  0  0  0  0  0
    5.4680  -22.5510  -45.2730 H   0  0  0  0  0  0  0  0  0  0  0  0
    5.1600  -25.8310  -43.1240 H   0  0  0  0  0  0  0  0  0  0  0  0
    6.8470  -22.2650  -39.1410 H   0  0  0  0  0  0  0  0  0  0  0  0
    5.1700  -22.8840  -39.2280 H   0  0  0  0  0  0  0  0  0  0  0  0
    4.4080  -20.4250  -39.1530 H   0  0  0  0  0  0  0  0  0  0  0  0
    5.3170  -20.9680  -37.6800 H   0  0  0  0  0  0  0  0  0  0  0  0
    7.3320  -20.2660  -39.1050 H   0  0  0  0  0  0  0  0  0  0  0  0
    5.1240  -18.7140  -40.3420 H   0  0  0  0  0  0  0  0  0  0  0  0
    6.8670  -18.5650  -40.6280 H   0  0  0  0  0  0  0  0  0  0  0  0
    6.1340  -17.7580  -38.4450 H   0  0  0  0  0  0  0  0  0  0  0  0
    7.4800  -18.6410  -37.6750 H   0  0  0  0  0  0  0  0  0  0  0  0
    5.8350  -19.0030  -37.1220 H   0  0  0  0  0  0  0  0  0  0  0  0
  2  1  1  0  0  0  0
  3  2  1  0  0  0  0
  3 24  1  0  0  0  0
  4  3  2  0  0  0  0
  5  6  2  0  0  0  0
  5  4  1  0  0  0  0
  6  7  1  0  0  0  0
  7 26  1  0  0  0  0
  7  2  2  0  0  0  0
  8  6  1  0  0  0  0
  9 27  1  6  0  0  0
  9  4  1  0  0  0  0
  9 18  1  0  0  0  0
 10  9  1  0  0  0  0
 10 11  1  0  0  0  0
 11 12  1  0  0  0  0
 11 15  2  0  0  0  0
 12 13  1  0  0  0  0
 13 14  2  0  0  0  0
 13 22  1  0  0  0  0
 14 19  1  0  0  0  0
 15 16  1  0  0  0  0
 15 14  1  0  0  0  0
 16 17  2  0  0  0  0
 18 16  1  0  0  0  0
 19 31  1  0  0  0  0
 19 30  1  0  0  0  0
 19 20  1  0  0  0  0
 20 33  1  0  0  0  0
 21 20  1  0  0  0  0
 21 23  1  0  0  0  0
 22 35  1  0  0  0  0
 22 21  1  0  0  0  0
 23 38  1  0  0  0  0
 23 39  1  0  0  0  0
 25  5  1  0  0  0  0
 28 10  1  0  0  0  0
 29 18  1  0  0  0  0
 32 20  1  0  0  0  0
 34 21  1  0  0  0  0
 36 22  1  0  0  0  0
 37 23  1  0  0  0  0
M  END
>  <Pose>
1

>  <Score>
-4.02

$$$$
