
 OpenBabel03232221553D

 43 46  0  0  1  0  0  0  0  0999 V2000
   10.1580  -19.5310  -45.4050 I   0  0  0  0  0  0  0  0  0  0  0  0
    8.5840  -18.7400  -44.2440 C   0  0  0  0  0  0  0  0  0  0  0  0
    8.2900  -17.3940  -44.3180 C   0  0  0  0  0  0  0  0  0  0  0  0
    7.2530  -16.8570  -43.5570 C   0  0  0  0  0  0  0  0  0  0  0  0
    6.5560  -17.7070  -42.7520 C   0  0  0  0  0  0  0  0  0  0  0  0
    6.8300  -19.0650  -42.6590 C   0  0  0  0  0  0  0  0  0  0  0  0
    7.8520  -19.5730  -43.4140 C   0  0  0  0  0  0  0  0  0  0  0  0
    5.9950  -19.8880  -41.7420 C   0  0  2  0  0  0  0  0  0  0  0  0
    4.6360  -19.3590  -41.8580 N   0  0  0  0  0  0  0  0  0  0  0  0
    3.7810  -19.2360  -40.6940 C   0  0  0  0  0  0  0  0  0  0  0  0
    2.0940  -18.9640  -40.5070 S   0  0  0  0  0  0  0  0  0  0  0  0
    2.0080  -18.9730  -38.8140 C   0  0  0  0  0  0  0  0  0  0  0  0
    3.3040  -19.1880  -38.4290 C   0  0  0  0  0  0  0  0  0  0  0  0
    4.2200  -19.3230  -39.4120 C   0  0  0  0  0  0  0  0  0  0  0  0
    5.6840  -19.5630  -39.2570 C   0  0  0  0  0  0  0  0  0  0  0  0
    6.2220  -19.6650  -38.1140 O   0  0  0  0  0  0  0  0  0  0  0  0
    6.4880  -19.6780  -40.4080 N   0  0  0  0  0  0  0  0  0  0  0  0
    3.4450  -19.2310  -36.9110 C   0  0  0  0  0  0  0  0  0  0  0  0
    2.7690  -18.0240  -36.3150 C   0  0  0  0  0  0  0  0  0  0  0  0
    1.4910  -17.7370  -36.8760 N   0  0  0  0  0  4  0  0  0  0  0  0
    0.9880  -18.8220  -37.7120 C   0  0  0  0  0  0  0  0  0  0  0  0
    1.6630  -16.5930  -37.7850 C   0  0  0  0  0  0  0  0  0  0  0  0
    7.0040  -15.4960  -43.6720 O   0  0  0  0  0  0  0  0  0  0  0  0
    5.6660  -15.0440  -43.5760 C   0  0  0  0  0  0  0  0  0  0  0  0
    9.0210  -16.5630  -45.1470 O   0  0  0  0  0  0  0  0  0  0  0  0
    5.7450  -17.2990  -42.1540 H   0  0  0  0  0  0  0  0  0  0  0  0
    8.0660  -20.6410  -43.3380 H   0  0  0  0  0  0  0  0  0  0  0  0
    5.9950  -20.9550  -42.0350 H   0  0  0  0  0  0  0  0  0  0  0  0
    4.2420  -19.0570  -42.7680 H   0  0  0  0  0  0  0  0  0  0  0  0
    7.5340  -19.6070  -40.3040 H   0  0  0  0  0  0  0  0  0  0  0  0
    3.0150  -20.1660  -36.5530 H   0  0  0  0  0  0  0  0  0  0  0  0
    4.5120  -19.1690  -36.6350 H   0  0  0  0  0  0  0  0  0  0  0  0
    3.4220  -17.1290  -36.3080 H   0  0  0  0  0  0  0  0  0  0  0  0
    2.6030  -18.2700  -35.2250 H   0  0  0  0  0  0  0  0  0  0  0  0
    0.7610  -17.4780  -36.1610 H   0  0  0  0  0  0  0  0  0  0  0  0
    0.0280  -18.4890  -38.1290 H   0  0  0  0  0  0  0  0  0  0  0  0
    0.9350  -19.7200  -37.0790 H   0  0  0  0  0  0  0  0  0  0  0  0
    2.5980  -16.7740  -38.3540 H   0  0  0  0  0  0  0  0  0  0  0  0
    0.8060  -16.5570  -38.4940 H   0  0  0  0  0  0  0  0  0  0  0  0
    1.6800  -15.6450  -37.2260 H   0  0  0  0  0  0  0  0  0  0  0  0
    5.3320  -15.1200  -42.5010 H   0  0  0  0  0  0  0  0  0  0  0  0
    4.9600  -15.6660  -44.1590 H   0  0  0  0  0  0  0  0  0  0  0  0
    5.5520  -14.0040  -43.9450 H   0  0  0  0  0  0  0  0  0  0  0  0
  1  2  1  0  0  0  0
  2  7  1  0  0  0  0
  3  2  2  0  0  0  0
  3  4  1  0  0  0  0
  4  5  2  0  0  0  0
  5  6  1  0  0  0  0
  5 26  1  0  0  0  0
  6  8  1  0  0  0  0
  7 27  1  0  0  0  0
  7  6  2  0  0  0  0
  8 28  1  6  0  0  0
  8 17  1  0  0  0  0
  9  8  1  0  0  0  0
  9 10  1  0  0  0  0
 10 11  1  0  0  0  0
 10 14  2  0  0  0  0
 11 12  1  0  0  0  0
 12 13  2  0  0  0  0
 12 21  1  0  0  0  0
 13 18  1  0  0  0  0
 14 15  1  0  0  0  0
 14 13  1  0  0  0  0
 15 16  2  0  0  0  0
 17 30  1  0  0  0  0
 17 15  1  0  0  0  0
 18 32  1  0  0  0  0
 18 31  1  0  0  0  0
 18 19  1  0  0  0  0
 19 33  1  0  0  0  0
 19 34  1  0  0  0  0
 20 19  1  0  0  0  0
 20 35  1  0  0  0  0
 21 37  1  0  0  0  0
 21 20  1  0  0  0  0
 22 40  1  0  0  0  0
 22 20  1  0  0  0  0
 23 24  1  0  0  0  0
 23  4  1  0  0  0  0
 24 41  1  0  0  0  0
 25  3  1  0  0  0  0
 29  9  1  0  0  0  0
 36 21  1  0  0  0  0
 38 22  1  0  0  0  0
 39 22  1  0  0  0  0
 42 24  1  0  0  0  0
 43 24  1  0  0  0  0
M  END
>  <Pose>
1

>  <Score>
-4.19

$$$$
