
 OpenBabel03232221553D

 38 41  0  0  1  0  0  0  0  0999 V2000
    2.8050  -24.6540  -42.5990 I   0  0  0  0  0  0  0  0  0  0  0  0
    4.4290  -23.4940  -43.2880 C   0  0  0  0  0  0  0  0  0  0  0  0
    5.1790  -22.7320  -42.3650 C   0  0  0  0  0  0  0  0  0  0  0  0
    6.2310  -21.9720  -42.7920 C   0  0  0  0  0  0  0  0  0  0  0  0
    6.5290  -21.9840  -44.1570 C   0  0  0  0  0  0  0  0  0  0  0  0
    5.8200  -22.7100  -45.0730 C   0  0  0  0  0  0  0  0  0  0  0  0
    4.7490  -23.4790  -44.6230 C   0  0  0  0  0  0  0  0  0  0  0  0
    4.8260  -22.7780  -41.0020 N   0  0  0  0  0  0  0  0  0  0  0  0
    5.0020  -21.7800  -40.0220 C   0  0  1  0  0  0  0  0  0  0  0  0
    6.1450  -21.4540  -39.4300 N   0  0  0  0  0  0  0  0  0  0  0  0
    6.3020  -20.5000  -38.4970 C   0  0  0  0  0  0  0  0  0  0  0  0
    7.2890  -19.9750  -37.7610 N   0  0  0  0  0  0  0  0  0  0  0  0
    6.8300  -19.0310  -36.9920 O   0  0  0  0  0  0  0  0  0  0  0  0
    5.5490  -18.8960  -37.1860 N   0  0  0  0  0  0  0  0  0  0  0  0
    5.1620  -19.7850  -38.1130 C   0  0  0  0  0  0  0  0  0  0  0  0
    3.9980  -20.0660  -38.6690 N   0  0  0  0  0  0  0  0  0  0  0  0
    3.8930  -21.0240  -39.5940 C   0  0  0  0  0  0  0  0  0  0  0  0
    2.6190  -21.0650  -39.9500 N   0  0  0  0  0  0  0  0  0  0  0  0
    1.9320  -20.1410  -39.2560 N   0  0  0  0  0  0  0  0  0  0  0  0
    2.7800  -19.4970  -38.4410 C   0  0  0  0  0  0  0  0  0  0  0  0
    2.5110  -18.4010  -37.4730 C   0  0  0  0  0  0  0  0  0  0  0  0
    1.3720  -17.5390  -37.8700 C   0  0  0  0  0  0  0  0  0  0  0  0
    1.3430  -16.8970  -38.9400 O   0  0  0  0  0  0  0  0  0  0  0  0
    0.3010  -17.4360  -37.0250 O   0  0  0  0  0  0  0  0  0  0  0  0
   -0.9740  -17.8990  -37.2900 C   0  0  0  0  0  0  0  0  0  0  0  0
   -1.8730  -18.0550  -36.1240 C   0  0  0  0  0  0  0  0  0  0  0  0
    6.8510  -21.3670  -42.1580 H   0  0  0  0  0  0  0  0  0  0  0  0
    7.3680  -21.3800  -44.5130 H   0  0  0  0  0  0  0  0  0  0  0  0
    6.0710  -22.6980  -46.1200 H   0  0  0  0  0  0  0  0  0  0  0  0
    4.1950  -24.0490  -45.3560 H   0  0  0  0  0  0  0  0  0  0  0  0
    4.3620  -23.7030  -40.6890 H   0  0  0  0  0  0  0  0  0  0  0  0
    3.4180  -17.8160  -37.2360 H   0  0  0  0  0  0  0  0  0  0  0  0
    2.1930  -18.8630  -36.4880 H   0  0  0  0  0  0  0  0  0  0  0  0
   -1.4180  -17.1990  -38.0520 H   0  0  0  0  0  0  0  0  0  0  0  0
   -0.9250  -18.8840  -37.8390 H   0  0  0  0  0  0  0  0  0  0  0  0
   -2.7510  -17.3570  -36.2660 H   0  0  0  0  0  0  0  0  0  0  0  0
   -1.4040  -17.7180  -35.1710 H   0  0  0  0  0  0  0  0  0  0  0  0
   -2.2480  -19.0850  -36.0650 H   0  0  0  0  0  0  0  0  0  0  0  0
  2  1  1  0  0  0  0
  2  3  1  0  0  0  0
  3  8  1  0  0  0  0
  4  3  2  0  0  0  0
  4 27  1  0  0  0  0
  5  4  1  0  0  0  0
  6  7  1  0  0  0  0
  6  5  2  0  0  0  0
  7  2  2  0  0  0  0
  8 31  1  0  0  0  0
  9  8  1  6  0  0  0
  9 17  1  0  0  0  0
  9 10  1  0  0  0  0
 10 11  2  0  0  0  0
 11 15  1  0  0  0  0
 11 12  1  0  0  0  0
 12 13  1  0  0  0  0
 14 13  1  0  0  0  0
 15 14  2  0  0  0  0
 16 20  1  0  0  0  0
 16 15  1  0  0  0  0
 17 16  1  0  0  0  0
 18 17  2  0  0  0  0
 18 19  1  0  0  0  0
 19 20  2  0  0  0  0
 20 21  1  0  0  0  0
 21 32  1  0  0  0  0
 21 33  1  0  0  0  0
 22 21  1  0  0  0  0
 22 24  1  0  0  0  0
 23 22  2  0  0  0  0
 25 24  1  0  0  0  0
 25 26  1  0  0  0  0
 26 38  1  0  0  0  0
 26 37  1  0  0  0  0
 28  5  1  0  0  0  0
 29  6  1  0  0  0  0
 30  7  1  0  0  0  0
 34 25  1  0  0  0  0
 35 25  1  0  0  0  0
 36 26  1  0  0  0  0
M  END
>  <Pose>
1

>  <Score>
-5.48

$$$$
