
 OpenBabel03232221553D

 34 37  0  0  0  0  0  0  0  0999 V2000
    1.4580  -16.3620  -37.4860 I   0  0  0  0  0  0  0  0  0  0  0  0
    0.3300  -18.1500  -37.5930 C   0  0  0  0  0  0  0  0  0  0  0  0
    1.0180  -19.3180  -37.8530 C   0  0  0  0  0  0  0  0  0  0  0  0
    0.2650  -20.4730  -37.9200 C   0  0  0  0  0  0  0  0  0  0  0  0
   -1.1060  -20.4510  -37.7330 C   0  0  0  0  0  0  0  0  0  0  0  0
   -1.7830  -19.2780  -37.4750 C   0  0  0  0  0  0  0  0  0  0  0  0
   -1.0370  -18.1190  -37.4070 C   0  0  0  0  0  0  0  0  0  0  0  0
    2.4340  -19.3260  -38.0420 N   0  0  0  0  0  0  0  0  0  0  0  0
    3.1380  -19.7330  -39.1130 C   0  0  0  0  0  0  0  0  0  0  0  0
    2.6390  -20.1990  -40.1810 O   0  0  0  0  0  0  0  0  0  0  0  0
    4.4950  -19.5820  -38.9110 C   0  0  0  0  0  0  0  0  0  0  0  0
    4.6170  -19.0740  -37.6960 C   0  0  0  0  0  0  0  0  0  0  0  0
    5.9510  -18.9300  -37.5130 N   0  0  0  0  0  0  0  0  0  0  0  0
    6.6120  -19.3380  -38.5810 N   0  0  0  0  0  0  0  0  0  0  0  0
    5.7320  -19.7460  -39.4580 N   0  0  0  0  0  0  0  0  0  0  0  0
    5.9600  -20.2710  -40.7580 C   0  0  0  0  0  0  0  0  0  0  0  0
    6.4620  -19.4990  -41.7820 C   0  0  0  0  0  0  0  0  0  0  0  0
    6.6730  -20.0410  -43.0390 C   0  0  0  0  0  0  0  0  0  0  0  0
    6.3950  -21.3630  -43.3190 C   0  0  0  0  0  0  0  0  0  0  0  0
    5.8930  -22.1380  -42.2950 C   0  0  0  0  0  0  0  0  0  0  0  0
    5.6790  -21.6090  -41.0460 C   0  0  0  0  0  0  0  0  0  0  0  0
    3.3530  -18.9110  -37.1520 C   0  0  0  0  0  0  0  0  0  0  0  0
    3.1240  -18.4420  -35.9890 O   0  0  0  0  0  0  0  0  0  0  0  0
    0.7980  -21.3910  -38.1230 H   0  0  0  0  0  0  0  0  0  0  0  0
   -1.6760  -21.3670  -37.7900 H   0  0  0  0  0  0  0  0  0  0  0  0
   -2.8560  -19.2950  -37.3340 H   0  0  0  0  0  0  0  0  0  0  0  0
   -1.5780  -17.1930  -37.2010 H   0  0  0  0  0  0  0  0  0  0  0  0
    6.4140  -18.5540  -36.6590 H   0  0  0  0  0  0  0  0  0  0  0  0
    7.6450  -19.3380  -38.7040 H   0  0  0  0  0  0  0  0  0  0  0  0
    6.6890  -18.4580  -41.5900 H   0  0  0  0  0  0  0  0  0  0  0  0
    7.0680  -19.4050  -43.8180 H   0  0  0  0  0  0  0  0  0  0  0  0
    6.5730  -21.7560  -44.3170 H   0  0  0  0  0  0  0  0  0  0  0  0
    5.6740  -23.1790  -42.5180 H   0  0  0  0  0  0  0  0  0  0  0  0
    5.2900  -22.1910  -40.2340 H   0  0  0  0  0  0  0  0  0  0  0  0
  2  1  1  0  0  0  0
  2  7  1  0  0  0  0
  3  2  2  0  0  0  0
  4  3  1  0  0  0  0
  4  5  2  0  0  0  0
  5  6  1  0  0  0  0
  6  7  2  0  0  0  0
  6 26  1  0  0  0  0
  7 27  1  0  0  0  0
  8  3  1  0  0  0  0
  8 22  1  0  0  0  0
  9 11  1  0  0  0  0
  9  8  1  0  0  0  0
 10  9  2  0  0  0  0
 11 12  2  0  0  0  0
 12 13  1  0  0  0  0
 12 22  1  0  0  0  0
 13 28  1  0  0  0  0
 14 13  1  0  0  0  0
 15 11  1  0  0  0  0
 15 14  1  0  0  0  0
 16 15  1  0  0  0  0
 17 30  1  0  0  0  0
 17 16  2  0  0  0  0
 18 17  1  0  0  0  0
 19 18  2  0  0  0  0
 19 20  1  0  0  0  0
 20 21  2  0  0  0  0
 21 16  1  0  0  0  0
 21 34  1  0  0  0  0
 22 23  2  0  0  0  0
 24  4  1  0  0  0  0
 25  5  1  0  0  0  0
 29 14  1  0  0  0  0
 31 18  1  0  0  0  0
 32 19  1  0  0  0  0
 33 20  1  0  0  0  0
M  END
>  <Pose>
1

>  <Score>
-5.29

$$$$
