
 OpenBabel03232221553D

 40 43  0  0  0  0  0  0  0  0999 V2000
   11.2530  -19.0860  -43.7030 I   0  0  0  0  0  0  0  0  0  0  0  0
    9.7280  -20.5540  -43.9310 C   0  0  0  0  0  0  0  0  0  0  0  0
    8.4060  -20.4240  -43.5660 C   0  0  0  0  0  0  0  0  0  0  0  0
    7.7950  -21.5710  -43.8740 N   0  0  0  0  0  0  0  0  0  0  0  0
    8.6910  -22.3880  -44.4130 N   0  0  0  0  0  0  0  0  0  0  0  0
    9.8870  -21.8070  -44.4670 C   0  0  0  0  0  0  0  0  0  0  0  0
    6.3910  -21.9570  -43.6380 C   0  0  0  0  0  0  0  0  0  0  0  0
    7.8180  -19.2320  -42.8960 C   0  0  0  0  0  0  0  0  0  0  0  0
    8.5330  -18.1800  -43.1570 O   0  0  0  0  0  0  0  0  0  0  0  0
    6.7210  -19.2190  -42.1390 N   0  0  0  0  0  0  0  0  0  0  0  0
    5.5860  -19.2050  -41.3560 C   0  0  0  0  0  0  0  0  0  0  0  0
    5.7970  -19.5240  -39.9950 C   0  0  0  0  0  0  0  0  0  0  0  0
    6.8880  -19.9070  -39.3420 N   0  0  0  0  0  0  0  0  0  0  0  0
    6.5750  -20.0870  -38.0950 O   0  0  0  0  0  0  0  0  0  0  0  0
    5.3300  -19.8400  -37.9050 N   0  0  0  0  0  0  0  0  0  0  0  0
    4.7970  -19.4800  -39.0800 C   0  0  0  0  0  0  0  0  0  0  0  0
    3.5270  -19.1150  -39.4700 C   0  0  0  0  0  0  0  0  0  0  0  0
    3.2890  -18.8010  -40.7830 C   0  0  0  0  0  0  0  0  0  0  0  0
    4.2980  -18.8410  -41.7250 C   0  0  0  0  0  0  0  0  0  0  0  0
    2.5190  -19.0890  -38.4950 N   0  0  0  0  0  0  0  0  0  0  0  0
    1.1480  -19.5240  -38.7630 C   0  0  0  0  0  0  0  0  0  0  0  0
    0.3060  -18.2810  -38.5570 C   0  0  0  0  0  0  0  0  0  0  0  0
    1.0370  -17.1740  -38.1580 O   0  0  0  0  0  0  0  0  0  0  0  0
    1.8340  -17.3620  -37.0490 C   0  0  0  0  0  0  0  0  0  0  0  0
    2.6420  -18.6460  -37.1250 C   0  0  0  0  0  0  0  0  0  0  0  0
   10.8220  -22.2160  -44.8550 H   0  0  0  0  0  0  0  0  0  0  0  0
    5.9040  -22.1980  -44.5930 H   0  0  0  0  0  0  0  0  0  0  0  0
    5.8400  -21.1800  -43.1020 H   0  0  0  0  0  0  0  0  0  0  0  0
    6.4110  -22.8910  -43.0010 H   0  0  0  0  0  0  0  0  0  0  0  0
    7.3140  -18.3600  -41.2660 H   0  0  0  0  0  0  0  0  0  0  0  0
    2.3070  -18.5240  -41.1020 H   0  0  0  0  0  0  0  0  0  0  0  0
    4.0360  -18.5700  -42.7340 H   0  0  0  0  0  0  0  0  0  0  0  0
    0.9770  -20.0270  -39.6880 H   0  0  0  0  0  0  0  0  0  0  0  0
    0.8450  -20.2460  -37.9460 H   0  0  0  0  0  0  0  0  0  0  0  0
   -0.5820  -18.4900  -37.9260 H   0  0  0  0  0  0  0  0  0  0  0  0
   -0.1050  -18.0080  -39.5730 H   0  0  0  0  0  0  0  0  0  0  0  0
    2.5830  -16.5260  -37.0620 H   0  0  0  0  0  0  0  0  0  0  0  0
    1.2890  -17.2930  -36.0950 H   0  0  0  0  0  0  0  0  0  0  0  0
    2.0960  -19.4070  -36.4730 H   0  0  0  0  0  0  0  0  0  0  0  0
    3.6310  -18.5940  -36.7060 H   0  0  0  0  0  0  0  0  0  0  0  0
  2  1  1  0  0  0  0
  2  3  2  0  0  0  0
  3  8  1  0  0  0  0
  4  7  1  0  0  0  0
  4  3  1  0  0  0  0
  5  4  1  0  0  0  0
  6  5  2  0  0  0  0
  6  2  1  0  0  0  0
  7 28  1  0  0  0  0
  7 29  1  0  0  0  0
  8 10  1  0  0  0  0
  9  8  2  0  0  0  0
 10 11  1  0  0  0  0
 10 30  1  0  0  0  0
 11 12  1  0  0  0  0
 12 13  2  0  0  0  0
 12 16  1  0  0  0  0
 13 14  1  0  0  0  0
 14 15  1  0  0  0  0
 16 15  2  0  0  0  0
 17 16  1  0  0  0  0
 17 20  1  0  0  0  0
 18 17  2  0  0  0  0
 19 11  2  0  0  0  0
 19 18  1  0  0  0  0
 20 25  1  0  0  0  0
 21 22  1  0  0  0  0
 21 20  1  0  0  0  0
 21 34  1  0  0  0  0
 22 23  1  0  0  0  0
 22 35  1  0  0  0  0
 23 24  1  0  0  0  0
 24 38  1  0  0  0  0
 25 24  1  0  0  0  0
 25 40  1  0  0  0  0
 25 39  1  0  0  0  0
 26  6  1  0  0  0  0
 27  7  1  0  0  0  0
 31 18  1  0  0  0  0
 32 19  1  0  0  0  0
 33 21  1  0  0  0  0
 36 22  1  0  0  0  0
 37 24  1  0  0  0  0
M  END
>  <Pose>
1

>  <Score>
-4.59

$$$$
