
 OpenBabel03232221553D

 50 53  0  0  0  0  0  0  0  0999 V2000
    0.7230  -16.0200  -36.5510 I   0  0  0  0  0  0  0  0  0  0  0  0
    1.8300  -17.7300  -37.0270 C   0  0  0  0  0  0  0  0  0  0  0  0
    2.9330  -18.1120  -36.3280 C   0  0  0  0  0  0  0  0  0  0  0  0
    3.6310  -19.2710  -36.7000 C   0  0  0  0  0  0  0  0  0  0  0  0
    3.2610  -20.0600  -37.7490 C   0  0  0  0  0  0  0  0  0  0  0  0
    2.1200  -19.6430  -38.4510 C   0  0  0  0  0  0  0  0  0  0  0  0
    1.4330  -18.5090  -38.0910 C   0  0  0  0  0  0  0  0  0  0  0  0
    3.9020  -21.2600  -38.2120 C   0  0  0  0  0  0  0  0  0  0  0  0
    4.9190  -21.3660  -38.9470 N   0  0  0  0  0  0  0  0  0  0  0  0
    5.6140  -20.3160  -39.4480 N   0  0  0  0  0  0  0  0  0  0  0  0
    6.0690  -20.3580  -40.8210 C   0  0  0  0  0  0  0  0  0  0  0  0
    6.2670  -21.5380  -41.4320 N   0  0  0  0  0  4  0  0  0  0  0  0
    6.6890  -21.6010  -42.7020 C   0  0  0  0  0  0  0  0  0  0  0  0
    6.9010  -20.4320  -43.3270 N   0  0  0  0  0  0  0  0  0  0  0  0
    6.7140  -19.2280  -42.7480 C   0  0  0  0  0  0  0  0  0  0  0  0
    6.2900  -19.2090  -41.4710 N   0  0  0  0  0  0  0  0  0  0  0  0
    6.9610  -18.0370  -43.4830 N   0  0  0  0  0  0  0  0  0  0  0  0
    8.2900  -17.7680  -43.9810 C   0  0  0  0  0  0  0  0  0  0  0  0
    8.4610  -16.2460  -43.8810 C   0  0  0  0  0  0  0  0  0  0  0  0
    7.5780  -15.6750  -44.7610 O   0  0  0  0  0  0  0  0  0  0  0  0
    6.2520  -15.9080  -44.5300 C   0  0  0  0  0  0  0  0  0  0  0  0
    5.9100  -17.1120  -43.7280 C   0  0  0  0  0  0  0  0  0  0  0  0
    6.9050  -22.8430  -43.3710 N   0  0  0  0  0  0  0  0  0  0  0  0
    5.8420  -23.7080  -43.7850 C   0  0  0  0  0  0  0  0  0  0  0  0
    6.4730  -25.0060  -44.2930 C   0  0  0  0  0  0  0  0  0  0  0  0
    7.4030  -25.5050  -43.3970 O   0  0  0  0  0  0  0  0  0  0  0  0
    8.4980  -24.6930  -43.2350 C   0  0  0  0  0  0  0  0  0  0  0  0
    8.2680  -23.2630  -43.6530 C   0  0  0  0  0  0  0  0  0  0  0  0
    3.2520  -17.5080  -35.4930 H   0  0  0  0  0  0  0  0  0  0  0  0
    4.4710  -19.4820  -36.0970 H   0  0  0  0  0  0  0  0  0  0  0  0
    1.7640  -20.2130  -39.2930 H   0  0  0  0  0  0  0  0  0  0  0  0
    0.5600  -18.2560  -38.6880 H   0  0  0  0  0  0  0  0  0  0  0  0
    3.4730  -22.2500  -37.9010 H   0  0  0  0  0  0  0  0  0  0  0  0
    5.8400  -19.4900  -38.8510 H   0  0  0  0  0  0  0  0  0  0  0  0
    8.3650  -18.0860  -45.0300 H   0  0  0  0  0  0  0  0  0  0  0  0
    9.0750  -18.2210  -43.3400 H   0  0  0  0  0  0  0  0  0  0  0  0
    8.3210  -15.9620  -42.8370 H   0  0  0  0  0  0  0  0  0  0  0  0
    9.4830  -16.0280  -44.2220 H   0  0  0  0  0  0  0  0  0  0  0  0
    5.7330  -14.9780  -44.1500 H   0  0  0  0  0  0  0  0  0  0  0  0
    5.7770  -16.0550  -45.5470 H   0  0  0  0  0  0  0  0  0  0  0  0
    5.0490  -17.6960  -44.1660 H   0  0  0  0  0  0  0  0  0  0  0  0
    5.4860  -16.7380  -42.7480 H   0  0  0  0  0  0  0  0  0  0  0  0
    5.0830  -23.9060  -43.0210 H   0  0  0  0  0  0  0  0  0  0  0  0
    5.3530  -23.2310  -44.6720 H   0  0  0  0  0  0  0  0  0  0  0  0
    6.9150  -24.7880  -45.3000 H   0  0  0  0  0  0  0  0  0  0  0  0
    5.6920  -25.7800  -44.4340 H   0  0  0  0  0  0  0  0  0  0  0  0
    9.3910  -25.0510  -43.8180 H   0  0  0  0  0  0  0  0  0  0  0  0
    8.7530  -24.6840  -42.1410 H   0  0  0  0  0  0  0  0  0  0  0  0
    8.4750  -23.1740  -44.7410 H   0  0  0  0  0  0  0  0  0  0  0  0
    9.0030  -22.6450  -43.0730 H   0  0  0  0  0  0  0  0  0  0  0  0
  2  1  1  0  0  0  0
  2  3  1  0  0  0  0
  3 29  1  0  0  0  0
  4  3  2  0  0  0  0
  4 30  1  0  0  0  0
  5  4  1  0  0  0  0
  6  7  1  0  0  0  0
  6  5  2  0  0  0  0
  7  2  2  0  0  0  0
  8 33  1  0  0  0  0
  8  5  1  0  0  0  0
  9  8  2  0  0  0  0
 10  9  1  0  0  0  0
 10 34  1  0  0  0  0
 11 10  1  0  0  0  0
 12 11  2  0  0  0  0
 13 12  2  0  0  0  0
 14 15  2  0  0  0  0
 14 13  1  0  0  0  0
 15 16  1  0  0  0  0
 16 11  1  0  0  0  0
 17 15  1  0  0  0  0
 18 19  1  0  0  0  0
 18 17  1  0  0  0  0
 18 36  1  0  0  0  0
 19 37  1  0  0  0  0
 20 21  1  0  0  0  0
 20 19  1  0  0  0  0
 21 39  1  0  0  0  0
 21 22  1  0  0  0  0
 22 17  1  0  0  0  0
 22 42  1  0  0  0  0
 23 13  1  0  0  0  0
 24 23  1  0  0  0  0
 24 43  1  0  0  0  0
 25 24  1  0  0  0  0
 25 26  1  0  0  0  0
 26 27  1  0  0  0  0
 27 48  1  0  0  0  0
 28 23  1  0  0  0  0
 28 27  1  0  0  0  0
 28 50  1  0  0  0  0
 31  6  1  0  0  0  0
 32  7  1  0  0  0  0
 35 18  1  0  0  0  0
 38 19  1  0  0  0  0
 40 21  1  0  0  0  0
 41 22  1  0  0  0  0
 44 24  1  0  0  0  0
 45 25  1  0  0  0  0
 46 25  1  0  0  0  0
 47 27  1  0  0  0  0
 49 28  1  0  0  0  0
M  END
>  <Pose>
1

>  <Score>
-4.52

$$$$
