
 OpenBabel03232221553D

 52 56  0  0  1  0  0  0  0  0999 V2000
    6.5780  -24.6770  -44.8300 I   0  0  0  0  0  0  0  0  0  0  0  0
    5.7100  -23.5350  -43.2980 C   0  0  0  0  0  0  0  0  0  0  0  0
    6.4090  -22.4670  -42.7450 C   0  0  0  0  0  0  0  0  0  0  0  0
    5.8520  -21.7200  -41.7490 C   0  0  0  0  0  0  0  0  0  0  0  0
    4.5880  -21.9740  -41.2420 C   0  0  0  0  0  0  0  0  0  0  0  0
    3.8840  -23.0400  -41.7900 C   0  0  0  0  0  0  0  0  0  0  0  0
    4.4550  -23.7900  -42.7970 C   0  0  0  0  0  0  0  0  0  0  0  0
    4.0110  -21.1950  -40.2050 N   0  0  0  0  0  0  0  0  0  0  0  0
    3.1520  -20.1960  -40.4730 C   0  0  0  0  0  0  0  0  0  0  0  0
    2.5790  -19.4280  -39.4830 C   0  0  2  0  0  0  0  0  0  0  0  0
    2.9410  -19.7430  -38.1880 C   0  0  0  0  0  0  0  0  0  0  0  0
    2.5030  -19.1330  -37.1670 O   0  0  0  0  0  0  0  0  0  0  0  0
    3.8160  -20.7580  -37.9020 N   0  0  0  0  0  0  0  0  0  0  0  0
    4.3280  -21.4600  -38.9280 C   0  0  0  0  0  0  0  0  0  0  0  0
    5.1350  -22.4010  -38.7150 O   0  0  0  0  0  0  0  0  0  0  0  0
    1.6340  -18.3470  -39.6910 C   0  0  1  0  0  0  0  0  0  0  0  0
    0.8480  -18.3790  -40.8840 N   0  0  0  0  0  4  0  0  0  0  0  0
   -0.0580  -19.4910  -40.9760 C   0  0  0  0  0  0  0  0  0  0  0  0
   -0.1780  -20.2740  -39.6860 C   0  0  0  0  0  0  0  0  0  0  0  0
   -0.3040  -19.2940  -38.5440 C   0  0  0  0  0  0  0  0  0  0  0  0
    0.6280  -18.2880  -38.5710 C   0  0  0  0  0  0  0  0  0  0  0  0
    0.6170  -17.3010  -37.6140 C   0  0  0  0  0  0  0  0  0  0  0  0
   -0.3660  -17.3740  -36.6370 C   0  0  0  0  0  0  0  0  0  0  0  0
   -1.3100  -18.3790  -36.5960 C   0  0  0  0  0  0  0  0  0  0  0  0
   -1.2620  -19.3590  -37.5860 C   0  0  0  0  0  0  0  0  0  0  0  0
   -2.1370  -18.1610  -35.5050 O   0  0  0  0  0  0  0  0  0  0  0  0
   -1.5050  -17.2200  -34.6220 C   0  0  0  0  0  0  0  0  0  0  0  0
   -0.6590  -16.5510  -35.5380 O   0  0  0  0  0  0  0  0  0  0  0  0
    1.5480  -16.3030  -37.6490 O   0  0  0  0  0  0  0  0  0  0  0  0
    1.3310  -14.9420  -37.4530 C   0  0  0  0  0  0  0  0  0  0  0  0
   -0.0260  -17.1790  -40.8010 C   0  0  0  0  0  0  0  0  0  0  0  0
    2.8200  -19.9130  -41.7730 O   0  0  0  0  0  0  0  0  0  0  0  0
    7.3930  -22.2620  -43.1320 H   0  0  0  0  0  0  0  0  0  0  0  0
    6.4030  -20.8910  -41.3230 H   0  0  0  0  0  0  0  0  0  0  0  0
    2.8910  -23.2370  -41.3890 H   0  0  0  0  0  0  0  0  0  0  0  0
    3.9120  -24.6110  -43.2200 H   0  0  0  0  0  0  0  0  0  0  0  0
    4.0840  -20.9910  -36.9290 H   0  0  0  0  0  0  0  0  0  0  0  0
    2.1860  -17.3920  -39.6450 H   0  0  0  0  0  0  0  0  0  0  0  0
    1.3470  -18.2000  -41.7710 H   0  0  0  0  0  0  0  0  0  0  0  0
    0.2460  -20.1960  -41.7650 H   0  0  0  0  0  0  0  0  0  0  0  0
   -1.1080  -19.1860  -41.2410 H   0  0  0  0  0  0  0  0  0  0  0  0
    0.6150  -21.0130  -39.5240 H   0  0  0  0  0  0  0  0  0  0  0  0
   -1.1380  -20.8310  -39.6960 H   0  0  0  0  0  0  0  0  0  0  0  0
   -1.9700  -20.1610  -37.6010 H   0  0  0  0  0  0  0  0  0  0  0  0
   -0.8380  -17.7850  -33.9300 H   0  0  0  0  0  0  0  0  0  0  0  0
   -2.2220  -16.5710  -34.1230 H   0  0  0  0  0  0  0  0  0  0  0  0
    1.6200  -14.4130  -38.4050 H   0  0  0  0  0  0  0  0  0  0  0  0
    0.3000  -14.6740  -37.1660 H   0  0  0  0  0  0  0  0  0  0  0  0
    2.0090  -14.4970  -36.6760 H   0  0  0  0  0  0  0  0  0  0  0  0
    0.5790  -16.2750  -40.8010 H   0  0  0  0  0  0  0  0  0  0  0  0
   -0.6910  -17.3130  -39.9360 H   0  0  0  0  0  0  0  0  0  0  0  0
   -0.6950  -17.1870  -41.7030 H   0  0  0  0  0  0  0  0  0  0  0  0
  1  2  1  0  0  0  0
  2  7  2  0  0  0  0
  2  3  1  0  0  0  0
  3  4  2  0  0  0  0
  4 34  1  0  0  0  0
  4  5  1  0  0  0  0
  5  8  1  0  0  0  0
  6 35  1  0  0  0  0
  6  5  2  0  0  0  0
  7  6  1  0  0  0  0
  8 14  1  0  0  0  0
  9  8  1  0  0  0  0
 10  9  1  1  0  0  0
 10 11  1  0  0  0  0
 11 13  1  0  0  0  0
 11 12  2  0  0  0  0
 13 37  1  0  0  0  0
 14 15  2  0  0  0  0
 14 13  1  0  0  0  0
 16 38  1  1  0  0  0
 16 10  1  0  0  0  0
 16 21  1  0  0  0  0
 17 31  1  0  0  0  0
 17 16  1  0  0  0  0
 18 17  1  0  0  0  0
 18 19  1  0  0  0  0
 19 42  1  0  0  0  0
 19 20  1  0  0  0  0
 20 25  1  0  0  0  0
 21 20  2  0  0  0  0
 21 22  1  0  0  0  0
 22 23  2  0  0  0  0
 23 24  1  0  0  0  0
 23 28  1  0  0  0  0
 24 26  1  0  0  0  0
 25 24  2  0  0  0  0
 26 27  1  0  0  0  0
 27 46  1  0  0  0  0
 27 45  1  0  0  0  0
 28 27  1  0  0  0  0
 29 22  1  0  0  0  0
 29 30  1  0  0  0  0
 30 48  1  0  0  0  0
 30 49  1  0  0  0  0
 31 50  1  0  0  0  0
 31 51  1  0  0  0  0
 32  9  2  0  0  0  0
 33  3  1  0  0  0  0
 36  7  1  0  0  0  0
 39 17  1  0  0  0  0
 40 18  1  0  0  0  0
 41 18  1  0  0  0  0
 43 19  1  0  0  0  0
 44 25  1  0  0  0  0
 47 30  1  0  0  0  0
 52 31  1  0  0  0  0
M  END
>  <Pose>
1

>  <Score>
-4.19

$$$$
