
 OpenBabel03232221553D

 44 47  0  0  1  0  0  0  0  0999 V2000
    4.2580  -10.1900  -37.8030 I   0  0  0  0  0  0  0  0  0  0  0  0
    3.0120  -11.8960  -37.8330 C   0  0  0  0  0  0  0  0  0  0  0  0
    2.2860  -12.2940  -36.7300 C   0  0  0  0  0  0  0  0  0  0  0  0
    1.4800  -13.4140  -36.7780 C   0  0  0  0  0  0  0  0  0  0  0  0
    1.3690  -14.1770  -37.9210 C   0  0  0  0  0  0  0  0  0  0  0  0
    2.1010  -13.7640  -39.0090 C   0  0  0  0  0  0  0  0  0  0  0  0
    2.9130  -12.6470  -38.9840 C   0  0  0  0  0  0  0  0  0  0  0  0
    0.5140  -15.3360  -37.9220 N   0  0  0  0  0  0  0  0  0  0  0  0
    0.8020  -16.6390  -37.4430 C   0  0  0  0  0  0  0  0  0  0  0  0
    1.7000  -16.8900  -36.5990 O   0  0  0  0  0  0  0  0  0  0  0  0
   -0.1130  -17.6220  -38.0880 C   0  0  1  0  0  0  0  0  0  0  0  0
   -1.3400  -16.7650  -38.3500 C   0  0  0  0  0  0  0  0  0  0  0  0
   -0.8210  -15.3850  -38.4200 C   0  0  0  0  0  0  0  0  0  0  0  0
   -1.4410  -14.3700  -38.8520 O   0  0  0  0  0  0  0  0  0  0  0  0
    0.5030  -18.1010  -39.2550 N   0  0  0  0  0  0  0  0  0  0  0  0
    1.6450  -17.4920  -39.7750 C   0  0  0  0  0  0  0  0  0  0  0  0
    2.4050  -18.5740  -40.5870 C   0  0  0  0  0  0  0  0  0  0  0  0
    2.5220  -19.7600  -39.7530 N   0  0  0  0  0  0  0  0  0  0  0  0
    1.2870  -20.3660  -39.3210 C   0  0  0  0  0  0  0  0  0  0  0  0
    0.1610  -19.3990  -39.6770 C   0  0  0  0  0  0  0  0  0  0  0  0
    3.7820  -20.2760  -39.3880 C   0  0  0  0  0  0  0  0  0  0  0  0
    4.8690  -19.4610  -39.3060 N   0  0  0  0  0  0  0  0  0  0  0  0
    6.0810  -19.8870  -38.9570 C   0  0  0  0  0  0  0  0  0  0  0  0
    6.2900  -21.2260  -38.6540 C   0  0  0  0  0  0  0  0  0  0  0  0
    5.1810  -22.0500  -38.7400 C   0  0  0  0  0  0  0  0  0  0  0  0
    3.9780  -21.5780  -39.0950 N   0  0  0  0  0  0  0  0  0  0  0  0
    2.3600  -11.7110  -35.8330 H   0  0  0  0  0  0  0  0  0  0  0  0
    0.9040  -13.7330  -35.9050 H   0  0  0  0  0  0  0  0  0  0  0  0
    2.0300  -14.3480  -39.9170 H   0  0  0  0  0  0  0  0  0  0  0  0
    3.4870  -12.3340  -39.8590 H   0  0  0  0  0  0  0  0  0  0  0  0
   -0.4220  -18.4020  -37.3710 H   0  0  0  0  0  0  0  0  0  0  0  0
   -1.8370  -17.0040  -39.3070 H   0  0  0  0  0  0  0  0  0  0  0  0
   -2.0430  -16.8200  -37.4930 H   0  0  0  0  0  0  0  0  0  0  0  0
    1.5300  -16.6170  -40.4170 H   0  0  0  0  0  0  0  0  0  0  0  0
    2.3640  -17.2930  -38.9250 H   0  0  0  0  0  0  0  0  0  0  0  0
    3.4250  -18.2330  -40.8470 H   0  0  0  0  0  0  0  0  0  0  0  0
    1.8780  -18.7800  -41.5440 H   0  0  0  0  0  0  0  0  0  0  0  0
    1.0570  -21.2950  -39.8930 H   0  0  0  0  0  0  0  0  0  0  0  0
    1.2520  -20.5790  -38.2390 H   0  0  0  0  0  0  0  0  0  0  0  0
   -0.8020  -19.7440  -39.2320 H   0  0  0  0  0  0  0  0  0  0  0  0
   -0.0070  -19.4820  -40.7870 H   0  0  0  0  0  0  0  0  0  0  0  0
    6.9270  -19.2190  -38.8990 H   0  0  0  0  0  0  0  0  0  0  0  0
    7.2720  -21.5760  -38.3720 H   0  0  0  0  0  0  0  0  0  0  0  0
    5.3450  -23.1000  -38.5040 H   0  0  0  0  0  0  0  0  0  0  0  0
  2  1  1  0  0  0  0
  2  3  1  0  0  0  0
  3 27  1  0  0  0  0
  4  3  2  0  0  0  0
  4 28  1  0  0  0  0
  5  4  1  0  0  0  0
  6  7  1  0  0  0  0
  6  5  2  0  0  0  0
  7  2  2  0  0  0  0
  8  5  1  0  0  0  0
  8  9  1  0  0  0  0
  9 10  2  0  0  0  0
 11  9  1  0  0  0  0
 11 31  1  1  0  0  0
 12 11  1  0  0  0  0
 12 33  1  0  0  0  0
 13 12  1  0  0  0  0
 13  8  1  0  0  0  0
 14 13  2  0  0  0  0
 15 11  1  0  0  0  0
 16 15  1  0  0  0  0
 16 35  1  0  0  0  0
 17 16  1  0  0  0  0
 17 18  1  0  0  0  0
 18 21  1  0  0  0  0
 18 19  1  0  0  0  0
 19 39  1  0  0  0  0
 20 19  1  0  0  0  0
 20 15  1  0  0  0  0
 20 40  1  0  0  0  0
 21 22  2  0  0  0  0
 21 26  1  0  0  0  0
 22 23  1  0  0  0  0
 23 42  1  0  0  0  0
 23 24  2  0  0  0  0
 24 43  1  0  0  0  0
 25 24  1  0  0  0  0
 25 44  1  0  0  0  0
 26 25  2  0  0  0  0
 29  6  1  0  0  0  0
 30  7  1  0  0  0  0
 32 12  1  0  0  0  0
 34 16  1  0  0  0  0
 36 17  1  0  0  0  0
 37 17  1  0  0  0  0
 38 19  1  0  0  0  0
 41 20  1  0  0  0  0
M  END
>  <Pose>
1

>  <Score>
-4.32

$$$$
