
 OpenBabel03232221553D

 35 39  0  0  0  0  0  0  0  0999 V2000
   10.8710  -21.1760  -44.5030 I   0  0  0  0  0  0  0  0  0  0  0  0
    9.2270  -19.9210  -44.0400 C   0  0  0  0  0  0  0  0  0  0  0  0
    8.0100  -20.5680  -43.7650 C   0  0  0  0  0  0  0  0  0  0  0  0
    6.9410  -19.7860  -43.4650 C   0  0  0  0  0  0  0  0  0  0  0  0
    7.0960  -18.3880  -43.4430 C   0  0  0  0  0  0  0  0  0  0  0  0
    8.2840  -17.7590  -43.7110 C   0  0  0  0  0  0  0  0  0  0  0  0
    9.3680  -18.5530  -44.0140 C   0  0  0  0  0  0  0  0  0  0  0  0
   10.5860  -17.9490  -44.2910 O   0  0  0  0  0  0  0  0  0  0  0  0
    8.4480  -15.6460  -43.6590 I   0  0  0  0  0  0  0  0  0  0  0  0
    5.6270  -20.3670  -43.1630 C   0  0  0  0  0  0  0  0  0  0  0  0
    4.6070  -19.8050  -43.9670 O   0  0  0  0  0  0  0  0  0  0  0  0
    3.6430  -19.1760  -43.2260 C   0  0  0  0  0  0  0  0  0  0  0  0
    2.6060  -18.5780  -43.6200 O   0  0  0  0  0  0  0  0  0  0  0  0
    4.0220  -19.3120  -41.8260 C   0  0  0  0  0  0  0  0  0  0  0  0
    5.1860  -20.0090  -41.7790 C   0  0  0  0  0  0  0  0  0  0  0  0
    5.7540  -20.2680  -40.5260 C   0  0  0  0  0  0  0  0  0  0  0  0
    5.1370  -19.8220  -39.3800 C   0  0  0  0  0  0  0  0  0  0  0  0
    3.9560  -19.1130  -39.4260 C   0  0  0  0  0  0  0  0  0  0  0  0
    3.3890  -18.8530  -40.6500 C   0  0  0  0  0  0  0  0  0  0  0  0
    5.6130  -21.8380  -43.2240 C   0  0  0  0  0  0  0  0  0  0  0  0
    6.7140  -22.5620  -43.5280 C   0  0  0  0  0  0  0  0  0  0  0  0
    6.6270  -23.9500  -43.5680 C   0  0  0  0  0  0  0  0  0  0  0  0
    5.4460  -24.5830  -43.3020 C   0  0  0  0  0  0  0  0  0  0  0  0
    4.3070  -23.8790  -42.9870 C   0  0  0  0  0  0  0  0  0  0  0  0
    4.4170  -22.5160  -42.9560 C   0  0  0  0  0  0  0  0  0  0  0  0
    2.4820  -24.8640  -42.5760 I   0  0  0  0  0  0  0  0  0  0  0  0
    5.3870  -25.9700  -43.3480 O   0  0  0  0  0  0  0  0  0  0  0  0
    8.3620  -25.0800  -44.0480 I   0  0  0  0  0  0  0  0  0  0  0  0
    7.9520  -21.9630  -43.8120 O   0  0  0  0  0  0  0  0  0  0  0  0
    6.2170  -17.7740  -43.1980 H   0  0  0  0  0  0  0  0  0  0  0  0
    6.6740  -20.8230  -40.5350 H   0  0  0  0  0  0  0  0  0  0  0  0
    5.6060  -20.0420  -38.4410 H   0  0  0  0  0  0  0  0  0  0  0  0
    3.4500  -18.7500  -38.5220 H   0  0  0  0  0  0  0  0  0  0  0  0
    2.4580  -18.2990  -40.7440 H   0  0  0  0  0  0  0  0  0  0  0  0
    3.5380  -21.9370  -42.7110 H   0  0  0  0  0  0  0  0  0  0  0  0
  1  2  1  0  0  0  0
  2  7  2  0  0  0  0
  2  3  1  0  0  0  0
  3  4  2  0  0  0  0
  4  5  1  0  0  0  0
  4 10  1  0  0  0  0
  5 30  1  0  0  0  0
  6  9  1  0  0  0  0
  6  5  2  0  0  0  0
  7  6  1  0  0  0  0
  8  7  1  0  0  0  0
 10 15  1  0  0  0  0
 11 12  1  0  0  0  0
 11 10  1  0  0  0  0
 12 14  1  0  0  0  0
 13 12  2  0  0  0  0
 14 15  2  0  0  0  0
 14 19  1  0  0  0  0
 15 16  1  0  0  0  0
 16 17  2  0  0  0  0
 17 32  1  0  0  0  0
 18 17  1  0  0  0  0
 18 33  1  0  0  0  0
 19 18  2  0  0  0  0
 20 10  1  0  0  0  0
 20 25  1  0  0  0  0
 21 20  2  0  0  0  0
 22 21  1  0  0  0  0
 22 23  2  0  0  0  0
 23 24  1  0  0  0  0
 24 25  2  0  0  0  0
 24 26  1  0  0  0  0
 25 35  1  0  0  0  0
 27 23  1  0  0  0  0
 28 22  1  0  0  0  0
 29  3  1  0  0  0  0
 29 21  1  0  0  0  0
 31 16  1  0  0  0  0
 34 19  1  0  0  0  0
M  END
>  <Pose>
1

>  <Score>
-4.11

$$$$
