
 OpenBabel03232221553D

 34 37  0  0  1  0  0  0  0  0999 V2000
    0.3410  -14.2280  -36.7540 P   0  0  1  0  0  0  0  0  0  0  0  0
    1.4550  -14.0180  -35.7530 O   0  0  0  0  0  0  0  0  0  0  0  0
    0.9460  -14.8610  -38.2190 O   0  0  0  0  0  0  0  0  0  0  0  0
    0.4910  -16.1750  -38.2950 C   0  0  2  0  0  0  0  0  0  0  0  0
    0.6050  -16.7400  -36.8740 C   0  0  2  0  0  0  0  0  0  0  0  0
    0.9130  -18.0550  -37.1220 O   0  0  0  0  0  0  0  0  0  0  0  0
    2.0200  -17.9250  -37.9590 C   0  0  2  0  0  0  0  0  0  0  0  0
    1.4340  -17.0650  -39.0770 C   0  0  2  0  0  0  0  0  0  0  0  0
    2.3930  -16.3680  -39.7680 O   0  0  0  0  0  0  0  0  0  0  0  0
    2.4820  -19.2000  -38.4510 N   0  0  0  0  0  0  0  0  0  0  0  0
    3.7700  -19.5600  -38.4680 C   0  0  0  0  0  0  0  0  0  0  0  0
    4.9000  -18.9110  -38.0730 N   0  0  0  0  0  0  0  0  0  0  0  0
    6.1160  -19.4400  -38.1680 C   0  0  0  0  0  0  0  0  0  0  0  0
    6.2390  -20.6770  -38.6820 N   0  0  0  0  0  0  0  0  0  0  0  0
    5.1610  -21.3770  -39.0930 C   0  0  0  0  0  0  0  0  0  0  0  0
    3.8990  -20.8300  -38.9940 C   0  0  0  0  0  0  0  0  0  0  0  0
    2.6550  -21.2310  -39.2960 N   0  0  0  0  0  0  0  0  0  0  0  0
    1.7970  -20.2370  -38.9650 C   0  0  0  0  0  0  0  0  0  0  0  0
   -0.1060  -20.2720  -39.1820 B   0  0  0  0  0  0  0  0  0  0  0  0
    5.2840  -22.6570  -39.6240 O   0  0  0  0  0  0  0  0  0  0  0  0
    7.2690  -18.7200  -37.7410 N   0  0  0  0  0  0  0  0  0  0  0  0
   -0.6830  -16.5060  -36.1780 C   0  0  0  0  0  0  0  0  0  0  0  0
   -0.9250  -15.1290  -36.1510 O   0  0  0  0  0  0  0  0  0  0  0  0
   -0.2500  -12.6680  -37.1360 O   0  0  0  0  0  0  0  0  0  0  0  0
   -0.5480  -16.2290  -38.6620 H   0  0  0  0  0  0  0  0  0  0  0  0
    1.4570  -16.2810  -36.3400 H   0  0  0  0  0  0  0  0  0  0  0  0
    2.8300  -17.3140  -37.5010 H   0  0  0  0  0  0  0  0  0  0  0  0
    0.8420  -17.7490  -39.7510 H   0  0  0  0  0  0  0  0  0  0  0  0
    2.8970  -15.7610  -39.1370 H   0  0  0  0  0  0  0  0  0  0  0  0
    5.2510  -23.4310  -38.9430 H   0  0  0  0  0  0  0  0  0  0  0  0
    7.1880  -18.2030  -36.8390 H   0  0  0  0  0  0  0  0  0  0  0  0
    8.1610  -18.7020  -38.2970 H   0  0  0  0  0  0  0  0  0  0  0  0
   -1.5110  -16.9430  -36.7930 H   0  0  0  0  0  0  0  0  0  0  0  0
   -0.6760  -16.9510  -35.1660 H   0  0  0  0  0  0  0  0  0  0  0  0
  1 24  2  6  0  0  0
  1 23  1  0  0  0  0
  1  2  1  0  0  0  0
  3  1  1  0  0  0  0
  4 25  1  6  0  0  0
  4  3  1  0  0  0  0
  4  5  1  0  0  0  0
  5 26  1  1  0  0  0
  5 22  1  0  0  0  0
  6  5  1  0  0  0  0
  7 27  1  1  0  0  0
  7  6  1  0  0  0  0
  8 28  1  6  0  0  0
  8  4  1  0  0  0  0
  8  7  1  0  0  0  0
  9 29  1  0  0  0  0
  9  8  1  0  0  0  0
 10  7  1  0  0  0  0
 11 10  1  0  0  0  0
 11 12  1  0  0  0  0
 13 12  2  0  0  0  0
 13 21  1  0  0  0  0
 14 13  1  0  0  0  0
 15 16  1  0  0  0  0
 15 14  2  0  0  0  0
 16 11  2  0  0  0  0
 17 16  1  0  0  0  0
 17 18  2  0  0  0  0
 18 10  1  0  0  0  0
 19 18  1  0  0  0  0
 20 15  1  0  0  0  0
 20 30  1  0  0  0  0
 21 31  1  0  0  0  0
 22 23  1  0  0  0  0
 22 34  1  0  0  0  0
 32 21  1  0  0  0  0
 33 22  1  0  0  0  0
M  END
>  <Pose>
1

>  <Score>
-5.70

$$$$
