
 OpenBabel03232221553D

 46 51  0  0  1  0  0  0  0  0999 V2000
    4.4320  -19.8780  -38.7730 P   0  0  2  0  0  0  0  0  0  0  0  0
    3.3550  -19.4660  -37.4740 S   0  0  0  0  0  0  0  0  0  0  0  0
    3.5550  -20.7890  -39.9090 O   0  0  0  0  0  0  0  0  0  0  0  0
    4.3400  -21.8950  -40.2210 C   0  0  2  0  0  0  0  0  0  0  0  0
    5.7660  -21.3650  -40.3930 C   0  0  2  0  0  0  0  0  0  0  0  0
    6.3120  -22.1830  -41.3430 O   0  0  0  0  0  0  0  0  0  0  0  0
    5.3180  -22.4960  -42.2680 C   0  0  2  0  0  0  0  0  0  0  0  0
    4.0110  -22.4960  -41.5540 C   0  0  2  0  0  0  0  0  0  0  0  0
    3.0650  -21.7120  -42.2270 O   0  0  0  0  0  0  0  0  0  0  0  0
    5.6040  -23.7640  -42.9350 N   0  0  0  0  0  0  0  0  0  0  0  0
    6.7900  -24.1930  -43.4330 C   0  0  0  0  0  0  0  0  0  0  0  0
    6.6580  -25.4480  -43.9900 C   0  0  0  0  0  0  0  0  0  0  0  0
    5.3600  -25.7740  -43.8190 N   0  0  0  0  0  0  0  0  0  0  0  0
    4.7360  -24.7600  -43.1850 C   0  0  0  0  0  0  0  0  0  0  0  0
    2.8930  -24.6720  -42.6830 B   0  0  0  0  0  0  0  0  0  0  0  0
    7.7590  -26.0620  -44.5530 C   0  0  0  0  0  0  0  0  0  0  0  0
    7.6500  -27.1990  -45.0610 O   0  0  0  0  0  0  0  0  0  0  0  0
    8.9760  -25.4730  -44.5810 N   0  0  0  0  0  0  0  0  0  0  0  0
    9.0830  -24.2490  -44.0330 C   0  0  0  0  0  0  0  0  0  0  0  0
   10.3700  -23.8910  -44.1860 N   0  0  0  0  0  0  0  0  0  0  0  0
   11.0820  -24.8450  -44.8130 C   0  0  0  0  0  0  0  0  0  0  0  0
   10.1870  -25.8630  -45.0670 C   0  0  0  0  0  0  0  0  0  0  0  0
   12.5100  -24.8160  -45.1560 C   0  0  0  0  0  0  0  0  0  0  0  0
   13.4600  -25.0890  -44.1980 C   0  0  0  0  0  0  0  0  0  0  0  0
   14.8180  -25.0690  -44.4920 C   0  0  0  0  0  0  0  0  0  0  0  0
   15.2130  -24.7690  -45.7750 C   0  0  0  0  0  0  0  0  0  0  0  0
   14.2880  -24.4880  -46.7690 C   0  0  0  0  0  0  0  0  0  0  0  0
   12.9560  -24.5220  -46.4210 C   0  0  0  0  0  0  0  0  0  0  0  0
    8.0080  -23.6270  -43.4720 N   0  0  0  0  0  0  0  0  0  0  0  0
    6.4230  -21.4720  -39.0380 C   0  0  0  0  0  0  0  0  0  0  0  0
    5.6930  -20.7790  -38.1000 O   0  0  0  0  0  0  0  0  0  0  0  0
    5.1070  -18.4970  -39.4740 O   0  0  0  0  0  0  0  0  0  0  0  0
    4.2710  -22.6400  -39.4170 H   0  0  0  0  0  0  0  0  0  0  0  0
    5.7790  -20.3320  -40.7580 H   0  0  0  0  0  0  0  0  0  0  0  0
    5.3790  -21.6850  -43.0530 H   0  0  0  0  0  0  0  0  0  0  0  0
    3.6370  -23.5120  -41.4190 H   0  0  0  0  0  0  0  0  0  0  0  0
    2.8190  -22.0930  -43.0940 H   0  0  0  0  0  0  0  0  0  0  0  0
   10.3900  -26.8100  -45.5630 H   0  0  0  0  0  0  0  0  0  0  0  0
   13.1500  -25.3240  -43.1920 H   0  0  0  0  0  0  0  0  0  0  0  0
   15.5700  -25.2830  -43.7400 H   0  0  0  0  0  0  0  0  0  0  0  0
   16.2620  -24.7480  -46.0300 H   0  0  0  0  0  0  0  0  0  0  0  0
   14.6260  -24.2540  -47.7770 H   0  0  0  0  0  0  0  0  0  0  0  0
   12.2250  -24.3070  -47.1810 H   0  0  0  0  0  0  0  0  0  0  0  0
    8.0950  -22.6760  -43.0470 H   0  0  0  0  0  0  0  0  0  0  0  0
    7.4980  -21.2040  -39.0590 H   0  0  0  0  0  0  0  0  0  0  0  0
    6.3960  -22.5620  -38.7480 H   0  0  0  0  0  0  0  0  0  0  0  0
  1 32  2  6  0  0  0
  1 31  1  0  0  0  0
  1  2  1  0  0  0  0
  3  1  1  0  0  0  0
  4  3  1  0  0  0  0
  4 33  1  1  0  0  0
  5 34  1  6  0  0  0
  5  4  1  0  0  0  0
  5 30  1  0  0  0  0
  6  5  1  0  0  0  0
  7 35  1  6  0  0  0
  7  8  1  0  0  0  0
  7  6  1  0  0  0  0
  8 36  1  1  0  0  0
  8  4  1  0  0  0  0
  9  8  1  0  0  0  0
 10  7  1  0  0  0  0
 11 10  1  0  0  0  0
 12 13  1  0  0  0  0
 12 11  2  0  0  0  0
 13 14  2  0  0  0  0
 14 10  1  0  0  0  0
 14 15  1  0  0  0  0
 16 12  1  0  0  0  0
 17 16  2  0  0  0  0
 18 16  1  0  0  0  0
 18 19  1  0  0  0  0
 19 29  1  0  0  0  0
 20 19  2  0  0  0  0
 21 20  1  0  0  0  0
 22 21  2  0  0  0  0
 22 18  1  0  0  0  0
 23 21  1  0  0  0  0
 23 24  1  0  0  0  0
 24 39  1  0  0  0  0
 25 24  2  0  0  0  0
 25 40  1  0  0  0  0
 26 25  1  0  0  0  0
 27 28  1  0  0  0  0
 27 26  2  0  0  0  0
 28 23  2  0  0  0  0
 29 11  1  0  0  0  0
 29 44  1  0  0  0  0
 30 46  1  0  0  0  0
 30 31  1  0  0  0  0
 37  9  1  0  0  0  0
 38 22  1  0  0  0  0
 41 26  1  0  0  0  0
 42 27  1  0  0  0  0
 43 28  1  0  0  0  0
 45 30  1  0  0  0  0
M  END
>  <Pose>
1

>  <Score>
-4.98

$$$$
