
 OpenBabel03232221553D

 52 55  0  0  1  0  0  0  0  0999 V2000
   12.3550  -23.7950  -46.3930 S   0  0  0  0  0  0  0  0  0  0  0  0
   12.5380  -25.4350  -45.6950 C   0  0  1  0  0  0  0  0  0  0  0  0
   12.9420  -25.3000  -44.3320 N   0  0  0  0  0  0  0  0  0  0  0  0
   13.5230  -24.1770  -43.6630 C   0  0  0  0  0  0  0  0  0  0  0  0
   14.0010  -23.1920  -44.3570 C   0  0  0  0  0  0  0  0  0  0  0  0
   13.9880  -23.1390  -45.8910 C   0  0  0  0  0  0  0  0  0  0  0  0
   14.6070  -21.9980  -43.8270 C   0  0  0  0  0  0  0  0  0  0  0  0
   14.0060  -20.7840  -43.8430 O   0  0  0  0  0  0  0  0  0  0  0  0
   14.1340  -19.8470  -42.8110 C   0  0  0  0  0  0  0  0  0  0  0  0
   15.2880  -19.5700  -42.4360 O   0  0  0  0  0  0  0  0  0  0  0  0
   12.8940  -19.2620  -42.2480 C   0  0  0  0  0  0  0  0  0  0  0  0
   13.5350  -24.2440  -42.1730 C   0  0  0  0  0  0  0  0  0  0  0  0
   14.4280  -23.8820  -41.4380 O   0  0  0  0  0  0  0  0  0  0  0  0
   12.4100  -24.7770  -41.5160 O   0  0  0  0  0  0  0  0  0  0  0  0
   12.4640  -26.6280  -44.2050 C   0  0  0  0  0  0  0  0  0  0  0  0
   12.6620  -27.7210  -43.6610 O   0  0  0  0  0  0  0  0  0  0  0  0
   11.3830  -26.1810  -45.1750 C   0  0  1  0  0  0  0  0  0  0  0  0
   10.3960  -25.4770  -44.4210 N   0  0  0  0  0  0  0  0  0  0  0  0
    9.2530  -24.9640  -45.0830 C   0  0  0  0  0  0  0  0  0  0  0  0
    9.1290  -25.1830  -46.3170 O   0  0  0  0  0  0  0  0  0  0  0  0
    8.2230  -24.1960  -44.3770 C   0  0  0  0  0  0  0  0  0  0  0  0
    6.9760  -24.4840  -44.1700 O   0  0  0  0  0  0  0  0  0  0  0  0
    6.3600  -23.5640  -43.5020 C   0  0  0  0  0  0  0  0  0  0  0  0
    7.2890  -22.5520  -43.2340 C   0  0  0  0  0  0  0  0  0  0  0  0
    8.4640  -22.9710  -43.7970 C   0  0  0  0  0  0  0  0  0  0  0  0
    4.9160  -23.5320  -43.0670 C   0  0  0  0  0  0  0  0  0  0  0  0
    4.5480  -22.2420  -42.6490 O   0  0  0  0  0  0  0  0  0  0  0  0
    4.9640  -21.6170  -41.5090 C   0  0  0  0  0  0  0  0  0  0  0  0
    4.7010  -22.0700  -40.2190 C   0  0  0  0  0  0  0  0  0  0  0  0
    5.1710  -21.3600  -39.1370 C   0  0  0  0  0  0  0  0  0  0  0  0
    5.9020  -20.2010  -39.2520 C   0  0  0  0  0  0  0  0  0  0  0  0
    6.1680  -19.7420  -40.5320 C   0  0  0  0  0  0  0  0  0  0  0  0
    5.6970  -20.4540  -41.6270 C   0  0  0  0  0  0  0  0  0  0  0  0
    6.5280  -19.2590  -37.7160 B   0  0  0  0  0  0  0  0  0  0  0  0
   13.2160  -26.1100  -46.2610 H   0  0  0  0  0  0  0  0  0  0  0  0
   14.1330  -22.1340  -46.2710 H   0  0  0  0  0  0  0  0  0  0  0  0
   14.7900  -23.8260  -46.2110 H   0  0  0  0  0  0  0  0  0  0  0  0
   14.8960  -22.1980  -42.7100 H   0  0  0  0  0  0  0  0  0  0  0  0
   15.6660  -21.8810  -44.3010 H   0  0  0  0  0  0  0  0  0  0  0  0
   12.0360  -19.9410  -42.4340 H   0  0  0  0  0  0  0  0  0  0  0  0
   12.6570  -18.2800  -42.7560 H   0  0  0  0  0  0  0  0  0  0  0  0
   12.9680  -19.0570  -41.1690 H   0  0  0  0  0  0  0  0  0  0  0  0
   10.9780  -27.0070  -45.7840 H   0  0  0  0  0  0  0  0  0  0  0  0
   10.4610  -25.3090  -43.3860 H   0  0  0  0  0  0  0  0  0  0  0  0
    7.0550  -21.6450  -42.6840 H   0  0  0  0  0  0  0  0  0  0  0  0
    9.3930  -22.4160  -43.7710 H   0  0  0  0  0  0  0  0  0  0  0  0
    4.7330  -24.3020  -42.2870 H   0  0  0  0  0  0  0  0  0  0  0  0
    4.2700  -23.8010  -43.9290 H   0  0  0  0  0  0  0  0  0  0  0  0
    4.1320  -22.9670  -40.0960 H   0  0  0  0  0  0  0  0  0  0  0  0
    4.9530  -21.7330  -38.1530 H   0  0  0  0  0  0  0  0  0  0  0  0
    6.7420  -18.8320  -40.6290 H   0  0  0  0  0  0  0  0  0  0  0  0
    5.9540  -20.0210  -42.5990 H   0  0  0  0  0  0  0  0  0  0  0  0
  1  6  1  0  0  0  0
  1  2  1  0  0  0  0
  2 35  1  6  0  0  0
  2 17  1  0  0  0  0
  2  3  1  0  0  0  0
  3 15  1  0  0  0  0
  3  4  1  0  0  0  0
  4 12  1  0  0  0  0
  5  7  1  0  0  0  0
  5  4  2  0  0  0  0
  6  5  1  0  0  0  0
  7 38  1  0  0  0  0
  8  7  1  0  0  0  0
  8  9  1  0  0  0  0
  9 10  2  0  0  0  0
  9 11  1  0  0  0  0
 11 42  1  0  0  0  0
 12 14  2  0  0  0  0
 12 13  1  0  0  0  0
 15 16  2  0  0  0  0
 17 43  1  6  0  0  0
 17 18  1  0  0  0  0
 17 15  1  0  0  0  0
 18 44  1  0  0  0  0
 19 18  1  0  0  0  0
 19 21  1  0  0  0  0
 20 19  2  0  0  0  0
 21 22  1  0  0  0  0
 21 25  2  0  0  0  0
 22 23  1  0  0  0  0
 23 24  2  0  0  0  0
 23 26  1  0  0  0  0
 24 45  1  0  0  0  0
 25 46  1  0  0  0  0
 25 24  1  0  0  0  0
 26 27  1  0  0  0  0
 26 47  1  0  0  0  0
 27 28  1  0  0  0  0
 28 29  1  0  0  0  0
 29 49  1  0  0  0  0
 29 30  2  0  0  0  0
 30 50  1  0  0  0  0
 31 30  1  0  0  0  0
 31 34  1  0  0  0  0
 32 31  2  0  0  0  0
 33 28  2  0  0  0  0
 33 32  1  0  0  0  0
 36  6  1  0  0  0  0
 37  6  1  0  0  0  0
 39  7  1  0  0  0  0
 40 11  1  0  0  0  0
 41 11  1  0  0  0  0
 48 26  1  0  0  0  0
 51 32  1  0  0  0  0
 52 33  1  0  0  0  0
M  END
>  <Pose>
1

>  <Score>
-4.83

$$$$
