
 OpenBabel03232221553D

 33 36  0  0  1  0  0  0  0  0999 V2000
    3.1070  -24.8140  -44.9720 P   0  0  2  0  0  0  0  0  0  0  0  0
    3.4510  -25.0280  -46.4470 O   0  0  0  0  0  0  0  0  0  0  0  0
    3.1190  -23.1600  -44.6860 O   0  0  0  0  0  0  0  0  0  0  0  0
    3.8150  -22.8420  -43.5490 C   0  0  2  0  0  0  0  0  0  0  0  0
    3.5920  -23.9950  -42.5610 C   0  0  2  0  0  0  0  0  0  0  0  0
    3.7040  -23.4570  -41.3140 O   0  0  0  0  0  0  0  0  0  0  0  0
    3.4110  -22.1220  -41.3520 C   0  0  2  0  0  0  0  0  0  0  0  0
    3.2320  -21.6950  -42.7670 C   0  0  2  0  0  0  0  0  0  0  0  0
    1.9150  -21.4890  -43.1260 O   0  0  0  0  0  0  0  0  0  0  0  0
    4.4900  -21.4110  -40.6800 N   0  0  0  0  0  0  0  0  0  0  0  0
    4.3720  -20.6770  -39.5490 C   0  0  0  0  0  0  0  0  0  0  0  0
    3.3040  -20.4140  -38.7770 N   0  0  0  0  0  0  0  0  0  0  0  0
    3.4520  -19.6440  -37.6870 C   0  0  0  0  0  0  0  0  0  0  0  0
    4.6630  -19.1450  -37.3790 N   0  0  0  0  0  0  0  0  0  0  0  0
    5.7720  -19.3660  -38.1020 C   0  0  0  0  0  0  0  0  0  0  0  0
    5.6130  -20.1650  -39.2310 C   0  0  0  0  0  0  0  0  0  0  0  0
    6.4750  -20.5800  -40.1550 N   0  0  0  0  0  0  0  0  0  0  0  0
    5.7850  -21.3350  -41.0290 C   0  0  0  0  0  0  0  0  0  0  0  0
    6.4850  -22.2200  -42.5920 B   0  0  0  0  0  0  0  0  0  0  0  0
    7.0560  -18.8460  -37.7870 N   0  0  0  0  0  0  0  0  0  0  0  0
    4.6080  -25.0370  -42.9040 C   0  0  0  0  0  0  0  0  0  0  0  0
    4.2280  -25.6580  -44.0690 O   0  0  0  0  0  0  0  0  0  0  0  0
    1.5250  -25.4340  -44.7720 O   0  0  0  0  0  0  0  0  0  0  0  0
    4.8850  -22.6720  -43.6980 H   0  0  0  0  0  0  0  0  0  0  0  0
    2.5710  -24.4180  -42.6790 H   0  0  0  0  0  0  0  0  0  0  0  0
    2.4330  -21.9310  -40.8240 H   0  0  0  0  0  0  0  0  0  0  0  0
    3.7870  -20.7530  -42.9600 H   0  0  0  0  0  0  0  0  0  0  0  0
    1.3640  -22.2870  -43.0800 H   0  0  0  0  0  0  0  0  0  0  0  0
    2.5880  -19.4140  -37.0380 H   0  0  0  0  0  0  0  0  0  0  0  0
    7.7990  -18.8670  -38.5470 H   0  0  0  0  0  0  0  0  0  0  0  0
    7.3150  -18.4490  -36.8790 H   0  0  0  0  0  0  0  0  0  0  0  0
    5.5750  -24.4980  -43.1280 H   0  0  0  0  0  0  0  0  0  0  0  0
    4.8450  -25.7240  -42.0780 H   0  0  0  0  0  0  0  0  0  0  0  0
  1  2  2  6  0  0  0
  1 23  1  0  0  0  0
  1  3  1  0  0  0  0
  1 22  1  0  0  0  0
  3  4  1  0  0  0  0
  4 24  1  6  0  0  0
  4  8  1  0  0  0  0
  4  5  1  0  0  0  0
  5 25  1  6  0  0  0
  5  6  1  0  0  0  0
  7  6  1  0  0  0  0
  7 26  1  1  0  0  0
  7 10  1  0  0  0  0
  8 27  1  6  0  0  0
  8  7  1  0  0  0  0
  9 28  1  0  0  0  0
  9  8  1  0  0  0  0
 10 11  1  0  0  0  0
 11 16  2  0  0  0  0
 11 12  1  0  0  0  0
 12 13  2  0  0  0  0
 13 14  1  0  0  0  0
 13 29  1  0  0  0  0
 15 20  1  0  0  0  0
 15 14  2  0  0  0  0
 16 15  1  0  0  0  0
 17 16  1  0  0  0  0
 18 10  1  0  0  0  0
 18 17  2  0  0  0  0
 19 18  1  0  0  0  0
 20 31  1  0  0  0  0
 21  5  1  0  0  0  0
 21 33  1  0  0  0  0
 22 21  1  0  0  0  0
 30 20  1  0  0  0  0
 32 21  1  0  0  0  0
M  END
>  <Pose>
1

>  <Score>
-4.40

$$$$
