
 OpenBabel03232221553D

 54 57  0  0  0  0  0  0  0  0999 V2000
    5.7280  -20.7150  -39.0810 S   0  0  0  0  0  0  0  0  0  0  0  0
    6.0010  -19.7830  -37.9060 O   0  0  0  0  0  0  0  0  0  0  0  0
    6.1750  -22.0690  -38.6440 O   0  0  0  0  0  0  0  0  0  0  0  0
    6.6710  -20.1070  -40.3880 N   0  0  0  0  0  0  0  0  0  0  0  0
    5.9820  -19.0840  -41.1470 C   0  0  0  0  0  0  0  0  0  0  0  0
    6.5650  -19.1300  -42.5520 C   0  0  0  0  0  0  0  0  0  0  0  0
    7.6630  -18.1130  -42.7130 C   0  0  0  0  0  0  0  0  0  0  0  0
    8.6280  -18.6180  -43.6150 N   0  0  0  0  0  0  0  0  0  0  0  0
    9.1270  -17.7110  -44.5860 C   0  0  0  0  0  0  0  0  0  0  0  0
    9.7190  -18.5130  -45.7330 C   0  0  0  0  0  0  0  0  0  0  0  0
   10.4550  -19.5870  -45.2740 O   0  0  0  0  0  0  0  0  0  0  0  0
   10.8310  -19.4740  -43.9410 C   0  0  0  0  0  0  0  0  0  0  0  0
    9.5490  -19.5680  -43.1090 C   0  0  0  0  0  0  0  0  0  0  0  0
    4.0320  -20.6830  -39.4800 C   0  0  0  0  0  0  0  0  0  0  0  0
    3.5810  -21.3420  -40.6280 C   0  0  0  0  0  0  0  0  0  0  0  0
    2.2450  -21.3250  -40.9650 C   0  0  0  0  0  0  0  0  0  0  0  0
    1.2960  -20.6700  -40.2020 C   0  0  0  0  0  0  0  0  0  0  0  0
    1.7270  -20.0220  -39.0780 C   0  0  0  0  0  0  0  0  0  0  0  0
    3.0810  -20.0340  -38.7300 C   0  0  0  0  0  0  0  0  0  0  0  0
    3.6760  -19.1320  -37.1450 B   0  0  0  0  0  0  0  0  0  0  0  0
   -0.0460  -20.8510  -40.8230 C   0  0  0  0  0  0  0  0  0  0  0  0
    0.1890  -22.0870  -41.7170 C   0  0  0  0  0  0  0  0  0  0  0  0
    1.5840  -21.9260  -42.0940 N   0  0  0  0  0  0  0  0  0  0  0  0
    2.2380  -22.2570  -43.3030 C   0  0  0  0  0  0  0  0  0  0  0  0
    2.5600  -21.4010  -44.1590 O   0  0  0  0  0  0  0  0  0  0  0  0
    2.5550  -23.6800  -43.5730 C   0  0  0  0  0  0  0  0  0  0  0  0
    3.3210  -24.3580  -42.5120 C   0  0  0  0  0  0  0  0  0  0  0  0
    3.9520  -24.0940  -43.8570 C   0  0  0  0  0  0  0  0  0  0  0  0
    7.5640  -19.7440  -39.9990 H   0  0  0  0  0  0  0  0  0  0  0  0
    6.0460  -18.0840  -40.6990 H   0  0  0  0  0  0  0  0  0  0  0  0
    4.9180  -19.4440  -41.2510 H   0  0  0  0  0  0  0  0  0  0  0  0
    6.9600  -20.1430  -42.7960 H   0  0  0  0  0  0  0  0  0  0  0  0
    5.7330  -18.8280  -43.2330 H   0  0  0  0  0  0  0  0  0  0  0  0
    8.1770  -17.9200  -41.7320 H   0  0  0  0  0  0  0  0  0  0  0  0
    7.2530  -17.1520  -43.0500 H   0  0  0  0  0  0  0  0  0  0  0  0
    9.9480  -17.1200  -44.1390 H   0  0  0  0  0  0  0  0  0  0  0  0
    8.2990  -17.0720  -44.9330 H   0  0  0  0  0  0  0  0  0  0  0  0
    8.8960  -18.9000  -46.3740 H   0  0  0  0  0  0  0  0  0  0  0  0
   10.3110  -17.8340  -46.3830 H   0  0  0  0  0  0  0  0  0  0  0  0
   11.5250  -20.3040  -43.7130 H   0  0  0  0  0  0  0  0  0  0  0  0
   11.3640  -18.5230  -43.7220 H   0  0  0  0  0  0  0  0  0  0  0  0
    9.2040  -20.6050  -43.1160 H   0  0  0  0  0  0  0  0  0  0  0  0
    9.8700  -19.3310  -42.0660 H   0  0  0  0  0  0  0  0  0  0  0  0
    4.3200  -21.8650  -41.2430 H   0  0  0  0  0  0  0  0  0  0  0  0
    1.0480  -19.4830  -38.4240 H   0  0  0  0  0  0  0  0  0  0  0  0
   -0.3640  -20.0020  -41.4310 H   0  0  0  0  0  0  0  0  0  0  0  0
   -0.8300  -21.1050  -40.0990 H   0  0  0  0  0  0  0  0  0  0  0  0
    0.1360  -23.0060  -41.0980 H   0  0  0  0  0  0  0  0  0  0  0  0
   -0.5070  -22.0980  -42.5530 H   0  0  0  0  0  0  0  0  0  0  0  0
    1.7530  -24.2680  -44.0930 H   0  0  0  0  0  0  0  0  0  0  0  0
    3.8250  -23.7650  -41.7010 H   0  0  0  0  0  0  0  0  0  0  0  0
    3.0940  -25.3770  -42.2010 H   0  0  0  0  0  0  0  0  0  0  0  0
    4.7610  -23.3590  -43.9770 H   0  0  0  0  0  0  0  0  0  0  0  0
    4.0850  -25.0150  -44.4600 H   0  0  0  0  0  0  0  0  0  0  0  0
  1  3  2  0  0  0  0
  1  2  2  0  0  0  0
  4 29  1  0  0  0  0
  4  1  1  0  0  0  0
  5 30  1  0  0  0  0
  5  4  1  0  0  0  0
  6  5  1  0  0  0  0
  7  6  1  0  0  0  0
  7 34  1  0  0  0  0
  8 13  1  0  0  0  0
  8  7  1  0  0  0  0
  9 36  1  0  0  0  0
  9  8  1  0  0  0  0
 10 11  1  0  0  0  0
 10  9  1  0  0  0  0
 11 12  1  0  0  0  0
 12 41  1  0  0  0  0
 12 40  1  0  0  0  0
 12 13  1  0  0  0  0
 13 43  1  0  0  0  0
 14  1  1  0  0  0  0
 14 19  1  0  0  0  0
 15 14  2  0  0  0  0
 16 15  1  0  0  0  0
 16 17  2  0  0  0  0
 17 18  1  0  0  0  0
 18 19  2  0  0  0  0
 18 45  1  0  0  0  0
 19 20  1  0  0  0  0
 21 17  1  0  0  0  0
 21 47  1  0  0  0  0
 22 48  1  0  0  0  0
 22 21  1  0  0  0  0
 23 22  1  0  0  0  0
 23 16  1  0  0  0  0
 24 23  1  0  0  0  0
 25 24  2  0  0  0  0
 26 24  1  0  0  0  0
 26 27  1  0  0  0  0
 27 52  1  0  0  0  0
 27 51  1  0  0  0  0
 28 26  1  0  0  0  0
 28 27  1  0  0  0  0
 31  5  1  0  0  0  0
 32  6  1  0  0  0  0
 33  6  1  0  0  0  0
 35  7  1  0  0  0  0
 37  9  1  0  0  0  0
 38 10  1  0  0  0  0
 39 10  1  0  0  0  0
 42 13  1  0  0  0  0
 44 15  1  0  0  0  0
 46 21  1  0  0  0  0
 49 22  1  0  0  0  0
 50 26  1  0  0  0  0
 53 28  1  0  0  0  0
 54 28  1  0  0  0  0
M  END
>  <Pose>
1

>  <Score>
-4.68

$$$$
