
 OpenBabel03232221553D

 54 57  0  0  0  0  0  0  0  0999 V2000
    8.4810  -25.5710  -43.7430 S   0  0  0  0  0  0  0  0  0  0  0  0
    8.4010  -26.9220  -44.4550 O   0  0  0  0  0  0  0  0  0  0  0  0
    8.0950  -25.8830  -42.3160 O   0  0  0  0  0  0  0  0  0  0  0  0
    7.3480  -24.5590  -44.4510 N   0  0  0  0  0  0  0  0  0  0  0  0
    7.5800  -23.1940  -44.5960 C   0  0  0  0  0  0  0  0  0  0  0  0
    7.2130  -22.3570  -43.4320 C   0  0  0  0  0  0  0  0  0  0  0  0
    7.7920  -21.2650  -43.2120 O   0  0  0  0  0  0  0  0  0  0  0  0
    6.1790  -22.8610  -42.5930 N   0  0  0  0  0  0  0  0  0  0  0  0
    5.4230  -23.9470  -43.1020 C   0  0  0  0  0  0  0  0  0  0  0  0
    4.2410  -24.0970  -42.6830 O   0  0  0  0  0  0  0  0  0  0  0  0
    5.9770  -24.8920  -44.0940 C   0  0  0  0  0  0  0  0  0  0  0  0
    5.9330  -22.2690  -41.2960 C   0  0  0  0  0  0  0  0  0  0  0  0
    4.8100  -21.2910  -41.2600 C   0  0  0  0  0  0  0  0  0  0  0  0
    4.6010  -20.6030  -39.9870 C   0  0  0  0  0  0  0  0  0  0  0  0
    5.6280  -20.0290  -39.2910 C   0  0  0  0  0  0  0  0  0  0  0  0
    5.3660  -19.4040  -38.1040 C   0  0  0  0  0  0  0  0  0  0  0  0
    4.0800  -19.3320  -37.5790 C   0  0  0  0  0  0  0  0  0  0  0  0
    3.0690  -19.9130  -38.2950 C   0  0  0  0  0  0  0  0  0  0  0  0
    3.2980  -20.5490  -39.4900 C   0  0  0  0  0  0  0  0  0  0  0  0
   10.1490  -25.0740  -43.8280 C   0  0  0  0  0  0  0  0  0  0  0  0
   10.4830  -24.0140  -44.6800 C   0  0  0  0  0  0  0  0  0  0  0  0
   11.7700  -23.5710  -44.8850 C   0  0  0  0  0  0  0  0  0  0  0  0
   12.8180  -24.1810  -44.2310 C   0  0  0  0  0  0  0  0  0  0  0  0
   12.5100  -25.2210  -43.3890 C   0  0  0  0  0  0  0  0  0  0  0  0
   11.1940  -25.6680  -43.1830 C   0  0  0  0  0  0  0  0  0  0  0  0
   10.8790  -27.0630  -41.9050 B   0  0  0  0  0  0  0  0  0  0  0  0
   14.1050  -23.5400  -44.5970 C   0  0  0  0  0  0  0  0  0  0  0  0
   13.6310  -22.2080  -45.1790 C   0  0  0  0  0  0  0  0  0  0  0  0
   12.3060  -22.5270  -45.7010 N   0  0  0  0  0  0  0  0  0  0  0  0
   11.7120  -21.9040  -46.8120 C   0  0  0  0  0  0  0  0  0  0  0  0
   11.5870  -22.5760  -47.8950 O   0  0  0  0  0  0  0  0  0  0  0  0
   11.2010  -20.5130  -46.8570 C   0  0  0  0  0  0  0  0  0  0  0  0
    6.9220  -22.8360  -45.4780 H   0  0  0  0  0  0  0  0  0  0  0  0
    8.5850  -22.9710  -44.9580 H   0  0  0  0  0  0  0  0  0  0  0  0
    5.8590  -25.9150  -43.6990 H   0  0  0  0  0  0  0  0  0  0  0  0
    5.3750  -24.8150  -45.0170 H   0  0  0  0  0  0  0  0  0  0  0  0
    6.8760  -21.7960  -40.9140 H   0  0  0  0  0  0  0  0  0  0  0  0
    5.6890  -23.0700  -40.5530 H   0  0  0  0  0  0  0  0  0  0  0  0
    3.8790  -21.8590  -41.4920 H   0  0  0  0  0  0  0  0  0  0  0  0
    4.9370  -20.5810  -42.1090 H   0  0  0  0  0  0  0  0  0  0  0  0
    6.6210  -20.0690  -39.6680 H   0  0  0  0  0  0  0  0  0  0  0  0
    6.1530  -18.9320  -37.5120 H   0  0  0  0  0  0  0  0  0  0  0  0
    3.8810  -18.8320  -36.6330 H   0  0  0  0  0  0  0  0  0  0  0  0
    2.0460  -19.8810  -37.9210 H   0  0  0  0  0  0  0  0  0  0  0  0
    2.4580  -20.9900  -40.0090 H   0  0  0  0  0  0  0  0  0  0  0  0
    9.6410  -23.5380  -45.1880 H   0  0  0  0  0  0  0  0  0  0  0  0
   13.2930  -25.7430  -42.8440 H   0  0  0  0  0  0  0  0  0  0  0  0
   14.6680  -24.0880  -45.3610 H   0  0  0  0  0  0  0  0  0  0  0  0
   14.7510  -23.3550  -43.7090 H   0  0  0  0  0  0  0  0  0  0  0  0
   14.2940  -21.8940  -45.9970 H   0  0  0  0  0  0  0  0  0  0  0  0
   13.5210  -21.4720  -44.3740 H   0  0  0  0  0  0  0  0  0  0  0  0
   10.5530  -20.3650  -47.7690 H   0  0  0  0  0  0  0  0  0  0  0  0
   12.0070  -19.7620  -46.9800 H   0  0  0  0  0  0  0  0  0  0  0  0
   10.6160  -20.2690  -45.9400 H   0  0  0  0  0  0  0  0  0  0  0  0
  1  3  2  0  0  0  0
  2  1  2  0  0  0  0
  4 11  1  0  0  0  0
  4  1  1  0  0  0  0
  5  4  1  0  0  0  0
  5  6  1  0  0  0  0
  6  7  2  0  0  0  0
  6  8  1  0  0  0  0
  8 12  1  0  0  0  0
  9 10  2  0  0  0  0
  9  8  1  0  0  0  0
 11 35  1  0  0  0  0
 11  9  1  0  0  0  0
 12 13  1  0  0  0  0
 12 37  1  0  0  0  0
 12 38  1  0  0  0  0
 13 14  1  0  0  0  0
 14 19  2  0  0  0  0
 14 15  1  0  0  0  0
 15 16  2  0  0  0  0
 16 17  1  0  0  0  0
 16 42  1  0  0  0  0
 17 43  1  0  0  0  0
 18 44  1  0  0  0  0
 18 17  2  0  0  0  0
 19 18  1  0  0  0  0
 20  1  1  0  0  0  0
 20 25  1  0  0  0  0
 21 20  2  0  0  0  0
 22 21  1  0  0  0  0
 22 23  2  0  0  0  0
 23 24  1  0  0  0  0
 24 25  2  0  0  0  0
 24 47  1  0  0  0  0
 25 26  1  0  0  0  0
 27 23  1  0  0  0  0
 27 49  1  0  0  0  0
 28 27  1  0  0  0  0
 28 51  1  0  0  0  0
 29 28  1  0  0  0  0
 29 22  1  0  0  0  0
 30 29  1  0  0  0  0
 31 30  2  0  0  0  0
 32 30  1  0  0  0  0
 32 54  1  0  0  0  0
 33  5  1  0  0  0  0
 34  5  1  0  0  0  0
 36 11  1  0  0  0  0
 39 13  1  0  0  0  0
 40 13  1  0  0  0  0
 41 15  1  0  0  0  0
 45 19  1  0  0  0  0
 46 21  1  0  0  0  0
 48 27  1  0  0  0  0
 50 28  1  0  0  0  0
 52 32  1  0  0  0  0
 53 32  1  0  0  0  0
M  END
>  <Pose>
1

>  <Score>
-5.27

$$$$
