
 OpenBabel03232221553D

 41 44  0  0  0  0  0  0  0  0999 V2000
    1.9050  -17.8390  -37.2630 S   0  0  0  0  0  0  0  0  0  0  0  0
    2.5370  -17.9560  -35.9050 O   0  0  0  0  0  0  0  0  0  0  0  0
    0.5920  -18.5810  -37.1880 O   0  0  0  0  0  0  0  0  0  0  0  0
    2.9470  -18.5070  -38.4110 N   0  0  0  0  0  0  0  0  0  0  0  0
    4.1520  -19.1270  -37.9880 C   0  0  0  0  0  0  0  0  0  0  0  0
    3.6520  -20.4560  -38.4000 C   0  0  0  0  0  0  0  0  0  0  0  0
    2.5070  -19.7200  -39.0030 C   0  0  0  0  0  0  0  0  0  0  0  0
    4.4420  -21.1680  -39.3860 N   0  0  0  0  0  0  0  0  0  0  0  0
    5.7000  -21.5180  -39.3210 N   0  0  0  0  0  0  0  0  0  0  0  0
    6.0630  -22.1620  -40.4380 N   0  0  0  0  0  0  0  0  0  0  0  0
    5.0000  -22.2330  -41.2580 C   0  0  0  0  0  0  0  0  0  0  0  0
    3.9760  -21.5950  -40.5720 C   0  0  0  0  0  0  0  0  0  0  0  0
    4.9240  -22.8630  -42.6190 C   0  0  0  0  0  0  0  0  0  0  0  0
    3.5220  -23.0530  -42.9420 N   0  0  0  0  0  0  0  0  0  0  0  0
    2.6990  -22.1280  -43.6620 C   0  0  0  0  0  0  0  0  0  0  0  0
    1.3620  -22.7950  -43.8150 C   0  0  0  0  0  0  0  0  0  0  0  0
    1.4970  -24.2250  -43.4010 C   0  0  0  0  0  0  0  0  0  0  0  0
    2.7600  -24.2020  -42.5850 C   0  0  0  0  0  0  0  0  0  0  0  0
    3.0480  -25.0720  -41.7430 O   0  0  0  0  0  0  0  0  0  0  0  0
    1.5700  -16.1290  -37.5220 C   0  0  0  0  0  0  0  0  0  0  0  0
    1.0310  -14.9760  -36.3740 S   0  0  0  0  0  0  0  0  0  0  0  0
    0.9500  -13.6000  -37.3830 C   0  0  0  0  0  0  0  0  0  0  0  0
    1.3520  -14.0930  -38.5970 C   0  0  0  0  0  0  0  0  0  0  0  0
    1.6680  -15.3870  -38.6620 C   0  0  0  0  0  0  0  0  0  0  0  0
    0.4310  -11.7950  -36.9540 B   0  0  0  0  0  0  0  0  0  0  0  0
    4.3090  -18.9720  -36.8860 H   0  0  0  0  0  0  0  0  0  0  0  0
    5.0460  -18.7500  -38.5460 H   0  0  0  0  0  0  0  0  0  0  0  0
    3.4260  -21.0820  -37.5140 H   0  0  0  0  0  0  0  0  0  0  0  0
    1.4930  -20.0810  -38.7450 H   0  0  0  0  0  0  0  0  0  0  0  0
    2.5870  -19.6680  -40.1130 H   0  0  0  0  0  0  0  0  0  0  0  0
    2.9670  -21.4810  -40.9700 H   0  0  0  0  0  0  0  0  0  0  0  0
    5.4170  -22.2160  -43.3820 H   0  0  0  0  0  0  0  0  0  0  0  0
    5.4060  -23.8470  -42.5630 H   0  0  0  0  0  0  0  0  0  0  0  0
    2.5930  -21.1800  -43.0900 H   0  0  0  0  0  0  0  0  0  0  0  0
    3.0820  -21.9140  -44.6960 H   0  0  0  0  0  0  0  0  0  0  0  0
    0.5750  -22.2490  -43.2510 H   0  0  0  0  0  0  0  0  0  0  0  0
    1.0140  -22.7930  -44.8840 H   0  0  0  0  0  0  0  0  0  0  0  0
    0.6380  -24.5260  -42.7470 H   0  0  0  0  0  0  0  0  0  0  0  0
    1.5700  -24.9390  -44.2430 H   0  0  0  0  0  0  0  0  0  0  0  0
    1.3970  -13.4040  -39.4640 H   0  0  0  0  0  0  0  0  0  0  0  0
    2.0030  -15.8840  -39.5940 H   0  0  0  0  0  0  0  0  0  0  0  0
  1  3  2  0  0  0  0
  1  2  2  0  0  0  0
  4  5  1  0  0  0  0
  4  1  1  0  0  0  0
  5 26  1  0  0  0  0
  6  5  1  0  0  0  0
  6 28  1  0  0  0  0
  7 29  1  0  0  0  0
  7  4  1  0  0  0  0
  7  6  1  0  0  0  0
  8  9  1  0  0  0  0
  8  6  1  0  0  0  0
 10  9  2  0  0  0  0
 11 12  2  0  0  0  0
 11 10  1  0  0  0  0
 12  8  1  0  0  0  0
 13 33  1  0  0  0  0
 13 11  1  0  0  0  0
 14 13  1  0  0  0  0
 14 18  1  0  0  0  0
 15 34  1  0  0  0  0
 15 14  1  0  0  0  0
 16 15  1  0  0  0  0
 16 17  1  0  0  0  0
 16 36  1  0  0  0  0
 17 38  1  0  0  0  0
 17 18  1  0  0  0  0
 18 19  2  0  0  0  0
 20  1  1  0  0  0  0
 20 21  1  0  0  0  0
 22 25  1  0  0  0  0
 22 21  1  0  0  0  0
 23 22  2  0  0  0  0
 24 23  1  0  0  0  0
 24 20  2  0  0  0  0
 27  5  1  0  0  0  0
 30  7  1  0  0  0  0
 31 12  1  0  0  0  0
 32 13  1  0  0  0  0
 35 15  1  0  0  0  0
 37 16  1  0  0  0  0
 39 17  1  0  0  0  0
 40 23  1  0  0  0  0
 41 24  1  0  0  0  0
M  END
>  <Pose>
1

>  <Score>
-3.77

$$$$
