
 OpenBabel03232221553D

 50 53  0  0  0  0  0  0  0  0999 V2000
    3.5290  -20.6120  -40.8940 S   0  0  0  0  0  0  0  0  0  0  0  0
    2.1780  -20.8210  -41.5210 O   0  0  0  0  0  0  0  0  0  0  0  0
    4.3080  -19.7290  -41.8530 O   0  0  0  0  0  0  0  0  0  0  0  0
    4.2980  -22.1110  -40.7130 N   0  0  0  0  0  0  0  0  0  0  0  0
    3.8070  -23.1730  -41.5230 C   0  0  0  0  0  0  0  0  0  0  0  0
    4.6000  -23.6040  -42.6680 C   0  0  0  0  0  0  0  0  0  0  0  0
    5.9800  -23.1680  -42.7540 N   0  0  0  0  0  0  0  0  0  0  0  0
    6.4730  -22.1290  -41.9030 C   0  0  0  0  0  0  0  0  0  0  0  0
    5.7100  -22.0610  -40.5860 C   0  0  0  0  0  0  0  0  0  0  0  0
    6.8120  -23.8100  -43.6730 C   0  0  0  0  0  0  0  0  0  0  0  0
    6.0810  -24.5280  -44.5530 O   0  0  0  0  0  0  0  0  0  0  0  0
    8.2310  -23.8640  -43.8710 C   0  0  0  0  0  0  0  0  0  0  0  0
    8.8520  -24.9210  -44.6650 C   0  0  0  0  0  0  0  0  0  0  0  0
    9.6280  -25.8930  -44.0820 C   0  0  0  0  0  0  0  0  0  0  0  0
   10.2100  -26.9010  -44.8510 C   0  0  0  0  0  0  0  0  0  0  0  0
   10.0040  -26.9210  -46.1990 C   0  0  0  0  0  0  0  0  0  0  0  0
    9.2130  -25.9380  -46.7970 C   0  0  0  0  0  0  0  0  0  0  0  0
    8.6480  -24.9570  -46.0460 C   0  0  0  0  0  0  0  0  0  0  0  0
    9.9380  -25.8800  -42.1910 B   0  0  0  0  0  0  0  0  0  0  0  0
    3.2410  -19.7630  -39.3900 C   0  0  0  0  0  0  0  0  0  0  0  0
    2.5340  -18.5610  -39.3920 C   0  0  0  0  0  0  0  0  0  0  0  0
    2.2870  -17.8400  -38.2440 C   0  0  0  0  0  0  0  0  0  0  0  0
    2.7380  -18.2840  -37.0220 C   0  0  0  0  0  0  0  0  0  0  0  0
    3.4380  -19.4710  -37.0120 C   0  0  0  0  0  0  0  0  0  0  0  0
    3.6910  -20.2040  -38.1660 C   0  0  0  0  0  0  0  0  0  0  0  0
    2.4930  -17.5520  -35.8430 O   0  0  0  0  0  0  0  0  0  0  0  0
    1.3560  -16.6720  -35.7800 C   0  0  0  0  0  0  0  0  0  0  0  0
    1.3670  -15.9040  -37.0520 C   0  0  0  0  0  0  0  0  0  0  0  0
    1.2080  -14.6630  -37.0890 O   0  0  0  0  0  0  0  0  0  0  0  0
    1.5660  -16.5960  -38.2720 N   0  0  0  0  0  0  0  0  0  0  0  0
    2.7930  -22.8450  -41.9000 H   0  0  0  0  0  0  0  0  0  0  0  0
    3.5680  -24.0290  -40.8230 H   0  0  0  0  0  0  0  0  0  0  0  0
    4.6180  -24.7330  -42.7200 H   0  0  0  0  0  0  0  0  0  0  0  0
    4.1290  -23.3060  -43.6600 H   0  0  0  0  0  0  0  0  0  0  0  0
    6.4090  -21.1770  -42.4460 H   0  0  0  0  0  0  0  0  0  0  0  0
    7.5330  -22.2370  -41.6020 H   0  0  0  0  0  0  0  0  0  0  0  0
    6.0180  -21.1400  -40.0780 H   0  0  0  0  0  0  0  0  0  0  0  0
    6.0170  -22.9810  -40.0160 H   0  0  0  0  0  0  0  0  0  0  0  0
    8.5780  -22.8520  -44.3110 H   0  0  0  0  0  0  0  0  0  0  0  0
    8.7330  -23.8610  -42.8540 H   0  0  0  0  0  0  0  0  0  0  0  0
   10.8110  -27.6310  -44.3300 H   0  0  0  0  0  0  0  0  0  0  0  0
   10.4510  -27.6980  -46.7820 H   0  0  0  0  0  0  0  0  0  0  0  0
    9.0760  -26.0000  -47.8860 H   0  0  0  0  0  0  0  0  0  0  0  0
    8.0280  -24.1740  -46.4760 H   0  0  0  0  0  0  0  0  0  0  0  0
    2.1740  -18.2000  -40.3500 H   0  0  0  0  0  0  0  0  0  0  0  0
    3.8000  -19.8310  -36.0370 H   0  0  0  0  0  0  0  0  0  0  0  0
    4.2470  -21.1400  -38.1210 H   0  0  0  0  0  0  0  0  0  0  0  0
    0.4070  -17.2900  -35.8190 H   0  0  0  0  0  0  0  0  0  0  0  0
    1.4670  -16.0850  -34.8810 H   0  0  0  0  0  0  0  0  0  0  0  0
    1.2320  -16.2720  -39.1910 H   0  0  0  0  0  0  0  0  0  0  0  0
  1  4  1  0  0  0  0
  1 20  1  0  0  0  0
  2  1  2  0  0  0  0
  3  1  2  0  0  0  0
  4  9  1  0  0  0  0
  5 32  1  0  0  0  0
  5  4  1  0  0  0  0
  6  5  1  0  0  0  0
  7  6  1  0  0  0  0
  7  8  1  0  0  0  0
  8 36  1  0  0  0  0
  8  9  1  0  0  0  0
  9 37  1  0  0  0  0
  9 38  1  0  0  0  0
 10  7  1  0  0  0  0
 11 10  2  0  0  0  0
 12 10  1  0  0  0  0
 12 40  1  0  0  0  0
 13 14  1  0  0  0  0
 13 12  1  0  0  0  0
 14 19  1  0  0  0  0
 15 41  1  0  0  0  0
 15 14  2  0  0  0  0
 16 15  1  0  0  0  0
 17 16  2  0  0  0  0
 17 18  1  0  0  0  0
 18 13  2  0  0  0  0
 20 25  1  0  0  0  0
 21 20  2  0  0  0  0
 21 22  1  0  0  0  0
 22 23  2  0  0  0  0
 23 24  1  0  0  0  0
 23 26  1  0  0  0  0
 24 46  1  0  0  0  0
 25 47  1  0  0  0  0
 25 24  2  0  0  0  0
 26 27  1  0  0  0  0
 27 49  1  0  0  0  0
 28 27  1  0  0  0  0
 29 28  2  0  0  0  0
 30 22  1  0  0  0  0
 30 28  1  0  0  0  0
 31  5  1  0  0  0  0
 33  6  1  0  0  0  0
 34  6  1  0  0  0  0
 35  8  1  0  0  0  0
 39 12  1  0  0  0  0
 42 16  1  0  0  0  0
 43 17  1  0  0  0  0
 44 18  1  0  0  0  0
 45 21  1  0  0  0  0
 48 27  1  0  0  0  0
 50 30  1  0  0  0  0
M  END
>  <Pose>
1

>  <Score>
-3.96

$$$$
