
 OpenBabel03232221553D

 60 64  0  0  0  0  0  0  0  0999 V2000
    1.8100  -18.9130  -38.8740 S   0  0  0  0  0  0  0  0  0  0  0  0
    0.4600  -18.9330  -39.4800 O   0  0  0  0  0  0  0  0  0  0  0  0
    1.8020  -20.0620  -37.8590 O   0  0  0  0  0  0  0  0  0  0  0  0
    2.1270  -17.5090  -37.9310 N   0  0  0  0  0  0  0  0  0  0  0  0
    1.4060  -17.4540  -36.7060 C   0  0  0  0  0  0  0  0  0  0  0  0
    0.0280  -16.8160  -36.8210 C   0  0  0  0  0  0  0  0  0  0  0  0
    0.1570  -15.5550  -37.4690 N   0  0  0  0  0  0  0  0  0  0  0  0
    0.7340  -15.6880  -38.8450 C   0  0  0  0  0  0  0  0  0  0  0  0
    2.0850  -16.2980  -38.6780 C   0  0  0  0  0  0  0  0  0  0  0  0
   -0.1480  -14.2730  -37.0560 C   0  0  0  0  0  0  0  0  0  0  0  0
   -1.3900  -13.8980  -37.2880 O   0  0  0  0  0  0  0  0  0  0  0  0
    0.6480  -13.2670  -36.4150 C   0  0  0  0  0  0  0  0  0  0  0  0
    1.8110  -12.7720  -37.0560 N   0  0  0  0  0  0  0  0  0  0  0  0
    2.9860  -12.4780  -36.5020 N   0  0  0  0  0  0  0  0  0  0  0  0
    3.8630  -12.0720  -37.4280 C   0  0  0  0  0  0  0  0  0  0  0  0
    3.1940  -12.1150  -38.6270 C   0  0  0  0  0  0  0  0  0  0  0  0
    1.9240  -12.5490  -38.3920 C   0  0  0  0  0  0  0  0  0  0  0  0
    3.9210  -11.6450  -40.3450 B   0  0  0  0  0  0  0  0  0  0  0  0
    3.1090  -19.2760  -39.9670 C   0  0  0  0  0  0  0  0  0  0  0  0
    4.1400  -20.1650  -39.6320 C   0  0  0  0  0  0  0  0  0  0  0  0
    5.1710  -20.4460  -40.5050 C   0  0  0  0  0  0  0  0  0  0  0  0
    5.2290  -19.8590  -41.7530 C   0  0  0  0  0  0  0  0  0  0  0  0
    4.2280  -18.9890  -42.0870 C   0  0  0  0  0  0  0  0  0  0  0  0
    3.1940  -18.7150  -41.1970 C   0  0  0  0  0  0  0  0  0  0  0  0
    2.1970  -17.7520  -41.6920 C   0  0  0  0  0  0  0  0  0  0  0  0
    1.7380  -18.1190  -43.0870 C   0  0  0  0  0  0  0  0  0  0  0  0
    2.8300  -18.4980  -43.9000 N   0  0  0  0  0  0  0  0  0  0  0  0
    4.1460  -18.2830  -43.3860 C   0  0  0  0  0  0  0  0  0  0  0  0
    2.6640  -19.6600  -44.6990 C   0  0  0  0  0  0  0  0  0  0  0  0
    6.2790  -20.1410  -42.6500 O   0  0  0  0  0  0  0  0  0  0  0  0
    7.2660  -19.1270  -42.8890 C   0  0  0  0  0  0  0  0  0  0  0  0
    6.0080  -21.3450  -39.8820 O   0  0  0  0  0  0  0  0  0  0  0  0
    5.5780  -21.5270  -38.5620 C   0  0  0  0  0  0  0  0  0  0  0  0
    4.3180  -20.8830  -38.4530 O   0  0  0  0  0  0  0  0  0  0  0  0
    1.2580  -18.4800  -36.3150 H   0  0  0  0  0  0  0  0  0  0  0  0
    1.9720  -16.8570  -35.9640 H   0  0  0  0  0  0  0  0  0  0  0  0
   -0.4070  -16.8460  -35.8330 H   0  0  0  0  0  0  0  0  0  0  0  0
   -0.6360  -17.4400  -37.4730 H   0  0  0  0  0  0  0  0  0  0  0  0
    0.8540  -14.6880  -39.2990 H   0  0  0  0  0  0  0  0  0  0  0  0
    0.0920  -16.3010  -39.4750 H   0  0  0  0  0  0  0  0  0  0  0  0
    2.5550  -16.4240  -39.6710 H   0  0  0  0  0  0  0  0  0  0  0  0
    2.7260  -15.5490  -38.1410 H   0  0  0  0  0  0  0  0  0  0  0  0
    0.9910  -13.6140  -35.3690 H   0  0  0  0  0  0  0  0  0  0  0  0
   -0.0370  -12.3890  -36.1180 H   0  0  0  0  0  0  0  0  0  0  0  0
    4.9020  -11.7680  -37.2530 H   0  0  0  0  0  0  0  0  0  0  0  0
    1.1640  -12.6850  -39.1340 H   0  0  0  0  0  0  0  0  0  0  0  0
    1.4010  -17.4770  -41.0130 H   0  0  0  0  0  0  0  0  0  0  0  0
    2.7850  -16.7900  -41.8460 H   0  0  0  0  0  0  0  0  0  0  0  0
    1.0810  -19.0250  -42.9550 H   0  0  0  0  0  0  0  0  0  0  0  0
    1.0910  -17.3280  -43.5220 H   0  0  0  0  0  0  0  0  0  0  0  0
    4.8800  -18.6760  -44.1110 H   0  0  0  0  0  0  0  0  0  0  0  0
    4.3810  -17.2120  -43.2110 H   0  0  0  0  0  0  0  0  0  0  0  0
    2.9360  -19.5260  -45.7660 H   0  0  0  0  0  0  0  0  0  0  0  0
    1.6100  -20.0150  -44.5880 H   0  0  0  0  0  0  0  0  0  0  0  0
    3.2920  -20.4860  -44.2900 H   0  0  0  0  0  0  0  0  0  0  0  0
    7.0050  -18.1920  -42.3530 H   0  0  0  0  0  0  0  0  0  0  0  0
    7.3120  -18.8860  -43.9680 H   0  0  0  0  0  0  0  0  0  0  0  0
    8.2850  -19.5040  -42.6210 H   0  0  0  0  0  0  0  0  0  0  0  0
    6.2810  -21.1600  -37.8020 H   0  0  0  0  0  0  0  0  0  0  0  0
    5.3680  -22.6250  -38.4430 H   0  0  0  0  0  0  0  0  0  0  0  0
  1  4  1  0  0  0  0
  1  3  2  0  0  0  0
  2  1  2  0  0  0  0
  4  5  1  0  0  0  0
  5 35  1  0  0  0  0
  5 36  1  0  0  0  0
  6  5  1  0  0  0  0
  6 37  1  0  0  0  0
  7 10  1  0  0  0  0
  7  6  1  0  0  0  0
  8  9  1  0  0  0  0
  8  7  1  0  0  0  0
  9 42  1  0  0  0  0
  9  4  1  0  0  0  0
 10 12  1  0  0  0  0
 11 10  2  0  0  0  0
 12 44  1  0  0  0  0
 12 43  1  0  0  0  0
 13 14  1  0  0  0  0
 13 12  1  0  0  0  0
 15 45  1  0  0  0  0
 15 14  2  0  0  0  0
 16 17  2  0  0  0  0
 16 15  1  0  0  0  0
 17 13  1  0  0  0  0
 18 16  1  0  0  0  0
 19 20  1  0  0  0  0
 19  1  1  0  0  0  0
 20 34  1  0  0  0  0
 21 32  1  0  0  0  0
 21 20  2  0  0  0  0
 22 21  1  0  0  0  0
 23 22  2  0  0  0  0
 23 24  1  0  0  0  0
 24 19  2  0  0  0  0
 25 24  1  0  0  0  0
 25 47  1  0  0  0  0
 26 49  1  0  0  0  0
 26 25  1  0  0  0  0
 27 28  1  0  0  0  0
 27 26  1  0  0  0  0
 28 52  1  0  0  0  0
 28 23  1  0  0  0  0
 29 54  1  0  0  0  0
 29 55  1  0  0  0  0
 29 27  1  0  0  0  0
 30 22  1  0  0  0  0
 31 30  1  0  0  0  0
 31 58  1  0  0  0  0
 31 56  1  0  0  0  0
 32 33  1  0  0  0  0
 33 34  1  0  0  0  0
 33 60  1  0  0  0  0
 33 59  1  0  0  0  0
 38  6  1  0  0  0  0
 39  8  1  0  0  0  0
 40  8  1  0  0  0  0
 41  9  1  0  0  0  0
 46 17  1  0  0  0  0
 48 25  1  0  0  0  0
 50 26  1  0  0  0  0
 51 28  1  0  0  0  0
 53 29  1  0  0  0  0
 57 31  1  0  0  0  0
M  END
>  <Pose>
1

>  <Score>
-4.33

$$$$
