
 OpenBabel03232221553D

 53 56  0  0  0  0  0  0  0  0999 V2000
    7.9390  -25.9290  -44.1410 S   0  0  0  0  0  0  0  0  0  0  0  0
    7.8940  -26.1140  -42.6180 O   0  0  0  0  0  0  0  0  0  0  0  0
    6.9980  -27.0270  -44.6460 O   0  0  0  0  0  0  0  0  0  0  0  0
    7.3730  -24.4130  -44.4950 N   0  0  0  0  0  0  0  0  0  0  0  0
    6.0880  -24.1510  -44.9430 C   0  0  0  0  0  0  0  0  0  0  0  0
    6.0450  -22.6840  -45.4510 C   0  0  0  0  0  0  0  0  0  0  0  0
    6.5670  -21.8080  -44.4390 N   0  0  0  0  0  0  0  0  0  0  0  0
    7.9230  -22.0530  -44.0030 C   0  0  0  0  0  0  0  0  0  0  0  0
    8.3520  -23.3680  -44.6160 C   0  0  0  0  0  0  0  0  0  0  0  0
    5.8360  -20.7480  -43.8690 C   0  0  0  0  0  0  0  0  0  0  0  0
    6.3730  -19.6220  -43.7650 O   0  0  0  0  0  0  0  0  0  0  0  0
    4.4640  -20.9440  -43.3980 C   0  0  0  0  0  0  0  0  0  0  0  0
    4.4520  -21.2860  -41.9780 N   0  0  0  0  0  0  0  0  0  0  0  0
    4.5490  -22.5480  -41.3520 C   0  0  0  0  0  0  0  0  0  0  0  0
    4.6710  -23.6600  -41.9630 O   0  0  0  0  0  0  0  0  0  0  0  0
    4.4850  -22.3350  -39.9470 N   0  0  0  0  0  0  0  0  0  0  0  0
    4.8290  -20.9570  -39.7140 C   0  0  0  0  0  0  0  0  0  0  0  0
    6.2880  -20.7300  -39.4840 C   0  0  0  0  0  0  0  0  0  0  0  0
    6.2900  -19.3170  -38.8870 C   0  0  0  0  0  0  0  0  0  0  0  0
    5.0550  -19.2860  -38.0290 C   0  0  0  0  0  0  0  0  0  0  0  0
    4.1730  -20.4070  -38.4690 C   0  0  0  0  0  0  0  0  0  0  0  0
    4.3260  -20.2920  -40.9400 C   0  0  0  0  0  0  0  0  0  0  0  0
    3.8910  -19.1230  -41.0390 O   0  0  0  0  0  0  0  0  0  0  0  0
    9.5640  -26.3290  -44.6040 C   0  0  0  0  0  0  0  0  0  0  0  0
   10.6580  -26.3640  -43.7820 C   0  0  0  0  0  0  0  0  0  0  0  0
   11.9390  -26.6490  -44.2670 C   0  0  0  0  0  0  0  0  0  0  0  0
   12.1640  -26.9070  -45.5820 C   0  0  0  0  0  0  0  0  0  0  0  0
   11.0900  -26.8830  -46.4310 C   0  0  0  0  0  0  0  0  0  0  0  0
    9.8300  -26.6020  -45.9590 C   0  0  0  0  0  0  0  0  0  0  0  0
   10.4260  -26.0850  -41.9190 B   0  0  0  0  0  0  0  0  0  0  0  0
    5.2610  -24.2980  -44.2200 H   0  0  0  0  0  0  0  0  0  0  0  0
    5.8480  -24.7300  -45.8560 H   0  0  0  0  0  0  0  0  0  0  0  0
    6.6520  -22.6520  -46.3610 H   0  0  0  0  0  0  0  0  0  0  0  0
    5.0000  -22.5060  -45.7190 H   0  0  0  0  0  0  0  0  0  0  0  0
    8.5880  -21.2750  -44.4660 H   0  0  0  0  0  0  0  0  0  0  0  0
    8.0690  -22.0240  -42.9250 H   0  0  0  0  0  0  0  0  0  0  0  0
    9.3150  -23.7280  -44.2140 H   0  0  0  0  0  0  0  0  0  0  0  0
    8.5080  -23.1800  -45.6990 H   0  0  0  0  0  0  0  0  0  0  0  0
    3.9050  -21.6920  -44.0110 H   0  0  0  0  0  0  0  0  0  0  0  0
    3.8430  -20.0050  -43.4790 H   0  0  0  0  0  0  0  0  0  0  0  0
    4.2260  -23.0990  -39.2750 H   0  0  0  0  0  0  0  0  0  0  0  0
    6.6320  -21.4200  -38.6970 H   0  0  0  0  0  0  0  0  0  0  0  0
    6.8930  -20.7610  -40.4110 H   0  0  0  0  0  0  0  0  0  0  0  0
    6.1670  -18.5800  -39.7100 H   0  0  0  0  0  0  0  0  0  0  0  0
    7.2160  -19.1400  -38.3190 H   0  0  0  0  0  0  0  0  0  0  0  0
    4.5010  -18.3390  -38.1380 H   0  0  0  0  0  0  0  0  0  0  0  0
    5.3660  -19.4870  -36.9880 H   0  0  0  0  0  0  0  0  0  0  0  0
    4.0670  -21.2110  -37.7260 H   0  0  0  0  0  0  0  0  0  0  0  0
    3.1340  -20.0530  -38.7170 H   0  0  0  0  0  0  0  0  0  0  0  0
   12.7390  -26.6550  -43.5580 H   0  0  0  0  0  0  0  0  0  0  0  0
   13.1720  -27.1200  -45.8910 H   0  0  0  0  0  0  0  0  0  0  0  0
   11.2710  -27.0900  -47.4770 H   0  0  0  0  0  0  0  0  0  0  0  0
    8.9840  -26.5830  -46.6320 H   0  0  0  0  0  0  0  0  0  0  0  0
  1  2  2  0  0  0  0
  3  1  2  0  0  0  0
  4  1  1  0  0  0  0
  5  4  1  0  0  0  0
  5 31  1  0  0  0  0
  6  5  1  0  0  0  0
  6  7  1  0  0  0  0
  7  8  1  0  0  0  0
  7 10  1  0  0  0  0
  8 36  1  0  0  0  0
  9  4  1  0  0  0  0
  9 37  1  0  0  0  0
  9  8  1  0  0  0  0
 10 11  2  0  0  0  0
 10 12  1  0  0  0  0
 12 13  1  0  0  0  0
 13 14  1  0  0  0  0
 13 22  1  0  0  0  0
 14 16  1  0  0  0  0
 15 14  2  0  0  0  0
 16 17  1  0  0  0  0
 16 41  1  0  0  0  0
 17 18  1  0  0  0  0
 17 21  1  0  0  0  0
 18 19  1  0  0  0  0
 18 42  1  0  0  0  0
 19 45  1  0  0  0  0
 19 20  1  0  0  0  0
 20 47  1  0  0  0  0
 21 20  1  0  0  0  0
 21 48  1  0  0  0  0
 22 17  1  0  0  0  0
 23 22  2  0  0  0  0
 24  1  1  0  0  0  0
 24 25  1  0  0  0  0
 25 30  1  0  0  0  0
 26 25  2  0  0  0  0
 26 50  1  0  0  0  0
 27 26  1  0  0  0  0
 28 29  1  0  0  0  0
 28 27  2  0  0  0  0
 29 24  2  0  0  0  0
 32  5  1  0  0  0  0
 33  6  1  0  0  0  0
 34  6  1  0  0  0  0
 35  8  1  0  0  0  0
 38  9  1  0  0  0  0
 39 12  1  0  0  0  0
 40 12  1  0  0  0  0
 43 18  1  0  0  0  0
 44 19  1  0  0  0  0
 46 20  1  0  0  0  0
 49 21  1  0  0  0  0
 51 27  1  0  0  0  0
 52 28  1  0  0  0  0
 53 29  1  0  0  0  0
M  END
>  <Pose>
1

>  <Score>
-5.36

$$$$
