
 OpenBabel03232221553D

 53 56  0  0  0  0  0  0  0  0999 V2000
    4.8610  -23.2190  -42.7720 S   0  0  0  0  0  0  0  0  0  0  0  0
    4.3660  -24.6300  -42.5110 O   0  0  0  0  0  0  0  0  0  0  0  0
    4.0910  -22.7310  -43.9730 O   0  0  0  0  0  0  0  0  0  0  0  0
    6.5160  -23.3360  -43.1730 N   0  0  0  0  0  0  0  0  0  0  0  0
    6.8500  -24.5680  -43.8570 C   0  0  0  0  0  0  0  0  0  0  0  0
    7.8090  -24.3170  -44.9940 C   0  0  0  0  0  0  0  0  0  0  0  0
    8.9390  -23.5440  -44.4390 N   0  0  0  0  0  0  0  0  0  0  0  0
    8.5840  -22.3210  -43.7900 C   0  0  0  0  0  0  0  0  0  0  0  0
    7.0430  -22.2030  -43.8490 C   0  0  0  0  0  0  0  0  0  0  0  0
   10.2540  -24.0170  -44.5570 C   0  0  0  0  0  0  0  0  0  0  0  0
   10.7560  -23.9390  -45.7730 O   0  0  0  0  0  0  0  0  0  0  0  0
   11.1810  -24.5790  -43.6070 C   0  0  0  0  0  0  0  0  0  0  0  0
   11.1560  -25.9770  -43.3100 N   0  0  0  0  0  0  0  0  0  0  0  0
   10.7210  -26.6110  -42.0800 C   0  0  0  0  0  0  0  0  0  0  0  0
   10.2780  -25.9560  -41.0960 O   0  0  0  0  0  0  0  0  0  0  0  0
   10.8930  -28.0110  -42.2300 N   0  0  0  0  0  0  0  0  0  0  0  0
   11.8010  -28.2140  -43.3080 C   0  0  0  0  0  0  0  0  0  0  0  0
   13.2360  -28.3620  -42.8640 C   0  0  0  0  0  0  0  0  0  0  0  0
   13.8900  -28.8840  -44.1290 C   0  0  0  0  0  0  0  0  0  0  0  0
   12.8150  -29.6360  -44.8750 C   0  0  0  0  0  0  0  0  0  0  0  0
   11.5660  -29.5270  -44.0340 C   0  0  0  0  0  0  0  0  0  0  0  0
   11.5820  -27.0540  -44.1700 C   0  0  0  0  0  0  0  0  0  0  0  0
   11.7270  -26.9690  -45.4170 O   0  0  0  0  0  0  0  0  0  0  0  0
    4.5580  -22.1840  -41.3970 C   0  0  0  0  0  0  0  0  0  0  0  0
    5.5430  -21.8690  -40.4830 C   0  0  0  0  0  0  0  0  0  0  0  0
    5.2920  -21.0450  -39.3920 C   0  0  0  0  0  0  0  0  0  0  0  0
    4.0450  -20.5130  -39.1880 C   0  0  0  0  0  0  0  0  0  0  0  0
    3.0520  -20.8190  -40.0940 C   0  0  0  0  0  0  0  0  0  0  0  0
    3.3090  -21.6420  -41.1810 C   0  0  0  0  0  0  0  0  0  0  0  0
    3.6890  -19.3690  -37.6800 B   0  0  0  0  0  0  0  0  0  0  0  0
    7.4210  -25.1860  -43.1050 H   0  0  0  0  0  0  0  0  0  0  0  0
    5.9460  -25.1030  -44.2000 H   0  0  0  0  0  0  0  0  0  0  0  0
    7.2920  -23.8010  -45.7980 H   0  0  0  0  0  0  0  0  0  0  0  0
    8.1710  -25.3020  -45.3600 H   0  0  0  0  0  0  0  0  0  0  0  0
    9.0230  -21.4120  -44.2170 H   0  0  0  0  0  0  0  0  0  0  0  0
    8.8480  -22.4140  -42.6950 H   0  0  0  0  0  0  0  0  0  0  0  0
    6.7900  -22.0810  -44.9000 H   0  0  0  0  0  0  0  0  0  0  0  0
    6.7330  -21.2730  -43.3200 H   0  0  0  0  0  0  0  0  0  0  0  0
   11.0710  -24.0360  -42.5970 H   0  0  0  0  0  0  0  0  0  0  0  0
   12.2630  -24.3300  -43.8800 H   0  0  0  0  0  0  0  0  0  0  0  0
   10.4000  -28.7120  -41.6120 H   0  0  0  0  0  0  0  0  0  0  0  0
   13.2710  -29.1760  -42.1150 H   0  0  0  0  0  0  0  0  0  0  0  0
   13.6760  -27.4270  -42.5110 H   0  0  0  0  0  0  0  0  0  0  0  0
   14.7370  -29.5640  -43.9170 H   0  0  0  0  0  0  0  0  0  0  0  0
   14.2320  -27.9860  -44.6900 H   0  0  0  0  0  0  0  0  0  0  0  0
   13.1020  -30.6900  -45.0650 H   0  0  0  0  0  0  0  0  0  0  0  0
   12.6200  -29.0870  -45.8240 H   0  0  0  0  0  0  0  0  0  0  0  0
   11.5420  -30.3120  -43.2300 H   0  0  0  0  0  0  0  0  0  0  0  0
   10.6450  -29.5190  -44.6260 H   0  0  0  0  0  0  0  0  0  0  0  0
    6.5230  -22.2850  -40.6390 H   0  0  0  0  0  0  0  0  0  0  0  0
    6.0550  -20.7920  -38.6670 H   0  0  0  0  0  0  0  0  0  0  0  0
    2.0710  -20.3830  -39.9110 H   0  0  0  0  0  0  0  0  0  0  0  0
    2.4860  -21.8590  -41.8780 H   0  0  0  0  0  0  0  0  0  0  0  0
  1  2  2  0  0  0  0
  1 24  1  0  0  0  0
  3  1  2  0  0  0  0
  4  1  1  0  0  0  0
  5  4  1  0  0  0  0
  5 31  1  0  0  0  0
  6  7  1  0  0  0  0
  6  5  1  0  0  0  0
  7  8  1  0  0  0  0
  8 36  1  0  0  0  0
  9  8  1  0  0  0  0
  9 38  1  0  0  0  0
  9  4  1  0  0  0  0
 10  7  1  0  0  0  0
 10 12  1  0  0  0  0
 11 10  2  0  0  0  0
 12 13  1  0  0  0  0
 12 39  1  0  0  0  0
 13 14  1  0  0  0  0
 14 15  2  0  0  0  0
 16 14  1  0  0  0  0
 16 41  1  0  0  0  0
 17 18  1  0  0  0  0
 17 16  1  0  0  0  0
 18 43  1  0  0  0  0
 18 42  1  0  0  0  0
 19 44  1  0  0  0  0
 19 18  1  0  0  0  0
 20 19  1  0  0  0  0
 20 21  1  0  0  0  0
 21 17  1  0  0  0  0
 21 48  1  0  0  0  0
 22 13  1  0  0  0  0
 22 17  1  0  0  0  0
 23 22  2  0  0  0  0
 24 29  2  0  0  0  0
 24 25  1  0  0  0  0
 25 26  2  0  0  0  0
 26 27  1  0  0  0  0
 26 51  1  0  0  0  0
 27 30  1  0  0  0  0
 28 52  1  0  0  0  0
 28 27  2  0  0  0  0
 29 28  1  0  0  0  0
 32  5  1  0  0  0  0
 33  6  1  0  0  0  0
 34  6  1  0  0  0  0
 35  8  1  0  0  0  0
 37  9  1  0  0  0  0
 40 12  1  0  0  0  0
 45 19  1  0  0  0  0
 46 20  1  0  0  0  0
 47 20  1  0  0  0  0
 49 21  1  0  0  0  0
 50 25  1  0  0  0  0
 53 29  1  0  0  0  0
M  END
>  <Pose>
1

>  <Score>
-5.13

$$$$
