
 OpenBabel03232221553D

 47 50  0  0  0  0  0  0  0  0999 V2000
    4.5450  -21.1780  -39.1850 S   0  0  0  0  0  0  0  0  0  0  0  0
    4.6860  -22.3890  -38.3480 O   0  0  0  0  0  0  0  0  0  0  0  0
    5.7530  -20.2960  -38.8950 O   0  0  0  0  0  0  0  0  0  0  0  0
    4.5170  -21.4750  -40.8490 N   0  0  0  0  0  0  0  0  0  0  0  0
    3.7740  -22.5660  -41.3010 C   0  0  0  0  0  0  0  0  0  0  0  0
    4.1790  -23.1670  -42.6010 C   0  0  0  0  0  0  0  0  0  0  0  0
    5.5540  -22.9820  -42.9420 N   0  0  0  0  0  0  0  0  0  0  0  0
    6.4140  -22.2630  -42.0270 C   0  0  0  0  0  0  0  0  0  0  0  0
    5.6200  -21.0300  -41.5990 C   0  0  0  0  0  0  0  0  0  0  0  0
    6.1110  -23.4770  -44.1450 C   0  0  0  0  0  0  0  0  0  0  0  0
    5.6330  -23.1330  -45.2740 O   0  0  0  0  0  0  0  0  0  0  0  0
    7.2420  -24.3950  -44.1820 C   0  0  0  0  0  0  0  0  0  0  0  0
    7.0970  -25.7360  -44.4840 C   0  0  0  0  0  0  0  0  0  0  0  0
    8.1580  -26.6120  -44.5230 C   0  0  0  0  0  0  0  0  0  0  0  0
    9.4220  -26.1140  -44.2440 C   0  0  0  0  0  0  0  0  0  0  0  0
    9.6260  -24.7900  -43.9380 C   0  0  0  0  0  0  0  0  0  0  0  0
    8.5310  -23.9540  -43.9120 C   0  0  0  0  0  0  0  0  0  0  0  0
    5.3280  -26.3500  -44.8570 B   0  0  0  0  0  0  0  0  0  0  0  0
    3.1430  -20.2260  -38.7120 C   0  0  0  0  0  0  0  0  0  0  0  0
    3.2440  -19.2060  -37.7870 C   0  0  0  0  0  0  0  0  0  0  0  0
    2.1640  -18.4410  -37.3960 C   0  0  0  0  0  0  0  0  0  0  0  0
    0.9140  -18.6770  -37.9300 C   0  0  0  0  0  0  0  0  0  0  0  0
    0.8090  -19.7000  -38.8600 C   0  0  0  0  0  0  0  0  0  0  0  0
    1.8930  -20.4600  -39.2470 C   0  0  0  0  0  0  0  0  0  0  0  0
   -0.1960  -17.9210  -37.5550 O   0  0  0  0  0  0  0  0  0  0  0  0
   -0.2210  -17.0430  -36.4460 C   0  0  0  0  0  0  0  0  0  0  0  0
    1.1420  -16.6090  -36.0470 C   0  0  0  0  0  0  0  0  0  0  0  0
    1.2340  -15.5560  -35.3670 O   0  0  0  0  0  0  0  0  0  0  0  0
    2.2630  -17.3910  -36.4430 N   0  0  0  0  0  0  0  0  0  0  0  0
    2.6900  -22.2600  -41.3820 H   0  0  0  0  0  0  0  0  0  0  0  0
    3.7780  -23.3620  -40.4990 H   0  0  0  0  0  0  0  0  0  0  0  0
    3.4870  -22.8300  -43.4110 H   0  0  0  0  0  0  0  0  0  0  0  0
    4.0090  -24.2820  -42.5430 H   0  0  0  0  0  0  0  0  0  0  0  0
    7.3740  -21.9750  -42.4980 H   0  0  0  0  0  0  0  0  0  0  0  0
    6.6180  -22.8660  -41.1350 H   0  0  0  0  0  0  0  0  0  0  0  0
    6.3090  -20.4070  -41.0200 H   0  0  0  0  0  0  0  0  0  0  0  0
    5.2590  -20.5230  -42.5300 H   0  0  0  0  0  0  0  0  0  0  0  0
    8.0290  -27.6760  -44.7650 H   0  0  0  0  0  0  0  0  0  0  0  0
   10.2550  -26.8210  -44.2780 H   0  0  0  0  0  0  0  0  0  0  0  0
   10.6340  -24.4270  -43.7220 H   0  0  0  0  0  0  0  0  0  0  0  0
    8.6830  -22.9130  -43.6720 H   0  0  0  0  0  0  0  0  0  0  0  0
    4.2150  -19.0120  -37.3610 H   0  0  0  0  0  0  0  0  0  0  0  0
   -0.1730  -19.8880  -39.2820 H   0  0  0  0  0  0  0  0  0  0  0  0
    1.8090  -21.2540  -39.9680 H   0  0  0  0  0  0  0  0  0  0  0  0
   -0.6870  -17.5460  -35.5550 H   0  0  0  0  0  0  0  0  0  0  0  0
   -0.8780  -16.1860  -36.6920 H   0  0  0  0  0  0  0  0  0  0  0  0
    3.2000  -17.2010  -36.0300 H   0  0  0  0  0  0  0  0  0  0  0  0
  1  3  2  0  0  0  0
  1 19  1  0  0  0  0
  1  2  2  0  0  0  0
  4  1  1  0  0  0  0
  5  4  1  0  0  0  0
  5 31  1  0  0  0  0
  6 33  1  0  0  0  0
  6  5  1  0  0  0  0
  7  6  1  0  0  0  0
  7  8  1  0  0  0  0
  8  9  1  0  0  0  0
  8 35  1  0  0  0  0
  9 36  1  0  0  0  0
  9  4  1  0  0  0  0
 10  7  1  0  0  0  0
 11 10  2  0  0  0  0
 12 10  1  0  0  0  0
 12 17  1  0  0  0  0
 13 12  2  0  0  0  0
 14 13  1  0  0  0  0
 14 15  2  0  0  0  0
 15 16  1  0  0  0  0
 16 17  2  0  0  0  0
 16 40  1  0  0  0  0
 17 41  1  0  0  0  0
 18 13  1  0  0  0  0
 19 20  1  0  0  0  0
 20 21  2  0  0  0  0
 20 42  1  0  0  0  0
 21 29  1  0  0  0  0
 22 25  1  0  0  0  0
 22 21  1  0  0  0  0
 23 22  2  0  0  0  0
 24 23  1  0  0  0  0
 24 19  2  0  0  0  0
 25 26  1  0  0  0  0
 26 27  1  0  0  0  0
 26 45  1  0  0  0  0
 27 28  2  0  0  0  0
 29 27  1  0  0  0  0
 29 47  1  0  0  0  0
 30  5  1  0  0  0  0
 32  6  1  0  0  0  0
 34  8  1  0  0  0  0
 37  9  1  0  0  0  0
 38 14  1  0  0  0  0
 39 15  1  0  0  0  0
 43 23  1  0  0  0  0
 44 24  1  0  0  0  0
 46 26  1  0  0  0  0
M  END
>  <Pose>
1

>  <Score>
-4.49

$$$$
