
 OpenBabel03232221553D

 54 58  0  0  1  0  0  0  0  0999 V2000
    0.5650  -16.5590  -36.4100 S   0  0  0  0  0  0  0  0  0  0  0  0
    1.3240  -15.7530  -35.3630 O   0  0  0  0  0  0  0  0  0  0  0  0
   -0.5270  -17.2650  -35.6040 O   0  0  0  0  0  0  0  0  0  0  0  0
   -0.1890  -15.4760  -37.4480 N   0  0  0  0  0  0  0  0  0  0  0  0
   -0.2000  -14.0940  -37.0460 C   0  0  0  0  0  0  0  0  0  0  0  0
    0.1850  -13.1790  -38.1850 C   0  0  0  0  0  0  0  0  0  0  0  0
    1.4930  -13.5940  -38.7510 N   0  0  0  0  0  0  0  0  0  0  0  0
    1.3180  -14.9210  -39.3260 C   0  0  0  0  0  0  0  0  0  0  0  0
    0.0540  -15.6150  -38.8510 C   0  0  0  0  0  0  0  0  0  0  0  0
    1.7280  -12.6360  -39.8100 C   0  0  0  0  0  0  0  0  0  0  0  0
    2.4320  -11.3930  -39.4680 C   0  0  0  0  0  0  0  0  0  0  0  0
    3.7170  -11.1310  -40.0220 N   0  0  0  0  0  0  0  0  0  0  0  0
    4.9590  -10.8360  -39.3920 C   0  0  0  0  0  0  0  0  0  0  0  0
    5.0900  -10.3230  -38.2710 O   0  0  0  0  0  0  0  0  0  0  0  0
    6.0620  -11.2410  -40.2960 C   0  0  1  0  0  0  0  0  0  0  0  0
    5.3820  -11.0430  -41.6710 C   0  0  2  0  0  0  0  0  0  0  0  0
    5.8460   -9.7230  -42.1580 C   0  0  1  0  0  0  0  0  0  0  0  0
    6.2270   -9.0100  -40.8500 C   0  0  0  0  0  0  0  0  0  0  0  0
    7.0980  -10.1770  -40.3540 C   0  0  2  0  0  0  0  0  0  0  0  0
    7.8970  -10.4190  -41.6020 C   0  0  0  0  0  0  0  0  0  0  0  0
    7.2580   -9.9300  -42.6640 C   0  0  0  0  0  0  0  0  0  0  0  0
    3.9500  -11.1850  -41.4470 C   0  0  0  0  0  0  0  0  0  0  0  0
    3.0960  -11.3280  -42.3570 O   0  0  0  0  0  0  0  0  0  0  0  0
    1.5470  -17.7790  -37.1150 C   0  0  0  0  0  0  0  0  0  0  0  0
    1.1620  -18.4090  -38.2740 C   0  0  0  0  0  0  0  0  0  0  0  0
    1.9840  -19.3800  -38.8190 C   0  0  0  0  0  0  0  0  0  0  0  0
    3.1860  -19.7460  -38.2400 C   0  0  0  0  0  0  0  0  0  0  0  0
    3.5670  -19.1100  -37.0780 C   0  0  0  0  0  0  0  0  0  0  0  0
    2.7410  -18.1350  -36.5310 C   0  0  0  0  0  0  0  0  0  0  0  0
    4.3180  -21.0850  -38.9890 B   0  0  0  0  0  0  0  0  0  0  0  0
   -1.2520  -13.8340  -36.7830 H   0  0  0  0  0  0  0  0  0  0  0  0
    0.4150  -13.9350  -36.1610 H   0  0  0  0  0  0  0  0  0  0  0  0
    0.3370  -12.1610  -37.7840 H   0  0  0  0  0  0  0  0  0  0  0  0
   -0.5710  -13.1280  -38.9910 H   0  0  0  0  0  0  0  0  0  0  0  0
    2.1400  -15.5640  -38.9690 H   0  0  0  0  0  0  0  0  0  0  0  0
    1.3330  -14.8130  -40.4250 H   0  0  0  0  0  0  0  0  0  0  0  0
    0.0310  -16.6670  -39.1320 H   0  0  0  0  0  0  0  0  0  0  0  0
   -0.7940  -15.1180  -39.3740 H   0  0  0  0  0  0  0  0  0  0  0  0
    0.7250  -12.3230  -40.2450 H   0  0  0  0  0  0  0  0  0  0  0  0
    2.1940  -13.1790  -40.6930 H   0  0  0  0  0  0  0  0  0  0  0  0
    1.7500  -10.5420  -39.8010 H   0  0  0  0  0  0  0  0  0  0  0  0
    2.4340  -11.3030  -38.3450 H   0  0  0  0  0  0  0  0  0  0  0  0
    6.4110  -12.2580  -40.1440 H   0  0  0  0  0  0  0  0  0  0  0  0
    5.7790  -11.8210  -42.3850 H   0  0  0  0  0  0  0  0  0  0  0  0
    5.2110   -9.1560  -42.7960 H   0  0  0  0  0  0  0  0  0  0  0  0
    6.8320   -8.1130  -41.0230 H   0  0  0  0  0  0  0  0  0  0  0  0
    5.3910   -8.8830  -40.1680 H   0  0  0  0  0  0  0  0  0  0  0  0
    7.6700   -9.9700  -39.4820 H   0  0  0  0  0  0  0  0  0  0  0  0
    8.8580  -10.9150  -41.6830 H   0  0  0  0  0  0  0  0  0  0  0  0
    7.6520   -9.7300  -43.6430 H   0  0  0  0  0  0  0  0  0  0  0  0
    0.2170  -18.1580  -38.7800 H   0  0  0  0  0  0  0  0  0  0  0  0
    1.6770  -19.8780  -39.7380 H   0  0  0  0  0  0  0  0  0  0  0  0
    4.5060  -19.4060  -36.6370 H   0  0  0  0  0  0  0  0  0  0  0  0
    3.1180  -17.6870  -35.6220 H   0  0  0  0  0  0  0  0  0  0  0  0
  1  3  2  0  0  0  0
  1  2  2  0  0  0  0
  4  5  1  0  0  0  0
  4  1  1  0  0  0  0
  5 31  1  0  0  0  0
  5 32  1  0  0  0  0
  6 33  1  0  0  0  0
  6  5  1  0  0  0  0
  7  6  1  0  0  0  0
  8 35  1  0  0  0  0
  8  9  1  0  0  0  0
  8  7  1  0  0  0  0
  9  4  1  0  0  0  0
 10 11  1  0  0  0  0
 10  7  1  0  0  0  0
 11 42  1  0  0  0  0
 12 11  1  0  0  0  0
 12 13  1  0  0  0  0
 13 14  2  0  0  0  0
 15 43  1  1  0  0  0
 15 13  1  0  0  0  0
 16 44  1  6  0  0  0
 16 22  1  0  0  0  0
 16 15  1  0  0  0  0
 17 45  1  6  0  0  0
 17 16  1  0  0  0  0
 17 18  1  0  0  0  0
 18 19  1  0  0  0  0
 18 47  1  0  0  0  0
 19 15  1  0  0  0  0
 19 48  1  1  0  0  0
 20 19  1  0  0  0  0
 21 17  1  0  0  0  0
 21 20  1  0  0  0  0
 22 12  1  0  0  0  0
 23 22  2  0  0  0  0
 24 29  1  0  0  0  0
 24  1  1  0  0  0  0
 25 24  2  0  0  0  0
 26 25  1  0  0  0  0
 26 27  2  0  0  0  0
 27 28  1  0  0  0  0
 28 53  1  0  0  0  0
 28 29  2  0  0  0  0
 29 54  1  0  0  0  0
 30 27  1  0  0  0  0
 34  6  1  0  0  0  0
 36  8  1  0  0  0  0
 37  9  1  0  0  0  0
 38  9  1  0  0  0  0
 39 10  1  0  0  0  0
 40 10  1  0  0  0  0
 41 11  1  0  0  0  0
 46 18  1  0  0  0  0
 49 20  1  0  0  0  0
 50 21  1  0  0  0  0
 51 25  1  0  0  0  0
 52 26  1  0  0  0  0
M  END
>  <Pose>
1

>  <Score>
-3.98

$$$$
