
 OpenBabel03232221553D

 45 48  0  0  0  0  0  0  0  0999 V2000
    3.9600  -23.0780  -42.3230 S   0  0  0  0  0  0  0  0  0  0  0  0
    2.8460  -22.4890  -43.1200 O   0  0  0  0  0  0  0  0  0  0  0  0
    3.4890  -24.3590  -41.7120 O   0  0  0  0  0  0  0  0  0  0  0  0
    5.3330  -23.3300  -43.2230 N   0  0  0  0  0  0  0  0  0  0  0  0
    6.3010  -22.3120  -43.2890 C   0  0  0  0  0  0  0  0  0  0  0  0
    7.5140  -22.6910  -44.0940 C   0  0  0  0  0  0  0  0  0  0  0  0
    7.6980  -24.0890  -44.2530 N   0  0  0  0  0  0  0  0  0  0  0  0
    6.5600  -24.6960  -44.8440 C   0  0  0  0  0  0  0  0  0  0  0  0
    5.2570  -24.2500  -44.2930 C   0  0  0  0  0  0  0  0  0  0  0  0
    8.2480  -24.6910  -43.0960 C   0  0  0  0  0  0  0  0  0  0  0  0
    9.6370  -25.0040  -43.1260 N   0  0  0  0  0  0  0  0  0  0  0  0
   10.4830  -24.2480  -43.7930 N   0  0  0  0  0  0  0  0  0  0  0  0
   11.8030  -24.4750  -43.8770 C   0  0  0  0  0  0  0  0  0  0  0  0
   12.2840  -25.5790  -43.2120 C   0  0  0  0  0  0  0  0  0  0  0  0
   11.4490  -26.4100  -42.4970 C   0  0  0  0  0  0  0  0  0  0  0  0
   10.1000  -26.0830  -42.4750 C   0  0  0  0  0  0  0  0  0  0  0  0
    9.3280  -26.8570  -41.8090 O   0  0  0  0  0  0  0  0  0  0  0  0
   12.6990  -23.6330  -44.6120 N   0  0  0  0  0  0  0  0  0  0  0  0
   13.8930  -23.1600  -44.2400 C   0  0  0  0  0  0  0  0  0  0  0  0
   14.3870  -22.4090  -45.2420 N   0  0  0  0  0  0  0  0  0  0  0  0
   13.5100  -22.3980  -46.2610 C   0  0  0  0  0  0  0  0  0  0  0  0
   12.4490  -23.1750  -45.8480 C   0  0  0  0  0  0  0  0  0  0  0  0
    4.3260  -21.9390  -41.0100 C   0  0  0  0  0  0  0  0  0  0  0  0
    5.8420  -21.4150  -40.4330 S   0  0  0  0  0  0  0  0  0  0  0  0
    5.3150  -20.3620  -39.2020 C   0  0  0  0  0  0  0  0  0  0  0  0
    3.9460  -20.4510  -39.2760 C   0  0  0  0  0  0  0  0  0  0  0  0
    3.4430  -21.2680  -40.2130 C   0  0  0  0  0  0  0  0  0  0  0  0
    6.3550  -19.3000  -37.9940 B   0  0  0  0  0  0  0  0  0  0  0  0
    5.8370  -21.3850  -43.6870 H   0  0  0  0  0  0  0  0  0  0  0  0
    6.6470  -22.0570  -42.2580 H   0  0  0  0  0  0  0  0  0  0  0  0
    8.4280  -22.2500  -43.6530 H   0  0  0  0  0  0  0  0  0  0  0  0
    7.4110  -22.2370  -45.1060 H   0  0  0  0  0  0  0  0  0  0  0  0
    6.6490  -25.8200  -44.9080 H   0  0  0  0  0  0  0  0  0  0  0  0
    6.5790  -24.3960  -45.9370 H   0  0  0  0  0  0  0  0  0  0  0  0
    4.6950  -25.1590  -43.9490 H   0  0  0  0  0  0  0  0  0  0  0  0
    4.5920  -23.8050  -45.0810 H   0  0  0  0  0  0  0  0  0  0  0  0
    8.1060  -23.9550  -42.2490 H   0  0  0  0  0  0  0  0  0  0  0  0
    7.6520  -25.5850  -42.7580 H   0  0  0  0  0  0  0  0  0  0  0  0
   13.3440  -25.7990  -43.2540 H   0  0  0  0  0  0  0  0  0  0  0  0
   11.8140  -27.2780  -41.9710 H   0  0  0  0  0  0  0  0  0  0  0  0
   14.3730  -23.3580  -43.2820 H   0  0  0  0  0  0  0  0  0  0  0  0
   13.6290  -21.8720  -47.2200 H   0  0  0  0  0  0  0  0  0  0  0  0
   11.5760  -23.3660  -46.4440 H   0  0  0  0  0  0  0  0  0  0  0  0
    3.3240  -19.8490  -38.5670 H   0  0  0  0  0  0  0  0  0  0  0  0
    2.3410  -21.3920  -40.3330 H   0  0  0  0  0  0  0  0  0  0  0  0
  1  3  2  0  0  0  0
  1 23  1  0  0  0  0
  2  1  2  0  0  0  0
  4  1  1  0  0  0  0
  5  4  1  0  0  0  0
  5 30  1  0  0  0  0
  6 31  1  0  0  0  0
  6  5  1  0  0  0  0
  7  6  1  0  0  0  0
  7 10  1  0  0  0  0
  8  9  1  0  0  0  0
  8  7  1  0  0  0  0
  9 35  1  0  0  0  0
  9  4  1  0  0  0  0
 10 38  1  0  0  0  0
 10 37  1  0  0  0  0
 11 10  1  0  0  0  0
 11 16  1  0  0  0  0
 12 11  1  0  0  0  0
 13 12  2  0  0  0  0
 13 14  1  0  0  0  0
 14 15  2  0  0  0  0
 15 16  1  0  0  0  0
 15 40  1  0  0  0  0
 16 17  2  0  0  0  0
 18 19  1  0  0  0  0
 18 13  1  0  0  0  0
 19 41  1  0  0  0  0
 20 19  2  0  0  0  0
 21 22  2  0  0  0  0
 21 20  1  0  0  0  0
 22 18  1  0  0  0  0
 23 24  1  0  0  0  0
 23 27  2  0  0  0  0
 24 25  1  0  0  0  0
 25 28  1  0  0  0  0
 26 25  2  0  0  0  0
 26 44  1  0  0  0  0
 27 26  1  0  0  0  0
 29  5  1  0  0  0  0
 32  6  1  0  0  0  0
 33  8  1  0  0  0  0
 34  8  1  0  0  0  0
 36  9  1  0  0  0  0
 39 14  1  0  0  0  0
 42 21  1  0  0  0  0
 43 22  1  0  0  0  0
 45 27  1  0  0  0  0
M  END
>  <Pose>
1

>  <Score>
-5.32

$$$$
