
 OpenBabel03232221553D

 52 55  0  0  0  0  0  0  0  0999 V2000
    4.6090  -20.6610  -38.8520 S   0  0  0  0  0  0  0  0  0  0  0  0
    4.4470  -21.7780  -37.8550 O   0  0  0  0  0  0  0  0  0  0  0  0
    5.8930  -19.9520  -38.4900 O   0  0  0  0  0  0  0  0  0  0  0  0
    3.3460  -19.5110  -38.7400 N   0  0  0  0  0  0  0  0  0  0  0  0
    2.0370  -20.0690  -38.8710 C   0  0  0  0  0  0  0  0  0  0  0  0
    1.0910  -18.8750  -39.0830 C   0  0  0  0  0  0  0  0  0  0  0  0
    1.5500  -17.7280  -38.4280 N   0  0  0  0  0  0  0  0  0  0  0  0
    2.2900  -17.9420  -37.2140 C   0  0  0  0  0  0  0  0  0  0  0  0
    3.3970  -18.9600  -37.3740 C   0  0  0  0  0  0  0  0  0  0  0  0
    1.8800  -16.5660  -39.1400 C   0  0  0  0  0  0  0  0  0  0  0  0
    1.4650  -15.3040  -38.6170 N   0  0  0  0  0  0  0  0  0  0  0  0
    1.3380  -14.1700  -39.4590 N   0  0  0  0  0  0  0  0  0  0  0  0
    0.8980  -13.1100  -38.6130 C   0  0  0  0  0  0  0  0  0  0  0  0
    0.6680  -11.8800  -39.0560 C   0  0  0  0  0  0  0  0  0  0  0  0
    0.2170  -10.6210  -38.4220 C   0  0  0  0  0  0  0  0  0  0  0  0
    0.5970  -10.5870  -36.9610 C   0  0  0  0  0  0  0  0  0  0  0  0
   -0.3200  -11.5760  -36.2630 C   0  0  0  0  0  0  0  0  0  0  0  0
    0.3430  -12.9040  -36.0630 C   0  0  0  0  0  0  0  0  0  0  0  0
    0.7480  -13.5520  -37.2730 N   0  0  0  0  0  0  0  0  0  0  0  0
    1.1090  -14.9300  -37.2950 C   0  0  0  0  0  0  0  0  0  0  0  0
    1.1000  -15.6640  -36.2750 O   0  0  0  0  0  0  0  0  0  0  0  0
    4.8000  -21.3360  -40.4240 C   0  0  0  0  0  0  0  0  0  0  0  0
    4.1460  -22.4260  -40.9170 C   0  0  0  0  0  0  0  0  0  0  0  0
    4.3750  -22.8900  -42.2040 C   0  0  0  0  0  0  0  0  0  0  0  0
    5.2650  -22.2750  -43.0340 C   0  0  0  0  0  0  0  0  0  0  0  0
    5.9460  -21.1640  -42.5600 C   0  0  0  0  0  0  0  0  0  0  0  0
    5.7110  -20.7140  -41.2850 C   0  0  0  0  0  0  0  0  0  0  0  0
    3.4410  -24.4290  -42.8770 B   0  0  0  0  0  0  0  0  0  0  0  0
    1.9310  -20.8150  -39.6740 H   0  0  0  0  0  0  0  0  0  0  0  0
    1.7000  -20.5570  -37.9170 H   0  0  0  0  0  0  0  0  0  0  0  0
    1.0620  -18.7290  -40.1750 H   0  0  0  0  0  0  0  0  0  0  0  0
    0.0530  -19.1670  -38.7890 H   0  0  0  0  0  0  0  0  0  0  0  0
    2.7700  -16.9810  -36.9380 H   0  0  0  0  0  0  0  0  0  0  0  0
    1.5800  -18.1940  -36.4080 H   0  0  0  0  0  0  0  0  0  0  0  0
    3.1540  -19.8110  -36.7040 H   0  0  0  0  0  0  0  0  0  0  0  0
    4.3850  -18.5900  -37.1120 H   0  0  0  0  0  0  0  0  0  0  0  0
    1.5420  -16.6870  -40.1990 H   0  0  0  0  0  0  0  0  0  0  0  0
    3.0080  -16.5330  -39.2300 H   0  0  0  0  0  0  0  0  0  0  0  0
    1.5280  -14.1200  -40.4870 H   0  0  0  0  0  0  0  0  0  0  0  0
    0.8610  -11.8030  -40.1380 H   0  0  0  0  0  0  0  0  0  0  0  0
   -0.8690  -10.4520  -38.5760 H   0  0  0  0  0  0  0  0  0  0  0  0
    0.7850   -9.7900  -38.9290 H   0  0  0  0  0  0  0  0  0  0  0  0
    0.4890   -9.5660  -36.5600 H   0  0  0  0  0  0  0  0  0  0  0  0
    1.6280  -10.9890  -36.8750 H   0  0  0  0  0  0  0  0  0  0  0  0
   -0.5970  -11.1270  -35.2900 H   0  0  0  0  0  0  0  0  0  0  0  0
   -1.2500  -11.7200  -36.8410 H   0  0  0  0  0  0  0  0  0  0  0  0
    1.2450  -12.7260  -35.4290 H   0  0  0  0  0  0  0  0  0  0  0  0
   -0.3530  -13.5470  -35.4770 H   0  0  0  0  0  0  0  0  0  0  0  0
    3.4380  -22.9220  -40.2680 H   0  0  0  0  0  0  0  0  0  0  0  0
    5.4410  -22.6440  -44.0430 H   0  0  0  0  0  0  0  0  0  0  0  0
    6.6540  -20.6680  -43.2090 H   0  0  0  0  0  0  0  0  0  0  0  0
    6.2610  -19.8420  -40.9490 H   0  0  0  0  0  0  0  0  0  0  0  0
  1  4  1  0  0  0  0
  1  3  2  0  0  0  0
  1  2  2  0  0  0  0
  4  9  1  0  0  0  0
  5  4  1  0  0  0  0
  5 30  1  0  0  0  0
  6  5  1  0  0  0  0
  6 32  1  0  0  0  0
  6  7  1  0  0  0  0
  7  8  1  0  0  0  0
  8 33  1  0  0  0  0
  8 34  1  0  0  0  0
  9  8  1  0  0  0  0
  9 36  1  0  0  0  0
  9 35  1  0  0  0  0
 10 11  1  0  0  0  0
 10  7  1  0  0  0  0
 11 20  1  0  0  0  0
 12 11  1  0  0  0  0
 12 13  1  0  0  0  0
 13 19  1  0  0  0  0
 14 13  2  0  0  0  0
 14 15  1  0  0  0  0
 15 16  1  0  0  0  0
 16 44  1  0  0  0  0
 16 43  1  0  0  0  0
 16 17  1  0  0  0  0
 17 18  1  0  0  0  0
 17 45  1  0  0  0  0
 18 48  1  0  0  0  0
 18 47  1  0  0  0  0
 19 18  1  0  0  0  0
 20 19  1  0  0  0  0
 20 21  2  0  0  0  0
 22  1  1  0  0  0  0
 23 22  1  0  0  0  0
 23 49  1  0  0  0  0
 24 23  2  0  0  0  0
 25 26  2  0  0  0  0
 25 24  1  0  0  0  0
 26 27  1  0  0  0  0
 27 52  1  0  0  0  0
 27 22  2  0  0  0  0
 28 24  1  0  0  0  0
 29  5  1  0  0  0  0
 31  6  1  0  0  0  0
 37 10  1  0  0  0  0
 38 10  1  0  0  0  0
 39 12  1  0  0  0  0
 40 14  1  0  0  0  0
 41 15  1  0  0  0  0
 42 15  1  0  0  0  0
 46 17  1  0  0  0  0
 50 25  1  0  0  0  0
 51 26  1  0  0  0  0
M  END
>  <Pose>
1

>  <Score>
-3.96

$$$$
