
 OpenBabel03232221553D

 44 47  0  0  0  0  0  0  0  0999 V2000
    4.7480  -20.7670  -38.9360 S   0  0  0  0  0  0  0  0  0  0  0  0
    6.1580  -20.3370  -38.8470 O   0  0  0  0  0  0  0  0  0  0  0  0
    4.6320  -22.0340  -38.0970 O   0  0  0  0  0  0  0  0  0  0  0  0
    4.2070  -21.1360  -40.5060 N   0  0  0  0  0  0  0  0  0  0  0  0
    4.8550  -22.1980  -41.1750 C   0  0  0  0  0  0  0  0  0  0  0  0
    5.7160  -21.8400  -42.3400 C   0  0  0  0  0  0  0  0  0  0  0  0
    5.7780  -20.4290  -42.6280 N   0  0  0  0  0  0  0  0  0  0  0  0
    4.6220  -19.6200  -42.4150 C   0  0  0  0  0  0  0  0  0  0  0  0
    3.7650  -20.0310  -41.2680 C   0  0  0  0  0  0  0  0  0  0  0  0
    7.0180  -19.9120  -43.1320 C   0  0  0  0  0  0  0  0  0  0  0  0
    7.8010  -20.5040  -44.0500 N   0  0  0  0  0  0  0  0  0  0  0  0
    8.8480  -19.6840  -44.2010 N   0  0  0  0  0  0  0  0  0  0  0  0
    8.7120  -18.6390  -43.4140 N   0  0  0  0  0  0  0  0  0  0  0  0
    7.5900  -18.7440  -42.7350 N   0  0  0  0  0  0  0  0  0  0  0  0
    7.5560  -21.7320  -44.7190 C   0  0  0  0  0  0  0  0  0  0  0  0
    6.7750  -21.7870  -45.8510 C   0  0  0  0  0  0  0  0  0  0  0  0
    6.5540  -23.0080  -46.4860 C   0  0  0  0  0  0  0  0  0  0  0  0
    7.1020  -24.1760  -46.0030 C   0  0  0  0  0  0  0  0  0  0  0  0
    7.8970  -24.1210  -44.8510 C   0  0  0  0  0  0  0  0  0  0  0  0
    8.1080  -22.8890  -44.2290 C   0  0  0  0  0  0  0  0  0  0  0  0
    3.6980  -19.5810  -38.2120 C   0  0  0  0  0  0  0  0  0  0  0  0
    3.8720  -19.1110  -36.9340 C   0  0  0  0  0  0  0  0  0  0  0  0
    3.0250  -18.1590  -36.3670 C   0  0  0  0  0  0  0  0  0  0  0  0
    1.9660  -17.6750  -37.1410 C   0  0  0  0  0  0  0  0  0  0  0  0
    1.7820  -18.1400  -38.4240 C   0  0  0  0  0  0  0  0  0  0  0  0
    2.6340  -19.0740  -38.9440 C   0  0  0  0  0  0  0  0  0  0  0  0
    0.7670  -16.3650  -36.4280 B   0  0  0  0  0  0  0  0  0  0  0  0
    5.4020  -22.7960  -40.4010 H   0  0  0  0  0  0  0  0  0  0  0  0
    4.0370  -22.8920  -41.5390 H   0  0  0  0  0  0  0  0  0  0  0  0
    6.7370  -22.2620  -42.1250 H   0  0  0  0  0  0  0  0  0  0  0  0
    5.3820  -22.4170  -43.2380 H   0  0  0  0  0  0  0  0  0  0  0  0
    4.9200  -18.5430  -42.2480 H   0  0  0  0  0  0  0  0  0  0  0  0
    4.0470  -19.6300  -43.3870 H   0  0  0  0  0  0  0  0  0  0  0  0
    2.7430  -20.2790  -41.6780 H   0  0  0  0  0  0  0  0  0  0  0  0
    3.5580  -19.1630  -40.5780 H   0  0  0  0  0  0  0  0  0  0  0  0
    6.3070  -20.8980  -46.2900 H   0  0  0  0  0  0  0  0  0  0  0  0
    5.9390  -23.0870  -47.3890 H   0  0  0  0  0  0  0  0  0  0  0  0
    6.9510  -25.1340  -46.4700 H   0  0  0  0  0  0  0  0  0  0  0  0
    8.3230  -25.0350  -44.4790 H   0  0  0  0  0  0  0  0  0  0  0  0
    8.7350  -22.9230  -43.3370 H   0  0  0  0  0  0  0  0  0  0  0  0
    4.7010  -19.4840  -36.3150 H   0  0  0  0  0  0  0  0  0  0  0  0
    3.1410  -17.7780  -35.3720 H   0  0  0  0  0  0  0  0  0  0  0  0
    0.9360  -17.7270  -38.9850 H   0  0  0  0  0  0  0  0  0  0  0  0
    2.4540  -19.4220  -39.9750 H   0  0  0  0  0  0  0  0  0  0  0  0
  1  2  2  0  0  0  0
  1 21  1  0  0  0  0
  1  3  2  0  0  0  0
  4  1  1  0  0  0  0
  5  4  1  0  0  0  0
  5 28  1  0  0  0  0
  6 30  1  0  0  0  0
  6  5  1  0  0  0  0
  7  8  1  0  0  0  0
  7  6  1  0  0  0  0
  8 32  1  0  0  0  0
  8  9  1  0  0  0  0
  9 35  1  0  0  0  0
  9  4  1  0  0  0  0
 10 14  2  0  0  0  0
 10  7  1  0  0  0  0
 11 10  1  0  0  0  0
 12 11  1  0  0  0  0
 12 13  2  0  0  0  0
 13 14  1  0  0  0  0
 15 20  1  0  0  0  0
 15 11  1  0  0  0  0
 16 15  2  0  0  0  0
 17 18  2  0  0  0  0
 17 16  1  0  0  0  0
 18 19  1  0  0  0  0
 19 39  1  0  0  0  0
 19 20  2  0  0  0  0
 20 40  1  0  0  0  0
 21 22  1  0  0  0  0
 22 23  2  0  0  0  0
 22 41  1  0  0  0  0
 23 42  1  0  0  0  0
 24 27  1  0  0  0  0
 24 23  1  0  0  0  0
 25 24  2  0  0  0  0
 26 25  1  0  0  0  0
 26 21  2  0  0  0  0
 29  5  1  0  0  0  0
 31  6  1  0  0  0  0
 33  8  1  0  0  0  0
 34  9  1  0  0  0  0
 36 16  1  0  0  0  0
 37 17  1  0  0  0  0
 38 18  1  0  0  0  0
 43 25  1  0  0  0  0
 44 26  1  0  0  0  0
M  END
>  <Pose>
1

>  <Score>
-4.08

$$$$
