
 OpenBabel03232221553D

 37 40  0  0  0  0  0  0  0  0999 V2000
    1.0000  -16.5000  -36.6870 S   0  0  0  0  0  0  0  0  0  0  0  0
    2.2380  -17.0340  -35.9760 O   0  0  0  0  0  0  0  0  0  0  0  0
   -0.0230  -16.2740  -35.6340 O   0  0  0  0  0  0  0  0  0  0  0  0
    0.5320  -17.6080  -37.8470 N   0  0  0  0  0  0  0  0  0  0  0  0
    0.4420  -18.9740  -37.5030 C   0  0  0  0  0  0  0  0  0  0  0  0
    1.6070  -19.8390  -37.9140 C   0  0  0  0  0  0  0  0  0  0  0  0
    2.5880  -19.1290  -38.6740 N   0  0  0  0  0  0  0  0  0  0  0  0
    2.2750  -17.9830  -39.5090 C   0  0  0  0  0  0  0  0  0  0  0  0
    0.9280  -17.4060  -39.1860 C   0  0  0  0  0  0  0  0  0  0  0  0
    3.9490  -19.5360  -38.6310 C   0  0  0  0  0  0  0  0  0  0  0  0
    4.8200  -18.8860  -37.8020 N   0  0  0  0  0  0  0  0  0  0  0  0
    6.0990  -19.2570  -37.7400 C   0  0  0  0  0  0  0  0  0  0  0  0
    6.5820  -20.2620  -38.4690 N   0  0  0  0  0  0  0  0  0  0  0  0
    5.7500  -20.9080  -39.2830 C   0  0  0  0  0  0  0  0  0  0  0  0
    5.9480  -21.9310  -40.1200 N   0  0  0  0  0  0  0  0  0  0  0  0
    4.7660  -22.2210  -40.7330 C   0  0  0  0  0  0  0  0  0  0  0  0
    3.8200  -21.3910  -40.2930 N   0  0  0  0  0  0  0  0  0  0  0  0
    4.3990  -20.5750  -39.4010 C   0  0  0  0  0  0  0  0  0  0  0  0
    1.4770  -14.9210  -37.3190 C   0  0  0  0  0  0  0  0  0  0  0  0
    1.3640  -13.3850  -36.5900 S   0  0  0  0  0  0  0  0  0  0  0  0
    2.0250  -12.4330  -37.8360 C   0  0  0  0  0  0  0  0  0  0  0  0
    2.3230  -13.3590  -38.8070 C   0  0  0  0  0  0  0  0  0  0  0  0
    2.0380  -14.6370  -38.5330 C   0  0  0  0  0  0  0  0  0  0  0  0
    2.2970  -10.5440  -37.8960 B   0  0  0  0  0  0  0  0  0  0  0  0
    0.1980  -19.1620  -36.4300 H   0  0  0  0  0  0  0  0  0  0  0  0
   -0.4670  -19.3760  -38.0450 H   0  0  0  0  0  0  0  0  0  0  0  0
    1.2200  -20.7610  -38.3920 H   0  0  0  0  0  0  0  0  0  0  0  0
    2.0990  -20.2190  -36.9740 H   0  0  0  0  0  0  0  0  0  0  0  0
    3.0370  -17.1920  -39.3750 H   0  0  0  0  0  0  0  0  0  0  0  0
    2.3200  -18.3120  -40.5690 H   0  0  0  0  0  0  0  0  0  0  0  0
    0.8930  -16.3240  -39.4190 H   0  0  0  0  0  0  0  0  0  0  0  0
    0.1790  -17.9190  -39.8530 H   0  0  0  0  0  0  0  0  0  0  0  0
    6.7960  -18.7450  -37.0830 H   0  0  0  0  0  0  0  0  0  0  0  0
    4.6600  -23.0110  -41.4570 H   0  0  0  0  0  0  0  0  0  0  0  0
    2.8300  -21.3970  -40.6010 H   0  0  0  0  0  0  0  0  0  0  0  0
    2.7820  -13.0140  -39.7650 H   0  0  0  0  0  0  0  0  0  0  0  0
    2.2440  -15.4550  -39.2580 H   0  0  0  0  0  0  0  0  0  0  0  0
  1  2  2  0  0  0  0
  1  3  2  0  0  0  0
  4  5  1  0  0  0  0
  4  1  1  0  0  0  0
  5 25  1  0  0  0  0
  6  5  1  0  0  0  0
  6 28  1  0  0  0  0
  7 10  1  0  0  0  0
  7  6  1  0  0  0  0
  8 29  1  0  0  0  0
  8  9  1  0  0  0  0
  8  7  1  0  0  0  0
  9  4  1  0  0  0  0
 10 11  1  0  0  0  0
 11 12  2  0  0  0  0
 12 33  1  0  0  0  0
 13 12  1  0  0  0  0
 14 13  2  0  0  0  0
 15 14  1  0  0  0  0
 16 17  1  0  0  0  0
 16 15  2  0  0  0  0
 17 18  1  0  0  0  0
 18 14  1  0  0  0  0
 18 10  2  0  0  0  0
 19  1  1  0  0  0  0
 19 20  1  0  0  0  0
 21 20  1  0  0  0  0
 22 23  1  0  0  0  0
 22 21  2  0  0  0  0
 23 19  2  0  0  0  0
 24 21  1  0  0  0  0
 26  5  1  0  0  0  0
 27  6  1  0  0  0  0
 30  8  1  0  0  0  0
 31  9  1  0  0  0  0
 32  9  1  0  0  0  0
 34 16  1  0  0  0  0
 35 17  1  0  0  0  0
 36 22  1  0  0  0  0
 37 23  1  0  0  0  0
M  END
>  <Pose>
1

>  <Score>
-5.37

$$$$
