
 OpenBabel03232221553D

 40 43  0  0  1  0  0  0  0  0999 V2000
    3.2730  -19.6110  -37.4070 S   0  0  0  0  0  0  0  0  0  0  0  0
    3.1100  -20.8350  -36.5440 O   0  0  0  0  0  0  0  0  0  0  0  0
    4.2900  -18.7290  -36.6970 O   0  0  0  0  0  0  0  0  0  0  0  0
    1.8370  -18.7190  -37.5660 N   0  0  0  0  0  0  0  0  0  0  0  0
    2.0780  -17.5170  -38.2910 C   0  0  0  0  0  0  0  0  0  0  0  0
    0.8740  -17.0530  -39.0830 C   0  0  0  0  0  0  0  0  0  0  0  0
   -0.2990  -17.3980  -38.3200 N   0  0  0  0  0  0  0  0  0  0  0  0
   -0.5580  -18.8070  -38.1680 C   0  0  0  0  0  0  0  0  0  0  0  0
    0.7360  -19.5160  -37.9930 C   0  0  0  0  0  0  0  0  0  0  0  0
   -1.1620  -16.4380  -37.7430 C   0  0  1  0  0  0  0  0  0  0  0  0
   -2.4890  -16.5550  -37.7910 C   0  0  0  0  0  0  0  0  0  0  0  0
   -3.4070  -15.5930  -37.2100 C   0  0  0  0  0  0  0  0  0  0  0  0
   -4.7170  -15.7600  -37.2890 C   0  0  0  0  0  0  0  0  0  0  0  0
   -2.8760  -14.4610  -36.5530 N   0  0  0  0  0  0  0  0  0  0  0  0
   -1.4440  -14.3690  -36.5200 C   0  0  0  0  0  0  0  0  0  0  0  0
   -0.6370  -15.2870  -37.0730 N   0  0  0  0  0  0  0  0  0  0  0  0
    0.6340  -14.9250  -36.8790 N   0  0  0  0  0  0  0  0  0  0  0  0
    0.6630  -13.7670  -36.1980 C   0  0  0  0  0  0  0  0  0  0  0  0
   -0.6210  -13.4340  -35.9830 N   0  0  0  0  0  0  0  0  0  0  0  0
    3.9880  -20.0270  -38.9630 C   0  0  0  0  0  0  0  0  0  0  0  0
    4.7040  -21.5080  -39.3870 S   0  0  0  0  0  0  0  0  0  0  0  0
    5.1440  -21.1550  -40.9930 C   0  0  0  0  0  0  0  0  0  0  0  0
    4.7130  -19.8670  -41.1610 C   0  0  0  0  0  0  0  0  0  0  0  0
    4.1090  -19.2800  -40.0990 C   0  0  0  0  0  0  0  0  0  0  0  0
    6.0350  -22.2690  -42.2950 B   0  0  0  0  0  0  0  0  0  0  0  0
    3.0130  -17.5230  -38.8890 H   0  0  0  0  0  0  0  0  0  0  0  0
    2.2490  -16.7060  -37.5210 H   0  0  0  0  0  0  0  0  0  0  0  0
    0.9260  -15.9920  -39.3540 H   0  0  0  0  0  0  0  0  0  0  0  0
    0.8430  -17.6560  -40.0140 H   0  0  0  0  0  0  0  0  0  0  0  0
   -1.3060  -19.0260  -37.3810 H   0  0  0  0  0  0  0  0  0  0  0  0
   -1.0570  -19.1700  -39.1160 H   0  0  0  0  0  0  0  0  0  0  0  0
    0.5670  -20.2760  -37.1720 H   0  0  0  0  0  0  0  0  0  0  0  0
    0.9440  -20.1350  -38.8850 H   0  0  0  0  0  0  0  0  0  0  0  0
   -2.8870  -17.4220  -38.2950 H   0  0  0  0  0  0  0  0  0  0  0  0
   -5.1260  -16.6340  -37.7970 H   0  0  0  0  0  0  0  0  0  0  0  0
   -5.4200  -15.0590  -36.8660 H   0  0  0  0  0  0  0  0  0  0  0  0
   -3.4400  -13.7240  -36.1100 H   0  0  0  0  0  0  0  0  0  0  0  0
    1.5440  -13.2010  -35.8790 H   0  0  0  0  0  0  0  0  0  0  0  0
    4.8750  -19.3650  -42.1510 H   0  0  0  0  0  0  0  0  0  0  0  0
    3.7380  -18.2270  -40.1820 H   0  0  0  0  0  0  0  0  0  0  0  0
  1  3  2  0  0  0  0
  1  2  2  0  0  0  0
  4  1  1  0  0  0  0
  5  4  1  0  0  0  0
  5 27  1  0  0  0  0
  6  7  1  0  0  0  0
  6  5  1  0  0  0  0
  7  8  1  0  0  0  0
  8  9  1  0  0  0  0
  8 30  1  0  0  0  0
  9  4  1  0  0  0  0
  9 32  1  0  0  0  0
 10  7  1  1  0  0  0
 10 16  1  0  0  0  0
 11 10  1  0  0  0  0
 11 12  2  0  0  0  0
 12 14  1  0  0  0  0
 13 12  1  0  0  0  0
 13 36  1  0  0  0  0
 14 15  1  0  0  0  0
 14 37  1  0  0  0  0
 15 19  2  0  0  0  0
 16 17  1  0  0  0  0
 16 15  1  0  0  0  0
 17 18  2  0  0  0  0
 18 19  1  0  0  0  0
 18 38  1  0  0  0  0
 20  1  1  0  0  0  0
 21 20  1  0  0  0  0
 22 21  1  0  0  0  0
 23 22  2  0  0  0  0
 23 24  1  0  0  0  0
 24 20  2  0  0  0  0
 25 22  1  0  0  0  0
 26  5  1  0  0  0  0
 28  6  1  0  0  0  0
 29  6  1  0  0  0  0
 31  8  1  0  0  0  0
 33  9  1  0  0  0  0
 34 11  1  0  0  0  0
 35 13  1  0  0  0  0
 39 23  1  0  0  0  0
 40 24  1  0  0  0  0
M  END
>  <Pose>
1

>  <Score>
-4.42

$$$$
