
 OpenBabel03232221553D

 43 46  0  0  0  0  0  0  0  0999 V2000
    5.7460  -21.2770  -41.9720 S   0  0  0  0  0  0  0  0  0  0  0  0
    4.2670  -21.2460  -42.3390 O   0  0  0  0  0  0  0  0  0  0  0  0
    6.3020  -22.5230  -42.5950 O   0  0  0  0  0  0  0  0  0  0  0  0
    5.8460  -21.3530  -40.2750 N   0  0  0  0  0  0  0  0  0  0  0  0
    6.2470  -20.1600  -39.6300 C   0  0  0  0  0  0  0  0  0  0  0  0
    5.1540  -19.2860  -39.1250 C   0  0  0  0  0  0  0  0  0  0  0  0
    4.0830  -20.0740  -38.4950 N   0  0  0  0  0  0  0  0  0  0  0  0
    4.3990  -21.4730  -38.3000 C   0  0  0  0  0  0  0  0  0  0  0  0
    4.7340  -22.0330  -39.6690 C   0  0  0  0  0  0  0  0  0  0  0  0
    2.8590  -19.4700  -38.1240 C   0  0  0  0  0  0  0  0  0  0  0  0
    2.8880  -18.3710  -37.2740 C   0  0  0  0  0  0  0  0  0  0  0  0
    1.6760  -17.7840  -36.9160 C   0  0  0  0  0  0  0  0  0  0  0  0
    0.5170  -18.2480  -37.3660 N   0  0  0  0  0  0  0  0  0  0  0  0
   -0.4550  -17.4790  -36.8490 C   0  0  0  0  0  0  0  0  0  0  0  0
    0.1360  -16.5450  -36.0800 N   0  0  0  0  0  0  0  0  0  0  0  0
    1.4450  -16.7280  -36.1170 N   0  0  0  0  0  0  0  0  0  0  0  0
   -1.9280  -17.6270  -37.0810 C   0  0  0  0  0  0  0  0  0  0  0  0
    0.4760  -19.2780  -38.1650 N   0  0  0  0  0  0  0  0  0  0  0  0
    1.6290  -19.8870  -38.5450 C   0  0  0  0  0  0  0  0  0  0  0  0
    6.4500  -19.8310  -42.6440 C   0  0  0  0  0  0  0  0  0  0  0  0
    5.7820  -18.6150  -42.6210 C   0  0  0  0  0  0  0  0  0  0  0  0
    6.3400  -17.4730  -43.1530 C   0  0  0  0  0  0  0  0  0  0  0  0
    7.6010  -17.5510  -43.7220 C   0  0  0  0  0  0  0  0  0  0  0  0
    8.3060  -18.7380  -43.7680 C   0  0  0  0  0  0  0  0  0  0  0  0
    7.7120  -19.8550  -43.2260 C   0  0  0  0  0  0  0  0  0  0  0  0
    8.3610  -15.9540  -44.4570 B   0  0  0  0  0  0  0  0  0  0  0  0
    6.9180  -20.4360  -38.7650 H   0  0  0  0  0  0  0  0  0  0  0  0
    6.8940  -19.5820  -40.3170 H   0  0  0  0  0  0  0  0  0  0  0  0
    5.5610  -18.6320  -38.3220 H   0  0  0  0  0  0  0  0  0  0  0  0
    4.7530  -18.6220  -39.9100 H   0  0  0  0  0  0  0  0  0  0  0  0
    3.5950  -22.0760  -37.8850 H   0  0  0  0  0  0  0  0  0  0  0  0
    5.3480  -21.5540  -37.6930 H   0  0  0  0  0  0  0  0  0  0  0  0
    4.9170  -23.1250  -39.6360 H   0  0  0  0  0  0  0  0  0  0  0  0
    3.8430  -21.8740  -40.3100 H   0  0  0  0  0  0  0  0  0  0  0  0
    3.8010  -17.9550  -36.8780 H   0  0  0  0  0  0  0  0  0  0  0  0
   -2.1540  -18.6620  -37.4350 H   0  0  0  0  0  0  0  0  0  0  0  0
   -2.4620  -17.4810  -36.1410 H   0  0  0  0  0  0  0  0  0  0  0  0
   -2.2880  -16.9050  -37.8390 H   0  0  0  0  0  0  0  0  0  0  0  0
    1.5370  -20.7190  -39.1950 H   0  0  0  0  0  0  0  0  0  0  0  0
    4.7930  -18.5990  -42.1640 H   0  0  0  0  0  0  0  0  0  0  0  0
    5.7670  -16.5650  -43.1020 H   0  0  0  0  0  0  0  0  0  0  0  0
    9.2850  -18.7320  -44.2260 H   0  0  0  0  0  0  0  0  0  0  0  0
    8.2500  -20.7750  -43.2590 H   0  0  0  0  0  0  0  0  0  0  0  0
  1  4  1  0  0  0  0
  2  1  2  0  0  0  0
  3  1  2  0  0  0  0
  4  9  1  0  0  0  0
  4  5  1  0  0  0  0
  5  6  1  0  0  0  0
  5 27  1  0  0  0  0
  6  7  1  0  0  0  0
  6 29  1  0  0  0  0
  7  8  1  0  0  0  0
  7 10  1  0  0  0  0
  8 31  1  0  0  0  0
  8 32  1  0  0  0  0
  9 33  1  0  0  0  0
  9  8  1  0  0  0  0
 10 11  2  0  0  0  0
 11 12  1  0  0  0  0
 11 35  1  0  0  0  0
 12 16  2  0  0  0  0
 13 12  1  0  0  0  0
 13 14  1  0  0  0  0
 14 15  2  0  0  0  0
 16 15  1  0  0  0  0
 17 14  1  0  0  0  0
 17 37  1  0  0  0  0
 18 13  1  0  0  0  0
 19 18  2  0  0  0  0
 19 10  1  0  0  0  0
 20 21  1  0  0  0  0
 20  1  1  0  0  0  0
 21 40  1  0  0  0  0
 22 41  1  0  0  0  0
 22 21  2  0  0  0  0
 23 22  1  0  0  0  0
 24 23  2  0  0  0  0
 24 25  1  0  0  0  0
 25 20  2  0  0  0  0
 26 23  1  0  0  0  0
 28  5  1  0  0  0  0
 30  6  1  0  0  0  0
 34  9  1  0  0  0  0
 36 17  1  0  0  0  0
 38 17  1  0  0  0  0
 39 19  1  0  0  0  0
 42 24  1  0  0  0  0
 43 25  1  0  0  0  0
M  END
>  <Pose>
1

>  <Score>
-4.32

$$$$
