
 OpenBabel03232221553D

 57 60  0  0  1  0  0  0  0  0999 V2000
    4.9540  -19.9320  -41.6590 S   0  0  0  0  0  0  0  0  0  0  0  0
    3.6580  -19.3750  -42.1560 O   0  0  0  0  0  0  0  0  0  0  0  0
    4.9350  -21.4160  -42.0030 O   0  0  0  0  0  0  0  0  0  0  0  0
    5.2170  -19.7050  -39.9950 N   0  0  0  0  0  0  0  0  0  0  0  0
    6.4320  -20.3370  -39.6030 C   0  0  0  0  0  0  0  0  0  0  0  0
    6.2810  -21.3870  -38.5270 C   0  0  0  0  0  0  0  0  0  0  0  0
    5.1470  -22.2680  -38.8170 N   0  0  0  0  0  0  0  0  0  0  0  0
    3.9520  -21.5470  -39.1930 C   0  0  0  0  0  0  0  0  0  0  0  0
    2.9070  -22.1170  -39.5150 O   0  0  0  0  0  0  0  0  0  0  0  0
    4.1450  -20.0590  -39.1400 C   0  0  2  0  0  0  0  0  0  0  0  0
    2.8790  -19.3100  -39.2770 C   0  0  0  0  0  0  0  0  0  0  0  0
    2.3480  -18.9820  -37.9320 C   0  0  0  0  0  0  0  0  0  0  0  0
    2.5910  -19.8090  -37.0130 O   0  0  0  0  0  0  0  0  0  0  0  0
    1.5990  -17.7910  -37.6860 N   0  0  0  0  0  0  0  0  0  0  0  0
    0.6460  -17.3050  -38.6460 C   0  0  0  0  0  0  0  0  0  0  0  0
   -0.5010  -16.5540  -38.0460 C   0  0  0  0  0  0  0  0  0  0  0  0
   -0.1640  -15.8350  -36.8290 N   0  0  0  0  0  0  0  0  0  0  0  0
    0.5060  -16.6420  -35.8210 C   0  0  0  0  0  0  0  0  0  0  0  0
    1.8110  -17.0780  -36.4540 C   0  0  0  0  0  0  0  0  0  0  0  0
   -0.4460  -14.4860  -36.5770 C   0  0  0  0  0  0  0  0  0  0  0  0
    0.5670  -13.6490  -36.1650 C   0  0  0  0  0  0  0  0  0  0  0  0
    0.2820  -12.3170  -35.9020 C   0  0  0  0  0  0  0  0  0  0  0  0
   -0.9780  -11.7880  -36.0350 C   0  0  0  0  0  0  0  0  0  0  0  0
   -1.9860  -12.6280  -36.4480 C   0  0  0  0  0  0  0  0  0  0  0  0
   -1.7080  -13.9610  -36.7120 C   0  0  0  0  0  0  0  0  0  0  0  0
    6.2500  -19.2430  -42.6200 C   0  0  0  0  0  0  0  0  0  0  0  0
    7.2850  -20.0120  -43.1370 C   0  0  0  0  0  0  0  0  0  0  0  0
    8.3060  -19.4970  -43.8850 C   0  0  0  0  0  0  0  0  0  0  0  0
    8.3460  -18.1550  -44.1620 C   0  0  0  0  0  0  0  0  0  0  0  0
    7.3190  -17.3480  -43.6580 C   0  0  0  0  0  0  0  0  0  0  0  0
    6.3080  -17.9000  -42.9090 C   0  0  0  0  0  0  0  0  0  0  0  0
    9.7400  -17.3790  -45.1980 B   0  0  0  0  0  0  0  0  0  0  0  0
    7.1300  -19.5650  -39.1830 H   0  0  0  0  0  0  0  0  0  0  0  0
    6.9920  -20.8210  -40.4300 H   0  0  0  0  0  0  0  0  0  0  0  0
    6.1920  -20.9040  -37.5420 H   0  0  0  0  0  0  0  0  0  0  0  0
    7.1900  -22.0120  -38.5170 H   0  0  0  0  0  0  0  0  0  0  0  0
    5.1610  -23.2870  -38.7690 H   0  0  0  0  0  0  0  0  0  0  0  0
    4.5110  -19.8790  -38.0860 H   0  0  0  0  0  0  0  0  0  0  0  0
    2.1690  -19.9940  -39.8330 H   0  0  0  0  0  0  0  0  0  0  0  0
    2.9230  -18.4070  -39.9160 H   0  0  0  0  0  0  0  0  0  0  0  0
    1.1250  -16.6570  -39.4230 H   0  0  0  0  0  0  0  0  0  0  0  0
    0.1910  -18.1430  -39.2440 H   0  0  0  0  0  0  0  0  0  0  0  0
   -0.8690  -15.8380  -38.7900 H   0  0  0  0  0  0  0  0  0  0  0  0
   -1.3530  -17.2320  -37.7940 H   0  0  0  0  0  0  0  0  0  0  0  0
   -0.0820  -17.5800  -35.6710 H   0  0  0  0  0  0  0  0  0  0  0  0
    0.7180  -16.1490  -34.8870 H   0  0  0  0  0  0  0  0  0  0  0  0
    2.4620  -16.2100  -36.6890 H   0  0  0  0  0  0  0  0  0  0  0  0
    2.3870  -17.7130  -35.7530 H   0  0  0  0  0  0  0  0  0  0  0  0
    1.6060  -13.9690  -36.0320 H   0  0  0  0  0  0  0  0  0  0  0  0
    1.0730  -11.6490  -35.5760 H   0  0  0  0  0  0  0  0  0  0  0  0
   -1.1890  -10.7360  -35.8250 H   0  0  0  0  0  0  0  0  0  0  0  0
   -2.9930  -12.2320  -36.5620 H   0  0  0  0  0  0  0  0  0  0  0  0
   -2.5640  -14.5440  -37.0260 H   0  0  0  0  0  0  0  0  0  0  0  0
    7.2940  -21.0690  -42.9480 H   0  0  0  0  0  0  0  0  0  0  0  0
    9.1180  -20.1140  -44.2880 H   0  0  0  0  0  0  0  0  0  0  0  0
    7.3860  -16.2990  -43.8970 H   0  0  0  0  0  0  0  0  0  0  0  0
    5.5340  -17.2560  -42.5360 H   0  0  0  0  0  0  0  0  0  0  0  0
  1  4  1  0  0  0  0
  2  1  2  0  0  0  0
  3  1  2  0  0  0  0
  4  5  1  0  0  0  0
  4 10  1  0  0  0  0
  5 33  1  0  0  0  0
  5  6  1  0  0  0  0
  6 36  1  0  0  0  0
  6 35  1  0  0  0  0
  7 37  1  0  0  0  0
  7  6  1  0  0  0  0
  8 10  1  0  0  0  0
  8  7  1  0  0  0  0
  9  8  2  0  0  0  0
 10 38  1  1  0  0  0
 11 10  1  0  0  0  0
 11 12  1  0  0  0  0
 12 14  1  0  0  0  0
 12 13  2  0  0  0  0
 14 19  1  0  0  0  0
 15 16  1  0  0  0  0
 15 14  1  0  0  0  0
 16 44  1  0  0  0  0
 16 17  1  0  0  0  0
 17 20  1  0  0  0  0
 17 18  1  0  0  0  0
 18 45  1  0  0  0  0
 18 46  1  0  0  0  0
 19 18  1  0  0  0  0
 19 48  1  0  0  0  0
 20 21  1  0  0  0  0
 21 49  1  0  0  0  0
 21 22  2  0  0  0  0
 22 50  1  0  0  0  0
 23 22  1  0  0  0  0
 23 51  1  0  0  0  0
 24 23  2  0  0  0  0
 25 20  2  0  0  0  0
 25 24  1  0  0  0  0
 26  1  1  0  0  0  0
 27 54  1  0  0  0  0
 27 26  2  0  0  0  0
 28 27  1  0  0  0  0
 29 28  2  0  0  0  0
 29 30  1  0  0  0  0
 30 31  2  0  0  0  0
 31 26  1  0  0  0  0
 31 57  1  0  0  0  0
 32 29  1  0  0  0  0
 34  5  1  0  0  0  0
 39 11  1  0  0  0  0
 40 11  1  0  0  0  0
 41 15  1  0  0  0  0
 42 15  1  0  0  0  0
 43 16  1  0  0  0  0
 47 19  1  0  0  0  0
 52 24  1  0  0  0  0
 53 25  1  0  0  0  0
 55 28  1  0  0  0  0
 56 30  1  0  0  0  0
M  END
>  <Pose>
1

>  <Score>
-4.75

$$$$
