
 OpenBabel03232221553D

 51 54  0  0  0  0  0  0  0  0999 V2000
    1.4100  -16.7660  -36.4660 S   0  0  0  0  0  0  0  0  0  0  0  0
   -0.0350  -17.0350  -36.2200 O   0  0  0  0  0  0  0  0  0  0  0  0
    2.1400  -17.0090  -35.1610 O   0  0  0  0  0  0  0  0  0  0  0  0
    1.6830  -15.1390  -36.9090 N   0  0  0  0  0  0  0  0  0  0  0  0
    1.2530  -14.1980  -35.9090 C   0  0  0  0  0  0  0  0  0  0  0  0
    1.1070  -12.8470  -36.6150 C   0  0  0  0  0  0  0  0  0  0  0  0
   -0.0260  -12.8320  -37.3990 O   0  0  0  0  0  0  0  0  0  0  0  0
   -0.3460  -14.1530  -37.7620 C   0  0  0  0  0  0  0  0  0  0  0  0
    0.9630  -14.8330  -38.1310 C   0  0  0  0  0  0  0  0  0  0  0  0
    2.0880  -17.8980  -37.6270 C   0  0  0  0  0  0  0  0  0  0  0  0
    1.8460  -17.8150  -38.9670 C   0  0  0  0  0  0  0  0  0  0  0  0
    2.3970  -18.7260  -39.8640 C   0  0  0  0  0  0  0  0  0  0  0  0
    3.2020  -19.7400  -39.4390 C   0  0  0  0  0  0  0  0  0  0  0  0
    3.4530  -19.8310  -38.0810 C   0  0  0  0  0  0  0  0  0  0  0  0
    2.9040  -18.9260  -37.1920 C   0  0  0  0  0  0  0  0  0  0  0  0
    3.8310  -20.7490  -40.3270 C   0  0  0  0  0  0  0  0  0  0  0  0
    4.4770  -20.1570  -41.4320 O   0  0  0  0  0  0  0  0  0  0  0  0
    5.7750  -20.4000  -41.8090 C   0  0  0  0  0  0  0  0  0  0  0  0
    6.6510  -20.5290  -40.9310 O   0  0  0  0  0  0  0  0  0  0  0  0
    6.1410  -20.5080  -43.2190 C   0  0  0  0  0  0  0  0  0  0  0  0
    7.5530  -20.6120  -43.4430 N   0  0  0  0  0  0  0  0  0  0  0  0
    8.4640  -19.5300  -43.2110 C   0  0  0  0  0  0  0  0  0  0  0  0
    8.1530  -18.3790  -42.7910 O   0  0  0  0  0  0  0  0  0  0  0  0
    9.8160  -19.9680  -43.5350 C   0  0  0  0  0  0  0  0  0  0  0  0
    9.7660  -21.2710  -43.9560 C   0  0  0  0  0  0  0  0  0  0  0  0
   10.9200  -21.9340  -44.3280 C   0  0  0  0  0  0  0  0  0  0  0  0
   12.1480  -21.3010  -44.2840 C   0  0  0  0  0  0  0  0  0  0  0  0
   12.2130  -19.9890  -43.8630 C   0  0  0  0  0  0  0  0  0  0  0  0
   11.0460  -19.3520  -43.4980 C   0  0  0  0  0  0  0  0  0  0  0  0
   13.8840  -19.0740  -43.7880 B   0  0  0  0  0  0  0  0  0  0  0  0
    8.3540  -21.6880  -43.9020 C   0  0  0  0  0  0  0  0  0  0  0  0
    7.8990  -22.8120  -44.2090 O   0  0  0  0  0  0  0  0  0  0  0  0
    2.0830  -14.0940  -35.1780 H   0  0  0  0  0  0  0  0  0  0  0  0
    0.3500  -14.4850  -35.3720 H   0  0  0  0  0  0  0  0  0  0  0  0
    2.0410  -12.6940  -37.2090 H   0  0  0  0  0  0  0  0  0  0  0  0
    1.0600  -12.0110  -35.8960 H   0  0  0  0  0  0  0  0  0  0  0  0
   -0.8940  -14.6750  -36.9760 H   0  0  0  0  0  0  0  0  0  0  0  0
   -1.0210  -14.0690  -38.6360 H   0  0  0  0  0  0  0  0  0  0  0  0
    0.8110  -15.7810  -38.6680 H   0  0  0  0  0  0  0  0  0  0  0  0
    1.5110  -14.1090  -38.7740 H   0  0  0  0  0  0  0  0  0  0  0  0
    1.2050  -17.0110  -39.3220 H   0  0  0  0  0  0  0  0  0  0  0  0
    2.1790  -18.6280  -40.9140 H   0  0  0  0  0  0  0  0  0  0  0  0
    4.0890  -20.6280  -37.7230 H   0  0  0  0  0  0  0  0  0  0  0  0
    3.1190  -19.0220  -36.1280 H   0  0  0  0  0  0  0  0  0  0  0  0
    4.5880  -21.3420  -39.7740 H   0  0  0  0  0  0  0  0  0  0  0  0
    3.0230  -21.4450  -40.6760 H   0  0  0  0  0  0  0  0  0  0  0  0
    5.6380  -21.3930  -43.7090 H   0  0  0  0  0  0  0  0  0  0  0  0
    5.7830  -19.6240  -43.8250 H   0  0  0  0  0  0  0  0  0  0  0  0
   10.8480  -22.9660  -44.6560 H   0  0  0  0  0  0  0  0  0  0  0  0
   13.0620  -21.8380  -44.5840 H   0  0  0  0  0  0  0  0  0  0  0  0
   11.0630  -18.3150  -43.1610 H   0  0  0  0  0  0  0  0  0  0  0  0
  1  2  2  0  0  0  0
  1  3  2  0  0  0  0
  4  1  1  0  0  0  0
  4  5  1  0  0  0  0
  5 34  1  0  0  0  0
  5 33  1  0  0  0  0
  6  5  1  0  0  0  0
  6 36  1  0  0  0  0
  7  6  1  0  0  0  0
  8  7  1  0  0  0  0
  8 37  1  0  0  0  0
  9  8  1  0  0  0  0
  9  4  1  0  0  0  0
 10 15  1  0  0  0  0
 10  1  1  0  0  0  0
 11 10  2  0  0  0  0
 12 13  2  0  0  0  0
 12 11  1  0  0  0  0
 13 14  1  0  0  0  0
 14 43  1  0  0  0  0
 14 15  2  0  0  0  0
 15 44  1  0  0  0  0
 16 45  1  0  0  0  0
 16 13  1  0  0  0  0
 17 16  1  0  0  0  0
 18 17  1  0  0  0  0
 18 19  2  0  0  0  0
 20 18  1  0  0  0  0
 21 20  1  0  0  0  0
 21 22  1  0  0  0  0
 22 23  2  0  0  0  0
 24 29  1  0  0  0  0
 24 22  1  0  0  0  0
 25 31  1  0  0  0  0
 25 24  2  0  0  0  0
 26 27  2  0  0  0  0
 26 25  1  0  0  0  0
 27 28  1  0  0  0  0
 28 30  1  0  0  0  0
 28 29  2  0  0  0  0
 29 51  1  0  0  0  0
 31 21  1  0  0  0  0
 32 31  2  0  0  0  0
 35  6  1  0  0  0  0
 38  8  1  0  0  0  0
 39  9  1  0  0  0  0
 40  9  1  0  0  0  0
 41 11  1  0  0  0  0
 42 12  1  0  0  0  0
 46 16  1  0  0  0  0
 47 20  1  0  0  0  0
 48 20  1  0  0  0  0
 49 26  1  0  0  0  0
 50 27  1  0  0  0  0
M  END
>  <Pose>
1

>  <Score>
-4.07

$$$$
