
 OpenBabel03232221553D

 47 50  0  0  1  0  0  0  0  0999 V2000
    4.3220  -22.1010  -43.9400 S   0  0  0  0  0  0  0  0  0  0  0  0
    4.4160  -23.9450  -43.9550 C   0  0  0  0  0  0  0  0  0  0  0  0
    5.8340  -24.3670  -44.0180 C   0  0  0  0  0  0  0  0  0  0  0  0
    6.2490  -25.6500  -44.2790 C   0  0  0  0  0  0  0  0  0  0  0  0
    7.5450  -26.0220  -44.1940 C   0  0  0  0  0  0  0  0  0  0  0  0
    8.5400  -25.1160  -43.8430 C   0  0  0  0  0  0  0  0  0  0  0  0
    8.1510  -23.7980  -43.5670 C   0  0  0  0  0  0  0  0  0  0  0  0
    6.8220  -23.4320  -43.6550 C   0  0  0  0  0  0  0  0  0  0  0  0
    4.8970  -26.8500  -44.9030 B   0  0  0  0  0  0  0  0  0  0  0  0
    4.9160  -21.4560  -42.3710 C   0  0  0  0  0  0  0  0  0  0  0  0
    5.6080  -20.3300  -42.1970 N   0  0  0  0  0  0  0  0  0  0  0  0
    5.7720  -20.1750  -40.8560 C   0  0  0  0  0  0  0  0  0  0  0  0
    6.2900  -19.2600  -40.0220 N   0  0  0  0  0  0  0  0  0  0  0  0
    6.2650  -19.3130  -38.6870 C   0  0  0  0  0  0  0  0  0  0  0  0
    5.6610  -20.4150  -38.0960 N   0  0  0  0  0  0  0  0  0  0  0  0
    5.1260  -21.3590  -38.8300 C   0  0  0  0  0  0  0  0  0  0  0  0
    5.1560  -21.2800  -40.2080 C   0  0  0  0  0  0  0  0  0  0  0  0
    4.6480  -22.0220  -41.1850 N   0  0  0  0  0  0  0  0  0  0  0  0
    4.5250  -22.4720  -38.2980 O   0  0  0  0  0  0  0  0  0  0  0  0
    6.7820  -18.2990  -37.8110 N   0  0  0  0  0  0  0  0  0  0  0  0
    6.1590  -19.4180  -43.1470 C   0  0  2  0  0  0  0  0  0  0  0  0
    7.5670  -19.4630  -43.2370 O   0  0  0  0  0  0  0  0  0  0  0  0
    7.7700  -18.3540  -44.0910 C   0  0  1  0  0  0  0  0  0  0  0  0
    7.1090  -17.2780  -43.1900 C   0  0  2  0  0  0  0  0  0  0  0  0
    5.7600  -17.9850  -43.0090 C   0  0  1  0  0  0  0  0  0  0  0  0
    4.9400  -17.5710  -44.0900 O   0  0  0  0  0  0  0  0  0  0  0  0
    7.0000  -16.0650  -43.8150 O   0  0  0  0  0  0  0  0  0  0  0  0
    9.2050  -18.0810  -44.3330 C   0  0  0  0  0  0  0  0  0  0  0  0
    9.6450  -18.7360  -45.4900 O   0  0  0  0  0  0  0  0  0  0  0  0
    3.8320  -24.3190  -44.7510 H   0  0  0  0  0  0  0  0  0  0  0  0
    3.9890  -24.2300  -42.9170 H   0  0  0  0  0  0  0  0  0  0  0  0
    7.8190  -27.0400  -44.4080 H   0  0  0  0  0  0  0  0  0  0  0  0
    9.5740  -25.4160  -43.8080 H   0  0  0  0  0  0  0  0  0  0  0  0
    8.8890  -23.0480  -43.2760 H   0  0  0  0  0  0  0  0  0  0  0  0
    6.5360  -22.4460  -43.4070 H   0  0  0  0  0  0  0  0  0  0  0  0
    4.8710  -23.4160  -38.4290 H   0  0  0  0  0  0  0  0  0  0  0  0
    6.5720  -18.1780  -36.8230 H   0  0  0  0  0  0  0  0  0  0  0  0
    7.4340  -17.5640  -38.2560 H   0  0  0  0  0  0  0  0  0  0  0  0
    5.8380  -19.7410  -44.1770 H   0  0  0  0  0  0  0  0  0  0  0  0
    7.1610  -18.4410  -44.9920 H   0  0  0  0  0  0  0  0  0  0  0  0
    7.6490  -17.2010  -42.2290 H   0  0  0  0  0  0  0  0  0  0  0  0
    5.2480  -17.6870  -42.1240 H   0  0  0  0  0  0  0  0  0  0  0  0
    5.5640  -17.1350  -44.7110 H   0  0  0  0  0  0  0  0  0  0  0  0
    6.5320  -15.4210  -43.2310 H   0  0  0  0  0  0  0  0  0  0  0  0
    9.7710  -18.6190  -43.5060 H   0  0  0  0  0  0  0  0  0  0  0  0
    9.4790  -17.0390  -44.2670 H   0  0  0  0  0  0  0  0  0  0  0  0
    9.0770  -18.4030  -46.2500 H   0  0  0  0  0  0  0  0  0  0  0  0
  1 10  1  0  0  0  0
  2  1  1  0  0  0  0
  2 31  1  0  0  0  0
  3  2  1  0  0  0  0
  3  8  1  0  0  0  0
  4  5  1  0  0  0  0
  4  3  2  0  0  0  0
  5  6  2  0  0  0  0
  6 33  1  0  0  0  0
  6  7  1  0  0  0  0
  7 34  1  0  0  0  0
  8  7  2  0  0  0  0
  8 35  1  0  0  0  0
  9  4  1  0  0  0  0
 10 11  1  0  0  0  0
 10 18  2  0  0  0  0
 11 12  1  0  0  0  0
 12 17  2  0  0  0  0
 12 13  1  0  0  0  0
 13 14  2  0  0  0  0
 14 15  1  0  0  0  0
 14 20  1  0  0  0  0
 16 19  1  0  0  0  0
 16 15  2  0  0  0  0
 17 16  1  0  0  0  0
 18 17  1  0  0  0  0
 20 37  1  0  0  0  0
 21 39  1  6  0  0  0
 21 25  1  0  0  0  0
 21 11  1  0  0  0  0
 22 21  1  0  0  0  0
 23 40  1  6  0  0  0
 23 22  1  0  0  0  0
 23 24  1  0  0  0  0
 24 25  1  0  0  0  0
 24 41  1  1  0  0  0
 25 42  1  1  0  0  0
 26 25  1  0  0  0  0
 27 44  1  0  0  0  0
 27 24  1  0  0  0  0
 28 46  1  0  0  0  0
 28 23  1  0  0  0  0
 28 45  1  0  0  0  0
 29 28  1  0  0  0  0
 30  2  1  0  0  0  0
 32  5  1  0  0  0  0
 36 19  1  0  0  0  0
 38 20  1  0  0  0  0
 43 26  1  0  0  0  0
 47 29  1  0  0  0  0
M  END
>  <Pose>
1

>  <Score>
-5.17

$$$$
