
 OpenBabel03232221553D

 52 56  0  0  1  0  0  0  0  0999 V2000
    1.7220  -20.5050  -42.5570 S   0  0  0  0  0  0  0  0  0  0  0  0
    0.5700  -20.2830  -41.2110 C   0  0  0  0  0  0  0  0  0  0  0  0
   -0.7000  -20.2230  -41.3920 N   0  0  0  0  0  0  0  0  0  0  0  0
   -1.6720  -20.0500  -40.3750 C   0  0  0  0  0  0  0  0  0  0  0  0
   -2.8100  -20.5240  -40.4130 O   0  0  0  0  0  0  0  0  0  0  0  0
   -1.1830  -19.1990  -39.1820 C   0  0  1  0  0  0  0  0  0  0  0  0
    0.0430  -19.9660  -38.8040 C   0  0  0  0  0  0  0  0  0  0  0  0
    0.2900  -20.4460  -37.6960 O   0  0  0  0  0  0  0  0  0  0  0  0
    1.0010  -20.1500  -39.8370 N   0  0  0  0  0  0  0  0  0  0  0  0
    2.3590  -20.2040  -39.5110 C   0  0  0  0  0  0  0  0  0  0  0  0
    2.8590  -19.2150  -38.6560 C   0  0  0  0  0  0  0  0  0  0  0  0
    4.1880  -19.2030  -38.2890 C   0  0  0  0  0  0  0  0  0  0  0  0
    5.0380  -20.1890  -38.7790 C   0  0  0  0  0  0  0  0  0  0  0  0
    4.5280  -21.1740  -39.6340 C   0  0  0  0  0  0  0  0  0  0  0  0
    3.2000  -21.1700  -39.9880 C   0  0  0  0  0  0  0  0  0  0  0  0
    6.8640  -20.2090  -38.3010 B   0  0  0  0  0  0  0  0  0  0  0  0
   -0.9420  -17.8770  -39.7430 C   0  0  1  0  0  0  0  0  0  0  0  0
   -2.1250  -17.2910  -40.3580 N   0  0  0  0  0  4  0  0  0  0  0  0
   -1.7350  -16.3090  -41.3540 C   0  0  0  0  0  0  0  0  0  0  0  0
   -0.2850  -15.9050  -41.2870 C   0  0  0  0  0  0  0  0  0  0  0  0
    0.0840  -15.7320  -39.8370 C   0  0  0  0  0  0  0  0  0  0  0  0
   -0.3010  -16.8060  -39.0000 C   0  0  0  0  0  0  0  0  0  0  0  0
   -0.0350  -16.7390  -37.6600 C   0  0  0  0  0  0  0  0  0  0  0  0
    0.6130  -15.6020  -37.1830 C   0  0  0  0  0  0  0  0  0  0  0  0
    0.9780  -14.5710  -38.0170 C   0  0  0  0  0  0  0  0  0  0  0  0
    0.7150  -14.6240  -39.3730 C   0  0  0  0  0  0  0  0  0  0  0  0
    1.5950  -13.5970  -37.2600 O   0  0  0  0  0  0  0  0  0  0  0  0
    1.3690  -13.8710  -35.9000 C   0  0  0  0  0  0  0  0  0  0  0  0
    1.0070  -15.2520  -35.9200 O   0  0  0  0  0  0  0  0  0  0  0  0
   -0.3970  -17.7590  -36.7920 O   0  0  0  0  0  0  0  0  0  0  0  0
   -1.7750  -17.9410  -36.4840 C   0  0  0  0  0  0  0  0  0  0  0  0
   -3.0300  -16.6760  -39.4480 C   0  0  0  0  0  0  0  0  0  0  0  0
   -1.9470  -19.3520  -38.4380 H   0  0  0  0  0  0  0  0  0  0  0  0
    2.2160  -18.4340  -38.2600 H   0  0  0  0  0  0  0  0  0  0  0  0
    4.5510  -18.4320  -37.6300 H   0  0  0  0  0  0  0  0  0  0  0  0
    5.1510  -21.9570  -40.0370 H   0  0  0  0  0  0  0  0  0  0  0  0
    2.8110  -21.9200  -40.6390 H   0  0  0  0  0  0  0  0  0  0  0  0
   -0.2750  -18.0530  -40.6600 H   0  0  0  0  0  0  0  0  0  0  0  0
   -2.6160  -18.0630  -40.8560 H   0  0  0  0  0  0  0  0  0  0  0  0
   -2.3460  -15.3880  -41.2600 H   0  0  0  0  0  0  0  0  0  0  0  0
   -1.9150  -16.6850  -42.3980 H   0  0  0  0  0  0  0  0  0  0  0  0
    0.4050  -16.5640  -41.8240 H   0  0  0  0  0  0  0  0  0  0  0  0
   -0.2140  -14.8810  -41.7430 H   0  0  0  0  0  0  0  0  0  0  0  0
    0.9970  -13.8160  -40.0480 H   0  0  0  0  0  0  0  0  0  0  0  0
    2.2840  -13.7140  -35.2920 H   0  0  0  0  0  0  0  0  0  0  0  0
    0.5170  -13.2510  -35.5540 H   0  0  0  0  0  0  0  0  0  0  0  0
   -1.9720  -17.4150  -35.5130 H   0  0  0  0  0  0  0  0  0  0  0  0
   -2.0720  -18.9880  -36.4190 H   0  0  0  0  0  0  0  0  0  0  0  0
   -2.3910  -17.4360  -37.2400 H   0  0  0  0  0  0  0  0  0  0  0  0
   -3.7600  -16.0910  -40.0450 H   0  0  0  0  0  0  0  0  0  0  0  0
   -3.6230  -17.3800  -38.8380 H   0  0  0  0  0  0  0  0  0  0  0  0
   -2.5110  -15.9100  -38.8040 H   0  0  0  0  0  0  0  0  0  0  0  0
  1  2  2  0  0  0  0
  2  9  1  0  0  0  0
  3  2  1  0  0  0  0
  3  4  1  0  0  0  0
  4  6  1  0  0  0  0
  5  4  2  0  0  0  0
  6  7  1  0  0  0  0
  6 33  1  1  0  0  0
  7  8  2  0  0  0  0
  9 10  1  0  0  0  0
  9  7  1  0  0  0  0
 10 11  1  0  0  0  0
 11 12  2  0  0  0  0
 11 34  1  0  0  0  0
 12 35  1  0  0  0  0
 13 16  1  0  0  0  0
 13 12  1  0  0  0  0
 14 13  2  0  0  0  0
 15 14  1  0  0  0  0
 15 10  2  0  0  0  0
 17 38  1  6  0  0  0
 17  6  1  0  0  0  0
 17 22  1  0  0  0  0
 18 17  1  0  0  0  0
 18 32  1  0  0  0  0
 19 20  1  0  0  0  0
 19 40  1  0  0  0  0
 19 18  1  0  0  0  0
 20 21  1  0  0  0  0
 21 26  2  0  0  0  0
 21 22  1  0  0  0  0
 22 23  2  0  0  0  0
 23 24  1  0  0  0  0
 23 30  1  0  0  0  0
 24 29  1  0  0  0  0
 25 27  1  0  0  0  0
 25 24  2  0  0  0  0
 26 25  1  0  0  0  0
 27 28  1  0  0  0  0
 28 46  1  0  0  0  0
 28 45  1  0  0  0  0
 29 28  1  0  0  0  0
 30 31  1  0  0  0  0
 31 48  1  0  0  0  0
 31 47  1  0  0  0  0
 32 51  1  0  0  0  0
 32 52  1  0  0  0  0
 36 14  1  0  0  0  0
 37 15  1  0  0  0  0
 39 18  1  0  0  0  0
 41 19  1  0  0  0  0
 42 20  1  0  0  0  0
 43 20  1  0  0  0  0
 44 26  1  0  0  0  0
 49 31  1  0  0  0  0
 50 32  1  0  0  0  0
M  END
>  <Pose>
1

>  <Score>
-3.50

$$$$
