
 OpenBabel03232221553D

 39 42  0  0  1  0  0  0  0  0999 V2000
    6.4730  -20.1590  -38.8320 S   0  0  0  0  0  0  0  0  0  0  0  0
    7.7590  -19.5160  -39.2660 O   0  0  0  0  0  0  0  0  0  0  0  0
    6.7110  -21.4770  -38.1490 O   0  0  0  0  0  0  0  0  0  0  0  0
    5.5370  -19.0830  -37.7680 C   0  0  0  0  0  0  0  0  0  0  0  0
    4.0890  -19.4980  -37.9290 C   0  0  2  0  0  0  0  0  0  0  0  0
    3.6380  -19.1130  -39.2520 N   0  0  0  0  0  0  0  0  0  0  0  0
    4.5280  -19.2100  -40.3900 C   0  0  0  0  0  0  0  0  0  0  0  0
    5.4100  -20.4530  -40.2530 C   0  0  0  0  0  0  0  0  0  0  0  0
    2.2920  -18.6910  -39.0780 C   0  0  0  0  0  0  0  0  0  0  0  0
    1.4370  -18.5050  -40.0090 O   0  0  0  0  0  0  0  0  0  0  0  0
    2.0000  -18.4970  -37.7000 N   0  0  0  0  0  0  0  0  0  0  0  0
    3.1940  -18.8040  -36.9970 C   0  0  0  0  0  0  0  0  0  0  0  0
    3.4590  -18.5370  -35.7880 O   0  0  0  0  0  0  0  0  0  0  0  0
    0.7440  -18.0710  -37.1010 C   0  0  1  0  0  0  0  0  0  0  0  0
    0.4260  -16.6290  -37.4570 C   0  0  0  0  0  0  0  0  0  0  0  0
   -0.8520  -16.2810  -36.6920 C   0  0  0  0  0  0  0  0  0  0  0  0
   -1.8780  -17.0740  -37.2620 O   0  0  0  0  0  0  0  0  0  0  0  0
   -1.6260  -18.3830  -37.6590 C   0  0  0  0  0  0  0  0  0  0  0  0
   -0.3660  -18.9060  -37.5970 C   0  0  0  0  0  0  0  0  0  0  0  0
   -0.1170  -20.1930  -37.9880 C   0  0  0  0  0  0  0  0  0  0  0  0
   -1.1630  -20.9560  -38.4480 C   0  0  0  0  0  0  0  0  0  0  0  0
   -2.4240  -20.4170  -38.5040 C   0  0  0  0  0  0  0  0  0  0  0  0
   -2.7080  -19.1190  -38.1170 C   0  0  0  0  0  0  0  0  0  0  0  0
   -4.4590  -18.3850  -38.2000 B   0  0  0  0  0  0  0  0  0  0  0  0
    5.6120  -18.0580  -38.2150 H   0  0  0  0  0  0  0  0  0  0  0  0
    5.8830  -19.1190  -36.7250 H   0  0  0  0  0  0  0  0  0  0  0  0
    3.9400  -20.5880  -37.8360 H   0  0  0  0  0  0  0  0  0  0  0  0
    5.1960  -18.3350  -40.4820 H   0  0  0  0  0  0  0  0  0  0  0  0
    3.9740  -19.3480  -41.3510 H   0  0  0  0  0  0  0  0  0  0  0  0
    4.8290  -21.3660  -40.1430 H   0  0  0  0  0  0  0  0  0  0  0  0
    6.0790  -20.4490  -41.1400 H   0  0  0  0  0  0  0  0  0  0  0  0
    0.7610  -18.1340  -36.0080 H   0  0  0  0  0  0  0  0  0  0  0  0
    1.2310  -15.9350  -37.1850 H   0  0  0  0  0  0  0  0  0  0  0  0
    0.1690  -16.5330  -38.5320 H   0  0  0  0  0  0  0  0  0  0  0  0
   -0.7000  -16.6670  -35.6530 H   0  0  0  0  0  0  0  0  0  0  0  0
   -1.0790  -15.2170  -36.7180 H   0  0  0  0  0  0  0  0  0  0  0  0
    0.9050  -20.5950  -37.9310 H   0  0  0  0  0  0  0  0  0  0  0  0
   -0.9800  -21.9770  -38.7610 H   0  0  0  0  0  0  0  0  0  0  0  0
   -3.2310  -21.0360  -38.8690 H   0  0  0  0  0  0  0  0  0  0  0  0
  1  3  2  0  0  0  0
  1  4  1  0  0  0  0
  2  1  2  0  0  0  0
  4 26  1  0  0  0  0
  5 27  1  1  0  0  0
  5  4  1  0  0  0  0
  5 12  1  0  0  0  0
  6  9  1  0  0  0  0
  6  5  1  0  0  0  0
  7  8  1  0  0  0  0
  7  6  1  0  0  0  0
  8 30  1  0  0  0  0
  8  1  1  0  0  0  0
  9 11  1  0  0  0  0
 10  9  2  0  0  0  0
 11 14  1  0  0  0  0
 11 12  1  0  0  0  0
 12 13  2  0  0  0  0
 14 32  1  1  0  0  0
 15 33  1  0  0  0  0
 15 14  1  0  0  0  0
 15 16  1  0  0  0  0
 16 35  1  0  0  0  0
 17 16  1  0  0  0  0
 18 19  1  0  0  0  0
 18 17  1  0  0  0  0
 19 14  1  0  0  0  0
 20 37  1  0  0  0  0
 20 19  2  0  0  0  0
 21 20  1  0  0  0  0
 22 21  2  0  0  0  0
 22 23  1  0  0  0  0
 23 18  2  0  0  0  0
 24 23  1  0  0  0  0
 25  4  1  0  0  0  0
 28  7  1  0  0  0  0
 29  7  1  0  0  0  0
 31  8  1  0  0  0  0
 34 15  1  0  0  0  0
 36 16  1  0  0  0  0
 38 21  1  0  0  0  0
 39 22  1  0  0  0  0
M  END
>  <Pose>
1

>  <Score>
-3.81

$$$$
