
 OpenBabel03232221553D

 34 37  0  0  1  0  0  0  0  0999 V2000
   -0.4690  -17.0870  -37.2130 S   0  0  0  0  0  0  0  0  0  0  0  0
    1.1390  -17.5670  -37.4790 C   0  0  0  0  0  0  0  0  0  0  0  0
    1.8620  -16.4450  -37.1680 C   0  0  0  0  0  0  0  0  0  0  0  0
    1.1600  -15.3600  -36.7690 C   0  0  0  0  0  0  0  0  0  0  0  0
   -0.2000  -15.4830  -36.7140 C   0  0  0  0  0  0  0  0  0  0  0  0
    1.8450  -14.0600  -36.3920 C   0  0  1  0  0  0  0  0  0  0  0  0
    1.7020  -12.9820  -37.4750 C   0  0  1  0  0  0  0  0  0  0  0  0
    0.9970  -12.8860  -36.1770 C   0  0  0  0  0  0  0  0  0  0  0  0
    2.9610  -12.1850  -37.6920 C   0  0  0  0  0  0  0  0  0  0  0  0
    3.5730  -11.9200  -38.8610 N   0  0  0  0  0  0  0  0  0  0  0  0
    4.6730  -11.1770  -38.6500 C   0  0  0  0  0  0  0  0  0  0  0  0
    4.7190  -10.9940  -37.3200 N   0  0  0  0  0  0  0  0  0  0  0  0
    3.6910  -11.6020  -36.7720 O   0  0  0  0  0  0  0  0  0  0  0  0
    5.6290  -10.6650  -39.6330 C   0  0  0  0  0  0  0  0  0  0  0  0
    6.9660  -10.6490  -39.5050 N   0  0  0  0  0  0  0  0  0  0  0  0
    7.5240  -10.1100  -40.5940 N   0  0  0  0  0  0  0  0  0  0  0  0
    6.5330   -9.7670  -41.4470 C   0  0  0  0  0  0  0  0  0  0  0  0
    5.3780  -10.1170  -40.8330 N   0  0  0  0  0  0  0  0  0  0  0  0
    8.9460   -9.9210  -40.8290 C   0  0  0  0  0  0  0  0  0  0  0  0
    9.6070  -11.2430  -40.8100 C   0  0  0  0  0  0  0  0  0  0  0  0
    9.2200  -12.1190  -41.6150 O   0  0  0  0  0  0  0  0  0  0  0  0
   10.6550  -11.4980  -39.8960 N   0  0  0  0  0  0  0  0  0  0  0  0
    1.8270  -19.2690  -38.0750 B   0  0  0  0  0  0  0  0  0  0  0  0
    2.9820  -16.4770  -37.2560 H   0  0  0  0  0  0  0  0  0  0  0  0
   -0.9190  -14.6940  -36.4100 H   0  0  0  0  0  0  0  0  0  0  0  0
    2.7840  -14.1090  -35.8390 H   0  0  0  0  0  0  0  0  0  0  0  0
    1.1480  -13.2240  -38.3810 H   0  0  0  0  0  0  0  0  0  0  0  0
    1.3720  -12.0710  -35.5030 H   0  0  0  0  0  0  0  0  0  0  0  0
   -0.1100  -12.9850  -36.2280 H   0  0  0  0  0  0  0  0  0  0  0  0
    6.6760   -9.3070  -42.4130 H   0  0  0  0  0  0  0  0  0  0  0  0
    9.3420   -9.2220  -40.0690 H   0  0  0  0  0  0  0  0  0  0  0  0
    9.1270   -9.4880  -41.8410 H   0  0  0  0  0  0  0  0  0  0  0  0
   11.2020  -10.7140  -39.4440 H   0  0  0  0  0  0  0  0  0  0  0  0
   10.9580  -12.4590  -39.6060 H   0  0  0  0  0  0  0  0  0  0  0  0
  1  5  1  0  0  0  0
  2  1  1  0  0  0  0
  2  3  2  0  0  0  0
  3  4  1  0  0  0  0
  4  5  2  0  0  0  0
  4  6  1  0  0  0  0
  5 25  1  0  0  0  0
  6  8  1  0  0  0  0
  6 26  1  1  0  0  0
  7 27  1  6  0  0  0
  7  6  1  0  0  0  0
  7  8  1  0  0  0  0
  8 28  1  0  0  0  0
  9  7  1  0  0  0  0
  9 13  1  0  0  0  0
 10 11  1  0  0  0  0
 10  9  2  0  0  0  0
 11 12  2  0  0  0  0
 12 13  1  0  0  0  0
 14 15  2  0  0  0  0
 14 11  1  0  0  0  0
 16 15  1  0  0  0  0
 17 18  2  0  0  0  0
 17 16  1  0  0  0  0
 18 14  1  0  0  0  0
 19 20  1  0  0  0  0
 19 16  1  0  0  0  0
 19 31  1  0  0  0  0
 20 22  1  0  0  0  0
 21 20  2  0  0  0  0
 22 34  1  0  0  0  0
 22 33  1  0  0  0  0
 23  2  1  0  0  0  0
 24  3  1  0  0  0  0
 29  8  1  0  0  0  0
 30 17  1  0  0  0  0
 32 19  1  0  0  0  0
M  END
>  <Pose>
1

>  <Score>
-4.54

$$$$
