
 OpenBabel03232221553D

 58 61  0  0  1  0  0  0  0  0999 V2000
    3.4400  -24.4720  -42.3050 S   0  0  0  0  0  0  0  0  0  0  0  0
    1.9020  -24.9600  -42.8580 C   0  0  0  0  0  0  0  0  0  0  0  0
    2.2030  -25.6560  -43.9380 N   0  0  0  0  0  0  0  0  0  0  0  0
    3.4440  -25.7990  -44.2980 C   0  0  0  0  0  0  0  0  0  0  0  0
    4.4000  -25.2030  -43.5190 C   0  0  0  0  0  0  0  0  0  0  0  0
    5.8590  -25.1950  -43.6000 C   0  0  0  0  0  0  0  0  0  0  0  0
    6.5530  -24.1130  -43.3010 C   0  0  0  0  0  0  0  0  0  0  0  0
    8.0410  -23.9210  -43.3330 C   0  0  2  0  0  0  0  0  0  0  0  0
    8.1990  -22.5450  -43.6870 N   0  0  0  0  0  0  0  0  0  0  0  0
    7.0730  -21.8790  -43.0490 C   0  0  0  0  0  0  0  0  0  0  0  0
    7.0690  -20.6470  -42.7830 O   0  0  0  0  0  0  0  0  0  0  0  0
    6.0260  -22.8520  -42.7950 C   0  0  0  0  0  0  0  0  0  0  0  0
    4.8920  -22.6500  -42.2470 O   0  0  0  0  0  0  0  0  0  0  0  0
    9.2210  -21.8610  -44.4230 C   0  0  0  0  0  0  0  0  0  0  0  0
   10.5580  -22.5260  -44.4740 C   0  0  0  0  0  0  0  0  0  0  0  0
   11.6730  -21.4890  -44.6780 C   0  0  0  0  0  0  0  0  0  0  0  0
   12.3380  -21.2970  -43.4330 N   0  0  0  0  0  4  0  0  0  0  0  0
   13.7640  -21.3720  -43.4580 C   0  0  0  0  0  0  0  0  0  0  0  0
   14.4200  -20.1450  -44.0470 C   0  0  0  0  0  0  0  0  0  0  0  0
   13.3780  -19.2880  -44.4670 O   0  0  0  0  0  0  0  0  0  0  0  0
   12.7520  -18.8740  -43.2740 C   0  0  0  0  0  0  0  0  0  0  0  0
   11.9480  -20.0600  -42.7830 C   0  0  0  0  0  0  0  0  0  0  0  0
    8.7000  -24.9110  -44.1760 C   0  0  0  0  0  0  0  0  0  0  0  0
    9.5880  -25.8070  -43.5610 C   0  0  0  0  0  0  0  0  0  0  0  0
   10.2480  -26.7970  -44.2420 C   0  0  0  0  0  0  0  0  0  0  0  0
   10.0480  -26.9390  -45.5930 C   0  0  0  0  0  0  0  0  0  0  0  0
    9.1770  -26.0730  -46.2360 C   0  0  0  0  0  0  0  0  0  0  0  0
    8.5300  -25.0900  -45.5180 C   0  0  0  0  0  0  0  0  0  0  0  0
   11.4520  -28.0040  -43.3800 B   0  0  0  0  0  0  0  0  0  0  0  0
    6.5510  -26.3600  -44.0030 O   0  0  0  0  0  0  0  0  0  0  0  0
    3.7870  -26.6380  -45.5220 C   0  0  0  0  0  0  0  0  0  0  0  0
    0.5420  -24.6730  -42.2650 C   0  0  0  0  0  0  0  0  0  0  0  0
    8.3590  -24.0830  -42.2590 H   0  0  0  0  0  0  0  0  0  0  0  0
    9.3630  -20.8730  -43.9030 H   0  0  0  0  0  0  0  0  0  0  0  0
    8.8810  -21.6820  -45.4720 H   0  0  0  0  0  0  0  0  0  0  0  0
   10.8520  -23.1170  -43.6190 H   0  0  0  0  0  0  0  0  0  0  0  0
   10.5670  -23.1240  -45.4350 H   0  0  0  0  0  0  0  0  0  0  0  0
   11.2490  -20.5230  -45.0160 H   0  0  0  0  0  0  0  0  0  0  0  0
   12.3230  -21.9070  -45.4750 H   0  0  0  0  0  0  0  0  0  0  0  0
   12.0060  -22.0730  -42.7830 H   0  0  0  0  0  0  0  0  0  0  0  0
   14.1990  -22.2500  -43.9320 H   0  0  0  0  0  0  0  0  0  0  0  0
   14.0940  -21.4190  -42.3780 H   0  0  0  0  0  0  0  0  0  0  0  0
   15.1430  -20.3540  -44.8390 H   0  0  0  0  0  0  0  0  0  0  0  0
   14.9690  -19.5480  -43.2700 H   0  0  0  0  0  0  0  0  0  0  0  0
   13.5760  -18.7170  -42.5280 H   0  0  0  0  0  0  0  0  0  0  0  0
   12.1750  -17.9590  -43.3860 H   0  0  0  0  0  0  0  0  0  0  0  0
   12.0480  -20.1910  -41.6930 H   0  0  0  0  0  0  0  0  0  0  0  0
   10.8750  -19.8830  -43.0250 H   0  0  0  0  0  0  0  0  0  0  0  0
    9.7770  -25.7300  -42.4910 H   0  0  0  0  0  0  0  0  0  0  0  0
   10.5740  -27.7230  -46.1140 H   0  0  0  0  0  0  0  0  0  0  0  0
    8.9990  -26.1570  -47.2860 H   0  0  0  0  0  0  0  0  0  0  0  0
    7.8420  -24.4300  -46.0290 H   0  0  0  0  0  0  0  0  0  0  0  0
    4.8360  -26.9130  -45.4900 H   0  0  0  0  0  0  0  0  0  0  0  0
    3.4730  -26.1030  -46.4400 H   0  0  0  0  0  0  0  0  0  0  0  0
    3.1940  -27.5810  -45.5100 H   0  0  0  0  0  0  0  0  0  0  0  0
   -0.1060  -24.1640  -42.9850 H   0  0  0  0  0  0  0  0  0  0  0  0
    0.1410  -25.6690  -41.9740 H   0  0  0  0  0  0  0  0  0  0  0  0
    0.7190  -24.1030  -41.3300 H   0  0  0  0  0  0  0  0  0  0  0  0
  2  1  1  0  0  0  0
  2 32  1  0  0  0  0
  3  2  2  0  0  0  0
  4  3  1  0  0  0  0
  4  5  2  0  0  0  0
  5  1  1  0  0  0  0
  6  5  1  0  0  0  0
  6  7  2  0  0  0  0
  7 12  1  0  0  0  0
  8  7  1  0  0  0  0
  8 33  1  1  0  0  0
  9  8  1  0  0  0  0
  9 10  1  0  0  0  0
 10 12  1  0  0  0  0
 10 11  2  0  0  0  0
 12 13  2  0  0  0  0
 14 34  1  0  0  0  0
 14  9  1  0  0  0  0
 15 14  1  0  0  0  0
 15 36  1  0  0  0  0
 16 15  1  0  0  0  0
 16 17  1  0  0  0  0
 17 40  1  0  0  0  0
 17 22  1  0  0  0  0
 18 17  1  0  0  0  0
 18 42  1  0  0  0  0
 19 18  1  0  0  0  0
 19 44  1  0  0  0  0
 20 19  1  0  0  0  0
 20 21  1  0  0  0  0
 21 22  1  0  0  0  0
 21 45  1  0  0  0  0
 22 47  1  0  0  0  0
 23 24  1  0  0  0  0
 23  8  1  0  0  0  0
 24 49  1  0  0  0  0
 25 24  2  0  0  0  0
 25 29  1  0  0  0  0
 26 25  1  0  0  0  0
 27 26  2  0  0  0  0
 27 28  1  0  0  0  0
 28 23  2  0  0  0  0
 30  6  1  0  0  0  0
 31 55  1  0  0  0  0
 31 53  1  0  0  0  0
 31  4  1  0  0  0  0
 32 57  1  0  0  0  0
 32 58  1  0  0  0  0
 35 14  1  0  0  0  0
 37 15  1  0  0  0  0
 38 16  1  0  0  0  0
 39 16  1  0  0  0  0
 41 18  1  0  0  0  0
 43 19  1  0  0  0  0
 46 21  1  0  0  0  0
 48 22  1  0  0  0  0
 50 26  1  0  0  0  0
 51 27  1  0  0  0  0
 52 28  1  0  0  0  0
 54 31  1  0  0  0  0
 56 32  1  0  0  0  0
M  END
>  <Pose>
1

>  <Score>
-4.21

$$$$
