
 OpenBabel03232221553D

 39 42  0  0  1  0  0  0  0  0999 V2000
    4.6720  -23.1570  -42.3670 S   0  0  0  0  0  0  0  0  0  0  0  0
    5.2280  -22.0200  -41.2060 C   0  0  0  0  0  0  0  0  0  0  0  0
    5.6670  -20.9870  -41.9890 C   0  0  0  0  0  0  0  0  0  0  0  0
    5.5550  -21.1270  -43.3190 C   0  0  0  0  0  0  0  0  0  0  0  0
    5.0110  -22.2920  -43.7880 C   0  0  0  0  0  0  0  0  0  0  0  0
    4.8950  -22.4290  -45.2780 C   0  0  0  0  0  0  0  0  0  0  0  0
    4.1600  -21.2690  -45.7780 N   0  0  0  0  0  4  0  0  0  0  0  0
    4.7250  -20.0210  -45.3680 C   0  0  0  0  0  0  0  0  0  0  0  0
    5.9350  -20.1930  -44.4580 C   0  0  0  0  0  0  0  0  0  0  0  0
    2.8250  -21.3630  -45.1870 C   0  0  0  0  0  0  0  0  0  0  0  0
    6.2200  -19.8330  -41.2270 C   0  0  0  0  0  0  0  0  0  0  0  0
    6.6600  -18.8110  -41.8310 O   0  0  0  0  0  0  0  0  0  0  0  0
    6.2440  -19.8990  -39.8100 N   0  0  0  0  0  0  0  0  0  0  0  0
    5.4060  -20.7530  -39.0200 C   0  0  2  0  0  0  0  0  0  0  0  0
    5.2900  -22.0000  -39.7590 N   0  0  0  0  0  0  0  0  0  0  0  0
    4.0550  -20.1840  -38.7970 C   0  0  0  0  0  0  0  0  0  0  0  0
    3.8200  -19.2140  -37.8440 C   0  0  0  0  0  0  0  0  0  0  0  0
    2.5730  -18.6740  -37.6240 C   0  0  0  0  0  0  0  0  0  0  0  0
    1.4980  -19.1040  -38.3740 C   0  0  0  0  0  0  0  0  0  0  0  0
    1.7070  -20.0690  -39.3300 C   0  0  0  0  0  0  0  0  0  0  0  0
    2.9620  -20.6060  -39.5450 C   0  0  0  0  0  0  0  0  0  0  0  0
    0.1830  -20.6370  -40.3510 B   0  0  0  0  0  0  0  0  0  0  0  0
    0.2390  -18.5630  -38.1580 O   0  0  0  0  0  0  0  0  0  0  0  0
    2.2640  -17.3410  -36.3110 B   0  0  0  0  0  0  0  0  0  0  0  0
    5.8710  -22.5480  -45.7630 H   0  0  0  0  0  0  0  0  0  0  0  0
    4.2540  -23.3070  -45.5130 H   0  0  0  0  0  0  0  0  0  0  0  0
    4.0180  -21.3510  -46.8050 H   0  0  0  0  0  0  0  0  0  0  0  0
    4.0000  -19.3990  -44.7650 H   0  0  0  0  0  0  0  0  0  0  0  0
    5.0290  -19.3740  -46.2070 H   0  0  0  0  0  0  0  0  0  0  0  0
    6.2800  -19.2280  -44.0950 H   0  0  0  0  0  0  0  0  0  0  0  0
    6.6920  -20.7520  -45.0450 H   0  0  0  0  0  0  0  0  0  0  0  0
    2.5650  -22.4140  -44.9270 H   0  0  0  0  0  0  0  0  0  0  0  0
    2.8320  -20.8200  -44.1970 H   0  0  0  0  0  0  0  0  0  0  0  0
    2.0630  -20.8690  -45.7970 H   0  0  0  0  0  0  0  0  0  0  0  0
    6.9380  -19.2670  -39.3180 H   0  0  0  0  0  0  0  0  0  0  0  0
    5.8790  -20.9410  -38.0450 H   0  0  0  0  0  0  0  0  0  0  0  0
    5.2470  -22.9250  -39.2840 H   0  0  0  0  0  0  0  0  0  0  0  0
    4.6530  -18.8700  -37.2510 H   0  0  0  0  0  0  0  0  0  0  0  0
    3.1110  -21.3590  -40.2940 H   0  0  0  0  0  0  0  0  0  0  0  0
  1  2  1  0  0  0  0
  2 15  1  0  0  0  0
  3 11  1  0  0  0  0
  3  2  2  0  0  0  0
  4  3  1  0  0  0  0
  5  4  2  0  0  0  0
  5  1  1  0  0  0  0
  6  5  1  0  0  0  0
  7  8  1  0  0  0  0
  7  6  1  0  0  0  0
  7 10  1  0  0  0  0
  8 28  1  0  0  0  0
  8  9  1  0  0  0  0
  9 30  1  0  0  0  0
  9  4  1  0  0  0  0
 10 32  1  0  0  0  0
 10 33  1  0  0  0  0
 11 13  1  0  0  0  0
 12 11  2  0  0  0  0
 13 35  1  0  0  0  0
 13 14  1  0  0  0  0
 14 16  1  0  0  0  0
 14 36  1  1  0  0  0
 15 37  1  0  0  0  0
 15 14  1  0  0  0  0
 16 17  1  0  0  0  0
 17 18  2  0  0  0  0
 17 38  1  0  0  0  0
 18 24  1  0  0  0  0
 19 23  1  0  0  0  0
 19 18  1  0  0  0  0
 20 19  2  0  0  0  0
 21 20  1  0  0  0  0
 21 16  2  0  0  0  0
 22 20  1  0  0  0  0
 25  6  1  0  0  0  0
 26  6  1  0  0  0  0
 27  7  1  0  0  0  0
 29  8  1  0  0  0  0
 31  9  1  0  0  0  0
 34 10  1  0  0  0  0
 39 21  1  0  0  0  0
M  END
>  <Pose>
1

>  <Score>
-4.48

$$$$
