
 OpenBabel03232221553D

 46 49  0  0  1  0  0  0  0  0999 V2000
    6.3320  -19.0540  -42.3370 S   0  0  0  0  0  0  0  0  0  0  0  0
    5.9380  -20.1520  -41.0910 C   0  0  0  0  0  0  0  0  0  0  0  0
    5.2590  -21.1370  -41.7530 C   0  0  0  0  0  0  0  0  0  0  0  0
    5.1010  -20.9840  -43.0920 C   0  0  0  0  0  0  0  0  0  0  0  0
    5.6360  -19.8540  -43.6580 C   0  0  0  0  0  0  0  0  0  0  0  0
    5.5270  -19.5690  -45.1190 C   0  0  0  0  0  0  0  0  0  0  0  0
    5.5100  -20.7310  -45.9400 N   0  0  0  0  0  4  0  0  0  0  0  0
    5.2820  -21.9710  -45.2810 C   0  0  0  0  0  0  0  0  0  0  0  0
    4.3920  -21.9200  -44.0780 C   0  0  0  0  0  0  0  0  0  0  0  0
    4.6200  -20.5540  -47.0810 C   0  0  0  0  0  0  0  0  0  0  0  0
    4.8020  -22.2500  -40.8650 C   0  0  0  0  0  0  0  0  0  0  0  0
    4.1570  -23.2280  -41.3650 O   0  0  0  0  0  0  0  0  0  0  0  0
    5.0890  -22.2080  -39.4810 N   0  0  0  0  0  0  0  0  0  0  0  0
    5.2640  -20.9440  -38.8000 C   0  0  1  0  0  0  0  0  0  0  0  0
    6.1770  -20.1900  -39.6580 N   0  0  0  0  0  0  0  0  0  0  0  0
    3.9370  -20.2760  -38.7610 C   0  0  0  0  0  0  0  0  0  0  0  0
    2.9890  -20.5350  -39.7260 C   0  0  0  0  0  0  0  0  0  0  0  0
    1.7530  -19.9260  -39.7070 C   0  0  0  0  0  0  0  0  0  0  0  0
    1.4510  -19.0260  -38.6930 C   0  0  0  0  0  0  0  0  0  0  0  0
    2.3800  -18.7470  -37.7150 C   0  0  0  0  0  0  0  0  0  0  0  0
    3.5900  -19.3650  -37.7610 C   0  0  0  0  0  0  0  0  0  0  0  0
    2.0310  -17.8440  -36.7270 O   0  0  0  0  0  0  0  0  0  0  0  0
    1.8500  -16.4740  -36.8980 C   0  0  0  0  0  0  0  0  0  0  0  0
    0.7010  -15.9570  -36.0600 C   0  0  0  0  0  0  0  0  0  0  0  0
    0.2080  -18.3980  -38.6540 O   0  0  0  0  0  0  0  0  0  0  0  0
    0.4310  -20.2760  -41.0350 B   0  0  0  0  0  0  0  0  0  0  0  0
    4.5560  -19.0300  -45.2570 H   0  0  0  0  0  0  0  0  0  0  0  0
    6.3200  -18.8480  -45.3930 H   0  0  0  0  0  0  0  0  0  0  0  0
    6.4810  -20.8010  -46.3780 H   0  0  0  0  0  0  0  0  0  0  0  0
    6.2290  -22.4760  -45.0010 H   0  0  0  0  0  0  0  0  0  0  0  0
    4.7870  -22.6600  -46.0210 H   0  0  0  0  0  0  0  0  0  0  0  0
    3.3850  -21.5340  -44.3060 H   0  0  0  0  0  0  0  0  0  0  0  0
    4.3710  -22.9380  -43.6550 H   0  0  0  0  0  0  0  0  0  0  0  0
    5.0430  -20.9760  -48.0110 H   0  0  0  0  0  0  0  0  0  0  0  0
    4.4560  -19.4560  -47.2270 H   0  0  0  0  0  0  0  0  0  0  0  0
    3.6420  -21.0470  -46.9170 H   0  0  0  0  0  0  0  0  0  0  0  0
    5.1750  -23.0970  -38.9400 H   0  0  0  0  0  0  0  0  0  0  0  0
    5.7050  -21.0660  -37.8060 H   0  0  0  0  0  0  0  0  0  0  0  0
    7.0010  -19.6660  -39.3210 H   0  0  0  0  0  0  0  0  0  0  0  0
    3.1980  -21.2250  -40.5190 H   0  0  0  0  0  0  0  0  0  0  0  0
    4.3310  -19.1680  -37.0180 H   0  0  0  0  0  0  0  0  0  0  0  0
    2.8010  -15.9630  -36.6370 H   0  0  0  0  0  0  0  0  0  0  0  0
    1.6330  -16.2310  -37.9580 H   0  0  0  0  0  0  0  0  0  0  0  0
    0.2870  -16.8140  -35.4910 H   0  0  0  0  0  0  0  0  0  0  0  0
    1.0250  -15.1140  -35.4100 H   0  0  0  0  0  0  0  0  0  0  0  0
   -0.1450  -15.6170  -36.7180 H   0  0  0  0  0  0  0  0  0  0  0  0
  1  2  1  0  0  0  0
  2 15  1  0  0  0  0
  3  2  2  0  0  0  0
  3 11  1  0  0  0  0
  4  3  1  0  0  0  0
  5  4  2  0  0  0  0
  5  1  1  0  0  0  0
  6  5  1  0  0  0  0
  7  8  1  0  0  0  0
  7  6  1  0  0  0  0
  8 30  1  0  0  0  0
  8  9  1  0  0  0  0
  9 33  1  0  0  0  0
  9  4  1  0  0  0  0
 10 36  1  0  0  0  0
 10  7  1  0  0  0  0
 11 13  1  0  0  0  0
 12 11  2  0  0  0  0
 13 37  1  0  0  0  0
 13 14  1  0  0  0  0
 14 16  1  0  0  0  0
 14 38  1  1  0  0  0
 15 39  1  0  0  0  0
 15 14  1  0  0  0  0
 16 21  1  0  0  0  0
 17 18  1  0  0  0  0
 17 16  2  0  0  0  0
 18 19  2  0  0  0  0
 19 25  1  0  0  0  0
 19 20  1  0  0  0  0
 20 22  1  0  0  0  0
 21 20  2  0  0  0  0
 21 41  1  0  0  0  0
 23 22  1  0  0  0  0
 23 42  1  0  0  0  0
 23 24  1  0  0  0  0
 24 44  1  0  0  0  0
 24 45  1  0  0  0  0
 26 18  1  0  0  0  0
 27  6  1  0  0  0  0
 28  6  1  0  0  0  0
 29  7  1  0  0  0  0
 31  8  1  0  0  0  0
 32  9  1  0  0  0  0
 34 10  1  0  0  0  0
 35 10  1  0  0  0  0
 40 17  1  0  0  0  0
 43 23  1  0  0  0  0
 46 24  1  0  0  0  0
M  END
>  <Pose>
1

>  <Score>
-4.19

$$$$
