
 OpenBabel03232221553D

 40 43  0  0  1  0  0  0  0  0999 V2000
    6.2770  -20.6350  -39.0900 S   0  0  0  0  0  0  0  0  0  0  0  0
    6.0000  -19.1190  -38.1380 C   0  0  2  0  0  0  0  0  0  0  0  0
    4.5810  -19.3620  -37.7000 C   0  0  0  0  0  0  0  0  0  0  0  0
    3.8300  -20.0870  -38.6800 N   0  0  0  0  0  0  0  0  0  0  0  0
    4.5560  -20.8170  -39.5440 C   0  0  2  0  0  0  0  0  0  0  0  0
    3.7350  -21.4160  -40.4140 N   0  0  0  0  0  0  0  0  0  0  0  0
    2.4630  -21.0730  -40.1110 C   0  0  0  0  0  0  0  0  0  0  0  0
    2.5050  -20.2370  -39.0210 C   0  0  0  0  0  0  0  0  0  0  0  0
    1.3430  -19.6460  -38.4010 C   0  0  0  0  0  0  0  0  0  0  0  0
    1.5120  -18.4330  -37.7120 C   0  0  0  0  0  0  0  0  0  0  0  0
    0.4440  -17.7970  -37.1340 C   0  0  0  0  0  0  0  0  0  0  0  0
   -0.8360  -18.2890  -37.1870 C   0  0  0  0  0  0  0  0  0  0  0  0
   -1.0290  -19.4750  -37.8570 C   0  0  0  0  0  0  0  0  0  0  0  0
    0.0610  -20.1250  -38.4480 C   0  0  0  0  0  0  0  0  0  0  0  0
   -1.8850  -17.5730  -36.5640 N   0  0  0  0  0  0  0  0  0  0  0  0
   -2.2320  -16.4640  -36.9870 O   0  0  0  0  0  0  0  0  0  0  0  0
   -2.5150  -18.1160  -35.4870 O   0  0  0  0  0  0  0  0  0  0  0  0
    4.1120  -22.2750  -41.4840 C   0  0  0  0  0  0  0  0  0  0  0  0
    5.2530  -22.0620  -42.2220 C   0  0  0  0  0  0  0  0  0  0  0  0
    5.6410  -22.8780  -43.2630 C   0  0  0  0  0  0  0  0  0  0  0  0
    4.8640  -23.9640  -43.6000 C   0  0  0  0  0  0  0  0  0  0  0  0
    3.7080  -24.2100  -42.8790 C   0  0  0  0  0  0  0  0  0  0  0  0
    3.3420  -23.3770  -41.8410 C   0  0  0  0  0  0  0  0  0  0  0  0
    5.3700  -25.1190  -45.0390 B   0  0  0  0  0  0  0  0  0  0  0  0
    6.0070  -17.9000  -39.0290 C   0  0  0  0  0  0  0  0  0  0  0  0
    6.6820  -19.0270  -37.2810 H   0  0  0  0  0  0  0  0  0  0  0  0
    4.6330  -19.9310  -36.7430 H   0  0  0  0  0  0  0  0  0  0  0  0
    4.1010  -18.3610  -37.5190 H   0  0  0  0  0  0  0  0  0  0  0  0
    1.5640  -21.4170  -40.6570 H   0  0  0  0  0  0  0  0  0  0  0  0
    2.5060  -18.0000  -37.6340 H   0  0  0  0  0  0  0  0  0  0  0  0
    0.6300  -16.8590  -36.6100 H   0  0  0  0  0  0  0  0  0  0  0  0
   -2.0210  -19.9050  -37.9280 H   0  0  0  0  0  0  0  0  0  0  0  0
   -0.1670  -21.0230  -38.9720 H   0  0  0  0  0  0  0  0  0  0  0  0
    5.8740  -21.1960  -41.9550 H   0  0  0  0  0  0  0  0  0  0  0  0
    6.5530  -22.6360  -43.7880 H   0  0  0  0  0  0  0  0  0  0  0  0
    3.0810  -25.0670  -43.1330 H   0  0  0  0  0  0  0  0  0  0  0  0
    2.4450  -23.5290  -41.2470 H   0  0  0  0  0  0  0  0  0  0  0  0
    7.0120  -17.6220  -39.3530 H   0  0  0  0  0  0  0  0  0  0  0  0
    5.3770  -18.1510  -39.9140 H   0  0  0  0  0  0  0  0  0  0  0  0
    5.5520  -17.0590  -38.4740 H   0  0  0  0  0  0  0  0  0  0  0  0
  1  2  1  0  0  0  0
  2  3  1  0  0  0  0
  2 26  1  1  0  0  0
  3 28  1  0  0  0  0
  3 27  1  0  0  0  0
  4  3  1  0  0  0  0
  5  1  1  1  0  0  0
  5  4  1  0  0  0  0
  6  7  1  0  0  0  0
  6  5  1  0  0  0  0
  7  8  2  0  0  0  0
  8  4  1  0  0  0  0
  8  9  1  0  0  0  0
  9 10  1  0  0  0  0
 10 30  1  0  0  0  0
 10 11  2  0  0  0  0
 11 31  1  0  0  0  0
 12 11  1  0  0  0  0
 12 15  1  0  0  0  0
 13 12  2  0  0  0  0
 14  9  2  0  0  0  0
 14 13  1  0  0  0  0
 15 17  2  0  0  0  0
 16 15  2  0  0  0  0
 18  6  1  0  0  0  0
 19 34  1  0  0  0  0
 19 18  2  0  0  0  0
 20 19  1  0  0  0  0
 21 20  2  0  0  0  0
 21 22  1  0  0  0  0
 22 23  2  0  0  0  0
 23 18  1  0  0  0  0
 23 37  1  0  0  0  0
 24 21  1  0  0  0  0
 25 40  1  0  0  0  0
 25  2  1  0  0  0  0
 29  7  1  0  0  0  0
 32 13  1  0  0  0  0
 33 14  1  0  0  0  0
 35 20  1  0  0  0  0
 36 22  1  0  0  0  0
 38 25  1  0  0  0  0
 39 25  1  0  0  0  0
M  END
>  <Pose>
1

>  <Score>
-4.24

$$$$
