
 OpenBabel03232221553D

 42 45  0  0  1  0  0  0  0  0999 V2000
    2.6420  -24.5810  -41.9110 S   0  0  0  0  0  0  0  0  0  0  0  0
    1.6490  -25.2710  -43.2650 C   0  0  0  0  0  0  0  0  0  0  0  0
    2.4440  -25.0830  -44.5440 C   0  0  0  0  0  0  0  0  0  0  0  0
    3.8920  -25.4680  -44.3210 C   0  0  0  0  0  0  0  0  0  0  0  0
    4.5560  -24.2950  -43.7770 N   0  0  0  0  0  0  0  0  0  0  0  0
    4.0600  -23.7860  -42.6470 C   0  0  2  0  0  0  0  0  0  0  0  0
    4.8140  -22.6880  -42.2890 N   0  0  0  0  0  0  0  0  0  0  0  0
    5.7690  -22.5150  -43.1870 C   0  0  0  0  0  0  0  0  0  0  0  0
    5.5910  -23.5360  -44.1170 C   0  0  0  0  0  0  0  0  0  0  0  0
    6.8220  -21.5160  -43.2800 C   0  0  0  0  0  0  0  0  0  0  0  0
    8.0730  -21.8850  -43.7960 C   0  0  0  0  0  0  0  0  0  0  0  0
    9.1010  -20.9900  -43.9070 C   0  0  0  0  0  0  0  0  0  0  0  0
    8.9880  -19.6720  -43.5270 C   0  0  0  0  0  0  0  0  0  0  0  0
    7.7690  -19.3020  -43.0210 C   0  0  0  0  0  0  0  0  0  0  0  0
    6.7010  -20.2020  -42.8970 C   0  0  0  0  0  0  0  0  0  0  0  0
   10.0550  -18.7930  -43.6550 O   0  0  0  0  0  0  0  0  0  0  0  0
   11.3850  -19.2750  -43.6280 C   0  0  0  0  0  0  0  0  0  0  0  0
    4.5270  -21.9270  -41.1180 C   0  0  0  0  0  0  0  0  0  0  0  0
    5.4480  -21.8340  -40.0890 C   0  0  0  0  0  0  0  0  0  0  0  0
    5.2140  -21.0820  -38.9560 C   0  0  0  0  0  0  0  0  0  0  0  0
    4.0130  -20.4070  -38.8620 C   0  0  0  0  0  0  0  0  0  0  0  0
    3.1010  -20.5060  -39.8920 C   0  0  0  0  0  0  0  0  0  0  0  0
    3.3140  -21.2500  -41.0310 C   0  0  0  0  0  0  0  0  0  0  0  0
    3.5960  -19.3360  -37.3230 B   0  0  0  0  0  0  0  0  0  0  0  0
    1.4880  -26.3530  -43.1080 H   0  0  0  0  0  0  0  0  0  0  0  0
    0.7030  -24.7010  -43.2880 H   0  0  0  0  0  0  0  0  0  0  0  0
    1.9910  -25.6570  -45.3790 H   0  0  0  0  0  0  0  0  0  0  0  0
    2.3730  -24.0070  -44.8200 H   0  0  0  0  0  0  0  0  0  0  0  0
    3.8940  -26.2310  -43.4890 H   0  0  0  0  0  0  0  0  0  0  0  0
    4.3750  -25.8460  -45.2260 H   0  0  0  0  0  0  0  0  0  0  0  0
    6.1760  -23.7400  -45.0100 H   0  0  0  0  0  0  0  0  0  0  0  0
    8.2110  -22.9070  -44.1080 H   0  0  0  0  0  0  0  0  0  0  0  0
   10.0820  -21.2880  -44.3140 H   0  0  0  0  0  0  0  0  0  0  0  0
    7.6110  -18.2850  -42.7030 H   0  0  0  0  0  0  0  0  0  0  0  0
    5.7740  -19.8550  -42.4960 H   0  0  0  0  0  0  0  0  0  0  0  0
   12.1240  -18.4920  -43.7890 H   0  0  0  0  0  0  0  0  0  0  0  0
   11.4820  -20.1000  -44.3930 H   0  0  0  0  0  0  0  0  0  0  0  0
   11.5710  -19.7550  -42.6550 H   0  0  0  0  0  0  0  0  0  0  0  0
    6.4050  -22.3500  -40.1250 H   0  0  0  0  0  0  0  0  0  0  0  0
    5.9190  -20.9970  -38.1430 H   0  0  0  0  0  0  0  0  0  0  0  0
    2.1370  -19.9790  -39.8450 H   0  0  0  0  0  0  0  0  0  0  0  0
    2.5870  -21.3170  -41.8310 H   0  0  0  0  0  0  0  0  0  0  0  0
  2 25  1  0  0  0  0
  2  1  1  0  0  0  0
  3  4  1  0  0  0  0
  3  2  1  0  0  0  0
  4  5  1  0  0  0  0
  4 29  1  0  0  0  0
  5  6  1  0  0  0  0
  6  7  1  0  0  0  0
  6  1  1  1  0  0  0
  7 18  1  0  0  0  0
  8  7  1  0  0  0  0
  9  5  1  0  0  0  0
  9  8  2  0  0  0  0
 10  8  1  0  0  0  0
 10 15  1  0  0  0  0
 11 10  2  0  0  0  0
 12 11  1  0  0  0  0
 12 13  2  0  0  0  0
 13 14  1  0  0  0  0
 14 15  2  0  0  0  0
 14 34  1  0  0  0  0
 15 35  1  0  0  0  0
 16 17  1  0  0  0  0
 16 13  1  0  0  0  0
 17 38  1  0  0  0  0
 18 23  2  0  0  0  0
 18 19  1  0  0  0  0
 19 20  2  0  0  0  0
 20 21  1  0  0  0  0
 20 40  1  0  0  0  0
 21 24  1  0  0  0  0
 22 41  1  0  0  0  0
 22 21  2  0  0  0  0
 23 22  1  0  0  0  0
 26  2  1  0  0  0  0
 27  3  1  0  0  0  0
 28  3  1  0  0  0  0
 30  4  1  0  0  0  0
 31  9  1  0  0  0  0
 32 11  1  0  0  0  0
 33 12  1  0  0  0  0
 36 17  1  0  0  0  0
 37 17  1  0  0  0  0
 39 19  1  0  0  0  0
 42 23  1  0  0  0  0
M  END
>  <Pose>
1

>  <Score>
-3.86

$$$$
