
 OpenBabel03232221553D

 43 46  0  0  1  0  0  0  0  0999 V2000
    4.3790  -20.6750  -38.5140 S   0  0  0  0  0  0  0  0  0  0  0  0
    6.0010  -19.8330  -38.7350 C   0  0  0  0  0  0  0  0  0  0  0  0
    6.2190  -19.5580  -40.2130 C   0  0  0  0  0  0  0  0  0  0  0  0
    5.8770  -20.7670  -41.0450 C   0  0  0  0  0  0  0  0  0  0  0  0
    4.4650  -20.8340  -41.2480 N   0  0  2  0  0  0  0  0  0  0  0  0
    3.5670  -21.1260  -42.3500 C   0  0  1  0  0  0  0  0  0  0  0  0
    2.3250  -20.3260  -42.0000 C   0  0  0  0  0  0  0  0  0  0  0  0
    2.4130  -20.2820  -40.5270 N   0  0  0  0  0  0  0  0  0  0  0  0
    3.5940  -20.5560  -40.1400 C   0  0  1  0  0  0  0  0  0  0  0  0
    1.3210  -19.9560  -39.6710 C   0  0  0  0  0  0  0  0  0  0  0  0
    0.1570  -20.6570  -39.5460 C   0  0  0  0  0  0  0  0  0  0  0  0
   -0.8610  -20.2920  -38.6760 C   0  0  0  0  0  0  0  0  0  0  0  0
   -0.7140  -19.1690  -37.8880 C   0  0  0  0  0  0  0  0  0  0  0  0
    0.4590  -18.4290  -37.9890 C   0  0  0  0  0  0  0  0  0  0  0  0
    1.4640  -18.8150  -38.8670 C   0  0  0  0  0  0  0  0  0  0  0  0
   -2.0620  -18.5810  -36.6630 B   0  0  0  0  0  0  0  0  0  0  0  0
    4.0970  -20.7640  -43.5720 O   0  0  0  0  0  0  0  0  0  0  0  0
    3.1890  -22.5590  -42.3830 C   0  0  0  0  0  0  0  0  0  0  0  0
    4.0750  -23.4910  -42.8870 C   0  0  0  0  0  0  0  0  0  0  0  0
    3.6780  -24.8280  -42.8990 C   0  0  0  0  0  0  0  0  0  0  0  0
    2.4570  -25.2060  -42.4290 C   0  0  0  0  0  0  0  0  0  0  0  0
    1.5600  -24.2840  -41.9200 C   0  0  0  0  0  0  0  0  0  0  0  0
    1.9660  -22.9440  -41.9110 C   0  0  0  0  0  0  0  0  0  0  0  0
    4.5810  -25.7920  -43.4140 N   0  0  0  0  0  0  0  0  0  0  0  0
    4.3450  -26.4180  -44.4650 O   0  0  0  0  0  0  0  0  0  0  0  0
    5.7560  -26.0740  -42.7770 O   0  0  0  0  0  0  0  0  0  0  0  0
    6.8030  -20.4260  -38.2950 H   0  0  0  0  0  0  0  0  0  0  0  0
    5.9540  -18.8520  -38.2300 H   0  0  0  0  0  0  0  0  0  0  0  0
    7.2990  -19.3330  -40.3680 H   0  0  0  0  0  0  0  0  0  0  0  0
    5.6380  -18.7030  -40.5690 H   0  0  0  0  0  0  0  0  0  0  0  0
    6.4680  -20.7630  -41.9750 H   0  0  0  0  0  0  0  0  0  0  0  0
    6.1710  -21.6870  -40.4560 H   0  0  0  0  0  0  0  0  0  0  0  0
    2.3410  -19.3170  -42.4240 H   0  0  0  0  0  0  0  0  0  0  0  0
    1.3820  -20.8510  -42.2750 H   0  0  0  0  0  0  0  0  0  0  0  0
   -0.0050  -21.5360  -40.1460 H   0  0  0  0  0  0  0  0  0  0  0  0
   -1.7790  -20.8590  -38.5860 H   0  0  0  0  0  0  0  0  0  0  0  0
    0.5560  -17.5530  -37.3580 H   0  0  0  0  0  0  0  0  0  0  0  0
    2.3720  -18.2190  -38.9270 H   0  0  0  0  0  0  0  0  0  0  0  0
    4.2870  -21.4880  -44.1860 H   0  0  0  0  0  0  0  0  0  0  0  0
    5.0390  -23.1900  -43.2590 H   0  0  0  0  0  0  0  0  0  0  0  0
    2.1490  -26.2420  -42.4370 H   0  0  0  0  0  0  0  0  0  0  0  0
    0.6140  -24.6010  -41.5530 H   0  0  0  0  0  0  0  0  0  0  0  0
    1.2510  -22.2420  -41.5120 H   0  0  0  0  0  0  0  0  0  0  0  0
  2  1  1  0  0  0  0
  2 27  1  0  0  0  0
  2 28  1  0  0  0  0
  3  2  1  0  0  0  0
  4 32  1  0  0  0  0
  4  3  1  0  0  0  0
  5  4  1  6  0  0  0
  5  9  1  0  0  0  0
  6 17  1  6  0  0  0
  6  7  1  0  0  0  0
  6  5  1  0  0  0  0
  7  8  1  0  0  0  0
  8  9  1  0  0  0  0
  8 10  1  0  0  0  0
  9  1  1  1  0  0  0
 10 11  2  0  0  0  0
 10 15  1  0  0  0  0
 11 12  1  0  0  0  0
 12 36  1  0  0  0  0
 12 13  2  0  0  0  0
 13 16  1  0  0  0  0
 14 13  1  0  0  0  0
 14 37  1  0  0  0  0
 15 14  2  0  0  0  0
 18  6  1  0  0  0  0
 18 23  1  0  0  0  0
 19 18  2  0  0  0  0
 20 19  1  0  0  0  0
 20 21  2  0  0  0  0
 21 22  1  0  0  0  0
 22 23  2  0  0  0  0
 22 42  1  0  0  0  0
 23 43  1  0  0  0  0
 24 20  1  0  0  0  0
 24 26  2  0  0  0  0
 25 24  2  0  0  0  0
 29  3  1  0  0  0  0
 30  3  1  0  0  0  0
 31  4  1  0  0  0  0
 33  7  1  0  0  0  0
 34  7  1  0  0  0  0
 35 11  1  0  0  0  0
 38 15  1  0  0  0  0
 39 17  1  0  0  0  0
 40 19  1  0  0  0  0
 41 21  1  0  0  0  0
M  END
>  <Pose>
1

>  <Score>
-3.69

$$$$
