
 OpenBabel03232221553D

 41 44  0  0  1  0  0  0  0  0999 V2000
    3.8990  -23.1790  -42.8550 S   0  0  0  0  0  0  0  0  0  0  0  0
    3.9950  -25.0070  -43.1140 C   0  0  0  0  0  0  0  0  0  0  0  0
    5.3840  -25.4020  -43.5430 C   0  0  0  0  0  0  0  0  0  0  0  0
    6.1230  -24.3160  -44.2950 C   0  0  0  0  0  0  0  0  0  0  0  0
    6.5360  -23.2330  -43.4920 N   0  0  1  0  0  0  0  0  0  0  0  0
    7.6620  -22.2960  -43.3310 C   0  0  1  0  0  0  0  0  0  0  0  0
    7.6420  -22.2080  -41.8240 C   0  0  0  0  0  0  0  0  0  0  0  0
    6.2140  -22.1230  -41.5600 N   0  0  0  0  0  0  0  0  0  0  0  0
    5.6290  -22.7690  -42.4530 C   0  0  1  0  0  0  0  0  0  0  0  0
    5.6050  -21.3650  -40.4920 C   0  0  0  0  0  0  0  0  0  0  0  0
    5.7390  -20.0260  -40.3050 C   0  0  0  0  0  0  0  0  0  0  0  0
    5.1730  -19.3420  -39.2370 C   0  0  0  0  0  0  0  0  0  0  0  0
    4.4370  -20.0300  -38.3090 C   0  0  0  0  0  0  0  0  0  0  0  0
    4.2960  -21.3910  -38.4950 C   0  0  0  0  0  0  0  0  0  0  0  0
    4.8550  -22.0620  -39.5480 C   0  0  0  0  0  0  0  0  0  0  0  0
    3.6210  -19.1710  -36.7980 B   0  0  0  0  0  0  0  0  0  0  0  0
    8.8480  -22.8020  -43.7680 O   0  0  0  0  0  0  0  0  0  0  0  0
    7.3220  -20.9560  -43.9150 C   0  0  0  0  0  0  0  0  0  0  0  0
    6.6960  -20.8080  -45.1380 C   0  0  0  0  0  0  0  0  0  0  0  0
    6.4100  -19.5300  -45.6020 C   0  0  0  0  0  0  0  0  0  0  0  0
    6.7260  -18.3830  -44.8870 C   0  0  0  0  0  0  0  0  0  0  0  0
    7.3460  -18.5220  -43.6740 C   0  0  0  0  0  0  0  0  0  0  0  0
    7.6360  -19.8030  -43.2070 C   0  0  0  0  0  0  0  0  0  0  0  0
    3.8870  -25.4380  -42.0770 H   0  0  0  0  0  0  0  0  0  0  0  0
    3.1840  -25.3340  -43.7740 H   0  0  0  0  0  0  0  0  0  0  0  0
    5.2680  -26.2760  -44.2520 H   0  0  0  0  0  0  0  0  0  0  0  0
    6.0250  -25.6910  -42.6840 H   0  0  0  0  0  0  0  0  0  0  0  0
    6.9090  -24.7490  -44.9480 H   0  0  0  0  0  0  0  0  0  0  0  0
    5.3330  -23.9090  -45.0140 H   0  0  0  0  0  0  0  0  0  0  0  0
    8.2530  -21.4510  -41.3860 H   0  0  0  0  0  0  0  0  0  0  0  0
    7.9650  -23.2360  -41.4600 H   0  0  0  0  0  0  0  0  0  0  0  0
    6.3210  -19.4240  -41.0200 H   0  0  0  0  0  0  0  0  0  0  0  0
    5.3110  -18.2720  -39.1330 H   0  0  0  0  0  0  0  0  0  0  0  0
    3.7100  -21.9340  -37.7490 H   0  0  0  0  0  0  0  0  0  0  0  0
    4.7230  -23.1450  -39.6750 H   0  0  0  0  0  0  0  0  0  0  0  0
    9.6310  -22.6420  -43.1860 H   0  0  0  0  0  0  0  0  0  0  0  0
    6.4480  -21.6940  -45.7110 H   0  0  0  0  0  0  0  0  0  0  0  0
    5.9240  -19.4520  -46.5580 H   0  0  0  0  0  0  0  0  0  0  0  0
    6.4890  -17.4000  -45.2750 H   0  0  0  0  0  0  0  0  0  0  0  0
    7.6020  -17.6630  -43.0770 H   0  0  0  0  0  0  0  0  0  0  0  0
    8.1300  -19.9190  -42.2530 H   0  0  0  0  0  0  0  0  0  0  0  0
  2  1  1  0  0  0  0
  2 24  1  0  0  0  0
  3  2  1  0  0  0  0
  3 27  1  0  0  0  0
  4  3  1  0  0  0  0
  5  4  1  6  0  0  0
  5  6  1  0  0  0  0
  5  9  1  0  0  0  0
  6 17  1  6  0  0  0
  6  7  1  0  0  0  0
  7  8  1  0  0  0  0
  7 31  1  0  0  0  0
  7 30  1  0  0  0  0
  8 10  1  0  0  0  0
  9  1  1  6  0  0  0
  9  8  1  0  0  0  0
 10 11  2  0  0  0  0
 10 15  1  0  0  0  0
 11 12  1  0  0  0  0
 12 33  1  0  0  0  0
 12 13  2  0  0  0  0
 13 16  1  0  0  0  0
 14 13  1  0  0  0  0
 14 34  1  0  0  0  0
 15 14  2  0  0  0  0
 17 36  1  0  0  0  0
 18  6  1  0  0  0  0
 18 23  1  0  0  0  0
 19 18  2  0  0  0  0
 20 19  1  0  0  0  0
 20 21  2  0  0  0  0
 21 22  1  0  0  0  0
 22 23  2  0  0  0  0
 22 40  1  0  0  0  0
 23 41  1  0  0  0  0
 25  2  1  0  0  0  0
 26  3  1  0  0  0  0
 28  4  1  0  0  0  0
 29  4  1  0  0  0  0
 32 11  1  0  0  0  0
 35 15  1  0  0  0  0
 37 19  1  0  0  0  0
 38 20  1  0  0  0  0
 39 21  1  0  0  0  0
M  END
>  <Pose>
1

>  <Score>
-3.24

$$$$
