
 OpenBabel03232221553D

 45 48  0  0  1  0  0  0  0  0999 V2000
    4.8660  -19.9920  -43.8930 S   0  0  0  0  0  0  0  0  0  0  0  0
    6.3690  -19.0210  -44.3190 C   0  0  0  0  0  0  0  0  0  0  0  0
    6.6310  -18.1380  -43.1080 C   0  0  0  0  0  0  0  0  0  0  0  0
    7.0880  -18.9320  -41.9240 C   0  0  0  0  0  0  0  0  0  0  0  0
    6.1260  -19.8600  -41.4150 N   0  0  2  0  0  0  0  0  0  0  0  0
    5.6850  -20.2910  -40.0850 C   0  0  1  0  0  0  0  0  0  0  0  0
    5.5830  -21.7950  -40.4030 C   0  0  0  0  0  0  0  0  0  0  0  0
    4.9550  -21.7700  -41.7110 N   0  0  0  0  0  0  0  0  0  0  0  0
    5.2810  -20.6760  -42.2720 C   0  0  1  0  0  0  0  0  0  0  0  0
    4.1240  -22.8480  -42.1970 C   0  0  0  0  0  0  0  0  0  0  0  0
    4.6850  -23.8590  -42.9710 C   0  0  0  0  0  0  0  0  0  0  0  0
    3.9180  -24.8980  -43.4520 C   0  0  0  0  0  0  0  0  0  0  0  0
    2.5670  -25.0000  -43.2000 C   0  0  0  0  0  0  0  0  0  0  0  0
    2.0040  -24.0050  -42.4370 C   0  0  0  0  0  0  0  0  0  0  0  0
    2.7890  -22.9470  -41.9490 C   0  0  0  0  0  0  0  0  0  0  0  0
    1.8250  -26.0650  -43.7000 O   0  0  0  0  0  0  0  0  0  0  0  0
    1.6960  -26.4020  -45.0520 C   0  0  0  0  0  0  0  0  0  0  0  0
    6.6730  -20.0420  -39.1620 O   0  0  0  0  0  0  0  0  0  0  0  0
    4.3570  -19.7650  -39.7240 C   0  0  0  0  0  0  0  0  0  0  0  0
    3.6020  -18.9000  -40.4860 C   0  0  0  0  0  0  0  0  0  0  0  0
    2.3560  -18.4710  -40.0590 C   0  0  0  0  0  0  0  0  0  0  0  0
    1.8510  -18.9020  -38.8660 C   0  0  0  0  0  0  0  0  0  0  0  0
    2.5940  -19.7670  -38.0920 C   0  0  0  0  0  0  0  0  0  0  0  0
    3.8260  -20.1840  -38.5260 C   0  0  0  0  0  0  0  0  0  0  0  0
    0.1310  -18.3430  -38.2160 B   0  0  0  0  0  0  0  0  0  0  0  0
    6.1480  -18.4280  -45.2020 H   0  0  0  0  0  0  0  0  0  0  0  0
    7.1980  -19.7530  -44.4630 H   0  0  0  0  0  0  0  0  0  0  0  0
    5.6880  -17.5930  -42.8790 H   0  0  0  0  0  0  0  0  0  0  0  0
    7.3880  -17.3670  -43.3260 H   0  0  0  0  0  0  0  0  0  0  0  0
    8.0120  -19.4700  -42.2250 H   0  0  0  0  0  0  0  0  0  0  0  0
    7.3250  -18.1990  -41.1150 H   0  0  0  0  0  0  0  0  0  0  0  0
    6.6390  -22.1150  -40.5600 H   0  0  0  0  0  0  0  0  0  0  0  0
    5.0670  -22.3310  -39.6250 H   0  0  0  0  0  0  0  0  0  0  0  0
    5.7340  -23.8320  -43.2020 H   0  0  0  0  0  0  0  0  0  0  0  0
    4.3470  -25.7000  -44.0620 H   0  0  0  0  0  0  0  0  0  0  0  0
    0.9560  -24.0170  -42.2030 H   0  0  0  0  0  0  0  0  0  0  0  0
    2.3040  -22.1790  -41.3570 H   0  0  0  0  0  0  0  0  0  0  0  0
    0.6420  -26.7330  -45.2760 H   0  0  0  0  0  0  0  0  0  0  0  0
    1.9170  -25.6010  -45.7640 H   0  0  0  0  0  0  0  0  0  0  0  0
    2.3150  -27.3210  -45.2440 H   0  0  0  0  0  0  0  0  0  0  0  0
    7.4920  -19.6660  -39.5650 H   0  0  0  0  0  0  0  0  0  0  0  0
    4.0150  -18.5750  -41.4140 H   0  0  0  0  0  0  0  0  0  0  0  0
    1.7740  -17.7940  -40.6710 H   0  0  0  0  0  0  0  0  0  0  0  0
    2.2000  -20.1150  -37.1410 H   0  0  0  0  0  0  0  0  0  0  0  0
    4.3800  -20.8720  -37.8820 H   0  0  0  0  0  0  0  0  0  0  0  0
  2  1  1  0  0  0  0
  2  3  1  0  0  0  0
  3 28  1  0  0  0  0
  3  4  1  0  0  0  0
  4 31  1  0  0  0  0
  5  4  1  6  0  0  0
  5  6  1  0  0  0  0
  6 19  1  0  0  0  0
  6 18  1  1  0  0  0
  7  6  1  0  0  0  0
  7 33  1  0  0  0  0
  8  7  1  0  0  0  0
  9  1  1  1  0  0  0
  9  8  1  0  0  0  0
  9  5  1  0  0  0  0
 10 15  1  0  0  0  0
 10  8  1  0  0  0  0
 11 10  2  0  0  0  0
 12 13  2  0  0  0  0
 12 11  1  0  0  0  0
 13 14  1  0  0  0  0
 14 36  1  0  0  0  0
 14 15  2  0  0  0  0
 15 37  1  0  0  0  0
 16 13  1  0  0  0  0
 17 16  1  0  0  0  0
 19 24  1  0  0  0  0
 20 21  1  0  0  0  0
 20 19  2  0  0  0  0
 21 22  2  0  0  0  0
 22 25  1  0  0  0  0
 22 23  1  0  0  0  0
 23 44  1  0  0  0  0
 24 23  2  0  0  0  0
 24 45  1  0  0  0  0
 26  2  1  0  0  0  0
 27  2  1  0  0  0  0
 29  3  1  0  0  0  0
 30  4  1  0  0  0  0
 32  7  1  0  0  0  0
 34 11  1  0  0  0  0
 35 12  1  0  0  0  0
 38 17  1  0  0  0  0
 39 17  1  0  0  0  0
 40 17  1  0  0  0  0
 41 18  1  0  0  0  0
 42 20  1  0  0  0  0
 43 21  1  0  0  0  0
M  END
>  <Pose>
1

>  <Score>
-3.57

$$$$
