
 OpenBabel03232221553D

 41 44  0  0  1  0  0  0  0  0999 V2000
   -1.6780  -17.5710  -36.1310 S   0  0  0  0  0  0  0  0  0  0  0  0
   -2.6870  -19.0060  -36.5980 C   0  0  0  0  0  0  0  0  0  0  0  0
   -2.4020  -19.2620  -38.0810 C   0  0  0  0  0  0  0  0  0  0  0  0
   -0.9300  -19.6840  -38.2120 C   0  0  0  0  0  0  0  0  0  0  0  0
   -0.1190  -18.4610  -38.2600 N   0  0  1  0  0  0  0  0  0  0  0  0
    0.9830  -18.0640  -39.0380 C   0  0  2  0  0  0  0  0  0  0  0  0
    1.0930  -16.5590  -38.8170 C   0  0  0  0  0  0  0  0  0  0  0  0
    0.1930  -16.2960  -37.7360 N   0  0  0  0  0  0  0  0  0  0  0  0
   -0.4350  -17.3550  -37.4260 C   0  0  1  0  0  0  0  0  0  0  0  0
    0.0410  -14.9840  -37.1700 C   0  0  0  0  0  0  0  0  0  0  0  0
   -1.1960  -14.4260  -37.1190 C   0  0  0  0  0  0  0  0  0  0  0  0
   -1.3200  -13.1680  -36.5380 C   0  0  0  0  0  0  0  0  0  0  0  0
   -0.2500  -12.4750  -36.0190 C   0  0  0  0  0  0  0  0  0  0  0  0
    0.9870  -13.0820  -36.0960 C   0  0  0  0  0  0  0  0  0  0  0  0
    1.1470  -14.3230  -36.6620 C   0  0  0  0  0  0  0  0  0  0  0  0
    0.6680  -18.2200  -40.4060 O   0  0  0  0  0  0  0  0  0  0  0  0
    2.2880  -18.6740  -38.7910 C   0  0  0  0  0  0  0  0  0  0  0  0
    3.1430  -18.7690  -39.8880 C   0  0  0  0  0  0  0  0  0  0  0  0
    4.4220  -19.2880  -39.8200 C   0  0  0  0  0  0  0  0  0  0  0  0
    4.9080  -19.7460  -38.6260 C   0  0  0  0  0  0  0  0  0  0  0  0
    4.0740  -19.6620  -37.5260 C   0  0  0  0  0  0  0  0  0  0  0  0
    2.7890  -19.1350  -37.6070 C   0  0  0  0  0  0  0  0  0  0  0  0
    6.6880  -20.4710  -38.4610 B   0  0  0  0  0  0  0  0  0  0  0  0
   -2.3610  -19.8690  -35.9950 H   0  0  0  0  0  0  0  0  0  0  0  0
   -3.7690  -18.7760  -36.4840 H   0  0  0  0  0  0  0  0  0  0  0  0
   -3.0440  -20.0580  -38.4470 H   0  0  0  0  0  0  0  0  0  0  0  0
   -2.5780  -18.3160  -38.6240 H   0  0  0  0  0  0  0  0  0  0  0  0
   -0.6480  -20.3560  -37.4090 H   0  0  0  0  0  0  0  0  0  0  0  0
   -0.8720  -20.2320  -39.1650 H   0  0  0  0  0  0  0  0  0  0  0  0
    0.7760  -16.0170  -39.7260 H   0  0  0  0  0  0  0  0  0  0  0  0
    2.1240  -16.2860  -38.4820 H   0  0  0  0  0  0  0  0  0  0  0  0
   -2.1090  -14.9100  -37.5130 H   0  0  0  0  0  0  0  0  0  0  0  0
   -2.3030  -12.7350  -36.5080 H   0  0  0  0  0  0  0  0  0  0  0  0
   -0.3680  -11.4840  -35.5570 H   0  0  0  0  0  0  0  0  0  0  0  0
    1.8560  -12.5610  -35.6950 H   0  0  0  0  0  0  0  0  0  0  0  0
    2.1220  -14.8250  -36.7330 H   0  0  0  0  0  0  0  0  0  0  0  0
    1.1280  -19.0490  -40.7020 H   0  0  0  0  0  0  0  0  0  0  0  0
    2.7440  -18.4050  -40.8340 H   0  0  0  0  0  0  0  0  0  0  0  0
    5.0550  -19.3410  -40.7150 H   0  0  0  0  0  0  0  0  0  0  0  0
    4.4690  -20.0220  -36.5830 H   0  0  0  0  0  0  0  0  0  0  0  0
    2.1530  -19.0890  -36.7260 H   0  0  0  0  0  0  0  0  0  0  0  0
  2 25  1  0  0  0  0
  2  1  1  0  0  0  0
  2 24  1  0  0  0  0
  3  2  1  0  0  0  0
  4  3  1  0  0  0  0
  4 28  1  0  0  0  0
  5  4  1  6  0  0  0
  5  9  1  0  0  0  0
  6 16  1  6  0  0  0
  6  7  1  0  0  0  0
  6 17  1  0  0  0  0
  6  5  1  0  0  0  0
  7 31  1  0  0  0  0
  7  8  1  0  0  0  0
  8  9  1  0  0  0  0
  8 10  1  0  0  0  0
  9  1  1  6  0  0  0
 10 11  2  0  0  0  0
 10 15  1  0  0  0  0
 11 12  1  0  0  0  0
 12 33  1  0  0  0  0
 12 13  2  0  0  0  0
 13 34  1  0  0  0  0
 14 13  1  0  0  0  0
 14 35  1  0  0  0  0
 15 14  2  0  0  0  0
 17 22  1  0  0  0  0
 18 19  1  0  0  0  0
 18 17  2  0  0  0  0
 19 20  2  0  0  0  0
 20 23  1  0  0  0  0
 20 21  1  0  0  0  0
 21 40  1  0  0  0  0
 22 21  2  0  0  0  0
 22 41  1  0  0  0  0
 26  3  1  0  0  0  0
 27  3  1  0  0  0  0
 29  4  1  0  0  0  0
 30  7  1  0  0  0  0
 32 11  1  0  0  0  0
 36 15  1  0  0  0  0
 37 16  1  0  0  0  0
 38 18  1  0  0  0  0
 39 19  1  0  0  0  0
M  END
>  <Pose>
1

>  <Score>
-3.99

$$$$
