
 OpenBabel03232221553D

 49 52  0  0  0  0  0  0  0  0999 V2000
    6.9830  -25.3550  -43.9950 S   0  0  0  0  0  0  0  0  0  0  0  0
    6.3910  -26.6570  -45.1190 C   0  0  0  0  0  0  0  0  0  0  0  0
    4.9170  -26.5230  -44.9070 C   0  0  0  0  0  0  0  0  0  0  0  0
    4.5530  -25.3760  -44.2450 N   0  0  0  0  0  0  0  0  0  0  0  0
    5.3730  -24.6210  -43.7060 C   0  0  0  0  0  0  0  0  0  0  0  0
    5.1650  -23.0950  -42.7970 S   0  0  0  0  0  0  0  0  0  0  0  0
    6.4880  -21.9380  -43.0820 C   0  0  0  0  0  0  0  0  0  0  0  0
    6.1990  -20.5150  -42.8490 C   0  0  0  0  0  0  0  0  0  0  0  0
    5.6170  -19.9750  -41.7700 N   0  0  0  0  0  0  0  0  0  0  0  0
    5.5410  -18.6560  -42.0240 N   0  0  0  0  0  0  0  0  0  0  0  0
    6.0350  -18.3740  -43.1750 N   0  0  0  0  0  0  0  0  0  0  0  0
    6.4910  -19.5240  -43.7920 C   0  0  0  0  0  0  0  0  0  0  0  0
    7.0870  -19.5500  -45.1020 C   0  0  0  0  0  0  0  0  0  0  0  0
    6.7870  -18.5720  -45.8950 O   0  0  0  0  0  0  0  0  0  0  0  0
    7.9550  -20.4950  -45.6420 N   0  0  0  0  0  0  0  0  0  0  0  0
    9.3470  -20.4740  -45.2820 N   0  0  0  0  0  0  0  0  0  0  0  0
    9.8000  -21.1490  -44.3010 C   0  0  0  0  0  0  0  0  0  0  0  0
   11.2010  -21.1550  -43.9050 C   0  0  0  0  0  0  0  0  0  0  0  0
   11.7910  -20.0620  -43.3130 C   0  0  0  0  0  0  0  0  0  0  0  0
   13.1150  -20.0540  -42.9250 C   0  0  0  0  0  0  0  0  0  0  0  0
   13.9100  -21.1540  -43.1190 C   0  0  0  0  0  0  0  0  0  0  0  0
   13.3420  -22.2880  -43.7210 C   0  0  0  0  0  0  0  0  0  0  0  0
   12.0160  -22.2640  -44.0960 C   0  0  0  0  0  0  0  0  0  0  0  0
   14.1940  -23.3550  -43.8850 O   0  0  0  0  0  0  0  0  0  0  0  0
   14.6460  -24.2110  -42.8650 C   0  0  0  0  0  0  0  0  0  0  0  0
   15.2390  -21.1250  -42.7230 O   0  0  0  0  0  0  0  0  0  0  0  0
   13.8890  -18.5110  -42.1060 B   0  0  0  0  0  0  0  0  0  0  0  0
    5.1070  -20.5480  -40.5690 C   0  0  0  0  0  0  0  0  0  0  0  0
    4.1690  -21.5080  -40.4310 N   0  0  0  0  0  0  0  0  0  0  0  0
    3.9630  -21.8090  -39.2040 O   0  0  0  0  0  0  0  0  0  0  0  0
    4.7440  -21.0750  -38.4750 N   0  0  0  0  0  0  0  0  0  0  0  0
    5.4910  -20.2590  -39.2770 C   0  0  0  0  0  0  0  0  0  0  0  0
    6.4690  -19.3310  -38.8540 N   0  0  0  0  0  4  0  0  0  0  0  0
    6.7140  -26.4930  -46.1560 H   0  0  0  0  0  0  0  0  0  0  0  0
    6.7120  -27.6270  -44.6910 H   0  0  0  0  0  0  0  0  0  0  0  0
    4.4710  -27.4700  -44.5120 H   0  0  0  0  0  0  0  0  0  0  0  0
    4.4680  -26.4650  -45.9540 H   0  0  0  0  0  0  0  0  0  0  0  0
    6.8460  -22.0900  -44.1140 H   0  0  0  0  0  0  0  0  0  0  0  0
    7.3790  -22.1640  -42.4110 H   0  0  0  0  0  0  0  0  0  0  0  0
    7.7470  -21.2580  -46.3080 H   0  0  0  0  0  0  0  0  0  0  0  0
    9.1110  -21.7480  -43.7380 H   0  0  0  0  0  0  0  0  0  0  0  0
   11.1710  -19.1790  -43.1520 H   0  0  0  0  0  0  0  0  0  0  0  0
   11.5930  -23.1440  -44.5600 H   0  0  0  0  0  0  0  0  0  0  0  0
   15.7070  -24.5420  -43.0510 H   0  0  0  0  0  0  0  0  0  0  0  0
   14.5370  -23.7460  -41.8780 H   0  0  0  0  0  0  0  0  0  0  0  0
   14.0520  -25.1640  -42.9330 H   0  0  0  0  0  0  0  0  0  0  0  0
    7.0370  -19.0510  -39.6970 H   0  0  0  0  0  0  0  0  0  0  0  0
    7.0910  -19.6720  -38.1000 H   0  0  0  0  0  0  0  0  0  0  0  0
    5.9840  -18.4510  -38.5260 H   0  0  0  0  0  0  0  0  0  0  0  0
  1  5  1  0  0  0  0
  2  3  1  0  0  0  0
  2 35  1  0  0  0  0
  2  1  1  0  0  0  0
  3 36  1  0  0  0  0
  3  4  1  0  0  0  0
  4  5  2  0  0  0  0
  5  6  1  0  0  0  0
  7  8  1  0  0  0  0
  7  6  1  0  0  0  0
  7 39  1  0  0  0  0
  8  9  1  0  0  0  0
  9 28  1  0  0  0  0
 10  9  1  0  0  0  0
 11 10  2  0  0  0  0
 12 11  1  0  0  0  0
 12  8  2  0  0  0  0
 13 12  1  0  0  0  0
 14 13  2  0  0  0  0
 15 16  1  0  0  0  0
 15 13  1  0  0  0  0
 16 17  2  0  0  0  0
 17 18  1  0  0  0  0
 17 41  1  0  0  0  0
 18 19  1  0  0  0  0
 19 42  1  0  0  0  0
 19 20  2  0  0  0  0
 20 27  1  0  0  0  0
 21 20  1  0  0  0  0
 21 26  1  0  0  0  0
 22 21  2  0  0  0  0
 23 18  2  0  0  0  0
 23 22  1  0  0  0  0
 24 22  1  0  0  0  0
 24 25  1  0  0  0  0
 25 45  1  0  0  0  0
 28 29  2  0  0  0  0
 28 32  1  0  0  0  0
 29 30  1  0  0  0  0
 30 31  1  0  0  0  0
 32 33  1  0  0  0  0
 32 31  2  0  0  0  0
 33 49  1  0  0  0  0
 33 48  1  0  0  0  0
 34  2  1  0  0  0  0
 37  3  1  0  0  0  0
 38  7  1  0  0  0  0
 40 15  1  0  0  0  0
 43 23  1  0  0  0  0
 44 25  1  0  0  0  0
 46 25  1  0  0  0  0
 47 33  1  0  0  0  0
M  END
>  <Pose>
1

>  <Score>
-5.78

$$$$
