
 OpenBabel03232221553D

 45 49  0  0  1  0  0  0  0  0999 V2000
    9.4420  -25.7880  -43.0900 S   0  0  0  0  0  0  0  0  0  0  0  0
    8.9870  -26.7570  -44.6070 C   0  0  0  0  0  0  0  0  0  0  0  0
    7.6120  -26.1710  -44.7980 C   0  0  0  0  0  0  0  0  0  0  0  0
    7.6370  -24.7540  -44.5680 N   0  0  0  0  0  0  0  0  0  0  0  0
    8.5770  -24.3210  -43.6100 C   0  0  0  0  0  0  0  0  0  0  0  0
    8.6820  -23.0990  -43.3010 N   0  0  0  0  0  0  0  0  0  0  0  0
    7.8440  -22.0760  -43.8740 C   0  0  0  0  0  0  0  0  0  0  0  0
    8.1710  -20.8640  -43.9090 O   0  0  0  0  0  0  0  0  0  0  0  0
    6.5380  -22.5070  -44.4440 C   0  0  1  0  0  0  0  0  0  0  0  0
    6.7900  -23.7570  -45.1970 C   0  0  0  0  0  0  0  0  0  0  0  0
    6.3280  -24.0160  -46.3340 O   0  0  0  0  0  0  0  0  0  0  0  0
    5.5950  -22.6900  -43.3070 C   0  0  2  0  0  0  0  0  0  0  0  0
    4.2130  -23.1290  -43.7240 C   0  0  2  0  0  0  0  0  0  0  0  0
    3.4860  -22.1460  -44.5430 C   0  0  0  0  0  0  0  0  0  0  0  0
    3.7850  -22.0010  -45.7800 O   0  0  0  0  0  0  0  0  0  0  0  0
    2.4340  -21.3390  -43.9560 N   0  0  0  0  0  0  0  0  0  0  0  0
    1.8030  -20.1920  -44.5470 C   0  0  0  0  0  0  0  0  0  0  0  0
    1.3630  -19.2180  -43.4830 C   0  0  0  0  0  0  0  0  0  0  0  0
    0.6980  -20.4730  -42.2910 S   0  0  0  0  0  0  0  0  0  0  0  0
    1.9380  -21.7040  -42.6850 C   0  0  0  0  0  0  0  0  0  0  0  0
    2.3730  -22.7130  -42.0340 N   0  0  0  0  0  0  0  0  0  0  0  0
    3.4120  -23.5590  -42.5510 C   0  0  0  0  0  0  0  0  0  0  0  0
    3.6110  -24.6610  -41.9800 O   0  0  0  0  0  0  0  0  0  0  0  0
    5.5680  -21.4510  -42.4970 C   0  0  0  0  0  0  0  0  0  0  0  0
    5.8310  -21.4860  -41.1340 C   0  0  0  0  0  0  0  0  0  0  0  0
    5.8130  -20.3370  -40.3700 C   0  0  0  0  0  0  0  0  0  0  0  0
    5.5310  -19.1200  -40.9500 C   0  0  0  0  0  0  0  0  0  0  0  0
    5.2730  -19.0890  -42.2870 C   0  0  0  0  0  0  0  0  0  0  0  0
    5.2880  -20.2290  -43.0640 C   0  0  0  0  0  0  0  0  0  0  0  0
    6.1730  -20.3750  -38.4970 B   0  0  0  0  0  0  0  0  0  0  0  0
    9.6420  -26.4830  -45.4350 H   0  0  0  0  0  0  0  0  0  0  0  0
    8.9210  -27.8140  -44.3700 H   0  0  0  0  0  0  0  0  0  0  0  0
    7.3050  -26.3830  -45.8410 H   0  0  0  0  0  0  0  0  0  0  0  0
    6.9430  -26.6750  -44.0600 H   0  0  0  0  0  0  0  0  0  0  0  0
    6.1350  -21.7210  -45.1330 H   0  0  0  0  0  0  0  0  0  0  0  0
    5.9900  -23.5220  -42.6580 H   0  0  0  0  0  0  0  0  0  0  0  0
    4.3030  -24.0690  -44.3520 H   0  0  0  0  0  0  0  0  0  0  0  0
    0.8810  -20.4580  -45.1110 H   0  0  0  0  0  0  0  0  0  0  0  0
    2.5240  -19.6350  -45.1810 H   0  0  0  0  0  0  0  0  0  0  0  0
    2.1960  -18.6670  -43.0200 H   0  0  0  0  0  0  0  0  0  0  0  0
    0.5550  -18.5960  -43.8620 H   0  0  0  0  0  0  0  0  0  0  0  0
    6.0530  -22.4290  -40.6640 H   0  0  0  0  0  0  0  0  0  0  0  0
    5.5130  -18.1970  -40.3540 H   0  0  0  0  0  0  0  0  0  0  0  0
    5.0450  -18.1340  -42.7780 H   0  0  0  0  0  0  0  0  0  0  0  0
    5.0720  -20.1310  -44.1410 H   0  0  0  0  0  0  0  0  0  0  0  0
  2 32  1  0  0  0  0
  2  1  1  0  0  0  0
  3  2  1  0  0  0  0
  3  4  1  0  0  0  0
  3 34  1  0  0  0  0
  4  5  1  0  0  0  0
  5  6  2  0  0  0  0
  5  1  1  0  0  0  0
  7  6  1  0  0  0  0
  8  7  2  0  0  0  0
  9 35  1  6  0  0  0
  9  7  1  0  0  0  0
  9 12  1  0  0  0  0
 10  4  1  0  0  0  0
 10  9  1  0  0  0  0
 11 10  2  0  0  0  0
 12 36  1  1  0  0  0
 12 24  1  0  0  0  0
 13 37  1  6  0  0  0
 13 12  1  0  0  0  0
 13 22  1  0  0  0  0
 14 16  1  0  0  0  0
 14 13  1  0  0  0  0
 15 14  2  0  0  0  0
 16 20  1  0  0  0  0
 17 16  1  0  0  0  0
 17 18  1  0  0  0  0
 18 40  1  0  0  0  0
 18 19  1  0  0  0  0
 20 19  1  0  0  0  0
 20 21  2  0  0  0  0
 22 21  1  0  0  0  0
 22 23  2  0  0  0  0
 24 25  1  0  0  0  0
 25 42  1  0  0  0  0
 25 26  2  0  0  0  0
 26 30  1  0  0  0  0
 27 26  1  0  0  0  0
 27 43  1  0  0  0  0
 28 27  2  0  0  0  0
 29 24  2  0  0  0  0
 29 28  1  0  0  0  0
 31  2  1  0  0  0  0
 33  3  1  0  0  0  0
 38 17  1  0  0  0  0
 39 17  1  0  0  0  0
 41 18  1  0  0  0  0
 44 28  1  0  0  0  0
 45 29  1  0  0  0  0
M  END
>  <Pose>
1

>  <Score>
-3.70

$$$$
