
 OpenBabel03232221553D

 45 49  0  0  1  0  0  0  0  0999 V2000
   -4.7090  -19.5000  -39.7240 S   0  0  0  0  0  0  0  0  0  0  0  0
   -3.6090  -20.3620  -40.9310 C   0  0  0  0  0  0  0  0  0  0  0  0
   -2.7010  -21.0530  -39.9620 C   0  0  0  0  0  0  0  0  0  0  0  0
   -2.4290  -20.2470  -38.8320 N   0  0  0  0  0  0  0  0  0  0  0  0
   -3.4220  -19.3170  -38.4610 C   0  0  0  0  0  0  0  0  0  0  0  0
   -3.3320  -18.5210  -37.4440 N   0  0  0  0  0  0  0  0  0  0  0  0
   -2.1740  -18.5750  -36.5640 C   0  0  0  0  0  0  0  0  0  0  0  0
   -2.4220  -18.1700  -35.4020 O   0  0  0  0  0  0  0  0  0  0  0  0
   -0.9500  -19.0720  -37.1250 C   0  0  1  0  0  0  0  0  0  0  0  0
   -1.2540  -20.2730  -37.9900 C   0  0  0  0  0  0  0  0  0  0  0  0
   -0.5130  -21.2730  -37.9870 O   0  0  0  0  0  0  0  0  0  0  0  0
    0.0580  -18.2040  -37.7520 C   0  0  2  0  0  0  0  0  0  0  0  0
   -0.2900  -17.2460  -38.8080 C   0  0  1  0  0  0  0  0  0  0  0  0
   -0.6440  -15.9250  -38.1260 C   0  0  0  0  0  0  0  0  0  0  0  0
   -1.7680  -15.7810  -37.5930 O   0  0  0  0  0  0  0  0  0  0  0  0
    0.3170  -14.8450  -38.0950 N   0  0  0  0  0  0  0  0  0  0  0  0
    0.3050  -13.7010  -37.2500 C   0  0  0  0  0  0  0  0  0  0  0  0
    1.7040  -13.2050  -36.9760 C   0  0  0  0  0  0  0  0  0  0  0  0
    2.3780  -13.4650  -38.6840 S   0  0  0  0  0  0  0  0  0  0  0  0
    1.3870  -14.9100  -39.0200 C   0  0  0  0  0  0  0  0  0  0  0  0
    1.5430  -15.8490  -39.8660 N   0  0  0  0  0  0  0  0  0  0  0  0
    0.5790  -16.9430  -39.9140 C   0  0  0  0  0  0  0  0  0  0  0  0
    0.5650  -17.5840  -40.9810 O   0  0  0  0  0  0  0  0  0  0  0  0
    1.3670  -18.9250  -37.9990 C   0  0  0  0  0  0  0  0  0  0  0  0
    1.5180  -19.7680  -39.0740 C   0  0  0  0  0  0  0  0  0  0  0  0
    2.7170  -20.4070  -39.2620 C   0  0  0  0  0  0  0  0  0  0  0  0
    3.7790  -20.2470  -38.4280 C   0  0  0  0  0  0  0  0  0  0  0  0
    3.6590  -19.4120  -37.3450 C   0  0  0  0  0  0  0  0  0  0  0  0
    2.4390  -18.7620  -37.1540 C   0  0  0  0  0  0  0  0  0  0  0  0
    5.4520  -21.1460  -38.7000 B   0  0  0  0  0  0  0  0  0  0  0  0
   -4.2470  -21.0980  -41.4580 H   0  0  0  0  0  0  0  0  0  0  0  0
   -3.1140  -19.6480  -41.5900 H   0  0  0  0  0  0  0  0  0  0  0  0
   -3.1420  -22.0460  -39.6840 H   0  0  0  0  0  0  0  0  0  0  0  0
   -1.7530  -21.2510  -40.5220 H   0  0  0  0  0  0  0  0  0  0  0  0
   -0.3960  -19.5720  -36.2380 H   0  0  0  0  0  0  0  0  0  0  0  0
    0.3690  -17.5090  -36.8600 H   0  0  0  0  0  0  0  0  0  0  0  0
   -1.3260  -17.5350  -39.2340 H   0  0  0  0  0  0  0  0  0  0  0  0
   -0.2830  -12.8590  -37.6970 H   0  0  0  0  0  0  0  0  0  0  0  0
   -0.1160  -13.9710  -36.2570 H   0  0  0  0  0  0  0  0  0  0  0  0
    2.2570  -13.8520  -36.2960 H   0  0  0  0  0  0  0  0  0  0  0  0
    1.7020  -12.1480  -36.7280 H   0  0  0  0  0  0  0  0  0  0  0  0
    0.6800  -19.9190  -39.7720 H   0  0  0  0  0  0  0  0  0  0  0  0
    2.8240  -21.0700  -40.1120 H   0  0  0  0  0  0  0  0  0  0  0  0
    4.4940  -19.2630  -36.6590 H   0  0  0  0  0  0  0  0  0  0  0  0
    2.3830  -18.1080  -36.2860 H   0  0  0  0  0  0  0  0  0  0  0  0
  1  5  1  0  0  0  0
  2  3  1  0  0  0  0
  2  1  1  0  0  0  0
  3 33  1  0  0  0  0
  3  4  1  0  0  0  0
  4  5  1  0  0  0  0
  4 10  1  0  0  0  0
  5  6  2  0  0  0  0
  6  7  1  0  0  0  0
  7  8  2  0  0  0  0
  9  7  1  0  0  0  0
  9 35  1  1  0  0  0
 10 11  2  0  0  0  0
 10  9  1  0  0  0  0
 12  9  1  0  0  0  0
 12 36  1  1  0  0  0
 13 37  1  6  0  0  0
 13 14  1  0  0  0  0
 13 12  1  0  0  0  0
 14 16  1  0  0  0  0
 14 15  2  0  0  0  0
 16 17  1  0  0  0  0
 17 18  1  0  0  0  0
 17 39  1  0  0  0  0
 18 41  1  0  0  0  0
 18 40  1  0  0  0  0
 19 18  1  0  0  0  0
 20 19  1  0  0  0  0
 20 16  1  0  0  0  0
 21 20  2  0  0  0  0
 22 21  1  0  0  0  0
 22 13  1  0  0  0  0
 23 22  2  0  0  0  0
 24 12  1  0  0  0  0
 24 29  1  0  0  0  0
 25 24  2  0  0  0  0
 26 25  1  0  0  0  0
 26 27  2  0  0  0  0
 27 28  1  0  0  0  0
 28 29  2  0  0  0  0
 28 44  1  0  0  0  0
 29 45  1  0  0  0  0
 30 27  1  0  0  0  0
 31  2  1  0  0  0  0
 32  2  1  0  0  0  0
 34  3  1  0  0  0  0
 38 17  1  0  0  0  0
 42 25  1  0  0  0  0
 43 26  1  0  0  0  0
M  END
>  <Pose>
1

>  <Score>
-4.20

$$$$
