
 OpenBabel03232221553D

 45 49  0  0  1  0  0  0  0  0999 V2000
    5.9260  -21.6070  -38.6990 S   0  0  0  0  0  0  0  0  0  0  0  0
    5.7590  -21.6660  -40.4750 C   0  0  0  0  0  0  0  0  0  0  0  0
    5.4870  -22.6500  -41.2700 N   0  0  0  0  0  0  0  0  0  0  0  0
    5.4090  -22.4180  -42.6950 C   0  0  0  0  0  0  0  0  0  0  0  0
    5.6640  -23.2420  -43.5710 O   0  0  0  0  0  0  0  0  0  0  0  0
    4.9690  -21.0200  -43.1270 C   0  0  2  0  0  0  0  0  0  0  0  0
    5.9300  -20.1560  -42.3700 C   0  0  0  0  0  0  0  0  0  0  0  0
    6.6640  -19.2880  -42.9230 O   0  0  0  0  0  0  0  0  0  0  0  0
    6.0020  -20.3510  -40.9280 N   0  0  0  0  0  0  0  0  0  0  0  0
    6.2870  -19.4230  -39.9630 N   0  0  0  0  0  0  0  0  0  0  0  0
    6.3080  -19.8630  -38.6220 C   0  0  0  0  0  0  0  0  0  0  0  0
    6.5540  -19.1630  -37.5180 C   0  0  0  0  0  0  0  0  0  0  0  0
    3.5470  -20.8190  -42.6870 C   0  0  1  0  0  0  0  0  0  0  0  0
    2.9370  -19.4970  -42.9330 C   0  0  2  0  0  0  0  0  0  0  0  0
    3.1150  -18.4640  -41.9230 C   0  0  0  0  0  0  0  0  0  0  0  0
    3.9770  -17.5380  -42.1010 O   0  0  0  0  0  0  0  0  0  0  0  0
    2.3300  -18.4500  -40.7030 N   0  0  0  0  0  0  0  0  0  0  0  0
    2.6430  -17.8740  -39.5130 N   0  0  0  0  0  0  0  0  0  0  0  0
    1.6980  -17.9940  -38.4640 C   0  0  0  0  0  0  0  0  0  0  0  0
    1.7480  -17.5320  -37.2330 C   0  0  0  0  0  0  0  0  0  0  0  0
    0.3540  -18.9430  -39.1690 S   0  0  0  0  0  0  0  0  0  0  0  0
    1.0910  -19.1160  -40.7840 C   0  0  0  0  0  0  0  0  0  0  0  0
    0.6580  -19.7020  -41.8430 N   0  0  0  0  0  0  0  0  0  0  0  0
    1.4390  -19.7150  -43.0490 C   0  0  0  0  0  0  0  0  0  0  0  0
    0.9730  -19.8930  -44.1840 O   0  0  0  0  0  0  0  0  0  0  0  0
    2.6590  -21.8970  -43.2080 C   0  0  0  0  0  0  0  0  0  0  0  0
    1.9630  -22.7230  -42.3550 C   0  0  0  0  0  0  0  0  0  0  0  0
    1.1430  -23.7200  -42.8310 C   0  0  0  0  0  0  0  0  0  0  0  0
    1.0110  -23.9000  -44.1890 C   0  0  0  0  0  0  0  0  0  0  0  0
    1.7000  -23.0840  -45.0890 C   0  0  0  0  0  0  0  0  0  0  0  0
    2.5120  -22.0960  -44.5730 C   0  0  0  0  0  0  0  0  0  0  0  0
   -0.1210  -25.2770  -44.8810 B   0  0  0  0  0  0  0  0  0  0  0  0
    5.1270  -20.9460  -44.1970 H   0  0  0  0  0  0  0  0  0  0  0  0
    6.5020  -18.3840  -40.1730 H   0  0  0  0  0  0  0  0  0  0  0  0
    6.5260  -19.6770  -36.5700 H   0  0  0  0  0  0  0  0  0  0  0  0
    6.7760  -18.1260  -37.5360 H   0  0  0  0  0  0  0  0  0  0  0  0
    3.5530  -20.9530  -41.5560 H   0  0  0  0  0  0  0  0  0  0  0  0
    3.2490  -19.0410  -43.9120 H   0  0  0  0  0  0  0  0  0  0  0  0
    3.5520  -17.3320  -39.3070 H   0  0  0  0  0  0  0  0  0  0  0  0
    0.9310  -17.7220  -36.5710 H   0  0  0  0  0  0  0  0  0  0  0  0
    2.5880  -16.9700  -36.8790 H   0  0  0  0  0  0  0  0  0  0  0  0
    2.0290  -22.6270  -41.2790 H   0  0  0  0  0  0  0  0  0  0  0  0
    0.5960  -24.3690  -42.1690 H   0  0  0  0  0  0  0  0  0  0  0  0
    1.5990  -23.2210  -46.1620 H   0  0  0  0  0  0  0  0  0  0  0  0
    3.0810  -21.4200  -45.2150 H   0  0  0  0  0  0  0  0  0  0  0  0
  1 11  1  0  0  0  0
  2  1  1  0  0  0  0
  3  2  2  0  0  0  0
  4  3  1  0  0  0  0
  5  4  2  0  0  0  0
  6 33  1  6  0  0  0
  6  4  1  0  0  0  0
  6 13  1  0  0  0  0
  6  7  1  0  0  0  0
  7  9  1  0  0  0  0
  8  7  2  0  0  0  0
  9  2  1  0  0  0  0
  9 10  1  0  0  0  0
 10 11  1  0  0  0  0
 11 12  2  0  0  0  0
 12 35  1  0  0  0  0
 13 37  1  1  0  0  0
 14 38  1  6  0  0  0
 14 13  1  0  0  0  0
 14 15  1  0  0  0  0
 15 17  1  0  0  0  0
 16 15  2  0  0  0  0
 17 18  1  0  0  0  0
 18 39  1  0  0  0  0
 18 19  1  0  0  0  0
 19 20  2  0  0  0  0
 20 41  1  0  0  0  0
 20 40  1  0  0  0  0
 21 19  1  0  0  0  0
 22 17  1  0  0  0  0
 22 21  1  0  0  0  0
 23 22  2  0  0  0  0
 24 14  1  0  0  0  0
 24 23  1  0  0  0  0
 25 24  2  0  0  0  0
 26 13  1  0  0  0  0
 26 27  1  0  0  0  0
 27 42  1  0  0  0  0
 28 27  2  0  0  0  0
 28 43  1  0  0  0  0
 29 28  1  0  0  0  0
 30 31  1  0  0  0  0
 30 29  2  0  0  0  0
 31 26  2  0  0  0  0
 32 29  1  0  0  0  0
 34 10  1  0  0  0  0
 36 12  1  0  0  0  0
 44 30  1  0  0  0  0
 45 31  1  0  0  0  0
M  END
>  <Pose>
1

>  <Score>
-3.82

$$$$
