
 OpenBabel03232221553D

 47 50  0  0  0  0  0  0  0  0999 V2000
    5.1420  -23.5580  -44.1530 S   0  0  0  0  0  0  0  0  0  0  0  0
    6.1720  -24.8700  -44.5430 C   0  0  0  0  0  0  0  0  0  0  0  0
    6.1170  -25.8900  -45.4550 N   0  0  0  0  0  0  0  0  0  0  0  0
    7.1150  -26.7820  -45.5600 C   0  0  0  0  0  0  0  0  0  0  0  0
    7.1520  -27.7380  -46.3580 O   0  0  0  0  0  0  0  0  0  0  0  0
    8.1660  -26.5850  -44.6960 C   0  0  0  0  0  0  0  0  0  0  0  0
    8.2290  -25.5730  -43.7850 C   0  0  0  0  0  0  0  0  0  0  0  0
    7.1930  -24.6760  -43.7030 N   0  0  0  0  0  0  0  0  0  0  0  0
    7.1350  -23.6710  -42.9180 N   0  0  0  0  0  0  0  0  0  0  0  0
    6.1230  -22.8500  -42.9200 C   0  0  0  0  0  0  0  0  0  0  0  0
    5.8830  -21.6590  -42.1340 N   0  0  0  0  0  0  0  0  0  0  0  0
    6.2400  -20.3860  -42.6310 C   0  0  0  0  0  0  0  0  0  0  0  0
    5.9750  -19.3230  -41.5910 C   0  0  0  0  0  0  0  0  0  0  0  0
    6.3340  -19.8050  -40.3290 O   0  0  0  0  0  0  0  0  0  0  0  0
    5.4050  -20.7570  -39.8940 C   0  0  0  0  0  0  0  0  0  0  0  0
    5.2810  -21.8910  -40.8650 C   0  0  0  0  0  0  0  0  0  0  0  0
    9.4200  -25.4870  -42.9410 C   0  0  0  0  0  0  0  0  0  0  0  0
    9.3360  -25.8130  -41.7010 O   0  0  0  0  0  0  0  0  0  0  0  0
   10.6880  -25.0600  -43.3830 N   0  0  0  0  0  0  0  0  0  0  0  0
   11.8900  -25.5470  -42.7160 C   0  0  0  0  0  0  0  0  0  0  0  0
   13.0970  -24.8630  -43.2420 C   0  0  0  0  0  0  0  0  0  0  0  0
   14.0420  -25.6020  -43.9360 C   0  0  0  0  0  0  0  0  0  0  0  0
   15.1820  -24.9870  -44.3910 C   0  0  0  0  0  0  0  0  0  0  0  0
   15.4260  -23.6550  -44.1820 C   0  0  0  0  0  0  0  0  0  0  0  0
   14.4870  -22.9110  -43.4910 C   0  0  0  0  0  0  0  0  0  0  0  0
   13.3380  -23.5340  -43.0350 C   0  0  0  0  0  0  0  0  0  0  0  0
   14.7470  -21.0480  -43.1630 B   0  0  0  0  0  0  0  0  0  0  0  0
   13.7880  -26.9400  -44.1390 O   0  0  0  0  0  0  0  0  0  0  0  0
   14.8910  -27.8040  -44.4100 C   0  0  0  0  0  0  0  0  0  0  0  0
    8.9940  -27.3020  -44.7660 H   0  0  0  0  0  0  0  0  0  0  0  0
    5.6770  -20.1540  -43.5780 H   0  0  0  0  0  0  0  0  0  0  0  0
    7.3230  -20.2900  -42.8900 H   0  0  0  0  0  0  0  0  0  0  0  0
    4.8710  -19.1430  -41.5900 H   0  0  0  0  0  0  0  0  0  0  0  0
    6.5680  -18.4260  -41.7900 H   0  0  0  0  0  0  0  0  0  0  0  0
    5.7140  -21.1120  -38.8670 H   0  0  0  0  0  0  0  0  0  0  0  0
    4.4340  -20.2210  -39.7290 H   0  0  0  0  0  0  0  0  0  0  0  0
    5.6650  -22.8470  -40.3960 H   0  0  0  0  0  0  0  0  0  0  0  0
    4.1710  -22.0420  -41.0400 H   0  0  0  0  0  0  0  0  0  0  0  0
   10.7910  -24.3950  -44.1740 H   0  0  0  0  0  0  0  0  0  0  0  0
   12.0290  -26.6470  -42.9470 H   0  0  0  0  0  0  0  0  0  0  0  0
   11.8330  -25.4820  -41.6220 H   0  0  0  0  0  0  0  0  0  0  0  0
   15.9220  -25.5820  -44.9350 H   0  0  0  0  0  0  0  0  0  0  0  0
   16.3290  -23.1570  -44.5380 H   0  0  0  0  0  0  0  0  0  0  0  0
   12.6400  -22.8910  -42.4960 H   0  0  0  0  0  0  0  0  0  0  0  0
   14.5310  -28.8420  -44.5310 H   0  0  0  0  0  0  0  0  0  0  0  0
   15.4070  -27.5280  -45.3460 H   0  0  0  0  0  0  0  0  0  0  0  0
   15.6200  -27.6960  -43.5920 H   0  0  0  0  0  0  0  0  0  0  0  0
  1 10  1  0  0  0  0
  2  1  1  0  0  0  0
  2  8  1  0  0  0  0
  3  2  2  0  0  0  0
  4  3  1  0  0  0  0
  4  6  1  0  0  0  0
  5  4  2  0  0  0  0
  6  7  2  0  0  0  0
  7  8  1  0  0  0  0
  7 17  1  0  0  0  0
  8  9  1  0  0  0  0
 10  9  2  0  0  0  0
 10 11  1  0  0  0  0
 11 16  1  0  0  0  0
 12 11  1  0  0  0  0
 12 13  1  0  0  0  0
 13 33  1  0  0  0  0
 13 14  1  0  0  0  0
 14 15  1  0  0  0  0
 15 36  1  0  0  0  0
 15 35  1  0  0  0  0
 16 37  1  0  0  0  0
 16 15  1  0  0  0  0
 17 18  2  0  0  0  0
 19 17  1  0  0  0  0
 19 20  1  0  0  0  0
 20 41  1  0  0  0  0
 21 26  1  0  0  0  0
 21 20  1  0  0  0  0
 22 21  2  0  0  0  0
 23 24  2  0  0  0  0
 23 22  1  0  0  0  0
 24 25  1  0  0  0  0
 25 27  1  0  0  0  0
 25 26  2  0  0  0  0
 26 44  1  0  0  0  0
 28 22  1  0  0  0  0
 29 28  1  0  0  0  0
 29 47  1  0  0  0  0
 30  6  1  0  0  0  0
 31 12  1  0  0  0  0
 32 12  1  0  0  0  0
 34 13  1  0  0  0  0
 38 16  1  0  0  0  0
 39 19  1  0  0  0  0
 40 20  1  0  0  0  0
 42 23  1  0  0  0  0
 43 24  1  0  0  0  0
 45 29  1  0  0  0  0
 46 29  1  0  0  0  0
M  END
>  <Pose>
1

>  <Score>
-4.76

$$$$
