
 OpenBabel03232221553D

 40 43  0  0  1  0  0  0  0  0999 V2000
    4.7490  -21.5750  -39.0550 S   0  0  0  0  0  0  0  0  0  0  0  0
    3.7000  -21.2580  -40.4680 C   0  0  1  0  0  0  0  0  0  0  0  0
    3.5220  -21.5880  -41.7050 N   0  0  0  0  0  0  0  0  0  0  0  0
    2.4220  -20.9050  -42.2750 C   0  0  0  0  0  0  0  0  0  0  0  0
    1.8930  -20.0510  -41.1700 C   0  0  0  0  0  0  0  0  0  0  0  0
    2.7620  -20.3210  -39.9990 N   0  0  0  0  0  0  0  0  0  0  0  0
    2.8930  -19.9250  -38.6630 C   0  0  0  0  0  0  0  0  0  0  0  0
    3.8740  -20.4570  -37.9700 C   0  0  0  0  0  0  0  0  0  0  0  0
    1.9850  -18.9500  -37.9740 C   0  0  0  0  0  0  0  0  0  0  0  0
    0.6150  -19.0600  -38.0600 C   0  0  0  0  0  0  0  0  0  0  0  0
   -0.2650  -18.1900  -37.4510 C   0  0  0  0  0  0  0  0  0  0  0  0
    0.2140  -17.1380  -36.7040 C   0  0  0  0  0  0  0  0  0  0  0  0
    1.5700  -17.0080  -36.6040 C   0  0  0  0  0  0  0  0  0  0  0  0
    2.4600  -17.9010  -37.2310 C   0  0  0  0  0  0  0  0  0  0  0  0
    4.3930  -22.5740  -42.3700 C   0  0  0  0  0  0  0  0  0  0  0  0
    3.6130  -23.8220  -42.4930 C   0  0  0  0  0  0  0  0  0  0  0  0
    2.5600  -23.9970  -41.8470 O   0  0  0  0  0  0  0  0  0  0  0  0
    4.0690  -24.8830  -43.3800 C   0  0  0  0  0  0  0  0  0  0  0  0
    3.1580  -25.6520  -44.1080 C   0  0  0  0  0  0  0  0  0  0  0  0
    3.5630  -26.6700  -44.9510 C   0  0  0  0  0  0  0  0  0  0  0  0
    4.9070  -26.9090  -45.0580 C   0  0  0  0  0  0  0  0  0  0  0  0
    5.8480  -26.1750  -44.3600 C   0  0  0  0  0  0  0  0  0  0  0  0
    5.4150  -25.1520  -43.5140 C   0  0  0  0  0  0  0  0  0  0  0  0
    5.4580  -28.3230  -46.2320 B   0  0  0  0  0  0  0  0  0  0  0  0
    1.6430  -21.6030  -42.6920 H   0  0  0  0  0  0  0  0  0  0  0  0
    2.7570  -20.3200  -43.1730 H   0  0  0  0  0  0  0  0  0  0  0  0
    0.8580  -20.3990  -40.9640 H   0  0  0  0  0  0  0  0  0  0  0  0
    1.9760  -19.0070  -41.5090 H   0  0  0  0  0  0  0  0  0  0  0  0
    4.1520  -20.2830  -36.9130 H   0  0  0  0  0  0  0  0  0  0  0  0
    0.1640  -19.8680  -38.6340 H   0  0  0  0  0  0  0  0  0  0  0  0
   -1.3300  -18.3240  -37.5510 H   0  0  0  0  0  0  0  0  0  0  0  0
   -0.4750  -16.4600  -36.2300 H   0  0  0  0  0  0  0  0  0  0  0  0
    2.0100  -16.1950  -36.0270 H   0  0  0  0  0  0  0  0  0  0  0  0
    3.5140  -17.7510  -37.1160 H   0  0  0  0  0  0  0  0  0  0  0  0
    4.5430  -22.1420  -43.4000 H   0  0  0  0  0  0  0  0  0  0  0  0
    5.3440  -22.6790  -41.8540 H   0  0  0  0  0  0  0  0  0  0  0  0
    2.1130  -25.4410  -44.0050 H   0  0  0  0  0  0  0  0  0  0  0  0
    2.8660  -27.2560  -45.5050 H   0  0  0  0  0  0  0  0  0  0  0  0
    6.9010  -26.3610  -44.4420 H   0  0  0  0  0  0  0  0  0  0  0  0
    6.1730  -24.5960  -42.9830 H   0  0  0  0  0  0  0  0  0  0  0  0
  1  8  1  0  0  0  0
  2  6  1  0  0  0  0
  2  1  1  1  0  0  0
  3  2  1  0  0  0  0
  4  3  1  0  0  0  0
  4  5  1  0  0  0  0
  5 27  1  0  0  0  0
  5  6  1  0  0  0  0
  6  7  1  0  0  0  0
  7  9  1  0  0  0  0
  7  8  2  0  0  0  0
  8 29  1  0  0  0  0
  9 14  1  0  0  0  0
 10  9  2  0  0  0  0
 10 11  1  0  0  0  0
 11 12  2  0  0  0  0
 12 13  1  0  0  0  0
 12 32  1  0  0  0  0
 13 33  1  0  0  0  0
 14 34  1  0  0  0  0
 14 13  2  0  0  0  0
 15 36  1  0  0  0  0
 15  3  1  0  0  0  0
 16 15  1  0  0  0  0
 16 17  2  0  0  0  0
 18 16  1  0  0  0  0
 19 37  1  0  0  0  0
 19 18  2  0  0  0  0
 20 19  1  0  0  0  0
 21 20  2  0  0  0  0
 21 22  1  0  0  0  0
 22 23  2  0  0  0  0
 23 18  1  0  0  0  0
 23 40  1  0  0  0  0
 24 21  1  0  0  0  0
 25  4  1  0  0  0  0
 26  4  1  0  0  0  0
 28  5  1  0  0  0  0
 30 10  1  0  0  0  0
 31 11  1  0  0  0  0
 35 15  1  0  0  0  0
 38 20  1  0  0  0  0
 39 22  1  0  0  0  0
M  END
>  <Pose>
1

>  <Score>
-3.99

$$$$
