
 OpenBabel03232221553D

 43 46  0  0  1  0  0  0  0  0999 V2000
    6.7690  -19.2420  -37.7780 Cl  0  0  0  0  0  0  0  0  0  0  0  0
    5.0670  -19.5350  -38.1920 C   0  0  0  0  0  0  0  0  0  0  0  0
    4.8000  -20.0650  -39.4650 C   0  0  0  0  0  0  0  0  0  0  0  0
    3.4920  -20.2920  -39.7790 C   0  0  0  0  0  0  0  0  0  0  0  0
    2.4920  -20.0060  -38.8670 C   0  0  0  0  0  0  0  0  0  0  0  0
    2.7520  -19.4850  -37.6110 C   0  0  0  0  0  0  0  0  0  0  0  0
    4.0810  -19.2460  -37.2740 C   0  0  0  0  0  0  0  0  0  0  0  0
    5.9570  -20.2110  -40.4160 C   0  0  2  0  0  0  0  0  0  0  0  0
    5.7850  -19.1200  -41.3680 N   0  0  0  0  0  0  0  0  0  0  0  0
    5.5070  -19.4120  -42.6950 C   0  0  0  0  0  0  0  0  0  0  0  0
    4.8260  -20.7190  -43.0410 C   0  0  0  0  0  0  0  0  0  0  0  0
    5.0700  -21.7410  -42.1190 N   0  0  0  0  0  0  0  0  0  0  0  0
    6.0260  -21.5080  -41.0790 C   0  0  0  0  0  0  0  0  0  0  0  0
    4.4540  -23.0190  -42.1000 C   0  0  0  0  0  0  0  0  0  0  0  0
    3.5930  -23.1310  -41.1150 O   0  0  0  0  0  0  0  0  0  0  0  0
    4.5730  -24.1710  -42.9180 C   0  0  0  0  0  0  0  0  0  0  0  0
    3.3750  -24.8310  -43.2850 C   0  0  0  0  0  0  0  0  0  0  0  0
    3.3830  -25.8390  -44.1580 N   0  0  0  0  0  0  0  0  0  0  0  0
    4.5110  -26.2720  -44.7240 C   0  0  0  0  0  0  0  0  0  0  0  0
    5.7000  -25.6730  -44.4080 C   0  0  0  0  0  0  0  0  0  0  0  0
    5.7350  -24.6170  -43.5000 C   0  0  0  0  0  0  0  0  0  0  0  0
    6.9110  -26.1060  -45.0350 N   0  0  0  0  0  0  0  0  0  0  0  0
    6.8430  -27.1680  -45.9870 C   0  0  0  0  0  0  0  0  0  0  0  0
    7.6800  -27.3550  -46.8940 O   0  0  0  0  0  0  0  0  0  0  0  0
    5.6850  -28.1080  -45.8770 C   0  0  0  0  0  0  0  0  0  0  0  0
    4.4990  -27.3340  -45.6350 O   0  0  0  0  0  0  0  0  0  0  0  0
    3.2120  -20.6810  -40.7760 H   0  0  0  0  0  0  0  0  0  0  0  0
    1.4400  -20.1960  -39.1530 H   0  0  0  0  0  0  0  0  0  0  0  0
    1.9230  -19.2810  -36.9200 H   0  0  0  0  0  0  0  0  0  0  0  0
    4.3430  -18.8470  -36.3090 H   0  0  0  0  0  0  0  0  0  0  0  0
    6.8810  -19.9610  -39.8330 H   0  0  0  0  0  0  0  0  0  0  0  0
    5.1710  -18.3830  -40.9670 H   0  0  0  0  0  0  0  0  0  0  0  0
    4.8150  -18.5900  -43.0910 H   0  0  0  0  0  0  0  0  0  0  0  0
    6.4400  -19.3090  -43.3340 H   0  0  0  0  0  0  0  0  0  0  0  0
    5.4430  -21.1120  -44.0050 H   0  0  0  0  0  0  0  0  0  0  0  0
    3.8390  -20.5600  -43.4650 H   0  0  0  0  0  0  0  0  0  0  0  0
    5.9960  -22.3710  -40.3490 H   0  0  0  0  0  0  0  0  0  0  0  0
    7.0880  -21.6300  -41.5220 H   0  0  0  0  0  0  0  0  0  0  0  0
    2.4450  -24.4930  -42.8330 H   0  0  0  0  0  0  0  0  0  0  0  0
    6.6740  -24.1900  -43.3400 H   0  0  0  0  0  0  0  0  0  0  0  0
    7.8200  -25.6680  -44.8210 H   0  0  0  0  0  0  0  0  0  0  0  0
    5.7870  -28.8140  -45.0510 H   0  0  0  0  0  0  0  0  0  0  0  0
    5.5080  -28.6670  -46.8130 H   0  0  0  0  0  0  0  0  0  0  0  0
  2  1  1  0  0  0  0
  2  7  1  0  0  0  0
  3  2  2  0  0  0  0
  4  3  1  0  0  0  0
  4  5  2  0  0  0  0
  5  6  1  0  0  0  0
  6  7  2  0  0  0  0
  6 29  1  0  0  0  0
  7 30  1  0  0  0  0
  8 31  1  1  0  0  0
  8  3  1  0  0  0  0
  9 32  1  0  0  0  0
  9  8  1  0  0  0  0
 10  9  1  0  0  0  0
 11 10  1  0  0  0  0
 11 12  1  0  0  0  0
 12 14  1  0  0  0  0
 12 13  1  0  0  0  0
 13  8  1  0  0  0  0
 13 37  1  0  0  0  0
 14 15  2  0  0  0  0
 16 14  1  0  0  0  0
 17 16  2  0  0  0  0
 17 39  1  0  0  0  0
 18 17  1  0  0  0  0
 19 20  1  0  0  0  0
 19 18  2  0  0  0  0
 20 21  2  0  0  0  0
 21 40  1  0  0  0  0
 21 16  1  0  0  0  0
 22 41  1  0  0  0  0
 22 20  1  0  0  0  0
 23 25  1  0  0  0  0
 23 22  1  0  0  0  0
 24 23  2  0  0  0  0
 25 26  1  0  0  0  0
 25 42  1  0  0  0  0
 26 19  1  0  0  0  0
 27  4  1  0  0  0  0
 28  5  1  0  0  0  0
 33 10  1  0  0  0  0
 34 10  1  0  0  0  0
 35 11  1  0  0  0  0
 36 11  1  0  0  0  0
 38 13  1  0  0  0  0
 43 25  1  0  0  0  0
M  END
>  <Pose>
1

>  <Score>
-4.19

$$$$
