
 OpenBabel03232221553D

 53 56  0  0  0  0  0  0  0  0999 V2000
    0.9500  -15.9180  -36.2480 B   0  0  0  0  0  0  0  0  0  0  0  0
    0.8620  -17.5890  -37.1520 C   0  0  0  0  0  0  0  0  0  0  0  0
    1.9960  -18.1950  -37.6330 C   0  0  0  0  0  0  0  0  0  0  0  0
    1.9220  -19.4210  -38.2930 C   0  0  0  0  0  0  0  0  0  0  0  0
    0.6820  -19.9730  -38.4320 C   0  0  0  0  0  0  0  0  0  0  0  0
   -0.4730  -19.3610  -37.9440 C   0  0  0  0  0  0  0  0  0  0  0  0
   -0.3880  -18.1650  -37.3020 C   0  0  0  0  0  0  0  0  0  0  0  0
    3.1260  -20.0420  -38.8100 C   0  0  0  0  0  0  0  0  0  0  0  0
    3.8730  -20.8490  -38.0990 C   0  0  0  0  0  0  0  0  0  0  0  0
    3.5100  -19.7690  -40.1750 N   0  0  0  0  0  0  0  0  0  0  0  0
    4.1350  -20.7870  -40.8950 N   0  0  0  0  0  0  0  0  0  0  0  0
    3.4640  -21.5160  -41.9040 C   0  0  0  0  0  0  0  0  0  0  0  0
    2.5760  -20.9440  -42.5770 O   0  0  0  0  0  0  0  0  0  0  0  0
    3.7630  -22.9060  -42.1960 C   0  0  0  0  0  0  0  0  0  0  0  0
    3.1320  -23.9450  -41.6340 N   0  0  0  0  0  0  0  0  0  0  0  0
    3.6790  -25.0260  -42.1290 N   0  0  0  0  0  0  0  0  0  0  0  0
    4.6400  -24.7080  -42.9920 N   0  0  0  0  0  0  0  0  0  0  0  0
    4.7410  -23.3910  -43.0780 C   0  0  0  0  0  0  0  0  0  0  0  0
    5.5690  -22.5150  -43.8750 C   0  0  0  0  0  0  0  0  0  0  0  0
    6.8190  -22.0910  -43.2760 N   0  0  0  0  0  0  0  0  0  0  0  0
    7.9320  -22.8900  -43.7790 C   0  0  0  0  0  0  0  0  0  0  0  0
    7.9020  -23.0130  -45.2860 C   0  0  0  0  0  0  0  0  0  0  0  0
    7.9150  -21.6330  -45.9190 C   0  0  0  0  0  0  0  0  0  0  0  0
    7.9830  -20.5610  -44.8680 C   0  0  0  0  0  0  0  0  0  0  0  0
    7.1120  -20.7210  -43.6870 C   0  0  0  0  0  0  0  0  0  0  0  0
    5.3960  -25.6650  -43.7100 C   0  0  0  0  0  0  0  0  0  0  0  0
    6.7540  -25.7410  -43.6390 N   0  0  0  0  0  0  0  0  0  0  0  0
    7.1320  -26.7120  -44.4110 O   0  0  0  0  0  0  0  0  0  0  0  0
    6.1300  -27.2750  -44.9830 N   0  0  0  0  0  0  0  0  0  0  0  0
    5.0170  -26.6510  -44.5730 C   0  0  0  0  0  0  0  0  0  0  0  0
    3.6940  -26.9340  -44.9430 N   0  0  0  0  0  0  0  0  0  0  0  0
    2.9600  -17.7160  -37.4970 H   0  0  0  0  0  0  0  0  0  0  0  0
    0.5740  -20.9310  -38.9420 H   0  0  0  0  0  0  0  0  0  0  0  0
   -1.4470  -19.8350  -38.0770 H   0  0  0  0  0  0  0  0  0  0  0  0
   -1.2700  -17.6970  -36.9300 H   0  0  0  0  0  0  0  0  0  0  0  0
    3.6650  -21.1180  -37.0860 H   0  0  0  0  0  0  0  0  0  0  0  0
    4.7760  -21.3000  -38.5190 H   0  0  0  0  0  0  0  0  0  0  0  0
    3.2920  -18.8250  -40.5370 H   0  0  0  0  0  0  0  0  0  0  0  0
    5.1400  -20.9760  -40.6360 H   0  0  0  0  0  0  0  0  0  0  0  0
    5.8560  -22.9490  -44.8740 H   0  0  0  0  0  0  0  0  0  0  0  0
    5.0160  -21.5770  -44.1290 H   0  0  0  0  0  0  0  0  0  0  0  0
    7.8860  -23.8940  -43.3300 H   0  0  0  0  0  0  0  0  0  0  0  0
    8.8560  -22.3950  -43.4560 H   0  0  0  0  0  0  0  0  0  0  0  0
    7.0060  -23.5380  -45.6550 H   0  0  0  0  0  0  0  0  0  0  0  0
    8.8040  -23.5780  -45.5730 H   0  0  0  0  0  0  0  0  0  0  0  0
    8.8610  -21.5580  -46.5010 H   0  0  0  0  0  0  0  0  0  0  0  0
    7.1100  -21.5060  -46.6650 H   0  0  0  0  0  0  0  0  0  0  0  0
    9.0480  -20.5700  -44.4870 H   0  0  0  0  0  0  0  0  0  0  0  0
    7.8830  -19.5950  -45.3820 H   0  0  0  0  0  0  0  0  0  0  0  0
    6.1200  -20.2510  -43.9350 H   0  0  0  0  0  0  0  0  0  0  0  0
    7.4910  -20.1770  -42.7920 H   0  0  0  0  0  0  0  0  0  0  0  0
    3.0900  -27.6830  -44.5390 H   0  0  0  0  0  0  0  0  0  0  0  0
    3.2500  -26.3580  -45.6900 H   0  0  0  0  0  0  0  0  0  0  0  0
  2  1  1  0  0  0  0
  3 32  1  0  0  0  0
  3  2  2  0  0  0  0
  4  3  1  0  0  0  0
  5  4  2  0  0  0  0
  5  6  1  0  0  0  0
  6  7  2  0  0  0  0
  7  2  1  0  0  0  0
  7 35  1  0  0  0  0
  8  4  1  0  0  0  0
  8  9  2  0  0  0  0
  9 36  1  0  0  0  0
 10  8  1  0  0  0  0
 11 39  1  0  0  0  0
 11 10  1  0  0  0  0
 12 11  1  0  0  0  0
 13 12  2  0  0  0  0
 14 12  1  0  0  0  0
 14 15  1  0  0  0  0
 16 15  2  0  0  0  0
 17 16  1  0  0  0  0
 18 17  1  0  0  0  0
 18 14  2  0  0  0  0
 19 20  1  0  0  0  0
 19 18  1  0  0  0  0
 21 43  1  0  0  0  0
 21 42  1  0  0  0  0
 21 20  1  0  0  0  0
 22 21  1  0  0  0  0
 23 22  1  0  0  0  0
 23 24  1  0  0  0  0
 24 48  1  0  0  0  0
 24 25  1  0  0  0  0
 25 20  1  0  0  0  0
 25 51  1  0  0  0  0
 26 27  2  0  0  0  0
 26 17  1  0  0  0  0
 28 27  1  0  0  0  0
 29 30  2  0  0  0  0
 29 28  1  0  0  0  0
 30 26  1  0  0  0  0
 31 30  1  0  0  0  0
 31 52  1  0  0  0  0
 33  5  1  0  0  0  0
 34  6  1  0  0  0  0
 37  9  1  0  0  0  0
 38 10  1  0  0  0  0
 40 19  1  0  0  0  0
 41 19  1  0  0  0  0
 44 22  1  0  0  0  0
 45 22  1  0  0  0  0
 46 23  1  0  0  0  0
 47 23  1  0  0  0  0
 49 24  1  0  0  0  0
 50 25  1  0  0  0  0
 53 31  1  0  0  0  0
M  END
>  <Pose>
1

>  <Score>
-5.05

$$$$
