
 OpenBabel03232221553D

 63 66  0  0  1  0  0  0  0  0999 V2000
    1.4950  -24.8000  -42.4310 B   0  0  0  0  0  0  0  0  0  0  0  0
    2.7890  -23.5150  -43.0360 C   0  0  0  0  0  0  0  0  0  0  0  0
    3.7680  -23.0320  -42.1600 C   0  0  0  0  0  0  0  0  0  0  0  0
    4.7140  -22.1040  -42.5720 C   0  0  0  0  0  0  0  0  0  0  0  0
    4.6410  -21.6860  -43.8720 C   0  0  0  0  0  0  0  0  0  0  0  0
    3.6770  -22.1530  -44.7550 C   0  0  0  0  0  0  0  0  0  0  0  0
    2.7470  -23.0730  -44.3330 C   0  0  0  0  0  0  0  0  0  0  0  0
    5.7140  -21.5970  -41.6210 C   0  0  1  0  0  0  0  0  0  0  0  0
    6.6110  -20.6680  -42.2780 N   0  0  0  0  0  0  0  0  0  0  0  0
    5.9370  -19.4240  -42.3490 C   0  0  0  0  0  0  0  0  0  0  0  0
    6.1430  -18.5440  -43.1910 O   0  0  0  0  0  0  0  0  0  0  0  0
    4.9700  -19.4100  -41.2380 C   0  0  0  0  0  0  0  0  0  0  0  0
    4.1710  -18.4930  -40.9270 O   0  0  0  0  0  0  0  0  0  0  0  0
    5.1420  -20.6930  -40.5680 C   0  0  0  0  0  0  0  0  0  0  0  0
    4.8710  -20.9390  -39.2940 C   0  0  0  0  0  0  0  0  0  0  0  0
    5.1640  -22.2510  -38.8530 O   0  0  0  0  0  0  0  0  0  0  0  0
    4.3090  -19.9570  -38.3740 C   0  0  0  0  0  0  0  0  0  0  0  0
    5.0480  -19.1240  -37.5880 C   0  0  0  0  0  0  0  0  0  0  0  0
    4.4230  -18.2400  -36.6900 C   0  0  0  0  0  0  0  0  0  0  0  0
    3.0630  -18.1650  -36.5560 C   0  0  0  0  0  0  0  0  0  0  0  0
    2.3140  -19.0050  -37.3520 C   0  0  0  0  0  0  0  0  0  0  0  0
    2.9110  -19.8700  -38.2300 C   0  0  0  0  0  0  0  0  0  0  0  0
    2.4390  -17.2890  -35.6680 O   0  0  0  0  0  0  0  0  0  0  0  0
    1.2280  -16.6650  -36.0110 C   0  0  0  0  0  0  0  0  0  0  0  0
    6.5250  -19.1010  -37.7000 C   0  0  0  0  0  0  0  0  0  0  0  0
    7.9340  -21.0100  -42.7570 C   0  0  0  0  0  0  0  0  0  0  0  0
    7.9650  -22.2370  -43.6140 C   0  0  0  0  0  0  0  0  0  0  0  0
    7.8820  -23.5300  -42.8970 C   0  0  0  0  0  0  0  0  0  0  0  0
    8.3840  -24.6560  -43.6000 N   0  0  0  0  0  4  0  0  0  0  0  0
    9.2510  -25.5230  -42.7850 C   0  0  0  0  0  0  0  0  0  0  0  0
   10.1130  -26.2880  -43.7910 C   0  0  0  0  0  0  0  0  0  0  0  0
    9.6440  -26.1560  -45.0850 O   0  0  0  0  0  0  0  0  0  0  0  0
    8.2810  -26.4470  -45.1540 C   0  0  0  0  0  0  0  0  0  0  0  0
    7.4580  -25.5060  -44.2570 C   0  0  0  0  0  0  0  0  0  0  0  0
    3.7400  -23.4190  -41.1680 H   0  0  0  0  0  0  0  0  0  0  0  0
    5.3360  -20.9630  -44.2270 H   0  0  0  0  0  0  0  0  0  0  0  0
    3.6310  -21.8170  -45.7770 H   0  0  0  0  0  0  0  0  0  0  0  0
    1.9660  -23.4770  -44.9830 H   0  0  0  0  0  0  0  0  0  0  0  0
    6.2330  -22.4770  -41.1860 H   0  0  0  0  0  0  0  0  0  0  0  0
    5.0380  -17.5810  -36.0650 H   0  0  0  0  0  0  0  0  0  0  0  0
    1.2250  -18.9400  -37.2420 H   0  0  0  0  0  0  0  0  0  0  0  0
    2.3060  -20.5170  -38.8430 H   0  0  0  0  0  0  0  0  0  0  0  0
    1.3380  -16.0180  -36.9230 H   0  0  0  0  0  0  0  0  0  0  0  0
    0.8700  -15.9950  -35.2230 H   0  0  0  0  0  0  0  0  0  0  0  0
    0.4090  -17.3730  -36.2630 H   0  0  0  0  0  0  0  0  0  0  0  0
    6.9890  -20.0720  -37.9080 H   0  0  0  0  0  0  0  0  0  0  0  0
    6.9740  -18.7700  -36.7140 H   0  0  0  0  0  0  0  0  0  0  0  0
    6.8580  -18.2960  -38.4170 H   0  0  0  0  0  0  0  0  0  0  0  0
    8.2790  -20.1570  -43.3910 H   0  0  0  0  0  0  0  0  0  0  0  0
    8.6830  -21.0950  -41.9480 H   0  0  0  0  0  0  0  0  0  0  0  0
    7.1420  -22.0960  -44.3710 H   0  0  0  0  0  0  0  0  0  0  0  0
    8.9070  -22.2040  -44.2410 H   0  0  0  0  0  0  0  0  0  0  0  0
    6.7990  -23.7260  -42.6900 H   0  0  0  0  0  0  0  0  0  0  0  0
    8.3710  -23.4180  -41.9050 H   0  0  0  0  0  0  0  0  0  0  0  0
    9.0340  -24.2800  -44.3550 H   0  0  0  0  0  0  0  0  0  0  0  0
    9.8620  -24.9620  -42.0760 H   0  0  0  0  0  0  0  0  0  0  0  0
    8.5720  -26.2140  -42.2300 H   0  0  0  0  0  0  0  0  0  0  0  0
   11.1500  -25.8400  -43.7920 H   0  0  0  0  0  0  0  0  0  0  0  0
   10.2520  -27.3210  -43.4570 H   0  0  0  0  0  0  0  0  0  0  0  0
    8.1680  -27.5100  -44.8530 H   0  0  0  0  0  0  0  0  0  0  0  0
    7.9450  -26.3980  -46.2140 H   0  0  0  0  0  0  0  0  0  0  0  0
    6.8830  -26.1670  -43.5810 H   0  0  0  0  0  0  0  0  0  0  0  0
    6.8070  -24.9340  -44.9420 H   0  0  0  0  0  0  0  0  0  0  0  0
  2  1  1  0  0  0  0
  2  3  1  0  0  0  0
  3 35  1  0  0  0  0
  4  3  2  0  0  0  0
  4  8  1  0  0  0  0
  5  4  1  0  0  0  0
  6  7  1  0  0  0  0
  6  5  2  0  0  0  0
  7  2  2  0  0  0  0
  8 39  1  1  0  0  0
  8 14  1  0  0  0  0
  9  8  1  0  0  0  0
 10  9  1  0  0  0  0
 10 12  1  0  0  0  0
 11 10  2  0  0  0  0
 12 13  2  0  0  0  0
 12 14  1  0  0  0  0
 14 15  2  0  0  0  0
 15 16  1  0  0  0  0
 15 17  1  0  0  0  0
 17 22  2  0  0  0  0
 17 18  1  0  0  0  0
 18 19  2  0  0  0  0
 19 20  1  0  0  0  0
 19 40  1  0  0  0  0
 20 23  1  0  0  0  0
 21 41  1  0  0  0  0
 21 20  2  0  0  0  0
 22 21  1  0  0  0  0
 24 23  1  0  0  0  0
 24 44  1  0  0  0  0
 25 18  1  0  0  0  0
 25 47  1  0  0  0  0
 26  9  1  0  0  0  0
 26 50  1  0  0  0  0
 27 28  1  0  0  0  0
 27 26  1  0  0  0  0
 28 53  1  0  0  0  0
 28 54  1  0  0  0  0
 29 28  1  0  0  0  0
 29 30  1  0  0  0  0
 30 57  1  0  0  0  0
 30 56  1  0  0  0  0
 31 59  1  0  0  0  0
 31 30  1  0  0  0  0
 32 31  1  0  0  0  0
 33 32  1  0  0  0  0
 33 60  1  0  0  0  0
 33 34  1  0  0  0  0
 34 29  1  0  0  0  0
 34 62  1  0  0  0  0
 36  5  1  0  0  0  0
 37  6  1  0  0  0  0
 38  7  1  0  0  0  0
 42 22  1  0  0  0  0
 43 24  1  0  0  0  0
 45 24  1  0  0  0  0
 46 25  1  0  0  0  0
 48 25  1  0  0  0  0
 49 26  1  0  0  0  0
 51 27  1  0  0  0  0
 52 27  1  0  0  0  0
 55 29  1  0  0  0  0
 58 31  1  0  0  0  0
 61 33  1  0  0  0  0
 63 34  1  0  0  0  0
M  END
>  <Pose>
1

>  <Score>
-3.86

$$$$
