
 OpenBabel03232221553D

 48 51  0  0  1  0  0  0  0  0999 V2000
   -2.4520  -14.6760  -38.8470 B   0  0  0  0  0  0  0  0  0  0  0  0
   -2.4740  -16.3930  -38.0030 C   0  0  0  0  0  0  0  0  0  0  0  0
   -1.4660  -17.2870  -38.2360 C   0  0  0  0  0  0  0  0  0  0  0  0
   -1.4730  -18.5360  -37.6270 C   0  0  0  0  0  0  0  0  0  0  0  0
   -2.5090  -18.8390  -36.8000 C   0  0  0  0  0  0  0  0  0  0  0  0
   -3.5260  -17.9260  -36.5710 C   0  0  0  0  0  0  0  0  0  0  0  0
   -3.5160  -16.6920  -37.1730 C   0  0  0  0  0  0  0  0  0  0  0  0
   -0.4020  -19.4850  -37.8820 C   0  0  0  0  0  0  0  0  0  0  0  0
   -0.6920  -20.5870  -38.4770 O   0  0  0  0  0  0  0  0  0  0  0  0
    0.9310  -19.2330  -37.4990 N   0  0  0  0  0  0  0  0  0  0  0  0
    1.9410  -19.2480  -38.5420 C   0  0  2  0  0  0  0  0  0  0  0  0
    2.2910  -20.6650  -38.9560 C   0  0  0  0  0  0  0  0  0  0  0  0
    3.6310  -20.5230  -39.4930 N   0  0  0  0  0  0  0  0  0  0  0  0
    4.1550  -19.1970  -39.2360 C   0  0  1  0  0  0  0  0  0  0  0  0
    3.2710  -18.7310  -38.0710 C   0  0  0  0  0  0  0  0  0  0  0  0
    5.5560  -19.3190  -38.8380 C   0  0  0  0  0  0  0  0  0  0  0  0
    5.9810  -18.8060  -37.7920 O   0  0  0  0  0  0  0  0  0  0  0  0
    6.4270  -20.0470  -39.6890 N   0  0  0  0  0  0  0  0  0  0  0  0
    5.8880  -21.0880  -40.5350 C   0  0  1  0  0  0  0  0  0  0  0  0
    4.4860  -21.4300  -40.2030 C   0  0  0  0  0  0  0  0  0  0  0  0
    4.0180  -22.5470  -40.5480 O   0  0  0  0  0  0  0  0  0  0  0  0
    6.0670  -20.7910  -42.0090 C   0  0  0  0  0  0  0  0  0  0  0  0
    6.1100  -22.0010  -42.8450 C   0  0  0  0  0  0  0  0  0  0  0  0
    4.9620  -22.4430  -43.4760 C   0  0  0  0  0  0  0  0  0  0  0  0
    4.9950  -23.5740  -44.2600 C   0  0  0  0  0  0  0  0  0  0  0  0
    6.1460  -24.3130  -44.4550 C   0  0  0  0  0  0  0  0  0  0  0  0
    7.2930  -23.8750  -43.8270 C   0  0  0  0  0  0  0  0  0  0  0  0
    7.2790  -22.7420  -43.0370 C   0  0  0  0  0  0  0  0  0  0  0  0
   -0.6210  -17.0720  -38.8960 H   0  0  0  0  0  0  0  0  0  0  0  0
   -2.5450  -19.8150  -36.3090 H   0  0  0  0  0  0  0  0  0  0  0  0
   -4.3480  -18.1650  -35.9150 H   0  0  0  0  0  0  0  0  0  0  0  0
   -4.3020  -15.9540  -37.0120 H   0  0  0  0  0  0  0  0  0  0  0  0
    1.1530  -19.0450  -36.5120 H   0  0  0  0  0  0  0  0  0  0  0  0
    1.6350  -18.7130  -39.4380 H   0  0  0  0  0  0  0  0  0  0  0  0
    2.3180  -21.3630  -38.0920 H   0  0  0  0  0  0  0  0  0  0  0  0
    1.5860  -21.0560  -39.7220 H   0  0  0  0  0  0  0  0  0  0  0  0
    4.0350  -18.5110  -40.1010 H   0  0  0  0  0  0  0  0  0  0  0  0
    3.3440  -17.6330  -38.0620 H   0  0  0  0  0  0  0  0  0  0  0  0
    3.6440  -19.2240  -37.1660 H   0  0  0  0  0  0  0  0  0  0  0  0
    7.4540  -19.8640  -39.7330 H   0  0  0  0  0  0  0  0  0  0  0  0
    6.5410  -21.9910  -40.3410 H   0  0  0  0  0  0  0  0  0  0  0  0
    5.2510  -20.1130  -42.3260 H   0  0  0  0  0  0  0  0  0  0  0  0
    7.0310  -20.2690  -42.1180 H   0  0  0  0  0  0  0  0  0  0  0  0
    4.0090  -21.9350  -43.3870 H   0  0  0  0  0  0  0  0  0  0  0  0
    4.1000  -23.9240  -44.7560 H   0  0  0  0  0  0  0  0  0  0  0  0
    6.1310  -25.2050  -45.0850 H   0  0  0  0  0  0  0  0  0  0  0  0
    8.2020  -24.4580  -43.9810 H   0  0  0  0  0  0  0  0  0  0  0  0
    8.1970  -22.4270  -42.5570 H   0  0  0  0  0  0  0  0  0  0  0  0
  1  2  1  0  0  0  0
  2  7  1  0  0  0  0
  3  2  2  0  0  0  0
  3  4  1  0  0  0  0
  4  5  2  0  0  0  0
  5  6  1  0  0  0  0
  5 30  1  0  0  0  0
  6 31  1  0  0  0  0
  7 32  1  0  0  0  0
  7  6  2  0  0  0  0
  8  4  1  0  0  0  0
  8 10  1  0  0  0  0
  9  8  2  0  0  0  0
 10 33  1  0  0  0  0
 11 34  1  6  0  0  0
 11 15  1  0  0  0  0
 11 10  1  0  0  0  0
 12 11  1  0  0  0  0
 12 35  1  0  0  0  0
 13 14  1  0  0  0  0
 13 12  1  0  0  0  0
 14 37  1  6  0  0  0
 14 16  1  0  0  0  0
 14 15  1  0  0  0  0
 15 38  1  0  0  0  0
 15 39  1  0  0  0  0
 16 17  2  0  0  0  0
 18 16  1  0  0  0  0
 19 41  1  1  0  0  0
 19 20  1  0  0  0  0
 19 18  1  0  0  0  0
 20 13  1  0  0  0  0
 21 20  2  0  0  0  0
 22 19  1  0  0  0  0
 23 22  1  0  0  0  0
 24 44  1  0  0  0  0
 24 23  2  0  0  0  0
 25 24  1  0  0  0  0
 26 25  2  0  0  0  0
 26 27  1  0  0  0  0
 27 28  2  0  0  0  0
 28 23  1  0  0  0  0
 28 48  1  0  0  0  0
 29  3  1  0  0  0  0
 36 12  1  0  0  0  0
 40 18  1  0  0  0  0
 42 22  1  0  0  0  0
 43 22  1  0  0  0  0
 45 25  1  0  0  0  0
 46 26  1  0  0  0  0
 47 27  1  0  0  0  0
M  END
>  <Pose>
1

>  <Score>
-4.41

$$$$
