
 OpenBabel03232221553D

 61 64  0  0  1  0  0  0  0  0999 V2000
   14.4020  -22.5310  -42.9010 B   0  0  0  0  0  0  0  0  0  0  0  0
   13.7780  -23.7340  -44.2470 C   0  0  0  0  0  0  0  0  0  0  0  0
   12.7560  -24.6140  -44.0630 C   0  0  0  0  0  0  0  0  0  0  0  0
   12.2760  -25.5010  -45.0110 C   0  0  0  0  0  0  0  0  0  0  0  0
   12.8910  -25.4920  -46.2610 C   0  0  0  0  0  0  0  0  0  0  0  0
   13.9310  -24.6100  -46.4820 C   0  0  0  0  0  0  0  0  0  0  0  0
   14.3890  -23.7350  -45.5120 C   0  0  0  0  0  0  0  0  0  0  0  0
   11.1770  -26.3960  -44.6340 C   0  0  1  0  0  0  0  0  0  0  0  0
   11.5830  -27.2970  -43.6210 N   0  0  0  0  0  0  0  0  0  0  0  0
   10.8670  -27.0270  -42.4270 C   0  0  0  0  0  0  0  0  0  0  0  0
   11.0690  -27.6000  -41.3110 O   0  0  0  0  0  0  0  0  0  0  0  0
    9.8790  -26.0070  -42.7030 C   0  0  0  0  0  0  0  0  0  0  0  0
    9.1030  -25.5760  -41.8080 O   0  0  0  0  0  0  0  0  0  0  0  0
   10.0060  -25.6510  -44.1040 C   0  0  0  0  0  0  0  0  0  0  0  0
    9.2390  -24.7850  -44.7260 C   0  0  0  0  0  0  0  0  0  0  0  0
    9.5020  -24.4810  -46.0420 O   0  0  0  0  0  0  0  0  0  0  0  0
    8.1270  -24.1560  -44.0580 C   0  0  0  0  0  0  0  0  0  0  0  0
    6.7890  -24.5640  -44.2070 C   0  0  0  0  0  0  0  0  0  0  0  0
    6.0100  -23.8030  -43.4280 N   0  0  0  0  0  0  0  0  0  0  0  0
    6.8010  -22.9480  -42.8070 N   0  0  0  0  0  0  0  0  0  0  0  0
    8.0830  -23.1280  -43.1580 C   0  0  0  0  0  0  0  0  0  0  0  0
    4.6010  -23.8920  -43.2720 C   0  0  0  0  0  0  0  0  0  0  0  0
    3.9740  -23.0410  -42.3720 C   0  0  0  0  0  0  0  0  0  0  0  0
    2.6070  -23.0650  -42.1770 C   0  0  0  0  0  0  0  0  0  0  0  0
    1.7960  -23.9540  -42.8850 C   0  0  0  0  0  0  0  0  0  0  0  0
    2.4210  -24.8020  -43.7810 C   0  0  0  0  0  0  0  0  0  0  0  0
    3.7810  -24.7580  -43.9560 C   0  0  0  0  0  0  0  0  0  0  0  0
    6.3550  -25.6760  -45.1020 C   0  0  0  0  0  0  0  0  0  0  0  0
   12.5830  -28.3940  -43.7480 C   0  0  0  0  0  0  0  0  0  0  0  0
   12.4120  -29.0840  -45.0760 C   0  0  0  0  0  0  0  0  0  0  0  0
   13.6800  -29.1880  -45.8630 C   0  0  0  0  0  0  0  0  0  0  0  0
   13.5380  -29.3350  -47.2730 N   0  0  0  0  0  4  0  0  0  0  0  0
   12.6010  -28.4700  -47.9110 C   0  0  0  0  0  0  0  0  0  0  0  0
   14.8390  -29.1470  -47.9360 C   0  0  0  0  0  0  0  0  0  0  0  0
   12.2930  -24.5970  -43.0570 H   0  0  0  0  0  0  0  0  0  0  0  0
   12.5470  -26.1680  -47.0210 H   0  0  0  0  0  0  0  0  0  0  0  0
   14.4100  -24.6060  -47.4650 H   0  0  0  0  0  0  0  0  0  0  0  0
   15.2060  -23.0440  -45.6830 H   0  0  0  0  0  0  0  0  0  0  0  0
   10.8790  -26.9930  -45.5340 H   0  0  0  0  0  0  0  0  0  0  0  0
    8.9440  -22.5700  -42.7830 H   0  0  0  0  0  0  0  0  0  0  0  0
    4.6350  -22.3470  -41.8260 H   0  0  0  0  0  0  0  0  0  0  0  0
    2.1470  -22.3850  -41.4700 H   0  0  0  0  0  0  0  0  0  0  0  0
    0.7180  -23.9530  -42.7090 H   0  0  0  0  0  0  0  0  0  0  0  0
    1.7750  -25.4920  -44.3260 H   0  0  0  0  0  0  0  0  0  0  0  0
    4.2260  -25.4370  -44.6690 H   0  0  0  0  0  0  0  0  0  0  0  0
    7.0950  -26.5110  -45.0760 H   0  0  0  0  0  0  0  0  0  0  0  0
    6.1490  -25.3230  -46.1290 H   0  0  0  0  0  0  0  0  0  0  0  0
    5.4030  -26.1160  -44.7170 H   0  0  0  0  0  0  0  0  0  0  0  0
   13.6000  -27.9990  -43.5730 H   0  0  0  0  0  0  0  0  0  0  0  0
   12.3210  -29.1630  -42.9650 H   0  0  0  0  0  0  0  0  0  0  0  0
   12.1570  -30.1520  -44.7980 H   0  0  0  0  0  0  0  0  0  0  0  0
   11.5400  -28.7370  -45.6330 H   0  0  0  0  0  0  0  0  0  0  0  0
   14.3060  -30.0650  -45.5020 H   0  0  0  0  0  0  0  0  0  0  0  0
   14.3280  -28.2870  -45.6510 H   0  0  0  0  0  0  0  0  0  0  0  0
   13.2740  -30.3410  -47.5010 H   0  0  0  0  0  0  0  0  0  0  0  0
   13.0660  -27.8860  -48.7510 H   0  0  0  0  0  0  0  0  0  0  0  0
   12.0030  -27.8160  -47.2460 H   0  0  0  0  0  0  0  0  0  0  0  0
   11.8320  -29.1130  -48.4310 H   0  0  0  0  0  0  0  0  0  0  0  0
   15.1360  -30.0420  -48.5070 H   0  0  0  0  0  0  0  0  0  0  0  0
   15.5880  -28.9650  -47.1320 H   0  0  0  0  0  0  0  0  0  0  0  0
   14.8190  -28.2250  -48.5610 H   0  0  0  0  0  0  0  0  0  0  0  0
  2  3  1  0  0  0  0
  2  1  1  0  0  0  0
  3 35  1  0  0  0  0
  4  8  1  0  0  0  0
  4  3  2  0  0  0  0
  5  4  1  0  0  0  0
  6  5  2  0  0  0  0
  6  7  1  0  0  0  0
  7  2  2  0  0  0  0
  8 39  1  6  0  0  0
  8 14  1  0  0  0  0
  8  9  1  0  0  0  0
  9 10  1  0  0  0  0
 10 11  2  0  0  0  0
 12 10  1  0  0  0  0
 12 13  2  0  0  0  0
 14 12  1  0  0  0  0
 15 14  2  0  0  0  0
 15 17  1  0  0  0  0
 16 15  1  0  0  0  0
 17 21  1  0  0  0  0
 18 17  2  0  0  0  0
 18 19  1  0  0  0  0
 19 22  1  0  0  0  0
 19 20  1  0  0  0  0
 21 20  2  0  0  0  0
 21 40  1  0  0  0  0
 22 23  1  0  0  0  0
 23 24  2  0  0  0  0
 23 41  1  0  0  0  0
 24 42  1  0  0  0  0
 25 43  1  0  0  0  0
 25 24  1  0  0  0  0
 26 25  2  0  0  0  0
 27 26  1  0  0  0  0
 27 22  2  0  0  0  0
 28 46  1  0  0  0  0
 28 48  1  0  0  0  0
 28 18  1  0  0  0  0
 29  9  1  0  0  0  0
 29 49  1  0  0  0  0
 29 50  1  0  0  0  0
 30 51  1  0  0  0  0
 30 29  1  0  0  0  0
 31 54  1  0  0  0  0
 31 53  1  0  0  0  0
 31 30  1  0  0  0  0
 32 31  1  0  0  0  0
 33 32  1  0  0  0  0
 33 57  1  0  0  0  0
 34 32  1  0  0  0  0
 34 60  1  0  0  0  0
 36  5  1  0  0  0  0
 37  6  1  0  0  0  0
 38  7  1  0  0  0  0
 44 26  1  0  0  0  0
 45 27  1  0  0  0  0
 47 28  1  0  0  0  0
 52 30  1  0  0  0  0
 55 32  1  0  0  0  0
 56 33  1  0  0  0  0
 58 33  1  0  0  0  0
 59 34  1  0  0  0  0
 61 34  1  0  0  0  0
M  END
>  <Pose>
1

>  <Score>
-3.51

$$$$
