
 OpenBabel03232221553D

 39 42  0  0  1  0  0  0  0  0999 V2000
    0.8690  -25.6560  -43.0870 B   0  0  0  0  0  0  0  0  0  0  0  0
    1.8220  -24.0240  -42.7330 C   0  0  0  0  0  0  0  0  0  0  0  0
    1.2960  -22.8080  -43.0870 C   0  0  0  0  0  0  0  0  0  0  0  0
    2.0210  -21.6340  -42.8130 C   0  0  0  0  0  0  0  0  0  0  0  0
    3.2370  -21.6850  -42.2010 C   0  0  0  0  0  0  0  0  0  0  0  0
    3.7540  -22.9070  -41.8520 C   0  0  0  0  0  0  0  0  0  0  0  0
    3.0400  -24.0880  -42.1210 C   0  0  0  0  0  0  0  0  0  0  0  0
    4.0110  -20.4850  -41.8990 C   0  0  1  0  0  0  0  0  0  0  0  0
    4.0460  -20.0930  -40.5070 C   0  0  0  0  0  0  0  0  0  0  0  0
    5.2240  -19.7750  -39.8900 C   0  0  0  0  0  0  0  0  0  0  0  0
    6.4770  -19.7890  -40.5860 N   0  0  0  0  0  0  0  0  0  0  0  0
    6.4190  -20.1510  -41.9600 C   0  0  0  0  0  0  0  0  0  0  0  0
    5.3090  -20.4550  -42.5720 C   0  0  0  0  0  0  0  0  0  0  0  0
    5.6160  -20.7470  -44.0060 C   0  0  0  0  0  0  0  0  0  0  0  0
    4.7260  -21.0740  -44.8480 O   0  0  0  0  0  0  0  0  0  0  0  0
    6.9560  -20.5860  -44.1420 O   0  0  0  0  0  0  0  0  0  0  0  0
    7.5710  -20.2560  -42.9430 C   0  0  0  0  0  0  0  0  0  0  0  0
    5.2170  -19.4200  -38.5650 N   0  0  0  0  0  0  0  0  0  0  0  0
    4.0710  -19.3810  -37.8760 C   0  0  0  0  0  0  0  0  0  0  0  0
    4.0890  -19.0510  -36.6570 O   0  0  0  0  0  0  0  0  0  0  0  0
    2.9190  -19.6940  -38.4910 N   0  0  0  0  0  0  0  0  0  0  0  0
    2.8390  -20.0490  -39.7720 C   0  0  0  0  0  0  0  0  0  0  0  0
    1.7670  -20.3430  -40.3550 O   0  0  0  0  0  0  0  0  0  0  0  0
    1.6910  -19.6380  -37.6970 C   0  0  0  0  0  0  0  0  0  0  0  0
    6.5030  -19.0940  -37.9660 C   0  0  0  0  0  0  0  0  0  0  0  0
    0.3360  -22.7860  -43.5680 H   0  0  0  0  0  0  0  0  0  0  0  0
    1.5350  -20.7180  -43.1290 H   0  0  0  0  0  0  0  0  0  0  0  0
    4.7070  -23.0670  -41.3640 H   0  0  0  0  0  0  0  0  0  0  0  0
    3.4330  -25.0600  -41.8510 H   0  0  0  0  0  0  0  0  0  0  0  0
    3.4230  -19.6350  -42.4180 H   0  0  0  0  0  0  0  0  0  0  0  0
    7.3470  -19.5430  -40.0810 H   0  0  0  0  0  0  0  0  0  0  0  0
    8.1320  -19.3010  -42.9700 H   0  0  0  0  0  0  0  0  0  0  0  0
    8.2500  -21.0870  -42.6570 H   0  0  0  0  0  0  0  0  0  0  0  0
    0.8050  -19.5180  -38.3530 H   0  0  0  0  0  0  0  0  0  0  0  0
    1.7250  -18.7880  -37.0110 H   0  0  0  0  0  0  0  0  0  0  0  0
    1.6680  -20.5720  -37.1010 H   0  0  0  0  0  0  0  0  0  0  0  0
    6.3750  -18.6970  -36.9500 H   0  0  0  0  0  0  0  0  0  0  0  0
    7.1590  -19.9670  -38.0290 H   0  0  0  0  0  0  0  0  0  0  0  0
    6.9210  -18.2380  -38.5730 H   0  0  0  0  0  0  0  0  0  0  0  0
  1  2  1  0  0  0  0
  2  7  1  0  0  0  0
  3  4  1  0  0  0  0
  3  2  2  0  0  0  0
  4  5  2  0  0  0  0
  5  8  1  0  0  0  0
  5  6  1  0  0  0  0
  6 28  1  0  0  0  0
  7  6  2  0  0  0  0
  7 29  1  0  0  0  0
  8 30  1  6  0  0  0
  8  9  1  0  0  0  0
  9 10  2  0  0  0  0
  9 22  1  0  0  0  0
 10 18  1  0  0  0  0
 11 31  1  0  0  0  0
 11 10  1  0  0  0  0
 12 11  1  0  0  0  0
 13 12  2  0  0  0  0
 13  8  1  0  0  0  0
 14 13  1  0  0  0  0
 15 14  2  0  0  0  0
 16 14  1  0  0  0  0
 16 17  1  0  0  0  0
 17 33  1  0  0  0  0
 17 12  1  0  0  0  0
 18 25  1  0  0  0  0
 18 19  1  0  0  0  0
 19 20  2  0  0  0  0
 21 19  1  0  0  0  0
 21 24  1  0  0  0  0
 22 21  1  0  0  0  0
 23 22  2  0  0  0  0
 24 36  1  0  0  0  0
 24 35  1  0  0  0  0
 25 37  1  0  0  0  0
 26  3  1  0  0  0  0
 27  4  1  0  0  0  0
 32 17  1  0  0  0  0
 34 24  1  0  0  0  0
 38 25  1  0  0  0  0
 39 25  1  0  0  0  0
M  END
>  <Pose>
1

>  <Score>
-3.94

$$$$
