
 OpenBabel03232221553D

 51 53  0  0  0  0  0  0  0  0999 V2000
   -0.0080  -25.2750  -46.2240 B   0  0  0  0  0  0  0  0  0  0  0  0
    0.4130  -25.1910  -44.3640 C   0  0  0  0  0  0  0  0  0  0  0  0
   -0.5990  -25.4210  -43.4540 C   0  0  0  0  0  0  0  0  0  0  0  0
   -0.2880  -25.3580  -42.1190 C   0  0  0  0  0  0  0  0  0  0  0  0
    0.9980  -25.0730  -41.6970 C   0  0  0  0  0  0  0  0  0  0  0  0
    1.9970  -24.8460  -42.5910 C   0  0  0  0  0  0  0  0  0  0  0  0
    1.6930  -24.9070  -43.9330 C   0  0  0  0  0  0  0  0  0  0  0  0
    3.3650  -24.5430  -42.1440 C   0  0  0  0  0  0  0  0  0  0  0  0
    3.8930  -23.3970  -42.3370 N   0  0  0  0  0  0  0  0  0  0  0  0
    5.2280  -23.1010  -41.9000 N   0  0  0  0  0  0  0  0  0  0  0  0
    5.3840  -21.9570  -41.0870 C   0  0  0  0  0  0  0  0  0  0  0  0
    5.1860  -22.1800  -39.8320 O   0  0  0  0  0  0  0  0  0  0  0  0
    5.7330  -20.6120  -41.5270 C   0  0  0  0  0  0  0  0  0  0  0  0
    5.4940  -19.5310  -40.7170 N   0  0  0  0  0  0  0  0  0  0  0  0
    5.9150  -18.4820  -41.3940 N   0  0  0  0  0  0  0  0  0  0  0  0
    6.3920  -18.8140  -42.5480 N   0  0  0  0  0  0  0  0  0  0  0  0
    6.3020  -20.1670  -42.6900 C   0  0  0  0  0  0  0  0  0  0  0  0
    6.7250  -20.9890  -43.8230 C   0  0  0  0  0  0  0  0  0  0  0  0
    8.0480  -21.5750  -43.6690 N   0  0  0  0  0  0  0  0  0  0  0  0
    8.1620  -22.7770  -44.4850 C   0  0  0  0  0  0  0  0  0  0  0  0
    8.7030  -22.4750  -45.8540 C   0  0  0  0  0  0  0  0  0  0  0  0
    8.5240  -21.1640  -46.2560 O   0  0  0  0  0  0  0  0  0  0  0  0
    9.0990  -20.2210  -45.4180 C   0  0  0  0  0  0  0  0  0  0  0  0
    9.1170  -20.6570  -43.9780 C   0  0  0  0  0  0  0  0  0  0  0  0
    4.9180  -19.5430  -39.4280 C   0  0  0  0  0  0  0  0  0  0  0  0
    3.6420  -19.8080  -39.0520 N   0  0  0  0  0  0  0  0  0  0  0  0
    3.5520  -19.7060  -37.7750 O   0  0  0  0  0  0  0  0  0  0  0  0
    4.6810  -19.3870  -37.2250 N   0  0  0  0  0  0  0  0  0  0  0  0
    5.5770  -19.2730  -38.2430 C   0  0  0  0  0  0  0  0  0  0  0  0
    6.9420  -18.9340  -38.0690 N   0  0  0  0  0  0  0  0  0  0  0  0
   -1.6920  -25.6780  -40.8450 B   0  0  0  0  0  0  0  0  0  0  0  0
   -1.9000  -25.7080  -43.8390 O   0  0  0  0  0  0  0  0  0  0  0  0
    8.9850  -25.4970  -42.8230 Cl  0  0  0  0  0  0  0  0  0  0  0  0
    1.2200  -25.0290  -40.6360 H   0  0  0  0  0  0  0  0  0  0  0  0
    2.4880  -24.7260  -44.6380 H   0  0  0  0  0  0  0  0  0  0  0  0
    3.9280  -25.2930  -41.6480 H   0  0  0  0  0  0  0  0  0  0  0  0
    5.9900  -23.7440  -42.2090 H   0  0  0  0  0  0  0  0  0  0  0  0
    6.0610  -21.8570  -44.0130 H   0  0  0  0  0  0  0  0  0  0  0  0
    6.7940  -20.4150  -44.7720 H   0  0  0  0  0  0  0  0  0  0  0  0
    8.8640  -23.4580  -43.9720 H   0  0  0  0  0  0  0  0  0  0  0  0
    7.1670  -23.2590  -44.4840 H   0  0  0  0  0  0  0  0  0  0  0  0
    8.1430  -23.1080  -46.5720 H   0  0  0  0  0  0  0  0  0  0  0  0
    9.7730  -22.7870  -45.9610 H   0  0  0  0  0  0  0  0  0  0  0  0
    8.4640  -19.3040  -45.4730 H   0  0  0  0  0  0  0  0  0  0  0  0
   10.0870  -19.9460  -45.8120 H   0  0  0  0  0  0  0  0  0  0  0  0
    9.2170  -19.8630  -43.2420 H   0  0  0  0  0  0  0  0  0  0  0  0
   10.0600  -21.2750  -43.8700 H   0  0  0  0  0  0  0  0  0  0  0  0
    7.2000  -18.3500  -37.2530 H   0  0  0  0  0  0  0  0  0  0  0  0
    7.7000  -19.2370  -38.7090 H   0  0  0  0  0  0  0  0  0  0  0  0
   -2.1540  -26.5310  -44.3560 H   0  0  0  0  0  0  0  0  0  0  0  0
    9.3720  -25.4630  -41.5020 H   0  0  0  0  0  0  0  0  0  0  0  0
  1  2  1  0  0  0  0
  2  7  2  0  0  0  0
  2  3  1  0  0  0  0
  3  4  2  0  0  0  0
  4  5  1  0  0  0  0
  4 31  1  0  0  0  0
  5 34  1  0  0  0  0
  6  8  1  0  0  0  0
  6  5  2  0  0  0  0
  7  6  1  0  0  0  0
  8 36  1  0  0  0  0
  9  8  2  0  0  0  0
  9 10  1  0  0  0  0
 10 11  1  0  0  0  0
 11 12  2  0  0  0  0
 13 11  1  0  0  0  0
 13 14  1  0  0  0  0
 14 25  1  0  0  0  0
 15 14  1  0  0  0  0
 16 15  2  0  0  0  0
 17 16  1  0  0  0  0
 17 13  2  0  0  0  0
 18 19  1  0  0  0  0
 18 17  1  0  0  0  0
 20 41  1  0  0  0  0
 20 40  1  0  0  0  0
 20 19  1  0  0  0  0
 21 20  1  0  0  0  0
 22 21  1  0  0  0  0
 22 23  1  0  0  0  0
 23 24  1  0  0  0  0
 24 47  1  0  0  0  0
 24 19  1  0  0  0  0
 24 46  1  0  0  0  0
 25 26  2  0  0  0  0
 25 29  1  0  0  0  0
 26 27  1  0  0  0  0
 27 28  1  0  0  0  0
 29 30  1  0  0  0  0
 29 28  2  0  0  0  0
 30 48  1  0  0  0  0
 32  3  1  0  0  0  0
 33 51  1  0  0  0  0
 35  7  1  0  0  0  0
 37 10  1  0  0  0  0
 38 18  1  0  0  0  0
 39 18  1  0  0  0  0
 42 21  1  0  0  0  0
 43 21  1  0  0  0  0
 44 23  1  0  0  0  0
 45 23  1  0  0  0  0
 49 30  1  0  0  0  0
 50 32  1  0  0  0  0
M  END
>  <Pose>
1

>  <Score>
-5.55

$$$$
