
 OpenBabel03232221553D

 31 34  0  0  1  0  0  0  0  0999 V2000
    5.6870  -21.6480  -39.0230 B   0  0  0  0  0  0  0  0  0  0  0  0
    5.5060  -20.3430  -40.4140 C   0  0  0  0  0  0  0  0  0  0  0  0
    4.3680  -19.5690  -40.3900 C   0  0  0  0  0  0  0  0  0  0  0  0
    4.2420  -18.6220  -41.4080 C   0  0  0  0  0  0  0  0  0  0  0  0
    5.2150  -18.4890  -42.3710 C   0  0  0  0  0  0  0  0  0  0  0  0
    6.3590  -19.2690  -42.3940 C   0  0  0  0  0  0  0  0  0  0  0  0
    6.4900  -20.2080  -41.3900 C   0  0  0  0  0  0  0  0  0  0  0  0
    7.3490  -19.1070  -43.4020 N   0  0  0  0  0  0  0  0  0  0  0  0
    8.4370  -18.5970  -43.0810 O   0  0  0  0  0  0  0  0  0  0  0  0
    7.1860  -19.4760  -44.7090 O   0  0  0  0  0  0  0  0  0  0  0  0
    3.3830  -19.7230  -39.3800 N   0  0  0  0  0  0  0  0  0  0  0  0
    2.0560  -20.2100  -39.4470 C   0  0  0  0  0  0  0  0  0  0  0  0
    1.5670  -20.9150  -40.3540 O   0  0  0  0  0  0  0  0  0  0  0  0
    1.2820  -19.7660  -38.2680 C   0  0  2  0  0  0  0  0  0  0  0  0
    0.5430  -18.5120  -38.6790 C   0  0  2  0  0  0  0  0  0  0  0  0
    1.6220  -17.5880  -38.6950 O   0  0  0  0  0  0  0  0  0  0  0  0
    1.9690  -17.7350  -37.3250 C   0  0  2  0  0  0  0  0  0  0  0  0
    2.3170  -19.1990  -37.3000 C   0  0  2  0  0  0  0  0  0  0  0  0
    3.6030  -19.3790  -38.0100 C   0  0  0  0  0  0  0  0  0  0  0  0
    4.7540  -19.2450  -37.4800 O   0  0  0  0  0  0  0  0  0  0  0  0
    0.6560  -17.4580  -36.7050 C   0  0  0  0  0  0  0  0  0  0  0  0
   -0.2410  -17.9730  -37.5410 C   0  0  0  0  0  0  0  0  0  0  0  0
    3.3530  -17.9970  -41.4170 H   0  0  0  0  0  0  0  0  0  0  0  0
    5.1210  -17.7480  -43.1710 H   0  0  0  0  0  0  0  0  0  0  0  0
    7.3510  -20.8420  -41.3510 H   0  0  0  0  0  0  0  0  0  0  0  0
    0.6540  -20.5320  -37.8250 H   0  0  0  0  0  0  0  0  0  0  0  0
    0.0240  -18.5830  -39.6230 H   0  0  0  0  0  0  0  0  0  0  0  0
    2.7710  -17.0660  -37.0300 H   0  0  0  0  0  0  0  0  0  0  0  0
    2.2810  -19.6740  -36.3250 H   0  0  0  0  0  0  0  0  0  0  0  0
    0.4840  -16.9450  -35.7700 H   0  0  0  0  0  0  0  0  0  0  0  0
   -1.3260  -18.0030  -37.4330 H   0  0  0  0  0  0  0  0  0  0  0  0
  2  3  1  0  0  0  0
  2  1  1  0  0  0  0
  3 11  1  0  0  0  0
  4  3  2  0  0  0  0
  5  4  1  0  0  0  0
  6  5  2  0  0  0  0
  6  7  1  0  0  0  0
  7 25  1  0  0  0  0
  7  2  2  0  0  0  0
  8  9  2  0  0  0  0
  8  6  1  0  0  0  0
 10  8  2  0  0  0  0
 11 19  1  0  0  0  0
 12 11  1  0  0  0  0
 12 14  1  0  0  0  0
 13 12  2  0  0  0  0
 14 26  1  1  0  0  0
 14 18  1  0  0  0  0
 15 27  1  6  0  0  0
 15 14  1  0  0  0  0
 15 22  1  0  0  0  0
 16 15  1  0  0  0  0
 16 17  1  0  0  0  0
 17 18  1  0  0  0  0
 17 28  1  1  0  0  0
 17 21  1  0  0  0  0
 18 29  1  1  0  0  0
 19 20  2  0  0  0  0
 19 18  1  0  0  0  0
 21 30  1  0  0  0  0
 22 31  1  0  0  0  0
 22 21  2  0  0  0  0
 23  4  1  0  0  0  0
 24  5  1  0  0  0  0
M  END
>  <Pose>
1

>  <Score>
-3.45

$$$$
