
 OpenBabel03232221553D

 39 42  0  0  1  0  0  0  0  0999 V2000
    8.0330  -18.0470  -43.6730 B   0  0  0  0  0  0  0  0  0  0  0  0
    6.8610  -19.5350  -43.4920 C   0  0  0  0  0  0  0  0  0  0  0  0
    6.6970  -20.3780  -44.5660 C   0  0  0  0  0  0  0  0  0  0  0  0
    5.8440  -21.4450  -44.4070 C   0  0  0  0  0  0  0  0  0  0  0  0
    5.1770  -21.6520  -43.1950 C   0  0  0  0  0  0  0  0  0  0  0  0
    5.3300  -20.8150  -42.1080 C   0  0  0  0  0  0  0  0  0  0  0  0
    6.1910  -19.7460  -42.2830 C   0  0  0  0  0  0  0  0  0  0  0  0
    4.6530  -21.0220  -40.8760 N   0  0  0  0  0  0  0  0  0  0  0  0
    5.2710  -21.4070  -39.6530 C   0  0  0  0  0  0  0  0  0  0  0  0
    6.3190  -22.0720  -39.5070 O   0  0  0  0  0  0  0  0  0  0  0  0
    4.4670  -20.8870  -38.5060 C   0  0  1  0  0  0  0  0  0  0  0  0
    4.8600  -19.4990  -38.1270 C   0  0  1  0  0  0  0  0  0  0  0  0
    4.2250  -18.7050  -39.1150 O   0  0  0  0  0  0  0  0  0  0  0  0
    2.9110  -19.1790  -38.8700 C   0  0  1  0  0  0  0  0  0  0  0  0
    3.0920  -20.6390  -39.1230 C   0  0  1  0  0  0  0  0  0  0  0  0
    3.2700  -20.8960  -40.5720 C   0  0  0  0  0  0  0  0  0  0  0  0
    2.3400  -20.9870  -41.4010 O   0  0  0  0  0  0  0  0  0  0  0  0
    2.8290  -18.9020  -37.4040 C   0  0  0  0  0  0  0  0  0  0  0  0
    4.0730  -19.0940  -36.9320 C   0  0  0  0  0  0  0  0  0  0  0  0
    1.8910  -18.5030  -39.6820 C   0  0  0  0  0  0  0  0  0  0  0  0
    6.3080  -19.2470  -38.0200 C   0  0  0  0  0  0  0  0  0  0  0  0
    6.6850  -18.9030  -36.7240 O   0  0  0  0  0  0  0  0  0  0  0  0
    7.4090  -20.1620  -45.8600 C   0  0  0  0  0  0  0  0  0  0  0  0
    5.6830  -22.1370  -45.2290 H   0  0  0  0  0  0  0  0  0  0  0  0
    4.5160  -22.5050  -43.1100 H   0  0  0  0  0  0  0  0  0  0  0  0
    6.3430  -19.0620  -41.4490 H   0  0  0  0  0  0  0  0  0  0  0  0
    4.4330  -21.6010  -37.6820 H   0  0  0  0  0  0  0  0  0  0  0  0
    2.3170  -21.2880  -38.6730 H   0  0  0  0  0  0  0  0  0  0  0  0
    1.9430  -18.6170  -36.8900 H   0  0  0  0  0  0  0  0  0  0  0  0
    4.3880  -18.9680  -35.9040 H   0  0  0  0  0  0  0  0  0  0  0  0
    1.1270  -19.1490  -40.1480 H   0  0  0  0  0  0  0  0  0  0  0  0
    1.3460  -17.7550  -39.0630 H   0  0  0  0  0  0  0  0  0  0  0  0
    2.3730  -17.9090  -40.5110 H   0  0  0  0  0  0  0  0  0  0  0  0
    6.5990  -18.4100  -38.6770 H   0  0  0  0  0  0  0  0  0  0  0  0
    6.8870  -20.1610  -38.2650 H   0  0  0  0  0  0  0  0  0  0  0  0
    7.5190  -18.3550  -36.6930 H   0  0  0  0  0  0  0  0  0  0  0  0
    7.6400  -19.0810  -45.9090 H   0  0  0  0  0  0  0  0  0  0  0  0
    8.4030  -20.6770  -45.8670 H   0  0  0  0  0  0  0  0  0  0  0  0
    6.8470  -20.5330  -46.7160 H   0  0  0  0  0  0  0  0  0  0  0  0
  1  2  1  0  0  0  0
  2  7  1  0  0  0  0
  3  4  1  0  0  0  0
  3  2  2  0  0  0  0
  4  5  2  0  0  0  0
  5 25  1  0  0  0  0
  5  6  1  0  0  0  0
  6  8  1  0  0  0  0
  7  6  2  0  0  0  0
  7 26  1  0  0  0  0
  8 16  1  0  0  0  0
  8  9  1  0  0  0  0
  9 10  2  0  0  0  0
  9 11  1  0  0  0  0
 11 12  1  0  0  0  0
 11 27  1  1  0  0  0
 12 21  1  1  0  0  0
 12 19  1  0  0  0  0
 13 14  1  0  0  0  0
 13 12  1  0  0  0  0
 14 20  1  6  0  0  0
 14 18  1  0  0  0  0
 15 14  1  0  0  0  0
 15 28  1  1  0  0  0
 15 11  1  0  0  0  0
 16 15  1  0  0  0  0
 17 16  2  0  0  0  0
 18 19  2  0  0  0  0
 18 29  1  0  0  0  0
 19 30  1  0  0  0  0
 20 32  1  0  0  0  0
 21 22  1  0  0  0  0
 22 36  1  0  0  0  0
 23  3  1  0  0  0  0
 24  4  1  0  0  0  0
 31 20  1  0  0  0  0
 33 20  1  0  0  0  0
 34 21  1  0  0  0  0
 35 21  1  0  0  0  0
 37 23  1  0  0  0  0
 38 23  1  0  0  0  0
 39 23  1  0  0  0  0
M  END
>  <Pose>
1

>  <Score>
-3.62

$$$$
