
 OpenBabel03232221553D

 54 57  0  0  1  0  0  0  0  0999 V2000
   -0.6760  -10.8820  -35.9390 B   0  0  0  0  0  0  0  0  0  0  0  0
    0.3870  -12.3370  -36.6110 C   0  0  0  0  0  0  0  0  0  0  0  0
   -0.0200  -13.6580  -36.4140 C   0  0  0  0  0  0  0  0  0  0  0  0
    0.6970  -14.7330  -36.8720 C   0  0  0  0  0  0  0  0  0  0  0  0
    1.8840  -14.4330  -37.5630 C   0  0  0  0  0  0  0  0  0  0  0  0
    2.2970  -13.1360  -37.7630 C   0  0  0  0  0  0  0  0  0  0  0  0
    1.5560  -12.0750  -37.2920 C   0  0  0  0  0  0  0  0  0  0  0  0
    0.3220  -16.1390  -36.6900 C   0  0  1  0  0  0  0  0  0  0  0  0
   -0.8610  -16.5400  -37.4200 N   0  0  0  0  0  0  0  0  0  0  0  0
   -0.4580  -16.7750  -38.7570 C   0  0  0  0  0  0  0  0  0  0  0  0
   -1.1530  -16.6910  -39.8000 O   0  0  0  0  0  0  0  0  0  0  0  0
    0.9570  -17.1450  -38.6940 C   0  0  0  0  0  0  0  0  0  0  0  0
    1.7380  -17.4390  -39.6270 O   0  0  0  0  0  0  0  0  0  0  0  0
    1.3110  -17.1040  -37.2660 C   0  0  0  0  0  0  0  0  0  0  0  0
    2.3000  -17.7640  -36.7090 C   0  0  0  0  0  0  0  0  0  0  0  0
    2.5090  -17.5590  -35.3390 O   0  0  0  0  0  0  0  0  0  0  0  0
    3.1620  -18.6930  -37.4660 C   0  0  0  0  0  0  0  0  0  0  0  0
    4.4590  -18.7730  -37.4840 O   0  0  0  0  0  0  0  0  0  0  0  0
    4.8750  -19.7320  -38.2800 C   0  0  0  0  0  0  0  0  0  0  0  0
    3.7740  -20.3520  -38.8480 C   0  0  0  0  0  0  0  0  0  0  0  0
    2.6920  -19.6760  -38.3170 C   0  0  0  0  0  0  0  0  0  0  0  0
    3.9390  -21.3990  -39.7290 C   0  0  0  0  0  0  0  0  0  0  0  0
    5.1840  -21.8700  -40.0800 C   0  0  0  0  0  0  0  0  0  0  0  0
    6.2890  -21.2650  -39.5240 C   0  0  0  0  0  0  0  0  0  0  0  0
    6.1270  -20.2050  -38.6330 C   0  0  0  0  0  0  0  0  0  0  0  0
   -2.2350  -16.7230  -36.9560 C   0  0  0  0  0  0  0  0  0  0  0  0
   -2.4080  -18.0980  -36.3400 C   0  0  0  0  0  0  0  0  0  0  0  0
   -1.9250  -19.2040  -37.2400 C   0  0  0  0  0  0  0  0  0  0  0  0
   -2.7900  -19.3180  -38.3700 N   0  0  0  0  0  4  0  0  0  0  0  0
   -2.2130  -20.0750  -39.4600 C   0  0  0  0  0  0  0  0  0  0  0  0
   -4.0860  -19.8630  -38.0980 C   0  0  0  0  0  0  0  0  0  0  0  0
   -0.9400  -13.8300  -35.8820 H   0  0  0  0  0  0  0  0  0  0  0  0
    2.4730  -15.2640  -37.9390 H   0  0  0  0  0  0  0  0  0  0  0  0
    3.2140  -12.9060  -38.2970 H   0  0  0  0  0  0  0  0  0  0  0  0
    1.8690  -11.0320  -37.4420 H   0  0  0  0  0  0  0  0  0  0  0  0
    0.1800  -16.3320  -35.5980 H   0  0  0  0  0  0  0  0  0  0  0  0
    1.6660  -19.8950  -38.5240 H   0  0  0  0  0  0  0  0  0  0  0  0
    3.0800  -21.8780  -40.1660 H   0  0  0  0  0  0  0  0  0  0  0  0
    5.3630  -22.6870  -40.7640 H   0  0  0  0  0  0  0  0  0  0  0  0
    7.2850  -21.6240  -39.7890 H   0  0  0  0  0  0  0  0  0  0  0  0
    7.0260  -19.7610  -38.2220 H   0  0  0  0  0  0  0  0  0  0  0  0
   -2.5220  -15.9870  -36.1790 H   0  0  0  0  0  0  0  0  0  0  0  0
   -2.9380  -16.6140  -37.7970 H   0  0  0  0  0  0  0  0  0  0  0  0
   -3.5100  -18.2390  -36.2470 H   0  0  0  0  0  0  0  0  0  0  0  0
   -1.9710  -18.1610  -35.3420 H   0  0  0  0  0  0  0  0  0  0  0  0
   -1.9090  -20.1890  -36.7210 H   0  0  0  0  0  0  0  0  0  0  0  0
   -0.9000  -18.9750  -37.6120 H   0  0  0  0  0  0  0  0  0  0  0  0
   -2.9420  -18.3350  -38.7490 H   0  0  0  0  0  0  0  0  0  0  0  0
   -2.6890  -19.7280  -40.4200 H   0  0  0  0  0  0  0  0  0  0  0  0
   -2.4810  -21.1420  -39.3550 H   0  0  0  0  0  0  0  0  0  0  0  0
   -1.1290  -19.8960  -39.4840 H   0  0  0  0  0  0  0  0  0  0  0  0
   -4.1210  -20.9680  -38.1190 H   0  0  0  0  0  0  0  0  0  0  0  0
   -4.7790  -19.5270  -38.8940 H   0  0  0  0  0  0  0  0  0  0  0  0
   -4.5260  -19.4470  -37.1430 H   0  0  0  0  0  0  0  0  0  0  0  0
  2  3  1  0  0  0  0
  2  1  1  0  0  0  0
  3 32  1  0  0  0  0
  4  8  1  0  0  0  0
  4  3  2  0  0  0  0
  5  4  1  0  0  0  0
  6  5  2  0  0  0  0
  6  7  1  0  0  0  0
  7  2  2  0  0  0  0
  8 36  1  1  0  0  0
  9 26  1  0  0  0  0
  9  8  1  0  0  0  0
 10 12  1  0  0  0  0
 10  9  1  0  0  0  0
 11 10  2  0  0  0  0
 12 14  1  0  0  0  0
 13 12  2  0  0  0  0
 14 15  2  0  0  0  0
 14  8  1  0  0  0  0
 15 16  1  0  0  0  0
 17 15  1  0  0  0  0
 18 17  1  0  0  0  0
 19 18  1  0  0  0  0
 20 21  1  0  0  0  0
 20 19  2  0  0  0  0
 21 17  2  0  0  0  0
 22 20  1  0  0  0  0
 23 22  2  0  0  0  0
 23 24  1  0  0  0  0
 24 25  2  0  0  0  0
 25 19  1  0  0  0  0
 25 41  1  0  0  0  0
 26 27  1  0  0  0  0
 26 42  1  0  0  0  0
 27 44  1  0  0  0  0
 27 45  1  0  0  0  0
 28 46  1  0  0  0  0
 28 27  1  0  0  0  0
 29 31  1  0  0  0  0
 29 28  1  0  0  0  0
 30 50  1  0  0  0  0
 30 29  1  0  0  0  0
 31 54  1  0  0  0  0
 33  5  1  0  0  0  0
 34  6  1  0  0  0  0
 35  7  1  0  0  0  0
 37 21  1  0  0  0  0
 38 22  1  0  0  0  0
 39 23  1  0  0  0  0
 40 24  1  0  0  0  0
 43 26  1  0  0  0  0
 47 28  1  0  0  0  0
 48 29  1  0  0  0  0
 49 30  1  0  0  0  0
 51 30  1  0  0  0  0
 52 31  1  0  0  0  0
 53 31  1  0  0  0  0
M  END
>  <Pose>
1

>  <Score>
-4.54

$$$$
