
 OpenBabel03232221553D

 52 55  0  0  1  0  0  0  0  0999 V2000
    4.2900  -22.5230  -41.8770 B   0  0  0  0  0  0  0  0  0  0  0  0
    4.7590  -21.3580  -40.4040 C   0  0  0  0  0  0  0  0  0  0  0  0
    3.8220  -20.9670  -39.4920 C   0  0  0  0  0  0  0  0  0  0  0  0
    4.1160  -20.1410  -38.4450 C   0  0  0  0  0  0  0  0  0  0  0  0
    5.4490  -19.7110  -38.3540 C   0  0  0  0  0  0  0  0  0  0  0  0
    6.4160  -20.0820  -39.2470 C   0  0  0  0  0  0  0  0  0  0  0  0
    6.0570  -20.9160  -40.2800 C   0  0  0  0  0  0  0  0  0  0  0  0
    3.1840  -19.6720  -37.4530 C   0  0  2  0  0  0  0  0  0  0  0  0
    3.7390  -19.4120  -36.2900 O   0  0  0  0  0  0  0  0  0  0  0  0
    1.7360  -19.4430  -37.5330 C   0  0  0  0  0  0  0  0  0  0  0  0
    1.3750  -18.1450  -38.0620 N   0  0  0  0  0  0  0  0  0  0  0  0
    1.1810  -17.8840  -39.3960 C   0  0  0  0  0  0  0  0  0  0  0  0
    0.9230  -16.5480  -39.4950 C   0  0  0  0  0  0  0  0  0  0  0  0
    0.6760  -15.9880  -40.7520 C   0  0  0  0  0  0  0  0  0  0  0  0
    0.6980  -16.7940  -41.8700 C   0  0  0  0  0  0  0  0  0  0  0  0
    0.9600  -18.1430  -41.7740 C   0  0  0  0  0  0  0  0  0  0  0  0
    1.2060  -18.6920  -40.5130 C   0  0  0  0  0  0  0  0  0  0  0  0
    0.9660  -16.0260  -38.2490 N   0  0  0  0  0  0  0  0  0  0  0  0
    1.2420  -16.9860  -37.3640 C   0  0  2  0  0  0  0  0  0  0  0  0
    1.4470  -16.8120  -36.0780 N   0  0  0  0  0  0  0  0  0  0  0  0
    0.7730  -14.6060  -38.0080 C   0  0  0  0  0  0  0  0  0  0  0  0
    1.9570  -13.7510  -38.2030 C   0  0  0  0  0  0  0  0  0  0  0  0
    2.4230  -12.9490  -37.1300 N   0  0  0  0  0  0  0  0  0  0  0  0
    1.2840  -12.4800  -36.3000 C   0  0  0  0  0  0  0  0  0  0  0  0
    0.2650  -11.7440  -37.1070 C   0  0  0  0  0  0  0  0  0  0  0  0
    0.8610  -10.5540  -37.5280 O   0  0  0  0  0  0  0  0  0  0  0  0
    2.0000  -10.7840  -38.2580 C   0  0  0  0  0  0  0  0  0  0  0  0
    3.0110  -11.6820  -37.5970 C   0  0  0  0  0  0  0  0  0  0  0  0
    2.8360  -21.3400  -39.6190 H   0  0  0  0  0  0  0  0  0  0  0  0
    5.7830  -19.0540  -37.5530 H   0  0  0  0  0  0  0  0  0  0  0  0
    7.4540  -19.7260  -39.1490 H   0  0  0  0  0  0  0  0  0  0  0  0
    6.8170  -21.2220  -41.0020 H   0  0  0  0  0  0  0  0  0  0  0  0
    1.2300  -20.2410  -38.1620 H   0  0  0  0  0  0  0  0  0  0  0  0
    1.2960  -19.5180  -36.4930 H   0  0  0  0  0  0  0  0  0  0  0  0
    0.4670  -14.9250  -40.8160 H   0  0  0  0  0  0  0  0  0  0  0  0
    0.5030  -16.3360  -42.8270 H   0  0  0  0  0  0  0  0  0  0  0  0
    0.9710  -18.7530  -42.6650 H   0  0  0  0  0  0  0  0  0  0  0  0
    1.4190  -19.7410  -40.4440 H   0  0  0  0  0  0  0  0  0  0  0  0
    1.3290  -15.9180  -35.6090 H   0  0  0  0  0  0  0  0  0  0  0  0
    1.7730  -17.6150  -35.5220 H   0  0  0  0  0  0  0  0  0  0  0  0
   -0.0900  -14.2580  -38.6170 H   0  0  0  0  0  0  0  0  0  0  0  0
    0.4370  -14.4880  -36.9520 H   0  0  0  0  0  0  0  0  0  0  0  0
    1.8230  -13.1430  -39.1540 H   0  0  0  0  0  0  0  0  0  0  0  0
    2.8070  -14.4420  -38.4960 H   0  0  0  0  0  0  0  0  0  0  0  0
    0.8710  -13.3070  -35.6990 H   0  0  0  0  0  0  0  0  0  0  0  0
    1.7450  -11.7560  -35.6030 H   0  0  0  0  0  0  0  0  0  0  0  0
   -0.5550  -11.4600  -36.4170 H   0  0  0  0  0  0  0  0  0  0  0  0
   -0.1870  -12.2980  -37.9300 H   0  0  0  0  0  0  0  0  0  0  0  0
    2.5080   -9.7800  -38.3610 H   0  0  0  0  0  0  0  0  0  0  0  0
    1.7180  -11.1180  -39.2790 H   0  0  0  0  0  0  0  0  0  0  0  0
    3.8540  -11.8060  -38.2670 H   0  0  0  0  0  0  0  0  0  0  0  0
    3.2970  -11.1570  -36.6350 H   0  0  0  0  0  0  0  0  0  0  0  0
  1  2  1  0  0  0  0
  2  7  2  0  0  0  0
  2  3  1  0  0  0  0
  3  4  2  0  0  0  0
  4  5  1  0  0  0  0
  4  8  1  0  0  0  0
  5 30  1  0  0  0  0
  6 31  1  0  0  0  0
  6  5  2  0  0  0  0
  7  6  1  0  0  0  0
  8  9  1  1  0  0  0
 10  8  1  0  0  0  0
 10 34  1  0  0  0  0
 11 10  1  0  0  0  0
 11 19  1  0  0  0  0
 12 11  1  0  0  0  0
 13 12  1  0  0  0  0
 13 18  1  0  0  0  0
 14 13  2  0  0  0  0
 15 16  2  0  0  0  0
 15 14  1  0  0  0  0
 16 17  1  0  0  0  0
 17 38  1  0  0  0  0
 17 12  2  0  0  0  0
 18 21  1  0  0  0  0
 18 19  1  0  0  0  0
 19 20  1  6  0  0  0
 20 39  1  0  0  0  0
 20 40  1  0  0  0  0
 21 42  1  0  0  0  0
 22 21  1  0  0  0  0
 22 23  1  0  0  0  0
 23 24  1  0  0  0  0
 24 45  1  0  0  0  0
 24 46  1  0  0  0  0
 25 47  1  0  0  0  0
 25 24  1  0  0  0  0
 26 25  1  0  0  0  0
 27 28  1  0  0  0  0
 27 26  1  0  0  0  0
 28 23  1  0  0  0  0
 28 52  1  0  0  0  0
 29  3  1  0  0  0  0
 32  7  1  0  0  0  0
 33 10  1  0  0  0  0
 35 14  1  0  0  0  0
 36 15  1  0  0  0  0
 37 16  1  0  0  0  0
 41 21  1  0  0  0  0
 43 22  1  0  0  0  0
 44 22  1  0  0  0  0
 48 25  1  0  0  0  0
 49 27  1  0  0  0  0
 50 27  1  0  0  0  0
 51 28  1  0  0  0  0
M  END
>  <Pose>
1

>  <Score>
-4.00

$$$$
