
 OpenBabel03232221553D

 51 54  0  0  1  0  0  0  0  0999 V2000
    2.3220  -24.4320  -44.7330 B   0  0  0  0  0  0  0  0  0  0  0  0
    3.1300  -23.6070  -43.2050 C   0  0  0  0  0  0  0  0  0  0  0  0
    3.7850  -22.4040  -43.2950 C   0  0  0  0  0  0  0  0  0  0  0  0
    4.3550  -21.8330  -42.1850 C   0  0  0  0  0  0  0  0  0  0  0  0
    4.3100  -22.4260  -40.9100 C   0  0  0  0  0  0  0  0  0  0  0  0
    3.6560  -23.6170  -40.8440 C   0  0  0  0  0  0  0  0  0  0  0  0
    3.0820  -24.1920  -41.9610 C   0  0  0  0  0  0  0  0  0  0  0  0
    4.9630  -21.7380  -39.8250 C   0  0  1  0  0  0  0  0  0  0  0  0
    6.2640  -21.1770  -40.0430 N   0  0  0  0  0  0  0  0  0  0  0  0
    6.4800  -20.3500  -38.8610 C   0  0  0  0  0  0  0  0  0  0  0  0
    7.5880  -20.0300  -38.3780 O   0  0  0  0  0  0  0  0  0  0  0  0
    5.1770  -19.9680  -38.3510 C   0  0  0  0  0  0  0  0  0  0  0  0
    4.8910  -19.2570  -37.3420 O   0  0  0  0  0  0  0  0  0  0  0  0
    4.2050  -20.5870  -39.2580 C   0  0  0  0  0  0  0  0  0  0  0  0
    2.9730  -20.1990  -39.4430 C   0  0  0  0  0  0  0  0  0  0  0  0
    2.1640  -20.9440  -40.3090 O   0  0  0  0  0  0  0  0  0  0  0  0
    2.4280  -19.0020  -38.7730 C   0  0  0  0  0  0  0  0  0  0  0  0
    2.3340  -17.7920  -39.3140 O   0  0  0  0  0  0  0  0  0  0  0  0
    1.8110  -16.9320  -38.4790 C   0  0  0  0  0  0  0  0  0  0  0  0
    1.5220  -17.5610  -37.2860 C   0  0  0  0  0  0  0  0  0  0  0  0
    1.9230  -18.8680  -37.5020 C   0  0  0  0  0  0  0  0  0  0  0  0
    0.9610  -16.8610  -36.2410 C   0  0  0  0  0  0  0  0  0  0  0  0
    0.6600  -15.5180  -36.3160 C   0  0  0  0  0  0  0  0  0  0  0  0
    0.9490  -14.8830  -37.5100 C   0  0  0  0  0  0  0  0  0  0  0  0
    1.5100  -15.5690  -38.5650 C   0  0  0  0  0  0  0  0  0  0  0  0
    7.2590  -21.3500  -41.0780 C   0  0  0  0  0  0  0  0  0  0  0  0
    8.2030  -20.2510  -41.3270 C   0  0  0  0  0  0  0  0  0  0  0  0
    7.8220  -19.2590  -42.2990 N   0  0  0  0  0  4  0  0  0  0  0  0
    8.5400  -19.3930  -43.5340 C   0  0  0  0  0  0  0  0  0  0  0  0
    6.4070  -19.0640  -42.4410 C   0  0  0  0  0  0  0  0  0  0  0  0
    3.8330  -21.9290  -44.2660 H   0  0  0  0  0  0  0  0  0  0  0  0
    4.8580  -20.8810  -42.3310 H   0  0  0  0  0  0  0  0  0  0  0  0
    3.5960  -24.1420  -39.9150 H   0  0  0  0  0  0  0  0  0  0  0  0
    2.5650  -25.1500  -41.8750 H   0  0  0  0  0  0  0  0  0  0  0  0
    5.0910  -22.4340  -38.9390 H   0  0  0  0  0  0  0  0  0  0  0  0
    1.8620  -19.6640  -36.7770 H   0  0  0  0  0  0  0  0  0  0  0  0
    0.7420  -17.3700  -35.3170 H   0  0  0  0  0  0  0  0  0  0  0  0
    0.2200  -14.9470  -35.5090 H   0  0  0  0  0  0  0  0  0  0  0  0
    0.7350  -13.8310  -37.6300 H   0  0  0  0  0  0  0  0  0  0  0  0
    1.7360  -15.0740  -39.5000 H   0  0  0  0  0  0  0  0  0  0  0  0
    6.7850  -21.6690  -42.0420 H   0  0  0  0  0  0  0  0  0  0  0  0
    7.8720  -22.2580  -40.7800 H   0  0  0  0  0  0  0  0  0  0  0  0
    9.1820  -20.6460  -41.6570 H   0  0  0  0  0  0  0  0  0  0  0  0
    8.3590  -19.6870  -40.3580 H   0  0  0  0  0  0  0  0  0  0  0  0
    8.1900  -18.3390  -41.8770 H   0  0  0  0  0  0  0  0  0  0  0  0
    9.2460  -20.2350  -43.4080 H   0  0  0  0  0  0  0  0  0  0  0  0
    7.8910  -19.4710  -44.4320 H   0  0  0  0  0  0  0  0  0  0  0  0
    9.2070  -18.5110  -43.7610 H   0  0  0  0  0  0  0  0  0  0  0  0
    5.7820  -19.6780  -41.7740 H   0  0  0  0  0  0  0  0  0  0  0  0
    6.0980  -18.0010  -42.2090 H   0  0  0  0  0  0  0  0  0  0  0  0
    6.1010  -19.1690  -43.5260 H   0  0  0  0  0  0  0  0  0  0  0  0
  1  2  1  0  0  0  0
  2  7  1  0  0  0  0
  3  2  2  0  0  0  0
  3  4  1  0  0  0  0
  4  5  2  0  0  0  0
  5  6  1  0  0  0  0
  5  8  1  0  0  0  0
  6 33  1  0  0  0  0
  7 34  1  0  0  0  0
  7  6  2  0  0  0  0
  8 14  1  0  0  0  0
  8 35  1  1  0  0  0
  9  8  1  0  0  0  0
  9 10  1  0  0  0  0
 10 11  2  0  0  0  0
 10 12  1  0  0  0  0
 12 13  2  0  0  0  0
 14 12  1  0  0  0  0
 15 14  2  0  0  0  0
 15 17  1  0  0  0  0
 16 15  1  0  0  0  0
 17 21  2  0  0  0  0
 18 17  1  0  0  0  0
 18 19  1  0  0  0  0
 19 20  1  0  0  0  0
 20 22  2  0  0  0  0
 21 20  1  0  0  0  0
 21 36  1  0  0  0  0
 22 37  1  0  0  0  0
 23 22  1  0  0  0  0
 23 38  1  0  0  0  0
 24 23  2  0  0  0  0
 25 19  2  0  0  0  0
 25 24  1  0  0  0  0
 26 42  1  0  0  0  0
 26  9  1  0  0  0  0
 27 26  1  0  0  0  0
 27 44  1  0  0  0  0
 28 45  1  0  0  0  0
 28 27  1  0  0  0  0
 29 46  1  0  0  0  0
 29 28  1  0  0  0  0
 30 28  1  0  0  0  0
 30 50  1  0  0  0  0
 30 49  1  0  0  0  0
 31  3  1  0  0  0  0
 32  4  1  0  0  0  0
 39 24  1  0  0  0  0
 40 25  1  0  0  0  0
 41 26  1  0  0  0  0
 43 27  1  0  0  0  0
 47 29  1  0  0  0  0
 48 29  1  0  0  0  0
 51 30  1  0  0  0  0
M  END
>  <Pose>
1

>  <Score>
-3.28

$$$$
