
 OpenBabel03232221553D

 48 51  0  0  0  0  0  0  0  0999 V2000
   14.4840  -24.2630  -42.5430 B   0  0  0  0  0  0  0  0  0  0  0  0
   12.8910  -23.7730  -43.4770 C   0  0  0  0  0  0  0  0  0  0  0  0
   11.8140  -24.6520  -43.5440 C   0  0  0  0  0  0  0  0  0  0  0  0
   10.6630  -24.2960  -44.2110 C   0  0  0  0  0  0  0  0  0  0  0  0
   10.5650  -23.0670  -44.8180 C   0  0  0  0  0  0  0  0  0  0  0  0
   11.6380  -22.2110  -44.7400 C   0  0  0  0  0  0  0  0  0  0  0  0
   12.8050  -22.5300  -44.0850 C   0  0  0  0  0  0  0  0  0  0  0  0
    9.5280  -25.1950  -44.2780 C   0  0  0  0  0  0  0  0  0  0  0  0
    8.2990  -24.7790  -43.9670 C   0  0  0  0  0  0  0  0  0  0  0  0
    7.9230  -23.5020  -43.5540 O   0  0  0  0  0  0  0  0  0  0  0  0
    6.5750  -23.4440  -43.3320 C   0  0  0  0  0  0  0  0  0  0  0  0
    5.9910  -24.6800  -43.5860 C   0  0  0  0  0  0  0  0  0  0  0  0
    4.6210  -24.8050  -43.4180 C   0  0  0  0  0  0  0  0  0  0  0  0
    3.8710  -23.7250  -43.0120 C   0  0  0  0  0  0  0  0  0  0  0  0
    4.4930  -22.4980  -42.7660 C   0  0  0  0  0  0  0  0  0  0  0  0
    5.8450  -22.3470  -42.9220 C   0  0  0  0  0  0  0  0  0  0  0  0
    6.4590  -21.0640  -42.5750 C   0  0  0  0  0  0  0  0  0  0  0  0
    6.8610  -20.2420  -43.6570 N   0  0  0  0  0  4  0  0  0  0  0  0
    8.3010  -20.0610  -43.5810 C   0  0  0  0  0  0  0  0  0  0  0  0
    8.7890  -18.7000  -43.9410 C   0  0  0  0  0  0  0  0  0  0  0  0
    8.1150  -17.6230  -43.3040 N   0  0  0  0  0  0  0  0  0  0  0  0
    6.8920  -18.0390  -42.7010 C   0  0  0  0  0  0  0  0  0  0  0  0
    6.1710  -18.9750  -43.6120 C   0  0  0  0  0  0  0  0  0  0  0  0
    7.9230  -16.5390  -44.2440 C   0  0  0  0  0  0  0  0  0  0  0  0
    3.6520  -21.4730  -42.3610 O   0  0  0  0  0  0  0  0  0  0  0  0
    7.0790  -25.5810  -44.0020 C   0  0  0  0  0  0  0  0  0  0  0  0
    6.9300  -26.7920  -44.3100 O   0  0  0  0  0  0  0  0  0  0  0  0
   11.9310  -25.6190  -43.0540 H   0  0  0  0  0  0  0  0  0  0  0  0
    9.6610  -22.7940  -45.3470 H   0  0  0  0  0  0  0  0  0  0  0  0
   11.5300  -21.2290  -45.2230 H   0  0  0  0  0  0  0  0  0  0  0  0
   13.6310  -21.8130  -44.0390 H   0  0  0  0  0  0  0  0  0  0  0  0
    9.6700  -26.2160  -44.5770 H   0  0  0  0  0  0  0  0  0  0  0  0
    4.2020  -25.7790  -43.6270 H   0  0  0  0  0  0  0  0  0  0  0  0
    2.8130  -23.8830  -42.9000 H   0  0  0  0  0  0  0  0  0  0  0  0
    5.6830  -20.4890  -41.9610 H   0  0  0  0  0  0  0  0  0  0  0  0
    7.2820  -21.2300  -41.8650 H   0  0  0  0  0  0  0  0  0  0  0  0
    6.6070  -20.6550  -44.6050 H   0  0  0  0  0  0  0  0  0  0  0  0
    8.8570  -20.7770  -44.2080 H   0  0  0  0  0  0  0  0  0  0  0  0
    8.6730  -20.2880  -42.5380 H   0  0  0  0  0  0  0  0  0  0  0  0
    9.8770  -18.6580  -43.6090 H   0  0  0  0  0  0  0  0  0  0  0  0
    8.8810  -18.5360  -45.0620 H   0  0  0  0  0  0  0  0  0  0  0  0
    7.1450  -18.6130  -41.7590 H   0  0  0  0  0  0  0  0  0  0  0  0
    6.2370  -17.1860  -42.3900 H   0  0  0  0  0  0  0  0  0  0  0  0
    6.0670  -18.5380  -44.6520 H   0  0  0  0  0  0  0  0  0  0  0  0
    5.1300  -19.1020  -43.2200 H   0  0  0  0  0  0  0  0  0  0  0  0
    7.7660  -16.8910  -45.2940 H   0  0  0  0  0  0  0  0  0  0  0  0
    7.0960  -15.8470  -43.9780 H   0  0  0  0  0  0  0  0  0  0  0  0
    8.8990  -15.9750  -44.2990 H   0  0  0  0  0  0  0  0  0  0  0  0
  2  1  1  0  0  0  0
  3  2  1  0  0  0  0
  3 28  1  0  0  0  0
  4  3  2  0  0  0  0
  5  6  2  0  0  0  0
  5  4  1  0  0  0  0
  6  7  1  0  0  0  0
  7 31  1  0  0  0  0
  7  2  2  0  0  0  0
  8  4  1  0  0  0  0
  8  9  2  0  0  0  0
  9 10  1  0  0  0  0
 10 11  1  0  0  0  0
 11 16  1  0  0  0  0
 12 13  1  0  0  0  0
 12 11  2  0  0  0  0
 13 14  2  0  0  0  0
 14 34  1  0  0  0  0
 14 15  1  0  0  0  0
 15 25  1  0  0  0  0
 16 15  2  0  0  0  0
 16 17  1  0  0  0  0
 17 35  1  0  0  0  0
 17 36  1  0  0  0  0
 18 23  1  0  0  0  0
 18 19  1  0  0  0  0
 18 17  1  0  0  0  0
 19 39  1  0  0  0  0
 20 40  1  0  0  0  0
 20 19  1  0  0  0  0
 20 21  1  0  0  0  0
 21 22  1  0  0  0  0
 22 43  1  0  0  0  0
 22 42  1  0  0  0  0
 23 45  1  0  0  0  0
 23 22  1  0  0  0  0
 24 47  1  0  0  0  0
 24 21  1  0  0  0  0
 26  9  1  0  0  0  0
 26 12  1  0  0  0  0
 27 26  2  0  0  0  0
 29  5  1  0  0  0  0
 30  6  1  0  0  0  0
 32  8  1  0  0  0  0
 33 13  1  0  0  0  0
 37 18  1  0  0  0  0
 38 19  1  0  0  0  0
 41 20  1  0  0  0  0
 44 23  1  0  0  0  0
 46 24  1  0  0  0  0
 48 24  1  0  0  0  0
M  END
>  <Pose>
1

>  <Score>
-3.82

$$$$
