
 OpenBabel03232221553D

 55 58  0  0  1  0  0  0  0  0999 V2000
   -0.7400  -19.8780  -38.2920 B   0  0  0  0  0  0  0  0  0  0  0  0
    1.1590  -19.6310  -38.2370 C   0  0  0  0  0  0  0  0  0  0  0  0
    1.9360  -20.2610  -39.1850 C   0  0  0  0  0  0  0  0  0  0  0  0
    3.3010  -20.0960  -39.1610 C   0  0  0  0  0  0  0  0  0  0  0  0
    3.9690  -19.3190  -38.2250 C   0  0  0  0  0  0  0  0  0  0  0  0
    3.1650  -18.7030  -37.2930 C   0  0  0  0  0  0  0  0  0  0  0  0
    1.7710  -18.8600  -37.3010 C   0  0  0  0  0  0  0  0  0  0  0  0
    5.3550  -19.2160  -38.2870 N   0  0  0  0  0  0  0  0  0  0  0  0
    6.3100  -20.2400  -38.4170 C   0  0  0  0  0  0  0  0  0  0  0  0
    7.4060  -20.1730  -37.8250 O   0  0  0  0  0  0  0  0  0  0  0  0
    6.0830  -21.4470  -39.2520 C   0  0  0  0  0  0  0  0  0  0  0  0
    6.0120  -21.1070  -40.6420 N   0  0  0  0  0  0  0  0  0  0  0  0
    5.8530  -22.0610  -41.6770 C   0  0  0  0  0  0  0  0  0  0  0  0
    5.0050  -22.9780  -41.5060 O   0  0  0  0  0  0  0  0  0  0  0  0
    6.6750  -21.9610  -42.9120 C   0  0  2  0  0  0  0  0  0  0  0  0
    5.9640  -21.3200  -43.8560 O   0  0  0  0  0  0  0  0  0  0  0  0
    6.2350  -21.5760  -45.1630 C   0  0  2  0  0  0  0  0  0  0  0  0
    5.1640  -21.0860  -45.9240 O   0  0  0  0  0  0  0  0  0  0  0  0
    4.2340  -22.0920  -46.0260 C   0  0  0  0  0  0  0  0  0  0  0  0
    4.7850  -23.2570  -45.5320 O   0  0  0  0  0  0  0  0  0  0  0  0
    6.1830  -23.0430  -45.5190 C   0  0  2  0  0  0  0  0  0  0  0  0
    6.8730  -23.8950  -44.5240 C   0  0  1  0  0  0  0  0  0  0  0  0
    8.0710  -24.4330  -45.0480 O   0  0  0  0  0  0  0  0  0  0  0  0
    9.0280  -24.3370  -44.0700 C   0  0  0  0  0  0  0  0  0  0  0  0
    8.6750  -23.2230  -43.3550 O   0  0  0  0  0  0  0  0  0  0  0  0
    7.2760  -23.2710  -43.2580 C   0  0  1  0  0  0  0  0  0  0  0  0
   10.3720  -24.1430  -44.7830 C   0  0  0  0  0  0  0  0  0  0  0  0
    9.1690  -25.5870  -43.2410 C   0  0  0  0  0  0  0  0  0  0  0  0
    3.8540  -22.3710  -47.4800 C   0  0  0  0  0  0  0  0  0  0  0  0
    2.9390  -21.7630  -45.3030 C   0  0  0  0  0  0  0  0  0  0  0  0
    1.4650  -20.8930  -39.9570 H   0  0  0  0  0  0  0  0  0  0  0  0
    3.8580  -20.6140  -39.9300 H   0  0  0  0  0  0  0  0  0  0  0  0
    3.5860  -18.0890  -36.5370 H   0  0  0  0  0  0  0  0  0  0  0  0
    1.2020  -18.3560  -36.5500 H   0  0  0  0  0  0  0  0  0  0  0  0
    5.7590  -18.2250  -38.2270 H   0  0  0  0  0  0  0  0  0  0  0  0
    7.0010  -22.0950  -39.1300 H   0  0  0  0  0  0  0  0  0  0  0  0
    5.2380  -22.0650  -38.8990 H   0  0  0  0  0  0  0  0  0  0  0  0
    6.0800  -20.1020  -40.9080 H   0  0  0  0  0  0  0  0  0  0  0  0
    7.5370  -21.2850  -42.6210 H   0  0  0  0  0  0  0  0  0  0  0  0
    7.1440  -21.0860  -45.5660 H   0  0  0  0  0  0  0  0  0  0  0  0
    6.5920  -23.1420  -46.5450 H   0  0  0  0  0  0  0  0  0  0  0  0
    6.2250  -24.8030  -44.3480 H   0  0  0  0  0  0  0  0  0  0  0  0
    7.0710  -23.9890  -42.4230 H   0  0  0  0  0  0  0  0  0  0  0  0
   11.1570  -24.2780  -44.0290 H   0  0  0  0  0  0  0  0  0  0  0  0
   10.4040  -23.1750  -45.3060 H   0  0  0  0  0  0  0  0  0  0  0  0
   10.4260  -24.9450  -45.5480 H   0  0  0  0  0  0  0  0  0  0  0  0
    9.4560  -25.4000  -42.2060 H   0  0  0  0  0  0  0  0  0  0  0  0
    8.2370  -26.1900  -43.2640 H   0  0  0  0  0  0  0  0  0  0  0  0
    9.9620  -26.2700  -43.6660 H   0  0  0  0  0  0  0  0  0  0  0  0
    3.7230  -21.4110  -47.9930 H   0  0  0  0  0  0  0  0  0  0  0  0
    4.5780  -23.0550  -47.9600 H   0  0  0  0  0  0  0  0  0  0  0  0
    2.8690  -22.8840  -47.4470 H   0  0  0  0  0  0  0  0  0  0  0  0
    2.0860  -21.6390  -46.0010 H   0  0  0  0  0  0  0  0  0  0  0  0
    3.0330  -20.8140  -44.7210 H   0  0  0  0  0  0  0  0  0  0  0  0
    2.6460  -22.5820  -44.6000 H   0  0  0  0  0  0  0  0  0  0  0  0
  1  2  1  0  0  0  0
  2  7  1  0  0  0  0
  3  4  1  0  0  0  0
  3  2  2  0  0  0  0
  4  5  2  0  0  0  0
  5  6  1  0  0  0  0
  6 33  1  0  0  0  0
  7  6  2  0  0  0  0
  7 34  1  0  0  0  0
  8 35  1  0  0  0  0
  8  5  1  0  0  0  0
  9  8  1  0  0  0  0
  9 10  2  0  0  0  0
 11 36  1  0  0  0  0
 11 37  1  0  0  0  0
 11  9  1  0  0  0  0
 12 11  1  0  0  0  0
 13 14  2  0  0  0  0
 13 12  1  0  0  0  0
 15 39  1  1  0  0  0
 15 13  1  0  0  0  0
 16 15  1  0  0  0  0
 17 40  1  6  0  0  0
 17 16  1  0  0  0  0
 18 17  1  0  0  0  0
 19 18  1  0  0  0  0
 19 20  1  0  0  0  0
 19 30  1  0  0  0  0
 20 21  1  0  0  0  0
 21 41  1  6  0  0  0
 21 17  1  0  0  0  0
 21 22  1  0  0  0  0
 22 42  1  1  0  0  0
 22 26  1  0  0  0  0
 23 22  1  0  0  0  0
 23 24  1  0  0  0  0
 24 25  1  0  0  0  0
 24 28  1  0  0  0  0
 25 26  1  0  0  0  0
 26 15  1  0  0  0  0
 26 43  1  1  0  0  0
 27 24  1  0  0  0  0
 27 44  1  0  0  0  0
 28 47  1  0  0  0  0
 29 52  1  0  0  0  0
 29 19  1  0  0  0  0
 30 54  1  0  0  0  0
 30 55  1  0  0  0  0
 31  3  1  0  0  0  0
 32  4  1  0  0  0  0
 38 12  1  0  0  0  0
 45 27  1  0  0  0  0
 46 27  1  0  0  0  0
 48 28  1  0  0  0  0
 49 28  1  0  0  0  0
 50 29  1  0  0  0  0
 51 29  1  0  0  0  0
 53 30  1  0  0  0  0
M  END
>  <Pose>
1

>  <Score>
-4.11

$$$$
