
 OpenBabel03232221553D

 50 53  0  0  1  0  0  0  0  0999 V2000
    4.2040  -19.1250  -37.4450 Cl  0  0  0  0  0  0  0  0  0  0  0  0
    4.1990  -20.2780  -38.7730 C   0  0  0  0  0  0  0  0  0  0  0  0
    5.2440  -21.1540  -38.9690 C   0  0  0  0  0  0  0  0  0  0  0  0
    5.2360  -22.0580  -40.0160 C   0  0  0  0  0  0  0  0  0  0  0  0
    4.1880  -22.1320  -40.9120 C   0  0  0  0  0  0  0  0  0  0  0  0
    3.1400  -21.2570  -40.7180 C   0  0  0  0  0  0  0  0  0  0  0  0
    3.1450  -20.3400  -39.6600 C   0  0  0  0  0  0  0  0  0  0  0  0
    4.2040  -23.0990  -42.0090 C   0  0  0  0  0  0  0  0  0  0  0  0
    3.2300  -23.9310  -42.4460 N   0  0  0  0  0  0  0  0  0  0  0  0
    3.7070  -24.6400  -43.4900 C   0  0  1  0  0  0  0  0  0  0  0  0
    4.9840  -24.2870  -43.7510 N   0  0  0  0  0  0  0  0  0  0  0  0
    5.2810  -23.3390  -42.8340 C   0  0  0  0  0  0  0  0  0  0  0  0
    5.8680  -24.7970  -44.7800 C   0  0  0  0  0  0  0  0  0  0  0  0
    7.1330  -25.2880  -44.1640 C   0  0  0  0  0  0  0  0  0  0  0  0
    7.0520  -25.9440  -43.1230 O   0  0  0  0  0  0  0  0  0  0  0  0
    8.3350  -24.9760  -44.8030 N   0  0  0  0  0  0  0  0  0  0  0  0
    9.6010  -24.9230  -44.1640 C   0  0  0  0  0  0  0  0  0  0  0  0
   10.4730  -23.8730  -44.4790 C   0  0  0  0  0  0  0  0  0  0  0  0
   11.6990  -23.8020  -43.9010 C   0  0  0  0  0  0  0  0  0  0  0  0
   12.1210  -24.7560  -42.9900 C   0  0  0  0  0  0  0  0  0  0  0  0
   11.2640  -25.7770  -42.6890 C   0  0  0  0  0  0  0  0  0  0  0  0
    9.9930  -25.8770  -43.2690 C   0  0  0  0  0  0  0  0  0  0  0  0
   13.4660  -24.6580  -42.3700 C   0  0  0  0  0  0  0  0  0  0  0  0
   14.5130  -24.8540  -43.4710 C   0  0  0  0  0  0  0  0  0  0  0  0
    2.6580  -25.5650  -43.9890 C   0  0  0  0  0  0  0  0  0  0  0  0
    1.4360  -25.2810  -43.1850 C   0  0  0  0  0  0  0  0  0  0  0  0
    1.8620  -24.2990  -42.1580 C   0  0  0  0  0  0  0  0  0  0  0  0
    6.0680  -21.1020  -38.2710 H   0  0  0  0  0  0  0  0  0  0  0  0
    6.0720  -22.7390  -40.1490 H   0  0  0  0  0  0  0  0  0  0  0  0
    2.2950  -21.2740  -41.3910 H   0  0  0  0  0  0  0  0  0  0  0  0
    2.3290  -19.6580  -39.5090 H   0  0  0  0  0  0  0  0  0  0  0  0
    6.2570  -22.8320  -42.7650 H   0  0  0  0  0  0  0  0  0  0  0  0
    6.0590  -24.0170  -45.5440 H   0  0  0  0  0  0  0  0  0  0  0  0
    5.3120  -25.6110  -45.2970 H   0  0  0  0  0  0  0  0  0  0  0  0
    8.3610  -24.7560  -45.8550 H   0  0  0  0  0  0  0  0  0  0  0  0
   10.1490  -23.1070  -45.2010 H   0  0  0  0  0  0  0  0  0  0  0  0
   12.3870  -22.9750  -44.1490 H   0  0  0  0  0  0  0  0  0  0  0  0
   11.5430  -26.5580  -41.9780 H   0  0  0  0  0  0  0  0  0  0  0  0
    9.3700  -26.7400  -42.9800 H   0  0  0  0  0  0  0  0  0  0  0  0
   13.5730  -25.4240  -41.5830 H   0  0  0  0  0  0  0  0  0  0  0  0
   13.6140  -23.6560  -41.9300 H   0  0  0  0  0  0  0  0  0  0  0  0
   14.5280  -23.9730  -44.1240 H   0  0  0  0  0  0  0  0  0  0  0  0
   14.3090  -25.8030  -43.9820 H   0  0  0  0  0  0  0  0  0  0  0  0
   15.5190  -24.9420  -42.9980 H   0  0  0  0  0  0  0  0  0  0  0  0
    2.9930  -26.6220  -43.9210 H   0  0  0  0  0  0  0  0  0  0  0  0
    2.4320  -25.3290  -45.0660 H   0  0  0  0  0  0  0  0  0  0  0  0
    0.6090  -24.8780  -43.8420 H   0  0  0  0  0  0  0  0  0  0  0  0
    1.0430  -26.2380  -42.7210 H   0  0  0  0  0  0  0  0  0  0  0  0
    1.7680  -24.7290  -41.1310 H   0  0  0  0  0  0  0  0  0  0  0  0
    1.2130  -23.3860  -42.2840 H   0  0  0  0  0  0  0  0  0  0  0  0
  2  1  1  0  0  0  0
  3  2  1  0  0  0  0
  3 28  1  0  0  0  0
  4  3  2  0  0  0  0
  5  6  2  0  0  0  0
  5  4  1  0  0  0  0
  6  7  1  0  0  0  0
  7 31  1  0  0  0  0
  7  2  2  0  0  0  0
  8  5  1  0  0  0  0
  9 27  1  0  0  0  0
  9  8  1  0  0  0  0
 10 25  1  1  0  0  0
 10  9  1  0  0  0  0
 11 10  1  0  0  0  0
 11 12  1  0  0  0  0
 12 32  1  0  0  0  0
 12  8  2  0  0  0  0
 13 14  1  0  0  0  0
 13 11  1  0  0  0  0
 14 15  2  0  0  0  0
 16 17  1  0  0  0  0
 16 14  1  0  0  0  0
 17 22  1  0  0  0  0
 18 17  2  0  0  0  0
 18 19  1  0  0  0  0
 19 20  2  0  0  0  0
 20 21  1  0  0  0  0
 20 23  1  0  0  0  0
 21 38  1  0  0  0  0
 22 39  1  0  0  0  0
 22 21  2  0  0  0  0
 23 41  1  0  0  0  0
 23 40  1  0  0  0  0
 24 44  1  0  0  0  0
 24 23  1  0  0  0  0
 25 45  1  0  0  0  0
 25 26  1  0  0  0  0
 26 48  1  0  0  0  0
 26 27  1  0  0  0  0
 27 49  1  0  0  0  0
 29  4  1  0  0  0  0
 30  6  1  0  0  0  0
 33 13  1  0  0  0  0
 34 13  1  0  0  0  0
 35 16  1  0  0  0  0
 36 18  1  0  0  0  0
 37 19  1  0  0  0  0
 42 24  1  0  0  0  0
 43 24  1  0  0  0  0
 46 25  1  0  0  0  0
 47 26  1  0  0  0  0
 50 27  1  0  0  0  0
M  END
>  <Pose>
1

>  <Score>
-4.46

$$$$
