
 OpenBabel03232221553D

 56 59  0  0  1  0  0  0  0  0999 V2000
   -0.4250  -14.0840  -40.2260 B   0  0  0  0  0  0  0  0  0  0  0  0
    1.0520  -12.9980  -39.7230 C   0  0  0  0  0  0  0  0  0  0  0  0
    2.2980  -13.5800  -39.6330 C   0  0  0  0  0  0  0  0  0  0  0  0
    3.3400  -12.7550  -39.2650 C   0  0  0  0  0  0  0  0  0  0  0  0
    3.1640  -11.4140  -38.9970 C   0  0  0  0  0  0  0  0  0  0  0  0
    1.9170  -10.8320  -39.0870 C   0  0  0  0  0  0  0  0  0  0  0  0
    0.8620  -11.6410  -39.4530 C   0  0  0  0  0  0  0  0  0  0  0  0
    1.7460   -9.4740  -38.8140 O   0  0  0  0  0  0  0  0  0  0  0  0
    0.8550   -8.9900  -37.8540 C   0  0  0  0  0  0  0  0  0  0  0  0
    4.2210  -10.5880  -38.6260 O   0  0  0  0  0  0  0  0  0  0  0  0
    4.6590  -10.4030  -37.3180 C   0  0  0  0  0  0  0  0  0  0  0  0
    2.4890  -14.9980  -39.9160 C   0  0  0  0  0  0  0  0  0  0  0  0
    2.2460  -15.9410  -39.1020 N   0  0  0  0  0  0  0  0  0  0  0  0
    2.4400  -17.3030  -39.4040 N   0  0  0  0  0  0  0  0  0  0  0  0
    1.3650  -18.1950  -39.1360 C   0  0  0  0  0  0  0  0  0  0  0  0
    1.4720  -19.5180  -38.8490 N   0  0  0  0  0  0  0  0  0  0  0  0
    0.2260  -20.0230  -38.6560 C   0  0  0  0  0  0  0  0  0  0  0  0
   -0.2530  -21.2360  -38.3570 N   0  0  0  0  0  0  0  0  0  0  0  0
   -1.5700  -21.4730  -38.2200 C   0  0  0  0  0  0  0  0  0  0  0  0
   -2.4380  -20.4520  -38.3910 N   0  0  0  0  0  0  0  0  0  0  0  0
   -2.0350  -19.2220  -38.6900 C   0  0  0  0  0  0  0  0  0  0  0  0
   -0.6820  -18.9860  -38.8290 C   0  0  0  0  0  0  0  0  0  0  0  0
    0.0440  -17.9180  -39.1130 N   0  0  0  0  0  0  0  0  0  0  0  0
   -2.9090  -18.1450  -38.8730 O   0  0  0  0  0  0  0  0  0  0  0  0
   -2.0660  -22.7810  -37.8990 N   0  0  0  0  0  0  0  0  0  0  0  0
    2.6960  -20.2530  -38.7640 C   0  0  2  0  0  0  0  0  0  0  0  0
    3.6010  -19.7380  -37.8470 O   0  0  0  0  0  0  0  0  0  0  0  0
    4.8540  -20.1630  -38.1860 C   0  0  1  0  0  0  0  0  0  0  0  0
    4.8350  -20.7540  -39.5540 C   0  0  2  0  0  0  0  0  0  0  0  0
    3.4610  -20.3190  -40.0690 C   0  0  1  0  0  0  0  0  0  0  0  0
    2.9340  -21.2790  -40.9330 O   0  0  0  0  0  0  0  0  0  0  0  0
    4.7730  -22.1610  -39.4790 O   0  0  0  0  0  0  0  0  0  0  0  0
    5.7810  -18.9470  -38.2170 C   0  0  0  0  0  0  0  0  0  0  0  0
    7.1100  -19.3560  -38.0680 O   0  0  0  0  0  0  0  0  0  0  0  0
    4.3310  -13.2130  -39.1930 H   0  0  0  0  0  0  0  0  0  0  0  0
   -0.1280  -11.2090  -39.5310 H   0  0  0  0  0  0  0  0  0  0  0  0
    1.1210   -7.9750  -37.4860 H   0  0  0  0  0  0  0  0  0  0  0  0
    0.8650   -9.6390  -36.9320 H   0  0  0  0  0  0  0  0  0  0  0  0
   -0.1930   -8.9410  -38.1930 H   0  0  0  0  0  0  0  0  0  0  0  0
    5.7130  -10.0500  -37.3610 H   0  0  0  0  0  0  0  0  0  0  0  0
    4.5080  -11.2540  -36.6470 H   0  0  0  0  0  0  0  0  0  0  0  0
    4.0850   -9.5430  -36.8660 H   0  0  0  0  0  0  0  0  0  0  0  0
    2.8650  -15.2810  -40.8920 H   0  0  0  0  0  0  0  0  0  0  0  0
    3.3160  -17.6720  -39.8050 H   0  0  0  0  0  0  0  0  0  0  0  0
   -3.5560  -18.2240  -39.6490 H   0  0  0  0  0  0  0  0  0  0  0  0
   -1.8330  -23.2940  -37.0420 H   0  0  0  0  0  0  0  0  0  0  0  0
   -2.7030  -23.2180  -38.5970 H   0  0  0  0  0  0  0  0  0  0  0  0
    2.5080  -21.3070  -38.4650 H   0  0  0  0  0  0  0  0  0  0  0  0
    5.1930  -20.8870  -37.4120 H   0  0  0  0  0  0  0  0  0  0  0  0
    5.6440  -20.4080  -40.2140 H   0  0  0  0  0  0  0  0  0  0  0  0
    3.5170  -19.3440  -40.5720 H   0  0  0  0  0  0  0  0  0  0  0  0
    2.9150  -22.1640  -40.4850 H   0  0  0  0  0  0  0  0  0  0  0  0
    3.8450  -22.4800  -39.4660 H   0  0  0  0  0  0  0  0  0  0  0  0
    5.4860  -18.3080  -37.3670 H   0  0  0  0  0  0  0  0  0  0  0  0
    5.6100  -18.4320  -39.1740 H   0  0  0  0  0  0  0  0  0  0  0  0
    7.7350  -18.7180  -38.4990 H   0  0  0  0  0  0  0  0  0  0  0  0
  1  2  1  0  0  0  0
  2  3  2  0  0  0  0
  2  7  1  0  0  0  0
  3  4  1  0  0  0  0
  4 35  1  0  0  0  0
  4  5  2  0  0  0  0
  5 10  1  0  0  0  0
  6  5  1  0  0  0  0
  6  8  1  0  0  0  0
  7  6  2  0  0  0  0
  8  9  1  0  0  0  0
  9 37  1  0  0  0  0
  9 38  1  0  0  0  0
 10 11  1  0  0  0  0
 11 42  1  0  0  0  0
 11 41  1  0  0  0  0
 12  3  1  0  0  0  0
 12 13  2  0  0  0  0
 14 15  1  0  0  0  0
 14 13  1  0  0  0  0
 15 23  2  0  0  0  0
 15 16  1  0  0  0  0
 16 26  1  0  0  0  0
 16 17  1  0  0  0  0
 17 18  1  0  0  0  0
 18 19  2  0  0  0  0
 19 25  1  0  0  0  0
 20 19  1  0  0  0  0
 21 20  2  0  0  0  0
 22 21  1  0  0  0  0
 22 17  2  0  0  0  0
 23 22  1  0  0  0  0
 24 21  1  0  0  0  0
 25 46  1  0  0  0  0
 26 48  1  1  0  0  0
 26 27  1  0  0  0  0
 28 27  1  0  0  0  0
 28 49  1  1  0  0  0
 29 50  1  6  0  0  0
 29 32  1  0  0  0  0
 29 28  1  0  0  0  0
 30 51  1  6  0  0  0
 30 29  1  0  0  0  0
 30 26  1  0  0  0  0
 31 52  1  0  0  0  0
 31 30  1  0  0  0  0
 32 53  1  0  0  0  0
 33 28  1  0  0  0  0
 33 34  1  0  0  0  0
 33 54  1  0  0  0  0
 36  7  1  0  0  0  0
 39  9  1  0  0  0  0
 40 11  1  0  0  0  0
 43 12  1  0  0  0  0
 44 14  1  0  0  0  0
 45 24  1  0  0  0  0
 47 25  1  0  0  0  0
 55 33  1  0  0  0  0
 56 34  1  0  0  0  0
M  END
>  <Pose>
1

>  <Score>
-4.95

$$$$
