
 OpenBabel03232221553D

 42 45  0  0  1  0  0  0  0  0999 V2000
   13.3920  -18.2730  -42.0480 Cl  0  0  0  0  0  0  0  0  0  0  0  0
   13.4660  -19.8510  -42.7930 C   0  0  0  0  0  0  0  0  0  0  0  0
   12.4160  -20.2300  -43.6010 C   0  0  0  0  0  0  0  0  0  0  0  0
   12.5050  -21.4770  -44.1710 C   0  0  0  0  0  0  0  0  0  0  0  0
   13.5750  -22.3170  -43.9620 C   0  0  0  0  0  0  0  0  0  0  0  0
   14.6330  -21.9130  -43.1380 C   0  0  0  0  0  0  0  0  0  0  0  0
   14.5650  -20.6720  -42.5580 C   0  0  0  0  0  0  0  0  0  0  0  0
   11.2660  -19.3650  -43.8440 C   0  0  0  0  0  0  0  0  0  0  0  0
   11.2540  -18.1760  -44.4690 N   0  0  0  0  0  0  0  0  0  0  0  0
   10.0240  -17.7070  -44.4900 O   0  0  0  0  0  0  0  0  0  0  0  0
    9.2160  -18.5490  -43.8980 C   0  0  0  0  0  0  0  0  0  0  0  0
    9.9860  -19.5830  -43.4940 N   0  0  0  0  0  0  0  0  0  0  0  0
    7.7280  -18.4160  -43.6950 C   0  0  0  0  0  0  0  0  0  0  0  0
    7.3930  -18.6100  -42.2960 N   0  0  0  0  0  0  0  0  0  0  0  0
    6.3120  -19.4210  -41.9090 C   0  0  0  0  0  0  0  0  0  0  0  0
    6.0170  -20.4230  -42.5970 O   0  0  0  0  0  0  0  0  0  0  0  0
    5.5310  -19.0970  -40.7060 C   0  0  1  0  0  0  0  0  0  0  0  0
    4.0530  -18.9390  -41.0100 C   0  0  0  0  0  0  0  0  0  0  0  0
    3.2510  -18.7990  -39.7600 C   0  0  0  0  0  0  0  0  0  0  0  0
    2.7220  -20.0800  -39.2010 C   0  0  0  0  0  0  0  0  0  0  0  0
    3.6110  -21.2710  -39.5450 C   0  0  0  0  0  0  0  0  0  0  0  0
    4.9460  -20.9580  -39.0900 N   0  0  0  0  0  0  0  0  0  0  0  0
    5.5350  -21.5710  -38.0980 N   0  0  0  0  0  0  0  0  0  0  0  0
    6.7290  -21.0570  -37.9360 N   0  0  0  0  0  0  0  0  0  0  0  0
    6.8810  -20.1110  -38.8420 N   0  0  0  0  0  0  0  0  0  0  0  0
    5.7660  -20.0240  -39.5900 C   0  0  0  0  0  0  0  0  0  0  0  0
   11.7100  -21.8180  -44.8090 H   0  0  0  0  0  0  0  0  0  0  0  0
   13.6550  -23.2970  -44.4060 H   0  0  0  0  0  0  0  0  0  0  0  0
   15.4870  -22.5570  -42.9590 H   0  0  0  0  0  0  0  0  0  0  0  0
   15.3850  -20.3600  -41.9200 H   0  0  0  0  0  0  0  0  0  0  0  0
    7.2030  -19.1470  -44.3280 H   0  0  0  0  0  0  0  0  0  0  0  0
    7.4440  -17.4030  -44.0420 H   0  0  0  0  0  0  0  0  0  0  0  0
    7.9610  -18.1410  -41.5630 H   0  0  0  0  0  0  0  0  0  0  0  0
    5.8590  -18.0880  -40.3460 H   0  0  0  0  0  0  0  0  0  0  0  0
    3.9430  -17.9740  -41.5900 H   0  0  0  0  0  0  0  0  0  0  0  0
    3.7170  -19.7230  -41.6990 H   0  0  0  0  0  0  0  0  0  0  0  0
    2.4070  -18.0800  -39.9590 H   0  0  0  0  0  0  0  0  0  0  0  0
    3.8810  -18.2890  -38.9960 H   0  0  0  0  0  0  0  0  0  0  0  0
    2.6350  -19.9590  -38.1020 H   0  0  0  0  0  0  0  0  0  0  0  0
    1.7120  -20.3360  -39.5970 H   0  0  0  0  0  0  0  0  0  0  0  0
    3.2260  -22.1460  -38.9870 H   0  0  0  0  0  0  0  0  0  0  0  0
    3.6400  -21.4460  -40.6200 H   0  0  0  0  0  0  0  0  0  0  0  0
  2  7  1  0  0  0  0
  2  1  1  0  0  0  0
  3  2  2  0  0  0  0
  4  5  2  0  0  0  0
  4  3  1  0  0  0  0
  5  6  1  0  0  0  0
  6 29  1  0  0  0  0
  6  7  2  0  0  0  0
  7 30  1  0  0  0  0
  8  3  1  0  0  0  0
  8 12  1  0  0  0  0
  9  8  2  0  0  0  0
 10  9  1  0  0  0  0
 10 11  1  0  0  0  0
 11 13  1  0  0  0  0
 11 12  2  0  0  0  0
 13 14  1  0  0  0  0
 14 15  1  0  0  0  0
 14 33  1  0  0  0  0
 15 17  1  0  0  0  0
 16 15  2  0  0  0  0
 17 34  1  1  0  0  0
 17 26  1  0  0  0  0
 18 17  1  0  0  0  0
 18 19  1  0  0  0  0
 19 20  1  0  0  0  0
 19 38  1  0  0  0  0
 20 39  1  0  0  0  0
 21 20  1  0  0  0  0
 21 22  1  0  0  0  0
 21 41  1  0  0  0  0
 22 23  1  0  0  0  0
 23 24  2  0  0  0  0
 25 24  1  0  0  0  0
 26 22  1  0  0  0  0
 26 25  2  0  0  0  0
 27  4  1  0  0  0  0
 28  5  1  0  0  0  0
 31 13  1  0  0  0  0
 32 13  1  0  0  0  0
 35 18  1  0  0  0  0
 36 18  1  0  0  0  0
 37 19  1  0  0  0  0
 40 20  1  0  0  0  0
 42 21  1  0  0  0  0
M  END
>  <Pose>
1

>  <Score>
-5.01

$$$$
