
 OpenBabel03232221553D

 57 60  0  0  1  0  0  0  0  0999 V2000
    5.4010  -25.7770  -44.9840 B   0  0  0  0  0  0  0  0  0  0  0  0
    5.4740  -24.4020  -43.6670 C   0  0  0  0  0  0  0  0  0  0  0  0
    6.6160  -23.6320  -43.5070 C   0  0  0  0  0  0  0  0  0  0  0  0
    6.6900  -22.6370  -42.5640 C   0  0  0  0  0  0  0  0  0  0  0  0
    5.6070  -22.3920  -41.7530 C   0  0  0  0  0  0  0  0  0  0  0  0
    4.4480  -23.1590  -41.9000 C   0  0  0  0  0  0  0  0  0  0  0  0
    4.3880  -24.1510  -42.8470 C   0  0  0  0  0  0  0  0  0  0  0  0
    5.5890  -21.3430  -40.7580 C   0  0  1  0  0  0  0  0  0  0  0  0
    5.1340  -21.6940  -39.5880 O   0  0  0  0  0  0  0  0  0  0  0  0
    5.9940  -19.9580  -40.8320 C   0  0  1  0  0  0  0  0  0  0  0  0
    5.8940  -19.4340  -42.1690 N   0  0  0  0  0  0  0  0  0  0  0  0
    4.4480  -19.6060  -42.4420 C   0  0  2  0  0  0  0  0  0  0  0  0
    4.1890  -18.9670  -43.6730 N   0  0  0  0  0  0  0  0  0  0  0  0
    5.4420  -18.5350  -44.2120 C   0  0  0  0  0  0  0  0  0  0  0  0
    6.4500  -18.8280  -43.2910 C   0  0  0  0  0  0  0  0  0  0  0  0
    7.7520  -18.4990  -43.6050 C   0  0  0  0  0  0  0  0  0  0  0  0
    8.6420  -18.7730  -42.7600 O   0  0  0  0  0  0  0  0  0  0  0  0
    8.0210  -17.9100  -44.7760 N   0  0  0  0  0  0  0  0  0  0  0  0
    7.0470  -17.6440  -45.6300 C   0  0  0  0  0  0  0  0  0  0  0  0
    7.3430  -17.0890  -46.7230 O   0  0  0  0  0  0  0  0  0  0  0  0
    5.7370  -17.9470  -45.3750 N   0  0  0  0  0  0  0  0  0  0  0  0
    4.7680  -17.6060  -46.3930 C   0  0  0  0  0  0  0  0  0  0  0  0
    9.4190  -17.5770  -45.0700 C   0  0  0  0  0  0  0  0  0  0  0  0
    2.9230  -18.7840  -44.3350 C   0  0  0  0  0  0  0  0  0  0  0  0
    3.7850  -19.1790  -41.2010 C   0  0  1  0  0  0  0  0  0  0  0  0
    4.9200  -19.0800  -40.1710 C   0  0  1  0  0  0  0  0  0  0  0  0
    4.5080  -19.5660  -38.8580 C   0  0  0  0  0  0  0  0  0  0  0  0
    3.3610  -20.1060  -38.7100 O   0  0  0  0  0  0  0  0  0  0  0  0
    5.3170  -19.4650  -37.7590 O   0  0  0  0  0  0  0  0  0  0  0  0
    6.7360  -19.6240  -37.8180 C   0  0  0  0  0  0  0  0  0  0  0  0
    2.9780  -17.9660  -41.2120 C   0  0  0  0  0  0  0  0  0  0  0  0
    1.8000  -17.9930  -40.7680 O   0  0  0  0  0  0  0  0  0  0  0  0
    3.4650  -16.7720  -41.6960 O   0  0  0  0  0  0  0  0  0  0  0  0
    2.6790  -15.6000  -41.6910 C   0  0  0  0  0  0  0  0  0  0  0  0
    7.4790  -23.8040  -44.1320 H   0  0  0  0  0  0  0  0  0  0  0  0
    7.5870  -22.0850  -42.4630 H   0  0  0  0  0  0  0  0  0  0  0  0
    3.5590  -22.9900  -41.2650 H   0  0  0  0  0  0  0  0  0  0  0  0
    3.4670  -24.7440  -42.9460 H   0  0  0  0  0  0  0  0  0  0  0  0
    6.9900  -19.7480  -40.3740 H   0  0  0  0  0  0  0  0  0  0  0  0
    4.2360  -20.6970  -42.5970 H   0  0  0  0  0  0  0  0  0  0  0  0
    3.8950  -17.0390  -46.0180 H   0  0  0  0  0  0  0  0  0  0  0  0
    5.2470  -16.8700  -47.1210 H   0  0  0  0  0  0  0  0  0  0  0  0
    4.5100  -18.4610  -47.0560 H   0  0  0  0  0  0  0  0  0  0  0  0
    9.8300  -16.8910  -44.2990 H   0  0  0  0  0  0  0  0  0  0  0  0
    9.5020  -17.1620  -46.0940 H   0  0  0  0  0  0  0  0  0  0  0  0
   10.0150  -18.5150  -45.0240 H   0  0  0  0  0  0  0  0  0  0  0  0
    2.1550  -19.4920  -43.8950 H   0  0  0  0  0  0  0  0  0  0  0  0
    2.4920  -17.7910  -44.2940 H   0  0  0  0  0  0  0  0  0  0  0  0
    2.9720  -19.1550  -45.4080 H   0  0  0  0  0  0  0  0  0  0  0  0
    3.1560  -20.0370  -40.7870 H   0  0  0  0  0  0  0  0  0  0  0  0
    5.2990  -18.0260  -40.1640 H   0  0  0  0  0  0  0  0  0  0  0  0
    7.2110  -18.6770  -38.1790 H   0  0  0  0  0  0  0  0  0  0  0  0
    7.0750  -19.8840  -36.7960 H   0  0  0  0  0  0  0  0  0  0  0  0
    6.9050  -20.4650  -38.5380 H   0  0  0  0  0  0  0  0  0  0  0  0
    3.3470  -14.7500  -41.9810 H   0  0  0  0  0  0  0  0  0  0  0  0
    1.9450  -15.7040  -42.5290 H   0  0  0  0  0  0  0  0  0  0  0  0
    2.1790  -15.4260  -40.7170 H   0  0  0  0  0  0  0  0  0  0  0  0
  1  2  1  0  0  0  0
  2  3  2  0  0  0  0
  2  7  1  0  0  0  0
  3  4  1  0  0  0  0
  4 36  1  0  0  0  0
  4  5  2  0  0  0  0
  5  8  1  0  0  0  0
  6  5  1  0  0  0  0
  6 37  1  0  0  0  0
  7  6  2  0  0  0  0
  8  9  1  1  0  0  0
 10  8  1  0  0  0  0
 10 39  1  1  0  0  0
 10 26  1  0  0  0  0
 11 10  1  0  0  0  0
 12 40  1  6  0  0  0
 12 11  1  0  0  0  0
 12 25  1  0  0  0  0
 13 12  1  0  0  0  0
 14 13  1  0  0  0  0
 14 15  2  0  0  0  0
 15 11  1  0  0  0  0
 16 15  1  0  0  0  0
 16 17  2  0  0  0  0
 18 16  1  0  0  0  0
 19 21  1  0  0  0  0
 19 18  1  0  0  0  0
 20 19  2  0  0  0  0
 21 14  1  0  0  0  0
 22 41  1  0  0  0  0
 22 21  1  0  0  0  0
 23 46  1  0  0  0  0
 23 18  1  0  0  0  0
 23 44  1  0  0  0  0
 24 48  1  0  0  0  0
 24 47  1  0  0  0  0
 24 13  1  0  0  0  0
 25 50  1  1  0  0  0
 25 26  1  0  0  0  0
 26 51  1  1  0  0  0
 26 27  1  0  0  0  0
 27 28  2  0  0  0  0
 27 29  1  0  0  0  0
 30 29  1  0  0  0  0
 30 53  1  0  0  0  0
 31 25  1  0  0  0  0
 31 32  2  0  0  0  0
 33 34  1  0  0  0  0
 33 31  1  0  0  0  0
 34 57  1  0  0  0  0
 35  3  1  0  0  0  0
 38  7  1  0  0  0  0
 42 22  1  0  0  0  0
 43 22  1  0  0  0  0
 45 23  1  0  0  0  0
 49 24  1  0  0  0  0
 52 30  1  0  0  0  0
 54 30  1  0  0  0  0
 55 34  1  0  0  0  0
 56 34  1  0  0  0  0
M  END
>  <Pose>
1

>  <Score>
-3.59

$$$$
