
 OpenBabel03232221553D

 45 48  0  0  0  0  0  0  0  0999 V2000
   -4.2360  -27.6190  -35.8230 B   0  0  0  0  0  0  0  0  0  0  0  0
   -3.3300  -26.7840  -37.3010 C   0  0  0  0  0  0  0  0  0  0  0  0
   -2.2960  -27.4350  -37.9510 C   0  0  0  0  0  0  0  0  0  0  0  0
   -1.6470  -26.8600  -38.9930 N   0  0  0  0  0  0  0  0  0  0  0  0
   -1.9910  -25.6420  -39.4260 C   0  0  0  0  0  0  0  0  0  0  0  0
   -1.3450  -25.0780  -40.4590 N   0  0  0  0  0  0  0  0  0  0  0  0
   -0.3390  -25.6930  -41.1030 C   0  0  0  0  0  0  0  0  0  0  0  0
    0.0150  -26.9430  -40.6600 C   0  0  0  0  0  0  0  0  0  0  0  0
   -0.6480  -27.5480  -39.5830 C   0  0  0  0  0  0  0  0  0  0  0  0
   -0.2990  -28.6930  -39.2030 O   0  0  0  0  0  0  0  0  0  0  0  0
    0.3320  -25.0200  -42.2320 C   0  0  0  0  0  0  0  0  0  0  0  0
    1.6030  -24.6260  -41.7910 O   0  0  0  0  0  0  0  0  0  0  0  0
    2.0830  -23.3530  -42.2050 C   0  0  0  0  0  0  0  0  0  0  0  0
    1.1590  -22.5860  -42.4430 O   0  0  0  0  0  0  0  0  0  0  0  0
    3.5150  -23.1410  -42.2880 C   0  0  0  0  0  0  0  0  0  0  0  0
    4.2700  -23.8480  -43.1800 N   0  0  0  0  0  0  0  0  0  0  0  0
    5.5760  -23.6730  -43.2750 N   0  0  0  0  0  0  0  0  0  0  0  0
    6.2240  -22.7900  -42.4960 C   0  0  0  0  0  0  0  0  0  0  0  0
    7.4860  -22.6300  -42.5950 O   0  0  0  0  0  0  0  0  0  0  0  0
    5.5360  -22.0400  -41.5710 C   0  0  0  0  0  0  0  0  0  0  0  0
    4.1570  -22.2440  -41.4920 C   0  0  0  0  0  0  0  0  0  0  0  0
    3.5110  -21.4730  -40.5570 C   0  0  0  0  0  0  0  0  0  0  0  0
    4.1900  -20.5610  -39.7550 C   0  0  0  0  0  0  0  0  0  0  0  0
    5.5500  -20.3860  -39.8590 C   0  0  0  0  0  0  0  0  0  0  0  0
    6.2170  -21.1460  -40.7870 C   0  0  0  0  0  0  0  0  0  0  0  0
    6.3670  -24.4290  -44.2240 C   0  0  0  0  0  0  0  0  0  0  0  0
    6.6470  -25.8310  -43.7530 C   0  0  0  0  0  0  0  0  0  0  0  0
    7.7260  -25.8990  -42.8900 O   0  0  0  0  0  0  0  0  0  0  0  0
   -3.0120  -24.9830  -38.7950 C   0  0  0  0  0  0  0  0  0  0  0  0
   -3.6960  -25.5330  -37.7310 C   0  0  0  0  0  0  0  0  0  0  0  0
   -2.0320  -28.4280  -37.5810 H   0  0  0  0  0  0  0  0  0  0  0  0
    0.8170  -27.4870  -41.1380 H   0  0  0  0  0  0  0  0  0  0  0  0
    0.3560  -25.6410  -43.1490 H   0  0  0  0  0  0  0  0  0  0  0  0
   -0.3060  -24.1370  -42.5140 H   0  0  0  0  0  0  0  0  0  0  0  0
    2.4680  -21.5500  -40.4160 H   0  0  0  0  0  0  0  0  0  0  0  0
    3.6350  -19.9770  -39.0310 H   0  0  0  0  0  0  0  0  0  0  0  0
    6.0870  -19.6710  -39.2310 H   0  0  0  0  0  0  0  0  0  0  0  0
    7.2760  -21.0250  -40.8870 H   0  0  0  0  0  0  0  0  0  0  0  0
    7.3420  -23.9290  -44.3800 H   0  0  0  0  0  0  0  0  0  0  0  0
    5.8520  -24.4690  -45.1960 H   0  0  0  0  0  0  0  0  0  0  0  0
    6.7860  -26.5290  -44.5990 H   0  0  0  0  0  0  0  0  0  0  0  0
    5.7530  -26.1690  -43.1920 H   0  0  0  0  0  0  0  0  0  0  0  0
    7.6320  -26.7240  -42.3600 H   0  0  0  0  0  0  0  0  0  0  0  0
   -3.3080  -23.9810  -39.1370 H   0  0  0  0  0  0  0  0  0  0  0  0
   -4.5000  -25.0090  -37.2390 H   0  0  0  0  0  0  0  0  0  0  0  0
  2  1  1  0  0  0  0
  3 31  1  0  0  0  0
  3  2  1  0  0  0  0
  4  3  1  0  0  0  0
  5  4  1  0  0  0  0
  5 29  2  0  0  0  0
  6  5  1  0  0  0  0
  7  8  1  0  0  0  0
  7  6  2  0  0  0  0
  8  9  1  0  0  0  0
  9 10  2  0  0  0  0
  9  4  1  0  0  0  0
 11 12  1  0  0  0  0
 11  7  1  0  0  0  0
 13 12  1  0  0  0  0
 14 13  2  0  0  0  0
 15 13  1  0  0  0  0
 15 21  1  0  0  0  0
 16 15  2  0  0  0  0
 17 16  1  0  0  0  0
 17 18  1  0  0  0  0
 18 20  1  0  0  0  0
 19 18  2  0  0  0  0
 20 21  2  0  0  0  0
 20 25  1  0  0  0  0
 21 22  1  0  0  0  0
 22 35  1  0  0  0  0
 22 23  2  0  0  0  0
 23 36  1  0  0  0  0
 24 23  1  0  0  0  0
 24 37  1  0  0  0  0
 25 24  2  0  0  0  0
 26 27  1  0  0  0  0
 26 17  1  0  0  0  0
 27 42  1  0  0  0  0
 27 28  1  0  0  0  0
 28 43  1  0  0  0  0
 29 30  1  0  0  0  0
 30  2  2  0  0  0  0
 30 45  1  0  0  0  0
 32  8  1  0  0  0  0
 33 11  1  0  0  0  0
 34 11  1  0  0  0  0
 38 25  1  0  0  0  0
 39 26  1  0  0  0  0
 40 26  1  0  0  0  0
 41 27  1  0  0  0  0
 44 29  1  0  0  0  0
M  END
>  <Pose>
1

>  <Score>
-4.14

$$$$
