
 OpenBabel03232221553D

 55 58  0  0  1  0  0  0  0  0999 V2000
   -4.8020  -19.2200  -37.4290 Cl  0  0  0  0  0  0  0  0  0  0  0  0
   -3.1360  -18.6550  -37.2310 C   0  0  0  0  0  0  0  0  0  0  0  0
   -2.1090  -19.3890  -37.7770 C   0  0  0  0  0  0  0  0  0  0  0  0
   -0.7910  -18.9810  -37.6440 C   0  0  0  0  0  0  0  0  0  0  0  0
    0.3800  -19.4850  -38.0610 N   0  0  0  0  0  0  0  0  0  0  0  0
    1.4040  -18.6610  -37.6440 C   0  0  0  0  0  0  0  0  0  0  0  0
    0.8130  -17.6730  -36.9820 N   0  0  0  0  0  0  0  0  0  0  0  0
   -0.5440  -17.8200  -36.9490 C   0  0  0  0  0  0  0  0  0  0  0  0
   -1.5670  -17.0770  -36.3970 C   0  0  0  0  0  0  0  0  0  0  0  0
   -2.8690  -17.4920  -36.5360 C   0  0  0  0  0  0  0  0  0  0  0  0
    1.4430  -16.5130  -36.3770 C   0  0  0  0  0  0  0  0  0  0  0  0
    2.8360  -18.8740  -37.9740 C   0  0  0  0  0  0  0  0  0  0  0  0
    3.1430  -19.4430  -39.2930 C   0  0  0  0  0  0  0  0  0  0  0  0
    3.6260  -20.8270  -39.3520 C   0  0  0  0  0  0  0  0  0  0  0  0
    4.2700  -21.3560  -38.4170 O   0  0  0  0  0  0  0  0  0  0  0  0
    3.3490  -21.6080  -40.5340 N   0  0  0  0  0  0  0  0  0  0  0  0
    4.2570  -22.6610  -40.9010 C   0  0  0  0  0  0  0  0  0  0  0  0
    4.9340  -22.2400  -42.1890 C   0  0  2  0  0  0  0  0  0  0  0  0
    4.0730  -21.4130  -43.0730 C   0  0  1  0  0  0  0  0  0  0  0  0
    2.6130  -21.5080  -42.8190 C   0  0  0  0  0  0  0  0  0  0  0  0
    2.2100  -21.4020  -41.3850 C   0  0  0  0  0  0  0  0  0  0  0  0
    4.4260  -20.0540  -43.0610 O   0  0  0  0  0  0  0  0  0  0  0  0
    4.3180  -21.8800  -44.5140 C   0  0  0  0  0  0  0  0  0  0  0  0
    5.4470  -23.4290  -42.8260 N   0  0  0  0  0  0  0  0  0  0  0  0
    4.6640  -24.5170  -42.9640 C   0  0  0  0  0  0  0  0  0  0  0  0
    5.1120  -25.6710  -43.5650 C   0  0  0  0  0  0  0  0  0  0  0  0
    6.4040  -25.7050  -44.0380 C   0  0  0  0  0  0  0  0  0  0  0  0
    6.8780  -26.7450  -44.6040 O   0  0  0  0  0  0  0  0  0  0  0  0
    7.1610  -24.6070  -43.8860 N   0  0  0  0  0  0  0  0  0  0  0  0
    6.7030  -23.5000  -43.3000 C   0  0  0  0  0  0  0  0  0  0  0  0
    7.4580  -22.4920  -43.1830 O   0  0  0  0  0  0  0  0  0  0  0  0
   -2.2690  -20.3090  -38.3300 H   0  0  0  0  0  0  0  0  0  0  0  0
   -1.3230  -16.1810  -35.8660 H   0  0  0  0  0  0  0  0  0  0  0  0
   -3.6980  -16.9330  -36.1160 H   0  0  0  0  0  0  0  0  0  0  0  0
    2.5040  -16.4200  -36.6290 H   0  0  0  0  0  0  0  0  0  0  0  0
    0.9160  -15.5690  -36.6230 H   0  0  0  0  0  0  0  0  0  0  0  0
    1.3260  -16.6360  -35.2680 H   0  0  0  0  0  0  0  0  0  0  0  0
    3.2930  -19.4590  -37.1330 H   0  0  0  0  0  0  0  0  0  0  0  0
    3.3040  -17.8480  -37.8510 H   0  0  0  0  0  0  0  0  0  0  0  0
    2.3260  -19.2610  -40.0470 H   0  0  0  0  0  0  0  0  0  0  0  0
    4.0030  -18.8200  -39.7160 H   0  0  0  0  0  0  0  0  0  0  0  0
    3.7500  -23.6440  -41.0080 H   0  0  0  0  0  0  0  0  0  0  0  0
    5.0160  -22.8040  -40.1040 H   0  0  0  0  0  0  0  0  0  0  0  0
    5.8170  -21.6160  -41.8880 H   0  0  0  0  0  0  0  0  0  0  0  0
    2.1230  -20.6450  -43.3570 H   0  0  0  0  0  0  0  0  0  0  0  0
    2.1880  -22.4150  -43.3300 H   0  0  0  0  0  0  0  0  0  0  0  0
    1.4990  -22.2570  -41.1850 H   0  0  0  0  0  0  0  0  0  0  0  0
    1.6450  -20.4830  -41.1460 H   0  0  0  0  0  0  0  0  0  0  0  0
    4.7180  -19.8210  -42.1250 H   0  0  0  0  0  0  0  0  0  0  0  0
    3.9780  -21.0380  -45.1650 H   0  0  0  0  0  0  0  0  0  0  0  0
    5.4130  -21.9740  -44.7020 H   0  0  0  0  0  0  0  0  0  0  0  0
    3.7430  -22.7740  -44.7630 H   0  0  0  0  0  0  0  0  0  0  0  0
    3.6350  -24.4910  -42.5880 H   0  0  0  0  0  0  0  0  0  0  0  0
    4.4830  -26.5420  -43.6740 H   0  0  0  0  0  0  0  0  0  0  0  0
    8.1650  -24.5900  -44.2370 H   0  0  0  0  0  0  0  0  0  0  0  0
  1  2  1  0  0  0  0
  2 10  1  0  0  0  0
  3  4  1  0  0  0  0
  3  2  2  0  0  0  0
  4  8  2  0  0  0  0
  5  6  2  0  0  0  0
  5  4  1  0  0  0  0
  6  7  1  0  0  0  0
  7  8  1  0  0  0  0
  7 11  1  0  0  0  0
  8  9  1  0  0  0  0
  9 33  1  0  0  0  0
 10  9  2  0  0  0  0
 10 34  1  0  0  0  0
 11 37  1  0  0  0  0
 12 39  1  0  0  0  0
 12  6  1  0  0  0  0
 12 38  1  0  0  0  0
 13 12  1  0  0  0  0
 14 13  1  0  0  0  0
 14 15  2  0  0  0  0
 16 14  1  0  0  0  0
 17 16  1  0  0  0  0
 17 43  1  0  0  0  0
 18 44  1  1  0  0  0
 18 17  1  0  0  0  0
 19 22  1  1  0  0  0
 19 20  1  0  0  0  0
 19 18  1  0  0  0  0
 20 21  1  0  0  0  0
 21 47  1  0  0  0  0
 21 48  1  0  0  0  0
 21 16  1  0  0  0  0
 22 49  1  0  0  0  0
 23 19  1  0  0  0  0
 24 18  1  0  0  0  0
 25 24  1  0  0  0  0
 25 53  1  0  0  0  0
 26 25  2  0  0  0  0
 27 29  1  0  0  0  0
 27 26  1  0  0  0  0
 28 27  2  0  0  0  0
 29 30  1  0  0  0  0
 30 31  2  0  0  0  0
 30 24  1  0  0  0  0
 32  3  1  0  0  0  0
 35 11  1  0  0  0  0
 36 11  1  0  0  0  0
 40 13  1  0  0  0  0
 41 13  1  0  0  0  0
 42 17  1  0  0  0  0
 45 20  1  0  0  0  0
 46 20  1  0  0  0  0
 50 23  1  0  0  0  0
 51 23  1  0  0  0  0
 52 23  1  0  0  0  0
 54 26  1  0  0  0  0
 55 29  1  0  0  0  0
M  END
>  <Pose>
1

>  <Score>
-4.38

$$$$
