
 OpenBabel03232221553D

 51 54  0  0  1  0  0  0  0  0999 V2000
    1.3480  -13.2900  -38.7990 B   0  0  0  0  0  0  0  0  0  0  0  0
    1.5160  -15.1780  -38.5800 C   0  0  0  0  0  0  0  0  0  0  0  0
    1.7710  -16.0050  -39.6580 C   0  0  0  0  0  0  0  0  0  0  0  0
    1.9010  -17.3730  -39.5500 C   0  0  0  0  0  0  0  0  0  0  0  0
    1.7590  -17.8990  -38.2630 C   0  0  0  0  0  0  0  0  0  0  0  0
    1.5050  -17.0770  -37.1920 C   0  0  0  0  0  0  0  0  0  0  0  0
    1.3780  -15.7090  -37.3150 C   0  0  0  0  0  0  0  0  0  0  0  0
    1.1030  -14.8650  -36.1180 C   0  0  0  0  0  0  0  0  0  0  0  0
    1.8980  -19.2780  -38.1940 O   0  0  0  0  0  0  0  0  0  0  0  0
    1.9470  -20.1350  -39.3190 C   0  0  0  0  0  0  0  0  0  0  0  0
    2.8620  -19.5210  -40.4310 C   0  0  2  0  0  0  0  0  0  0  0  0
    2.1510  -18.2450  -40.6900 C   0  0  0  0  0  0  0  0  0  0  0  0
    1.7340  -17.8250  -41.7830 O   0  0  0  0  0  0  0  0  0  0  0  0
    3.0600  -20.3470  -41.4940 N   0  0  0  0  0  0  0  0  0  0  0  0
    2.0290  -20.9200  -42.2490 C   0  0  0  0  0  0  0  0  0  0  0  0
    1.8200  -22.3600  -41.8350 C   0  0  0  0  0  0  0  0  0  0  0  0
    2.9990  -23.0400  -42.2230 O   0  0  0  0  0  0  0  0  0  0  0  0
    3.9680  -22.6000  -41.3040 C   0  0  0  0  0  0  0  0  0  0  0  0
    4.2240  -21.1140  -41.5670 C   0  0  0  0  0  0  0  0  0  0  0  0
    4.1320  -19.2540  -39.7070 C   0  0  0  0  0  0  0  0  0  0  0  0
    4.3880  -19.9660  -38.4940 N   0  0  0  0  0  0  0  0  0  0  0  0
    4.6410  -21.3550  -38.5660 C   0  0  0  0  0  0  0  0  0  0  0  0
    6.0660  -21.6180  -39.0740 C   0  0  0  0  0  0  0  0  0  0  0  0
    6.9150  -21.1300  -38.0760 O   0  0  0  0  0  0  0  0  0  0  0  0
    6.8050  -19.7350  -38.0980 C   0  0  0  0  0  0  0  0  0  0  0  0
    5.4290  -19.2600  -37.7450 C   0  0  0  0  0  0  0  0  0  0  0  0
    1.8840  -15.5880  -40.6730 H   0  0  0  0  0  0  0  0  0  0  0  0
    1.4000  -17.5190  -36.2090 H   0  0  0  0  0  0  0  0  0  0  0  0
    0.4720  -13.9900  -36.3680 H   0  0  0  0  0  0  0  0  0  0  0  0
    0.6250  -15.5330  -35.3650 H   0  0  0  0  0  0  0  0  0  0  0  0
    2.0580  -14.5260  -35.6680 H   0  0  0  0  0  0  0  0  0  0  0  0
    2.3560  -21.0960  -38.9710 H   0  0  0  0  0  0  0  0  0  0  0  0
    0.9260  -20.2920  -39.7350 H   0  0  0  0  0  0  0  0  0  0  0  0
    1.0700  -20.4120  -42.2810 H   0  0  0  0  0  0  0  0  0  0  0  0
    2.3770  -20.9730  -43.3190 H   0  0  0  0  0  0  0  0  0  0  0  0
    1.6330  -22.4620  -40.7700 H   0  0  0  0  0  0  0  0  0  0  0  0
    1.0180  -22.7760  -42.4760 H   0  0  0  0  0  0  0  0  0  0  0  0
    4.9130  -23.1190  -41.5360 H   0  0  0  0  0  0  0  0  0  0  0  0
    3.5760  -22.8110  -40.3120 H   0  0  0  0  0  0  0  0  0  0  0  0
    4.5470  -21.1140  -42.6650 H   0  0  0  0  0  0  0  0  0  0  0  0
    5.1180  -20.8150  -41.0360 H   0  0  0  0  0  0  0  0  0  0  0  0
    4.2590  -18.1620  -39.4510 H   0  0  0  0  0  0  0  0  0  0  0  0
    5.0400  -19.4660  -40.3540 H   0  0  0  0  0  0  0  0  0  0  0  0
    3.9860  -21.9110  -39.2080 H   0  0  0  0  0  0  0  0  0  0  0  0
    4.6480  -21.7610  -37.5220 H   0  0  0  0  0  0  0  0  0  0  0  0
    6.1430  -22.7340  -39.1510 H   0  0  0  0  0  0  0  0  0  0  0  0
    6.2520  -21.1540  -40.0540 H   0  0  0  0  0  0  0  0  0  0  0  0
    7.4970  -19.3770  -37.2860 H   0  0  0  0  0  0  0  0  0  0  0  0
    7.1860  -19.3110  -39.0460 H   0  0  0  0  0  0  0  0  0  0  0  0
    5.2560  -19.3210  -36.6610 H   0  0  0  0  0  0  0  0  0  0  0  0
    5.3420  -18.1910  -38.0290 H   0  0  0  0  0  0  0  0  0  0  0  0
  1  2  1  0  0  0  0
  2  7  1  0  0  0  0
  3  4  1  0  0  0  0
  3  2  2  0  0  0  0
  4  5  2  0  0  0  0
  5  9  1  0  0  0  0
  5  6  1  0  0  0  0
  6 28  1  0  0  0  0
  7  6  2  0  0  0  0
  7  8  1  0  0  0  0
  8 31  1  0  0  0  0
  8 30  1  0  0  0  0
 10 32  1  0  0  0  0
 10  9  1  0  0  0  0
 11 20  1  1  0  0  0
 11 10  1  0  0  0  0
 12 11  1  0  0  0  0
 12  4  1  0  0  0  0
 13 12  2  0  0  0  0
 14 11  1  0  0  0  0
 15 16  1  0  0  0  0
 15 14  1  0  0  0  0
 16 36  1  0  0  0  0
 17 16  1  0  0  0  0
 17 18  1  0  0  0  0
 18 39  1  0  0  0  0
 19 14  1  0  0  0  0
 19 18  1  0  0  0  0
 19 41  1  0  0  0  0
 20 42  1  0  0  0  0
 20 21  1  0  0  0  0
 21 26  1  0  0  0  0
 22 21  1  0  0  0  0
 22 45  1  0  0  0  0
 23 22  1  0  0  0  0
 23 24  1  0  0  0  0
 25 24  1  0  0  0  0
 25 26  1  0  0  0  0
 25 48  1  0  0  0  0
 26 50  1  0  0  0  0
 27  3  1  0  0  0  0
 29  8  1  0  0  0  0
 33 10  1  0  0  0  0
 34 15  1  0  0  0  0
 35 15  1  0  0  0  0
 37 16  1  0  0  0  0
 38 18  1  0  0  0  0
 40 19  1  0  0  0  0
 43 20  1  0  0  0  0
 44 22  1  0  0  0  0
 46 23  1  0  0  0  0
 47 23  1  0  0  0  0
 49 25  1  0  0  0  0
 51 26  1  0  0  0  0
M  END
>  <Pose>
1

>  <Score>
-3.26

$$$$
