
 OpenBabel03232221553D

 66 69  0  0  1  0  0  0  0  0999 V2000
    7.9850  -25.6390  -43.5550 B   0  0  0  0  0  0  0  0  0  0  0  0
    6.3380  -24.7020  -43.8400 C   0  0  0  0  0  0  0  0  0  0  0  0
    6.2930  -23.3360  -43.6890 C   0  0  0  0  0  0  0  0  0  0  0  0
    5.1070  -22.6110  -43.8880 C   0  0  0  0  0  0  0  0  0  0  0  0
    3.9930  -23.3410  -44.2430 C   0  0  0  0  0  0  0  0  0  0  0  0
    4.0110  -24.7100  -44.4010 C   0  0  0  0  0  0  0  0  0  0  0  0
    5.1860  -25.3980  -44.2010 C   0  0  0  0  0  0  0  0  0  0  0  0
    5.3070  -26.8720  -44.3470 C   0  0  0  0  0  0  0  0  0  0  0  0
    2.4530  -25.6940  -44.8950 B   0  0  0  0  0  0  0  0  0  0  0  0
    5.1040  -21.1730  -43.7140 C   0  0  0  0  0  0  0  0  0  0  0  0
    4.0940  -20.5160  -43.9880 O   0  0  0  0  0  0  0  0  0  0  0  0
    6.3140  -20.5020  -43.2090 C   0  0  1  0  0  0  0  0  0  0  0  0
    7.5050  -21.2770  -43.7290 C   0  0  0  0  0  0  0  0  0  0  0  0
    7.4390  -22.6340  -43.3290 O   0  0  0  0  0  0  0  0  0  0  0  0
    6.3970  -19.0510  -43.5770 C   0  0  0  0  0  0  0  0  0  0  0  0
    7.4540  -18.3210  -42.9910 N   0  0  0  0  0  4  0  0  0  0  0  0
    8.6200  -18.3970  -43.8200 C   0  0  0  0  0  0  0  0  0  0  0  0
    8.5430  -17.6360  -45.0950 C   0  0  2  0  0  0  0  0  0  0  0  0
    7.3860  -16.7280  -45.2600 C   0  0  0  0  0  0  0  0  0  0  0  0
    6.7230  -16.2630  -44.0230 C   0  0  0  0  0  0  0  0  0  0  0  0
    7.1980  -16.9260  -42.7630 C   0  0  0  0  0  0  0  0  0  0  0  0
    8.5020  -18.6540  -46.2410 C   0  0  0  0  0  0  0  0  0  0  0  0
    6.2770  -20.6530  -41.7030 C   0  0  0  0  0  0  0  0  0  0  0  0
    5.2280  -19.9500  -41.0460 N   0  0  0  0  0  4  0  0  0  0  0  0
    5.7700  -19.1170  -39.9740 C   0  0  0  0  0  0  0  0  0  0  0  0
    5.5970  -19.7370  -38.6180 C   0  0  1  0  0  0  0  0  0  0  0  0
    5.8970  -21.2170  -38.6960 C   0  0  0  0  0  0  0  0  0  0  0  0
    4.8340  -21.8550  -39.5350 C   0  0  0  0  0  0  0  0  0  0  0  0
    4.2330  -20.8030  -40.4350 C   0  0  0  0  0  0  0  0  0  0  0  0
    6.6700  -19.1280  -37.7070 C   0  0  0  0  0  0  0  0  0  0  0  0
    3.0480  -22.8300  -44.4110 H   0  0  0  0  0  0  0  0  0  0  0  0
    6.0190  -27.0730  -45.1780 H   0  0  0  0  0  0  0  0  0  0  0  0
    4.3440  -27.3720  -44.4640 H   0  0  0  0  0  0  0  0  0  0  0  0
    5.8380  -27.2280  -43.4190 H   0  0  0  0  0  0  0  0  0  0  0  0
    7.5390  -21.2710  -44.8280 H   0  0  0  0  0  0  0  0  0  0  0  0
    8.4720  -20.8060  -43.3970 H   0  0  0  0  0  0  0  0  0  0  0  0
    6.5230  -19.0180  -44.6800 H   0  0  0  0  0  0  0  0  0  0  0  0
    5.4060  -18.5930  -43.3780 H   0  0  0  0  0  0  0  0  0  0  0  0
    7.7070  -18.7400  -42.0610 H   0  0  0  0  0  0  0  0  0  0  0  0
    9.4820  -18.0310  -43.1860 H   0  0  0  0  0  0  0  0  0  0  0  0
    8.8440  -19.4700  -43.9920 H   0  0  0  0  0  0  0  0  0  0  0  0
    9.5050  -17.0900  -45.2330 H   0  0  0  0  0  0  0  0  0  0  0  0
    7.7400  -15.8200  -45.8290 H   0  0  0  0  0  0  0  0  0  0  0  0
    6.6050  -17.1720  -45.9480 H   0  0  0  0  0  0  0  0  0  0  0  0
    5.6000  -16.3610  -44.0900 H   0  0  0  0  0  0  0  0  0  0  0  0
    6.8700  -15.1530  -43.8620 H   0  0  0  0  0  0  0  0  0  0  0  0
    6.5520  -16.6800  -41.9300 H   0  0  0  0  0  0  0  0  0  0  0  0
    8.2030  -16.4610  -42.5270 H   0  0  0  0  0  0  0  0  0  0  0  0
    9.0200  -18.2480  -47.1450 H   0  0  0  0  0  0  0  0  0  0  0  0
    8.9150  -19.6120  -45.8980 H   0  0  0  0  0  0  0  0  0  0  0  0
    7.4390  -18.8170  -46.4990 H   0  0  0  0  0  0  0  0  0  0  0  0
    7.2680  -20.2570  -41.3370 H   0  0  0  0  0  0  0  0  0  0  0  0
    6.3140  -21.7470  -41.4370 H   0  0  0  0  0  0  0  0  0  0  0  0
    4.7560  -19.3150  -41.6950 H   0  0  0  0  0  0  0  0  0  0  0  0
    5.3120  -18.1140  -39.9640 H   0  0  0  0  0  0  0  0  0  0  0  0
    6.8730  -18.9640  -40.1150 H   0  0  0  0  0  0  0  0  0  0  0  0
    4.6340  -19.5140  -38.1420 H   0  0  0  0  0  0  0  0  0  0  0  0
    5.8870  -21.6060  -37.6580 H   0  0  0  0  0  0  0  0  0  0  0  0
    6.9090  -21.3380  -39.0950 H   0  0  0  0  0  0  0  0  0  0  0  0
    5.1430  -22.7370  -40.0900 H   0  0  0  0  0  0  0  0  0  0  0  0
    4.0020  -22.1860  -38.8500 H   0  0  0  0  0  0  0  0  0  0  0  0
    3.5810  -20.1170  -39.8190 H   0  0  0  0  0  0  0  0  0  0  0  0
    3.5590  -21.3060  -41.1300 H   0  0  0  0  0  0  0  0  0  0  0  0
    6.9120  -18.0940  -38.0470 H   0  0  0  0  0  0  0  0  0  0  0  0
    7.5740  -19.7710  -37.6660 H   0  0  0  0  0  0  0  0  0  0  0  0
    6.3020  -19.0470  -36.6630 H   0  0  0  0  0  0  0  0  0  0  0  0
  2  3  1  0  0  0  0
  2  1  1  0  0  0  0
  3 14  1  0  0  0  0
  4 10  1  0  0  0  0
  4  3  2  0  0  0  0
  5  4  1  0  0  0  0
  6  5  2  0  0  0  0
  6  7  1  0  0  0  0
  7  2  2  0  0  0  0
  8  7  1  0  0  0  0
  8 34  1  0  0  0  0
  9  6  1  0  0  0  0
 10 12  1  0  0  0  0
 11 10  2  0  0  0  0
 12 15  1  6  0  0  0
 12 23  1  0  0  0  0
 13 36  1  0  0  0  0
 13 14  1  0  0  0  0
 13 12  1  0  0  0  0
 15 38  1  0  0  0  0
 15 16  1  0  0  0  0
 16 21  1  0  0  0  0
 16 39  1  0  0  0  0
 17 40  1  0  0  0  0
 17 16  1  0  0  0  0
 18 42  1  6  0  0  0
 18 17  1  0  0  0  0
 19 18  1  0  0  0  0
 19 20  1  0  0  0  0
 20 46  1  0  0  0  0
 20 21  1  0  0  0  0
 21 48  1  0  0  0  0
 21 47  1  0  0  0  0
 22 50  1  0  0  0  0
 22 18  1  0  0  0  0
 23 53  1  0  0  0  0
 23 52  1  0  0  0  0
 23 24  1  0  0  0  0
 24 29  1  0  0  0  0
 24 25  1  0  0  0  0
 25 55  1  0  0  0  0
 25 26  1  0  0  0  0
 26 57  1  1  0  0  0
 26 30  1  0  0  0  0
 27 26  1  0  0  0  0
 27 58  1  0  0  0  0
 28 61  1  0  0  0  0
 28 27  1  0  0  0  0
 29 62  1  0  0  0  0
 29 28  1  0  0  0  0
 30 65  1  0  0  0  0
 30 66  1  0  0  0  0
 31  5  1  0  0  0  0
 32  8  1  0  0  0  0
 33  8  1  0  0  0  0
 35 13  1  0  0  0  0
 37 15  1  0  0  0  0
 41 17  1  0  0  0  0
 43 19  1  0  0  0  0
 44 19  1  0  0  0  0
 45 20  1  0  0  0  0
 49 22  1  0  0  0  0
 51 22  1  0  0  0  0
 54 24  1  0  0  0  0
 56 25  1  0  0  0  0
 59 27  1  0  0  0  0
 60 28  1  0  0  0  0
 63 29  1  0  0  0  0
 64 30  1  0  0  0  0
M  END
>  <Pose>
1

>  <Score>
-3.74

$$$$
