
 OpenBabel03232221553D

 32 35  0  0  0  0  0  0  0  0999 V2000
   10.4920  -26.6370  -42.0670 B   0  0  0  0  0  0  0  0  0  0  0  0
    9.8850  -25.1590  -43.1070 C   0  0  0  0  0  0  0  0  0  0  0  0
    8.5860  -24.6730  -43.2340 C   0  0  0  0  0  0  0  0  0  0  0  0
    8.6090  -23.6140  -44.0680 N   0  0  0  0  0  0  0  0  0  0  0  0
    9.8690  -23.4270  -44.4610 N   0  0  0  0  0  0  0  0  0  0  0  0
   10.6730  -24.3490  -43.8960 C   0  0  0  0  0  0  0  0  0  0  0  0
   12.1370  -24.5230  -44.0460 C   0  0  0  0  0  0  0  0  0  0  0  0
    7.4730  -22.8050  -44.4790 C   0  0  0  0  0  0  0  0  0  0  0  0
    6.9380  -21.9920  -43.3530 C   0  0  0  0  0  0  0  0  0  0  0  0
    6.9560  -20.6580  -43.1990 N   0  0  0  0  0  0  0  0  0  0  0  0
    6.3710  -20.3080  -42.0410 N   0  0  0  0  0  0  0  0  0  0  0  0
    5.9710  -21.4440  -41.4440 C   0  0  0  0  0  0  0  0  0  0  0  0
    6.3210  -22.4650  -42.2490 N   0  0  0  0  0  0  0  0  0  0  0  0
    5.3340  -21.3380  -40.2220 C   0  0  0  0  0  0  0  0  0  0  0  0
    5.1040  -20.1180  -39.6150 C   0  0  0  0  0  0  0  0  0  0  0  0
    4.4680  -20.2940  -38.4370 N   0  0  0  0  0  0  0  0  0  0  0  0
    4.3040  -21.5970  -38.3070 N   0  0  0  0  0  0  0  0  0  0  0  0
    4.8080  -22.2690  -39.3570 C   0  0  0  0  0  0  0  0  0  0  0  0
    4.0600  -19.2360  -37.5150 C   0  0  0  0  0  0  0  0  0  0  0  0
    5.5310  -19.0240  -40.2700 N   0  0  0  0  0  0  0  0  0  0  0  0
    6.1510  -19.1140  -41.4580 C   0  0  0  0  0  0  0  0  0  0  0  0
    7.7330  -25.1080  -42.7240 H   0  0  0  0  0  0  0  0  0  0  0  0
   12.4110  -25.1520  -44.9200 H   0  0  0  0  0  0  0  0  0  0  0  0
   12.6030  -24.9700  -43.1530 H   0  0  0  0  0  0  0  0  0  0  0  0
   12.5520  -23.4960  -44.2420 H   0  0  0  0  0  0  0  0  0  0  0  0
    6.6650  -23.4440  -44.9310 H   0  0  0  0  0  0  0  0  0  0  0  0
    7.8000  -22.1430  -45.3330 H   0  0  0  0  0  0  0  0  0  0  0  0
    4.8320  -23.3270  -39.5500 H   0  0  0  0  0  0  0  0  0  0  0  0
    3.2130  -19.5680  -36.8780 H   0  0  0  0  0  0  0  0  0  0  0  0
    3.6500  -18.3590  -38.0950 H   0  0  0  0  0  0  0  0  0  0  0  0
    4.8710  -18.9130  -36.8550 H   0  0  0  0  0  0  0  0  0  0  0  0
    6.5040  -18.2430  -42.0020 H   0  0  0  0  0  0  0  0  0  0  0  0
  2  1  1  0  0  0  0
  3  2  2  0  0  0  0
  3 22  1  0  0  0  0
  4  3  1  0  0  0  0
  5  4  1  0  0  0  0
  5  6  2  0  0  0  0
  6  2  1  0  0  0  0
  7  6  1  0  0  0  0
  7 24  1  0  0  0  0
  8  4  1  0  0  0  0
  8  9  1  0  0  0  0
  9 10  2  0  0  0  0
  9 13  1  0  0  0  0
 10 11  1  0  0  0  0
 11 21  1  0  0  0  0
 11 12  1  0  0  0  0
 12 14  1  0  0  0  0
 13 12  2  0  0  0  0
 14 15  2  0  0  0  0
 14 18  1  0  0  0  0
 15 16  1  0  0  0  0
 16 17  1  0  0  0  0
 16 19  1  0  0  0  0
 18 17  2  0  0  0  0
 19 29  1  0  0  0  0
 19 31  1  0  0  0  0
 20 15  1  0  0  0  0
 21 20  2  0  0  0  0
 23  7  1  0  0  0  0
 25  7  1  0  0  0  0
 26  8  1  0  0  0  0
 27  8  1  0  0  0  0
 28 18  1  0  0  0  0
 30 19  1  0  0  0  0
 32 21  1  0  0  0  0
M  END
>  <Pose>
1

>  <Score>
-4.31

$$$$
