
 OpenBabel03232221553D

 56 59  0  0  1  0  0  0  0  0999 V2000
    9.3790  -25.3460  -43.6840 B   0  0  0  0  0  0  0  0  0  0  0  0
    7.5200  -25.0550  -43.9220 C   0  0  0  0  0  0  0  0  0  0  0  0
    6.9040  -23.9660  -43.2970 C   0  0  0  0  0  0  0  0  0  0  0  0
    5.5630  -23.7180  -43.4560 C   0  0  0  0  0  0  0  0  0  0  0  0
    4.8470  -24.5800  -44.2520 C   0  0  0  0  0  0  0  0  0  0  0  0
    5.4350  -25.6730  -44.8860 C   0  0  0  0  0  0  0  0  0  0  0  0
    6.8020  -25.9110  -44.7170 C   0  0  0  0  0  0  0  0  0  0  0  0
    7.4430  -27.0720  -45.3940 C   0  0  0  0  0  0  0  0  0  0  0  0
    4.6120  -26.5890  -45.7200 C   0  0  0  0  0  0  0  0  0  0  0  0
    4.8330  -22.5620  -42.8600 C   0  0  2  0  0  0  0  0  0  0  0  0
    5.6240  -21.7740  -41.8630 C   0  0  2  0  0  0  0  0  0  0  0  0
    6.7650  -22.6350  -41.3530 C   0  0  0  0  0  0  0  0  0  0  0  0
    7.5750  -23.0700  -42.4760 O   0  0  0  0  0  0  0  0  0  0  0  0
    4.7350  -21.5160  -40.7500 N   0  0  0  0  0  0  0  0  0  0  0  0
    4.0020  -20.3000  -40.8720 C   0  0  0  0  0  0  0  0  0  0  0  0
    3.3800  -19.7880  -39.6050 C   0  0  0  0  0  0  0  0  0  0  0  0
    4.1230  -19.9780  -38.4710 O   0  0  0  0  0  0  0  0  0  0  0  0
    4.3750  -21.3500  -38.3460 C   0  0  0  0  0  0  0  0  0  0  0  0
    5.3910  -21.6390  -39.4820 C   0  0  0  0  0  0  0  0  0  0  0  0
    6.2820  -20.5490  -42.3750 C   0  0  0  0  0  0  0  0  0  0  0  0
    5.7170  -19.6980  -43.3180 N   0  0  0  0  0  0  0  0  0  0  0  0
    5.7970  -18.2810  -42.8240 C   0  0  0  0  0  0  0  0  0  0  0  0
    7.1940  -17.9050  -42.4950 C   0  0  0  0  0  0  0  0  0  0  0  0
    8.1540  -18.5180  -43.2560 O   0  0  0  0  0  0  0  0  0  0  0  0
    7.7570  -18.9490  -44.4880 C   0  0  0  0  0  0  0  0  0  0  0  0
    6.3820  -19.5230  -44.5970 C   0  0  0  0  0  0  0  0  0  0  0  0
    3.6540  -23.0880  -42.2450 O   0  0  0  0  0  0  0  0  0  0  0  0
    3.7670  -24.4720  -44.4420 H   0  0  0  0  0  0  0  0  0  0  0  0
    7.0670  -28.0490  -45.0780 H   0  0  0  0  0  0  0  0  0  0  0  0
    8.5340  -27.0550  -45.1620 H   0  0  0  0  0  0  0  0  0  0  0  0
    7.2770  -26.8940  -46.4960 H   0  0  0  0  0  0  0  0  0  0  0  0
    3.9740  -27.1920  -45.0130 H   0  0  0  0  0  0  0  0  0  0  0  0
    3.9420  -26.0760  -46.4200 H   0  0  0  0  0  0  0  0  0  0  0  0
    5.2990  -27.3050  -46.2270 H   0  0  0  0  0  0  0  0  0  0  0  0
    4.4520  -22.0040  -43.7160 H   0  0  0  0  0  0  0  0  0  0  0  0
    6.4780  -23.5200  -40.8040 H   0  0  0  0  0  0  0  0  0  0  0  0
    7.4450  -21.9510  -40.7880 H   0  0  0  0  0  0  0  0  0  0  0  0
    3.1610  -20.4620  -41.5730 H   0  0  0  0  0  0  0  0  0  0  0  0
    4.7210  -19.5200  -41.1870 H   0  0  0  0  0  0  0  0  0  0  0  0
    2.3350  -20.1310  -39.4650 H   0  0  0  0  0  0  0  0  0  0  0  0
    3.2770  -18.6740  -39.7190 H   0  0  0  0  0  0  0  0  0  0  0  0
    4.9060  -21.5180  -37.4070 H   0  0  0  0  0  0  0  0  0  0  0  0
    3.4610  -21.9500  -38.5000 H   0  0  0  0  0  0  0  0  0  0  0  0
    6.1380  -20.8190  -39.3420 H   0  0  0  0  0  0  0  0  0  0  0  0
    5.7630  -22.6390  -39.2660 H   0  0  0  0  0  0  0  0  0  0  0  0
    7.2430  -20.9750  -42.8690 H   0  0  0  0  0  0  0  0  0  0  0  0
    6.7340  -19.9720  -41.5270 H   0  0  0  0  0  0  0  0  0  0  0  0
    5.0830  -18.1500  -41.9900 H   0  0  0  0  0  0  0  0  0  0  0  0
    5.4230  -17.6490  -43.6500 H   0  0  0  0  0  0  0  0  0  0  0  0
    7.3390  -16.7850  -42.5240 H   0  0  0  0  0  0  0  0  0  0  0  0
    7.3740  -18.1940  -41.4300 H   0  0  0  0  0  0  0  0  0  0  0  0
    8.4730  -19.7260  -44.8170 H   0  0  0  0  0  0  0  0  0  0  0  0
    7.9090  -18.0750  -45.1850 H   0  0  0  0  0  0  0  0  0  0  0  0
    5.7680  -18.6630  -45.0670 H   0  0  0  0  0  0  0  0  0  0  0  0
    6.2610  -20.3040  -45.3280 H   0  0  0  0  0  0  0  0  0  0  0  0
    3.9550  -23.6470  -41.4870 H   0  0  0  0  0  0  0  0  0  0  0  0
  2  1  1  0  0  0  0
  2  3  1  0  0  0  0
  3 13  1  0  0  0  0
  4  3  2  0  0  0  0
  4 10  1  0  0  0  0
  5  4  1  0  0  0  0
  6  7  1  0  0  0  0
  6  5  2  0  0  0  0
  7  2  2  0  0  0  0
  8 30  1  0  0  0  0
  8 29  1  0  0  0  0
  8  7  1  0  0  0  0
  9 32  1  0  0  0  0
  9  6  1  0  0  0  0
 10 35  1  6  0  0  0
 10 27  1  0  0  0  0
 10 11  1  0  0  0  0
 11 20  1  6  0  0  0
 11 12  1  0  0  0  0
 11 14  1  0  0  0  0
 12 36  1  0  0  0  0
 12 37  1  0  0  0  0
 13 12  1  0  0  0  0
 14 19  1  0  0  0  0
 15 14  1  0  0  0  0
 15 16  1  0  0  0  0
 16 40  1  0  0  0  0
 16 17  1  0  0  0  0
 17 18  1  0  0  0  0
 18 42  1  0  0  0  0
 19 44  1  0  0  0  0
 19 45  1  0  0  0  0
 19 18  1  0  0  0  0
 20 47  1  0  0  0  0
 21 22  1  0  0  0  0
 21 20  1  0  0  0  0
 22 23  1  0  0  0  0
 22 48  1  0  0  0  0
 23 51  1  0  0  0  0
 24 23  1  0  0  0  0
 25 24  1  0  0  0  0
 26 25  1  0  0  0  0
 26 21  1  0  0  0  0
 27 56  1  0  0  0  0
 28  5  1  0  0  0  0
 31  8  1  0  0  0  0
 33  9  1  0  0  0  0
 34  9  1  0  0  0  0
 38 15  1  0  0  0  0
 39 15  1  0  0  0  0
 41 16  1  0  0  0  0
 43 18  1  0  0  0  0
 46 20  1  0  0  0  0
 49 22  1  0  0  0  0
 50 23  1  0  0  0  0
 52 25  1  0  0  0  0
 53 25  1  0  0  0  0
 54 26  1  0  0  0  0
 55 26  1  0  0  0  0
M  END
>  <Pose>
1

>  <Score>
-2.95

$$$$
