
 OpenBabel03232221553D

 45 48  0  0  0  0  0  0  0  0999 V2000
    0.8480  -26.8920  -46.2050 B   0  0  0  0  0  0  0  0  0  0  0  0
    1.8410  -25.9570  -44.8650 C   0  0  0  0  0  0  0  0  0  0  0  0
    3.2040  -26.0550  -44.7380 C   0  0  0  0  0  0  0  0  0  0  0  0
    3.5620  -25.2570  -43.6820 C   0  0  0  0  0  0  0  0  0  0  0  0
    2.4400  -24.6730  -43.1630 N   0  0  0  0  0  0  0  0  0  0  0  0
    1.3870  -25.1080  -43.8940 C   0  0  0  0  0  0  0  0  0  0  0  0
   -0.0240  -24.7210  -43.6660 C   0  0  0  0  0  0  0  0  0  0  0  0
    2.4670  -23.7990  -42.0430 C   0  0  0  0  0  0  0  0  0  0  0  0
    2.6700  -22.3780  -42.2380 C   0  0  0  0  0  0  0  0  0  0  0  0
    1.5170  -21.7190  -42.2940 O   0  0  0  0  0  0  0  0  0  0  0  0
    3.7930  -21.5780  -42.3800 N   0  0  0  0  0  0  0  0  0  0  0  0
    3.8560  -20.1630  -42.4720 C   0  0  0  0  0  0  0  0  0  0  0  0
    4.4420  -19.5840  -41.1840 C   0  0  0  0  0  0  0  0  0  0  0  0
    5.4530  -20.5580  -40.6020 C   0  0  0  0  0  0  0  0  0  0  0  0
    6.4850  -19.7340  -39.9960 N   0  0  0  0  0  0  0  0  0  0  0  0
    6.0680  -19.4980  -38.6350 C   0  0  0  0  0  0  0  0  0  0  0  0
    6.4990  -18.5920  -37.8780 O   0  0  0  0  0  0  0  0  0  0  0  0
    5.0740  -20.4890  -38.3170 N   0  0  0  0  0  0  0  0  0  0  0  0
    4.8900  -21.3120  -39.4630 C   0  0  0  0  0  0  0  0  0  0  0  0
    4.3540  -22.4440  -39.4620 O   0  0  0  0  0  0  0  0  0  0  0  0
    6.0890  -21.4230  -41.6440 C   0  0  0  0  0  0  0  0  0  0  0  0
    5.1200  -22.2380  -42.4370 C   0  0  0  0  0  0  0  0  0  0  0  0
    4.9060  -25.1610  -43.3220 C   0  0  0  0  0  0  0  0  0  0  0  0
    5.8770  -25.8660  -44.0210 C   0  0  0  0  0  0  0  0  0  0  0  0
    5.5000  -26.6570  -45.0700 C   0  0  0  0  0  0  0  0  0  0  0  0
    4.1770  -26.7570  -45.4330 C   0  0  0  0  0  0  0  0  0  0  0  0
   -0.5740  -24.5830  -44.6240 H   0  0  0  0  0  0  0  0  0  0  0  0
   -0.5250  -25.5570  -43.1230 H   0  0  0  0  0  0  0  0  0  0  0  0
   -0.1040  -23.7820  -43.0670 H   0  0  0  0  0  0  0  0  0  0  0  0
    3.2590  -24.1950  -41.3200 H   0  0  0  0  0  0  0  0  0  0  0  0
    1.5170  -23.9950  -41.4470 H   0  0  0  0  0  0  0  0  0  0  0  0
    2.9910  -19.6130  -42.7950 H   0  0  0  0  0  0  0  0  0  0  0  0
    4.6420  -19.9330  -43.2740 H   0  0  0  0  0  0  0  0  0  0  0  0
    4.9090  -18.6170  -41.4650 H   0  0  0  0  0  0  0  0  0  0  0  0
    3.6260  -19.3740  -40.4940 H   0  0  0  0  0  0  0  0  0  0  0  0
    7.3570  -19.3790  -40.4410 H   0  0  0  0  0  0  0  0  0  0  0  0
    4.5850  -20.5820  -37.4150 H   0  0  0  0  0  0  0  0  0  0  0  0
    6.7350  -20.7630  -42.2720 H   0  0  0  0  0  0  0  0  0  0  0  0
    6.7900  -22.1120  -41.1070 H   0  0  0  0  0  0  0  0  0  0  0  0
    5.0650  -23.2950  -42.1890 H   0  0  0  0  0  0  0  0  0  0  0  0
    5.4210  -22.1440  -43.5220 H   0  0  0  0  0  0  0  0  0  0  0  0
    5.1630  -24.5250  -42.4840 H   0  0  0  0  0  0  0  0  0  0  0  0
    6.9150  -25.7660  -43.7070 H   0  0  0  0  0  0  0  0  0  0  0  0
    6.2500  -27.2000  -45.6080 H   0  0  0  0  0  0  0  0  0  0  0  0
    3.8510  -27.3710  -46.2550 H   0  0  0  0  0  0  0  0  0  0  0  0
  1  2  1  0  0  0  0
  2  3  1  0  0  0  0
  2  6  2  0  0  0  0
  3  4  1  0  0  0  0
  4 23  2  0  0  0  0
  4  5  1  0  0  0  0
  5  8  1  0  0  0  0
  6  7  1  0  0  0  0
  6  5  1  0  0  0  0
  7 28  1  0  0  0  0
  7 29  1  0  0  0  0
  8 31  1  0  0  0  0
  8 30  1  0  0  0  0
  9  8  1  0  0  0  0
 10  9  2  0  0  0  0
 11  9  1  0  0  0  0
 12 11  1  0  0  0  0
 12 13  1  0  0  0  0
 13 14  1  0  0  0  0
 13 35  1  0  0  0  0
 14 15  1  0  0  0  0
 14 19  1  0  0  0  0
 15 16  1  0  0  0  0
 16 18  1  0  0  0  0
 16 17  2  0  0  0  0
 18 37  1  0  0  0  0
 19 20  2  0  0  0  0
 19 18  1  0  0  0  0
 21 39  1  0  0  0  0
 21 14  1  0  0  0  0
 22 11  1  0  0  0  0
 22 40  1  0  0  0  0
 22 21  1  0  0  0  0
 23 42  1  0  0  0  0
 24 43  1  0  0  0  0
 24 23  1  0  0  0  0
 25 24  2  0  0  0  0
 26 25  1  0  0  0  0
 26  3  2  0  0  0  0
 27  7  1  0  0  0  0
 32 12  1  0  0  0  0
 33 12  1  0  0  0  0
 34 13  1  0  0  0  0
 36 15  1  0  0  0  0
 38 21  1  0  0  0  0
 41 22  1  0  0  0  0
 44 25  1  0  0  0  0
 45 26  1  0  0  0  0
M  END
>  <Pose>
1

>  <Score>
-4.17

$$$$
