
 OpenBabel03232221553D

 47 50  0  0  0  0  0  0  0  0999 V2000
    7.5490  -25.5510  -46.9000 B   0  0  0  0  0  0  0  0  0  0  0  0
    8.7610  -26.1790  -45.5600 C   0  0  0  0  0  0  0  0  0  0  0  0
    8.8480  -25.7720  -44.2950 N   0  0  0  0  0  0  0  0  0  0  0  0
    9.8150  -26.5410  -43.7230 C   0  0  0  0  0  0  0  0  0  0  0  0
   10.2910  -27.4010  -44.6890 C   0  0  0  0  0  0  0  0  0  0  0  0
    9.6390  -27.1750  -45.8210 N   0  0  0  0  0  0  0  0  0  0  0  0
   11.2730  -28.2860  -44.3590 N   0  0  0  0  0  0  0  0  0  0  0  0
   11.7430  -28.2930  -43.1140 C   0  0  0  0  0  0  0  0  0  0  0  0
   12.6560  -29.1250  -42.8380 O   0  0  0  0  0  0  0  0  0  0  0  0
   11.2870  -27.4600  -42.1650 N   0  0  0  0  0  0  0  0  0  0  0  0
   10.3060  -26.5520  -42.4320 C   0  0  0  0  0  0  0  0  0  0  0  0
    9.8840  -25.7780  -41.5370 O   0  0  0  0  0  0  0  0  0  0  0  0
   11.8000  -29.2060  -45.3460 C   0  0  0  0  0  0  0  0  0  0  0  0
    8.1570  -24.7490  -43.5860 C   0  0  0  0  0  0  0  0  0  0  0  0
    7.8440  -23.4940  -44.2900 C   0  0  0  0  0  0  0  0  0  0  0  0
    7.4970  -22.3600  -43.6350 O   0  0  0  0  0  0  0  0  0  0  0  0
    6.8530  -22.6400  -42.4410 C   0  0  0  0  0  0  0  0  0  0  0  0
    5.5520  -21.8960  -42.3970 C   0  0  0  0  0  0  0  0  0  0  0  0
    5.6280  -20.7250  -41.5830 N   0  0  0  0  0  0  0  0  0  0  0  0
    5.1040  -20.5870  -40.3580 C   0  0  0  0  0  0  0  0  0  0  0  0
    5.3880  -19.3290  -39.9250 C   0  0  0  0  0  0  0  0  0  0  0  0
    6.0760  -18.7330  -40.8950 N   0  0  0  0  0  0  0  0  0  0  0  0
    6.2450  -19.5650  -41.9360 C   0  0  0  0  0  0  0  0  0  0  0  0
    7.1380  -19.2690  -43.5860 B   0  0  0  0  0  0  0  0  0  0  0  0
    4.9750  -18.9250  -38.7110 N   0  0  0  0  0  0  0  0  0  0  0  0
    4.2900  -19.7710  -37.9460 C   0  0  0  0  0  0  0  0  0  0  0  0
    3.9090  -19.3800  -36.8100 O   0  0  0  0  0  0  0  0  0  0  0  0
    4.0030  -21.0030  -38.3490 N   0  0  0  0  0  0  0  0  0  0  0  0
    4.3920  -21.4480  -39.5470 C   0  0  0  0  0  0  0  0  0  0  0  0
    4.0980  -22.6360  -39.8960 O   0  0  0  0  0  0  0  0  0  0  0  0
    5.2660  -17.5900  -38.2330 C   0  0  0  0  0  0  0  0  0  0  0  0
   11.6650  -27.4770  -41.1940 H   0  0  0  0  0  0  0  0  0  0  0  0
   10.9830  -29.5550  -46.0190 H   0  0  0  0  0  0  0  0  0  0  0  0
   12.2440  -30.0900  -44.8760 H   0  0  0  0  0  0  0  0  0  0  0  0
   12.6030  -28.7150  -45.9520 H   0  0  0  0  0  0  0  0  0  0  0  0
    7.1650  -25.2120  -43.2820 H   0  0  0  0  0  0  0  0  0  0  0  0
    8.6270  -24.5580  -42.5660 H   0  0  0  0  0  0  0  0  0  0  0  0
    8.7390  -23.1820  -44.9520 H   0  0  0  0  0  0  0  0  0  0  0  0
    7.0830  -23.7100  -45.1310 H   0  0  0  0  0  0  0  0  0  0  0  0
    7.5110  -22.2360  -41.6010 H   0  0  0  0  0  0  0  0  0  0  0  0
    6.8060  -23.7070  -42.2920 H   0  0  0  0  0  0  0  0  0  0  0  0
    5.2820  -21.6570  -43.4640 H   0  0  0  0  0  0  0  0  0  0  0  0
    4.7920  -22.6220  -42.0170 H   0  0  0  0  0  0  0  0  0  0  0  0
    3.4650  -21.6510  -37.7340 H   0  0  0  0  0  0  0  0  0  0  0  0
    6.2030  -17.6260  -37.6570 H   0  0  0  0  0  0  0  0  0  0  0  0
    5.3570  -16.8940  -39.0860 H   0  0  0  0  0  0  0  0  0  0  0  0
    4.3850  -17.2890  -37.6040 H   0  0  0  0  0  0  0  0  0  0  0  0
  1  2  1  0  0  0  0
  2  3  1  0  0  0  0
  3  4  1  0  0  0  0
  3 14  1  0  0  0  0
  4 11  1  0  0  0  0
  5  7  1  0  0  0  0
  5  4  2  0  0  0  0
  6  2  2  0  0  0  0
  6  5  1  0  0  0  0
  7  8  1  0  0  0  0
  8  9  2  0  0  0  0
  8 10  1  0  0  0  0
 10 32  1  0  0  0  0
 11 10  1  0  0  0  0
 11 12  2  0  0  0  0
 13 34  1  0  0  0  0
 13  7  1  0  0  0  0
 14 36  1  0  0  0  0
 14 37  1  0  0  0  0
 15 16  1  0  0  0  0
 15 14  1  0  0  0  0
 16 17  1  0  0  0  0
 17 18  1  0  0  0  0
 17 41  1  0  0  0  0
 17 40  1  0  0  0  0
 18 43  1  0  0  0  0
 18 19  1  0  0  0  0
 19 20  1  0  0  0  0
 20 21  2  0  0  0  0
 20 29  1  0  0  0  0
 21 25  1  0  0  0  0
 22 21  1  0  0  0  0
 23 19  1  0  0  0  0
 23 22  2  0  0  0  0
 24 23  1  0  0  0  0
 25 31  1  0  0  0  0
 25 26  1  0  0  0  0
 26 27  2  0  0  0  0
 28 26  1  0  0  0  0
 28 44  1  0  0  0  0
 29 28  1  0  0  0  0
 30 29  2  0  0  0  0
 31 45  1  0  0  0  0
 31 47  1  0  0  0  0
 33 13  1  0  0  0  0
 35 13  1  0  0  0  0
 38 15  1  0  0  0  0
 39 15  1  0  0  0  0
 42 18  1  0  0  0  0
 46 31  1  0  0  0  0
M  END
>  <Pose>
1

>  <Score>
-5.39

$$$$
