
 OpenBabel03232221553D

 59 63  0  0  1  0  0  0  0  0999 V2000
   -1.8560  -21.0870  -38.7310 B   0  0  0  0  0  0  0  0  0  0  0  0
   -1.1600  -19.5070  -37.9430 C   0  0  0  0  0  0  0  0  0  0  0  0
   -0.0440  -18.8920  -38.4670 C   0  0  0  0  0  0  0  0  0  0  0  0
    0.4750  -17.7270  -37.8870 C   0  0  0  0  0  0  0  0  0  0  0  0
   -0.2110  -17.2710  -36.7830 C   0  0  0  0  0  0  0  0  0  0  0  0
   -1.3190  -17.8470  -36.2330 C   0  0  0  0  0  0  0  0  0  0  0  0
   -1.8020  -18.9960  -36.8320 C   0  0  0  0  0  0  0  0  0  0  0  0
    1.6820  -17.1200  -38.4120 C   0  0  2  0  0  0  0  0  0  0  0  0
    1.6850  -15.9290  -39.1420 N   0  0  0  0  0  0  0  0  0  0  0  0
    2.2680  -16.2290  -40.4460 C   0  0  0  0  0  0  0  0  0  0  0  0
    2.3320  -15.4750  -41.4500 O   0  0  0  0  0  0  0  0  0  0  0  0
    2.7990  -17.5830  -40.4450 C   0  0  0  0  0  0  0  0  0  0  0  0
    3.3710  -18.1740  -41.4210 O   0  0  0  0  0  0  0  0  0  0  0  0
    2.5430  -18.1130  -39.1320 C   0  0  0  0  0  0  0  0  0  0  0  0
    2.9580  -19.2800  -38.6840 C   0  0  0  0  0  0  0  0  0  0  0  0
    2.5220  -19.6130  -37.3800 O   0  0  0  0  0  0  0  0  0  0  0  0
    3.8040  -20.2220  -39.3930 C   0  0  0  0  0  0  0  0  0  0  0  0
    3.5490  -21.1480  -40.3310 N   0  0  0  0  0  0  0  0  0  0  0  0
    4.6420  -21.8420  -40.6820 C   0  0  0  0  0  0  0  0  0  0  0  0
    5.6520  -21.3410  -39.9370 N   0  0  0  0  0  0  0  0  0  0  0  0
    5.1880  -20.3660  -39.1510 C   0  0  0  0  0  0  0  0  0  0  0  0
    5.9570  -19.5640  -38.1910 C   0  0  0  0  0  0  0  0  0  0  0  0
    4.6110  -22.8340  -41.6430 C   0  0  0  0  0  0  0  0  0  0  0  0
    3.4230  -23.1220  -42.2580 C   0  0  0  0  0  0  0  0  0  0  0  0
    2.2970  -22.4070  -41.8970 C   0  0  0  0  0  0  0  0  0  0  0  0
    2.3630  -21.4250  -40.9370 C   0  0  0  0  0  0  0  0  0  0  0  0
    1.3190  -14.6210  -38.7360 C   0  0  0  0  0  0  0  0  0  0  0  0
    2.2730  -13.7260  -38.0870 C   0  0  0  0  0  0  0  0  0  0  0  0
    2.1130  -12.3030  -38.1620 N   0  0  0  0  0  4  0  0  0  0  0  0
    3.1520  -11.7190  -37.3140 C   0  0  0  0  0  0  0  0  0  0  0  0
    4.4280  -11.4680  -38.0500 C   0  0  0  0  0  0  0  0  0  0  0  0
    4.4210  -12.1040  -39.3010 O   0  0  0  0  0  0  0  0  0  0  0  0
    3.4360  -11.4730  -40.0270 C   0  0  0  0  0  0  0  0  0  0  0  0
    2.0910  -11.7960  -39.4920 C   0  0  0  0  0  0  0  0  0  0  0  0
    0.4780  -19.2620  -39.3280 H   0  0  0  0  0  0  0  0  0  0  0  0
    0.1700  -16.3640  -36.3080 H   0  0  0  0  0  0  0  0  0  0  0  0
   -1.8300  -17.4530  -35.3580 H   0  0  0  0  0  0  0  0  0  0  0  0
   -2.6830  -19.4520  -36.3900 H   0  0  0  0  0  0  0  0  0  0  0  0
    2.2940  -16.8400  -37.4450 H   0  0  0  0  0  0  0  0  0  0  0  0
    5.6430  -18.4970  -38.1360 H   0  0  0  0  0  0  0  0  0  0  0  0
    5.8980  -20.0640  -37.1960 H   0  0  0  0  0  0  0  0  0  0  0  0
    7.0280  -19.5710  -38.4900 H   0  0  0  0  0  0  0  0  0  0  0  0
    5.4860  -23.3910  -41.9230 H   0  0  0  0  0  0  0  0  0  0  0  0
    3.3120  -23.8860  -43.0240 H   0  0  0  0  0  0  0  0  0  0  0  0
    1.3280  -22.6040  -42.3620 H   0  0  0  0  0  0  0  0  0  0  0  0
    1.4730  -20.8480  -40.6450 H   0  0  0  0  0  0  0  0  0  0  0  0
    0.4290  -14.7410  -38.0380 H   0  0  0  0  0  0  0  0  0  0  0  0
    0.8630  -14.0790  -39.6110 H   0  0  0  0  0  0  0  0  0  0  0  0
    2.2280  -13.9840  -36.9790 H   0  0  0  0  0  0  0  0  0  0  0  0
    3.3510  -13.9880  -38.3180 H   0  0  0  0  0  0  0  0  0  0  0  0
    1.2190  -11.9840  -37.6830 H   0  0  0  0  0  0  0  0  0  0  0  0
    2.7750  -10.7600  -36.9270 H   0  0  0  0  0  0  0  0  0  0  0  0
    3.3420  -12.3740  -36.4270 H   0  0  0  0  0  0  0  0  0  0  0  0
    4.5760  -10.3700  -38.2270 H   0  0  0  0  0  0  0  0  0  0  0  0
    5.2690  -11.9000  -37.4690 H   0  0  0  0  0  0  0  0  0  0  0  0
    3.5460  -11.8820  -41.0820 H   0  0  0  0  0  0  0  0  0  0  0  0
    3.6310  -10.3610  -40.0600 H   0  0  0  0  0  0  0  0  0  0  0  0
    1.5950  -12.4980  -40.2110 H   0  0  0  0  0  0  0  0  0  0  0  0
    1.5080  -10.8250  -39.4790 H   0  0  0  0  0  0  0  0  0  0  0  0
  1  2  1  0  0  0  0
  2  7  1  0  0  0  0
  3  2  2  0  0  0  0
  3  4  1  0  0  0  0
  4  5  2  0  0  0  0
  5 36  1  0  0  0  0
  5  6  1  0  0  0  0
  6 37  1  0  0  0  0
  7 38  1  0  0  0  0
  7  6  2  0  0  0  0
  8  4  1  0  0  0  0
  8 39  1  1  0  0  0
  9 27  1  0  0  0  0
  9  8  1  0  0  0  0
 10 12  1  0  0  0  0
 10  9  1  0  0  0  0
 11 10  2  0  0  0  0
 12 14  1  0  0  0  0
 13 12  2  0  0  0  0
 14 15  2  0  0  0  0
 14  8  1  0  0  0  0
 15 16  1  0  0  0  0
 17 21  2  0  0  0  0
 17 15  1  0  0  0  0
 18 17  1  0  0  0  0
 19 18  1  0  0  0  0
 19 20  2  0  0  0  0
 20 21  1  0  0  0  0
 21 22  1  0  0  0  0
 22 40  1  0  0  0  0
 22 41  1  0  0  0  0
 23 19  1  0  0  0  0
 24 25  1  0  0  0  0
 24 23  2  0  0  0  0
 25 26  2  0  0  0  0
 26 46  1  0  0  0  0
 26 18  1  0  0  0  0
 27 28  1  0  0  0  0
 27 47  1  0  0  0  0
 28 49  1  0  0  0  0
 29 28  1  0  0  0  0
 29 51  1  0  0  0  0
 29 30  1  0  0  0  0
 30 52  1  0  0  0  0
 30 53  1  0  0  0  0
 31 55  1  0  0  0  0
 31 30  1  0  0  0  0
 32 31  1  0  0  0  0
 33 34  1  0  0  0  0
 33 32  1  0  0  0  0
 34 59  1  0  0  0  0
 34 29  1  0  0  0  0
 35  3  1  0  0  0  0
 42 22  1  0  0  0  0
 43 23  1  0  0  0  0
 44 24  1  0  0  0  0
 45 25  1  0  0  0  0
 48 27  1  0  0  0  0
 50 28  1  0  0  0  0
 54 31  1  0  0  0  0
 56 33  1  0  0  0  0
 57 33  1  0  0  0  0
 58 34  1  0  0  0  0
M  END
>  <Pose>
1

>  <Score>
-4.71

$$$$
