
 OpenBabel03232221553D

 51 54  0  0  0  0  0  0  0  0999 V2000
   15.2640  -26.8570  -47.3340 Cl  0  0  0  0  0  0  0  0  0  0  0  0
   14.2970  -26.4410  -45.9280 C   0  0  0  0  0  0  0  0  0  0  0  0
   14.7190  -25.4330  -45.0780 C   0  0  0  0  0  0  0  0  0  0  0  0
   13.9550  -25.1130  -43.9810 C   0  0  0  0  0  0  0  0  0  0  0  0
   12.7770  -25.7710  -43.7010 C   0  0  0  0  0  0  0  0  0  0  0  0
   12.3800  -26.7650  -44.5550 C   0  0  0  0  0  0  0  0  0  0  0  0
   13.1310  -27.1150  -45.6790 C   0  0  0  0  0  0  0  0  0  0  0  0
   11.9940  -25.3950  -42.5000 C   0  0  0  0  0  0  0  0  0  0  0  0
   12.6560  -24.9220  -41.5520 O   0  0  0  0  0  0  0  0  0  0  0  0
   10.6180  -25.5550  -42.4270 N   0  0  0  0  0  0  0  0  0  0  0  0
    9.7450  -26.4570  -43.0760 C   0  0  0  0  0  0  0  0  0  0  0  0
    8.7970  -25.9290  -44.0700 C   0  0  0  0  0  0  0  0  0  0  0  0
    7.8860  -24.8990  -43.7630 N   0  0  0  0  0  0  0  0  0  0  0  0
    6.4860  -25.2420  -43.7410 C   0  0  0  0  0  0  0  0  0  0  0  0
    6.1560  -26.4230  -43.5490 O   0  0  0  0  0  0  0  0  0  0  0  0
    5.4330  -24.2180  -43.9400 C   0  0  0  0  0  0  0  0  0  0  0  0
    6.0800  -22.8550  -43.8370 C   0  0  0  0  0  0  0  0  0  0  0  0
    6.4380  -22.6390  -42.3840 C   0  0  0  0  0  0  0  0  0  0  0  0
    5.1660  -22.4620  -41.6890 N   0  0  0  0  0  0  0  0  0  0  0  0
    4.0190  -23.1940  -42.1060 C   0  0  0  0  0  0  0  0  0  0  0  0
    4.2880  -24.3460  -43.0040 C   0  0  0  0  0  0  0  0  0  0  0  0
    5.1350  -21.5500  -40.6080 C   0  0  0  0  0  0  0  0  0  0  0  0
    6.2100  -21.2850  -39.8420 N   0  0  0  0  0  0  0  0  0  0  0  0
    6.1970  -20.4390  -38.8300 N   0  0  0  0  0  0  0  0  0  0  0  0
    7.1440  -20.0570  -37.9790 N   0  0  0  0  0  0  0  0  0  0  0  0
    6.6720  -19.1870  -37.1270 N   0  0  0  0  0  0  0  0  0  0  0  0
    5.4030  -18.9870  -37.4140 N   0  0  0  0  0  0  0  0  0  0  0  0
    5.0980  -19.7640  -38.4740 C   0  0  0  0  0  0  0  0  0  0  0  0
    3.9570  -19.9940  -39.2220 C   0  0  0  0  0  0  0  0  0  0  0  0
    3.9690  -20.8790  -40.2820 C   0  0  0  0  0  0  0  0  0  0  0  0
   15.6520  -24.9100  -45.2970 H   0  0  0  0  0  0  0  0  0  0  0  0
   14.2680  -24.3220  -43.2980 H   0  0  0  0  0  0  0  0  0  0  0  0
   11.4840  -27.3230  -44.4090 H   0  0  0  0  0  0  0  0  0  0  0  0
   12.8210  -27.8980  -46.3530 H   0  0  0  0  0  0  0  0  0  0  0  0
   10.1560  -24.8350  -41.7170 H   0  0  0  0  0  0  0  0  0  0  0  0
   10.3580  -27.2880  -43.5490 H   0  0  0  0  0  0  0  0  0  0  0  0
    9.1470  -26.9670  -42.2520 H   0  0  0  0  0  0  0  0  0  0  0  0
    8.2670  -26.8060  -44.5910 H   0  0  0  0  0  0  0  0  0  0  0  0
    9.4160  -25.5330  -44.9540 H   0  0  0  0  0  0  0  0  0  0  0  0
    8.0920  -23.9330  -43.5210 H   0  0  0  0  0  0  0  0  0  0  0  0
    5.0510  -24.2740  -44.9930 H   0  0  0  0  0  0  0  0  0  0  0  0
    5.3000  -22.1070  -44.1060 H   0  0  0  0  0  0  0  0  0  0  0  0
    6.9540  -22.7570  -44.5060 H   0  0  0  0  0  0  0  0  0  0  0  0
    7.0590  -21.7220  -42.2530 H   0  0  0  0  0  0  0  0  0  0  0  0
    6.9240  -23.5010  -41.9060 H   0  0  0  0  0  0  0  0  0  0  0  0
    3.3300  -22.4900  -42.6540 H   0  0  0  0  0  0  0  0  0  0  0  0
    3.4310  -23.5750  -41.2320 H   0  0  0  0  0  0  0  0  0  0  0  0
    3.3730  -24.6450  -43.5960 H   0  0  0  0  0  0  0  0  0  0  0  0
    4.4880  -25.2660  -42.3740 H   0  0  0  0  0  0  0  0  0  0  0  0
    3.0560  -19.4510  -38.9410 H   0  0  0  0  0  0  0  0  0  0  0  0
    3.0630  -21.0480  -40.8640 H   0  0  0  0  0  0  0  0  0  0  0  0
  1  2  1  0  0  0  0
  2  7  2  0  0  0  0
  2  3  1  0  0  0  0
  3  4  2  0  0  0  0
  4  5  1  0  0  0  0
  4 32  1  0  0  0  0
  5  8  1  0  0  0  0
  6 33  1  0  0  0  0
  6  5  2  0  0  0  0
  7  6  1  0  0  0  0
  8 10  1  0  0  0  0
  8  9  2  0  0  0  0
 10 35  1  0  0  0  0
 11 10  1  0  0  0  0
 11 37  1  0  0  0  0
 12 13  1  0  0  0  0
 12 11  1  0  0  0  0
 13 14  1  0  0  0  0
 13 40  1  0  0  0  0
 14 15  2  0  0  0  0
 16 17  1  0  0  0  0
 16 14  1  0  0  0  0
 16 21  1  0  0  0  0
 17 18  1  0  0  0  0
 18 44  1  0  0  0  0
 18 45  1  0  0  0  0
 18 19  1  0  0  0  0
 19 22  1  0  0  0  0
 20 19  1  0  0  0  0
 20 47  1  0  0  0  0
 21 49  1  0  0  0  0
 21 20  1  0  0  0  0
 22 30  1  0  0  0  0
 22 23  2  0  0  0  0
 23 24  1  0  0  0  0
 24 28  1  0  0  0  0
 24 25  1  0  0  0  0
 25 26  2  0  0  0  0
 27 26  1  0  0  0  0
 28 27  2  0  0  0  0
 29 50  1  0  0  0  0
 29 28  1  0  0  0  0
 30 29  2  0  0  0  0
 31  3  1  0  0  0  0
 34  7  1  0  0  0  0
 36 11  1  0  0  0  0
 38 12  1  0  0  0  0
 39 12  1  0  0  0  0
 41 16  1  0  0  0  0
 42 17  1  0  0  0  0
 43 17  1  0  0  0  0
 46 20  1  0  0  0  0
 48 21  1  0  0  0  0
 51 30  1  0  0  0  0
M  END
>  <Pose>
1

>  <Score>
-5.22

$$$$
