
 OpenBabel03232221553D

 53 56  0  0  1  0  0  0  0  0999 V2000
    0.2600  -11.1960  -36.5320 B   0  0  0  0  0  0  0  0  0  0  0  0
    0.2970  -13.0480  -37.0470 C   0  0  0  0  0  0  0  0  0  0  0  0
   -0.7670  -13.8850  -36.7990 C   0  0  0  0  0  0  0  0  0  0  0  0
   -0.7950  -15.2080  -37.1420 C   0  0  0  0  0  0  0  0  0  0  0  0
    0.3090  -15.7460  -37.7760 C   0  0  0  0  0  0  0  0  0  0  0  0
    1.3860  -14.9300  -38.0370 C   0  0  0  0  0  0  0  0  0  0  0  0
    1.4020  -13.5780  -37.6800 C   0  0  0  0  0  0  0  0  0  0  0  0
    0.3480  -17.1400  -38.2020 C   0  0  0  0  0  0  0  0  0  0  0  0
    1.1590  -18.0060  -37.6280 C   0  0  0  0  0  0  0  0  0  0  0  0
    1.3550  -19.4640  -37.9130 C   0  0  2  0  0  0  0  0  0  0  0  0
    2.7640  -19.5940  -37.8230 N   0  0  0  0  0  0  0  0  0  0  0  0
    3.1050  -18.8220  -36.6320 C   0  0  0  0  0  0  0  0  0  0  0  0
    4.0850  -18.9920  -35.8600 O   0  0  0  0  0  0  0  0  0  0  0  0
    2.0740  -17.7990  -36.5060 C   0  0  0  0  0  0  0  0  0  0  0  0
    1.9280  -16.8810  -35.6320 O   0  0  0  0  0  0  0  0  0  0  0  0
    3.7690  -20.3180  -38.5780 C   0  0  0  0  0  0  0  0  0  0  0  0
    3.2960  -21.2700  -39.6070 C   0  0  0  0  0  0  0  0  0  0  0  0
    4.3380  -22.1680  -40.1170 N   0  0  0  0  0  4  0  0  0  0  0  0
    5.5650  -21.4640  -40.2690 C   0  0  0  0  0  0  0  0  0  0  0  0
    6.0850  -21.3170  -41.6560 C   0  0  0  0  0  0  0  0  0  0  0  0
    5.7110  -22.3090  -42.5420 O   0  0  0  0  0  0  0  0  0  0  0  0
    4.3000  -22.2400  -42.5930 C   0  0  0  0  0  0  0  0  0  0  0  0
    3.8180  -22.7930  -41.2980 C   0  0  0  0  0  0  0  0  0  0  0  0
    0.5950  -19.9600  -39.0110 C   0  0  0  0  0  0  0  0  0  0  0  0
   -0.4240  -20.8500  -38.7730 C   0  0  0  0  0  0  0  0  0  0  0  0
   -1.2120  -21.3600  -39.7760 C   0  0  0  0  0  0  0  0  0  0  0  0
   -1.0010  -20.9850  -41.0950 C   0  0  0  0  0  0  0  0  0  0  0  0
    0.0270  -20.0900  -41.3140 C   0  0  0  0  0  0  0  0  0  0  0  0
    0.8130  -19.5840  -40.3020 C   0  0  0  0  0  0  0  0  0  0  0  0
   -1.9950  -21.6250  -42.3800 Cl  0  0  0  0  0  0  0  0  0  0  0  0
   -0.5050  -17.5000  -39.2290 O   0  0  0  0  0  0  0  0  0  0  0  0
   -1.6200  -13.4500  -36.3010 H   0  0  0  0  0  0  0  0  0  0  0  0
   -1.6210  -15.8780  -36.9540 H   0  0  0  0  0  0  0  0  0  0  0  0
    2.2790  -15.2920  -38.5510 H   0  0  0  0  0  0  0  0  0  0  0  0
    2.2780  -12.9650  -37.9040 H   0  0  0  0  0  0  0  0  0  0  0  0
    0.9660  -19.9510  -36.9570 H   0  0  0  0  0  0  0  0  0  0  0  0
    4.4310  -19.5780  -39.1350 H   0  0  0  0  0  0  0  0  0  0  0  0
    4.5270  -20.7820  -37.8760 H   0  0  0  0  0  0  0  0  0  0  0  0
    2.8100  -20.8640  -40.4910 H   0  0  0  0  0  0  0  0  0  0  0  0
    2.5850  -21.9720  -39.0470 H   0  0  0  0  0  0  0  0  0  0  0  0
    4.4320  -22.9170  -39.3640 H   0  0  0  0  0  0  0  0  0  0  0  0
    5.4960  -20.4540  -39.7660 H   0  0  0  0  0  0  0  0  0  0  0  0
    6.3610  -22.0270  -39.6950 H   0  0  0  0  0  0  0  0  0  0  0  0
    5.6760  -20.3560  -42.0860 H   0  0  0  0  0  0  0  0  0  0  0  0
    7.1850  -21.2290  -41.7160 H   0  0  0  0  0  0  0  0  0  0  0  0
    3.9440  -21.2210  -42.7980 H   0  0  0  0  0  0  0  0  0  0  0  0
    3.9640  -22.8780  -43.4230 H   0  0  0  0  0  0  0  0  0  0  0  0
    2.6970  -22.7970  -41.3150 H   0  0  0  0  0  0  0  0  0  0  0  0
    4.1070  -23.8810  -41.2820 H   0  0  0  0  0  0  0  0  0  0  0  0
   -0.6500  -21.1950  -37.7380 H   0  0  0  0  0  0  0  0  0  0  0  0
   -2.0120  -22.0580  -39.5830 H   0  0  0  0  0  0  0  0  0  0  0  0
    0.1770  -19.8080  -42.3590 H   0  0  0  0  0  0  0  0  0  0  0  0
    1.5780  -18.8770  -40.6070 H   0  0  0  0  0  0  0  0  0  0  0  0
  2  3  1  0  0  0  0
  2  1  1  0  0  0  0
  3 32  1  0  0  0  0
  4 33  1  0  0  0  0
  4  3  2  0  0  0  0
  5  4  1  0  0  0  0
  6  5  2  0  0  0  0
  6  7  1  0  0  0  0
  7  2  2  0  0  0  0
  8  5  1  0  0  0  0
  8  9  2  0  0  0  0
  9 14  1  0  0  0  0
 10 11  1  0  0  0  0
 10  9  1  0  0  0  0
 10 36  1  1  0  0  0
 11 12  1  0  0  0  0
 12 14  1  0  0  0  0
 12 13  2  0  0  0  0
 14 15  2  0  0  0  0
 16 38  1  0  0  0  0
 16 11  1  0  0  0  0
 17 40  1  0  0  0  0
 17 16  1  0  0  0  0
 18 17  1  0  0  0  0
 18 41  1  0  0  0  0
 19 18  1  0  0  0  0
 19 42  1  0  0  0  0
 19 43  1  0  0  0  0
 20 19  1  0  0  0  0
 21 20  1  0  0  0  0
 22 21  1  0  0  0  0
 22 23  1  0  0  0  0
 23 49  1  0  0  0  0
 23 18  1  0  0  0  0
 24 25  1  0  0  0  0
 24 10  1  0  0  0  0
 25 50  1  0  0  0  0
 26 51  1  0  0  0  0
 26 25  2  0  0  0  0
 27 26  1  0  0  0  0
 28 27  2  0  0  0  0
 28 29  1  0  0  0  0
 29 24  2  0  0  0  0
 30 27  1  0  0  0  0
 31  8  1  0  0  0  0
 34  6  1  0  0  0  0
 35  7  1  0  0  0  0
 37 16  1  0  0  0  0
 39 17  1  0  0  0  0
 44 20  1  0  0  0  0
 45 20  1  0  0  0  0
 46 22  1  0  0  0  0
 47 22  1  0  0  0  0
 48 23  1  0  0  0  0
 52 28  1  0  0  0  0
 53 29  1  0  0  0  0
M  END
>  <Pose>
1

>  <Score>
-4.27

$$$$
