
 OpenBabel03232221553D

 49 52  0  0  0  0  0  0  0  0999 V2000
   -3.5300  -18.5500  -37.2700 B   0  0  0  0  0  0  0  0  0  0  0  0
   -1.6530  -18.8140  -37.5400 C   0  0  0  0  0  0  0  0  0  0  0  0
   -1.1230  -20.0780  -37.7050 C   0  0  0  0  0  0  0  0  0  0  0  0
    0.2420  -20.2650  -37.9020 C   0  0  0  0  0  0  0  0  0  0  0  0
    1.1160  -19.1980  -37.9370 C   0  0  0  0  0  0  0  0  0  0  0  0
    0.5820  -17.9390  -37.7710 C   0  0  0  0  0  0  0  0  0  0  0  0
   -0.7720  -17.7520  -37.5770 C   0  0  0  0  0  0  0  0  0  0  0  0
    2.5170  -19.3510  -38.1360 N   0  0  0  0  0  0  0  0  0  0  0  0
    3.1860  -20.0590  -39.0590 C   0  0  0  0  0  0  0  0  0  0  0  0
    2.6030  -20.7380  -39.9440 O   0  0  0  0  0  0  0  0  0  0  0  0
    4.5550  -19.9310  -38.8930 C   0  0  0  0  0  0  0  0  0  0  0  0
    4.7190  -19.1290  -37.8490 C   0  0  0  0  0  0  0  0  0  0  0  0
    6.0460  -19.0060  -37.6880 N   0  0  0  0  0  0  0  0  0  0  0  0
    6.6740  -19.7130  -38.6090 N   0  0  0  0  0  0  0  0  0  0  0  0
    5.7750  -20.2900  -39.3610 N   0  0  0  0  0  0  0  0  0  0  0  0
    5.9970  -21.1590  -40.4920 C   0  0  0  0  0  0  0  0  0  0  0  0
    6.0720  -20.3260  -41.7490 C   0  0  0  0  0  0  0  0  0  0  0  0
    5.2190  -20.5000  -42.6480 O   0  0  0  0  0  0  0  0  0  0  0  0
    7.0870  -19.3700  -41.9010 N   0  0  0  0  0  0  0  0  0  0  0  0
    7.8400  -19.1440  -43.0700 C   0  0  0  0  0  0  0  0  0  0  0  0
    9.1150  -19.5940  -43.3070 C   0  0  0  0  0  0  0  0  0  0  0  0
    9.8060  -19.3220  -44.4690 C   0  0  0  0  0  0  0  0  0  0  0  0
    9.1790  -18.5630  -45.4350 C   0  0  0  0  0  0  0  0  0  0  0  0
    7.8920  -18.0910  -45.2350 C   0  0  0  0  0  0  0  0  0  0  0  0
    7.2260  -18.3710  -44.0740 C   0  0  0  0  0  0  0  0  0  0  0  0
    9.8590  -18.2780  -46.6160 O   0  0  0  0  0  0  0  0  0  0  0  0
   10.7320  -17.1670  -46.6580 C   0  0  0  0  0  0  0  0  0  0  0  0
   11.1000  -19.7930  -44.6820 O   0  0  0  0  0  0  0  0  0  0  0  0
   11.8300  -20.2620  -43.5410 C   0  0  0  0  0  0  0  0  0  0  0  0
    3.4730  -18.7690  -37.3790 C   0  0  0  0  0  0  0  0  0  0  0  0
    3.2540  -18.0040  -36.3820 O   0  0  0  0  0  0  0  0  0  0  0  0
   -1.8190  -20.9150  -37.6760 H   0  0  0  0  0  0  0  0  0  0  0  0
    0.6460  -21.2540  -38.0300 H   0  0  0  0  0  0  0  0  0  0  0  0
    1.2770  -17.1030  -37.8010 H   0  0  0  0  0  0  0  0  0  0  0  0
   -1.1660  -16.7410  -37.4480 H   0  0  0  0  0  0  0  0  0  0  0  0
    6.5390  -18.4490  -36.9620 H   0  0  0  0  0  0  0  0  0  0  0  0
    7.7250  -19.8130  -38.7390 H   0  0  0  0  0  0  0  0  0  0  0  0
    5.1740  -21.8980  -40.6360 H   0  0  0  0  0  0  0  0  0  0  0  0
    6.9620  -21.6840  -40.4140 H   0  0  0  0  0  0  0  0  0  0  0  0
    7.3000  -18.7570  -41.0480 H   0  0  0  0  0  0  0  0  0  0  0  0
    9.6260  -20.1980  -42.5700 H   0  0  0  0  0  0  0  0  0  0  0  0
    7.4260  -17.4920  -46.0200 H   0  0  0  0  0  0  0  0  0  0  0  0
    6.2000  -17.9870  -43.9280 H   0  0  0  0  0  0  0  0  0  0  0  0
   11.4450  -17.2970  -45.8090 H   0  0  0  0  0  0  0  0  0  0  0  0
   10.1590  -16.2440  -46.5040 H   0  0  0  0  0  0  0  0  0  0  0  0
   11.2890  -17.1810  -47.6230 H   0  0  0  0  0  0  0  0  0  0  0  0
   11.3310  -21.1780  -43.1190 H   0  0  0  0  0  0  0  0  0  0  0  0
   12.8750  -20.5050  -43.8190 H   0  0  0  0  0  0  0  0  0  0  0  0
   11.8480  -19.4860  -42.7480 H   0  0  0  0  0  0  0  0  0  0  0  0
  2  1  1  0  0  0  0
  3 32  1  0  0  0  0
  3  2  2  0  0  0  0
  4  3  1  0  0  0  0
  5  4  2  0  0  0  0
  5  6  1  0  0  0  0
  6  7  2  0  0  0  0
  7  2  1  0  0  0  0
  7 35  1  0  0  0  0
  8  5  1  0  0  0  0
  8 30  1  0  0  0  0
  9 11  1  0  0  0  0
  9  8  1  0  0  0  0
 10  9  2  0  0  0  0
 11 12  2  0  0  0  0
 12 13  1  0  0  0  0
 12 30  1  0  0  0  0
 13 36  1  0  0  0  0
 14 13  1  0  0  0  0
 15 11  1  0  0  0  0
 15 14  1  0  0  0  0
 16 39  1  0  0  0  0
 16 15  1  0  0  0  0
 17 16  1  0  0  0  0
 18 17  2  0  0  0  0
 19 17  1  0  0  0  0
 19 40  1  0  0  0  0
 20 19  1  0  0  0  0
 21 20  1  0  0  0  0
 21 41  1  0  0  0  0
 22 21  2  0  0  0  0
 23 24  2  0  0  0  0
 23 22  1  0  0  0  0
 24 25  1  0  0  0  0
 25 43  1  0  0  0  0
 25 20  2  0  0  0  0
 26 23  1  0  0  0  0
 27 26  1  0  0  0  0
 27 45  1  0  0  0  0
 27 44  1  0  0  0  0
 28 22  1  0  0  0  0
 28 29  1  0  0  0  0
 29 47  1  0  0  0  0
 29 49  1  0  0  0  0
 30 31  2  0  0  0  0
 33  4  1  0  0  0  0
 34  6  1  0  0  0  0
 37 14  1  0  0  0  0
 38 16  1  0  0  0  0
 42 24  1  0  0  0  0
 46 27  1  0  0  0  0
 48 29  1  0  0  0  0
M  END
>  <Pose>
1

>  <Score>
-6.27

$$$$
