
 OpenBabel03232221553D

 49 52  0  0  0  0  0  0  0  0999 V2000
   12.6850  -28.3170  -43.7270 Cl  0  0  0  0  0  0  0  0  0  0  0  0
   11.1430  -27.4760  -43.6500 C   0  0  0  0  0  0  0  0  0  0  0  0
   10.3540  -27.4540  -44.7650 C   0  0  0  0  0  0  0  0  0  0  0  0
    9.1240  -26.7900  -44.7050 C   0  0  0  0  0  0  0  0  0  0  0  0
    8.7460  -26.1830  -43.5450 C   0  0  0  0  0  0  0  0  0  0  0  0
    9.5240  -26.2010  -42.4370 C   0  0  0  0  0  0  0  0  0  0  0  0
   10.7640  -26.8690  -42.4880 C   0  0  0  0  0  0  0  0  0  0  0  0
    7.4250  -25.4740  -43.4960 C   0  0  0  0  0  0  0  0  0  0  0  0
    6.4190  -26.2300  -43.4910 O   0  0  0  0  0  0  0  0  0  0  0  0
    7.4360  -24.1200  -43.4640 N   0  0  0  0  0  0  0  0  0  0  0  0
    7.4480  -22.7500  -43.4320 C   0  0  0  0  0  0  0  0  0  0  0  0
    6.2070  -22.0610  -43.0810 C   0  0  0  0  0  0  0  0  0  0  0  0
    5.4190  -21.8240  -44.1050 O   0  0  0  0  0  0  0  0  0  0  0  0
    5.7080  -21.6120  -41.8670 N   0  0  0  0  0  0  0  0  0  0  0  0
    6.2580  -21.9450  -40.5940 C   0  0  0  0  0  0  0  0  0  0  0  0
    5.2360  -21.5330  -39.5110 C   0  0  0  0  0  0  0  0  0  0  0  0
    5.1960  -20.0170  -39.5160 C   0  0  0  0  0  0  0  0  0  0  0  0
    6.4720  -19.5190  -39.2030 N   0  0  0  0  0  0  0  0  0  0  0  0
    6.8740  -19.3610  -37.8710 C   0  0  0  0  0  0  0  0  0  0  0  0
    5.8530  -18.9170  -36.8920 C   0  0  0  0  0  0  0  0  0  0  0  0
    4.4630  -19.0760  -37.3680 C   0  0  0  0  0  0  0  0  0  0  0  0
    3.3240  -18.7630  -36.7210 N   0  0  0  0  0  0  0  0  0  0  0  0
    2.2960  -19.0720  -37.5170 C   0  0  0  0  0  0  0  0  0  0  0  0
    2.7910  -19.5810  -38.6680 N   0  0  0  0  0  0  0  0  0  0  0  0
    4.1350  -19.5910  -38.5910 C   0  0  0  0  0  0  0  0  0  0  0  0
    4.8650  -19.5690  -40.9500 C   0  0  0  0  0  0  0  0  0  0  0  0
    4.5290  -20.7320  -41.8420 C   0  0  0  0  0  0  0  0  0  0  0  0
   10.6510  -27.9330  -45.6820 H   0  0  0  0  0  0  0  0  0  0  0  0
    8.4720  -26.7440  -45.5590 H   0  0  0  0  0  0  0  0  0  0  0  0
    9.2600  -25.7330  -41.4960 H   0  0  0  0  0  0  0  0  0  0  0  0
   11.3960  -26.8900  -41.6130 H   0  0  0  0  0  0  0  0  0  0  0  0
    8.4720  -24.0830  -44.3700 H   0  0  0  0  0  0  0  0  0  0  0  0
    7.7760  -22.3330  -44.4620 H   0  0  0  0  0  0  0  0  0  0  0  0
    8.2920  -22.3050  -42.7830 H   0  0  0  0  0  0  0  0  0  0  0  0
    7.1810  -21.4160  -40.3750 H   0  0  0  0  0  0  0  0  0  0  0  0
    6.3640  -23.0670  -40.5500 H   0  0  0  0  0  0  0  0  0  0  0  0
    5.6080  -21.9070  -38.5360 H   0  0  0  0  0  0  0  0  0  0  0  0
    4.2860  -21.9920  -39.7680 H   0  0  0  0  0  0  0  0  0  0  0  0
    7.1650  -19.4320  -39.9370 H   0  0  0  0  0  0  0  0  0  0  0  0
    7.6960  -18.5810  -37.8600 H   0  0  0  0  0  0  0  0  0  0  0  0
    7.4070  -20.2970  -37.5280 H   0  0  0  0  0  0  0  0  0  0  0  0
    5.9780  -17.8250  -36.6280 H   0  0  0  0  0  0  0  0  0  0  0  0
    6.0260  -19.4420  -35.9160 H   0  0  0  0  0  0  0  0  0  0  0  0
    1.2440  -18.9400  -37.2920 H   0  0  0  0  0  0  0  0  0  0  0  0
    2.2230  -19.9090  -39.4700 H   0  0  0  0  0  0  0  0  0  0  0  0
    4.0290  -18.8330  -40.9540 H   0  0  0  0  0  0  0  0  0  0  0  0
    5.7410  -19.0390  -41.4140 H   0  0  0  0  0  0  0  0  0  0  0  0
    4.3520  -20.2970  -42.8620 H   0  0  0  0  0  0  0  0  0  0  0  0
    3.6340  -21.2810  -41.5410 H   0  0  0  0  0  0  0  0  0  0  0  0
  1  2  1  0  0  0  0
  2  7  1  0  0  0  0
  3  4  1  0  0  0  0
  3  2  2  0  0  0  0
  4  5  2  0  0  0  0
  5  8  1  0  0  0  0
  5  6  1  0  0  0  0
  6 30  1  0  0  0  0
  7  6  2  0  0  0  0
  7 31  1  0  0  0  0
  8  9  2  0  0  0  0
  8 10  1  0  0  0  0
 10 11  1  0  0  0  0
 11 12  1  0  0  0  0
 11 34  1  0  0  0  0
 12 14  1  0  0  0  0
 13 12  2  0  0  0  0
 14 27  1  0  0  0  0
 14 15  1  0  0  0  0
 15 36  1  0  0  0  0
 15 35  1  0  0  0  0
 15 16  1  0  0  0  0
 16 37  1  0  0  0  0
 17 16  1  0  0  0  0
 17 18  1  0  0  0  0
 17 25  1  0  0  0  0
 18 19  1  0  0  0  0
 19 40  1  0  0  0  0
 19 41  1  0  0  0  0
 19 20  1  0  0  0  0
 20 42  1  0  0  0  0
 20 43  1  0  0  0  0
 21 20  1  0  0  0  0
 21 22  1  0  0  0  0
 23 44  1  0  0  0  0
 23 22  2  0  0  0  0
 24 25  1  0  0  0  0
 24 23  1  0  0  0  0
 25 21  2  0  0  0  0
 26 17  1  0  0  0  0
 27 49  1  0  0  0  0
 27 26  1  0  0  0  0
 28  3  1  0  0  0  0
 29  4  1  0  0  0  0
 32 10  1  0  0  0  0
 33 11  1  0  0  0  0
 38 16  1  0  0  0  0
 39 18  1  0  0  0  0
 45 24  1  0  0  0  0
 46 26  1  0  0  0  0
 47 26  1  0  0  0  0
 48 27  1  0  0  0  0
M  END
>  <Pose>
1

>  <Score>
-5.15

$$$$
