
 OpenBabel03232221553D

 43 46  0  0  0  0  0  0  0  0999 V2000
   10.7990  -26.4160  -42.0670 B   0  0  0  0  0  0  0  0  0  0  0  0
    9.4450  -25.8700  -43.2930 C   0  0  0  0  0  0  0  0  0  0  0  0
    8.6230  -24.7730  -42.9950 C   0  0  0  0  0  0  0  0  0  0  0  0
    7.6520  -24.3890  -43.8870 C   0  0  0  0  0  0  0  0  0  0  0  0
    7.5070  -25.0920  -45.0540 C   0  0  0  0  0  0  0  0  0  0  0  0
    8.3230  -26.1880  -45.3600 C   0  0  0  0  0  0  0  0  0  0  0  0
    9.2920  -26.5650  -44.4620 C   0  0  0  0  0  0  0  0  0  0  0  0
    6.8110  -23.2830  -43.6050 N   0  0  0  0  0  0  0  0  0  0  0  0
    5.9600  -22.7020  -44.4570 N   0  0  0  0  0  0  0  0  0  0  0  0
    5.3360  -21.7030  -43.8740 N   0  0  0  0  0  0  0  0  0  0  0  0
    5.7610  -21.5940  -42.6080 C   0  0  0  0  0  0  0  0  0  0  0  0
    6.6890  -22.5980  -42.4560 C   0  0  0  0  0  0  0  0  0  0  0  0
    5.3270  -20.6100  -41.5900 C   0  0  0  0  0  0  0  0  0  0  0  0
    5.0340  -19.4500  -42.0480 O   0  0  0  0  0  0  0  0  0  0  0  0
    5.2290  -20.8790  -40.2240 N   0  0  0  0  0  0  0  0  0  0  0  0
    6.2680  -20.4390  -39.3350 C   0  0  0  0  0  0  0  0  0  0  0  0
    5.7000  -19.3860  -38.4240 C   0  0  0  0  0  0  0  0  0  0  0  0
    4.4190  -19.8140  -37.9390 N   0  0  0  0  0  0  0  0  0  0  0  0
    4.1250  -21.2510  -38.1050 C   0  0  0  0  0  0  0  0  0  0  0  0
    4.1400  -21.5880  -39.5900 C   0  0  0  0  0  0  0  0  0  0  0  0
    3.4270  -19.0370  -37.3410 C   0  0  0  0  0  0  0  0  0  0  0  0
    3.6540  -18.7160  -36.1040 O   0  0  0  0  0  0  0  0  0  0  0  0
    2.1740  -18.5240  -37.8810 C   0  0  0  0  0  0  0  0  0  0  0  0
    1.7290  -18.7130  -39.2620 C   0  0  0  0  0  0  0  0  0  0  0  0
    0.9590  -19.3460  -38.1060 C   0  0  0  0  0  0  0  0  0  0  0  0
    8.8060  -24.2760  -42.0540 H   0  0  0  0  0  0  0  0  0  0  0  0
    6.7660  -24.8450  -45.7970 H   0  0  0  0  0  0  0  0  0  0  0  0
    8.2140  -26.7450  -46.2760 H   0  0  0  0  0  0  0  0  0  0  0  0
    9.9320  -27.4200  -44.6960 H   0  0  0  0  0  0  0  0  0  0  0  0
    7.2360  -22.7980  -41.5480 H   0  0  0  0  0  0  0  0  0  0  0  0
    7.1820  -20.1080  -39.8620 H   0  0  0  0  0  0  0  0  0  0  0  0
    6.5780  -21.3380  -38.7550 H   0  0  0  0  0  0  0  0  0  0  0  0
    6.4110  -19.1690  -37.5810 H   0  0  0  0  0  0  0  0  0  0  0  0
    5.5480  -18.4400  -38.9810 H   0  0  0  0  0  0  0  0  0  0  0  0
    4.8740  -21.7920  -37.5180 H   0  0  0  0  0  0  0  0  0  0  0  0
    3.1090  -21.4180  -37.7430 H   0  0  0  0  0  0  0  0  0  0  0  0
    3.1950  -21.3400  -40.0740 H   0  0  0  0  0  0  0  0  0  0  0  0
    4.3340  -22.6630  -39.6820 H   0  0  0  0  0  0  0  0  0  0  0  0
    1.8650  -17.5030  -37.4350 H   0  0  0  0  0  0  0  0  0  0  0  0
    1.1810  -17.8670  -39.7920 H   0  0  0  0  0  0  0  0  0  0  0  0
    2.1780  -19.4010  -39.9930 H   0  0  0  0  0  0  0  0  0  0  0  0
    0.8920  -20.4170  -38.0230 H   0  0  0  0  0  0  0  0  0  0  0  0
   -0.0520  -18.8690  -37.9070 H   0  0  0  0  0  0  0  0  0  0  0  0
  2  3  1  0  0  0  0
  2  1  1  0  0  0  0
  3 26  1  0  0  0  0
  4  8  1  0  0  0  0
  4  3  2  0  0  0  0
  5  4  1  0  0  0  0
  6  5  2  0  0  0  0
  6  7  1  0  0  0  0
  7  2  2  0  0  0  0
  8 12  1  0  0  0  0
  9 10  2  0  0  0  0
  9  8  1  0  0  0  0
 10 11  1  0  0  0  0
 11 12  2  0  0  0  0
 11 13  1  0  0  0  0
 12 30  1  0  0  0  0
 13 15  1  0  0  0  0
 14 13  2  0  0  0  0
 15 20  1  0  0  0  0
 15 16  1  0  0  0  0
 16 32  1  0  0  0  0
 16 17  1  0  0  0  0
 17 18  1  0  0  0  0
 17 33  1  0  0  0  0
 18 21  1  0  0  0  0
 19 18  1  0  0  0  0
 19 36  1  0  0  0  0
 19 35  1  0  0  0  0
 20 19  1  0  0  0  0
 21 22  2  0  0  0  0
 23 39  1  0  0  0  0
 23 21  1  0  0  0  0
 24 25  1  0  0  0  0
 24 23  1  0  0  0  0
 25 42  1  0  0  0  0
 25 43  1  0  0  0  0
 25 23  1  0  0  0  0
 27  5  1  0  0  0  0
 28  6  1  0  0  0  0
 29  7  1  0  0  0  0
 31 16  1  0  0  0  0
 34 17  1  0  0  0  0
 37 20  1  0  0  0  0
 38 20  1  0  0  0  0
 40 24  1  0  0  0  0
 41 24  1  0  0  0  0
M  END
>  <Pose>
1

>  <Score>
-4.11

$$$$
