
 OpenBabel03232221553D

 46 49  0  0  1  0  0  0  0  0999 V2000
   12.6130  -22.6560  -44.6150 Cl  0  0  0  0  0  0  0  0  0  0  0  0
   11.6910  -23.9530  -43.9050 C   0  0  0  0  0  0  0  0  0  0  0  0
   12.3280  -24.8240  -43.0500 C   0  0  0  0  0  0  0  0  0  0  0  0
   11.5890  -25.8420  -42.4990 C   0  0  0  0  0  0  0  0  0  0  0  0
   10.2280  -25.9610  -42.8170 C   0  0  0  0  0  0  0  0  0  0  0  0
    9.5600  -25.1210  -43.6560 C   0  0  0  0  0  0  0  0  0  0  0  0
   10.3740  -24.0930  -44.1940 C   0  0  0  0  0  0  0  0  0  0  0  0
    8.1710  -25.1940  -44.0220 C   0  0  1  0  0  0  0  0  0  0  0  0
    7.6890  -26.4210  -44.0490 O   0  0  0  0  0  0  0  0  0  0  0  0
    7.2110  -24.1700  -44.3630 C   0  0  0  0  0  0  0  0  0  0  0  0
    6.2490  -23.7080  -43.4220 N   0  0  0  0  0  0  0  0  0  0  0  0
    4.9230  -24.0530  -43.3850 C   0  0  1  0  0  0  0  0  0  0  0  0
    4.3820  -23.3590  -42.3810 N   0  0  0  0  0  0  0  0  0  0  0  0
    5.2830  -22.5790  -41.7590 C   0  0  0  0  0  0  0  0  0  0  0  0
    6.4730  -22.8060  -42.4270 C   0  0  0  0  0  0  0  0  0  0  0  0
    5.1020  -21.6750  -40.6250 C   0  0  0  0  0  0  0  0  0  0  0  0
    6.0010  -21.5140  -39.6020 C   0  0  0  0  0  0  0  0  0  0  0  0
    5.7570  -20.6230  -38.5470 C   0  0  0  0  0  0  0  0  0  0  0  0
    4.6070  -19.8690  -38.4830 C   0  0  0  0  0  0  0  0  0  0  0  0
    3.6970  -20.0230  -39.5050 C   0  0  0  0  0  0  0  0  0  0  0  0
    3.9400  -20.9000  -40.5430 C   0  0  0  0  0  0  0  0  0  0  0  0
    4.3530  -18.9840  -37.4450 O   0  0  0  0  0  0  0  0  0  0  0  0
    3.1490  -19.0720  -36.7040 C   0  0  0  0  0  0  0  0  0  0  0  0
    2.9610  -23.6640  -42.2620 C   0  0  0  0  0  0  0  0  0  0  0  0
    2.7010  -24.7410  -43.2750 C   0  0  0  0  0  0  0  0  0  0  0  0
    3.9380  -24.9170  -44.0810 C   0  0  0  0  0  0  0  0  0  0  0  0
   14.0240  -24.6710  -42.6570 Cl  0  0  0  0  0  0  0  0  0  0  0  0
   12.0770  -26.5210  -41.8350 H   0  0  0  0  0  0  0  0  0  0  0  0
    9.7510  -26.7750  -42.3380 H   0  0  0  0  0  0  0  0  0  0  0  0
    9.9250  -23.3840  -44.8690 H   0  0  0  0  0  0  0  0  0  0  0  0
    7.7530  -23.2330  -44.7800 H   0  0  0  0  0  0  0  0  0  0  0  0
    6.6410  -24.4740  -45.3280 H   0  0  0  0  0  0  0  0  0  0  0  0
    7.4390  -22.3530  -42.2140 H   0  0  0  0  0  0  0  0  0  0  0  0
    6.9070  -22.0820  -39.6110 H   0  0  0  0  0  0  0  0  0  0  0  0
    6.4740  -20.5050  -37.7450 H   0  0  0  0  0  0  0  0  0  0  0  0
    2.7800  -19.4340  -39.4710 H   0  0  0  0  0  0  0  0  0  0  0  0
    3.2160  -21.0190  -41.3500 H   0  0  0  0  0  0  0  0  0  0  0  0
    3.2250  -19.9980  -36.0770 H   0  0  0  0  0  0  0  0  0  0  0  0
    3.0580  -18.1870  -36.0440 H   0  0  0  0  0  0  0  0  0  0  0  0
    2.2730  -19.1820  -37.3800 H   0  0  0  0  0  0  0  0  0  0  0  0
    2.7000  -24.0990  -41.2670 H   0  0  0  0  0  0  0  0  0  0  0  0
    2.3560  -22.7540  -42.4420 H   0  0  0  0  0  0  0  0  0  0  0  0
    2.4330  -25.7210  -42.8080 H   0  0  0  0  0  0  0  0  0  0  0  0
    1.8210  -24.4080  -43.8950 H   0  0  0  0  0  0  0  0  0  0  0  0
    4.3050  -25.9600  -44.1350 H   0  0  0  0  0  0  0  0  0  0  0  0
    3.7670  -24.5800  -45.1350 H   0  0  0  0  0  0  0  0  0  0  0  0
  1  2  1  0  0  0  0
  2  3  1  0  0  0  0
  3 27  1  0  0  0  0
  3  4  2  0  0  0  0
  4 28  1  0  0  0  0
  5  4  1  0  0  0  0
  5 29  1  0  0  0  0
  6  5  2  0  0  0  0
  7  2  2  0  0  0  0
  7  6  1  0  0  0  0
  8  9  1  1  0  0  0
  8  6  1  0  0  0  0
 10  8  1  0  0  0  0
 10 11  1  0  0  0  0
 11 12  1  0  0  0  0
 11 15  1  0  0  0  0
 12 26  1  6  0  0  0
 12 13  1  0  0  0  0
 13 24  1  0  0  0  0
 13 14  1  0  0  0  0
 14 16  1  0  0  0  0
 15 33  1  0  0  0  0
 15 14  2  0  0  0  0
 16 21  2  0  0  0  0
 16 17  1  0  0  0  0
 17 18  2  0  0  0  0
 18 19  1  0  0  0  0
 18 35  1  0  0  0  0
 19 22  1  0  0  0  0
 20 36  1  0  0  0  0
 20 19  2  0  0  0  0
 21 20  1  0  0  0  0
 22 23  1  0  0  0  0
 23 38  1  0  0  0  0
 23 39  1  0  0  0  0
 24 41  1  0  0  0  0
 25 43  1  0  0  0  0
 25 24  1  0  0  0  0
 26 25  1  0  0  0  0
 30  7  1  0  0  0  0
 31 10  1  0  0  0  0
 32 10  1  0  0  0  0
 34 17  1  0  0  0  0
 37 21  1  0  0  0  0
 40 23  1  0  0  0  0
 42 24  1  0  0  0  0
 44 25  1  0  0  0  0
 45 26  1  0  0  0  0
 46 26  1  0  0  0  0
M  END
>  <Pose>
1

>  <Score>
-4.57

$$$$
