
 OpenBabel03232221553D

 44 47  0  0  1  0  0  0  0  0999 V2000
    6.5440  -19.2660  -37.7280 Cl  0  0  0  0  0  0  0  0  0  0  0  0
    5.3010  -20.0040  -38.7150 C   0  0  0  0  0  0  0  0  0  0  0  0
    3.9980  -19.8570  -38.3380 C   0  0  0  0  0  0  0  0  0  0  0  0
    3.0010  -20.4270  -39.0940 C   0  0  0  0  0  0  0  0  0  0  0  0
    3.3460  -21.1500  -40.2400 C   0  0  0  0  0  0  0  0  0  0  0  0
    4.6580  -21.3020  -40.6260 C   0  0  0  0  0  0  0  0  0  0  0  0
    5.6280  -20.7270  -39.8580 C   0  0  0  0  0  0  0  0  0  0  0  0
    4.9470  -22.0860  -41.8260 C   0  0  0  0  0  0  0  0  0  0  0  0
    4.1210  -22.5190  -42.8130 N   0  0  0  0  0  0  0  0  0  0  0  0
    4.8290  -23.2060  -43.7160 C   0  0  2  0  0  0  0  0  0  0  0  0
    6.1450  -23.2450  -43.3440 N   0  0  0  0  0  0  0  0  0  0  0  0
    6.2000  -22.5570  -42.1910 C   0  0  0  0  0  0  0  0  0  0  0  0
    7.2270  -23.8460  -44.0690 C   0  0  0  0  0  0  0  0  0  0  0  0
    8.6040  -23.5300  -43.8070 C   0  0  2  0  0  0  0  0  0  0  0  0
    8.7980  -22.2490  -43.5100 O   0  0  0  0  0  0  0  0  0  0  0  0
    9.8250  -24.2960  -43.7950 C   0  0  0  0  0  0  0  0  0  0  0  0
    9.8840  -25.5080  -43.0710 C   0  0  0  0  0  0  0  0  0  0  0  0
   10.9970  -26.3050  -43.0010 C   0  0  0  0  0  0  0  0  0  0  0  0
   12.1110  -25.8710  -43.6900 C   0  0  0  0  0  0  0  0  0  0  0  0
   12.0790  -24.6940  -44.4030 C   0  0  0  0  0  0  0  0  0  0  0  0
   10.9420  -23.8860  -44.4700 C   0  0  0  0  0  0  0  0  0  0  0  0
   11.0350  -27.5150  -42.2690 N   0  0  0  0  0  0  0  0  0  0  0  0
   11.7040  -28.4610  -42.6990 O   0  0  0  0  0  0  0  0  0  0  0  0
   10.3520  -27.6710  -41.0980 O   0  0  0  0  0  0  0  0  0  0  0  0
    3.9640  -23.6870  -44.8160 C   0  0  0  0  0  0  0  0  0  0  0  0
    2.6080  -23.6650  -44.1660 C   0  0  0  0  0  0  0  0  0  0  0  0
    2.7130  -22.4950  -43.2150 C   0  0  0  0  0  0  0  0  0  0  0  0
    3.5410  -18.9500  -36.8950 Cl  0  0  0  0  0  0  0  0  0  0  0  0
    1.9830  -20.3010  -38.7820 H   0  0  0  0  0  0  0  0  0  0  0  0
    2.5170  -21.5720  -40.7900 H   0  0  0  0  0  0  0  0  0  0  0  0
    6.6820  -20.7940  -40.0650 H   0  0  0  0  0  0  0  0  0  0  0  0
    7.1220  -22.3980  -41.6210 H   0  0  0  0  0  0  0  0  0  0  0  0
    7.0390  -24.9730  -44.0130 H   0  0  0  0  0  0  0  0  0  0  0  0
    6.9790  -23.6360  -45.1640 H   0  0  0  0  0  0  0  0  0  0  0  0
    9.0050  -25.8540  -42.5240 H   0  0  0  0  0  0  0  0  0  0  0  0
   13.0000  -26.4940  -43.6420 H   0  0  0  0  0  0  0  0  0  0  0  0
   12.9690  -24.3580  -44.9460 H   0  0  0  0  0  0  0  0  0  0  0  0
   11.0150  -22.9910  -45.0510 H   0  0  0  0  0  0  0  0  0  0  0  0
    4.1820  -24.7280  -45.1090 H   0  0  0  0  0  0  0  0  0  0  0  0
    3.9860  -22.9980  -45.7030 H   0  0  0  0  0  0  0  0  0  0  0  0
    2.5070  -24.6150  -43.5960 H   0  0  0  0  0  0  0  0  0  0  0  0
    1.7770  -23.5220  -44.8880 H   0  0  0  0  0  0  0  0  0  0  0  0
    2.4690  -21.5790  -43.7920 H   0  0  0  0  0  0  0  0  0  0  0  0
    2.0240  -22.6470  -42.3480 H   0  0  0  0  0  0  0  0  0  0  0  0
  2  3  1  0  0  0  0
  2  1  1  0  0  0  0
  3 28  1  0  0  0  0
  4 29  1  0  0  0  0
  4  3  2  0  0  0  0
  5  4  1  0  0  0  0
  6  5  2  0  0  0  0
  6  7  1  0  0  0  0
  7  2  2  0  0  0  0
  8  6  1  0  0  0  0
  9  8  1  0  0  0  0
 10 25  1  6  0  0  0
 10 11  1  0  0  0  0
 10  9  1  0  0  0  0
 11 12  1  0  0  0  0
 12  8  2  0  0  0  0
 12 32  1  0  0  0  0
 13 33  1  0  0  0  0
 13 14  1  0  0  0  0
 13 11  1  0  0  0  0
 14 16  1  0  0  0  0
 14 15  1  6  0  0  0
 16 17  1  0  0  0  0
 17 18  2  0  0  0  0
 17 35  1  0  0  0  0
 18 22  1  0  0  0  0
 19 36  1  0  0  0  0
 19 18  1  0  0  0  0
 20 19  2  0  0  0  0
 21 20  1  0  0  0  0
 21 16  2  0  0  0  0
 22 24  2  0  0  0  0
 23 22  2  0  0  0  0
 25 26  1  0  0  0  0
 26 41  1  0  0  0  0
 26 27  1  0  0  0  0
 27  9  1  0  0  0  0
 27 44  1  0  0  0  0
 30  5  1  0  0  0  0
 31  7  1  0  0  0  0
 34 13  1  0  0  0  0
 37 20  1  0  0  0  0
 38 21  1  0  0  0  0
 39 25  1  0  0  0  0
 40 25  1  0  0  0  0
 42 26  1  0  0  0  0
 43 27  1  0  0  0  0
M  END
>  <Pose>
1

>  <Score>
-4.77

$$$$
