
 OpenBabel03232221553D

 44 47  0  0  1  0  0  0  0  0999 V2000
    0.9110  -16.8630  -36.6040 Cl  0  0  0  0  0  0  0  0  0  0  0  0
    0.6480  -18.2710  -37.5840 C   0  0  0  0  0  0  0  0  0  0  0  0
   -0.5600  -18.9160  -37.5720 C   0  0  0  0  0  0  0  0  0  0  0  0
   -0.7090  -20.0260  -38.3680 C   0  0  0  0  0  0  0  0  0  0  0  0
    0.3250  -20.4690  -39.1500 C   0  0  0  0  0  0  0  0  0  0  0  0
    1.5700  -19.8340  -39.1870 C   0  0  0  0  0  0  0  0  0  0  0  0
    1.6990  -18.7430  -38.3940 C   0  0  0  0  0  0  0  0  0  0  0  0
    2.6450  -20.3660  -40.0270 C   0  0  0  0  0  0  0  0  0  0  0  0
    3.8360  -20.8880  -39.6950 N   0  0  0  0  0  0  0  0  0  0  0  0
    4.4990  -21.2470  -40.8150 C   0  0  2  0  0  0  0  0  0  0  0  0
    3.7210  -20.9470  -41.8710 N   0  0  0  0  0  0  0  0  0  0  0  0
    2.5560  -20.3960  -41.4270 C   0  0  0  0  0  0  0  0  0  0  0  0
    4.0280  -21.1990  -43.2300 C   0  0  0  0  0  0  0  0  0  0  0  0
    5.3580  -21.1380  -43.7660 C   0  0  2  0  0  0  0  0  0  0  0  0
    5.5740  -20.0100  -44.4130 O   0  0  0  0  0  0  0  0  0  0  0  0
    6.4740  -22.0530  -43.7320 C   0  0  0  0  0  0  0  0  0  0  0  0
    6.3780  -23.4040  -43.5330 C   0  0  0  0  0  0  0  0  0  0  0  0
    7.5050  -24.2310  -43.5140 C   0  0  0  0  0  0  0  0  0  0  0  0
    8.7420  -23.7010  -43.6960 C   0  0  0  0  0  0  0  0  0  0  0  0
    8.8680  -22.3440  -43.8990 C   0  0  0  0  0  0  0  0  0  0  0  0
    7.7720  -21.5260  -43.9190 C   0  0  0  0  0  0  0  0  0  0  0  0
    7.3360  -25.6330  -43.3010 N   0  0  0  0  0  0  0  0  0  0  0  0
    8.1790  -26.2560  -42.6320 O   0  0  0  0  0  0  0  0  0  0  0  0
    6.2770  -26.3150  -43.8090 O   0  0  0  0  0  0  0  0  0  0  0  0
    5.8110  -21.8360  -40.4620 C   0  0  0  0  0  0  0  0  0  0  0  0
    6.0820  -21.0980  -39.1760 C   0  0  0  0  0  0  0  0  0  0  0  0
    4.6860  -21.1990  -38.5390 C   0  0  0  0  0  0  0  0  0  0  0  0
   -1.8870  -18.3580  -36.5780 Cl  0  0  0  0  0  0  0  0  0  0  0  0
   -1.6600  -20.5710  -38.3880 H   0  0  0  0  0  0  0  0  0  0  0  0
    0.1750  -21.3380  -39.7610 H   0  0  0  0  0  0  0  0  0  0  0  0
    2.6210  -18.2050  -38.3520 H   0  0  0  0  0  0  0  0  0  0  0  0
    1.7510  -20.0610  -42.0360 H   0  0  0  0  0  0  0  0  0  0  0  0
    3.3850  -20.5170  -43.8960 H   0  0  0  0  0  0  0  0  0  0  0  0
    3.6310  -22.2450  -43.4890 H   0  0  0  0  0  0  0  0  0  0  0  0
    5.4210  -23.8770  -43.3810 H   0  0  0  0  0  0  0  0  0  0  0  0
    9.6150  -24.3710  -43.6780 H   0  0  0  0  0  0  0  0  0  0  0  0
    9.8710  -21.9180  -44.0470 H   0  0  0  0  0  0  0  0  0  0  0  0
    7.9230  -20.4580  -44.0830 H   0  0  0  0  0  0  0  0  0  0  0  0
    5.6670  -22.9250  -40.2720 H   0  0  0  0  0  0  0  0  0  0  0  0
    6.5930  -21.6430  -41.2190 H   0  0  0  0  0  0  0  0  0  0  0  0
    6.2100  -20.0310  -39.4270 H   0  0  0  0  0  0  0  0  0  0  0  0
    6.8520  -21.5270  -38.5560 H   0  0  0  0  0  0  0  0  0  0  0  0
    4.5260  -22.2380  -38.2720 H   0  0  0  0  0  0  0  0  0  0  0  0
    4.6060  -20.4560  -37.7260 H   0  0  0  0  0  0  0  0  0  0  0  0
  2  3  1  0  0  0  0
  2  1  1  0  0  0  0
  3 28  1  0  0  0  0
  4  3  2  0  0  0  0
  5  4  1  0  0  0  0
  6  5  2  0  0  0  0
  6  7  1  0  0  0  0
  7 31  1  0  0  0  0
  7  2  2  0  0  0  0
  8  9  1  0  0  0  0
  8  6  1  0  0  0  0
  9 27  1  0  0  0  0
 10 11  1  1  0  0  0
 10 25  1  0  0  0  0
 10  9  1  0  0  0  0
 11 12  1  0  0  0  0
 12  8  2  0  0  0  0
 13 11  1  0  0  0  0
 14 15  1  6  0  0  0
 14 16  1  0  0  0  0
 14 13  1  0  0  0  0
 16 17  1  0  0  0  0
 17 18  2  0  0  0  0
 17 35  1  0  0  0  0
 18 22  1  0  0  0  0
 19 36  1  0  0  0  0
 19 18  1  0  0  0  0
 20 19  2  0  0  0  0
 21 20  1  0  0  0  0
 21 16  2  0  0  0  0
 22 23  2  0  0  0  0
 24 22  2  0  0  0  0
 25 39  1  0  0  0  0
 25 26  1  0  0  0  0
 26 42  1  0  0  0  0
 26 27  1  0  0  0  0
 27 43  1  0  0  0  0
 27 44  1  0  0  0  0
 29  4  1  0  0  0  0
 30  5  1  0  0  0  0
 32 12  1  0  0  0  0
 33 13  1  0  0  0  0
 34 13  1  0  0  0  0
 37 20  1  0  0  0  0
 38 21  1  0  0  0  0
 40 25  1  0  0  0  0
 41 26  1  0  0  0  0
M  END
>  <Pose>
1

>  <Score>
-4.91

$$$$
