
 OpenBabel03232221553D

 55 58  0  0  0  0  0  0  0  0999 V2000
    8.7770  -23.1580  -44.6250 S   0  0  0  0  0  0  0  0  0  0  0  0
    8.9650  -22.0460  -43.5880 O   0  0  0  0  0  0  0  0  0  0  0  0
    9.5960  -22.6610  -45.8190 O   0  0  0  0  0  0  0  0  0  0  0  0
    7.1770  -23.2230  -45.0340 N   0  0  0  0  0  0  0  0  0  0  0  0
    6.3110  -22.1350  -45.0010 C   0  0  0  0  0  0  0  0  0  0  0  0
    5.5390  -21.9300  -43.7370 C   0  0  0  0  0  0  0  0  0  0  0  0
    5.4550  -23.2560  -42.9840 C   0  0  0  0  0  0  0  0  0  0  0  0
    5.1830  -24.2830  -44.0950 C   0  0  0  0  0  0  0  0  0  0  0  0
    6.5290  -24.5020  -44.7680 C   0  0  0  0  0  0  0  0  0  0  0  0
    4.4070  -23.2530  -41.9780 C   0  0  0  0  0  0  0  0  0  0  0  0
    3.6020  -24.2190  -41.9170 O   0  0  0  0  0  0  0  0  0  0  0  0
    4.2680  -22.2020  -41.0660 N   0  0  0  0  0  0  0  0  0  0  0  0
    3.0290  -21.4300  -40.9190 C   0  0  0  0  0  0  0  0  0  0  0  0
    3.3550  -20.2730  -39.9980 C   0  0  0  0  0  0  0  0  0  0  0  0
    3.7500  -20.7640  -38.6920 N   0  0  0  0  0  0  0  0  0  0  0  0
    4.9200  -21.6200  -38.7800 C   0  0  0  0  0  0  0  0  0  0  0  0
    5.3590  -21.7980  -40.2240 C   0  0  0  0  0  0  0  0  0  0  0  0
    3.9840  -19.6700  -37.7750 C   0  0  0  0  0  0  0  0  0  0  0  0
    9.5240  -24.5690  -43.9350 C   0  0  0  0  0  0  0  0  0  0  0  0
   10.4460  -25.3010  -44.7020 C   0  0  0  0  0  0  0  0  0  0  0  0
   11.0370  -26.4500  -44.2460 C   0  0  0  0  0  0  0  0  0  0  0  0
   10.7340  -26.9170  -43.0040 C   0  0  0  0  0  0  0  0  0  0  0  0
    9.8410  -26.2440  -42.2090 C   0  0  0  0  0  0  0  0  0  0  0  0
    9.2540  -25.0750  -42.6970 C   0  0  0  0  0  0  0  0  0  0  0  0
    8.1800  -24.2130  -41.6080 Cl  0  0  0  0  0  0  0  0  0  0  0  0
   11.3600  -28.1270  -42.5450 N   0  0  0  0  0  0  0  0  0  0  0  0
   12.2750  -28.8040  -43.3900 C   0  0  0  0  0  0  0  0  0  0  0  0
   13.1140  -29.6100  -42.9360 O   0  0  0  0  0  0  0  0  0  0  0  0
   12.2010  -28.5200  -44.8470 C   0  0  0  0  0  0  0  0  0  0  0  0
   11.9520  -27.1530  -45.0410 O   0  0  0  0  0  0  0  0  0  0  0  0
    6.7760  -21.2010  -45.3170 H   0  0  0  0  0  0  0  0  0  0  0  0
    5.5440  -22.3230  -45.8490 H   0  0  0  0  0  0  0  0  0  0  0  0
    4.4830  -21.6670  -43.9970 H   0  0  0  0  0  0  0  0  0  0  0  0
    5.8940  -21.1350  -43.0770 H   0  0  0  0  0  0  0  0  0  0  0  0
    6.4520  -23.4630  -42.5630 H   0  0  0  0  0  0  0  0  0  0  0  0
    4.7490  -25.2090  -43.7350 H   0  0  0  0  0  0  0  0  0  0  0  0
    4.5070  -23.7510  -44.8240 H   0  0  0  0  0  0  0  0  0  0  0  0
    6.4280  -25.1310  -45.6680 H   0  0  0  0  0  0  0  0  0  0  0  0
    7.1670  -25.0450  -44.0460 H   0  0  0  0  0  0  0  0  0  0  0  0
    2.3000  -22.1140  -40.3910 H   0  0  0  0  0  0  0  0  0  0  0  0
    2.6550  -21.0940  -41.8870 H   0  0  0  0  0  0  0  0  0  0  0  0
    4.1680  -19.6760  -40.4970 H   0  0  0  0  0  0  0  0  0  0  0  0
    2.4600  -19.6300  -39.9040 H   0  0  0  0  0  0  0  0  0  0  0  0
    4.7140  -22.6080  -38.3490 H   0  0  0  0  0  0  0  0  0  0  0  0
    5.7530  -21.1000  -38.2660 H   0  0  0  0  0  0  0  0  0  0  0  0
    5.8070  -20.8550  -40.6220 H   0  0  0  0  0  0  0  0  0  0  0  0
    6.1520  -22.5440  -40.2570 H   0  0  0  0  0  0  0  0  0  0  0  0
    4.0560  -20.0960  -36.7570 H   0  0  0  0  0  0  0  0  0  0  0  0
    3.1280  -18.9790  -37.7960 H   0  0  0  0  0  0  0  0  0  0  0  0
    4.9590  -19.1560  -37.9720 H   0  0  0  0  0  0  0  0  0  0  0  0
   10.6810  -24.9170  -45.6960 H   0  0  0  0  0  0  0  0  0  0  0  0
    9.6000  -26.6070  -41.2350 H   0  0  0  0  0  0  0  0  0  0  0  0
   11.1350  -28.4900  -41.5980 H   0  0  0  0  0  0  0  0  0  0  0  0
   13.1490  -28.8020  -45.3560 H   0  0  0  0  0  0  0  0  0  0  0  0
   11.3830  -29.0820  -45.3210 H   0  0  0  0  0  0  0  0  0  0  0  0
  1 19  1  0  0  0  0
  1  2  2  0  0  0  0
  3  1  2  0  0  0  0
  4  5  1  0  0  0  0
  4  9  1  0  0  0  0
  4  1  1  0  0  0  0
  5  6  1  0  0  0  0
  6 34  1  0  0  0  0
  6  7  1  0  0  0  0
  7 35  1  0  0  0  0
  7 10  1  0  0  0  0
  8 36  1  0  0  0  0
  8  7  1  0  0  0  0
  9  8  1  0  0  0  0
  9 39  1  0  0  0  0
 10 11  2  0  0  0  0
 10 12  1  0  0  0  0
 12 13  1  0  0  0  0
 12 17  1  0  0  0  0
 13 40  1  0  0  0  0
 13 14  1  0  0  0  0
 14 43  1  0  0  0  0
 14 15  1  0  0  0  0
 15 18  1  0  0  0  0
 16 15  1  0  0  0  0
 16 44  1  0  0  0  0
 16 45  1  0  0  0  0
 17 16  1  0  0  0  0
 18 48  1  0  0  0  0
 19 24  1  0  0  0  0
 20 21  1  0  0  0  0
 20 19  2  0  0  0  0
 21 22  2  0  0  0  0
 22 26  1  0  0  0  0
 22 23  1  0  0  0  0
 23 52  1  0  0  0  0
 24 23  2  0  0  0  0
 24 25  1  0  0  0  0
 26 53  1  0  0  0  0
 27 28  2  0  0  0  0
 27 26  1  0  0  0  0
 29 27  1  0  0  0  0
 30 29  1  0  0  0  0
 30 21  1  0  0  0  0
 31  5  1  0  0  0  0
 32  5  1  0  0  0  0
 33  6  1  0  0  0  0
 37  8  1  0  0  0  0
 38  9  1  0  0  0  0
 41 13  1  0  0  0  0
 42 14  1  0  0  0  0
 46 17  1  0  0  0  0
 47 17  1  0  0  0  0
 49 18  1  0  0  0  0
 50 18  1  0  0  0  0
 51 20  1  0  0  0  0
 54 29  1  0  0  0  0
 55 29  1  0  0  0  0
M  END
>  <Pose>
1

>  <Score>
-4.28

$$$$
