
 OpenBabel03232221553D

 60 63  0  0  1  0  0  0  0  0999 V2000
    5.0010  -29.0590  -45.7300 Cl  0  0  0  0  0  0  0  0  0  0  0  0
    5.9470  -27.5780  -45.5950 C   0  0  0  0  0  0  0  0  0  0  0  0
    5.4720  -26.4850  -44.8920 C   0  0  0  0  0  0  0  0  0  0  0  0
    6.2240  -25.3340  -44.7960 C   0  0  0  0  0  0  0  0  0  0  0  0
    7.4660  -25.2030  -45.3780 C   0  0  0  0  0  0  0  0  0  0  0  0
    7.9310  -26.3190  -46.0850 C   0  0  0  0  0  0  0  0  0  0  0  0
    7.1830  -27.4690  -46.1830 C   0  0  0  0  0  0  0  0  0  0  0  0
    8.2530  -23.9520  -45.2580 C   0  0  2  0  0  0  0  0  0  0  0  0
    9.5550  -24.3480  -44.7040 N   0  0  0  0  0  0  0  0  0  0  0  0
    9.2900  -24.6820  -43.3490 C   0  0  0  0  0  0  0  0  0  0  0  0
    9.9240  -25.4830  -42.6420 O   0  0  0  0  0  0  0  0  0  0  0  0
    8.1250  -23.8970  -42.9550 C   0  0  0  0  0  0  0  0  0  0  0  0
    7.5040  -23.8440  -41.8520 O   0  0  0  0  0  0  0  0  0  0  0  0
    7.7450  -23.1090  -44.1370 C   0  0  0  0  0  0  0  0  0  0  0  0
    7.0910  -21.9630  -44.1430 C   0  0  0  0  0  0  0  0  0  0  0  0
    6.7820  -21.3820  -45.3760 O   0  0  0  0  0  0  0  0  0  0  0  0
    6.6820  -21.2770  -42.9270 C   0  0  0  0  0  0  0  0  0  0  0  0
    5.9180  -21.8960  -41.9510 C   0  0  0  0  0  0  0  0  0  0  0  0
    5.5100  -21.2340  -40.8120 C   0  0  0  0  0  0  0  0  0  0  0  0
    5.8550  -19.9070  -40.6010 C   0  0  0  0  0  0  0  0  0  0  0  0
    6.6140  -19.2800  -41.5630 C   0  0  0  0  0  0  0  0  0  0  0  0
    7.0210  -19.9610  -42.7140 C   0  0  0  0  0  0  0  0  0  0  0  0
    5.4520  -19.2240  -39.4560 O   0  0  0  0  0  0  0  0  0  0  0  0
    6.2100  -19.3520  -38.2860 C   0  0  0  0  0  0  0  0  0  0  0  0
    4.6950  -21.9360  -39.7960 C   0  0  0  0  0  0  0  0  0  0  0  0
   10.8370  -24.3900  -45.4070 C   0  0  0  0  0  0  0  0  0  0  0  0
   11.7950  -23.5390  -44.6060 C   0  0  0  0  0  0  0  0  0  0  0  0
   13.0950  -24.1400  -44.4810 N   0  0  0  0  0  4  0  0  0  0  0  0
   13.1450  -25.0240  -43.3620 C   0  0  0  0  0  0  0  0  0  0  0  0
   13.7020  -24.4540  -42.1000 C   0  0  0  0  0  0  0  0  0  0  0  0
   14.6770  -23.5080  -42.2660 O   0  0  0  0  0  0  0  0  0  0  0  0
   14.3030  -22.4780  -43.1190 C   0  0  0  0  0  0  0  0  0  0  0  0
   14.0820  -23.0970  -44.4750 C   0  0  0  0  0  0  0  0  0  0  0  0
    4.5030  -26.5500  -44.4230 H   0  0  0  0  0  0  0  0  0  0  0  0
    5.8720  -24.4500  -44.2450 H   0  0  0  0  0  0  0  0  0  0  0  0
    8.9060  -26.2070  -46.5380 H   0  0  0  0  0  0  0  0  0  0  0  0
    7.5620  -28.3120  -46.7300 H   0  0  0  0  0  0  0  0  0  0  0  0
    8.3540  -23.4050  -46.1990 H   0  0  0  0  0  0  0  0  0  0  0  0
    5.6590  -22.9480  -42.1420 H   0  0  0  0  0  0  0  0  0  0  0  0
    6.8930  -18.2280  -41.4080 H   0  0  0  0  0  0  0  0  0  0  0  0
    7.5980  -19.4120  -43.4390 H   0  0  0  0  0  0  0  0  0  0  0  0
    6.1930  -20.4210  -37.9250 H   0  0  0  0  0  0  0  0  0  0  0  0
    5.7590  -18.7720  -37.4510 H   0  0  0  0  0  0  0  0  0  0  0  0
    7.2560  -18.9990  -38.4010 H   0  0  0  0  0  0  0  0  0  0  0  0
    3.5960  -21.7300  -39.9530 H   0  0  0  0  0  0  0  0  0  0  0  0
    4.9230  -21.5980  -38.7670 H   0  0  0  0  0  0  0  0  0  0  0  0
    4.8280  -23.0410  -39.8700 H   0  0  0  0  0  0  0  0  0  0  0  0
   10.7630  -23.9530  -46.4170 H   0  0  0  0  0  0  0  0  0  0  0  0
   11.1530  -25.4270  -45.5000 H   0  0  0  0  0  0  0  0  0  0  0  0
   11.9120  -22.5450  -45.0760 H   0  0  0  0  0  0  0  0  0  0  0  0
   11.4270  -23.3500  -43.5720 H   0  0  0  0  0  0  0  0  0  0  0  0
   13.2200  -24.7280  -45.3530 H   0  0  0  0  0  0  0  0  0  0  0  0
   13.8030  -25.9020  -43.6370 H   0  0  0  0  0  0  0  0  0  0  0  0
   12.1330  -25.4910  -43.2090 H   0  0  0  0  0  0  0  0  0  0  0  0
   14.1100  -25.2610  -41.4430 H   0  0  0  0  0  0  0  0  0  0  0  0
   12.8460  -24.0050  -41.5160 H   0  0  0  0  0  0  0  0  0  0  0  0
   15.2120  -21.8220  -43.2190 H   0  0  0  0  0  0  0  0  0  0  0  0
   13.4400  -21.9040  -42.7520 H   0  0  0  0  0  0  0  0  0  0  0  0
   13.8090  -22.2520  -45.1570 H   0  0  0  0  0  0  0  0  0  0  0  0
   15.0790  -23.4480  -44.8350 H   0  0  0  0  0  0  0  0  0  0  0  0
  1  2  1  0  0  0  0
  2  3  1  0  0  0  0
  3  4  2  0  0  0  0
  3 34  1  0  0  0  0
  4 35  1  0  0  0  0
  5  8  1  0  0  0  0
  5  4  1  0  0  0  0
  6  5  2  0  0  0  0
  7  6  1  0  0  0  0
  7  2  2  0  0  0  0
  8 38  1  6  0  0  0
  8  9  1  0  0  0  0
  8 14  1  0  0  0  0
  9 10  1  0  0  0  0
 10 12  1  0  0  0  0
 10 11  2  0  0  0  0
 12 13  2  0  0  0  0
 14 12  1  0  0  0  0
 15 14  2  0  0  0  0
 15 17  1  0  0  0  0
 16 15  1  0  0  0  0
 17 22  2  0  0  0  0
 17 18  1  0  0  0  0
 18 19  2  0  0  0  0
 19 20  1  0  0  0  0
 19 25  1  0  0  0  0
 20 23  1  0  0  0  0
 21 40  1  0  0  0  0
 21 20  2  0  0  0  0
 22 21  1  0  0  0  0
 23 24  1  0  0  0  0
 24 42  1  0  0  0  0
 24 43  1  0  0  0  0
 25 46  1  0  0  0  0
 26  9  1  0  0  0  0
 26 27  1  0  0  0  0
 27 28  1  0  0  0  0
 27 51  1  0  0  0  0
 28 33  1  0  0  0  0
 28 29  1  0  0  0  0
 29 54  1  0  0  0  0
 29 30  1  0  0  0  0
 30 56  1  0  0  0  0
 30 55  1  0  0  0  0
 31 30  1  0  0  0  0
 32 58  1  0  0  0  0
 32 31  1  0  0  0  0
 33 32  1  0  0  0  0
 36  6  1  0  0  0  0
 37  7  1  0  0  0  0
 39 18  1  0  0  0  0
 41 22  1  0  0  0  0
 44 24  1  0  0  0  0
 45 25  1  0  0  0  0
 47 25  1  0  0  0  0
 48 26  1  0  0  0  0
 49 26  1  0  0  0  0
 50 27  1  0  0  0  0
 52 28  1  0  0  0  0
 53 29  1  0  0  0  0
 57 32  1  0  0  0  0
 59 33  1  0  0  0  0
 60 33  1  0  0  0  0
M  END
>  <Pose>
1

>  <Score>
-3.53

$$$$
