
 OpenBabel03232221553D

 36 39  0  0  1  0  0  0  0  0999 V2000
    1.2910  -25.1400  -44.8130 Cl  0  0  0  0  0  0  0  0  0  0  0  0
    2.3950  -24.3290  -43.7120 C   0  0  0  0  0  0  0  0  0  0  0  0
    2.0600  -23.1590  -43.0670 C   0  0  0  0  0  0  0  0  0  0  0  0
    2.9210  -22.5310  -42.2130 N   0  0  0  0  0  0  0  0  0  0  0  0
    4.1450  -23.0290  -41.9580 C   0  0  0  0  0  0  0  0  0  0  0  0
    5.0010  -22.4060  -41.1100 N   0  0  0  0  0  0  0  0  0  0  0  0
    4.6660  -21.2600  -40.4810 C   0  0  0  0  0  0  0  0  0  0  0  0
    3.4320  -20.7270  -40.7160 C   0  0  2  0  0  0  0  0  0  0  0  0
    3.0080  -19.4570  -40.0440 C   0  0  0  0  0  0  0  0  0  0  0  0
    3.7720  -19.4230  -38.7850 N   0  0  0  0  0  0  0  0  0  0  0  0
    5.1950  -19.3780  -38.9690 C   0  0  0  0  0  0  0  0  0  0  0  0
    5.6930  -20.6780  -39.5770 C   0  0  0  0  0  0  0  0  0  0  0  0
    3.0570  -19.4380  -37.5910 C   0  0  0  0  0  0  0  0  0  0  0  0
    3.1520  -20.4660  -36.8340 O   0  0  0  0  0  0  0  0  0  0  0  0
    2.1810  -18.3670  -37.1010 C   0  0  0  0  0  0  0  0  0  0  0  0
    2.4700  -17.6480  -36.0130 N   0  0  0  0  0  0  0  0  0  0  0  0
    1.6670  -16.6740  -35.5740 C   0  0  0  0  0  0  0  0  0  0  0  0
    0.4910  -16.3550  -36.2200 C   0  0  0  0  0  0  0  0  0  0  0  0
    0.2160  -17.0890  -37.3130 N   0  0  0  0  0  0  0  0  0  0  0  0
    1.0000  -18.0650  -37.7710 C   0  0  0  0  0  0  0  0  0  0  0  0
    2.5800  -21.3890  -41.5890 C   0  0  0  0  0  0  0  0  0  0  0  0
    1.4500  -20.9100  -41.8100 O   0  0  0  0  0  0  0  0  0  0  0  0
    4.4900  -24.2060  -42.6030 C   0  0  0  0  0  0  0  0  0  0  0  0
    3.6430  -24.8630  -43.4710 C   0  0  0  0  0  0  0  0  0  0  0  0
    1.0980  -22.7060  -43.2240 H   0  0  0  0  0  0  0  0  0  0  0  0
    1.9250  -19.4350  -39.8640 H   0  0  0  0  0  0  0  0  0  0  0  0
    3.3420  -18.6350  -40.7250 H   0  0  0  0  0  0  0  0  0  0  0  0
    5.7900  -19.0370  -38.1350 H   0  0  0  0  0  0  0  0  0  0  0  0
    5.3720  -18.6110  -39.7890 H   0  0  0  0  0  0  0  0  0  0  0  0
    5.9610  -21.3600  -38.7600 H   0  0  0  0  0  0  0  0  0  0  0  0
    6.6210  -20.4640  -40.1510 H   0  0  0  0  0  0  0  0  0  0  0  0
    1.9120  -16.0950  -34.6870 H   0  0  0  0  0  0  0  0  0  0  0  0
   -0.1650  -15.5640  -35.8660 H   0  0  0  0  0  0  0  0  0  0  0  0
    0.7370  -18.6150  -38.6400 H   0  0  0  0  0  0  0  0  0  0  0  0
    5.4710  -24.6190  -42.4110 H   0  0  0  0  0  0  0  0  0  0  0  0
    3.9150  -25.7850  -43.9760 H   0  0  0  0  0  0  0  0  0  0  0  0
  1  2  1  0  0  0  0
  2 24  2  0  0  0  0
  2  3  1  0  0  0  0
  3  4  1  0  0  0  0
  4  5  1  0  0  0  0
  4 21  1  0  0  0  0
  5  6  1  0  0  0  0
  6  7  2  0  0  0  0
  7 12  1  0  0  0  0
  8 21  1  1  0  0  0
  8  7  1  0  0  0  0
  8  9  1  0  0  0  0
  9 26  1  0  0  0  0
  9 10  1  0  0  0  0
 10 13  1  0  0  0  0
 11 10  1  0  0  0  0
 11 28  1  0  0  0  0
 12 11  1  0  0  0  0
 12 30  1  0  0  0  0
 13 15  1  0  0  0  0
 13 14  2  0  0  0  0
 15 16  1  0  0  0  0
 16 17  2  0  0  0  0
 17 32  1  0  0  0  0
 18 33  1  0  0  0  0
 18 17  1  0  0  0  0
 19 18  2  0  0  0  0
 20 19  1  0  0  0  0
 20 15  2  0  0  0  0
 22 21  2  0  0  0  0
 23 35  1  0  0  0  0
 23  5  2  0  0  0  0
 24 23  1  0  0  0  0
 25  3  1  0  0  0  0
 27  9  1  0  0  0  0
 29 11  1  0  0  0  0
 31 12  1  0  0  0  0
 34 20  1  0  0  0  0
 36 24  1  0  0  0  0
M  END
>  <Pose>
1

>  <Score>
-3.99

$$$$
