
 OpenBabel03232221553D

 39 42  0  0  1  0  0  0  0  0999 V2000
    1.3390  -12.7380  -36.8010 B   0  0  0  0  0  0  0  0  0  0  0  0
    1.4050  -14.3610  -37.8120 C   0  0  0  0  0  0  0  0  0  0  0  0
    1.3840  -15.5970  -37.1580 C   0  0  0  0  0  0  0  0  0  0  0  0
    1.4280  -16.7770  -37.8770 C   0  0  0  0  0  0  0  0  0  0  0  0
    1.4910  -16.6890  -39.2530 C   0  0  0  0  0  0  0  0  0  0  0  0
    1.5100  -15.4580  -39.8950 C   0  0  0  0  0  0  0  0  0  0  0  0
    1.4670  -14.2850  -39.1760 C   0  0  0  0  0  0  0  0  0  0  0  0
    1.5960  -15.3940  -41.8180 B   0  0  0  0  0  0  0  0  0  0  0  0
    1.4160  -18.1240  -37.1980 C   0  0  1  0  0  0  0  0  0  0  0  0
    0.1990  -18.7820  -37.4950 N   0  0  0  0  0  4  0  0  0  0  0  0
    0.2870  -20.1450  -37.9300 C   0  0  2  0  0  0  0  0  0  0  0  0
    1.2440  -20.2260  -39.1320 C   0  0  0  0  0  0  0  0  0  0  0  0
    2.5500  -19.8320  -38.5690 C   0  0  0  0  0  0  0  0  0  0  0  0
    3.8300  -20.3130  -38.7940 C   0  0  0  0  0  0  0  0  0  0  0  0
    4.6700  -19.5780  -37.9860 C   0  0  0  0  0  0  0  0  0  0  0  0
    3.9530  -18.6820  -37.2910 N   0  0  0  0  0  0  0  0  0  0  0  0
    2.6350  -18.8350  -37.6480 C   0  0  0  0  0  0  0  0  0  0  0  0
    6.0210  -19.8710  -38.0250 C   0  0  0  0  0  0  0  0  0  0  0  0
    6.4610  -20.8690  -38.8590 C   0  0  0  0  0  0  0  0  0  0  0  0
    5.6190  -21.6020  -39.6640 C   0  0  0  0  0  0  0  0  0  0  0  0
    4.2560  -21.3180  -39.6350 C   0  0  0  0  0  0  0  0  0  0  0  0
   -1.0550  -20.6430  -38.2940 C   0  0  0  0  0  0  0  0  0  0  0  0
   -1.2120  -21.8730  -38.5070 O   0  0  0  0  0  0  0  0  0  0  0  0
   -2.1100  -19.7510  -38.3940 O   0  0  0  0  0  0  0  0  0  0  0  0
    1.3200  -15.5560  -35.7900 O   0  0  0  0  0  0  0  0  0  0  0  0
    1.5300  -17.5860  -39.8740 H   0  0  0  0  0  0  0  0  0  0  0  0
    1.4800  -13.3140  -39.6700 H   0  0  0  0  0  0  0  0  0  0  0  0
    1.5250  -17.8890  -36.1020 H   0  0  0  0  0  0  0  0  0  0  0  0
   -0.3930  -18.7800  -36.6040 H   0  0  0  0  0  0  0  0  0  0  0  0
   -0.4000  -18.2840  -38.2010 H   0  0  0  0  0  0  0  0  0  0  0  0
    0.7280  -20.7430  -37.1000 H   0  0  0  0  0  0  0  0  0  0  0  0
    1.2410  -21.2620  -39.5260 H   0  0  0  0  0  0  0  0  0  0  0  0
    0.8370  -19.5030  -39.8630 H   0  0  0  0  0  0  0  0  0  0  0  0
    4.2820  -17.9700  -36.5900 H   0  0  0  0  0  0  0  0  0  0  0  0
    6.6890  -19.2920  -37.3900 H   0  0  0  0  0  0  0  0  0  0  0  0
    7.5340  -21.0930  -38.8820 H   0  0  0  0  0  0  0  0  0  0  0  0
    5.9780  -22.4020  -40.3300 H   0  0  0  0  0  0  0  0  0  0  0  0
    3.5420  -21.8560  -40.2420 H   0  0  0  0  0  0  0  0  0  0  0  0
    1.9990  -15.1960  -35.1780 H   0  0  0  0  0  0  0  0  0  0  0  0
  2  3  1  0  0  0  0
  2  1  1  0  0  0  0
  3 25  1  0  0  0  0
  4  9  1  0  0  0  0
  4  3  2  0  0  0  0
  5  4  1  0  0  0  0
  6  5  2  0  0  0  0
  6  7  1  0  0  0  0
  7  2  2  0  0  0  0
  8  6  1  0  0  0  0
  9 28  1  1  0  0  0
 10  9  1  0  0  0  0
 10 29  1  0  0  0  0
 11 10  1  0  0  0  0
 11 31  1  1  0  0  0
 12 13  1  0  0  0  0
 12 11  1  0  0  0  0
 13 17  2  0  0  0  0
 14 13  1  0  0  0  0
 14 15  1  0  0  0  0
 15 16  1  0  0  0  0
 16 34  1  0  0  0  0
 17 16  1  0  0  0  0
 17  9  1  0  0  0  0
 18 15  2  0  0  0  0
 18 35  1  0  0  0  0
 19 18  1  0  0  0  0
 20 21  1  0  0  0  0
 20 19  2  0  0  0  0
 21 14  2  0  0  0  0
 22 11  1  0  0  0  0
 23 22  2  0  0  0  0
 24 22  1  0  0  0  0
 25 39  1  0  0  0  0
 26  5  1  0  0  0  0
 27  7  1  0  0  0  0
 30 10  1  0  0  0  0
 32 12  1  0  0  0  0
 33 12  1  0  0  0  0
 36 19  1  0  0  0  0
 37 20  1  0  0  0  0
 38 21  1  0  0  0  0
M  END
>  <Pose>
1

>  <Score>
-4.47

$$$$
