
 OpenBabel03232221553D

 56 59  0  0  0  0  0  0  0  0999 V2000
   13.7460  -11.2340  -41.1470 Cl  0  0  0  0  0  0  0  0  0  0  0  0
   12.1530  -11.8960  -41.2130 C   0  0  0  0  0  0  0  0  0  0  0  0
   12.0020  -13.2390  -41.4850 C   0  0  0  0  0  0  0  0  0  0  0  0
   10.6910  -13.7100  -41.5220 C   0  0  0  0  0  0  0  0  0  0  0  0
    9.6160  -12.8720  -41.2990 C   0  0  0  0  0  0  0  0  0  0  0  0
    9.8150  -11.5430  -41.0340 C   0  0  0  0  0  0  0  0  0  0  0  0
   11.0820  -11.0530  -40.9900 C   0  0  0  0  0  0  0  0  0  0  0  0
   13.0560  -14.1250  -41.7180 N   0  0  0  0  0  0  0  0  0  0  0  0
   14.0090  -14.5870  -40.7320 C   0  0  0  0  0  0  0  0  0  0  0  0
   14.6780  -15.8530  -41.2630 C   0  0  0  0  0  0  0  0  0  0  0  0
   13.6820  -16.6870  -41.9160 N   0  0  0  0  0  0  0  0  0  0  0  0
   12.9220  -16.1260  -43.0080 C   0  0  0  0  0  0  0  0  0  0  0  0
   13.2300  -14.6500  -43.0810 C   0  0  0  0  0  0  0  0  0  0  0  0
   13.4450  -18.0290  -41.5050 C   0  0  0  0  0  0  0  0  0  0  0  0
   13.0800  -18.2330  -40.3050 O   0  0  0  0  0  0  0  0  0  0  0  0
   13.5990  -19.1960  -42.3810 C   0  0  0  0  0  0  0  0  0  0  0  0
   12.3350  -19.6750  -42.9380 N   0  0  0  0  0  0  0  0  0  0  0  0
   11.1510  -19.0960  -42.9460 N   0  0  0  0  0  0  0  0  0  0  0  0
   10.2170  -19.8320  -43.5510 C   0  0  0  0  0  0  0  0  0  0  0  0
   10.8480  -20.9880  -43.9730 C   0  0  0  0  0  0  0  0  0  0  0  0
   12.1620  -20.8640  -43.5790 C   0  0  0  0  0  0  0  0  0  0  0  0
   13.2140  -21.8740  -43.8210 C   0  0  0  0  0  0  0  0  0  0  0  0
    8.7960  -19.4810  -43.7350 C   0  0  0  0  0  0  0  0  0  0  0  0
    7.9660  -20.3650  -44.0250 O   0  0  0  0  0  0  0  0  0  0  0  0
    8.3990  -18.1360  -43.5750 N   0  0  0  0  0  0  0  0  0  0  0  0
    9.0640  -17.0240  -44.1940 C   0  0  0  0  0  0  0  0  0  0  0  0
    8.2190  -15.7840  -43.8750 C   0  0  0  0  0  0  0  0  0  0  0  0
    6.9030  -15.9740  -44.2350 O   0  0  0  0  0  0  0  0  0  0  0  0
    6.2800  -17.0010  -43.5670 C   0  0  0  0  0  0  0  0  0  0  0  0
    7.2420  -17.8220  -42.7320 C   0  0  0  0  0  0  0  0  0  0  0  0
   10.4820  -14.7400  -41.7260 H   0  0  0  0  0  0  0  0  0  0  0  0
    8.6030  -13.2510  -41.3320 H   0  0  0  0  0  0  0  0  0  0  0  0
    8.9500  -10.8840  -40.8580 H   0  0  0  0  0  0  0  0  0  0  0  0
   11.2580   -9.9910  -40.7780 H   0  0  0  0  0  0  0  0  0  0  0  0
   14.8160  -13.8650  -40.5380 H   0  0  0  0  0  0  0  0  0  0  0  0
   13.4780  -14.9040  -39.8110 H   0  0  0  0  0  0  0  0  0  0  0  0
   15.0400  -16.4110  -40.3770 H   0  0  0  0  0  0  0  0  0  0  0  0
   15.5170  -15.6120  -41.9440 H   0  0  0  0  0  0  0  0  0  0  0  0
   13.1130  -16.6420  -43.9680 H   0  0  0  0  0  0  0  0  0  0  0  0
   11.8290  -16.1790  -42.7450 H   0  0  0  0  0  0  0  0  0  0  0  0
   14.3130  -14.5300  -43.3380 H   0  0  0  0  0  0  0  0  0  0  0  0
   12.5770  -14.1180  -43.8020 H   0  0  0  0  0  0  0  0  0  0  0  0
   14.1130  -20.0380  -41.8750 H   0  0  0  0  0  0  0  0  0  0  0  0
   14.2210  -18.8960  -43.2460 H   0  0  0  0  0  0  0  0  0  0  0  0
   10.3900  -21.8080  -44.5000 H   0  0  0  0  0  0  0  0  0  0  0  0
   13.2730  -22.1020  -44.9030 H   0  0  0  0  0  0  0  0  0  0  0  0
   14.1980  -21.4930  -43.4910 H   0  0  0  0  0  0  0  0  0  0  0  0
   13.0070  -22.7950  -43.2210 H   0  0  0  0  0  0  0  0  0  0  0  0
    9.1190  -17.1500  -45.2950 H   0  0  0  0  0  0  0  0  0  0  0  0
   10.0750  -16.8290  -43.8190 H   0  0  0  0  0  0  0  0  0  0  0  0
    8.3680  -15.4720  -42.8300 H   0  0  0  0  0  0  0  0  0  0  0  0
    8.6280  -14.9810  -44.5260 H   0  0  0  0  0  0  0  0  0  0  0  0
    5.5010  -16.5940  -42.8700 H   0  0  0  0  0  0  0  0  0  0  0  0
    5.7870  -17.6950  -44.2740 H   0  0  0  0  0  0  0  0  0  0  0  0
    6.7490  -18.7580  -42.4120 H   0  0  0  0  0  0  0  0  0  0  0  0
    7.5560  -17.2080  -41.8710 H   0  0  0  0  0  0  0  0  0  0  0  0
  2  1  1  0  0  0  0
  2  7  1  0  0  0  0
  3  2  2  0  0  0  0
  4  3  1  0  0  0  0
  4  5  2  0  0  0  0
  5  6  1  0  0  0  0
  6  7  2  0  0  0  0
  6 33  1  0  0  0  0
  7 34  1  0  0  0  0
  8  3  1  0  0  0  0
  8  9  1  0  0  0  0
  9 35  1  0  0  0  0
  9 36  1  0  0  0  0
 10  9  1  0  0  0  0
 10 37  1  0  0  0  0
 11 14  1  0  0  0  0
 11 10  1  0  0  0  0
 12 40  1  0  0  0  0
 12 11  1  0  0  0  0
 13 12  1  0  0  0  0
 13  8  1  0  0  0  0
 14 15  2  0  0  0  0
 16 43  1  0  0  0  0
 16 14  1  0  0  0  0
 17 16  1  0  0  0  0
 18 17  1  0  0  0  0
 19 18  2  0  0  0  0
 20 21  2  0  0  0  0
 20 19  1  0  0  0  0
 21 17  1  0  0  0  0
 22 21  1  0  0  0  0
 22 47  1  0  0  0  0
 22 48  1  0  0  0  0
 23 25  1  0  0  0  0
 23 19  1  0  0  0  0
 24 23  2  0  0  0  0
 25 30  1  0  0  0  0
 26 27  1  0  0  0  0
 26 50  1  0  0  0  0
 26 25  1  0  0  0  0
 27 51  1  0  0  0  0
 28 27  1  0  0  0  0
 28 29  1  0  0  0  0
 29 53  1  0  0  0  0
 29 30  1  0  0  0  0
 30 55  1  0  0  0  0
 30 56  1  0  0  0  0
 31  4  1  0  0  0  0
 32  5  1  0  0  0  0
 38 10  1  0  0  0  0
 39 12  1  0  0  0  0
 41 13  1  0  0  0  0
 42 13  1  0  0  0  0
 44 16  1  0  0  0  0
 45 20  1  0  0  0  0
 46 22  1  0  0  0  0
 49 26  1  0  0  0  0
 52 27  1  0  0  0  0
 54 29  1  0  0  0  0
M  END
>  <Pose>
1

>  <Score>
-4.07

$$$$
