
 OpenBabel03232221553D

 45 48  0  0  1  0  0  0  0  0999 V2000
    3.4900  -19.4650  -36.9410 Cl  0  0  0  0  0  0  0  0  0  0  0  0
    3.7340  -20.0050  -38.6090 C   0  0  0  0  0  0  0  0  0  0  0  0
    4.1570  -21.2650  -38.8800 C   0  0  0  0  0  0  0  0  0  0  0  0
    4.3400  -21.6600  -40.2060 C   0  0  0  0  0  0  0  0  0  0  0  0
    4.1160  -20.8480  -41.2900 C   0  0  0  0  0  0  0  0  0  0  0  0
    3.6800  -19.5550  -40.9490 C   0  0  0  0  0  0  0  0  0  0  0  0
    3.4940  -19.1430  -39.6470 C   0  0  0  0  0  0  0  0  0  0  0  0
    4.2460  -21.1870  -42.6800 C   0  0  0  0  0  0  0  0  0  0  0  0
    3.4350  -20.4800  -43.4510 O   0  0  0  0  0  0  0  0  0  0  0  0
    5.0610  -22.1160  -43.3480 N   0  0  0  0  0  0  0  0  0  0  0  0
    5.6700  -23.2450  -42.7390 C   0  0  0  0  0  0  0  0  0  0  0  0
    6.2870  -24.1290  -43.8360 C   0  0  1  0  0  0  0  0  0  0  0  0
    7.2290  -23.2870  -44.5260 N   0  0  0  0  0  0  0  0  0  0  0  0
    6.7200  -22.1210  -45.1670 C   0  0  0  0  0  0  0  0  0  0  0  0
    5.2820  -21.8580  -44.7700 C   0  0  0  0  0  0  0  0  0  0  0  0
    8.5960  -23.6080  -44.5600 C   0  0  0  0  0  0  0  0  0  0  0  0
    9.3090  -23.1100  -45.4500 O   0  0  0  0  0  0  0  0  0  0  0  0
    9.1400  -24.5250  -43.5370 C   0  0  1  0  0  0  0  0  0  0  0  0
    8.2430  -25.6400  -43.4600 N   0  0  0  0  0  0  0  0  0  0  0  0
    6.8610  -25.3650  -43.3070 C   0  0  0  0  0  0  0  0  0  0  0  0
    6.0840  -26.1750  -42.7120 O   0  0  0  0  0  0  0  0  0  0  0  0
   10.5650  -24.8750  -43.7340 C   0  0  0  0  0  0  0  0  0  0  0  0
   10.8390  -26.2120  -43.1820 C   0  0  0  0  0  0  0  0  0  0  0  0
   11.2110  -27.3200  -43.8260 N   0  0  0  0  0  0  0  0  0  0  0  0
   11.3560  -28.3370  -42.9260 C   0  0  0  0  0  0  0  0  0  0  0  0
   11.0730  -27.8700  -41.7080 N   0  0  0  0  0  0  0  0  0  0  0  0
   10.7550  -26.5780  -41.8380 C   0  0  0  0  0  0  0  0  0  0  0  0
    4.3440  -21.9350  -38.0640 H   0  0  0  0  0  0  0  0  0  0  0  0
    4.6930  -22.6580  -40.3540 H   0  0  0  0  0  0  0  0  0  0  0  0
    3.4810  -18.8550  -41.7630 H   0  0  0  0  0  0  0  0  0  0  0  0
    3.1520  -18.1170  -39.4900 H   0  0  0  0  0  0  0  0  0  0  0  0
    4.9570  -23.8630  -42.1520 H   0  0  0  0  0  0  0  0  0  0  0  0
    6.4660  -22.8940  -42.0590 H   0  0  0  0  0  0  0  0  0  0  0  0
    5.4480  -24.3510  -44.5290 H   0  0  0  0  0  0  0  0  0  0  0  0
    6.7630  -22.2800  -46.2650 H   0  0  0  0  0  0  0  0  0  0  0  0
    7.2890  -21.1920  -44.9570 H   0  0  0  0  0  0  0  0  0  0  0  0
    5.0150  -20.8110  -44.9690 H   0  0  0  0  0  0  0  0  0  0  0  0
    4.6290  -22.5220  -45.3630 H   0  0  0  0  0  0  0  0  0  0  0  0
    9.0910  -24.0430  -42.5050 H   0  0  0  0  0  0  0  0  0  0  0  0
    8.5720  -26.6360  -43.5110 H   0  0  0  0  0  0  0  0  0  0  0  0
   10.8350  -24.7970  -44.8100 H   0  0  0  0  0  0  0  0  0  0  0  0
   11.2000  -24.0930  -43.2330 H   0  0  0  0  0  0  0  0  0  0  0  0
   11.6560  -29.3420  -43.2250 H   0  0  0  0  0  0  0  0  0  0  0  0
   11.0940  -28.4000  -40.8320 H   0  0  0  0  0  0  0  0  0  0  0  0
   10.4690  -25.8650  -41.0770 H   0  0  0  0  0  0  0  0  0  0  0  0
  2  1  1  0  0  0  0
  3  2  1  0  0  0  0
  3 28  1  0  0  0  0
  4  3  2  0  0  0  0
  5  6  2  0  0  0  0
  5  4  1  0  0  0  0
  6  7  1  0  0  0  0
  7 31  1  0  0  0  0
  7  2  2  0  0  0  0
  8  5  1  0  0  0  0
  9  8  2  0  0  0  0
 10 11  1  0  0  0  0
 10  8  1  0  0  0  0
 11 32  1  0  0  0  0
 11 33  1  0  0  0  0
 12 34  1  6  0  0  0
 12 20  1  0  0  0  0
 12 11  1  0  0  0  0
 13 12  1  0  0  0  0
 14 36  1  0  0  0  0
 14 15  1  0  0  0  0
 14 13  1  0  0  0  0
 15 10  1  0  0  0  0
 16 13  1  0  0  0  0
 16 18  1  0  0  0  0
 17 16  2  0  0  0  0
 18 19  1  0  0  0  0
 18 39  1  1  0  0  0
 19 20  1  0  0  0  0
 20 21  2  0  0  0  0
 22 18  1  0  0  0  0
 22 42  1  0  0  0  0
 22 23  1  0  0  0  0
 23 27  2  0  0  0  0
 24 23  1  0  0  0  0
 24 25  2  0  0  0  0
 25 26  1  0  0  0  0
 26 44  1  0  0  0  0
 27 26  1  0  0  0  0
 27 45  1  0  0  0  0
 29  4  1  0  0  0  0
 30  6  1  0  0  0  0
 35 14  1  0  0  0  0
 37 15  1  0  0  0  0
 38 15  1  0  0  0  0
 40 19  1  0  0  0  0
 41 22  1  0  0  0  0
 43 25  1  0  0  0  0
M  END
>  <Pose>
1

>  <Score>
-4.69

$$$$
