
 OpenBabel03232221553D

 43 46  0  0  0  0  0  0  0  0999 V2000
    4.9010  -25.3210  -44.4830 Cl  0  0  0  0  0  0  0  0  0  0  0  0
    6.5390  -24.8730  -44.0620 C   0  0  0  0  0  0  0  0  0  0  0  0
    6.8120  -23.6160  -43.6010 C   0  0  0  0  0  0  0  0  0  0  0  0
    8.1560  -23.3670  -43.3100 C   0  0  0  0  0  0  0  0  0  0  0  0
    9.0860  -24.3200  -43.4830 N   0  0  0  0  0  0  0  0  0  0  0  0
    8.8440  -25.5340  -43.9250 N   0  0  0  0  0  0  0  0  0  0  0  0
    7.5680  -25.8180  -44.2160 C   0  0  0  0  0  0  0  0  0  0  0  0
    7.2360  -26.9520  -44.6450 O   0  0  0  0  0  0  0  0  0  0  0  0
    9.8910  -26.4870  -44.0790 C   0  0  0  0  0  0  0  0  0  0  0  0
   10.1830  -27.0840  -45.2890 C   0  0  0  0  0  0  0  0  0  0  0  0
   11.1990  -28.0050  -45.4280 C   0  0  0  0  0  0  0  0  0  0  0  0
   11.9720  -28.3680  -44.3430 C   0  0  0  0  0  0  0  0  0  0  0  0
   11.6850  -27.7740  -43.1320 C   0  0  0  0  0  0  0  0  0  0  0  0
   10.6650  -26.8510  -42.9970 C   0  0  0  0  0  0  0  0  0  0  0  0
    5.8220  -22.6250  -43.4000 N   0  0  0  0  0  0  0  0  0  0  0  0
    6.0930  -21.2030  -43.5310 C   0  0  0  0  0  0  0  0  0  0  0  0
    5.8980  -20.4770  -42.2260 C   0  0  0  0  0  0  0  0  0  0  0  0
    4.7190  -21.0350  -41.6110 N   0  0  0  0  0  0  0  0  0  0  0  0
    3.7550  -21.6820  -42.4630 C   0  0  0  0  0  0  0  0  0  0  0  0
    4.4510  -22.9440  -43.0180 C   0  0  0  0  0  0  0  0  0  0  0  0
    4.5090  -20.9510  -40.2130 C   0  0  0  0  0  0  0  0  0  0  0  0
    4.6440  -21.9510  -39.2950 N   0  0  0  0  0  0  0  0  0  0  0  0
    4.3620  -21.4810  -38.0960 N   0  0  0  0  0  0  0  0  0  0  0  0
    4.0500  -20.1980  -38.2260 C   0  0  0  0  0  0  0  0  0  0  0  0
    4.1440  -19.9050  -39.4970 O   0  0  0  0  0  0  0  0  0  0  0  0
    3.6540  -19.2130  -37.1680 C   0  0  0  0  0  0  0  0  0  0  0  0
    8.4180  -22.3990  -42.9420 H   0  0  0  0  0  0  0  0  0  0  0  0
    9.5750  -26.8010  -46.1490 H   0  0  0  0  0  0  0  0  0  0  0  0
   11.4050  -28.4610  -46.4020 H   0  0  0  0  0  0  0  0  0  0  0  0
   12.7690  -29.0910  -44.4580 H   0  0  0  0  0  0  0  0  0  0  0  0
   12.2770  -28.0480  -42.2830 H   0  0  0  0  0  0  0  0  0  0  0  0
   10.4380  -26.3820  -42.0420 H   0  0  0  0  0  0  0  0  0  0  0  0
    5.3090  -20.7900  -44.2300 H   0  0  0  0  0  0  0  0  0  0  0  0
    7.0430  -20.9320  -43.9570 H   0  0  0  0  0  0  0  0  0  0  0  0
    6.7570  -20.6480  -41.5210 H   0  0  0  0  0  0  0  0  0  0  0  0
    5.8360  -19.3840  -42.3580 H   0  0  0  0  0  0  0  0  0  0  0  0
    3.5070  -21.0080  -43.3010 H   0  0  0  0  0  0  0  0  0  0  0  0
    2.8420  -21.9670  -41.9150 H   0  0  0  0  0  0  0  0  0  0  0  0
    3.8170  -23.2530  -43.8610 H   0  0  0  0  0  0  0  0  0  0  0  0
    4.4280  -23.6380  -42.1390 H   0  0  0  0  0  0  0  0  0  0  0  0
    4.2860  -19.3360  -36.2670 H   0  0  0  0  0  0  0  0  0  0  0  0
    3.8180  -18.1740  -37.5200 H   0  0  0  0  0  0  0  0  0  0  0  0
    2.5830  -19.3400  -36.9870 H   0  0  0  0  0  0  0  0  0  0  0  0
  1  2  1  0  0  0  0
  2  3  2  0  0  0  0
  3 15  1  0  0  0  0
  3  4  1  0  0  0  0
  4 27  1  0  0  0  0
  5  4  2  0  0  0  0
  6  5  1  0  0  0  0
  7  2  1  0  0  0  0
  7  6  1  0  0  0  0
  8  7  2  0  0  0  0
  9  6  1  0  0  0  0
  9 14  1  0  0  0  0
 10  9  2  0  0  0  0
 11 10  1  0  0  0  0
 11 12  2  0  0  0  0
 12 13  1  0  0  0  0
 13 14  2  0  0  0  0
 13 31  1  0  0  0  0
 14 32  1  0  0  0  0
 15 20  1  0  0  0  0
 16 15  1  0  0  0  0
 16 17  1  0  0  0  0
 17 18  1  0  0  0  0
 17 35  1  0  0  0  0
 18 21  1  0  0  0  0
 19 38  1  0  0  0  0
 19 18  1  0  0  0  0
 20 19  1  0  0  0  0
 20 40  1  0  0  0  0
 21 25  1  0  0  0  0
 21 22  2  0  0  0  0
 22 23  1  0  0  0  0
 24 23  2  0  0  0  0
 24 26  1  0  0  0  0
 25 24  1  0  0  0  0
 26 43  1  0  0  0  0
 26 41  1  0  0  0  0
 28 10  1  0  0  0  0
 29 11  1  0  0  0  0
 30 12  1  0  0  0  0
 33 16  1  0  0  0  0
 34 16  1  0  0  0  0
 36 17  1  0  0  0  0
 37 19  1  0  0  0  0
 39 20  1  0  0  0  0
 42 26  1  0  0  0  0
M  END
>  <Pose>
1

>  <Score>
-4.32

$$$$
