
 OpenBabel03232221553D

 41 44  0  0  0  0  0  0  0  0999 V2000
   13.4040  -27.4650  -44.5450 Cl  0  0  0  0  0  0  0  0  0  0  0  0
   12.0430  -26.3740  -44.3630 C   0  0  0  0  0  0  0  0  0  0  0  0
   12.2180  -25.0100  -44.4340 C   0  0  0  0  0  0  0  0  0  0  0  0
   11.1380  -24.1930  -44.2880 N   0  0  0  0  0  0  0  0  0  0  0  0
    9.9310  -24.7290  -44.0800 C   0  0  0  0  0  0  0  0  0  0  0  0
    9.0330  -23.7370  -43.9680 N   0  0  0  0  0  0  0  0  0  0  0  0
    9.6530  -22.5650  -44.1040 C   0  0  0  0  0  0  0  0  0  0  0  0
   11.0100  -22.8600  -44.3100 C   0  0  0  0  0  0  0  0  0  0  0  0
    9.0890  -21.2270  -44.0570 C   0  0  0  0  0  0  0  0  0  0  0  0
    9.8910  -20.2490  -44.2920 O   0  0  0  0  0  0  0  0  0  0  0  0
    7.7760  -20.8960  -43.7830 N   0  0  0  0  0  0  0  0  0  0  0  0
    6.6520  -21.7550  -44.0710 C   0  0  0  0  0  0  0  0  0  0  0  0
    6.0260  -22.2730  -42.7940 C   0  0  0  0  0  0  0  0  0  0  0  0
    6.0630  -21.1960  -41.7480 C   0  0  0  0  0  0  0  0  0  0  0  0
    6.6830  -19.9850  -41.8960 C   0  0  0  0  0  0  0  0  0  0  0  0
    6.4730  -19.3260  -40.7270 N   0  0  0  0  0  0  0  0  0  0  0  0
    5.7720  -20.0600  -39.8940 N   0  0  0  0  0  0  0  0  0  0  0  0
    5.4850  -21.2350  -40.4690 C   0  0  0  0  0  0  0  0  0  0  0  0
    4.8260  -22.2110  -39.9860 O   0  0  0  0  0  0  0  0  0  0  0  0
    5.3360  -19.7120  -38.5340 C   0  0  0  0  0  0  0  0  0  0  0  0
    6.4950  -19.1850  -37.7180 C   0  0  0  0  0  0  0  0  0  0  0  0
    7.5950  -20.0330  -37.7570 O   0  0  0  0  0  0  0  0  0  0  0  0
    7.4010  -19.6100  -43.1470 C   0  0  0  0  0  0  0  0  0  0  0  0
    9.7230  -26.1170  -44.0030 C   0  0  0  0  0  0  0  0  0  0  0  0
   10.7980  -26.9380  -44.1480 C   0  0  0  0  0  0  0  0  0  0  0  0
   13.1880  -24.5700  -44.6020 H   0  0  0  0  0  0  0  0  0  0  0  0
   11.8000  -22.1230  -44.4590 H   0  0  0  0  0  0  0  0  0  0  0  0
    6.8230  -22.5650  -44.7600 H   0  0  0  0  0  0  0  0  0  0  0  0
    5.9030  -21.0670  -44.5890 H   0  0  0  0  0  0  0  0  0  0  0  0
    6.5000  -23.1800  -42.4190 H   0  0  0  0  0  0  0  0  0  0  0  0
    4.9630  -22.5370  -43.0490 H   0  0  0  0  0  0  0  0  0  0  0  0
    6.8440  -18.3590  -40.5620 H   0  0  0  0  0  0  0  0  0  0  0  0
    5.0170  -20.6640  -38.0590 H   0  0  0  0  0  0  0  0  0  0  0  0
    4.4940  -19.0250  -38.5280 H   0  0  0  0  0  0  0  0  0  0  0  0
    6.8070  -18.2340  -38.1950 H   0  0  0  0  0  0  0  0  0  0  0  0
    6.2080  -19.0240  -36.6730 H   0  0  0  0  0  0  0  0  0  0  0  0
    8.3400  -19.6590  -38.3150 H   0  0  0  0  0  0  0  0  0  0  0  0
    6.7660  -19.0360  -43.8430 H   0  0  0  0  0  0  0  0  0  0  0  0
    8.3550  -19.1030  -42.8990 H   0  0  0  0  0  0  0  0  0  0  0  0
    8.7160  -26.5030  -43.8300 H   0  0  0  0  0  0  0  0  0  0  0  0
   10.6550  -28.0190  -44.0900 H   0  0  0  0  0  0  0  0  0  0  0  0
  1  2  1  0  0  0  0
  2 25  1  0  0  0  0
  3  2  2  0  0  0  0
  3  4  1  0  0  0  0
  4  5  1  0  0  0  0
  5 24  1  0  0  0  0
  5  6  2  0  0  0  0
  7  9  1  0  0  0  0
  7  6  1  0  0  0  0
  8  4  1  0  0  0  0
  8  7  2  0  0  0  0
  9 11  1  0  0  0  0
 10  9  2  0  0  0  0
 11 23  1  0  0  0  0
 12 11  1  0  0  0  0
 12 13  1  0  0  0  0
 13 30  1  0  0  0  0
 13 14  1  0  0  0  0
 14 18  1  0  0  0  0
 15 14  2  0  0  0  0
 15 16  1  0  0  0  0
 16 32  1  0  0  0  0
 16 17  1  0  0  0  0
 17 20  1  0  0  0  0
 18 19  2  0  0  0  0
 18 17  1  0  0  0  0
 20 34  1  0  0  0  0
 20 33  1  0  0  0  0
 20 21  1  0  0  0  0
 21 36  1  0  0  0  0
 22 21  1  0  0  0  0
 23 39  1  0  0  0  0
 23 15  1  0  0  0  0
 24 40  1  0  0  0  0
 25 41  1  0  0  0  0
 25 24  2  0  0  0  0
 26  3  1  0  0  0  0
 27  8  1  0  0  0  0
 28 12  1  0  0  0  0
 29 12  1  0  0  0  0
 31 13  1  0  0  0  0
 35 21  1  0  0  0  0
 37 22  1  0  0  0  0
 38 23  1  0  0  0  0
M  END
>  <Pose>
1

>  <Score>
-4.46

$$$$
