
 OpenBabel03232221553D

 49 52  0  0  0  0  0  0  0  0999 V2000
    0.9640  -13.0750  -36.1040 B   0  0  0  0  0  0  0  0  0  0  0  0
    0.7710  -14.4240  -37.4100 C   0  0  0  0  0  0  0  0  0  0  0  0
    0.7270  -15.7530  -37.0170 C   0  0  0  0  0  0  0  0  0  0  0  0
    0.5930  -16.7550  -37.9410 C   0  0  0  0  0  0  0  0  0  0  0  0
    0.4960  -16.5070  -39.2770 C   0  0  0  0  0  0  0  0  0  0  0  0
    0.5390  -15.1690  -39.6810 C   0  0  0  0  0  0  0  0  0  0  0  0
    0.6740  -14.1540  -38.7520 C   0  0  0  0  0  0  0  0  0  0  0  0
    0.5070  -18.2000  -37.5250 C   0  0  0  0  0  0  0  0  0  0  0  0
   -0.6910  -18.5880  -37.2900 O   0  0  0  0  0  0  0  0  0  0  0  0
    1.6300  -18.8960  -37.4490 N   0  0  0  0  0  0  0  0  0  0  0  0
    2.8060  -19.6250  -37.3690 C   0  0  0  0  0  0  0  0  0  0  0  0
    3.1570  -20.2570  -38.6910 C   0  0  0  0  0  0  0  0  0  0  0  0
    2.1640  -20.7840  -39.3080 O   0  0  0  0  0  0  0  0  0  0  0  0
    4.4500  -20.2850  -39.2300 N   0  0  0  0  0  0  0  0  0  0  0  0
    5.4070  -21.2910  -38.9010 C   0  0  0  0  0  0  0  0  0  0  0  0
    6.2790  -21.6670  -40.0660 C   0  0  0  0  0  0  0  0  0  0  0  0
    5.6960  -21.3460  -41.4250 C   0  0  0  0  0  0  0  0  0  0  0  0
    6.8210  -21.5220  -42.3330 N   0  0  0  0  0  0  0  0  0  0  0  0
    6.5180  -21.4900  -43.7130 C   0  0  0  0  0  0  0  0  0  0  0  0
    5.1040  -21.6890  -44.1200 C   0  0  0  0  0  0  0  0  0  0  0  0
    4.3520  -22.5130  -43.1230 C   0  0  0  0  0  0  0  0  0  0  0  0
    3.3980  -23.4320  -43.2680 N   0  0  0  0  0  0  0  0  0  0  0  0
    3.0920  -23.8440  -42.0200 C   0  0  0  0  0  0  0  0  0  0  0  0
    3.8460  -23.1880  -41.1120 N   0  0  0  0  0  0  0  0  0  0  0  0
    4.6570  -22.3320  -41.7980 C   0  0  0  0  0  0  0  0  0  0  0  0
    5.1430  -19.9490  -41.5370 C   0  0  0  0  0  0  0  0  0  0  0  0
    4.8990  -19.2860  -40.1940 C   0  0  0  0  0  0  0  0  0  0  0  0
    0.7980  -16.0000  -35.9840 H   0  0  0  0  0  0  0  0  0  0  0  0
    0.3900  -17.3110  -39.9760 H   0  0  0  0  0  0  0  0  0  0  0  0
    0.4670  -14.9300  -40.7260 H   0  0  0  0  0  0  0  0  0  0  0  0
    0.7040  -13.1210  -39.0650 H   0  0  0  0  0  0  0  0  0  0  0  0
    1.7310  -18.9100  -38.8280 H   0  0  0  0  0  0  0  0  0  0  0  0
    2.7120  -20.4720  -36.6040 H   0  0  0  0  0  0  0  0  0  0  0  0
    3.6610  -19.0290  -36.9630 H   0  0  0  0  0  0  0  0  0  0  0  0
    6.0950  -20.8160  -38.1360 H   0  0  0  0  0  0  0  0  0  0  0  0
    4.9820  -22.1600  -38.3660 H   0  0  0  0  0  0  0  0  0  0  0  0
    7.2550  -21.1780  -39.9790 H   0  0  0  0  0  0  0  0  0  0  0  0
    6.3880  -22.7730  -40.0310 H   0  0  0  0  0  0  0  0  0  0  0  0
    7.4900  -20.7460  -42.0600 H   0  0  0  0  0  0  0  0  0  0  0  0
    7.1190  -22.3130  -44.2050 H   0  0  0  0  0  0  0  0  0  0  0  0
    6.9340  -20.5370  -44.1570 H   0  0  0  0  0  0  0  0  0  0  0  0
    4.6110  -20.7000  -44.2670 H   0  0  0  0  0  0  0  0  0  0  0  0
    5.0740  -22.1670  -45.1400 H   0  0  0  0  0  0  0  0  0  0  0  0
    2.3460  -24.5910  -41.8220 H   0  0  0  0  0  0  0  0  0  0  0  0
    3.8060  -23.3180  -40.0870 H   0  0  0  0  0  0  0  0  0  0  0  0
    4.1290  -20.0010  -42.0370 H   0  0  0  0  0  0  0  0  0  0  0  0
    5.7770  -19.2660  -42.1240 H   0  0  0  0  0  0  0  0  0  0  0  0
    5.8050  -18.7510  -39.8290 H   0  0  0  0  0  0  0  0  0  0  0  0
    4.0770  -18.5590  -40.3340 H   0  0  0  0  0  0  0  0  0  0  0  0
  2  3  1  0  0  0  0
  2  1  1  0  0  0  0
  3 28  1  0  0  0  0
  4  8  1  0  0  0  0
  4  3  2  0  0  0  0
  5  4  1  0  0  0  0
  6  5  2  0  0  0  0
  6  7  1  0  0  0  0
  7  2  2  0  0  0  0
  8 10  1  0  0  0  0
  8  9  2  0  0  0  0
 10 11  1  0  0  0  0
 11 34  1  0  0  0  0
 11 33  1  0  0  0  0
 12 11  1  0  0  0  0
 13 12  2  0  0  0  0
 14 15  1  0  0  0  0
 14 12  1  0  0  0  0
 15 36  1  0  0  0  0
 15 35  1  0  0  0  0
 16 38  1  0  0  0  0
 16 37  1  0  0  0  0
 16 15  1  0  0  0  0
 17 16  1  0  0  0  0
 18 39  1  0  0  0  0
 18 17  1  0  0  0  0
 19 18  1  0  0  0  0
 20 19  1  0  0  0  0
 20 21  1  0  0  0  0
 21 25  2  0  0  0  0
 22 21  1  0  0  0  0
 22 23  2  0  0  0  0
 23 44  1  0  0  0  0
 23 24  1  0  0  0  0
 24 45  1  0  0  0  0
 25 17  1  0  0  0  0
 25 24  1  0  0  0  0
 26 17  1  0  0  0  0
 26 27  1  0  0  0  0
 27 48  1  0  0  0  0
 27 14  1  0  0  0  0
 29  5  1  0  0  0  0
 30  6  1  0  0  0  0
 31  7  1  0  0  0  0
 32 10  1  0  0  0  0
 40 19  1  0  0  0  0
 41 19  1  0  0  0  0
 42 20  1  0  0  0  0
 43 20  1  0  0  0  0
 46 26  1  0  0  0  0
 47 26  1  0  0  0  0
 49 27  1  0  0  0  0
M  END
>  <Pose>
1

>  <Score>
-4.48

$$$$
