
 OpenBabel03232221553D

 45 48  0  0  1  0  0  0  0  0999 V2000
    3.5100  -11.5880  -37.6880 Cl  0  0  0  0  0  0  0  0  0  0  0  0
    2.0210  -12.4900  -37.3900 C   0  0  0  0  0  0  0  0  0  0  0  0
    2.0210  -13.8600  -37.4970 C   0  0  0  0  0  0  0  0  0  0  0  0
    0.8640  -14.6060  -37.2690 C   0  0  0  0  0  0  0  0  0  0  0  0
   -0.2700  -13.8960  -36.9320 C   0  0  0  0  0  0  0  0  0  0  0  0
   -0.2600  -12.5170  -36.8250 C   0  0  0  0  0  0  0  0  0  0  0  0
    0.8860  -11.7840  -37.0520 C   0  0  0  0  0  0  0  0  0  0  0  0
    0.8790  -16.0830  -37.3910 C   0  0  0  0  0  0  0  0  0  0  0  0
   -0.0530  -16.5740  -38.4640 C   0  0  0  0  0  0  0  0  0  0  0  0
    0.1730  -17.9500  -38.8430 N   0  0  0  0  0  0  0  0  0  0  0  0
    0.6270  -18.5320  -40.0780 C   0  0  2  0  0  0  0  0  0  0  0  0
   -0.0290  -19.8980  -40.0270 C   0  0  2  0  0  0  0  0  0  0  0  0
    0.2060  -20.2520  -38.6700 O   0  0  0  0  0  0  0  0  0  0  0  0
   -0.0360  -19.0530  -37.9690 C   0  0  0  0  0  0  0  0  0  0  0  0
   -0.3840  -19.0220  -36.7460 O   0  0  0  0  0  0  0  0  0  0  0  0
    0.8230  -20.6190  -41.0060 C   0  0  0  0  0  0  0  0  0  0  0  0
    2.1750  -20.2960  -40.4950 N   0  0  0  0  0  0  0  0  0  0  0  0
    2.1000  -18.9680  -39.9700 C   0  0  0  0  0  0  0  0  0  0  0  0
    3.2130  -21.2280  -40.5840 C   0  0  0  0  0  0  0  0  0  0  0  0
    3.0640  -22.2910  -41.3170 O   0  0  0  0  0  0  0  0  0  0  0  0
    4.5010  -21.1460  -39.9220 C   0  0  0  0  0  0  0  0  0  0  0  0
    5.4140  -20.1430  -40.0290 N   0  0  0  0  0  0  0  0  0  0  0  0
    6.4610  -20.4370  -39.2620 C   0  0  0  0  0  0  0  0  0  0  0  0
    6.2420  -21.6090  -38.6630 N   0  0  0  0  0  0  0  0  0  0  0  0
    5.0320  -22.0610  -39.0610 C   0  0  0  0  0  0  0  0  0  0  0  0
    5.2510  -18.9670  -40.8440 C   0  0  0  0  0  0  0  0  0  0  0  0
    2.9160  -14.4300  -37.7640 H   0  0  0  0  0  0  0  0  0  0  0  0
   -1.1800  -14.4730  -36.7530 H   0  0  0  0  0  0  0  0  0  0  0  0
   -1.1720  -11.9870  -36.5570 H   0  0  0  0  0  0  0  0  0  0  0  0
    0.9100  -10.7070  -36.9730 H   0  0  0  0  0  0  0  0  0  0  0  0
    0.5090  -16.4980  -36.4310 H   0  0  0  0  0  0  0  0  0  0  0  0
    1.9150  -16.4870  -37.5140 H   0  0  0  0  0  0  0  0  0  0  0  0
    0.0950  -15.8800  -39.3410 H   0  0  0  0  0  0  0  0  0  0  0  0
   -1.1140  -16.4280  -38.1740 H   0  0  0  0  0  0  0  0  0  0  0  0
    0.4180  -17.9640  -40.9740 H   0  0  0  0  0  0  0  0  0  0  0  0
   -1.1000  -19.8720  -40.2730 H   0  0  0  0  0  0  0  0  0  0  0  0
    0.6500  -21.6830  -41.0960 H   0  0  0  0  0  0  0  0  0  0  0  0
    0.7610  -20.0800  -41.9750 H   0  0  0  0  0  0  0  0  0  0  0  0
    2.7410  -18.2240  -40.4540 H   0  0  0  0  0  0  0  0  0  0  0  0
    2.3580  -18.9600  -38.8690 H   0  0  0  0  0  0  0  0  0  0  0  0
    7.3850  -19.8660  -39.0980 H   0  0  0  0  0  0  0  0  0  0  0  0
    4.6270  -23.0180  -38.6970 H   0  0  0  0  0  0  0  0  0  0  0  0
    4.4640  -18.2850  -40.4650 H   0  0  0  0  0  0  0  0  0  0  0  0
    5.0120  -19.2300  -41.9020 H   0  0  0  0  0  0  0  0  0  0  0  0
    6.2020  -18.3960  -40.8790 H   0  0  0  0  0  0  0  0  0  0  0  0
  1  2  1  0  0  0  0
  2  7  1  0  0  0  0
  3  2  2  0  0  0  0
  3  4  1  0  0  0  0
  4  5  2  0  0  0  0
  5  6  1  0  0  0  0
  5 28  1  0  0  0  0
  6 29  1  0  0  0  0
  7 30  1  0  0  0  0
  7  6  2  0  0  0  0
  8  4  1  0  0  0  0
  8 31  1  0  0  0  0
  9 34  1  0  0  0  0
  9  8  1  0  0  0  0
 10  9  1  0  0  0  0
 10 14  1  0  0  0  0
 11 35  1  6  0  0  0
 11 12  1  0  0  0  0
 11 18  1  0  0  0  0
 11 10  1  0  0  0  0
 12 36  1  6  0  0  0
 12 13  1  0  0  0  0
 13 14  1  0  0  0  0
 14 15  2  0  0  0  0
 16 17  1  0  0  0  0
 16 12  1  0  0  0  0
 17 18  1  0  0  0  0
 18 40  1  0  0  0  0
 19 17  1  0  0  0  0
 19 21  1  0  0  0  0
 20 19  2  0  0  0  0
 21 25  2  0  0  0  0
 22 21  1  0  0  0  0
 22 23  1  0  0  0  0
 23 41  1  0  0  0  0
 23 24  2  0  0  0  0
 25 42  1  0  0  0  0
 25 24  1  0  0  0  0
 26 43  1  0  0  0  0
 26 22  1  0  0  0  0
 27  3  1  0  0  0  0
 32  8  1  0  0  0  0
 33  9  1  0  0  0  0
 37 16  1  0  0  0  0
 38 16  1  0  0  0  0
 39 18  1  0  0  0  0
 44 26  1  0  0  0  0
 45 26  1  0  0  0  0
M  END
>  <Pose>
1

>  <Score>
-4.31

$$$$
