
 OpenBabel03232221553D

 44 47  0  0  0  0  0  0  0  0999 V2000
    8.2940  -25.7880  -43.7770 S   0  0  0  0  0  0  0  0  0  0  0  0
    8.4890  -26.9720  -44.5840 O   0  0  0  0  0  0  0  0  0  0  0  0
    8.3210  -26.0960  -42.3100 O   0  0  0  0  0  0  0  0  0  0  0  0
    9.5430  -24.5140  -44.0800 C   0  0  0  0  0  0  0  0  0  0  0  0
    6.7370  -25.0010  -44.0950 C   0  0  0  0  0  0  0  0  0  0  0  0
    5.7020  -25.2950  -43.2990 N   0  0  0  0  0  0  0  0  0  0  0  0
    4.5050  -24.7240  -43.3830 C   0  0  0  0  0  0  0  0  0  0  0  0
    4.3320  -23.7420  -44.3720 C   0  0  0  0  0  0  0  0  0  0  0  0
    5.3790  -23.4500  -45.1730 C   0  0  0  0  0  0  0  0  0  0  0  0
    6.5770  -24.0840  -45.0320 N   0  0  0  0  0  0  0  0  0  0  0  0
    5.2080  -22.4900  -46.1590 O   0  0  0  0  0  0  0  0  0  0  0  0
    3.0450  -23.0440  -44.3330 C   0  0  0  0  0  0  0  0  0  0  0  0
    2.8740  -22.6290  -42.9750 N   0  0  0  0  0  0  0  0  0  0  0  0
    2.3860  -23.9090  -42.2940 C   0  0  0  0  0  0  0  0  0  0  0  0
    3.3500  -25.0240  -42.4950 C   0  0  0  0  0  0  0  0  0  0  0  0
    4.1260  -22.3740  -42.1750 C   0  0  0  0  0  0  0  0  0  0  0  0
    3.5630  -21.3730  -41.1620 C   0  0  0  0  0  0  0  0  0  0  0  0
    4.0910  -21.0890  -39.9630 C   0  0  0  0  0  0  0  0  0  0  0  0
    3.5340  -20.1480  -39.0550 C   0  0  0  0  0  0  0  0  0  0  0  0
    2.3730  -19.5200  -39.5140 C   0  0  0  0  0  0  0  0  0  0  0  0
    1.7930  -18.6060  -38.6840 C   0  0  0  0  0  0  0  0  0  0  0  0
    2.2900  -18.2630  -37.4070 C   0  0  0  0  0  0  0  0  0  0  0  0
    3.4640  -18.9170  -36.9920 C   0  0  0  0  0  0  0  0  0  0  0  0
    4.0290  -19.8320  -37.8350 C   0  0  0  0  0  0  0  0  0  0  0  0
    1.8650  -19.7780  -40.6700 O   0  0  0  0  0  0  0  0  0  0  0  0
    2.4090  -20.6740  -41.5070 C   0  0  0  0  0  0  0  0  0  0  0  0
    1.8820  -20.9300  -42.6570 O   0  0  0  0  0  0  0  0  0  0  0  0
    5.5690  -21.8690  -39.5130 Cl  0  0  0  0  0  0  0  0  0  0  0  0
    9.1030  -23.5270  -43.6920 H   0  0  0  0  0  0  0  0  0  0  0  0
    9.6340  -24.3840  -45.1980 H   0  0  0  0  0  0  0  0  0  0  0  0
   10.5040  -24.7540  -43.6210 H   0  0  0  0  0  0  0  0  0  0  0  0
    4.4190  -22.4780  -46.8140 H   0  0  0  0  0  0  0  0  0  0  0  0
    2.8890  -22.2710  -45.1190 H   0  0  0  0  0  0  0  0  0  0  0  0
    2.2280  -23.8590  -44.5090 H   0  0  0  0  0  0  0  0  0  0  0  0
    2.2550  -23.6090  -41.2070 H   0  0  0  0  0  0  0  0  0  0  0  0
    1.4170  -24.0840  -42.7490 H   0  0  0  0  0  0  0  0  0  0  0  0
    3.7440  -25.2620  -41.4510 H   0  0  0  0  0  0  0  0  0  0  0  0
    2.8140  -25.9200  -42.8160 H   0  0  0  0  0  0  0  0  0  0  0  0
    4.4730  -23.2500  -41.6620 H   0  0  0  0  0  0  0  0  0  0  0  0
    4.8100  -21.8630  -42.8590 H   0  0  0  0  0  0  0  0  0  0  0  0
    0.9100  -18.0340  -38.9620 H   0  0  0  0  0  0  0  0  0  0  0  0
    1.7810  -17.5250  -36.7540 H   0  0  0  0  0  0  0  0  0  0  0  0
    3.8360  -18.6310  -36.0580 H   0  0  0  0  0  0  0  0  0  0  0  0
    4.9000  -20.4200  -37.5060 H   0  0  0  0  0  0  0  0  0  0  0  0
  1  3  2  0  0  0  0
  2  1  2  0  0  0  0
  4  1  1  0  0  0  0
  4 29  1  0  0  0  0
  4 31  1  0  0  0  0
  5  1  1  0  0  0  0
  5  6  2  0  0  0  0
  7  6  1  0  0  0  0
  7 15  1  0  0  0  0
  8 12  1  0  0  0  0
  8  7  2  0  0  0  0
  9 10  2  0  0  0  0
  9  8  1  0  0  0  0
 10  5  1  0  0  0  0
 11  9  1  0  0  0  0
 12 13  1  0  0  0  0
 13 14  1  0  0  0  0
 13 16  1  0  0  0  0
 14 35  1  0  0  0  0
 15 14  1  0  0  0  0
 15 37  1  0  0  0  0
 16 39  1  0  0  0  0
 16 17  1  0  0  0  0
 17 18  2  0  0  0  0
 18 28  1  0  0  0  0
 18 19  1  0  0  0  0
 19 24  1  0  0  0  0
 20 19  2  0  0  0  0
 20 21  1  0  0  0  0
 21 22  2  0  0  0  0
 22 23  1  0  0  0  0
 22 42  1  0  0  0  0
 23 43  1  0  0  0  0
 24 44  1  0  0  0  0
 24 23  2  0  0  0  0
 25 20  1  0  0  0  0
 26 17  1  0  0  0  0
 26 25  1  0  0  0  0
 27 26  2  0  0  0  0
 30  4  1  0  0  0  0
 32 11  1  0  0  0  0
 33 12  1  0  0  0  0
 34 12  1  0  0  0  0
 36 14  1  0  0  0  0
 38 15  1  0  0  0  0
 40 16  1  0  0  0  0
 41 21  1  0  0  0  0
M  END
>  <Pose>
1

>  <Score>
-4.20

$$$$
