
 OpenBabel03232221553D

 63 66  0  0  0  0  0  0  0  0999 V2000
   -0.2020  -25.8340  -42.2670 S   0  0  0  0  0  0  0  0  0  0  0  0
   -1.1650  -25.6910  -43.4010 O   0  0  0  0  0  0  0  0  0  0  0  0
    0.3580  -27.2310  -42.1770 O   0  0  0  0  0  0  0  0  0  0  0  0
    1.1520  -24.7350  -42.4230 C   0  0  0  0  0  0  0  0  0  0  0  0
    0.9830  -23.3600  -42.3230 C   0  0  0  0  0  0  0  0  0  0  0  0
    2.0590  -22.5380  -42.4510 N   0  0  0  0  0  0  0  0  0  0  0  0
    3.2980  -22.9950  -42.6730 C   0  0  0  0  0  0  0  0  0  0  0  0
    3.4690  -24.3250  -42.7710 N   0  0  0  0  0  0  0  0  0  0  0  0
    2.4380  -25.1780  -42.6520 C   0  0  0  0  0  0  0  0  0  0  0  0
    4.4240  -22.1310  -42.8120 N   0  0  0  0  0  0  0  0  0  0  0  0
    4.6150  -21.2970  -43.9740 C   0  0  0  0  0  0  0  0  0  0  0  0
    4.8040  -19.8380  -43.6650 C   0  0  0  0  0  0  0  0  0  0  0  0
    5.3460  -19.6140  -42.2630 C   0  0  0  0  0  0  0  0  0  0  0  0
    6.2590  -20.8300  -42.0310 C   0  0  0  0  0  0  0  0  0  0  0  0
    5.4420  -22.0540  -41.7800 C   0  0  0  0  0  0  0  0  0  0  0  0
    4.3920  -19.5680  -41.2610 N   0  0  0  0  0  0  0  0  0  0  0  0
    3.4100  -18.5560  -41.2080 C   0  0  0  0  0  0  0  0  0  0  0  0
    2.1460  -19.1790  -40.5920 C   0  0  0  0  0  0  0  0  0  0  0  0
    2.5690  -20.3670  -39.7710 C   0  0  0  0  0  0  0  0  0  0  0  0
    3.8470  -20.1190  -39.0100 C   0  0  0  0  0  0  0  0  0  0  0  0
    4.9590  -19.6710  -39.9450 C   0  0  0  0  0  0  0  0  0  0  0  0
    6.2480  -18.4400  -42.3100 C   0  0  0  0  0  0  0  0  0  0  0  0
    6.1160  -17.5520  -43.2180 O   0  0  0  0  0  0  0  0  0  0  0  0
    7.2810  -18.2250  -41.3910 N   0  0  0  0  0  0  0  0  0  0  0  0
   -0.3200  -22.8850  -42.0900 N   0  0  0  0  0  0  0  0  0  0  0  0
   -1.0080  -25.4800  -40.7310 C   0  0  0  0  0  0  0  0  0  0  0  0
   -0.9190  -26.3730  -39.6830 C   0  0  0  0  0  0  0  0  0  0  0  0
   -1.5620  -26.0560  -38.5050 C   0  0  0  0  0  0  0  0  0  0  0  0
   -2.2830  -24.8750  -38.3610 C   0  0  0  0  0  0  0  0  0  0  0  0
   -2.3470  -24.0080  -39.4310 C   0  0  0  0  0  0  0  0  0  0  0  0
   -1.7140  -24.2980  -40.6230 C   0  0  0  0  0  0  0  0  0  0  0  0
   -3.2590  -22.5020  -39.2660 Cl  0  0  0  0  0  0  0  0  0  0  0  0
   -0.2030  -27.5240  -39.8610 O   0  0  0  0  0  0  0  0  0  0  0  0
   -0.6390  -28.8120  -39.5270 C   0  0  0  0  0  0  0  0  0  0  0  0
    2.5760  -26.2670  -42.7310 H   0  0  0  0  0  0  0  0  0  0  0  0
    5.5220  -21.7280  -44.4970 H   0  0  0  0  0  0  0  0  0  0  0  0
    3.7970  -21.4380  -44.7220 H   0  0  0  0  0  0  0  0  0  0  0  0
    5.5990  -19.4800  -44.3560 H   0  0  0  0  0  0  0  0  0  0  0  0
    3.9180  -19.2180  -43.8770 H   0  0  0  0  0  0  0  0  0  0  0  0
    7.0740  -20.6340  -41.3380 H   0  0  0  0  0  0  0  0  0  0  0  0
    6.7770  -21.0180  -43.0270 H   0  0  0  0  0  0  0  0  0  0  0  0
    4.9850  -22.1350  -40.7860 H   0  0  0  0  0  0  0  0  0  0  0  0
    6.0770  -22.9810  -41.9510 H   0  0  0  0  0  0  0  0  0  0  0  0
    3.6880  -17.7640  -40.4470 H   0  0  0  0  0  0  0  0  0  0  0  0
    3.1000  -18.0990  -42.1360 H   0  0  0  0  0  0  0  0  0  0  0  0
    1.5900  -18.4310  -39.9810 H   0  0  0  0  0  0  0  0  0  0  0  0
    1.4890  -19.5270  -41.4430 H   0  0  0  0  0  0  0  0  0  0  0  0
    2.7530  -21.2410  -40.4530 H   0  0  0  0  0  0  0  0  0  0  0  0
    1.8010  -20.6420  -39.0090 H   0  0  0  0  0  0  0  0  0  0  0  0
    4.1150  -21.0820  -38.5050 H   0  0  0  0  0  0  0  0  0  0  0  0
    3.6450  -19.4040  -38.1950 H   0  0  0  0  0  0  0  0  0  0  0  0
    5.8650  -20.2480  -39.8370 H   0  0  0  0  0  0  0  0  0  0  0  0
    5.1750  -18.6070  -39.6140 H   0  0  0  0  0  0  0  0  0  0  0  0
    8.1940  -18.7380  -41.5370 H   0  0  0  0  0  0  0  0  0  0  0  0
    7.2570  -17.5970  -40.5630 H   0  0  0  0  0  0  0  0  0  0  0  0
   -0.8700  -23.1050  -41.2340 H   0  0  0  0  0  0  0  0  0  0  0  0
   -0.7730  -22.2790  -42.8040 H   0  0  0  0  0  0  0  0  0  0  0  0
   -1.5190  -26.7330  -37.6550 H   0  0  0  0  0  0  0  0  0  0  0  0
   -2.7660  -24.6720  -37.4260 H   0  0  0  0  0  0  0  0  0  0  0  0
   -1.7760  -23.5930  -41.4670 H   0  0  0  0  0  0  0  0  0  0  0  0
   -1.3460  -29.1670  -40.2950 H   0  0  0  0  0  0  0  0  0  0  0  0
    0.2450  -29.5020  -39.5760 H   0  0  0  0  0  0  0  0  0  0  0  0
   -1.0360  -28.9030  -38.5020 H   0  0  0  0  0  0  0  0  0  0  0  0
  1  3  2  0  0  0  0
  1 26  1  0  0  0  0
  2  1  2  0  0  0  0
  4  5  2  0  0  0  0
  4  1  1  0  0  0  0
  5 25  1  0  0  0  0
  6  5  1  0  0  0  0
  7  6  2  0  0  0  0
  8  7  1  0  0  0  0
  8  9  2  0  0  0  0
  9  4  1  0  0  0  0
 10  7  1  0  0  0  0
 10 15  1  0  0  0  0
 11 12  1  0  0  0  0
 11 10  1  0  0  0  0
 12 13  1  0  0  0  0
 13 14  1  0  0  0  0
 13 16  1  0  0  0  0
 14 15  1  0  0  0  0
 14 40  1  0  0  0  0
 15 42  1  0  0  0  0
 16 17  1  0  0  0  0
 16 21  1  0  0  0  0
 17 18  1  0  0  0  0
 17 44  1  0  0  0  0
 18 46  1  0  0  0  0
 18 19  1  0  0  0  0
 19 20  1  0  0  0  0
 19 49  1  0  0  0  0
 20 50  1  0  0  0  0
 20 51  1  0  0  0  0
 21 52  1  0  0  0  0
 21 53  1  0  0  0  0
 21 20  1  0  0  0  0
 22 13  1  0  0  0  0
 22 24  1  0  0  0  0
 23 22  2  0  0  0  0
 24 55  1  0  0  0  0
 25 56  1  0  0  0  0
 26 31  2  0  0  0  0
 26 27  1  0  0  0  0
 27 28  2  0  0  0  0
 28 29  1  0  0  0  0
 28 58  1  0  0  0  0
 29 59  1  0  0  0  0
 30 32  1  0  0  0  0
 30 29  2  0  0  0  0
 31 30  1  0  0  0  0
 33 27  1  0  0  0  0
 33 34  1  0  0  0  0
 34 63  1  0  0  0  0
 35  9  1  0  0  0  0
 36 11  1  0  0  0  0
 37 11  1  0  0  0  0
 38 12  1  0  0  0  0
 39 12  1  0  0  0  0
 41 14  1  0  0  0  0
 43 15  1  0  0  0  0
 45 17  1  0  0  0  0
 47 18  1  0  0  0  0
 48 19  1  0  0  0  0
 54 24  1  0  0  0  0
 57 25  1  0  0  0  0
 60 31  1  0  0  0  0
 61 34  1  0  0  0  0
 62 34  1  0  0  0  0
M  END
>  <Pose>
1

>  <Score>
-3.08

$$$$
