
 OpenBabel03232221553D

 54 58  0  0  1  0  0  0  0  0999 V2000
    0.4630  -13.5950  -36.6010 S   0  0  0  0  0  0  0  0  0  0  0  0
   -0.7070  -12.6220  -36.6690 O   0  0  0  0  0  0  0  0  0  0  0  0
    1.2270  -13.1580  -35.3510 O   0  0  0  0  0  0  0  0  0  0  0  0
   -0.1570  -15.1280  -36.3080 N   0  0  0  0  0  0  0  0  0  0  0  0
   -0.9800  -15.7020  -37.3400 C   0  0  0  0  0  0  0  0  0  0  0  0
   -0.6010  -17.1380  -37.6210 C   0  0  0  0  0  0  0  0  0  0  0  0
    0.8470  -17.2290  -37.9340 N   0  0  0  0  0  0  0  0  0  0  0  0
    1.5780  -16.8340  -36.7390 C   0  0  0  0  0  0  0  0  0  0  0  0
    0.7160  -16.1010  -35.7260 C   0  0  0  0  0  0  0  0  0  0  0  0
    1.0550  -18.6390  -38.1850 C   0  0  0  0  0  0  0  0  0  0  0  0
    2.3680  -19.2110  -37.8530 C   0  0  0  0  0  0  0  0  0  0  0  0
    3.2170  -19.6860  -38.8920 N   0  0  0  0  0  0  0  0  0  0  0  0
    3.9130  -20.9200  -39.0310 C   0  0  0  0  0  0  0  0  0  0  0  0
    4.2730  -21.6500  -38.0960 O   0  0  0  0  0  0  0  0  0  0  0  0
    4.1350  -21.1820  -40.4740 C   0  0  1  0  0  0  0  0  0  0  0  0
    4.2190  -19.7350  -41.0100 C   0  0  2  0  0  0  0  0  0  0  0  0
    5.6660  -19.4390  -41.1310 C   0  0  1  0  0  0  0  0  0  0  0  0
    6.2840  -20.4260  -40.1260 C   0  0  0  0  0  0  0  0  0  0  0  0
    5.5310  -21.6370  -40.7050 C   0  0  2  0  0  0  0  0  0  0  0  0
    5.8210  -21.4170  -42.1620 C   0  0  0  0  0  0  0  0  0  0  0  0
    6.1410  -20.1430  -42.3850 C   0  0  0  0  0  0  0  0  0  0  0  0
    3.4630  -18.9060  -40.0830 C   0  0  0  0  0  0  0  0  0  0  0  0
    3.1040  -17.7240  -40.3100 O   0  0  0  0  0  0  0  0  0  0  0  0
    1.5250  -13.4130  -37.9380 C   0  0  0  0  0  0  0  0  0  0  0  0
    1.5460  -14.3390  -38.9520 C   0  0  0  0  0  0  0  0  0  0  0  0
    2.4080  -14.1540  -40.0180 C   0  0  0  0  0  0  0  0  0  0  0  0
    3.2580  -13.0670  -40.1060 C   0  0  0  0  0  0  0  0  0  0  0  0
    3.2340  -12.1400  -39.0850 C   0  0  0  0  0  0  0  0  0  0  0  0
    2.3670  -12.3270  -38.0140 C   0  0  0  0  0  0  0  0  0  0  0  0
    4.4480  -12.8110  -41.5730 B   0  0  0  0  0  0  0  0  0  0  0  0
   -2.0250  -15.7290  -36.9520 H   0  0  0  0  0  0  0  0  0  0  0  0
   -0.9720  -15.0880  -38.2390 H   0  0  0  0  0  0  0  0  0  0  0  0
   -1.1310  -17.4700  -38.5310 H   0  0  0  0  0  0  0  0  0  0  0  0
   -0.8490  -17.8340  -36.7980 H   0  0  0  0  0  0  0  0  0  0  0  0
    2.3490  -16.1010  -37.0310 H   0  0  0  0  0  0  0  0  0  0  0  0
    2.0270  -17.7450  -36.3050 H   0  0  0  0  0  0  0  0  0  0  0  0
    1.3070  -15.6480  -34.9330 H   0  0  0  0  0  0  0  0  0  0  0  0
    0.0660  -16.8710  -35.2510 H   0  0  0  0  0  0  0  0  0  0  0  0
    0.8940  -18.8380  -39.2930 H   0  0  0  0  0  0  0  0  0  0  0  0
    0.1920  -19.2200  -37.7270 H   0  0  0  0  0  0  0  0  0  0  0  0
    2.9410  -18.3880  -37.3100 H   0  0  0  0  0  0  0  0  0  0  0  0
    2.2060  -19.9880  -37.0540 H   0  0  0  0  0  0  0  0  0  0  0  0
    3.3470  -21.7600  -40.9480 H   0  0  0  0  0  0  0  0  0  0  0  0
    3.7860  -19.7110  -42.0510 H   0  0  0  0  0  0  0  0  0  0  0  0
    5.9990  -18.4350  -41.0180 H   0  0  0  0  0  0  0  0  0  0  0  0
    7.3660  -20.5350  -40.2590 H   0  0  0  0  0  0  0  0  0  0  0  0
    5.9550  -20.2650  -39.1040 H   0  0  0  0  0  0  0  0  0  0  0  0
    5.8350  -22.5800  -40.3190 H   0  0  0  0  0  0  0  0  0  0  0  0
    5.7890  -22.1530  -42.9580 H   0  0  0  0  0  0  0  0  0  0  0  0
    6.6200  -19.7180  -43.2470 H   0  0  0  0  0  0  0  0  0  0  0  0
    0.8900  -15.2250  -38.9380 H   0  0  0  0  0  0  0  0  0  0  0  0
    2.4220  -14.8900  -40.8220 H   0  0  0  0  0  0  0  0  0  0  0  0
    3.9030  -11.2970  -39.1660 H   0  0  0  0  0  0  0  0  0  0  0  0
    2.4120  -11.5520  -37.2620 H   0  0  0  0  0  0  0  0  0  0  0  0
  1  4  1  0  0  0  0
  1  3  2  0  0  0  0
  2  1  2  0  0  0  0
  4  9  1  0  0  0  0
  5 31  1  0  0  0  0
  5  4  1  0  0  0  0
  6  5  1  0  0  0  0
  6 34  1  0  0  0  0
  7  6  1  0  0  0  0
  7  8  1  0  0  0  0
  8 36  1  0  0  0  0
  8  9  1  0  0  0  0
  9 38  1  0  0  0  0
  9 37  1  0  0  0  0
 10  7  1  0  0  0  0
 10 11  1  0  0  0  0
 10 40  1  0  0  0  0
 11 41  1  0  0  0  0
 11 42  1  0  0  0  0
 12 11  1  0  0  0  0
 13 12  1  0  0  0  0
 13 14  2  0  0  0  0
 15 43  1  6  0  0  0
 15 13  1  0  0  0  0
 16 44  1  6  0  0  0
 16 15  1  0  0  0  0
 16 22  1  0  0  0  0
 17 45  1  1  0  0  0
 17 16  1  0  0  0  0
 17 18  1  0  0  0  0
 18 47  1  0  0  0  0
 19 15  1  0  0  0  0
 19 48  1  1  0  0  0
 19 18  1  0  0  0  0
 20 19  1  0  0  0  0
 21 20  1  0  0  0  0
 21 17  1  0  0  0  0
 22 12  1  0  0  0  0
 23 22  2  0  0  0  0
 24  1  1  0  0  0  0
 25 51  1  0  0  0  0
 25 24  2  0  0  0  0
 26 25  1  0  0  0  0
 27 26  2  0  0  0  0
 27 28  1  0  0  0  0
 28 29  2  0  0  0  0
 29 24  1  0  0  0  0
 29 54  1  0  0  0  0
 30 27  1  0  0  0  0
 32  5  1  0  0  0  0
 33  6  1  0  0  0  0
 35  8  1  0  0  0  0
 39 10  1  0  0  0  0
 46 18  1  0  0  0  0
 49 20  1  0  0  0  0
 50 21  1  0  0  0  0
 52 26  1  0  0  0  0
 53 28  1  0  0  0  0
M  END
>  <Pose>
1

>  <Score>
-4.38

$$$$
