
 OpenBabel03232221553D

 61 64  0  0  1  0  0  0  0  0999 V2000
    2.6330  -20.8650  -41.0270 B   0  0  0  0  0  0  0  0  0  0  0  0
    3.6990  -22.1780  -41.9520 C   0  0  0  0  0  0  0  0  0  0  0  0
    5.0210  -21.9510  -42.2330 C   0  0  0  0  0  0  0  0  0  0  0  0
    5.8350  -22.8630  -42.8980 C   0  0  0  0  0  0  0  0  0  0  0  0
    5.2840  -24.0600  -43.2950 C   0  0  0  0  0  0  0  0  0  0  0  0
    3.9460  -24.2780  -43.0050 C   0  0  0  0  0  0  0  0  0  0  0  0
    3.1420  -23.3760  -42.3490 C   0  0  0  0  0  0  0  0  0  0  0  0
    6.0690  -25.0850  -43.9680 C   0  0  0  0  0  0  0  0  0  0  0  0
    6.0050  -26.2450  -43.4300 O   0  0  0  0  0  0  0  0  0  0  0  0
    6.8930  -24.8900  -45.1610 C   0  0  2  0  0  0  0  0  0  0  0  0
    8.3240  -24.5110  -44.8880 C   0  0  1  0  0  0  0  0  0  0  0  0
    8.3720  -23.1190  -44.8080 N   0  0  0  0  0  0  0  0  0  0  0  0
    7.4470  -22.7220  -45.8970 C   0  0  0  0  0  0  0  0  0  0  0  0
    7.5300  -21.6990  -46.6290 O   0  0  0  0  0  0  0  0  0  0  0  0
    6.4130  -23.7420  -45.9620 C   0  0  0  0  0  0  0  0  0  0  0  0
    5.3210  -23.6440  -46.5910 O   0  0  0  0  0  0  0  0  0  0  0  0
    9.0650  -22.0530  -44.1560 C   0  0  0  0  0  0  0  0  0  0  0  0
   10.3600  -21.6270  -44.7380 C   0  0  0  0  0  0  0  0  0  0  0  0
   10.8130  -20.3040  -44.6750 N   0  0  0  0  0  4  0  0  0  0  0  0
   11.5540  -20.0110  -43.4410 C   0  0  0  0  0  0  0  0  0  0  0  0
   12.8110  -20.8060  -43.3190 C   0  0  0  0  0  0  0  0  0  0  0  0
   13.0510  -21.4810  -44.4940 O   0  0  0  0  0  0  0  0  0  0  0  0
   13.0750  -20.5350  -45.5330 C   0  0  0  0  0  0  0  0  0  0  0  0
   11.6830  -20.0200  -45.8310 C   0  0  0  0  0  0  0  0  0  0  0  0
    9.0830  -25.4450  -44.0950 C   0  0  0  0  0  0  0  0  0  0  0  0
    9.6680  -26.5830  -44.5530 C   0  0  0  0  0  0  0  0  0  0  0  0
   10.3950  -27.4070  -43.7090 C   0  0  0  0  0  0  0  0  0  0  0  0
   10.5270  -27.0570  -42.3570 C   0  0  0  0  0  0  0  0  0  0  0  0
    9.9390  -25.9130  -41.8980 C   0  0  0  0  0  0  0  0  0  0  0  0
    9.2260  -25.1040  -42.7280 C   0  0  0  0  0  0  0  0  0  0  0  0
   11.2400  -27.8430  -41.4740 O   0  0  0  0  0  0  0  0  0  0  0  0
   10.9930  -28.5490  -44.1370 O   0  0  0  0  0  0  0  0  0  0  0  0
   12.2860  -28.6140  -44.6440 C   0  0  0  0  0  0  0  0  0  0  0  0
   13.2420  -29.4170  -43.7800 C   0  0  0  0  0  0  0  0  0  0  0  0
    5.4770  -21.0070  -41.9260 H   0  0  0  0  0  0  0  0  0  0  0  0
    6.8630  -22.5890  -43.0950 H   0  0  0  0  0  0  0  0  0  0  0  0
    3.4540  -25.2190  -43.3000 H   0  0  0  0  0  0  0  0  0  0  0  0
    2.0970  -23.5640  -42.1320 H   0  0  0  0  0  0  0  0  0  0  0  0
    6.8640  -25.8210  -45.8140 H   0  0  0  0  0  0  0  0  0  0  0  0
    8.7800  -24.6670  -46.0150 H   0  0  0  0  0  0  0  0  0  0  0  0
    8.4260  -21.1230  -44.0960 H   0  0  0  0  0  0  0  0  0  0  0  0
    9.2850  -22.3950  -43.1000 H   0  0  0  0  0  0  0  0  0  0  0  0
   10.4200  -21.9390  -45.8450 H   0  0  0  0  0  0  0  0  0  0  0  0
   11.2070  -22.2910  -44.3230 H   0  0  0  0  0  0  0  0  0  0  0  0
   10.0580  -19.6250  -44.7240 H   0  0  0  0  0  0  0  0  0  0  0  0
   10.8580  -20.1040  -42.6010 H   0  0  0  0  0  0  0  0  0  0  0  0
   11.8310  -18.9320  -43.5250 H   0  0  0  0  0  0  0  0  0  0  0  0
   13.6840  -20.1480  -43.1140 H   0  0  0  0  0  0  0  0  0  0  0  0
   12.6580  -21.5490  -42.5000 H   0  0  0  0  0  0  0  0  0  0  0  0
   13.7220  -19.6830  -45.3160 H   0  0  0  0  0  0  0  0  0  0  0  0
   13.4150  -21.0880  -46.4380 H   0  0  0  0  0  0  0  0  0  0  0  0
   11.6590  -18.9370  -46.0530 H   0  0  0  0  0  0  0  0  0  0  0  0
   11.2070  -20.5380  -46.6890 H   0  0  0  0  0  0  0  0  0  0  0  0
    9.5770  -26.9200  -45.5910 H   0  0  0  0  0  0  0  0  0  0  0  0
   10.0440  -25.6400  -40.8360 H   0  0  0  0  0  0  0  0  0  0  0  0
    8.7720  -24.2030  -42.3300 H   0  0  0  0  0  0  0  0  0  0  0  0
   12.3060  -29.0510  -45.6710 H   0  0  0  0  0  0  0  0  0  0  0  0
   12.7380  -27.5970  -44.7550 H   0  0  0  0  0  0  0  0  0  0  0  0
   13.4270  -30.4020  -44.2860 H   0  0  0  0  0  0  0  0  0  0  0  0
   14.2060  -28.8950  -43.7070 H   0  0  0  0  0  0  0  0  0  0  0  0
   12.8290  -29.6310  -42.7950 H   0  0  0  0  0  0  0  0  0  0  0  0
  2  1  1  0  0  0  0
  3  2  1  0  0  0  0
  3 35  1  0  0  0  0
  4  3  2  0  0  0  0
  5  6  2  0  0  0  0
  5  4  1  0  0  0  0
  6  7  1  0  0  0  0
  7 38  1  0  0  0  0
  7  2  2  0  0  0  0
  8  9  2  0  0  0  0
  8  5  1  0  0  0  0
 10 39  1  6  0  0  0
 10 11  1  0  0  0  0
 10  8  1  0  0  0  0
 11 40  1  6  0  0  0
 11 12  1  0  0  0  0
 11 25  1  0  0  0  0
 12 17  1  0  0  0  0
 13 12  1  0  0  0  0
 14 13  2  0  0  0  0
 15 13  1  0  0  0  0
 15 10  1  0  0  0  0
 16 15  2  0  0  0  0
 17 41  1  0  0  0  0
 17 42  1  0  0  0  0
 18 19  1  0  0  0  0
 18 44  1  0  0  0  0
 18 17  1  0  0  0  0
 19 20  1  0  0  0  0
 20 21  1  0  0  0  0
 20 46  1  0  0  0  0
 21 48  1  0  0  0  0
 21 49  1  0  0  0  0
 22 21  1  0  0  0  0
 23 50  1  0  0  0  0
 23 22  1  0  0  0  0
 24 23  1  0  0  0  0
 24 19  1  0  0  0  0
 25 30  1  0  0  0  0
 26 25  2  0  0  0  0
 26 27  1  0  0  0  0
 27 28  2  0  0  0  0
 28 29  1  0  0  0  0
 28 31  1  0  0  0  0
 29 55  1  0  0  0  0
 30 56  1  0  0  0  0
 30 29  2  0  0  0  0
 32 27  1  0  0  0  0
 33 32  1  0  0  0  0
 33 34  1  0  0  0  0
 34 60  1  0  0  0  0
 34 61  1  0  0  0  0
 36  4  1  0  0  0  0
 37  6  1  0  0  0  0
 43 18  1  0  0  0  0
 45 19  1  0  0  0  0
 47 20  1  0  0  0  0
 51 23  1  0  0  0  0
 52 24  1  0  0  0  0
 53 24  1  0  0  0  0
 54 26  1  0  0  0  0
 57 33  1  0  0  0  0
 58 33  1  0  0  0  0
 59 34  1  0  0  0  0
M  END
>  <Pose>
1

>  <Score>
-4.05

$$$$
