
 OpenBabel03232221553D

 37 40  0  0  0  0  0  0  0  0999 V2000
    0.5280  -19.7840  -38.5150 B   0  0  0  0  0  0  0  0  0  0  0  0
    2.4090  -19.6040  -38.8040 C   0  0  0  0  0  0  0  0  0  0  0  0
    3.2660  -19.4120  -37.7410 C   0  0  0  0  0  0  0  0  0  0  0  0
    4.6220  -19.2810  -37.9270 C   0  0  0  0  0  0  0  0  0  0  0  0
    5.6750  -19.0890  -37.0960 N   0  0  0  0  0  0  0  0  0  0  0  0
    6.7640  -19.0390  -37.8410 N   0  0  0  0  0  0  0  0  0  0  0  0
    6.4860  -19.1860  -39.1070 N   0  0  0  0  0  0  0  0  0  0  0  0
    5.1380  -19.3410  -39.1990 C   0  0  0  0  0  0  0  0  0  0  0  0
    4.2820  -19.5330  -40.2700 C   0  0  0  0  0  0  0  0  0  0  0  0
    2.9150  -19.6650  -40.0760 C   0  0  0  0  0  0  0  0  0  0  0  0
    4.8550  -19.5940  -41.6100 C   0  0  0  0  0  0  0  0  0  0  0  0
    5.4070  -18.5770  -42.0700 O   0  0  0  0  0  0  0  0  0  0  0  0
    4.8070  -20.7660  -42.4070 N   0  0  0  0  0  0  0  0  0  0  0  0
    5.8970  -21.7100  -42.4190 C   0  0  0  0  0  0  0  0  0  0  0  0
    5.3620  -23.0670  -42.7890 C   0  0  0  0  0  0  0  0  0  0  0  0
    5.8160  -23.8790  -43.7570 N   0  0  0  0  0  0  0  0  0  0  0  0
    5.0930  -25.0180  -43.8030 C   0  0  0  0  0  0  0  0  0  0  0  0
    4.1690  -24.9060  -42.8400 N   0  0  0  0  0  0  0  0  0  0  0  0
    4.3300  -23.7250  -42.2250 N   0  0  0  0  0  0  0  0  0  0  0  0
    5.4910  -26.0130  -44.8360 C   0  0  0  0  0  0  0  0  0  0  0  0
    6.9880  -26.2500  -44.5910 C   0  0  0  0  0  0  0  0  0  0  0  0
    7.7780  -24.9820  -44.5910 C   0  0  0  0  0  0  0  0  0  0  0  0
    6.8910  -23.7620  -44.7170 C   0  0  0  0  0  0  0  0  0  0  0  0
    2.8670  -19.3640  -36.7390 H   0  0  0  0  0  0  0  0  0  0  0  0
    7.0920  -19.1970  -39.9530 H   0  0  0  0  0  0  0  0  0  0  0  0
    2.2880  -19.8150  -40.9480 H   0  0  0  0  0  0  0  0  0  0  0  0
    3.9770  -20.9510  -42.9940 H   0  0  0  0  0  0  0  0  0  0  0  0
    6.7240  -21.3970  -43.0550 H   0  0  0  0  0  0  0  0  0  0  0  0
    6.2630  -21.7900  -41.3590 H   0  0  0  0  0  0  0  0  0  0  0  0
    5.3070  -25.6240  -45.8450 H   0  0  0  0  0  0  0  0  0  0  0  0
    5.0120  -27.0070  -44.6510 H   0  0  0  0  0  0  0  0  0  0  0  0
    7.0440  -26.6980  -43.5800 H   0  0  0  0  0  0  0  0  0  0  0  0
    7.3890  -26.9940  -45.3050 H   0  0  0  0  0  0  0  0  0  0  0  0
    8.5740  -24.9690  -45.3740 H   0  0  0  0  0  0  0  0  0  0  0  0
    8.3190  -24.8760  -43.6300 H   0  0  0  0  0  0  0  0  0  0  0  0
    6.4280  -23.7860  -45.7290 H   0  0  0  0  0  0  0  0  0  0  0  0
    7.4430  -22.8270  -44.5680 H   0  0  0  0  0  0  0  0  0  0  0  0
  2  1  1  0  0  0  0
  2  3  1  0  0  0  0
  3 24  1  0  0  0  0
  4  3  2  0  0  0  0
  4  5  1  0  0  0  0
  6  5  2  0  0  0  0
  7  6  1  0  0  0  0
  8  7  1  0  0  0  0
  8  4  1  0  0  0  0
  9 10  1  0  0  0  0
  9  8  2  0  0  0  0
 10  2  2  0  0  0  0
 11  9  1  0  0  0  0
 12 11  2  0  0  0  0
 13 11  1  0  0  0  0
 14 13  1  0  0  0  0
 14 29  1  0  0  0  0
 15 14  1  0  0  0  0
 15 19  2  0  0  0  0
 16 15  1  0  0  0  0
 17 16  1  0  0  0  0
 17 18  2  0  0  0  0
 18 19  1  0  0  0  0
 20 31  1  0  0  0  0
 20 21  1  0  0  0  0
 20 17  1  0  0  0  0
 21 22  1  0  0  0  0
 21 32  1  0  0  0  0
 22 35  1  0  0  0  0
 23 22  1  0  0  0  0
 23 37  1  0  0  0  0
 23 16  1  0  0  0  0
 25  7  1  0  0  0  0
 26 10  1  0  0  0  0
 27 13  1  0  0  0  0
 28 14  1  0  0  0  0
 30 20  1  0  0  0  0
 33 21  1  0  0  0  0
 34 22  1  0  0  0  0
 36 23  1  0  0  0  0
M  END
>  <Pose>
1

>  <Score>
-4.77

$$$$
