
 OpenBabel03232221553D

 40 43  0  0  0  0  0  0  0  0999 V2000
   10.9240  -25.3060  -43.2380 Cl  0  0  0  0  0  0  0  0  0  0  0  0
    9.1970  -25.0500  -43.4850 C   0  0  0  0  0  0  0  0  0  0  0  0
    8.3150  -26.1000  -43.6280 C   0  0  0  0  0  0  0  0  0  0  0  0
    6.9730  -25.8400  -43.8200 C   0  0  0  0  0  0  0  0  0  0  0  0
    5.8840  -26.6390  -43.9900 N   0  0  0  0  0  0  0  0  0  0  0  0
    4.7940  -25.8670  -44.1370 C   0  0  0  0  0  0  0  0  0  0  0  0
    5.1360  -24.5630  -44.0680 N   0  0  0  0  0  0  0  0  0  0  0  0
    6.4670  -24.5570  -43.8750 C   0  0  0  0  0  0  0  0  0  0  0  0
    7.3390  -23.5030  -43.7320 C   0  0  0  0  0  0  0  0  0  0  0  0
    8.6800  -23.7700  -43.5420 C   0  0  0  0  0  0  0  0  0  0  0  0
    4.2270  -23.4430  -44.1840 C   0  0  0  0  0  0  0  0  0  0  0  0
    3.5530  -23.1280  -42.8670 C   0  0  0  0  0  0  0  0  0  0  0  0
    4.2290  -21.9750  -42.2810 N   0  0  0  0  0  0  0  0  0  0  0  0
    4.8080  -22.0600  -41.0620 C   0  0  0  0  0  0  0  0  0  0  0  0
    5.4540  -20.9910  -40.4810 C   0  0  0  0  0  0  0  0  0  0  0  0
    5.5230  -19.7210  -41.1920 C   0  0  0  0  0  0  0  0  0  0  0  0
    6.2000  -18.8810  -40.3960 N   0  0  0  0  0  0  0  0  0  0  0  0
    6.5580  -19.5020  -39.2610 N   0  0  0  0  0  0  0  0  0  0  0  0
    6.1180  -20.7700  -39.2940 C   0  0  0  0  0  0  0  0  0  0  0  0
    6.3000  -21.6000  -38.3750 O   0  0  0  0  0  0  0  0  0  0  0  0
    4.9210  -19.6690  -42.4380 C   0  0  0  0  0  0  0  0  0  0  0  0
    4.3080  -20.7950  -42.9130 C   0  0  0  0  0  0  0  0  0  0  0  0
    4.9700  -18.4140  -43.1800 C   0  0  0  0  0  0  0  0  0  0  0  0
    4.1260  -18.2090  -44.0890 O   0  0  0  0  0  0  0  0  0  0  0  0
    5.9100  -17.4550  -42.9120 O   0  0  0  0  0  0  0  0  0  0  0  0
    7.2770  -17.6420  -43.2430 C   0  0  0  0  0  0  0  0  0  0  0  0
    8.7020  -27.1080  -43.5870 H   0  0  0  0  0  0  0  0  0  0  0  0
    3.8120  -26.2650  -44.2850 H   0  0  0  0  0  0  0  0  0  0  0  0
    6.9360  -22.4900  -43.7770 H   0  0  0  0  0  0  0  0  0  0  0  0
    9.3730  -22.9490  -43.4290 H   0  0  0  0  0  0  0  0  0  0  0  0
    4.7390  -22.5240  -44.5390 H   0  0  0  0  0  0  0  0  0  0  0  0
    3.4450  -23.6860  -44.9260 H   0  0  0  0  0  0  0  0  0  0  0  0
    3.6270  -23.9490  -42.1470 H   0  0  0  0  0  0  0  0  0  0  0  0
    2.4900  -22.9100  -43.0550 H   0  0  0  0  0  0  0  0  0  0  0  0
    4.7650  -22.9930  -40.5230 H   0  0  0  0  0  0  0  0  0  0  0  0
    7.0990  -19.0170  -38.5010 H   0  0  0  0  0  0  0  0  0  0  0  0
    3.8310  -20.7490  -43.9020 H   0  0  0  0  0  0  0  0  0  0  0  0
    7.3710  -18.6040  -43.7990 H   0  0  0  0  0  0  0  0  0  0  0  0
    7.9010  -17.6780  -42.3150 H   0  0  0  0  0  0  0  0  0  0  0  0
    7.6260  -16.8450  -43.9380 H   0  0  0  0  0  0  0  0  0  0  0  0
  2  1  1  0  0  0  0
  3 27  1  0  0  0  0
  3  2  2  0  0  0  0
  4  3  1  0  0  0  0
  5  4  1  0  0  0  0
  6  7  1  0  0  0  0
  6  5  2  0  0  0  0
  7  8  1  0  0  0  0
  8  4  2  0  0  0  0
  8  9  1  0  0  0  0
  9 10  2  0  0  0  0
 10  2  1  0  0  0  0
 10 30  1  0  0  0  0
 11  7  1  0  0  0  0
 11 12  1  0  0  0  0
 12 13  1  0  0  0  0
 12 33  1  0  0  0  0
 13 14  1  0  0  0  0
 14 35  1  0  0  0  0
 14 15  1  0  0  0  0
 15 19  1  0  0  0  0
 16 15  2  0  0  0  0
 16 17  1  0  0  0  0
 17 18  1  0  0  0  0
 18 36  1  0  0  0  0
 19 18  1  0  0  0  0
 19 20  2  0  0  0  0
 21 16  1  0  0  0  0
 22 21  2  0  0  0  0
 22 13  1  0  0  0  0
 23 25  1  0  0  0  0
 23 21  1  0  0  0  0
 24 23  2  0  0  0  0
 26 25  1  0  0  0  0
 26 39  1  0  0  0  0
 28  6  1  0  0  0  0
 29  9  1  0  0  0  0
 31 11  1  0  0  0  0
 32 11  1  0  0  0  0
 34 12  1  0  0  0  0
 37 22  1  0  0  0  0
 38 26  1  0  0  0  0
 40 26  1  0  0  0  0
M  END
>  <Pose>
1

>  <Score>
-4.18

$$$$
