
 OpenBabel03232221553D

 49 52  0  0  1  0  0  0  0  0999 V2000
    3.4580  -21.1970  -40.6090 Cl  0  0  0  0  0  0  0  0  0  0  0  0
    4.8360  -21.1310  -41.6810 C   0  0  0  0  0  0  0  0  0  0  0  0
    5.7720  -20.1140  -41.5470 C   0  0  0  0  0  0  0  0  0  0  0  0
    6.8710  -20.0480  -42.3860 C   0  0  0  0  0  0  0  0  0  0  0  0
    7.9170  -19.2160  -42.5090 N   0  0  0  0  0  0  0  0  0  0  0  0
    8.7390  -19.6040  -43.5230 C   0  0  0  0  0  0  0  0  0  0  0  0
    8.1510  -20.7210  -44.0290 N   0  0  0  0  0  0  0  0  0  0  0  0
    7.0260  -21.0050  -43.3600 C   0  0  0  0  0  0  0  0  0  0  0  0
    6.0940  -22.0120  -43.4880 C   0  0  0  0  0  0  0  0  0  0  0  0
    4.9870  -22.0930  -42.6550 C   0  0  0  0  0  0  0  0  0  0  0  0
    9.9850  -18.9230  -43.9250 C   0  0  0  0  0  0  0  0  0  0  0  0
   11.1920  -19.7350  -43.5660 C   0  0  0  0  0  0  0  0  0  0  0  0
   11.9000  -20.1730  -44.7870 C   0  0  0  0  0  0  0  0  0  0  0  0
   11.8600  -19.4300  -45.7980 O   0  0  0  0  0  0  0  0  0  0  0  0
   12.6170  -21.3850  -44.8730 N   0  0  0  0  0  0  0  0  0  0  0  0
   13.2180  -22.2040  -43.8400 C   0  0  0  0  0  0  0  0  0  0  0  0
   12.9250  -23.5700  -44.2750 C   0  0  2  0  0  0  0  0  0  0  0  0
   12.4100  -23.4870  -45.7130 C   0  0  1  0  0  0  0  0  0  0  0  0
   12.9100  -22.0790  -46.1000 C   0  0  0  0  0  0  0  0  0  0  0  0
   12.9500  -24.4420  -46.5370 O   0  0  0  0  0  0  0  0  0  0  0  0
   12.1390  -24.4440  -43.4940 N   0  0  0  0  0  0  0  0  0  0  0  0
   10.8980  -24.7520  -43.9560 C   0  0  0  0  0  0  0  0  0  0  0  0
   10.0560  -25.5980  -43.2690 C   0  0  0  0  0  0  0  0  0  0  0  0
   10.4570  -26.1610  -42.0810 C   0  0  0  0  0  0  0  0  0  0  0  0
    9.7020  -26.9430  -41.4280 O   0  0  0  0  0  0  0  0  0  0  0  0
   11.6820  -25.8570  -41.6250 N   0  0  0  0  0  0  0  0  0  0  0  0
   12.4550  -25.0300  -42.3350 C   0  0  0  0  0  0  0  0  0  0  0  0
   13.5840  -24.7850  -41.8660 O   0  0  0  0  0  0  0  0  0  0  0  0
    8.6900  -25.9290  -43.7920 C   0  0  0  0  0  0  0  0  0  0  0  0
    5.6660  -19.3490  -40.7840 H   0  0  0  0  0  0  0  0  0  0  0  0
    8.0360  -18.3880  -41.8750 H   0  0  0  0  0  0  0  0  0  0  0  0
    6.1820  -22.7800  -44.2390 H   0  0  0  0  0  0  0  0  0  0  0  0
    4.2780  -22.8920  -42.7810 H   0  0  0  0  0  0  0  0  0  0  0  0
   10.0420  -17.9540  -43.3750 H   0  0  0  0  0  0  0  0  0  0  0  0
    9.9720  -18.7240  -45.0370 H   0  0  0  0  0  0  0  0  0  0  0  0
   11.9240  -19.0600  -43.0300 H   0  0  0  0  0  0  0  0  0  0  0  0
   10.9730  -20.5440  -42.8540 H   0  0  0  0  0  0  0  0  0  0  0  0
   12.9590  -21.8820  -42.8270 H   0  0  0  0  0  0  0  0  0  0  0  0
   14.3250  -21.9740  -43.9230 H   0  0  0  0  0  0  0  0  0  0  0  0
   13.9180  -24.1140  -44.4050 H   0  0  0  0  0  0  0  0  0  0  0  0
   11.3090  -23.4310  -45.7700 H   0  0  0  0  0  0  0  0  0  0  0  0
   12.3490  -21.6880  -46.9740 H   0  0  0  0  0  0  0  0  0  0  0  0
   13.9970  -22.1740  -46.2990 H   0  0  0  0  0  0  0  0  0  0  0  0
   12.2080  -24.9380  -46.9640 H   0  0  0  0  0  0  0  0  0  0  0  0
   10.5040  -24.3600  -44.8810 H   0  0  0  0  0  0  0  0  0  0  0  0
   12.0180  -26.2780  -40.7050 H   0  0  0  0  0  0  0  0  0  0  0  0
    8.4640  -25.3000  -44.6930 H   0  0  0  0  0  0  0  0  0  0  0  0
    8.5800  -26.9900  -43.9930 H   0  0  0  0  0  0  0  0  0  0  0  0
    7.9330  -25.6380  -43.0140 H   0  0  0  0  0  0  0  0  0  0  0  0
  2  3  1  0  0  0  0
  2  1  1  0  0  0  0
  3 30  1  0  0  0  0
  4  3  2  0  0  0  0
  5  4  1  0  0  0  0
  5 31  1  0  0  0  0
  6  5  1  0  0  0  0
  7  6  2  0  0  0  0
  7  8  1  0  0  0  0
  8  4  1  0  0  0  0
  9  8  2  0  0  0  0
  9 10  1  0  0  0  0
 10  2  2  0  0  0  0
 11 12  1  0  0  0  0
 11  6  1  0  0  0  0
 11 34  1  0  0  0  0
 12 36  1  0  0  0  0
 12 37  1  0  0  0  0
 13 12  1  0  0  0  0
 14 13  2  0  0  0  0
 15 13  1  0  0  0  0
 15 16  1  0  0  0  0
 16 38  1  0  0  0  0
 17 40  1  6  0  0  0
 17 16  1  0  0  0  0
 17 21  1  0  0  0  0
 18 41  1  6  0  0  0
 18 17  1  0  0  0  0
 19 18  1  0  0  0  0
 19 15  1  0  0  0  0
 20 18  1  0  0  0  0
 21 27  1  0  0  0  0
 22 21  1  0  0  0  0
 22 23  2  0  0  0  0
 23 24  1  0  0  0  0
 24 26  1  0  0  0  0
 24 25  2  0  0  0  0
 26 46  1  0  0  0  0
 27 28  2  0  0  0  0
 27 26  1  0  0  0  0
 29 23  1  0  0  0  0
 29 49  1  0  0  0  0
 32  9  1  0  0  0  0
 33 10  1  0  0  0  0
 35 11  1  0  0  0  0
 39 16  1  0  0  0  0
 42 19  1  0  0  0  0
 43 19  1  0  0  0  0
 44 20  1  0  0  0  0
 45 22  1  0  0  0  0
 47 29  1  0  0  0  0
 48 29  1  0  0  0  0
M  END
>  <Pose>
1

>  <Score>
-5.28

$$$$
