
 OpenBabel03232221553D

 55 58  0  0  1  0  0  0  0  0999 V2000
   12.0280  -29.3460  -44.8720 Cl  0  0  0  0  0  0  0  0  0  0  0  0
   11.1190  -28.0850  -44.0730 C   0  0  0  0  0  0  0  0  0  0  0  0
   10.1570  -27.3360  -44.7280 C   0  0  0  0  0  0  0  0  0  0  0  0
    9.4470  -26.3460  -44.0910 C   0  0  0  0  0  0  0  0  0  0  0  0
    8.4870  -25.5000  -44.4880 N   0  0  0  0  0  0  0  0  0  0  0  0
    8.1030  -24.6960  -43.4590 C   0  0  0  0  0  0  0  0  0  0  0  0
    8.8510  -25.0750  -42.4340 N   0  0  0  0  0  0  0  0  0  0  0  0
    9.6800  -26.0690  -42.7660 C   0  0  0  0  0  0  0  0  0  0  0  0
   10.6330  -26.8000  -42.0920 C   0  0  0  0  0  0  0  0  0  0  0  0
   11.3480  -27.8000  -42.7390 C   0  0  0  0  0  0  0  0  0  0  0  0
    7.0530  -23.6540  -43.5490 C   0  0  0  0  0  0  0  0  0  0  0  0
    7.0840  -22.8220  -42.2990 C   0  0  0  0  0  0  0  0  0  0  0  0
    6.0560  -21.7710  -42.3820 C   0  0  0  0  0  0  0  0  0  0  0  0
    5.3790  -21.6150  -43.4310 O   0  0  0  0  0  0  0  0  0  0  0  0
    5.8480  -20.9330  -41.2460 N   0  0  0  0  0  0  0  0  0  0  0  0
    5.8530  -21.4090  -39.8810 C   0  0  0  0  0  0  0  0  0  0  0  0
    4.7980  -20.6590  -39.0490 C   0  0  1  0  0  0  0  0  0  0  0  0
    3.7480  -20.2110  -40.0070 C   0  0  2  0  0  0  0  0  0  0  0  0
    4.2950  -19.0850  -40.8540 C   0  0  0  0  0  0  0  0  0  0  0  0
    5.6160  -19.5200  -41.4540 C   0  0  0  0  0  0  0  0  0  0  0  0
    2.4710  -19.9320  -39.4500 N   0  0  0  0  0  0  0  0  0  0  0  0
    2.2490  -18.9710  -38.5410 C   0  0  0  0  0  0  0  0  0  0  0  0
    0.9860  -18.7270  -38.0190 C   0  0  0  0  0  0  0  0  0  0  0  0
   -0.0740  -19.4930  -38.4460 C   0  0  0  0  0  0  0  0  0  0  0  0
   -1.2320  -19.2730  -37.9710 O   0  0  0  0  0  0  0  0  0  0  0  0
    0.1510  -20.4530  -39.3540 N   0  0  0  0  0  0  0  0  0  0  0  0
    1.3930  -20.6500  -39.8300 C   0  0  0  0  0  0  0  0  0  0  0  0
    1.6030  -21.5680  -40.6980 O   0  0  0  0  0  0  0  0  0  0  0  0
    0.7990  -17.6350  -37.0020 C   0  0  0  0  0  0  0  0  0  0  0  0
    4.3170  -21.6040  -38.1310 O   0  0  0  0  0  0  0  0  0  0  0  0
    5.5140  -19.5650  -38.3230 C   0  0  0  0  0  0  0  0  0  0  0  0
    9.9970  -27.5780  -45.7700 H   0  0  0  0  0  0  0  0  0  0  0  0
    8.0650  -25.4390  -45.4550 H   0  0  0  0  0  0  0  0  0  0  0  0
   10.8010  -26.5690  -41.0560 H   0  0  0  0  0  0  0  0  0  0  0  0
   12.0870  -28.3500  -42.1760 H   0  0  0  0  0  0  0  0  0  0  0  0
    6.0440  -24.1400  -43.5790 H   0  0  0  0  0  0  0  0  0  0  0  0
    7.2040  -22.9870  -44.4240 H   0  0  0  0  0  0  0  0  0  0  0  0
    6.9110  -23.4740  -41.4060 H   0  0  0  0  0  0  0  0  0  0  0  0
    8.1060  -22.4020  -42.1280 H   0  0  0  0  0  0  0  0  0  0  0  0
    5.7160  -22.4870  -39.8220 H   0  0  0  0  0  0  0  0  0  0  0  0
    6.8870  -21.1900  -39.4800 H   0  0  0  0  0  0  0  0  0  0  0  0
    3.5970  -21.0710  -40.7280 H   0  0  0  0  0  0  0  0  0  0  0  0
    3.6230  -18.8790  -41.7320 H   0  0  0  0  0  0  0  0  0  0  0  0
    4.3770  -18.1270  -40.3190 H   0  0  0  0  0  0  0  0  0  0  0  0
    5.6940  -19.2650  -42.5290 H   0  0  0  0  0  0  0  0  0  0  0  0
    6.4350  -18.9820  -40.8900 H   0  0  0  0  0  0  0  0  0  0  0  0
    3.0900  -18.3870  -38.2230 H   0  0  0  0  0  0  0  0  0  0  0  0
   -0.6430  -21.0390  -39.6860 H   0  0  0  0  0  0  0  0  0  0  0  0
   -0.0510  -17.9630  -36.3390 H   0  0  0  0  0  0  0  0  0  0  0  0
    1.7000  -17.6410  -36.3710 H   0  0  0  0  0  0  0  0  0  0  0  0
    0.5690  -16.6770  -37.4750 H   0  0  0  0  0  0  0  0  0  0  0  0
    4.2390  -22.4980  -38.5950 H   0  0  0  0  0  0  0  0  0  0  0  0
    6.6170  -19.5280  -38.5630 H   0  0  0  0  0  0  0  0  0  0  0  0
    5.5040  -19.7370  -37.2070 H   0  0  0  0  0  0  0  0  0  0  0  0
    5.1250  -18.5600  -38.4740 H   0  0  0  0  0  0  0  0  0  0  0  0
  1  2  1  0  0  0  0
  2 10  1  0  0  0  0
  3  4  1  0  0  0  0
  3  2  2  0  0  0  0
  4  8  2  0  0  0  0
  5  4  1  0  0  0  0
  5  6  1  0  0  0  0
  6  7  2  0  0  0  0
  8  7  1  0  0  0  0
  8  9  1  0  0  0  0
  9 34  1  0  0  0  0
 10 35  1  0  0  0  0
 10  9  2  0  0  0  0
 11  6  1  0  0  0  0
 11 12  1  0  0  0  0
 12 39  1  0  0  0  0
 12 38  1  0  0  0  0
 13 12  1  0  0  0  0
 13 15  1  0  0  0  0
 14 13  2  0  0  0  0
 15 16  1  0  0  0  0
 16 40  1  0  0  0  0
 16 41  1  0  0  0  0
 16 17  1  0  0  0  0
 17 31  1  0  0  0  0
 17 30  1  1  0  0  0
 18 42  1  6  0  0  0
 18 21  1  0  0  0  0
 18 17  1  0  0  0  0
 19 44  1  0  0  0  0
 19 18  1  0  0  0  0
 20 15  1  0  0  0  0
 20 46  1  0  0  0  0
 20 19  1  0  0  0  0
 21 22  1  0  0  0  0
 22 47  1  0  0  0  0
 22 23  2  0  0  0  0
 23 29  1  0  0  0  0
 24 23  1  0  0  0  0
 24 25  2  0  0  0  0
 26 24  1  0  0  0  0
 27 21  1  0  0  0  0
 27 26  1  0  0  0  0
 28 27  2  0  0  0  0
 29 50  1  0  0  0  0
 29 49  1  0  0  0  0
 31 54  1  0  0  0  0
 32  3  1  0  0  0  0
 33  5  1  0  0  0  0
 36 11  1  0  0  0  0
 37 11  1  0  0  0  0
 43 19  1  0  0  0  0
 45 20  1  0  0  0  0
 48 26  1  0  0  0  0
 51 29  1  0  0  0  0
 52 30  1  0  0  0  0
 53 31  1  0  0  0  0
 55 31  1  0  0  0  0
M  END
>  <Pose>
1

>  <Score>
-4.72

$$$$
