
 OpenBabel03232221553D

 55 59  0  0  1  0  0  0  0  0999 V2000
   11.9890  -27.7630  -43.9660 Cl  0  0  0  0  0  0  0  0  0  0  0  0
   11.0450  -26.2810  -43.8630 C   0  0  0  0  0  0  0  0  0  0  0  0
    9.7200  -26.2920  -43.4940 C   0  0  0  0  0  0  0  0  0  0  0  0
    9.0070  -25.0950  -43.4260 C   0  0  0  0  0  0  0  0  0  0  0  0
    7.7370  -24.7950  -43.1040 N   0  0  0  0  0  0  0  0  0  0  0  0
    7.5210  -23.4710  -43.1880 C   0  0  0  0  0  0  0  0  0  0  0  0
    8.6810  -22.9340  -43.5690 N   0  0  0  0  0  0  0  0  0  0  0  0
    9.6150  -23.8950  -43.7240 C   0  0  0  0  0  0  0  0  0  0  0  0
   10.9430  -23.8850  -44.0960 C   0  0  0  0  0  0  0  0  0  0  0  0
   11.6450  -25.0890  -44.1600 C   0  0  0  0  0  0  0  0  0  0  0  0
    6.2100  -22.8020  -42.8960 C   0  0  0  0  0  0  0  0  0  0  0  0
    5.7530  -23.2010  -41.5110 C   0  0  0  0  0  0  0  0  0  0  0  0
    4.7800  -22.2280  -40.9900 C   0  0  0  0  0  0  0  0  0  0  0  0
    3.7070  -22.0510  -41.5970 O   0  0  0  0  0  0  0  0  0  0  0  0
    5.0570  -21.5030  -39.8190 N   0  0  0  0  0  0  0  0  0  0  0  0
    4.3780  -21.4290  -38.5650 C   0  0  0  0  0  0  0  0  0  0  0  0
    4.4310  -19.9300  -38.1850 C   0  0  1  0  0  0  0  0  0  0  0  0
    5.7630  -19.5750  -38.7450 C   0  0  2  0  0  0  0  0  0  0  0  0
    6.2150  -20.6420  -39.6850 C   0  0  0  0  0  0  0  0  0  0  0  0
    6.7530  -19.4450  -37.7720 O   0  0  0  0  0  0  0  0  0  0  0  0
    3.3260  -19.2600  -38.8100 N   0  0  0  0  0  0  0  0  0  0  0  0
    2.4370  -18.4250  -38.2470 C   0  0  0  0  0  0  0  0  0  0  0  0
    1.5260  -18.0020  -39.2370 C   0  0  0  0  0  0  0  0  0  0  0  0
    1.9060  -18.6090  -40.3730 N   0  0  0  0  0  0  0  0  0  0  0  0
    2.9780  -19.3630  -40.1360 C   0  0  0  0  0  0  0  0  0  0  0  0
    0.4990  -17.1360  -38.9390 C   0  0  0  0  0  0  0  0  0  0  0  0
   -0.2990  -16.7760  -39.8460 O   0  0  0  0  0  0  0  0  0  0  0  0
    0.3960  -16.7050  -37.6770 N   0  0  0  0  0  0  0  0  0  0  0  0
    1.2620  -17.1090  -36.7460 C   0  0  0  0  0  0  0  0  0  0  0  0
    1.1500  -16.6960  -35.5620 O   0  0  0  0  0  0  0  0  0  0  0  0
    2.2990  -17.9690  -36.9860 N   0  0  0  0  0  0  0  0  0  0  0  0
    3.1880  -18.3610  -35.9390 C   0  0  0  0  0  0  0  0  0  0  0  0
   -0.6870  -15.7810  -37.3290 C   0  0  0  0  0  0  0  0  0  0  0  0
    9.2280  -27.2200  -43.2560 H   0  0  0  0  0  0  0  0  0  0  0  0
    7.0290  -25.5270  -42.8290 H   0  0  0  0  0  0  0  0  0  0  0  0
   11.4440  -22.9600  -44.3350 H   0  0  0  0  0  0  0  0  0  0  0  0
   12.6940  -25.0870  -44.4520 H   0  0  0  0  0  0  0  0  0  0  0  0
    5.4880  -23.1280  -43.6660 H   0  0  0  0  0  0  0  0  0  0  0  0
    6.3120  -21.6990  -42.9590 H   0  0  0  0  0  0  0  0  0  0  0  0
    6.6160  -23.3600  -40.8510 H   0  0  0  0  0  0  0  0  0  0  0  0
    5.2830  -24.2210  -41.6350 H   0  0  0  0  0  0  0  0  0  0  0  0
    5.0400  -21.9900  -37.8350 H   0  0  0  0  0  0  0  0  0  0  0  0
    3.3960  -21.8610  -38.4900 H   0  0  0  0  0  0  0  0  0  0  0  0
    4.3730  -20.0010  -37.0800 H   0  0  0  0  0  0  0  0  0  0  0  0
    5.6630  -18.6420  -39.3730 H   0  0  0  0  0  0  0  0  0  0  0  0
    6.5570  -20.2510  -40.6660 H   0  0  0  0  0  0  0  0  0  0  0  0
    7.0680  -21.2260  -39.2280 H   0  0  0  0  0  0  0  0  0  0  0  0
    7.5570  -18.9710  -38.1280 H   0  0  0  0  0  0  0  0  0  0  0  0
    3.5110  -19.9690  -40.8380 H   0  0  0  0  0  0  0  0  0  0  0  0
    4.1030  -17.7420  -35.8470 H   0  0  0  0  0  0  0  0  0  0  0  0
    2.6400  -18.0550  -34.9710 H   0  0  0  0  0  0  0  0  0  0  0  0
    3.3120  -19.4330  -35.7660 H   0  0  0  0  0  0  0  0  0  0  0  0
   -0.2710  -14.7760  -37.0940 H   0  0  0  0  0  0  0  0  0  0  0  0
   -1.4020  -15.7080  -38.1680 H   0  0  0  0  0  0  0  0  0  0  0  0
   -1.1790  -16.1440  -36.4060 H   0  0  0  0  0  0  0  0  0  0  0  0
  1  2  1  0  0  0  0
  2  3  1  0  0  0  0
  3  4  2  0  0  0  0
  3 34  1  0  0  0  0
  4  5  1  0  0  0  0
  5 35  1  0  0  0  0
  6  5  1  0  0  0  0
  6 11  1  0  0  0  0
  7  6  2  0  0  0  0
  8  7  1  0  0  0  0
  8  4  1  0  0  0  0
  9  8  2  0  0  0  0
 10  9  1  0  0  0  0
 10  2  2  0  0  0  0
 11 12  1  0  0  0  0
 12 13  1  0  0  0  0
 12 40  1  0  0  0  0
 13 15  1  0  0  0  0
 14 13  2  0  0  0  0
 15 19  1  0  0  0  0
 15 16  1  0  0  0  0
 16 43  1  0  0  0  0
 16 17  1  0  0  0  0
 16 42  1  0  0  0  0
 17 44  1  1  0  0  0
 18 45  1  6  0  0  0
 18 17  1  0  0  0  0
 18 20  1  0  0  0  0
 19 47  1  0  0  0  0
 19 18  1  0  0  0  0
 21 22  1  0  0  0  0
 21 17  1  0  0  0  0
 22 31  1  0  0  0  0
 23 26  1  0  0  0  0
 23 22  2  0  0  0  0
 24 25  2  0  0  0  0
 24 23  1  0  0  0  0
 25 21  1  0  0  0  0
 26 28  1  0  0  0  0
 27 26  2  0  0  0  0
 28 33  1  0  0  0  0
 28 29  1  0  0  0  0
 29 30  2  0  0  0  0
 31 29  1  0  0  0  0
 31 32  1  0  0  0  0
 32 50  1  0  0  0  0
 32 52  1  0  0  0  0
 32 51  1  0  0  0  0
 33 53  1  0  0  0  0
 33 55  1  0  0  0  0
 36  9  1  0  0  0  0
 37 10  1  0  0  0  0
 38 11  1  0  0  0  0
 39 11  1  0  0  0  0
 41 12  1  0  0  0  0
 46 19  1  0  0  0  0
 48 20  1  0  0  0  0
 49 25  1  0  0  0  0
 54 33  1  0  0  0  0
M  END
>  <Pose>
1

>  <Score>
-4.79

$$$$
