
 OpenBabel03232221553D

 50 53  0  0  1  0  0  0  0  0999 V2000
    0.6900  -20.0480  -38.1150 Cl  0  0  0  0  0  0  0  0  0  0  0  0
    2.3540  -19.8390  -38.5570 C   0  0  0  0  0  0  0  0  0  0  0  0
    2.7380  -19.8070  -39.8900 C   0  0  0  0  0  0  0  0  0  0  0  0
    4.0580  -19.6410  -40.2570 C   0  0  0  0  0  0  0  0  0  0  0  0
    4.9880  -19.5070  -39.2650 C   0  0  0  0  0  0  0  0  0  0  0  0
    4.6410  -19.5330  -37.9110 C   0  0  0  0  0  0  0  0  0  0  0  0
    3.3150  -19.7000  -37.5790 C   0  0  0  0  0  0  0  0  0  0  0  0
    6.2830  -19.3690  -39.8360 N   0  0  0  0  0  0  0  0  0  0  0  0
    6.1500  -19.4210  -41.2480 C   0  0  0  0  0  0  0  0  0  0  0  0
    7.1670  -19.3550  -42.0110 O   0  0  0  0  0  0  0  0  0  0  0  0
    4.7310  -19.5520  -41.5520 C   0  0  2  0  0  0  0  0  0  0  0  0
    4.2320  -18.4290  -42.3500 N   0  0  0  0  0  0  0  0  0  0  0  0
    4.7620  -18.7570  -43.6540 C   0  0  1  0  0  0  0  0  0  0  0  0
    4.6210  -20.2370  -43.8050 C   0  0  2  0  0  0  0  0  0  0  0  0
    4.3470  -20.7080  -42.4080 C   0  0  1  0  0  0  0  0  0  0  0  0
    5.1400  -21.9400  -42.1800 C   0  0  0  0  0  0  0  0  0  0  0  0
    5.0050  -22.6200  -41.1290 O   0  0  0  0  0  0  0  0  0  0  0  0
    5.9800  -22.1260  -43.3070 N   0  0  0  0  0  0  0  0  0  0  0  0
    5.9230  -20.9240  -44.0830 C   0  0  0  0  0  0  0  0  0  0  0  0
    6.7730  -20.4830  -44.8640 O   0  0  0  0  0  0  0  0  0  0  0  0
    6.7310  -23.2820  -43.6200 C   0  0  0  0  0  0  0  0  0  0  0  0
    7.9940  -23.5400  -42.8980 C   0  0  0  0  0  0  0  0  0  0  0  0
    8.7950  -24.7180  -43.3010 C   0  0  0  0  0  0  0  0  0  0  0  0
    8.9200  -25.7240  -42.3550 O   0  0  0  0  0  0  0  0  0  0  0  0
   10.2900  -26.0730  -42.2890 C   0  0  0  0  0  0  0  0  0  0  0  0
    4.0910  -17.9840  -44.7600 C   0  0  1  0  0  0  0  0  0  0  0  0
    4.7020  -18.3380  -45.9560 O   0  0  0  0  0  0  0  0  0  0  0  0
    2.6090  -18.2480  -44.8360 C   0  0  0  0  0  0  0  0  0  0  0  0
    1.9830  -19.9150  -40.6810 H   0  0  0  0  0  0  0  0  0  0  0  0
    5.3890  -19.4260  -37.1280 H   0  0  0  0  0  0  0  0  0  0  0  0
    3.0740  -19.7170  -36.5160 H   0  0  0  0  0  0  0  0  0  0  0  0
    7.1950  -19.2440  -39.3040 H   0  0  0  0  0  0  0  0  0  0  0  0
    3.1960  -18.5570  -42.3880 H   0  0  0  0  0  0  0  0  0  0  0  0
    5.8350  -18.4890  -43.7040 H   0  0  0  0  0  0  0  0  0  0  0  0
    3.8850  -20.5550  -44.5460 H   0  0  0  0  0  0  0  0  0  0  0  0
    3.2570  -20.9060  -42.2470 H   0  0  0  0  0  0  0  0  0  0  0  0
    6.8990  -23.3990  -44.7370 H   0  0  0  0  0  0  0  0  0  0  0  0
    6.0620  -24.1780  -43.4040 H   0  0  0  0  0  0  0  0  0  0  0  0
    7.8830  -23.5080  -41.7820 H   0  0  0  0  0  0  0  0  0  0  0  0
    8.6540  -22.6350  -43.0930 H   0  0  0  0  0  0  0  0  0  0  0  0
    8.3840  -25.2280  -44.2240 H   0  0  0  0  0  0  0  0  0  0  0  0
    9.8140  -24.3890  -43.6260 H   0  0  0  0  0  0  0  0  0  0  0  0
   10.5430  -26.4130  -43.3160 H   0  0  0  0  0  0  0  0  0  0  0  0
   10.4600  -26.9440  -41.6310 H   0  0  0  0  0  0  0  0  0  0  0  0
   10.9140  -25.2160  -42.0240 H   0  0  0  0  0  0  0  0  0  0  0  0
    4.2520  -16.9200  -44.5880 H   0  0  0  0  0  0  0  0  0  0  0  0
    4.1340  -18.1520  -46.7460 H   0  0  0  0  0  0  0  0  0  0  0  0
    2.0840  -17.8200  -43.9690 H   0  0  0  0  0  0  0  0  0  0  0  0
    2.3760  -19.3190  -45.0000 H   0  0  0  0  0  0  0  0  0  0  0  0
    2.2310  -17.7100  -45.7330 H   0  0  0  0  0  0  0  0  0  0  0  0
  2  1  1  0  0  0  0
  2  7  1  0  0  0  0
  3  2  2  0  0  0  0
  4  3  1  0  0  0  0
  4  5  2  0  0  0  0
  5  6  1  0  0  0  0
  6  7  2  0  0  0  0
  6 30  1  0  0  0  0
  7 31  1  0  0  0  0
  8 32  1  0  0  0  0
  8  5  1  0  0  0  0
  9  8  1  0  0  0  0
 10  9  2  0  0  0  0
 11  9  1  1  0  0  0
 11  4  1  0  0  0  0
 12 11  1  0  0  0  0
 13 34  1  6  0  0  0
 13 12  1  0  0  0  0
 14 35  1  6  0  0  0
 14 13  1  0  0  0  0
 14 15  1  0  0  0  0
 15 36  1  1  0  0  0
 15 16  1  0  0  0  0
 15 11  1  0  0  0  0
 16 17  2  0  0  0  0
 18 16  1  0  0  0  0
 19 14  1  0  0  0  0
 19 18  1  0  0  0  0
 20 19  2  0  0  0  0
 21 38  1  0  0  0  0
 21 18  1  0  0  0  0
 21 22  1  0  0  0  0
 22 39  1  0  0  0  0
 23 22  1  0  0  0  0
 23 24  1  0  0  0  0
 24 25  1  0  0  0  0
 25 45  1  0  0  0  0
 25 44  1  0  0  0  0
 26 46  1  1  0  0  0
 26 13  1  0  0  0  0
 27 26  1  0  0  0  0
 28 26  1  0  0  0  0
 28 48  1  0  0  0  0
 29  3  1  0  0  0  0
 33 12  1  0  0  0  0
 37 21  1  0  0  0  0
 40 22  1  0  0  0  0
 41 23  1  0  0  0  0
 42 23  1  0  0  0  0
 43 25  1  0  0  0  0
 47 27  1  0  0  0  0
 49 28  1  0  0  0  0
 50 28  1  0  0  0  0
M  END
>  <Pose>
1

>  <Score>
-4.20

$$$$
