
 OpenBabel03232221553D

 30 33  0  0  1  0  0  0  0  0999 V2000
    3.1020  -18.1170  -35.8710 F   0  0  0  0  0  0  0  0  0  0  0  0
    3.0880  -18.5670  -37.1700 C   0  0  0  0  0  0  0  0  0  0  0  0
    4.2720  -19.0800  -37.7150 C   0  0  0  0  0  0  0  0  0  0  0  0
    4.2790  -19.5310  -39.0000 C   0  0  0  0  0  0  0  0  0  0  0  0
    3.1090  -19.4830  -39.7720 C   0  0  0  0  0  0  0  0  0  0  0  0
    1.9670  -18.9780  -39.2150 C   0  0  0  0  0  0  0  0  0  0  0  0
    1.9380  -18.5170  -37.9210 C   0  0  0  0  0  0  0  0  0  0  0  0
    0.4580  -17.8650  -37.2050 Cl  0  0  0  0  0  0  0  0  0  0  0  0
    5.6450  -20.0170  -39.3250 C   0  0  2  0  0  0  0  0  0  0  0  0
    6.1570  -19.2820  -40.4380 N   0  0  0  0  0  0  0  0  0  0  0  0
    5.8950  -19.6900  -41.7630 C   0  0  0  0  0  0  0  0  0  0  0  0
    6.0720  -18.8590  -42.8220 N   0  0  0  0  0  0  0  0  0  0  0  0
    5.8400  -19.1950  -44.0950 C   0  0  0  0  0  0  0  0  0  0  0  0
    5.3860  -20.4770  -44.3840 C   0  0  0  0  0  0  0  0  0  0  0  0
    5.1820  -21.3760  -43.3750 C   0  0  0  0  0  0  0  0  0  0  0  0
    5.4420  -20.9610  -42.0870 C   0  0  0  0  0  0  0  0  0  0  0  0
    5.2550  -21.8490  -40.9350 C   0  0  0  0  0  0  0  0  0  0  0  0
    4.8380  -23.0310  -41.1860 O   0  0  0  0  0  0  0  0  0  0  0  0
    5.5190  -21.4340  -39.6170 N   0  0  0  0  0  0  0  0  0  0  0  0
    6.4160  -19.7950  -38.0960 C   0  0  0  0  0  0  0  0  0  0  0  0
    7.6580  -20.0630  -37.8990 O   0  0  0  0  0  0  0  0  0  0  0  0
    5.5710  -19.2280  -37.1280 N   0  0  0  0  0  0  0  0  0  0  0  0
    3.1420  -19.8530  -40.8010 H   0  0  0  0  0  0  0  0  0  0  0  0
    1.0580  -18.9350  -39.8000 H   0  0  0  0  0  0  0  0  0  0  0  0
    6.7400  -18.4200  -40.3010 H   0  0  0  0  0  0  0  0  0  0  0  0
    5.9860  -18.5190  -44.9240 H   0  0  0  0  0  0  0  0  0  0  0  0
    5.1910  -20.7760  -45.3980 H   0  0  0  0  0  0  0  0  0  0  0  0
    4.8310  -22.3920  -43.5200 H   0  0  0  0  0  0  0  0  0  0  0  0
    5.6130  -22.1780  -38.8880 H   0  0  0  0  0  0  0  0  0  0  0  0
    5.7910  -18.9410  -36.1370 H   0  0  0  0  0  0  0  0  0  0  0  0
  2  1  1  0  0  0  0
  3  2  1  0  0  0  0
  3 22  1  0  0  0  0
  4  3  2  0  0  0  0
  5  6  2  0  0  0  0
  5  4  1  0  0  0  0
  6  7  1  0  0  0  0
  7  8  1  0  0  0  0
  7  2  2  0  0  0  0
  9  4  1  1  0  0  0
  9 20  1  0  0  0  0
 10 25  1  0  0  0  0
 10  9  1  0  0  0  0
 11 10  1  0  0  0  0
 12 11  2  0  0  0  0
 13 12  1  0  0  0  0
 14 13  2  0  0  0  0
 14 15  1  0  0  0  0
 15 16  2  0  0  0  0
 16 11  1  0  0  0  0
 16 17  1  0  0  0  0
 17 19  1  0  0  0  0
 18 17  2  0  0  0  0
 19  9  1  0  0  0  0
 19 29  1  0  0  0  0
 20 21  2  0  0  0  0
 20 22  1  0  0  0  0
 22 30  1  0  0  0  0
 23  5  1  0  0  0  0
 24  6  1  0  0  0  0
 26 13  1  0  0  0  0
 27 14  1  0  0  0  0
 28 15  1  0  0  0  0
M  END
>  <Pose>
1

>  <Score>
-4.48

$$$$
