
 OpenBabel03232221553D

 48 51  0  0  0  0  0  0  0  0999 V2000
    8.5970  -25.5670  -43.6850 S   0  0  0  0  0  0  0  0  0  0  0  0
    9.2810  -24.2270  -43.4540 O   0  0  0  0  0  0  0  0  0  0  0  0
    8.3100  -26.1070  -42.2970 O   0  0  0  0  0  0  0  0  0  0  0  0
    7.1350  -25.2950  -44.4640 N   0  0  0  0  0  0  0  0  0  0  0  0
    6.0170  -26.0440  -44.0070 C   0  0  0  0  0  0  0  0  0  0  0  0
    4.8330  -25.1860  -43.6400 C   0  0  0  0  0  0  0  0  0  0  0  0
    5.2220  -23.9050  -43.1100 N   0  0  0  0  0  0  0  0  0  0  0  0
    6.1870  -23.1080  -43.8270 C   0  0  0  0  0  0  0  0  0  0  0  0
    6.8420  -23.9670  -44.8630 C   0  0  0  0  0  0  0  0  0  0  0  0
    4.6890  -23.3930  -41.9010 C   0  0  0  0  0  0  0  0  0  0  0  0
    3.5840  -23.8120  -41.5060 O   0  0  0  0  0  0  0  0  0  0  0  0
    5.4060  -22.3790  -41.0960 C   0  0  0  0  0  0  0  0  0  0  0  0
    4.4890  -21.5200  -40.4060 N   0  0  0  0  0  0  0  0  0  0  0  0
    4.3220  -21.3020  -39.0120 C   0  0  0  0  0  0  0  0  0  0  0  0
    4.9990  -21.8680  -38.1260 O   0  0  0  0  0  0  0  0  0  0  0  0
    3.2550  -20.3330  -38.8230 C   0  0  0  0  0  0  0  0  0  0  0  0
    2.7700  -19.9550  -40.0530 C   0  0  0  0  0  0  0  0  0  0  0  0
    1.7370  -19.0300  -40.1230 C   0  0  0  0  0  0  0  0  0  0  0  0
    1.1880  -18.4810  -38.9970 C   0  0  0  0  0  0  0  0  0  0  0  0
    1.6710  -18.8550  -37.7440 C   0  0  0  0  0  0  0  0  0  0  0  0
    2.7030  -19.7800  -37.6950 C   0  0  0  0  0  0  0  0  0  0  0  0
    3.5270  -20.6860  -41.0610 C   0  0  0  0  0  0  0  0  0  0  0  0
    3.3130  -20.5530  -42.2950 O   0  0  0  0  0  0  0  0  0  0  0  0
    9.6670  -26.6720  -44.4620 C   0  0  0  0  0  0  0  0  0  0  0  0
   10.7480  -27.1870  -43.7670 C   0  0  0  0  0  0  0  0  0  0  0  0
   11.6350  -28.0750  -44.3410 C   0  0  0  0  0  0  0  0  0  0  0  0
   11.4170  -28.4510  -45.6540 C   0  0  0  0  0  0  0  0  0  0  0  0
   10.3360  -27.9290  -46.3340 C   0  0  0  0  0  0  0  0  0  0  0  0
    9.4420  -27.0410  -45.7730 C   0  0  0  0  0  0  0  0  0  0  0  0
   12.6170  -29.6870  -46.5160 B   0  0  0  0  0  0  0  0  0  0  0  0
    5.6810  -26.6950  -44.8670 H   0  0  0  0  0  0  0  0  0  0  0  0
    6.3050  -26.7450  -43.1960 H   0  0  0  0  0  0  0  0  0  0  0  0
    4.2140  -25.7350  -42.9060 H   0  0  0  0  0  0  0  0  0  0  0  0
    4.1770  -25.0460  -44.5390 H   0  0  0  0  0  0  0  0  0  0  0  0
    5.6540  -22.2830  -44.3850 H   0  0  0  0  0  0  0  0  0  0  0  0
    6.8900  -22.6600  -43.1070 H   0  0  0  0  0  0  0  0  0  0  0  0
    7.7370  -23.4780  -45.2880 H   0  0  0  0  0  0  0  0  0  0  0  0
    6.1160  -24.0330  -45.7270 H   0  0  0  0  0  0  0  0  0  0  0  0
    6.0130  -21.7650  -41.8180 H   0  0  0  0  0  0  0  0  0  0  0  0
    6.1010  -22.8600  -40.3710 H   0  0  0  0  0  0  0  0  0  0  0  0
    1.3760  -18.7530  -41.0940 H   0  0  0  0  0  0  0  0  0  0  0  0
    0.3960  -17.7710  -39.0500 H   0  0  0  0  0  0  0  0  0  0  0  0
    1.2800  -18.4590  -36.8340 H   0  0  0  0  0  0  0  0  0  0  0  0
    3.0730  -20.0660  -36.7180 H   0  0  0  0  0  0  0  0  0  0  0  0
   10.9550  -26.9160  -42.7250 H   0  0  0  0  0  0  0  0  0  0  0  0
   12.4880  -28.4940  -43.8220 H   0  0  0  0  0  0  0  0  0  0  0  0
   10.1480  -28.2160  -47.3790 H   0  0  0  0  0  0  0  0  0  0  0  0
    8.5990  -26.6550  -46.3560 H   0  0  0  0  0  0  0  0  0  0  0  0
  1  2  2  0  0  0  0
  1  3  2  0  0  0  0
  4  5  1  0  0  0  0
  4  1  1  0  0  0  0
  5  6  1  0  0  0  0
  5 32  1  0  0  0  0
  6  7  1  0  0  0  0
  6 33  1  0  0  0  0
  7 10  1  0  0  0  0
  8  7  1  0  0  0  0
  8 36  1  0  0  0  0
  9  4  1  0  0  0  0
  9  8  1  0  0  0  0
 10 11  2  0  0  0  0
 10 12  1  0  0  0  0
 12 13  1  0  0  0  0
 12 40  1  0  0  0  0
 13 14  1  0  0  0  0
 14 16  1  0  0  0  0
 14 15  2  0  0  0  0
 16 21  1  0  0  0  0
 17 16  2  0  0  0  0
 18 17  1  0  0  0  0
 18 19  2  0  0  0  0
 19 20  1  0  0  0  0
 20 21  2  0  0  0  0
 20 43  1  0  0  0  0
 21 44  1  0  0  0  0
 22 13  1  0  0  0  0
 22 17  1  0  0  0  0
 23 22  2  0  0  0  0
 24 25  1  0  0  0  0
 24  1  1  0  0  0  0
 25 45  1  0  0  0  0
 26 46  1  0  0  0  0
 26 25  2  0  0  0  0
 27 26  1  0  0  0  0
 28 29  1  0  0  0  0
 28 27  2  0  0  0  0
 29 24  2  0  0  0  0
 30 27  1  0  0  0  0
 31  5  1  0  0  0  0
 34  6  1  0  0  0  0
 35  8  1  0  0  0  0
 37  9  1  0  0  0  0
 38  9  1  0  0  0  0
 39 12  1  0  0  0  0
 41 18  1  0  0  0  0
 42 19  1  0  0  0  0
 47 28  1  0  0  0  0
 48 29  1  0  0  0  0
M  END
>  <Pose>
1

>  <Score>
-4.16

$$$$
