
 OpenBabel03232221553D

 43 46  0  0  1  0  0  0  0  0999 V2000
    0.7510  -20.4430  -39.0230 Cl  0  0  0  0  0  0  0  0  0  0  0  0
    2.4610  -20.1150  -39.1350 C   0  0  0  0  0  0  0  0  0  0  0  0
    3.1660  -19.7250  -38.0820 N   0  0  0  0  0  4  0  0  0  0  0  0
    4.4760  -19.4540  -38.0800 C   0  0  0  0  0  0  0  0  0  0  0  0
    5.3720  -19.0560  -37.1620 N   0  0  0  0  0  0  0  0  0  0  0  0
    6.5780  -18.9430  -37.7420 C   0  0  0  0  0  0  0  0  0  0  0  0
    6.4160  -19.2780  -39.0360 N   0  0  0  0  0  0  0  0  0  0  0  0
    5.1400  -19.6010  -39.2950 C   0  0  1  0  0  0  0  0  0  0  0  0
    4.4180  -20.0060  -40.3920 C   0  0  0  0  0  0  0  0  0  0  0  0
    3.1050  -20.2590  -40.3150 N   0  0  0  0  0  0  0  0  0  0  0  0
    5.1470  -20.1470  -41.6340 N   0  0  0  0  0  0  0  0  0  0  0  0
    4.7020  -21.0840  -42.5960 C   0  0  0  0  0  0  0  0  0  0  0  0
    5.3220  -22.3990  -42.5490 C   0  0  0  0  0  0  0  0  0  0  0  0
    5.6790  -22.7520  -41.2960 O   0  0  0  0  0  0  0  0  0  0  0  0
    5.6020  -23.3170  -43.5230 N   0  0  0  0  0  0  0  0  0  0  0  0
    5.1220  -24.6500  -43.6470 C   0  0  0  0  0  0  0  0  0  0  0  0
    6.2510  -25.6730  -43.5330 C   0  0  0  0  0  0  0  0  0  0  0  0
    7.4130  -25.0190  -44.0630 N   0  0  0  0  0  0  0  0  0  0  0  0
    7.2310  -24.1200  -45.1650 C   0  0  0  0  0  0  0  0  0  0  0  0
    6.5650  -22.8620  -44.5970 C   0  0  0  0  0  0  0  0  0  0  0  0
    8.7040  -25.2310  -43.5480 C   0  0  0  0  0  0  0  0  0  0  0  0
    8.9250  -26.0300  -42.4630 N   0  0  0  0  0  0  0  0  0  0  0  0
   10.1090  -26.2690  -41.9300 C   0  0  0  0  0  0  0  0  0  0  0  0
   11.2500  -25.7140  -42.4400 C   0  0  0  0  0  0  0  0  0  0  0  0
   11.0980  -24.8900  -43.5450 C   0  0  0  0  0  0  0  0  0  0  0  0
    9.8440  -24.6540  -44.0870 C   0  0  0  0  0  0  0  0  0  0  0  0
    7.5270  -18.6420  -37.2910 H   0  0  0  0  0  0  0  0  0  0  0  0
    7.1540  -19.3010  -39.7890 H   0  0  0  0  0  0  0  0  0  0  0  0
    5.9810  -19.5760  -41.7980 H   0  0  0  0  0  0  0  0  0  0  0  0
    3.5680  -21.1600  -42.6100 H   0  0  0  0  0  0  0  0  0  0  0  0
    4.9970  -20.6450  -43.6170 H   0  0  0  0  0  0  0  0  0  0  0  0
    4.3560  -24.8910  -42.9370 H   0  0  0  0  0  0  0  0  0  0  0  0
    4.7090  -24.7610  -44.7160 H   0  0  0  0  0  0  0  0  0  0  0  0
    6.0150  -26.5490  -44.1830 H   0  0  0  0  0  0  0  0  0  0  0  0
    6.3230  -26.0110  -42.5100 H   0  0  0  0  0  0  0  0  0  0  0  0
    6.5320  -24.5200  -45.9310 H   0  0  0  0  0  0  0  0  0  0  0  0
    8.1980  -23.8140  -45.5950 H   0  0  0  0  0  0  0  0  0  0  0  0
    6.0120  -22.3500  -45.3730 H   0  0  0  0  0  0  0  0  0  0  0  0
    7.2770  -22.2190  -44.0720 H   0  0  0  0  0  0  0  0  0  0  0  0
   10.1940  -26.9270  -41.0540 H   0  0  0  0  0  0  0  0  0  0  0  0
   12.2020  -25.9130  -42.0030 H   0  0  0  0  0  0  0  0  0  0  0  0
   12.0010  -24.4340  -43.9710 H   0  0  0  0  0  0  0  0  0  0  0  0
    9.7790  -24.0170  -44.9310 H   0  0  0  0  0  0  0  0  0  0  0  0
  2  1  1  0  0  0  0
  2  3  2  0  0  0  0
  3  4  2  0  0  0  0
  4  5  1  0  0  0  0
  6 27  1  0  0  0  0
  6  5  2  0  0  0  0
  7  6  1  0  0  0  0
  8  9  1  1  0  0  0
  8  7  1  0  0  0  0
  8  4  1  0  0  0  0
  9 10  2  0  0  0  0
 10  2  1  0  0  0  0
 11  9  1  0  0  0  0
 12 13  1  0  0  0  0
 12 11  1  0  0  0  0
 13 14  2  0  0  0  0
 15 13  1  0  0  0  0
 16 17  1  0  0  0  0
 16 15  1  0  0  0  0
 16 32  1  0  0  0  0
 17 35  1  0  0  0  0
 18 21  1  0  0  0  0
 18 17  1  0  0  0  0
 19 20  1  0  0  0  0
 19 18  1  0  0  0  0
 20 39  1  0  0  0  0
 20 15  1  0  0  0  0
 21 22  1  0  0  0  0
 22 23  2  0  0  0  0
 23 40  1  0  0  0  0
 24 41  1  0  0  0  0
 24 23  1  0  0  0  0
 25 24  2  0  0  0  0
 26 21  2  0  0  0  0
 26 25  1  0  0  0  0
 28  7  1  0  0  0  0
 29 11  1  0  0  0  0
 30 12  1  0  0  0  0
 31 12  1  0  0  0  0
 33 16  1  0  0  0  0
 34 17  1  0  0  0  0
 36 19  1  0  0  0  0
 37 19  1  0  0  0  0
 38 20  1  0  0  0  0
 42 25  1  0  0  0  0
 43 26  1  0  0  0  0
M  END
>  <Pose>
1

>  <Score>
-5.08

$$$$
