
 OpenBabel03232221553D

 39 42  0  0  0  0  0  0  0  0999 V2000
   -1.6630  -15.8960  -37.4360 B   0  0  0  0  0  0  0  0  0  0  0  0
   -0.7610  -14.2820  -37.0300 C   0  0  0  0  0  0  0  0  0  0  0  0
    0.6340  -14.3000  -36.9910 C   0  0  0  0  0  0  0  0  0  0  0  0
    1.2240  -13.0880  -36.6880 C   0  0  0  0  0  0  0  0  0  0  0  0
    0.4850  -11.9280  -36.4410 C   0  0  0  0  0  0  0  0  0  0  0  0
   -0.8850  -11.9730  -36.4940 C   0  0  0  0  0  0  0  0  0  0  0  0
   -1.5170  -13.1600  -36.7910 C   0  0  0  0  0  0  0  0  0  0  0  0
    1.3430  -15.4930  -37.2470 N   0  0  0  0  0  0  0  0  0  0  0  0
    1.3120  -16.6960  -36.5420 C   0  0  0  0  0  0  0  0  0  0  0  0
    1.7590  -16.7880  -35.3840 O   0  0  0  0  0  0  0  0  0  0  0  0
    0.7450  -17.9340  -37.1380 C   0  0  0  0  0  0  0  0  0  0  0  0
    1.8200  -18.8400  -37.5760 N   0  0  0  0  0  0  0  0  0  0  0  0
    2.7850  -19.3540  -36.8310 N   0  0  0  0  0  0  0  0  0  0  0  0
    3.5690  -20.1250  -37.5760 N   0  0  0  0  0  0  0  0  0  0  0  0
    3.0950  -20.1080  -38.8400 C   0  0  0  0  0  0  0  0  0  0  0  0
    2.0190  -19.3060  -38.7970 N   0  0  0  0  0  0  0  0  0  0  0  0
    3.6420  -20.8120  -39.9910 C   0  0  0  0  0  0  0  0  0  0  0  0
    5.0090  -20.8510  -40.1350 C   0  0  0  0  0  0  0  0  0  0  0  0
    5.5290  -21.5200  -41.2300 C   0  0  0  0  0  0  0  0  0  0  0  0
    4.7280  -22.1340  -42.1590 C   0  0  0  0  0  0  0  0  0  0  0  0
    3.3550  -22.0960  -42.0170 C   0  0  0  0  0  0  0  0  0  0  0  0
    2.8380  -21.4270  -40.9210 C   0  0  0  0  0  0  0  0  0  0  0  0
    5.9070  -20.2360  -39.2110 N   0  0  0  0  0  0  0  0  0  0  0  0
    5.9570  -18.9300  -38.9810 N   0  0  0  0  0  0  0  0  0  0  0  0
    6.8860  -18.6940  -38.0820 N   0  0  0  0  0  0  0  0  0  0  0  0
    7.4310  -19.8590  -37.7380 N   0  0  0  0  0  0  0  0  0  0  0  0
    6.8160  -20.8270  -38.4490 C   0  0  0  0  0  0  0  0  0  0  0  0
    2.2810  -12.9820  -36.6300 H   0  0  0  0  0  0  0  0  0  0  0  0
    0.9690  -10.9990  -36.2080 H   0  0  0  0  0  0  0  0  0  0  0  0
   -1.4990  -11.1080  -36.3120 H   0  0  0  0  0  0  0  0  0  0  0  0
   -2.5950  -13.1600  -36.8250 H   0  0  0  0  0  0  0  0  0  0  0  0
    1.9890  -15.4730  -38.0920 H   0  0  0  0  0  0  0  0  0  0  0  0
    0.0570  -17.7370  -37.9700 H   0  0  0  0  0  0  0  0  0  0  0  0
    0.1720  -18.5280  -36.3790 H   0  0  0  0  0  0  0  0  0  0  0  0
    6.6060  -21.5580  -41.3540 H   0  0  0  0  0  0  0  0  0  0  0  0
    5.1250  -22.6650  -43.0250 H   0  0  0  0  0  0  0  0  0  0  0  0
    2.7050  -22.5790  -42.7430 H   0  0  0  0  0  0  0  0  0  0  0  0
    1.7600  -21.4110  -40.8300 H   0  0  0  0  0  0  0  0  0  0  0  0
    7.0070  -21.8900  -38.4200 H   0  0  0  0  0  0  0  0  0  0  0  0
  1  2  1  0  0  0  0
  2  3  2  0  0  0  0
  2  7  1  0  0  0  0
  3  4  1  0  0  0  0
  4 28  1  0  0  0  0
  4  5  2  0  0  0  0
  5 29  1  0  0  0  0
  6  5  1  0  0  0  0
  6 30  1  0  0  0  0
  7  6  2  0  0  0  0
  8  3  1  0  0  0  0
  8  9  1  0  0  0  0
  9 10  2  0  0  0  0
 11  9  1  0  0  0  0
 11 34  1  0  0  0  0
 12 11  1  0  0  0  0
 12 13  1  0  0  0  0
 14 13  1  0  0  0  0
 15 16  1  0  0  0  0
 15 14  2  0  0  0  0
 16 12  1  0  0  0  0
 17 15  1  0  0  0  0
 18 17  1  0  0  0  0
 18 23  1  0  0  0  0
 19 18  2  0  0  0  0
 20 21  2  0  0  0  0
 20 19  1  0  0  0  0
 21 22  1  0  0  0  0
 22 38  1  0  0  0  0
 22 17  2  0  0  0  0
 23 24  1  0  0  0  0
 23 27  1  0  0  0  0
 24 25  2  0  0  0  0
 25 26  1  0  0  0  0
 27 39  1  0  0  0  0
 27 26  2  0  0  0  0
 31  7  1  0  0  0  0
 32  8  1  0  0  0  0
 33 11  1  0  0  0  0
 35 19  1  0  0  0  0
 36 20  1  0  0  0  0
 37 21  1  0  0  0  0
M  END
>  <Pose>
1

>  <Score>
-5.07

$$$$
