
 OpenBabel03232221553D

 47 50  0  0  1  0  0  0  0  0999 V2000
   -3.9950  -17.2210  -37.6820 Cl  0  0  0  0  0  0  0  0  0  0  0  0
   -2.4420  -17.3370  -38.4650 C   0  0  0  0  0  0  0  0  0  0  0  0
   -1.3190  -17.7040  -37.7660 C   0  0  0  0  0  0  0  0  0  0  0  0
   -0.0710  -17.8120  -38.3540 C   0  0  0  0  0  0  0  0  0  0  0  0
    0.0370  -17.5410  -39.6840 C   0  0  0  0  0  0  0  0  0  0  0  0
   -1.0700  -17.1650  -40.4380 C   0  0  0  0  0  0  0  0  0  0  0  0
   -2.2980  -17.0680  -39.8140 C   0  0  0  0  0  0  0  0  0  0  0  0
    1.0760  -18.1800  -37.5960 N   0  0  0  0  0  0  0  0  0  0  0  0
    1.5220  -17.2620  -36.6000 C   0  0  0  0  0  0  0  0  0  0  0  0
    0.9520  -16.1710  -36.3540 O   0  0  0  0  0  0  0  0  0  0  0  0
    2.6800  -17.6020  -35.8390 N   0  0  0  0  0  0  0  0  0  0  0  0
    3.3520  -18.8440  -36.0970 C   0  0  0  0  0  0  0  0  0  0  0  0
    4.2230  -19.1930  -35.2320 O   0  0  0  0  0  0  0  0  0  0  0  0
    3.0640  -19.6730  -37.2820 C   0  0  1  0  0  0  0  0  0  0  0  0
    1.7240  -19.4170  -37.8630 C   0  0  0  0  0  0  0  0  0  0  0  0
    1.2050  -20.3080  -38.5790 O   0  0  0  0  0  0  0  0  0  0  0  0
    4.1280  -19.4770  -38.3370 C   0  0  0  0  0  0  0  0  0  0  0  0
    3.9140  -18.9050  -39.5070 C   0  0  0  0  0  0  0  0  0  0  0  0
    5.2210  -18.9360  -40.2000 C   0  0  1  0  0  0  0  0  0  0  0  0
    6.1520  -18.9120  -39.0860 N   0  0  0  0  0  0  0  0  0  0  0  0
    5.5040  -19.8420  -38.2350 N   0  0  0  0  0  0  0  0  0  0  0  0
    5.3730  -20.1920  -40.9860 C   0  0  0  0  0  0  0  0  0  0  0  0
    4.6540  -21.3350  -40.7830 C   0  0  0  0  0  0  0  0  0  0  0  0
    4.8050  -22.4630  -41.5660 C   0  0  0  0  0  0  0  0  0  0  0  0
    5.7140  -22.4710  -42.6090 C   0  0  0  0  0  0  0  0  0  0  0  0
    6.4500  -21.2930  -42.8120 C   0  0  0  0  0  0  0  0  0  0  0  0
    6.2870  -20.1800  -42.0220 C   0  0  0  0  0  0  0  0  0  0  0  0
    5.8880  -23.5720  -43.4120 O   0  0  0  0  0  0  0  0  0  0  0  0
    7.1720  -24.0210  -43.7940 C   0  0  0  0  0  0  0  0  0  0  0  0
    4.0410  -23.6160  -41.3140 O   0  0  0  0  0  0  0  0  0  0  0  0
   -1.3780  -17.9310  -36.6960 H   0  0  0  0  0  0  0  0  0  0  0  0
    1.0050  -17.6160  -40.1810 H   0  0  0  0  0  0  0  0  0  0  0  0
   -0.9130  -16.9640  -41.4760 H   0  0  0  0  0  0  0  0  0  0  0  0
   -3.1390  -16.7760  -40.4090 H   0  0  0  0  0  0  0  0  0  0  0  0
    3.0640  -16.9710  -35.0890 H   0  0  0  0  0  0  0  0  0  0  0  0
    3.0460  -20.7290  -36.9260 H   0  0  0  0  0  0  0  0  0  0  0  0
    2.9740  -18.5090  -39.8500 H   0  0  0  0  0  0  0  0  0  0  0  0
    5.3880  -18.0610  -40.8600 H   0  0  0  0  0  0  0  0  0  0  0  0
    7.1170  -19.1600  -39.3160 H   0  0  0  0  0  0  0  0  0  0  0  0
    5.8560  -20.6080  -37.6590 H   0  0  0  0  0  0  0  0  0  0  0  0
    3.9450  -21.3710  -39.9940 H   0  0  0  0  0  0  0  0  0  0  0  0
    7.1520  -21.3360  -43.6350 H   0  0  0  0  0  0  0  0  0  0  0  0
    6.9040  -19.3040  -42.2530 H   0  0  0  0  0  0  0  0  0  0  0  0
    7.7760  -23.1720  -44.2150 H   0  0  0  0  0  0  0  0  0  0  0  0
    7.1040  -24.7540  -44.6470 H   0  0  0  0  0  0  0  0  0  0  0  0
    7.7500  -24.4590  -42.9670 H   0  0  0  0  0  0  0  0  0  0  0  0
    3.8780  -23.8770  -40.3470 H   0  0  0  0  0  0  0  0  0  0  0  0
  2  3  1  0  0  0  0
  2  1  1  0  0  0  0
  3 31  1  0  0  0  0
  4  3  2  0  0  0  0
  4  8  1  0  0  0  0
  5  4  1  0  0  0  0
  6  7  1  0  0  0  0
  6  5  2  0  0  0  0
  7  2  2  0  0  0  0
  8  9  1  0  0  0  0
  9 10  2  0  0  0  0
  9 11  1  0  0  0  0
 11 35  1  0  0  0  0
 12 11  1  0  0  0  0
 12 13  2  0  0  0  0
 14 36  1  1  0  0  0
 14 12  1  0  0  0  0
 15  8  1  0  0  0  0
 15 14  1  0  0  0  0
 16 15  2  0  0  0  0
 17 21  1  0  0  0  0
 17 14  1  0  0  0  0
 18 17  2  0  0  0  0
 19 38  1  6  0  0  0
 19 18  1  0  0  0  0
 19 20  1  0  0  0  0
 20 21  1  0  0  0  0
 21 40  1  0  0  0  0
 22 23  1  0  0  0  0
 22 19  1  0  0  0  0
 23 41  1  0  0  0  0
 24 30  1  0  0  0  0
 24 23  2  0  0  0  0
 25 24  1  0  0  0  0
 26 25  2  0  0  0  0
 26 27  1  0  0  0  0
 27 22  2  0  0  0  0
 28 25  1  0  0  0  0
 29 28  1  0  0  0  0
 29 46  1  0  0  0  0
 30 47  1  0  0  0  0
 32  5  1  0  0  0  0
 33  6  1  0  0  0  0
 34  7  1  0  0  0  0
 37 18  1  0  0  0  0
 39 20  1  0  0  0  0
 42 26  1  0  0  0  0
 43 27  1  0  0  0  0
 44 29  1  0  0  0  0
 45 29  1  0  0  0  0
M  END
>  <Pose>
1

>  <Score>
-5.15

$$$$
