
 OpenBabel03232221553D

 47 50  0  0  1  0  0  0  0  0999 V2000
    9.0530  -25.7880  -43.0390 Cl  0  0  0  0  0  0  0  0  0  0  0  0
    7.5350  -25.7320  -43.8940 C   0  0  0  0  0  0  0  0  0  0  0  0
    6.6110  -24.7720  -43.5470 C   0  0  0  0  0  0  0  0  0  0  0  0
    5.3730  -24.6620  -44.1900 C   0  0  0  0  0  0  0  0  0  0  0  0
    5.1300  -25.5670  -45.1900 C   0  0  0  0  0  0  0  0  0  0  0  0
    6.0480  -26.5320  -45.5430 C   0  0  0  0  0  0  0  0  0  0  0  0
    7.2830  -26.6320  -44.8950 C   0  0  0  0  0  0  0  0  0  0  0  0
    4.4970  -23.6270  -43.7660 N   0  0  0  0  0  0  0  0  0  0  0  0
    4.2410  -22.4380  -44.4950 C   0  0  0  0  0  0  0  0  0  0  0  0
    4.8090  -22.2030  -45.5700 O   0  0  0  0  0  0  0  0  0  0  0  0
    3.3080  -21.4730  -43.9870 N   0  0  0  0  0  0  0  0  0  0  0  0
    2.6240  -21.6920  -42.7550 C   0  0  0  0  0  0  0  0  0  0  0  0
    1.5420  -21.1400  -42.4880 O   0  0  0  0  0  0  0  0  0  0  0  0
    3.2470  -22.6250  -41.7500 C   0  0  1  0  0  0  0  0  0  0  0  0
    3.7700  -23.7690  -42.5260 C   0  0  0  0  0  0  0  0  0  0  0  0
    3.5980  -24.9750  -42.1200 O   0  0  0  0  0  0  0  0  0  0  0  0
    4.3070  -21.8940  -40.9940 C   0  0  0  0  0  0  0  0  0  0  0  0
    4.7910  -20.6860  -41.2000 C   0  0  0  0  0  0  0  0  0  0  0  0
    5.8340  -20.4100  -40.1740 C   0  0  2  0  0  0  0  0  0  0  0  0
    6.2360  -21.7950  -39.8150 N   0  0  0  0  0  0  0  0  0  0  0  0
    5.0050  -22.4610  -39.8770 N   0  0  0  0  0  0  0  0  0  0  0  0
    5.1820  -19.8570  -38.9560 C   0  0  0  0  0  0  0  0  0  0  0  0
    3.7860  -19.9410  -38.7660 C   0  0  0  0  0  0  0  0  0  0  0  0
    3.1500  -19.4810  -37.6540 C   0  0  0  0  0  0  0  0  0  0  0  0
    3.8870  -18.8970  -36.6420 C   0  0  0  0  0  0  0  0  0  0  0  0
    5.2510  -18.7980  -36.7940 C   0  0  0  0  0  0  0  0  0  0  0  0
    5.8820  -19.2680  -37.9250 C   0  0  0  0  0  0  0  0  0  0  0  0
    3.2530  -18.4230  -35.4980 O   0  0  0  0  0  0  0  0  0  0  0  0
    1.7580  -19.5860  -37.5180 O   0  0  0  0  0  0  0  0  0  0  0  0
    0.9330  -18.5610  -38.0250 C   0  0  0  0  0  0  0  0  0  0  0  0
    6.8080  -24.0430  -42.7440 H   0  0  0  0  0  0  0  0  0  0  0  0
    4.1950  -25.5250  -45.7070 H   0  0  0  0  0  0  0  0  0  0  0  0
    5.8560  -27.2520  -46.3340 H   0  0  0  0  0  0  0  0  0  0  0  0
    8.0010  -27.3870  -45.1780 H   0  0  0  0  0  0  0  0  0  0  0  0
    3.1370  -20.6170  -44.5310 H   0  0  0  0  0  0  0  0  0  0  0  0
    2.4830  -23.0310  -41.0590 H   0  0  0  0  0  0  0  0  0  0  0  0
    4.5170  -19.9800  -41.9640 H   0  0  0  0  0  0  0  0  0  0  0  0
    6.6670  -19.8170  -40.5400 H   0  0  0  0  0  0  0  0  0  0  0  0
    6.9220  -22.1520  -40.5090 H   0  0  0  0  0  0  0  0  0  0  0  0
    4.6560  -23.1950  -39.2710 H   0  0  0  0  0  0  0  0  0  0  0  0
    3.2390  -20.4020  -39.5720 H   0  0  0  0  0  0  0  0  0  0  0  0
    5.7910  -18.3300  -35.9860 H   0  0  0  0  0  0  0  0  0  0  0  0
    6.9600  -19.1760  -38.0130 H   0  0  0  0  0  0  0  0  0  0  0  0
    3.8080  -18.2330  -34.6730 H   0  0  0  0  0  0  0  0  0  0  0  0
    0.9450  -18.5410  -39.1210 H   0  0  0  0  0  0  0  0  0  0  0  0
   -0.1040  -18.8000  -37.6790 H   0  0  0  0  0  0  0  0  0  0  0  0
    1.2380  -17.5990  -37.5480 H   0  0  0  0  0  0  0  0  0  0  0  0
  2  3  1  0  0  0  0
  2  1  1  0  0  0  0
  3 31  1  0  0  0  0
  4  8  1  0  0  0  0
  4  3  2  0  0  0  0
  5  4  1  0  0  0  0
  6  5  2  0  0  0  0
  6  7  1  0  0  0  0
  7  2  2  0  0  0  0
  8 15  1  0  0  0  0
  9 11  1  0  0  0  0
  9  8  1  0  0  0  0
 10  9  2  0  0  0  0
 11 12  1  0  0  0  0
 12 13  2  0  0  0  0
 12 14  1  0  0  0  0
 14 36  1  1  0  0  0
 14 17  1  0  0  0  0
 15 16  2  0  0  0  0
 15 14  1  0  0  0  0
 17 21  1  0  0  0  0
 18 17  2  0  0  0  0
 18 19  1  0  0  0  0
 19 38  1  6  0  0  0
 19 20  1  0  0  0  0
 19 22  1  0  0  0  0
 21 20  1  0  0  0  0
 21 40  1  0  0  0  0
 22 23  2  0  0  0  0
 22 27  1  0  0  0  0
 23 24  1  0  0  0  0
 24 29  1  0  0  0  0
 24 25  2  0  0  0  0
 25 28  1  0  0  0  0
 26 25  1  0  0  0  0
 26 42  1  0  0  0  0
 27 26  2  0  0  0  0
 28 44  1  0  0  0  0
 30 46  1  0  0  0  0
 30 47  1  0  0  0  0
 30 29  1  0  0  0  0
 32  5  1  0  0  0  0
 33  6  1  0  0  0  0
 34  7  1  0  0  0  0
 35 11  1  0  0  0  0
 37 18  1  0  0  0  0
 39 20  1  0  0  0  0
 41 23  1  0  0  0  0
 43 27  1  0  0  0  0
 45 30  1  0  0  0  0
M  END
>  <Pose>
1

>  <Score>
-4.32

$$$$
