
 OpenBabel03232221553D

 47 50  0  0  0  0  0  0  0  0999 V2000
    2.5350  -19.3570  -38.0800 S   0  0  0  0  0  0  0  0  0  0  0  0
    3.1680  -19.0500  -36.7620 O   0  0  0  0  0  0  0  0  0  0  0  0
    2.5930  -18.1220  -38.9340 O   0  0  0  0  0  0  0  0  0  0  0  0
    3.3890  -20.5910  -38.8580 N   0  0  0  0  0  0  0  0  0  0  0  0
    4.7810  -20.6780  -38.5360 C   0  0  0  0  0  0  0  0  0  0  0  0
    5.6380  -19.7780  -39.4060 C   0  0  0  0  0  0  0  0  0  0  0  0
    5.2670  -19.9690  -40.7830 N   0  0  0  0  0  0  0  0  0  0  0  0
    4.3070  -21.0090  -41.0940 C   0  0  0  0  0  0  0  0  0  0  0  0
    3.0840  -20.7620  -40.2370 C   0  0  0  0  0  0  0  0  0  0  0  0
    5.8020  -19.1830  -41.8440 C   0  0  0  0  0  0  0  0  0  0  0  0
    5.2460  -18.1270  -42.2260 O   0  0  0  0  0  0  0  0  0  0  0  0
    7.0320  -19.5920  -42.5270 C   0  0  0  0  0  0  0  0  0  0  0  0
    8.1510  -18.8360  -42.6960 N   0  0  0  0  0  0  0  0  0  0  0  0
    9.0640  -19.5530  -43.3700 C   0  0  0  0  0  0  0  0  0  0  0  0
    8.5220  -20.7440  -43.6210 N   0  0  0  0  0  0  0  0  0  0  0  0
    7.2820  -20.7940  -43.1180 C   0  0  0  0  0  0  0  0  0  0  0  0
    9.2480  -21.6570  -44.2950 C   0  0  0  0  0  0  0  0  0  0  0  0
   10.5210  -21.4420  -44.7460 C   0  0  0  0  0  0  0  0  0  0  0  0
   11.1030  -20.2050  -44.4940 C   0  0  0  0  0  0  0  0  0  0  0  0
   10.3520  -19.2800  -43.8040 C   0  0  0  0  0  0  0  0  0  0  0  0
   11.4400  -22.6600  -45.6250 Cl  0  0  0  0  0  0  0  0  0  0  0  0
    0.8770  -19.7190  -37.8150 N   0  0  0  0  0  0  0  0  0  0  0  0
    0.2880  -20.4530  -38.9190 C   0  0  0  0  0  0  0  0  0  0  0  0
   -1.2020  -20.2130  -38.8720 C   0  0  0  0  0  0  0  0  0  0  0  0
   -1.6600  -20.0780  -37.5660 O   0  0  0  0  0  0  0  0  0  0  0  0
   -1.1970  -18.9170  -36.9510 C   0  0  0  0  0  0  0  0  0  0  0  0
    0.0830  -18.5140  -37.6540 C   0  0  0  0  0  0  0  0  0  0  0  0
    5.1120  -21.7230  -38.7530 H   0  0  0  0  0  0  0  0  0  0  0  0
    4.9230  -20.5100  -37.4670 H   0  0  0  0  0  0  0  0  0  0  0  0
    5.4990  -18.7160  -39.0650 H   0  0  0  0  0  0  0  0  0  0  0  0
    6.7150  -20.0010  -39.2630 H   0  0  0  0  0  0  0  0  0  0  0  0
    4.7920  -21.9750  -40.7890 H   0  0  0  0  0  0  0  0  0  0  0  0
    4.0500  -21.0210  -42.1550 H   0  0  0  0  0  0  0  0  0  0  0  0
    2.4140  -21.6640  -40.3290 H   0  0  0  0  0  0  0  0  0  0  0  0
    2.5550  -19.8930  -40.6420 H   0  0  0  0  0  0  0  0  0  0  0  0
    6.6330  -21.6680  -43.1960 H   0  0  0  0  0  0  0  0  0  0  0  0
    8.8190  -22.6450  -44.5110 H   0  0  0  0  0  0  0  0  0  0  0  0
   12.1080  -19.9590  -44.8180 H   0  0  0  0  0  0  0  0  0  0  0  0
   10.7680  -18.2960  -43.5830 H   0  0  0  0  0  0  0  0  0  0  0  0
    0.5240  -21.5350  -38.8710 H   0  0  0  0  0  0  0  0  0  0  0  0
    0.6940  -20.0130  -39.8560 H   0  0  0  0  0  0  0  0  0  0  0  0
   -1.7250  -21.0950  -39.2980 H   0  0  0  0  0  0  0  0  0  0  0  0
   -1.5210  -19.3160  -39.4260 H   0  0  0  0  0  0  0  0  0  0  0  0
   -0.8910  -19.1850  -35.9000 H   0  0  0  0  0  0  0  0  0  0  0  0
   -1.9450  -18.1060  -36.9460 H   0  0  0  0  0  0  0  0  0  0  0  0
   -0.1510  -18.0340  -38.6270 H   0  0  0  0  0  0  0  0  0  0  0  0
    0.6610  -17.7700  -37.0750 H   0  0  0  0  0  0  0  0  0  0  0  0
  1 22  1  0  0  0  0
  1  2  2  0  0  0  0
  3  1  2  0  0  0  0
  4  5  1  0  0  0  0
  4  1  1  0  0  0  0
  5 29  1  0  0  0  0
  6 31  1  0  0  0  0
  6 30  1  0  0  0  0
  6  5  1  0  0  0  0
  7  6  1  0  0  0  0
  8 32  1  0  0  0  0
  8  7  1  0  0  0  0
  8  9  1  0  0  0  0
  9  4  1  0  0  0  0
 10  7  1  0  0  0  0
 11 10  2  0  0  0  0
 12 10  1  0  0  0  0
 13 12  1  0  0  0  0
 14 13  2  0  0  0  0
 15 14  1  0  0  0  0
 15 16  1  0  0  0  0
 16 12  2  0  0  0  0
 17 15  1  0  0  0  0
 18 19  1  0  0  0  0
 18 17  2  0  0  0  0
 19 20  2  0  0  0  0
 20 39  1  0  0  0  0
 20 14  1  0  0  0  0
 21 18  1  0  0  0  0
 22 27  1  0  0  0  0
 23 24  1  0  0  0  0
 23 40  1  0  0  0  0
 23 22  1  0  0  0  0
 24 25  1  0  0  0  0
 25 26  1  0  0  0  0
 26 45  1  0  0  0  0
 26 44  1  0  0  0  0
 27 47  1  0  0  0  0
 27 26  1  0  0  0  0
 28  5  1  0  0  0  0
 33  8  1  0  0  0  0
 34  9  1  0  0  0  0
 35  9  1  0  0  0  0
 36 16  1  0  0  0  0
 37 17  1  0  0  0  0
 38 19  1  0  0  0  0
 41 23  1  0  0  0  0
 42 24  1  0  0  0  0
 43 24  1  0  0  0  0
 46 27  1  0  0  0  0
M  END
>  <Pose>
1

>  <Score>
-3.62

$$$$
