
 OpenBabel03232221553D

 39 42  0  0  0  0  0  0  0  0999 V2000
   -2.0860  -17.4760  -36.4390 Cl  0  0  0  0  0  0  0  0  0  0  0  0
   -0.5620  -17.8160  -37.2720 C   0  0  0  0  0  0  0  0  0  0  0  0
   -0.3200  -19.0480  -37.8270 C   0  0  0  0  0  0  0  0  0  0  0  0
    0.8660  -19.3090  -38.4720 C   0  0  0  0  0  0  0  0  0  0  0  0
    1.8920  -18.3670  -38.6110 C   0  0  0  0  0  0  0  0  0  0  0  0
    1.6230  -17.1410  -38.0460 C   0  0  0  0  0  0  0  0  0  0  0  0
    0.4150  -16.8610  -37.3830 C   0  0  0  0  0  0  0  0  0  0  0  0
    3.0800  -18.7140  -39.3390 C   0  0  0  0  0  0  0  0  0  0  0  0
    3.0560  -18.3380  -40.5940 O   0  0  0  0  0  0  0  0  0  0  0  0
    4.2380  -19.3700  -38.9520 N   0  0  0  0  0  0  0  0  0  0  0  0
    5.6120  -19.0740  -39.1850 C   0  0  0  0  0  0  0  0  0  0  0  0
    6.0320  -20.0140  -40.3340 C   0  0  0  0  0  0  0  0  0  0  0  0
    5.4090  -21.3240  -40.0690 N   0  0  0  0  0  0  0  0  0  0  0  0
    5.0870  -21.6490  -38.7090 C   0  0  0  0  0  0  0  0  0  0  0  0
    4.0620  -20.6560  -38.1960 C   0  0  0  0  0  0  0  0  0  0  0  0
    5.1550  -22.2110  -41.1550 C   0  0  0  0  0  0  0  0  0  0  0  0
    4.1050  -23.0610  -41.1330 N   0  0  0  0  0  0  0  0  0  0  0  0
    3.8410  -23.8980  -42.1200 N   0  0  0  0  0  0  0  0  0  0  0  0
    4.5970  -23.9690  -43.2250 C   0  0  0  0  0  0  0  0  0  0  0  0
    4.1040  -24.9060  -44.0720 N   0  0  0  0  0  0  0  0  0  0  0  0
    3.0350  -25.4220  -43.4940 N   0  0  0  0  0  0  0  0  0  0  0  0
    2.8560  -24.8230  -42.3030 C   0  0  0  0  0  0  0  0  0  0  0  0
    5.6920  -23.1280  -43.3230 C   0  0  0  0  0  0  0  0  0  0  0  0
    5.9460  -22.2670  -42.2810 C   0  0  0  0  0  0  0  0  0  0  0  0
   -1.0950  -19.7980  -37.7360 H   0  0  0  0  0  0  0  0  0  0  0  0
    1.0200  -20.2870  -38.8930 H   0  0  0  0  0  0  0  0  0  0  0  0
    2.3450  -16.3530  -38.1300 H   0  0  0  0  0  0  0  0  0  0  0  0
    0.2370  -15.8800  -36.9480 H   0  0  0  0  0  0  0  0  0  0  0  0
    5.9360  -18.0620  -39.2780 H   0  0  0  0  0  0  0  0  0  0  0  0
    6.2150  -19.5230  -38.3050 H   0  0  0  0  0  0  0  0  0  0  0  0
    7.1320  -20.1130  -40.3860 H   0  0  0  0  0  0  0  0  0  0  0  0
    5.6180  -19.5570  -41.2420 H   0  0  0  0  0  0  0  0  0  0  0  0
    5.9630  -21.5650  -38.0270 H   0  0  0  0  0  0  0  0  0  0  0  0
    4.6100  -22.6490  -38.6480 H   0  0  0  0  0  0  0  0  0  0  0  0
    4.1850  -20.4310  -37.1220 H   0  0  0  0  0  0  0  0  0  0  0  0
    3.0300  -21.0080  -38.3570 H   0  0  0  0  0  0  0  0  0  0  0  0
    2.0600  -25.0320  -41.5920 H   0  0  0  0  0  0  0  0  0  0  0  0
    6.3330  -23.1520  -44.2010 H   0  0  0  0  0  0  0  0  0  0  0  0
    6.8060  -21.5820  -42.3140 H   0  0  0  0  0  0  0  0  0  0  0  0
  2  1  1  0  0  0  0
  3 25  1  0  0  0  0
  3  2  2  0  0  0  0
  4  3  1  0  0  0  0
  5  4  2  0  0  0  0
  5  6  1  0  0  0  0
  6  7  2  0  0  0  0
  7  2  1  0  0  0  0
  7 28  1  0  0  0  0
  8 10  1  0  0  0  0
  8  5  1  0  0  0  0
  9  8  2  0  0  0  0
 10 15  1  0  0  0  0
 11 10  1  0  0  0  0
 11 30  1  0  0  0  0
 12 13  1  0  0  0  0
 12 11  1  0  0  0  0
 13 14  1  0  0  0  0
 14 34  1  0  0  0  0
 14 15  1  0  0  0  0
 14 33  1  0  0  0  0
 15 35  1  0  0  0  0
 16 17  2  0  0  0  0
 16 13  1  0  0  0  0
 18 17  1  0  0  0  0
 19 18  1  0  0  0  0
 20 21  1  0  0  0  0
 20 19  2  0  0  0  0
 21 22  2  0  0  0  0
 22 18  1  0  0  0  0
 22 37  1  0  0  0  0
 23 19  1  0  0  0  0
 23 24  2  0  0  0  0
 24 16  1  0  0  0  0
 26  4  1  0  0  0  0
 27  6  1  0  0  0  0
 29 11  1  0  0  0  0
 31 12  1  0  0  0  0
 32 12  1  0  0  0  0
 36 15  1  0  0  0  0
 38 23  1  0  0  0  0
 39 24  1  0  0  0  0
M  END
>  <Pose>
1

>  <Score>
-4.01

$$$$
