
 OpenBabel03232221553D

 47 50  0  0  0  0  0  0  0  0999 V2000
   12.6720  -29.4100  -43.3110 Cl  0  0  0  0  0  0  0  0  0  0  0  0
   11.4750  -28.1460  -43.5230 C   0  0  0  0  0  0  0  0  0  0  0  0
   10.7520  -27.9900  -44.6900 C   0  0  0  0  0  0  0  0  0  0  0  0
    9.8070  -26.9910  -44.8480 C   0  0  0  0  0  0  0  0  0  0  0  0
    9.5460  -26.0950  -43.8300 C   0  0  0  0  0  0  0  0  0  0  0  0
   10.2610  -26.2400  -42.6600 C   0  0  0  0  0  0  0  0  0  0  0  0
   11.2100  -27.2460  -42.5020 C   0  0  0  0  0  0  0  0  0  0  0  0
    8.5700  -25.0730  -44.0110 N   0  0  0  0  0  0  0  0  0  0  0  0
    8.7550  -23.9600  -44.6270 N   0  0  0  0  0  0  0  0  0  0  0  0
    7.6070  -23.1840  -44.6300 C   0  0  0  0  0  0  0  0  0  0  0  0
    6.6940  -23.8810  -43.9800 N   0  0  0  0  0  0  0  0  0  0  0  0
    7.3020  -25.0550  -43.5950 C   0  0  0  0  0  0  0  0  0  0  0  0
    6.7140  -25.9500  -42.9500 O   0  0  0  0  0  0  0  0  0  0  0  0
    5.3090  -23.5980  -43.7740 C   0  0  0  0  0  0  0  0  0  0  0  0
    4.9810  -22.9340  -42.4990 C   0  0  0  0  0  0  0  0  0  0  0  0
    4.2570  -23.6720  -41.7090 O   0  0  0  0  0  0  0  0  0  0  0  0
    5.3050  -21.6870  -42.0120 N   0  0  0  0  0  0  0  0  0  0  0  0
    6.3630  -20.8450  -42.5030 C   0  0  0  0  0  0  0  0  0  0  0  0
    6.4190  -19.4930  -41.7700 C   0  0  0  0  0  0  0  0  0  0  0  0
    6.4880  -19.7350  -40.3260 N   0  0  0  0  0  0  0  0  0  0  0  0
    5.5310  -20.7150  -39.8670 C   0  0  0  0  0  0  0  0  0  0  0  0
    5.5820  -21.1460  -38.6930 O   0  0  0  0  0  0  0  0  0  0  0  0
    4.5360  -21.1350  -40.8830 C   0  0  0  0  0  0  0  0  0  0  0  0
    7.5990  -21.8870  -45.3040 C   0  0  0  0  0  0  0  0  0  0  0  0
    8.5040  -20.9120  -44.8640 C   0  0  0  0  0  0  0  0  0  0  0  0
    8.5600  -19.6410  -45.3660 C   0  0  0  0  0  0  0  0  0  0  0  0
    7.6910  -19.2410  -46.3720 C   0  0  0  0  0  0  0  0  0  0  0  0
    6.8030  -20.1840  -46.8080 C   0  0  0  0  0  0  0  0  0  0  0  0
    6.7500  -21.4820  -46.2910 C   0  0  0  0  0  0  0  0  0  0  0  0
   10.9540  -28.6910  -45.4900 H   0  0  0  0  0  0  0  0  0  0  0  0
    9.2430  -26.8690  -45.7550 H   0  0  0  0  0  0  0  0  0  0  0  0
   10.0570  -25.5410  -41.8690 H   0  0  0  0  0  0  0  0  0  0  0  0
   11.7670  -27.3530  -41.5840 H   0  0  0  0  0  0  0  0  0  0  0  0
    4.6370  -24.4140  -43.9180 H   0  0  0  0  0  0  0  0  0  0  0  0
    5.0180  -22.8440  -44.6080 H   0  0  0  0  0  0  0  0  0  0  0  0
    6.0820  -20.5850  -43.5580 H   0  0  0  0  0  0  0  0  0  0  0  0
    7.3460  -21.3010  -42.4720 H   0  0  0  0  0  0  0  0  0  0  0  0
    5.5080  -18.9090  -41.9730 H   0  0  0  0  0  0  0  0  0  0  0  0
    7.2850  -18.9180  -42.1320 H   0  0  0  0  0  0  0  0  0  0  0  0
    7.1460  -19.2610  -39.7020 H   0  0  0  0  0  0  0  0  0  0  0  0
    3.8720  -21.9350  -40.4780 H   0  0  0  0  0  0  0  0  0  0  0  0
    3.9470  -20.2750  -41.2740 H   0  0  0  0  0  0  0  0  0  0  0  0
    9.1990  -21.2170  -44.0730 H   0  0  0  0  0  0  0  0  0  0  0  0
    9.2650  -18.9060  -45.0090 H   0  0  0  0  0  0  0  0  0  0  0  0
    7.7190  -18.2460  -46.7830 H   0  0  0  0  0  0  0  0  0  0  0  0
    6.0990  -19.9020  -47.6010 H   0  0  0  0  0  0  0  0  0  0  0  0
    6.0080  -22.1260  -46.6770 H   0  0  0  0  0  0  0  0  0  0  0  0
  2  1  1  0  0  0  0
  2  7  1  0  0  0  0
  3  2  2  0  0  0  0
  4  3  1  0  0  0  0
  4  5  2  0  0  0  0
  5  6  1  0  0  0  0
  6  7  2  0  0  0  0
  6 32  1  0  0  0  0
  7 33  1  0  0  0  0
  8  5  1  0  0  0  0
  8 12  1  0  0  0  0
  9  8  1  0  0  0  0
 10  9  2  0  0  0  0
 10 11  1  0  0  0  0
 11 14  1  0  0  0  0
 11 12  1  0  0  0  0
 12 13  2  0  0  0  0
 14 15  1  0  0  0  0
 15 17  1  0  0  0  0
 15 16  2  0  0  0  0
 17 23  1  0  0  0  0
 18 37  1  0  0  0  0
 18 17  1  0  0  0  0
 18 19  1  0  0  0  0
 19 20  1  0  0  0  0
 20 21  1  0  0  0  0
 20 40  1  0  0  0  0
 21 22  2  0  0  0  0
 23 41  1  0  0  0  0
 23 21  1  0  0  0  0
 24 25  1  0  0  0  0
 24 10  1  0  0  0  0
 25 43  1  0  0  0  0
 26 44  1  0  0  0  0
 26 25  2  0  0  0  0
 27 26  1  0  0  0  0
 28 27  2  0  0  0  0
 28 29  1  0  0  0  0
 29 24  2  0  0  0  0
 30  3  1  0  0  0  0
 31  4  1  0  0  0  0
 34 14  1  0  0  0  0
 35 14  1  0  0  0  0
 36 18  1  0  0  0  0
 38 19  1  0  0  0  0
 39 19  1  0  0  0  0
 42 23  1  0  0  0  0
 45 27  1  0  0  0  0
 46 28  1  0  0  0  0
 47 29  1  0  0  0  0
M  END
>  <Pose>
1

>  <Score>
-4.63

$$$$
