
 OpenBabel03232221553D

 42 45  0  0  0  0  0  0  0  0999 V2000
    7.0880  -19.6100  -37.7860 Cl  0  0  0  0  0  0  0  0  0  0  0  0
    5.5180  -19.9660  -38.5050 C   0  0  0  0  0  0  0  0  0  0  0  0
    4.3880  -19.2820  -38.0930 C   0  0  0  0  0  0  0  0  0  0  0  0
    3.1650  -19.5480  -38.6430 C   0  0  0  0  0  0  0  0  0  0  0  0
    3.1160  -20.5200  -39.6140 C   0  0  0  0  0  0  0  0  0  0  0  0
    4.2190  -21.2110  -40.0410 C   0  0  0  0  0  0  0  0  0  0  0  0
    5.4520  -20.9310  -39.4760 C   0  0  0  0  0  0  0  0  0  0  0  0
    1.8120  -20.8340  -40.2300 C   0  0  0  0  0  0  0  0  0  0  0  0
    1.4510  -21.6690  -41.1400 N   0  0  0  0  0  0  0  0  0  0  0  0
    0.0420  -21.6050  -41.4060 C   0  0  0  0  0  0  0  0  0  0  0  0
   -0.4730  -20.5500  -40.4830 C   0  0  0  0  0  0  0  0  0  0  0  0
    0.6940  -20.0980  -39.7640 N   0  0  0  0  0  0  0  0  0  0  0  0
    0.8020  -19.0940  -38.7450 C   0  0  0  0  0  0  0  0  0  0  0  0
   -0.0990  -18.2910  -38.1610 N   0  0  0  0  0  0  0  0  0  0  0  0
    0.4920  -17.5220  -37.2630 N   0  0  0  0  0  0  0  0  0  0  0  0
    1.7910  -17.8630  -37.2950 C   0  0  0  0  0  0  0  0  0  0  0  0
    2.6710  -17.3370  -36.5700 O   0  0  0  0  0  0  0  0  0  0  0  0
    2.0110  -18.8420  -38.2130 N   0  0  0  0  0  0  0  0  0  0  0  0
   -0.1140  -16.5100  -36.4030 C   0  0  0  0  0  0  0  0  0  0  0  0
    0.0070  -15.1880  -37.0600 C   0  0  0  0  0  0  0  0  0  0  0  0
    0.7260  -15.0880  -38.0950 O   0  0  0  0  0  0  0  0  0  0  0  0
   -0.6500  -14.0270  -36.5770 N   0  0  0  0  0  0  0  0  0  0  0  0
    0.0930  -12.9740  -35.9220 C   0  0  0  0  0  0  0  0  0  0  0  0
    1.0870  -12.3340  -36.8950 C   0  0  0  0  0  0  0  0  0  0  0  0
   -0.9090  -11.8820  -35.5760 C   0  0  0  0  0  0  0  0  0  0  0  0
    4.4780  -18.5370  -37.3340 H   0  0  0  0  0  0  0  0  0  0  0  0
    4.1940  -21.9780  -40.8050 H   0  0  0  0  0  0  0  0  0  0  0  0
    6.3410  -21.4850  -39.8160 H   0  0  0  0  0  0  0  0  0  0  0  0
   -0.0790  -21.2770  -42.4710 H   0  0  0  0  0  0  0  0  0  0  0  0
   -0.4530  -22.5910  -41.2550 H   0  0  0  0  0  0  0  0  0  0  0  0
   -0.9860  -19.7200  -41.0110 H   0  0  0  0  0  0  0  0  0  0  0  0
   -1.1420  -21.0170  -39.7140 H   0  0  0  0  0  0  0  0  0  0  0  0
   -1.1920  -16.7450  -36.3480 H   0  0  0  0  0  0  0  0  0  0  0  0
    0.2850  -16.5310  -35.3780 H   0  0  0  0  0  0  0  0  0  0  0  0
   -1.6800  -13.9670  -36.7130 H   0  0  0  0  0  0  0  0  0  0  0  0
    0.5880  -13.3210  -35.0030 H   0  0  0  0  0  0  0  0  0  0  0  0
    0.6060  -12.3960  -37.8980 H   0  0  0  0  0  0  0  0  0  0  0  0
    1.2280  -11.2960  -36.5610 H   0  0  0  0  0  0  0  0  0  0  0  0
    2.0470  -12.9050  -36.8840 H   0  0  0  0  0  0  0  0  0  0  0  0
   -1.0620  -11.2890  -36.5010 H   0  0  0  0  0  0  0  0  0  0  0  0
   -0.5220  -11.1950  -34.8030 H   0  0  0  0  0  0  0  0  0  0  0  0
   -1.8620  -12.3580  -35.3060 H   0  0  0  0  0  0  0  0  0  0  0  0
  2  3  1  0  0  0  0
  2  1  1  0  0  0  0
  3 26  1  0  0  0  0
  4 18  1  0  0  0  0
  4  3  2  0  0  0  0
  5  4  1  0  0  0  0
  6  5  1  0  0  0  0
  6  7  1  0  0  0  0
  7  2  2  0  0  0  0
  8 12  1  0  0  0  0
  8  5  2  0  0  0  0
  9  8  1  0  0  0  0
 10 30  1  0  0  0  0
 10  9  1  0  0  0  0
 10 11  1  0  0  0  0
 11 12  1  0  0  0  0
 11 32  1  0  0  0  0
 12 13  1  0  0  0  0
 13 18  1  0  0  0  0
 13 14  2  0  0  0  0
 14 15  1  0  0  0  0
 15 19  1  0  0  0  0
 16 15  1  0  0  0  0
 16 17  2  0  0  0  0
 18 16  1  0  0  0  0
 19 33  1  0  0  0  0
 19 34  1  0  0  0  0
 20 22  1  0  0  0  0
 20 19  1  0  0  0  0
 21 20  2  0  0  0  0
 22 23  1  0  0  0  0
 23 25  1  0  0  0  0
 23 36  1  0  0  0  0
 24 39  1  0  0  0  0
 24 38  1  0  0  0  0
 24 23  1  0  0  0  0
 25 42  1  0  0  0  0
 25 41  1  0  0  0  0
 27  6  1  0  0  0  0
 28  7  1  0  0  0  0
 29 10  1  0  0  0  0
 31 11  1  0  0  0  0
 35 22  1  0  0  0  0
 37 24  1  0  0  0  0
 40 25  1  0  0  0  0
M  END
>  <Pose>
1

>  <Score>
-3.90

$$$$
