
 OpenBabel03232221553D

 43 46  0  0  0  0  0  0  0  0999 V2000
   -0.6900  -23.7750  -41.8940 Cl  0  0  0  0  0  0  0  0  0  0  0  0
    0.9920  -24.0290  -42.3670 C   0  0  0  0  0  0  0  0  0  0  0  0
    1.9450  -23.0990  -41.9430 C   0  0  0  0  0  0  0  0  0  0  0  0
    3.2780  -23.2410  -42.2690 C   0  0  0  0  0  0  0  0  0  0  0  0
    3.6150  -24.3410  -43.0320 C   0  0  0  0  0  0  0  0  0  0  0  0
    2.7230  -25.2660  -43.4640 C   0  0  0  0  0  0  0  0  0  0  0  0
    1.3700  -25.1130  -43.1260 C   0  0  0  0  0  0  0  0  0  0  0  0
    5.0550  -24.4800  -43.3700 C   0  0  0  0  0  0  0  0  0  0  0  0
    5.6920  -25.3780  -44.0570 N   0  0  0  0  0  0  0  0  0  0  0  0
    7.1040  -25.0730  -44.1040 C   0  0  0  0  0  0  0  0  0  0  0  0
    7.3040  -23.8070  -43.3090 C   0  0  0  0  0  0  0  0  0  0  0  0
    5.9440  -23.5000  -42.8990 N   0  0  0  0  0  0  0  0  0  0  0  0
    5.5150  -22.3890  -42.1140 C   0  0  0  0  0  0  0  0  0  0  0  0
    6.1910  -21.3600  -41.5630 N   0  0  0  0  0  0  0  0  0  0  0  0
    5.3360  -20.5790  -40.9060 N   0  0  0  0  0  0  0  0  0  0  0  0
    4.1440  -21.1500  -41.0670 C   0  0  0  0  0  0  0  0  0  0  0  0
    3.0610  -20.7100  -40.5890 O   0  0  0  0  0  0  0  0  0  0  0  0
    4.2220  -22.2830  -41.8190 N   0  0  0  0  0  0  0  0  0  0  0  0
    5.6640  -19.3630  -40.1570 C   0  0  0  0  0  0  0  0  0  0  0  0
    5.6910  -19.8690  -38.6810 C   0  0  0  0  0  0  0  0  0  0  0  0
    6.8140  -20.4550  -38.4880 O   0  0  0  0  0  0  0  0  0  0  0  0
    4.6470  -19.6650  -37.8670 N   0  0  0  0  0  0  0  0  0  0  0  0
    3.5730  -19.4550  -37.0290 C   0  0  0  0  0  0  0  0  0  0  0  0
    2.6870  -18.2920  -37.4900 C   0  0  0  0  0  0  0  0  0  0  0  0
    2.3130  -17.4950  -36.4340 O   0  0  0  0  0  0  0  0  0  0  0  0
    1.2640  -16.6560  -36.6750 C   0  0  0  0  0  0  0  0  0  0  0  0
    1.5880  -22.2740  -41.3520 H   0  0  0  0  0  0  0  0  0  0  0  0
    3.0150  -26.1030  -44.0630 H   0  0  0  0  0  0  0  0  0  0  0  0
    0.6270  -25.8220  -43.4430 H   0  0  0  0  0  0  0  0  0  0  0  0
    7.3890  -24.9370  -45.1710 H   0  0  0  0  0  0  0  0  0  0  0  0
    7.7030  -25.9020  -43.6460 H   0  0  0  0  0  0  0  0  0  0  0  0
    7.6930  -22.9900  -43.9250 H   0  0  0  0  0  0  0  0  0  0  0  0
    7.9720  -24.0030  -42.4300 H   0  0  0  0  0  0  0  0  0  0  0  0
    6.6400  -18.9910  -40.4030 H   0  0  0  0  0  0  0  0  0  0  0  0
    4.8510  -18.6620  -40.2740 H   0  0  0  0  0  0  0  0  0  0  0  0
    4.9750  -18.3510  -37.7710 H   0  0  0  0  0  0  0  0  0  0  0  0
    2.9540  -20.3450  -36.7880 H   0  0  0  0  0  0  0  0  0  0  0  0
    3.9250  -19.1340  -35.9710 H   0  0  0  0  0  0  0  0  0  0  0  0
    3.1340  -17.7190  -38.3190 H   0  0  0  0  0  0  0  0  0  0  0  0
    1.7660  -18.7860  -37.8820 H   0  0  0  0  0  0  0  0  0  0  0  0
    0.3180  -17.2400  -36.9010 H   0  0  0  0  0  0  0  0  0  0  0  0
    1.4010  -16.0810  -37.6290 H   0  0  0  0  0  0  0  0  0  0  0  0
    1.0630  -15.9820  -35.8260 H   0  0  0  0  0  0  0  0  0  0  0  0
  2  3  1  0  0  0  0
  2  1  1  0  0  0  0
  3 27  1  0  0  0  0
  4  3  2  0  0  0  0
  4 18  1  0  0  0  0
  5  4  1  0  0  0  0
  6  7  1  0  0  0  0
  6  5  1  0  0  0  0
  7  2  2  0  0  0  0
  8  5  2  0  0  0  0
  8 12  1  0  0  0  0
  9  8  1  0  0  0  0
 10  9  1  0  0  0  0
 10 31  1  0  0  0  0
 10 11  1  0  0  0  0
 11 12  1  0  0  0  0
 11 33  1  0  0  0  0
 12 13  1  0  0  0  0
 13 18  1  0  0  0  0
 13 14  2  0  0  0  0
 14 15  1  0  0  0  0
 15 19  1  0  0  0  0
 16 15  1  0  0  0  0
 16 17  2  0  0  0  0
 18 16  1  0  0  0  0
 19 20  1  0  0  0  0
 20 21  2  0  0  0  0
 20 22  1  0  0  0  0
 22 36  1  0  0  0  0
 22 23  1  0  0  0  0
 23 37  1  0  0  0  0
 23 38  1  0  0  0  0
 24 23  1  0  0  0  0
 24 25  1  0  0  0  0
 26 25  1  0  0  0  0
 26 43  1  0  0  0  0
 28  6  1  0  0  0  0
 29  7  1  0  0  0  0
 30 10  1  0  0  0  0
 32 11  1  0  0  0  0
 34 19  1  0  0  0  0
 35 19  1  0  0  0  0
 39 24  1  0  0  0  0
 40 24  1  0  0  0  0
 41 26  1  0  0  0  0
 42 26  1  0  0  0  0
M  END
>  <Pose>
1

>  <Score>
-4.11

$$$$
