
 OpenBabel03232221553D

 47 50  0  0  0  0  0  0  0  0999 V2000
    7.6480  -29.2570  -47.5070 Cl  0  0  0  0  0  0  0  0  0  0  0  0
    7.1790  -27.8320  -46.5800 C   0  0  0  0  0  0  0  0  0  0  0  0
    8.0800  -27.0690  -45.9040 C   0  0  0  0  0  0  0  0  0  0  0  0
    7.6670  -25.9600  -45.1910 C   0  0  0  0  0  0  0  0  0  0  0  0
    6.3420  -25.6090  -45.1520 C   0  0  0  0  0  0  0  0  0  0  0  0
    5.4360  -26.3800  -45.8340 C   0  0  0  0  0  0  0  0  0  0  0  0
    5.8460  -27.4910  -46.5490 C   0  0  0  0  0  0  0  0  0  0  0  0
    5.8720  -24.4570  -44.4150 N   0  0  0  0  0  0  0  0  0  0  0  0
    6.7720  -23.6340  -43.6980 C   0  0  0  0  0  0  0  0  0  0  0  0
    6.3850  -22.5800  -43.0190 C   0  0  0  0  0  0  0  0  0  0  0  0
    5.0570  -22.0910  -42.8830 N   0  0  0  0  0  0  0  0  0  0  0  0
    3.9730  -22.8740  -42.3270 C   0  0  0  0  0  0  0  0  0  0  0  0
    3.2150  -21.9670  -41.3440 C   0  0  0  0  0  0  0  0  0  0  0  0
    3.8800  -20.7250  -41.1410 N   0  0  0  0  0  0  0  0  0  0  0  0
    4.0070  -19.9040  -42.3440 C   0  0  0  0  0  0  0  0  0  0  0  0
    4.7490  -20.7530  -43.3490 C   0  0  0  0  0  0  0  0  0  0  0  0
    4.4420  -20.1940  -39.9540 C   0  0  0  0  0  0  0  0  0  0  0  0
    5.8100  -19.9810  -39.9200 N   0  0  0  0  0  0  0  0  0  0  0  0
    6.4610  -19.5010  -38.8630 C   0  0  0  0  0  0  0  0  0  0  0  0
    5.7390  -19.2000  -37.7420 C   0  0  0  0  0  0  0  0  0  0  0  0
    4.3870  -19.3970  -37.7380 C   0  0  0  0  0  0  0  0  0  0  0  0
    3.6910  -19.9030  -38.8550 C   0  0  0  0  0  0  0  0  0  0  0  0
    2.2700  -20.0680  -38.8270 C   0  0  0  0  0  0  0  0  0  0  0  0
    1.5910  -20.5960  -39.7050 O   0  0  0  0  0  0  0  0  0  0  0  0
    1.5550  -19.5860  -37.6960 N   0  0  0  0  0  0  0  0  0  0  0  0
    8.1730  -23.9860  -43.7260 N   0  0  0  0  0  0  0  0  0  0  0  0
    8.6020  -25.1210  -44.4560 C   0  0  0  0  0  0  0  0  0  0  0  0
    9.8360  -25.4520  -44.4950 O   0  0  0  0  0  0  0  0  0  0  0  0
    9.1180  -27.3100  -45.9100 H   0  0  0  0  0  0  0  0  0  0  0  0
    4.3930  -26.0890  -45.7930 H   0  0  0  0  0  0  0  0  0  0  0  0
    5.1360  -28.0880  -47.0790 H   0  0  0  0  0  0  0  0  0  0  0  0
    4.8610  -24.2390  -44.4220 H   0  0  0  0  0  0  0  0  0  0  0  0
    7.1790  -22.0180  -42.5000 H   0  0  0  0  0  0  0  0  0  0  0  0
    4.2890  -23.7640  -41.7840 H   0  0  0  0  0  0  0  0  0  0  0  0
    3.2970  -23.1820  -43.1770 H   0  0  0  0  0  0  0  0  0  0  0  0
    3.1300  -22.5250  -40.4200 H   0  0  0  0  0  0  0  0  0  0  0  0
    2.2450  -21.8040  -41.8770 H   0  0  0  0  0  0  0  0  0  0  0  0
    4.5800  -18.9900  -42.1800 H   0  0  0  0  0  0  0  0  0  0  0  0
    3.0110  -19.6480  -42.7600 H   0  0  0  0  0  0  0  0  0  0  0  0
    4.1460  -20.8960  -44.2790 H   0  0  0  0  0  0  0  0  0  0  0  0
    5.6890  -20.2430  -43.6680 H   0  0  0  0  0  0  0  0  0  0  0  0
    7.5440  -19.3610  -38.9160 H   0  0  0  0  0  0  0  0  0  0  0  0
    6.2380  -18.8140  -36.8800 H   0  0  0  0  0  0  0  0  0  0  0  0
    3.7610  -19.1700  -36.8600 H   0  0  0  0  0  0  0  0  0  0  0  0
    1.9540  -19.6750  -36.7340 H   0  0  0  0  0  0  0  0  0  0  0  0
    0.6180  -19.1300  -37.7560 H   0  0  0  0  0  0  0  0  0  0  0  0
    8.8620  -23.4040  -43.2100 H   0  0  0  0  0  0  0  0  0  0  0  0
  1  2  1  0  0  0  0
  2  7  2  0  0  0  0
  2  3  1  0  0  0  0
  3  4  2  0  0  0  0
  4  5  1  0  0  0  0
  4 27  1  0  0  0  0
  5  8  1  0  0  0  0
  6 30  1  0  0  0  0
  6  5  2  0  0  0  0
  7  6  1  0  0  0  0
  8  9  1  0  0  0  0
  9 10  2  0  0  0  0
 10 11  1  0  0  0  0
 10 33  1  0  0  0  0
 11 12  1  0  0  0  0
 12 34  1  0  0  0  0
 12 13  1  0  0  0  0
 13 14  1  0  0  0  0
 13 36  1  0  0  0  0
 14 17  1  0  0  0  0
 15 38  1  0  0  0  0
 15 14  1  0  0  0  0
 16 11  1  0  0  0  0
 16 15  1  0  0  0  0
 17 18  2  0  0  0  0
 17 22  1  0  0  0  0
 18 19  1  0  0  0  0
 19 20  2  0  0  0  0
 20 21  1  0  0  0  0
 20 43  1  0  0  0  0
 21 44  1  0  0  0  0
 22 23  1  0  0  0  0
 22 21  2  0  0  0  0
 23 25  1  0  0  0  0
 24 23  2  0  0  0  0
 25 45  1  0  0  0  0
 26  9  1  0  0  0  0
 26 47  1  0  0  0  0
 27 26  1  0  0  0  0
 28 27  2  0  0  0  0
 29  3  1  0  0  0  0
 31  7  1  0  0  0  0
 32  8  1  0  0  0  0
 35 12  1  0  0  0  0
 37 13  1  0  0  0  0
 39 15  1  0  0  0  0
 40 16  1  0  0  0  0
 41 16  1  0  0  0  0
 42 19  1  0  0  0  0
 46 25  1  0  0  0  0
M  END
>  <Pose>
1

>  <Score>
-3.78

$$$$
