
 OpenBabel03232221553D

 38 42  0  0  1  0  0  0  0  0999 V2000
    1.6030  -11.3210  -37.7780 B   0  0  0  0  0  0  0  0  0  0  0  0
    1.4930  -13.2150  -37.8070 C   0  0  0  0  0  0  0  0  0  0  0  0
    1.7630  -13.8910  -38.9720 C   0  0  0  0  0  0  0  0  0  0  0  0
    1.6770  -15.2660  -38.9640 C   0  0  0  0  0  0  0  0  0  0  0  0
    1.3300  -15.9720  -37.8340 C   0  0  0  0  0  0  0  0  0  0  0  0
    1.0580  -15.2910  -36.6560 C   0  0  0  0  0  0  0  0  0  0  0  0
    1.1470  -13.8970  -36.6680 C   0  0  0  0  0  0  0  0  0  0  0  0
    1.2460  -17.4030  -37.8380 N   0  0  0  0  0  0  0  0  0  0  0  0
    2.1360  -18.2280  -37.1030 C   0  0  0  0  0  0  0  0  0  0  0  0
    2.8340  -17.8290  -36.1400 O   0  0  0  0  0  0  0  0  0  0  0  0
    2.0950  -19.6070  -37.6610 C   0  0  2  0  0  0  0  0  0  0  0  0
    3.1730  -19.8400  -38.6740 C   0  0  1  0  0  0  0  0  0  0  0  0
    2.5280  -20.7640  -39.5250 O   0  0  0  0  0  0  0  0  0  0  0  0
    1.4420  -19.9290  -39.8900 C   0  0  1  0  0  0  0  0  0  0  0  0
    0.8550  -19.6240  -38.5560 C   0  0  2  0  0  0  0  0  0  0  0  0
    0.3180  -18.2370  -38.5320 C   0  0  0  0  0  0  0  0  0  0  0  0
   -0.7530  -17.8880  -39.0360 O   0  0  0  0  0  0  0  0  0  0  0  0
    2.1980  -18.7380  -40.3560 C   0  0  0  0  0  0  0  0  0  0  0  0
    3.2480  -18.6560  -39.5440 C   0  0  0  0  0  0  0  0  0  0  0  0
    4.4460  -20.3430  -38.1420 C   0  0  0  0  0  0  0  0  0  0  0  0
    5.0900  -19.4650  -37.3130 O   0  0  0  0  0  0  0  0  0  0  0  0
    6.2210  -19.0110  -37.9440 C   0  0  0  0  0  0  0  0  0  0  0  0
    6.2640  -19.6890  -39.2740 C   0  0  0  0  0  0  0  0  0  0  0  0
    5.3210  -20.7030  -39.1510 O   0  0  0  0  0  0  0  0  0  0  0  0
    2.0420  -13.3780  -39.8970 H   0  0  0  0  0  0  0  0  0  0  0  0
    1.8860  -15.8380  -39.8810 H   0  0  0  0  0  0  0  0  0  0  0  0
    0.7890  -15.8560  -35.7800 H   0  0  0  0  0  0  0  0  0  0  0  0
    0.9350  -13.3670  -35.7510 H   0  0  0  0  0  0  0  0  0  0  0  0
    2.0600  -20.3460  -36.8620 H   0  0  0  0  0  0  0  0  0  0  0  0
    0.7870  -20.3740  -40.6190 H   0  0  0  0  0  0  0  0  0  0  0  0
    0.1200  -20.3460  -38.1990 H   0  0  0  0  0  0  0  0  0  0  0  0
    1.8900  -18.1210  -41.1890 H   0  0  0  0  0  0  0  0  0  0  0  0
    3.9530  -17.8330  -39.6010 H   0  0  0  0  0  0  0  0  0  0  0  0
    4.2270  -21.2790  -37.5620 H   0  0  0  0  0  0  0  0  0  0  0  0
    7.1540  -19.2200  -37.3840 H   0  0  0  0  0  0  0  0  0  0  0  0
    6.0960  -17.9110  -38.1170 H   0  0  0  0  0  0  0  0  0  0  0  0
    7.2900  -20.1180  -39.4700 H   0  0  0  0  0  0  0  0  0  0  0  0
    5.9680  -19.0200  -40.1220 H   0  0  0  0  0  0  0  0  0  0  0  0
  2  1  1  0  0  0  0
  2  7  1  0  0  0  0
  3  4  1  0  0  0  0
  3  2  2  0  0  0  0
  4  5  2  0  0  0  0
  5  6  1  0  0  0  0
  6 27  1  0  0  0  0
  7  6  2  0  0  0  0
  7 28  1  0  0  0  0
  8  5  1  0  0  0  0
  8  9  1  0  0  0  0
  9 10  2  0  0  0  0
 11  9  1  0  0  0  0
 11 29  1  1  0  0  0
 12 20  1  1  0  0  0
 12 11  1  0  0  0  0
 13 12  1  0  0  0  0
 14 30  1  6  0  0  0
 14 13  1  0  0  0  0
 14 15  1  0  0  0  0
 15 16  1  0  0  0  0
 15 31  1  1  0  0  0
 15 11  1  0  0  0  0
 16  8  1  0  0  0  0
 17 16  2  0  0  0  0
 18 14  1  0  0  0  0
 18 19  2  0  0  0  0
 19 12  1  0  0  0  0
 20 34  1  0  0  0  0
 20 21  1  0  0  0  0
 22 35  1  0  0  0  0
 22 21  1  0  0  0  0
 23 24  1  0  0  0  0
 23 22  1  0  0  0  0
 24 20  1  0  0  0  0
 25  3  1  0  0  0  0
 26  4  1  0  0  0  0
 32 18  1  0  0  0  0
 33 19  1  0  0  0  0
 36 22  1  0  0  0  0
 37 23  1  0  0  0  0
 38 23  1  0  0  0  0
M  END
>  <Pose>
1

>  <Score>
-3.68

$$$$
