
 OpenBabel03162216113D

 38 42  0  0  1  0  0  0  0  0999 V2000
    5.9630  -21.4390  -38.9630 B   0  0  0  0  0  0  0  0  0  0  0  0
    4.3310  -20.4790  -38.8470 C   0  0  0  0  0  0  0  0  0  0  0  0
    3.4000  -20.6020  -39.8510 C   0  0  0  0  0  0  0  0  0  0  0  0
    2.2240  -19.8950  -39.7400 C   0  0  0  0  0  0  0  0  0  0  0  0
    1.9580  -19.0760  -38.6650 C   0  0  0  0  0  0  0  0  0  0  0  0
    2.8970  -18.9510  -37.6500 C   0  0  0  0  0  0  0  0  0  0  0  0
    4.0880  -19.6710  -37.7650 C   0  0  0  0  0  0  0  0  0  0  0  0
    0.7290  -18.3470  -38.5610 N   0  0  0  0  0  0  0  0  0  0  0  0
    0.5280  -17.0840  -39.1760 C   0  0  0  0  0  0  0  0  0  0  0  0
    1.2260  -16.6430  -40.1210 O   0  0  0  0  0  0  0  0  0  0  0  0
   -0.6190  -16.4000  -38.5220 C   0  0  2  0  0  0  0  0  0  0  0  0
   -0.1790  -15.4740  -37.4310 C   0  0  1  0  0  0  0  0  0  0  0  0
   -1.2840  -15.5690  -36.5550 O   0  0  0  0  0  0  0  0  0  0  0  0
   -1.1960  -16.9640  -36.3200 C   0  0  1  0  0  0  0  0  0  0  0  0
   -1.3080  -17.4960  -37.7080 C   0  0  2  0  0  0  0  0  0  0  0  0
   -0.4640  -18.7100  -37.8660 C   0  0  0  0  0  0  0  0  0  0  0  0
   -0.7650  -19.8350  -37.4570 O   0  0  0  0  0  0  0  0  0  0  0  0
    0.2270  -17.0490  -35.8970 C   0  0  0  0  0  0  0  0  0  0  0  0
    0.8640  -16.1540  -36.6470 C   0  0  0  0  0  0  0  0  0  0  0  0
    0.1070  -14.0950  -37.8440 C   0  0  0  0  0  0  0  0  0  0  0  0
    1.1770  -13.9770  -38.6880 O   0  0  0  0  0  0  0  0  0  0  0  0
    2.2000  -13.3530  -38.0180 C   0  0  0  0  0  0  0  0  0  0  0  0
    1.6900  -13.0620  -36.6450 C   0  0  0  0  0  0  0  0  0  0  0  0
    0.3200  -13.2650  -36.7590 O   0  0  0  0  0  0  0  0  0  0  0  0
    3.5620  -21.2380  -40.7260 H   0  0  0  0  0  0  0  0  0  0  0  0
    1.4570  -19.9700  -40.5260 H   0  0  0  0  0  0  0  0  0  0  0  0
    2.6760  -18.3080  -36.8150 H   0  0  0  0  0  0  0  0  0  0  0  0
    4.8190  -19.5730  -36.9750 H   0  0  0  0  0  0  0  0  0  0  0  0
   -1.2710  -15.9420  -39.2650 H   0  0  0  0  0  0  0  0  0  0  0  0
   -1.9120  -17.3240  -35.6030 H   0  0  0  0  0  0  0  0  0  0  0  0
   -2.3270  -17.6660  -38.0550 H   0  0  0  0  0  0  0  0  0  0  0  0
    0.5850  -17.7240  -35.1320 H   0  0  0  0  0  0  0  0  0  0  0  0
    1.9420  -16.0370  -36.6060 H   0  0  0  0  0  0  0  0  0  0  0  0
   -0.8030  -13.7020  -38.3730 H   0  0  0  0  0  0  0  0  0  0  0  0
    2.5390  -12.4160  -38.5020 H   0  0  0  0  0  0  0  0  0  0  0  0
    3.0440  -14.0840  -37.9280 H   0  0  0  0  0  0  0  0  0  0  0  0
    1.9130  -11.9930  -36.3550 H   0  0  0  0  0  0  0  0  0  0  0  0
    2.0960  -13.7550  -35.8650 H   0  0  0  0  0  0  0  0  0  0  0  0
  1  2  1  0  0  0  0
  2  7  1  0  0  0  0
  3  4  1  0  0  0  0
  3  2  2  0  0  0  0
  4  5  2  0  0  0  0
  5  8  1  0  0  0  0
  5  6  1  0  0  0  0
  6 27  1  0  0  0  0
  7  6  2  0  0  0  0
  7 28  1  0  0  0  0
  8 16  1  0  0  0  0
  9  8  1  0  0  0  0
  9 11  1  0  0  0  0
 10  9  2  0  0  0  0
 11 29  1  6  0  0  0
 11 15  1  0  0  0  0
 11 12  1  0  0  0  0
 12 20  1  6  0  0  0
 12 19  1  0  0  0  0
 12 13  1  0  0  0  0
 13 14  1  0  0  0  0
 14 18  1  0  0  0  0
 14 30  1  1  0  0  0
 15 31  1  6  0  0  0
 15 14  1  0  0  0  0
 16 15  1  0  0  0  0
 16 17  2  0  0  0  0
 18 32  1  0  0  0  0
 19 33  1  0  0  0  0
 19 18  2  0  0  0  0
 20 24  1  0  0  0  0
 21 22  1  0  0  0  0
 21 20  1  0  0  0  0
 22 36  1  0  0  0  0
 22 23  1  0  0  0  0
 23 37  1  0  0  0  0
 23 38  1  0  0  0  0
 24 23  1  0  0  0  0
 25  3  1  0  0  0  0
 26  4  1  0  0  0  0
 34 20  1  0  0  0  0
 35 22  1  0  0  0  0
M  END
>  <Pose>
1

>  <Score>
-3.67

$$$$
