
 OpenBabel03232221553D

 58 61  0  0  0  0  0  0  0  0999 V2000
   -1.1100  -17.6550  -36.2840 Cl  0  0  0  0  0  0  0  0  0  0  0  0
   -0.0270  -17.7490  -37.6540 C   0  0  0  0  0  0  0  0  0  0  0  0
    1.1890  -18.4220  -37.5910 C   0  0  0  0  0  0  0  0  0  0  0  0
    2.0380  -18.4930  -38.6680 C   0  0  0  0  0  0  0  0  0  0  0  0
    1.6660  -17.8790  -39.8410 C   0  0  0  0  0  0  0  0  0  0  0  0
    0.4400  -17.2030  -39.9010 C   0  0  0  0  0  0  0  0  0  0  0  0
   -0.4100  -17.1310  -38.8220 C   0  0  0  0  0  0  0  0  0  0  0  0
   -1.6390  -16.4490  -38.8910 O   0  0  0  0  0  0  0  0  0  0  0  0
   -1.9170  -15.3320  -38.0840 C   0  0  0  0  0  0  0  0  0  0  0  0
    2.4660  -17.9400  -40.8780 O   0  0  0  0  0  0  0  0  0  0  0  0
    3.6190  -18.5640  -40.8500 C   0  0  0  0  0  0  0  0  0  0  0  0
    4.3710  -18.6010  -41.8810 O   0  0  0  0  0  0  0  0  0  0  0  0
    4.0930  -19.2190  -39.7150 C   0  0  0  0  0  0  0  0  0  0  0  0
    3.2630  -19.1660  -38.6180 C   0  0  0  0  0  0  0  0  0  0  0  0
    3.6480  -19.8180  -37.3700 C   0  0  0  0  0  0  0  0  0  0  0  0
    5.4030  -19.9070  -39.7490 C   0  0  0  0  0  0  0  0  0  0  0  0
    5.2690  -21.3060  -40.2410 C   0  0  0  0  0  0  0  0  0  0  0  0
    5.2090  -22.2330  -39.3620 O   0  0  0  0  0  0  0  0  0  0  0  0
    5.2050  -21.6780  -41.5720 N   0  0  0  0  0  0  0  0  0  0  0  0
    4.1740  -22.5120  -42.1060 C   0  0  0  0  0  0  0  0  0  0  0  0
    4.8370  -23.7580  -42.6970 C   0  0  0  0  0  0  0  0  0  0  0  0
    5.8180  -23.3660  -43.6520 N   0  0  0  0  0  0  0  0  0  0  0  0
    6.0100  -21.9120  -43.8420 C   0  0  0  0  0  0  0  0  0  0  0  0
    6.2080  -21.2260  -42.5090 C   0  0  0  0  0  0  0  0  0  0  0  0
    6.6180  -24.2400  -44.4170 C   0  0  0  0  0  0  0  0  0  0  0  0
    6.1020  -24.5180  -45.6100 O   0  0  0  0  0  0  0  0  0  0  0  0
    7.8710  -24.8760  -44.1440 C   0  0  0  0  0  0  0  0  0  0  0  0
    8.7870  -25.0910  -45.2050 C   0  0  0  0  0  0  0  0  0  0  0  0
    9.9940  -25.7010  -44.9860 C   0  0  0  0  0  0  0  0  0  0  0  0
   10.7890  -25.8800  -45.9460 O   0  0  0  0  0  0  0  0  0  0  0  0
   10.3800  -26.1270  -43.7770 N   0  0  0  0  0  0  0  0  0  0  0  0
    9.5190  -25.9240  -42.7780 C   0  0  0  0  0  0  0  0  0  0  0  0
    9.8390  -26.3120  -41.6070 O   0  0  0  0  0  0  0  0  0  0  0  0
    8.2960  -25.3140  -42.9640 N   0  0  0  0  0  0  0  0  0  0  0  0
   11.6570  -26.7690  -43.5660 C   0  0  0  0  0  0  0  0  0  0  0  0
    1.4960  -18.9100  -36.6770 H   0  0  0  0  0  0  0  0  0  0  0  0
    0.1660  -16.7270  -40.8310 H   0  0  0  0  0  0  0  0  0  0  0  0
   -1.0590  -14.6430  -37.9760 H   0  0  0  0  0  0  0  0  0  0  0  0
   -2.8300  -14.8480  -38.4700 H   0  0  0  0  0  0  0  0  0  0  0  0
   -2.0920  -15.7360  -37.0440 H   0  0  0  0  0  0  0  0  0  0  0  0
    3.6250  -19.0150  -36.5730 H   0  0  0  0  0  0  0  0  0  0  0  0
    4.6460  -20.2330  -37.3510 H   0  0  0  0  0  0  0  0  0  0  0  0
    2.8810  -20.5490  -37.0300 H   0  0  0  0  0  0  0  0  0  0  0  0
    6.0350  -19.7800  -38.8800 H   0  0  0  0  0  0  0  0  0  0  0  0
    5.9680  -19.3850  -40.5880 H   0  0  0  0  0  0  0  0  0  0  0  0
    3.6230  -22.0330  -42.9440 H   0  0  0  0  0  0  0  0  0  0  0  0
    3.4010  -22.7910  -41.3620 H   0  0  0  0  0  0  0  0  0  0  0  0
    5.3510  -24.3140  -41.8750 H   0  0  0  0  0  0  0  0  0  0  0  0
    4.0350  -24.4210  -43.0940 H   0  0  0  0  0  0  0  0  0  0  0  0
    6.8340  -21.7770  -44.5470 H   0  0  0  0  0  0  0  0  0  0  0  0
    5.0710  -21.5380  -44.2730 H   0  0  0  0  0  0  0  0  0  0  0  0
    7.1980  -21.5200  -42.1240 H   0  0  0  0  0  0  0  0  0  0  0  0
    6.1740  -20.1300  -42.5870 H   0  0  0  0  0  0  0  0  0  0  0  0
    8.4760  -24.7490  -46.1820 H   0  0  0  0  0  0  0  0  0  0  0  0
    7.7010  -25.2000  -42.1210 H   0  0  0  0  0  0  0  0  0  0  0  0
   11.6540  -27.2220  -42.5520 H   0  0  0  0  0  0  0  0  0  0  0  0
   12.4880  -26.0100  -43.5430 H   0  0  0  0  0  0  0  0  0  0  0  0
   11.8840  -27.5410  -44.3250 H   0  0  0  0  0  0  0  0  0  0  0  0
  2  3  1  0  0  0  0
  2  1  1  0  0  0  0
  3 36  1  0  0  0  0
  4 14  1  0  0  0  0
  4  3  2  0  0  0  0
  5  4  1  0  0  0  0
  6  5  2  0  0  0  0
  6  7  1  0  0  0  0
  7  2  2  0  0  0  0
  8  7  1  0  0  0  0
  8  9  1  0  0  0  0
  9 38  1  0  0  0  0
  9 40  1  0  0  0  0
 10 11  1  0  0  0  0
 10  5  1  0  0  0  0
 11 13  1  0  0  0  0
 12 11  2  0  0  0  0
 13 14  2  0  0  0  0
 14 15  1  0  0  0  0
 15 42  1  0  0  0  0
 15 43  1  0  0  0  0
 15 41  1  0  0  0  0
 16 13  1  0  0  0  0
 16 44  1  0  0  0  0
 17 16  1  0  0  0  0
 17 18  2  0  0  0  0
 19 17  1  0  0  0  0
 20 19  1  0  0  0  0
 20 47  1  0  0  0  0
 21 20  1  0  0  0  0
 21 48  1  0  0  0  0
 22 21  1  0  0  0  0
 23 22  1  0  0  0  0
 23 24  1  0  0  0  0
 24 52  1  0  0  0  0
 24 19  1  0  0  0  0
 25 27  1  0  0  0  0
 25 22  1  0  0  0  0
 26 25  2  0  0  0  0
 27 34  1  0  0  0  0
 28 29  1  0  0  0  0
 28 27  2  0  0  0  0
 29 31  1  0  0  0  0
 30 29  2  0  0  0  0
 31 35  1  0  0  0  0
 31 32  1  0  0  0  0
 32 33  2  0  0  0  0
 34 32  1  0  0  0  0
 34 55  1  0  0  0  0
 35 57  1  0  0  0  0
 35 56  1  0  0  0  0
 37  6  1  0  0  0  0
 39  9  1  0  0  0  0
 45 16  1  0  0  0  0
 46 20  1  0  0  0  0
 49 21  1  0  0  0  0
 50 23  1  0  0  0  0
 51 23  1  0  0  0  0
 53 24  1  0  0  0  0
 54 28  1  0  0  0  0
 58 35  1  0  0  0  0
M  END
>  <Pose>
1

>  <Score>
-4.93

$$$$
