
 OpenBabel03232221553D

 35 38  0  0  1  0  0  0  0  0999 V2000
    3.7500  -19.1490  -36.9250 Cl  0  0  0  0  0  0  0  0  0  0  0  0
    4.5710  -19.8850  -38.2970 C   0  0  0  0  0  0  0  0  0  0  0  0
    5.9040  -19.6000  -38.4920 C   0  0  0  0  0  0  0  0  0  0  0  0
    6.5200  -20.1660  -39.5420 N   0  0  0  0  0  0  0  0  0  0  0  0
    5.8830  -21.0000  -40.4050 C   0  0  0  0  0  0  0  0  0  0  0  0
    4.5820  -21.2860  -40.2240 N   0  0  0  0  0  0  0  0  0  0  0  0
    4.1890  -22.1130  -41.1870 N   0  0  0  0  0  0  0  0  0  0  0  0
    5.2180  -22.3860  -42.0140 C   0  0  0  0  0  0  0  0  0  0  0  0
    6.2580  -21.6800  -41.5030 N   0  0  0  0  0  0  0  0  0  0  0  0
    5.2170  -23.2240  -43.1670 N   0  0  0  0  0  0  0  0  0  0  0  0
    6.1000  -23.1180  -44.2750 C   0  0  0  0  0  0  0  0  0  0  0  0
    7.2160  -22.5400  -44.3290 O   0  0  0  0  0  0  0  0  0  0  0  0
    5.4960  -23.8280  -45.4540 C   0  0  2  0  0  0  0  0  0  0  0  0
    4.3620  -24.6180  -44.9070 C   0  0  1  0  0  0  0  0  0  0  0  0
    4.5260  -26.1220  -45.0310 C   0  0  0  0  0  0  0  0  0  0  0  0
    5.8900  -26.4450  -44.5010 C   0  0  0  0  0  0  0  0  0  0  0  0
    6.8790  -25.7450  -45.0270 C   0  0  0  0  0  0  0  0  0  0  0  0
    6.5420  -24.7380  -46.0620 C   0  0  0  0  0  0  0  0  0  0  0  0
    4.3630  -24.3180  -43.4630 C   0  0  0  0  0  0  0  0  0  0  0  0
    3.6920  -24.9480  -42.5820 O   0  0  0  0  0  0  0  0  0  0  0  0
    3.9280  -20.7300  -39.1740 C   0  0  0  0  0  0  0  0  0  0  0  0
    2.6970  -21.0000  -39.0010 O   0  0  0  0  0  0  0  0  0  0  0  0
    6.6230  -18.6800  -37.5470 C   0  0  0  0  0  0  0  0  0  0  0  0
    7.5340  -19.9530  -39.6960 H   0  0  0  0  0  0  0  0  0  0  0  0
    5.1810  -23.0690  -46.2040 H   0  0  0  0  0  0  0  0  0  0  0  0
    3.4290  -24.2760  -45.4060 H   0  0  0  0  0  0  0  0  0  0  0  0
    3.7640  -26.6180  -44.4020 H   0  0  0  0  0  0  0  0  0  0  0  0
    4.4610  -26.4090  -46.0940 H   0  0  0  0  0  0  0  0  0  0  0  0
    6.0090  -27.2040  -43.7420 H   0  0  0  0  0  0  0  0  0  0  0  0
    7.8920  -25.8980  -44.7170 H   0  0  0  0  0  0  0  0  0  0  0  0
    7.4540  -24.1640  -46.3460 H   0  0  0  0  0  0  0  0  0  0  0  0
    6.1010  -25.2400  -46.9560 H   0  0  0  0  0  0  0  0  0  0  0  0
    6.1720  -17.6800  -37.5460 H   0  0  0  0  0  0  0  0  0  0  0  0
    6.6180  -19.1120  -36.5140 H   0  0  0  0  0  0  0  0  0  0  0  0
    7.6830  -18.5590  -37.8480 H   0  0  0  0  0  0  0  0  0  0  0  0
  2  1  1  0  0  0  0
  3  2  2  0  0  0  0
  3 23  1  0  0  0  0
  4  3  1  0  0  0  0
  5  6  1  0  0  0  0
  5  4  1  0  0  0  0
  6 21  1  0  0  0  0
  7  6  1  0  0  0  0
  8  9  1  0  0  0  0
  8  7  2  0  0  0  0
  9  5  2  0  0  0  0
 10  8  1  0  0  0  0
 11 10  1  0  0  0  0
 12 11  2  0  0  0  0
 13 25  1  6  0  0  0
 13 14  1  0  0  0  0
 13 11  1  0  0  0  0
 14 26  1  6  0  0  0
 14 19  1  0  0  0  0
 15 14  1  0  0  0  0
 15 16  1  0  0  0  0
 15 27  1  0  0  0  0
 16 29  1  0  0  0  0
 17 30  1  0  0  0  0
 17 16  2  0  0  0  0
 18 13  1  0  0  0  0
 18 17  1  0  0  0  0
 19 10  1  0  0  0  0
 19 20  2  0  0  0  0
 21 22  2  0  0  0  0
 21  2  1  0  0  0  0
 23 33  1  0  0  0  0
 23 34  1  0  0  0  0
 24  4  1  0  0  0  0
 28 15  1  0  0  0  0
 31 18  1  0  0  0  0
 32 18  1  0  0  0  0
 35 23  1  0  0  0  0
M  END
>  <Pose>
1

>  <Score>
-4.38

$$$$
