
 OpenBabel03232221553D

 51 54  0  0  1  0  0  0  0  0999 V2000
   14.1160  -28.2030  -44.8820 Cl  0  0  0  0  0  0  0  0  0  0  0  0
   13.1660  -26.8690  -44.2630 C   0  0  0  0  0  0  0  0  0  0  0  0
   11.9170  -27.0600  -43.7170 C   0  0  0  0  0  0  0  0  0  0  0  0
   11.1580  -25.9760  -43.2250 C   0  0  0  0  0  0  0  0  0  0  0  0
   11.7390  -24.7450  -43.3240 C   0  0  0  0  0  0  0  0  0  0  0  0
   13.0180  -24.5450  -43.8810 C   0  0  0  0  0  0  0  0  0  0  0  0
   13.7310  -25.6180  -44.3520 C   0  0  0  0  0  0  0  0  0  0  0  0
    9.8890  -26.2460  -42.6750 N   0  0  0  0  0  0  0  0  0  0  0  0
    8.6920  -25.6590  -43.0510 C   0  0  0  0  0  0  0  0  0  0  0  0
    7.5850  -26.1160  -42.7450 O   0  0  0  0  0  0  0  0  0  0  0  0
    8.6530  -24.3940  -43.8840 C   0  0  0  0  0  0  0  0  0  0  0  0
    7.5760  -23.5350  -43.3690 N   0  0  0  0  0  0  0  0  0  0  0  0
    6.4420  -23.2080  -44.0580 C   0  0  1  0  0  0  0  0  0  0  0  0
    5.6680  -22.4290  -43.2850 N   0  0  0  0  0  0  0  0  0  0  0  0
    6.2510  -22.2230  -42.0970 C   0  0  0  0  0  0  0  0  0  0  0  0
    7.4570  -22.9350  -42.1830 C   0  0  0  0  0  0  0  0  0  0  0  0
    5.8410  -21.4740  -40.9210 C   0  0  0  0  0  0  0  0  0  0  0  0
    5.2430  -22.0630  -39.8410 C   0  0  0  0  0  0  0  0  0  0  0  0
    4.8660  -21.3680  -38.7070 C   0  0  0  0  0  0  0  0  0  0  0  0
    5.0800  -20.0010  -38.6100 C   0  0  0  0  0  0  0  0  0  0  0  0
    5.6820  -19.4080  -39.6930 C   0  0  0  0  0  0  0  0  0  0  0  0
    6.0590  -20.1020  -40.8260 C   0  0  0  0  0  0  0  0  0  0  0  0
    4.7150  -19.2720  -37.4910 O   0  0  0  0  0  0  0  0  0  0  0  0
    3.3920  -19.2470  -36.9890 C   0  0  0  0  0  0  0  0  0  0  0  0
    4.4530  -22.0940  -44.0280 C   0  0  0  0  0  0  0  0  0  0  0  0
    4.4030  -23.0860  -45.1740 C   0  0  0  0  0  0  0  0  0  0  0  0
    5.8300  -23.4410  -45.3900 C   0  0  0  0  0  0  0  0  0  0  0  0
   11.3670  -28.4250  -43.6460 C   0  0  0  0  0  0  0  0  0  0  0  0
   11.2240  -23.8680  -42.9710 H   0  0  0  0  0  0  0  0  0  0  0  0
   13.4630  -23.5610  -43.9490 H   0  0  0  0  0  0  0  0  0  0  0  0
   14.7300  -25.4670  -44.7850 H   0  0  0  0  0  0  0  0  0  0  0  0
    9.8370  -26.9690  -41.8940 H   0  0  0  0  0  0  0  0  0  0  0  0
    9.6070  -23.8770  -43.7000 H   0  0  0  0  0  0  0  0  0  0  0  0
    8.4380  -24.6170  -44.9340 H   0  0  0  0  0  0  0  0  0  0  0  0
    8.2090  -22.9930  -41.3930 H   0  0  0  0  0  0  0  0  0  0  0  0
    5.0660  -23.1490  -39.9190 H   0  0  0  0  0  0  0  0  0  0  0  0
    4.3930  -21.9050  -37.8870 H   0  0  0  0  0  0  0  0  0  0  0  0
    5.8570  -18.3280  -39.6290 H   0  0  0  0  0  0  0  0  0  0  0  0
    6.5300  -19.6030  -41.6740 H   0  0  0  0  0  0  0  0  0  0  0  0
    2.7490  -18.5510  -37.5790 H   0  0  0  0  0  0  0  0  0  0  0  0
    2.9130  -20.2360  -36.9490 H   0  0  0  0  0  0  0  0  0  0  0  0
    3.4290  -18.8600  -35.9510 H   0  0  0  0  0  0  0  0  0  0  0  0
    4.4240  -21.0530  -44.3510 H   0  0  0  0  0  0  0  0  0  0  0  0
    3.5320  -22.3080  -43.4390 H   0  0  0  0  0  0  0  0  0  0  0  0
    3.8840  -22.6730  -46.0490 H   0  0  0  0  0  0  0  0  0  0  0  0
    3.8970  -24.0330  -44.8150 H   0  0  0  0  0  0  0  0  0  0  0  0
    5.9860  -24.4920  -45.7150 H   0  0  0  0  0  0  0  0  0  0  0  0
    6.2840  -22.7320  -46.1380 H   0  0  0  0  0  0  0  0  0  0  0  0
   12.0580  -29.1280  -44.1430 H   0  0  0  0  0  0  0  0  0  0  0  0
   11.3030  -28.7770  -42.5740 H   0  0  0  0  0  0  0  0  0  0  0  0
   10.3530  -28.5310  -44.0730 H   0  0  0  0  0  0  0  0  0  0  0  0
  1  2  1  0  0  0  0
  2  3  1  0  0  0  0
  3 28  1  0  0  0  0
  3  4  2  0  0  0  0
  4  8  1  0  0  0  0
  5  4  1  0  0  0  0
  5 29  1  0  0  0  0
  6  5  2  0  0  0  0
  7  2  2  0  0  0  0
  7  6  1  0  0  0  0
  8 32  1  0  0  0  0
  9 10  2  0  0  0  0
  9  8  1  0  0  0  0
 11 33  1  0  0  0  0
 11 12  1  0  0  0  0
 11  9  1  0  0  0  0
 12 16  1  0  0  0  0
 13 27  1  6  0  0  0
 13 12  1  0  0  0  0
 13 14  1  0  0  0  0
 14 15  1  0  0  0  0
 15 17  1  0  0  0  0
 16 15  2  0  0  0  0
 16 35  1  0  0  0  0
 17 22  2  0  0  0  0
 17 18  1  0  0  0  0
 18 19  2  0  0  0  0
 19 20  1  0  0  0  0
 19 37  1  0  0  0  0
 20 23  1  0  0  0  0
 21 38  1  0  0  0  0
 21 20  2  0  0  0  0
 22 21  1  0  0  0  0
 23 24  1  0  0  0  0
 24 41  1  0  0  0  0
 24 42  1  0  0  0  0
 25 44  1  0  0  0  0
 25 14  1  0  0  0  0
 26 46  1  0  0  0  0
 26 25  1  0  0  0  0
 27 26  1  0  0  0  0
 28 50  1  0  0  0  0
 30  6  1  0  0  0  0
 31  7  1  0  0  0  0
 34 11  1  0  0  0  0
 36 18  1  0  0  0  0
 39 22  1  0  0  0  0
 40 24  1  0  0  0  0
 43 25  1  0  0  0  0
 45 26  1  0  0  0  0
 47 27  1  0  0  0  0
 48 27  1  0  0  0  0
 49 28  1  0  0  0  0
 51 28  1  0  0  0  0
M  END
>  <Pose>
1

>  <Score>
-3.98

$$$$
