
 OpenBabel03232221553D

 49 52  0  0  1  0  0  0  0  0999 V2000
   12.6250  -28.9710  -43.5150 Cl  0  0  0  0  0  0  0  0  0  0  0  0
   11.3370  -27.7880  -43.4360 C   0  0  0  0  0  0  0  0  0  0  0  0
   11.0890  -27.0640  -42.2790 C   0  0  0  0  0  0  0  0  0  0  0  0
   10.0740  -26.1440  -42.2440 C   0  0  0  0  0  0  0  0  0  0  0  0
    9.2460  -25.8870  -43.3470 C   0  0  0  0  0  0  0  0  0  0  0  0
    9.5090  -26.6130  -44.4750 C   0  0  0  0  0  0  0  0  0  0  0  0
   10.5350  -27.5480  -44.5250 C   0  0  0  0  0  0  0  0  0  0  0  0
    8.2090  -24.9360  -43.2520 N   0  0  0  0  0  0  0  0  0  0  0  0
    6.8650  -25.0810  -43.6090 C   0  0  0  0  0  0  0  0  0  0  0  0
    6.3510  -26.2270  -43.6610 O   0  0  0  0  0  0  0  0  0  0  0  0
    5.9940  -23.8920  -43.9450 C   0  0  0  0  0  0  0  0  0  0  0  0
    6.8960  -22.7810  -44.1900 N   0  0  0  0  0  0  0  0  0  0  0  0
    6.5990  -22.1470  -45.4910 C   0  0  0  0  0  0  0  0  0  0  0  0
    7.9470  -21.4880  -45.8470 C   0  0  0  0  0  0  0  0  0  0  0  0
    8.4520  -21.0440  -44.5390 N   0  0  0  0  0  0  0  0  0  0  0  0
    7.4590  -20.5190  -43.6560 C   0  0  0  0  0  0  0  0  0  0  0  0
    6.6310  -21.7250  -43.1840 C   0  0  0  0  0  0  0  0  0  0  0  0
    9.8200  -21.1810  -44.2630 C   0  0  2  0  0  0  0  0  0  0  0  0
   10.4240  -22.4060  -44.3540 N   0  0  0  0  0  0  0  0  0  0  0  0
   11.7130  -22.6190  -44.0950 C   0  0  0  0  0  0  0  0  0  0  0  0
   12.4880  -21.5950  -43.7210 N   0  0  0  0  0  0  0  0  0  0  0  0
   12.0170  -20.3580  -43.5990 C   0  0  0  0  0  0  0  0  0  0  0  0
   12.5620  -19.1770  -43.2450 N   0  0  0  0  0  0  0  0  0  0  0  0
   11.6000  -18.2910  -43.3000 N   0  0  0  0  0  0  0  0  0  0  0  0
   10.4640  -18.8590  -43.6730 N   0  0  0  0  0  0  0  0  0  0  0  0
   10.6620  -20.1480  -43.8730 C   0  0  0  0  0  0  0  0  0  0  0  0
   13.9330  -18.8900  -42.8670 C   0  0  0  0  0  0  0  0  0  0  0  0
   14.9130  -19.4910  -43.8510 C   0  0  0  0  0  0  0  0  0  0  0  0
   11.7260  -27.2590  -41.4300 H   0  0  0  0  0  0  0  0  0  0  0  0
    9.8970  -25.5920  -41.3360 H   0  0  0  0  0  0  0  0  0  0  0  0
    8.9360  -26.5070  -45.3780 H   0  0  0  0  0  0  0  0  0  0  0  0
   10.6960  -28.0960  -45.4560 H   0  0  0  0  0  0  0  0  0  0  0  0
    8.4950  -23.9750  -42.8830 H   0  0  0  0  0  0  0  0  0  0  0  0
    5.3740  -24.1710  -44.7990 H   0  0  0  0  0  0  0  0  0  0  0  0
    5.3670  -23.7490  -43.0420 H   0  0  0  0  0  0  0  0  0  0  0  0
    5.8730  -21.3290  -45.4040 H   0  0  0  0  0  0  0  0  0  0  0  0
    6.2650  -22.8640  -46.2270 H   0  0  0  0  0  0  0  0  0  0  0  0
    8.5530  -22.3050  -46.2750 H   0  0  0  0  0  0  0  0  0  0  0  0
    7.8200  -20.6580  -46.5380 H   0  0  0  0  0  0  0  0  0  0  0  0
    6.7830  -19.8040  -44.1960 H   0  0  0  0  0  0  0  0  0  0  0  0
    7.8600  -20.0520  -42.7520 H   0  0  0  0  0  0  0  0  0  0  0  0
    6.9140  -22.0220  -42.1850 H   0  0  0  0  0  0  0  0  0  0  0  0
    5.5590  -21.4300  -43.1850 H   0  0  0  0  0  0  0  0  0  0  0  0
   12.1190  -23.6370  -44.1940 H   0  0  0  0  0  0  0  0  0  0  0  0
   14.0610  -17.7880  -42.8370 H   0  0  0  0  0  0  0  0  0  0  0  0
   14.1970  -19.2700  -41.8610 H   0  0  0  0  0  0  0  0  0  0  0  0
   15.0690  -18.7360  -44.6530 H   0  0  0  0  0  0  0  0  0  0  0  0
   15.8430  -19.7130  -43.2940 H   0  0  0  0  0  0  0  0  0  0  0  0
   14.5280  -20.4590  -44.2570 H   0  0  0  0  0  0  0  0  0  0  0  0
  1  2  1  0  0  0  0
  2  3  1  0  0  0  0
  3  4  2  0  0  0  0
  3 29  1  0  0  0  0
  4 30  1  0  0  0  0
  5  8  1  0  0  0  0
  5  4  1  0  0  0  0
  6  5  2  0  0  0  0
  7  6  1  0  0  0  0
  7  2  2  0  0  0  0
  8 33  1  0  0  0  0
  9  8  1  0  0  0  0
 10  9  2  0  0  0  0
 11  9  1  0  0  0  0
 11 35  1  0  0  0  0
 12 11  1  0  0  0  0
 12 17  1  0  0  0  0
 13 36  1  0  0  0  0
 13 12  1  0  0  0  0
 14 13  1  0  0  0  0
 14 15  1  0  0  0  0
 15 16  1  0  0  0  0
 16 17  1  0  0  0  0
 16 41  1  0  0  0  0
 17 42  1  0  0  0  0
 18 15  1  1  0  0  0
 18 26  1  0  0  0  0
 19 18  1  0  0  0  0
 19 20  2  0  0  0  0
 20 21  1  0  0  0  0
 21 22  1  0  0  0  0
 22 23  1  0  0  0  0
 23 27  1  0  0  0  0
 24 23  1  0  0  0  0
 25 24  2  0  0  0  0
 26 25  1  0  0  0  0
 26 22  2  0  0  0  0
 27 45  1  0  0  0  0
 27 46  1  0  0  0  0
 28 48  1  0  0  0  0
 28 27  1  0  0  0  0
 31  6  1  0  0  0  0
 32  7  1  0  0  0  0
 34 11  1  0  0  0  0
 37 13  1  0  0  0  0
 38 14  1  0  0  0  0
 39 14  1  0  0  0  0
 40 16  1  0  0  0  0
 43 17  1  0  0  0  0
 44 20  1  0  0  0  0
 47 28  1  0  0  0  0
 49 28  1  0  0  0  0
M  END
>  <Pose>
1

>  <Score>
-4.35

$$$$
