
 OpenBabel03232221553D

 49 52  0  0  1  0  0  0  0  0999 V2000
   -0.6650  -27.5350  -42.3480 Cl  0  0  0  0  0  0  0  0  0  0  0  0
   -0.0220  -25.9120  -42.4790 C   0  0  0  0  0  0  0  0  0  0  0  0
   -0.7950  -24.8990  -42.9930 C   0  0  0  0  0  0  0  0  0  0  0  0
   -0.2140  -23.6560  -43.0620 C   0  0  0  0  0  0  0  0  0  0  0  0
    1.0910  -23.3950  -42.6400 C   0  0  0  0  0  0  0  0  0  0  0  0
    1.8700  -24.3990  -42.1250 C   0  0  0  0  0  0  0  0  0  0  0  0
    1.2620  -25.6670  -42.0610 C   0  0  0  0  0  0  0  0  0  0  0  0
    3.1940  -24.2560  -41.6540 N   0  0  0  0  0  0  0  0  0  0  0  0
    4.2420  -23.7340  -42.4290 C   0  0  0  0  0  0  0  0  0  0  0  0
    4.5280  -24.1720  -43.5540 O   0  0  0  0  0  0  0  0  0  0  0  0
    5.0870  -22.5960  -41.9280 C   0  0  0  0  0  0  0  0  0  0  0  0
    4.4580  -21.8750  -40.8680 N   0  0  0  0  0  0  0  0  0  0  0  0
    4.7360  -22.0620  -39.5580 C   0  0  0  0  0  0  0  0  0  0  0  0
    4.0990  -21.3390  -38.6140 N   0  0  0  0  0  0  0  0  0  0  0  0
    3.1750  -20.4160  -38.9050 C   0  0  0  0  0  0  0  0  0  0  0  0
    2.5350  -19.6910  -37.9730 N   0  0  0  0  0  0  0  0  0  0  0  0
    1.6050  -18.7590  -38.2390 C   0  0  0  0  0  0  0  0  0  0  0  0
    1.3110  -18.5550  -39.5520 N   0  0  0  0  0  0  0  0  0  0  0  0
    1.9260  -19.2570  -40.5160 C   0  0  0  0  0  0  0  0  0  0  0  0
    2.8800  -20.2120  -40.2320 C   0  0  2  0  0  0  0  0  0  0  0  0
    3.5240  -20.9440  -41.2080 C   0  0  0  0  0  0  0  0  0  0  0  0
    3.2110  -20.7120  -42.4020 O   0  0  0  0  0  0  0  0  0  0  0  0
    0.9540  -18.0150  -37.2260 N   0  0  0  0  0  0  0  0  0  0  0  0
    1.7620  -17.2510  -36.3040 C   0  0  0  0  0  0  0  0  0  0  0  0
    1.0700  -15.9170  -36.0320 C   0  0  0  0  0  0  0  0  0  0  0  0
   -0.2750  -16.0890  -35.7120 O   0  0  0  0  0  0  0  0  0  0  0  0
   -0.9080  -16.5280  -36.8740 C   0  0  0  0  0  0  0  0  0  0  0  0
   -0.4820  -17.9840  -37.0670 C   0  0  0  0  0  0  0  0  0  0  0  0
   -2.1090  -25.1230  -43.4270 O   0  0  0  0  0  0  0  0  0  0  0  0
   -3.1050  -25.4760  -42.4950 C   0  0  0  0  0  0  0  0  0  0  0  0
   -0.8140  -22.8320  -43.4700 H   0  0  0  0  0  0  0  0  0  0  0  0
    1.4550  -22.4060  -42.7400 H   0  0  0  0  0  0  0  0  0  0  0  0
    1.8920  -26.4620  -41.6480 H   0  0  0  0  0  0  0  0  0  0  0  0
    3.4130  -24.5680  -40.6490 H   0  0  0  0  0  0  0  0  0  0  0  0
    6.0710  -22.9370  -41.5850 H   0  0  0  0  0  0  0  0  0  0  0  0
    5.2450  -21.9010  -42.7750 H   0  0  0  0  0  0  0  0  0  0  0  0
    5.4830  -22.8080  -39.3250 H   0  0  0  0  0  0  0  0  0  0  0  0
    1.7010  -19.1050  -41.5770 H   0  0  0  0  0  0  0  0  0  0  0  0
    1.8950  -17.7760  -35.3330 H   0  0  0  0  0  0  0  0  0  0  0  0
    2.7210  -17.0170  -36.8020 H   0  0  0  0  0  0  0  0  0  0  0  0
    1.5550  -15.4520  -35.1520 H   0  0  0  0  0  0  0  0  0  0  0  0
    1.1140  -15.2790  -36.9390 H   0  0  0  0  0  0  0  0  0  0  0  0
   -0.5400  -15.9310  -37.7200 H   0  0  0  0  0  0  0  0  0  0  0  0
   -1.9980  -16.4600  -36.8310 H   0  0  0  0  0  0  0  0  0  0  0  0
   -0.8280  -18.5930  -36.2080 H   0  0  0  0  0  0  0  0  0  0  0  0
   -0.9270  -18.3130  -38.0300 H   0  0  0  0  0  0  0  0  0  0  0  0
   -3.0590  -24.7400  -41.6600 H   0  0  0  0  0  0  0  0  0  0  0  0
   -2.9530  -26.4720  -42.0600 H   0  0  0  0  0  0  0  0  0  0  0  0
   -4.1070  -25.3460  -42.9520 H   0  0  0  0  0  0  0  0  0  0  0  0
  2  1  1  0  0  0  0
  2  7  1  0  0  0  0
  3  2  2  0  0  0  0
  4  3  1  0  0  0  0
  4  5  2  0  0  0  0
  5  6  1  0  0  0  0
  6  7  2  0  0  0  0
  6  8  1  0  0  0  0
  7 33  1  0  0  0  0
  8 34  1  0  0  0  0
  9 11  1  0  0  0  0
  9  8  1  0  0  0  0
 10  9  2  0  0  0  0
 11 35  1  0  0  0  0
 11 12  1  0  0  0  0
 12 13  1  0  0  0  0
 13 37  1  0  0  0  0
 13 14  1  0  0  0  0
 15 14  2  0  0  0  0
 15 16  1  0  0  0  0
 17 16  2  0  0  0  0
 17 23  1  0  0  0  0
 18 17  1  0  0  0  0
 19 20  1  0  0  0  0
 19 18  2  0  0  0  0
 20 21  1  1  0  0  0
 20 15  1  0  0  0  0
 21 12  1  0  0  0  0
 22 21  2  0  0  0  0
 23 28  1  0  0  0  0
 23 24  1  0  0  0  0
 24 25  1  0  0  0  0
 24 39  1  0  0  0  0
 25 26  1  0  0  0  0
 25 41  1  0  0  0  0
 27 44  1  0  0  0  0
 27 26  1  0  0  0  0
 28 27  1  0  0  0  0
 28 45  1  0  0  0  0
 29  3  1  0  0  0  0
 29 30  1  0  0  0  0
 30 48  1  0  0  0  0
 30 47  1  0  0  0  0
 31  4  1  0  0  0  0
 32  5  1  0  0  0  0
 36 11  1  0  0  0  0
 38 19  1  0  0  0  0
 40 24  1  0  0  0  0
 42 25  1  0  0  0  0
 43 27  1  0  0  0  0
 46 28  1  0  0  0  0
 49 30  1  0  0  0  0
M  END
>  <Pose>
1

>  <Score>
-4.39

$$$$
