
 OpenBabel03232221553D

 38 41  0  0  0  0  0  0  0  0999 V2000
    6.6530  -18.7070  -37.7930 Cl  0  0  0  0  0  0  0  0  0  0  0  0
    5.1310  -19.4020  -38.3340 C   0  0  0  0  0  0  0  0  0  0  0  0
    5.0430  -20.0190  -39.5660 C   0  0  0  0  0  0  0  0  0  0  0  0
    3.8610  -20.5600  -39.9880 C   0  0  0  0  0  0  0  0  0  0  0  0
    2.7680  -20.4720  -39.1570 C   0  0  0  0  0  0  0  0  0  0  0  0
    2.8340  -19.8600  -37.9240 C   0  0  0  0  0  0  0  0  0  0  0  0
    4.0320  -19.3170  -37.5070 C   0  0  0  0  0  0  0  0  0  0  0  0
    3.6870  -21.2390  -41.2940 C   0  0  0  0  0  0  0  0  0  0  0  0
    4.9970  -21.3720  -41.8830 N   0  0  0  0  0  0  0  0  0  0  0  0
    5.8480  -20.2060  -41.8460 C   0  0  0  0  0  0  0  0  0  0  0  0
    6.2890  -20.0570  -40.3850 C   0  0  0  0  0  0  0  0  0  0  0  0
    5.4520  -22.5740  -42.4740 C   0  0  0  0  0  0  0  0  0  0  0  0
    6.6010  -22.6180  -42.9870 O   0  0  0  0  0  0  0  0  0  0  0  0
    4.6410  -23.8130  -42.5280 C   0  0  0  0  0  0  0  0  0  0  0  0
    5.3390  -24.8750  -43.1020 O   0  0  0  0  0  0  0  0  0  0  0  0
    4.7810  -25.7830  -43.9920 C   0  0  0  0  0  0  0  0  0  0  0  0
    5.5090  -26.8430  -44.3930 N   0  0  0  0  0  0  0  0  0  0  0  0
    5.0320  -27.7480  -45.2440 N   0  0  0  0  0  0  0  0  0  0  0  0
    3.7980  -27.6670  -45.7580 C   0  0  0  0  0  0  0  0  0  0  0  0
    3.5930  -28.7140  -46.5820 N   0  0  0  0  0  0  0  0  0  0  0  0
    4.6940  -29.4250  -46.5700 N   0  0  0  0  0  0  0  0  0  0  0  0
    5.5980  -28.8560  -45.7550 C   0  0  0  0  0  0  0  0  0  0  0  0
    3.0170  -26.5860  -45.3660 C   0  0  0  0  0  0  0  0  0  0  0  0
    3.5080  -25.6500  -44.4880 C   0  0  0  0  0  0  0  0  0  0  0  0
    1.8030  -20.8860  -39.4420 H   0  0  0  0  0  0  0  0  0  0  0  0
    1.9470  -19.8030  -37.2770 H   0  0  0  0  0  0  0  0  0  0  0  0
    4.1440  -18.8260  -36.5520 H   0  0  0  0  0  0  0  0  0  0  0  0
    3.0700  -20.6530  -42.0060 H   0  0  0  0  0  0  0  0  0  0  0  0
    3.2250  -22.2410  -41.1970 H   0  0  0  0  0  0  0  0  0  0  0  0
    6.7280  -20.2850  -42.5110 H   0  0  0  0  0  0  0  0  0  0  0  0
    5.2940  -19.2830  -42.1090 H   0  0  0  0  0  0  0  0  0  0  0  0
    6.8610  -19.1450  -40.2150 H   0  0  0  0  0  0  0  0  0  0  0  0
    6.8540  -20.9490  -40.0720 H   0  0  0  0  0  0  0  0  0  0  0  0
    3.6910  -23.6860  -43.0840 H   0  0  0  0  0  0  0  0  0  0  0  0
    4.3550  -24.0720  -41.4790 H   0  0  0  0  0  0  0  0  0  0  0  0
    6.6140  -29.1970  -45.5230 H   0  0  0  0  0  0  0  0  0  0  0  0
    2.0360  -26.5170  -45.7720 H   0  0  0  0  0  0  0  0  0  0  0  0
    2.9300  -24.7970  -44.1610 H   0  0  0  0  0  0  0  0  0  0  0  0
  2  1  1  0  0  0  0
  2  7  1  0  0  0  0
  3  2  2  0  0  0  0
  4  3  1  0  0  0  0
  4  5  2  0  0  0  0
  5  6  1  0  0  0  0
  6  7  2  0  0  0  0
  6 26  1  0  0  0  0
  7 27  1  0  0  0  0
  8 29  1  0  0  0  0
  8  4  1  0  0  0  0
  9 10  1  0  0  0  0
  9  8  1  0  0  0  0
 10 11  1  0  0  0  0
 11 32  1  0  0  0  0
 11 33  1  0  0  0  0
 11  3  1  0  0  0  0
 12  9  1  0  0  0  0
 13 12  2  0  0  0  0
 14 12  1  0  0  0  0
 14 35  1  0  0  0  0
 15 14  1  0  0  0  0
 16 15  1  0  0  0  0
 17 16  2  0  0  0  0
 18 17  1  0  0  0  0
 19 23  1  0  0  0  0
 19 18  1  0  0  0  0
 20 21  1  0  0  0  0
 20 19  2  0  0  0  0
 21 22  2  0  0  0  0
 22 36  1  0  0  0  0
 22 18  1  0  0  0  0
 23 24  2  0  0  0  0
 24 38  1  0  0  0  0
 24 16  1  0  0  0  0
 25  5  1  0  0  0  0
 28  8  1  0  0  0  0
 30 10  1  0  0  0  0
 31 10  1  0  0  0  0
 34 14  1  0  0  0  0
 37 23  1  0  0  0  0
M  END
>  <Pose>
1

>  <Score>
-3.89

$$$$
