
 OpenBabel03232221553D

 42 45  0  0  1  0  0  0  0  0999 V2000
    5.2520  -21.3740  -40.2760 S   0  0  0  0  0  0  0  0  0  0  0  0
    4.1580  -22.3340  -40.5990 O   0  0  0  0  0  0  0  0  0  0  0  0
    6.5770  -22.0670  -40.4580 O   0  0  0  0  0  0  0  0  0  0  0  0
    5.1440  -20.8870  -38.6280 N   0  0  0  0  0  0  0  0  0  0  0  0
    3.7940  -20.7680  -38.1770 C   0  0  0  0  0  0  0  0  0  0  0  0
    3.6560  -19.4210  -37.4890 C   0  0  1  0  0  0  0  0  0  0  0  0
    4.7220  -18.6060  -38.1920 C   0  0  0  0  0  0  0  0  0  0  0  0
    5.8240  -19.6590  -38.3600 C   0  0  0  0  0  0  0  0  0  0  0  0
    2.3890  -18.8890  -37.8360 O   0  0  0  0  0  0  0  0  0  0  0  0
    1.9740  -17.6390  -37.4060 C   0  0  0  0  0  0  0  0  0  0  0  0
    1.6520  -16.7480  -38.3880 N   0  0  0  0  0  0  0  0  0  0  0  0
    1.2460  -15.5280  -38.0010 C   0  0  0  0  0  0  0  0  0  0  0  0
    1.1490  -15.1630  -36.6730 C   0  0  0  0  0  0  0  0  0  0  0  0
    1.4890  -16.1070  -35.7220 C   0  0  0  0  0  0  0  0  0  0  0  0
    1.8960  -17.3340  -36.1120 N   0  0  0  0  0  0  0  0  0  0  0  0
    0.6190  -13.5670  -36.1830 Cl  0  0  0  0  0  0  0  0  0  0  0  0
    5.1780  -20.0050  -41.3620 C   0  0  0  0  0  0  0  0  0  0  0  0
    6.2890  -19.2100  -41.5610 C   0  0  0  0  0  0  0  0  0  0  0  0
    6.2830  -18.1160  -42.4080 C   0  0  0  0  0  0  0  0  0  0  0  0
    5.1300  -17.7860  -43.0970 C   0  0  0  0  0  0  0  0  0  0  0  0
    4.0310  -18.5810  -42.8950 C   0  0  0  0  0  0  0  0  0  0  0  0
    4.0330  -19.6710  -42.0510 C   0  0  0  0  0  0  0  0  0  0  0  0
    5.1690  -16.6840  -43.9360 O   0  0  0  0  0  0  0  0  0  0  0  0
    6.0740  -15.6070  -43.7700 C   0  0  0  0  0  0  0  0  0  0  0  0
    7.3790  -16.0220  -43.1430 C   0  0  0  0  0  0  0  0  0  0  0  0
    7.3830  -17.3160  -42.6140 O   0  0  0  0  0  0  0  0  0  0  0  0
    3.6260  -21.5370  -37.3870 H   0  0  0  0  0  0  0  0  0  0  0  0
    3.0380  -20.9260  -38.9460 H   0  0  0  0  0  0  0  0  0  0  0  0
    3.8140  -19.4990  -36.4070 H   0  0  0  0  0  0  0  0  0  0  0  0
    4.3710  -18.2320  -39.1510 H   0  0  0  0  0  0  0  0  0  0  0  0
    5.1170  -17.8350  -37.5030 H   0  0  0  0  0  0  0  0  0  0  0  0
    6.4910  -19.3360  -39.1930 H   0  0  0  0  0  0  0  0  0  0  0  0
    6.3810  -19.7140  -37.4220 H   0  0  0  0  0  0  0  0  0  0  0  0
    0.9760  -14.7750  -38.7260 H   0  0  0  0  0  0  0  0  0  0  0  0
    1.4220  -15.8460  -34.6560 H   0  0  0  0  0  0  0  0  0  0  0  0
    7.2010  -19.4620  -41.0220 H   0  0  0  0  0  0  0  0  0  0  0  0
    3.1270  -18.3040  -43.4500 H   0  0  0  0  0  0  0  0  0  0  0  0
    3.1610  -20.2790  -41.9090 H   0  0  0  0  0  0  0  0  0  0  0  0
    6.2280  -15.1350  -44.7560 H   0  0  0  0  0  0  0  0  0  0  0  0
    5.5390  -14.8540  -43.1250 H   0  0  0  0  0  0  0  0  0  0  0  0
    8.1760  -15.8760  -43.9180 H   0  0  0  0  0  0  0  0  0  0  0  0
    7.5930  -15.3100  -42.3190 H   0  0  0  0  0  0  0  0  0  0  0  0
  1  4  1  0  0  0  0
  2  1  2  0  0  0  0
  3  1  2  0  0  0  0
  4  8  1  0  0  0  0
  4  5  1  0  0  0  0
  5  6  1  0  0  0  0
  5 27  1  0  0  0  0
  6 29  1  1  0  0  0
  7 31  1  0  0  0  0
  7  6  1  0  0  0  0
  8  7  1  0  0  0  0
  8 33  1  0  0  0  0
  9  6  1  0  0  0  0
  9 10  1  0  0  0  0
 10 15  2  0  0  0  0
 11 12  1  0  0  0  0
 11 10  2  0  0  0  0
 12 13  2  0  0  0  0
 13 16  1  0  0  0  0
 13 14  1  0  0  0  0
 14 35  1  0  0  0  0
 15 14  1  0  0  0  0
 17  1  1  0  0  0  0
 18 17  1  0  0  0  0
 18 36  1  0  0  0  0
 19 18  2  0  0  0  0
 20 21  2  0  0  0  0
 20 19  1  0  0  0  0
 21 22  1  0  0  0  0
 22 38  1  0  0  0  0
 22 17  2  0  0  0  0
 23 24  1  0  0  0  0
 23 20  1  0  0  0  0
 24 25  1  0  0  0  0
 24 40  1  0  0  0  0
 25 26  1  0  0  0  0
 25 42  1  0  0  0  0
 26 19  1  0  0  0  0
 28  5  1  0  0  0  0
 30  7  1  0  0  0  0
 32  8  1  0  0  0  0
 34 12  1  0  0  0  0
 37 21  1  0  0  0  0
 39 24  1  0  0  0  0
 41 25  1  0  0  0  0
M  END
>  <Pose>
1

>  <Score>
-4.00

$$$$
