
 OpenBabel03232221553D

 52 55  0  0  0  0  0  0  0  0999 V2000
   11.5080  -19.8270  -42.7990 Cl  0  0  0  0  0  0  0  0  0  0  0  0
   10.1350  -19.4200  -43.8250 C   0  0  0  0  0  0  0  0  0  0  0  0
    8.9600  -20.1170  -43.8220 C   0  0  0  0  0  0  0  0  0  0  0  0
    7.8740  -19.7910  -44.6480 C   0  0  0  0  0  0  0  0  0  0  0  0
    8.0200  -18.7240  -45.4810 C   0  0  0  0  0  0  0  0  0  0  0  0
    9.2110  -18.0120  -45.4880 C   0  0  0  0  0  0  0  0  0  0  0  0
   10.2750  -18.3410  -44.6720 C   0  0  0  0  0  0  0  0  0  0  0  0
    6.6450  -20.6220  -44.5460 C   0  0  0  0  0  0  0  0  0  0  0  0
    6.3770  -21.1720  -43.2600 N   0  0  0  0  0  0  0  0  0  0  0  0
    5.7060  -20.4980  -42.2850 C   0  0  0  0  0  0  0  0  0  0  0  0
    5.6560  -21.3070  -41.1810 C   0  0  0  0  0  0  0  0  0  0  0  0
    6.2900  -22.4300  -41.5170 N   0  0  0  0  0  0  0  0  0  0  0  0
    6.7430  -22.3700  -42.7980 C   0  0  0  0  0  0  0  0  0  0  0  0
    7.4310  -23.4450  -43.4700 N   0  0  0  0  0  0  0  0  0  0  0  0
    8.8360  -23.2180  -43.7190 C   0  0  0  0  0  0  0  0  0  0  0  0
    9.5400  -24.3950  -44.3430 C   0  0  0  0  0  0  0  0  0  0  0  0
    9.1620  -25.5590  -43.6270 N   0  0  0  0  0  0  0  0  0  0  0  0
    7.7740  -25.8500  -43.7640 C   0  0  0  0  0  0  0  0  0  0  0  0
    6.8530  -24.6730  -43.8970 C   0  0  0  0  0  0  0  0  0  0  0  0
    9.6230  -25.5010  -42.2760 C   0  0  0  0  0  0  0  0  0  0  0  0
   10.8670  -26.2860  -42.0230 C   0  0  0  0  0  0  0  0  0  0  0  0
   10.8820  -27.4830  -41.6940 O   0  0  0  0  0  0  0  0  0  0  0  0
   12.0900  -25.5550  -42.1860 N   0  0  0  0  0  0  0  0  0  0  0  0
    5.0220  -20.8570  -40.0850 N   0  0  0  0  0  0  0  0  0  0  0  0
    4.4340  -19.6300  -40.0540 C   0  0  0  0  0  0  0  0  0  0  0  0
    3.8320  -19.1960  -39.0220 O   0  0  0  0  0  0  0  0  0  0  0  0
    4.4650  -18.8150  -41.1220 N   0  0  0  0  0  0  0  0  0  0  0  0
    5.0950  -19.2480  -42.2230 C   0  0  0  0  0  0  0  0  0  0  0  0
    5.1040  -18.4660  -43.2000 O   0  0  0  0  0  0  0  0  0  0  0  0
    4.9390  -21.6710  -38.9010 C   0  0  0  0  0  0  0  0  0  0  0  0
    8.8860  -20.9610  -43.1490 H   0  0  0  0  0  0  0  0  0  0  0  0
    7.2140  -18.4220  -46.1320 H   0  0  0  0  0  0  0  0  0  0  0  0
    9.3190  -17.1570  -46.1580 H   0  0  0  0  0  0  0  0  0  0  0  0
   11.1980  -17.7470  -44.7100 H   0  0  0  0  0  0  0  0  0  0  0  0
    5.8150  -19.9770  -44.8980 H   0  0  0  0  0  0  0  0  0  0  0  0
    6.7090  -21.4310  -45.3170 H   0  0  0  0  0  0  0  0  0  0  0  0
    8.9090  -22.3830  -44.4900 H   0  0  0  0  0  0  0  0  0  0  0  0
    9.3310  -22.8070  -42.8250 H   0  0  0  0  0  0  0  0  0  0  0  0
   10.6220  -24.2140  -44.2760 H   0  0  0  0  0  0  0  0  0  0  0  0
    9.3130  -24.4700  -45.4340 H   0  0  0  0  0  0  0  0  0  0  0  0
    7.4990  -26.4810  -42.8670 H   0  0  0  0  0  0  0  0  0  0  0  0
    7.6740  -26.5250  -44.6580 H   0  0  0  0  0  0  0  0  0  0  0  0
    5.9170  -24.9350  -43.3540 H   0  0  0  0  0  0  0  0  0  0  0  0
    6.5100  -24.6210  -44.9800 H   0  0  0  0  0  0  0  0  0  0  0  0
    9.8760  -24.4560  -41.9440 H   0  0  0  0  0  0  0  0  0  0  0  0
    8.8290  -25.9530  -41.6240 H   0  0  0  0  0  0  0  0  0  0  0  0
   12.1710  -24.7620  -42.8620 H   0  0  0  0  0  0  0  0  0  0  0  0
   12.8950  -25.8210  -41.6230 H   0  0  0  0  0  0  0  0  0  0  0  0
    4.0050  -17.8560  -41.0930 H   0  0  0  0  0  0  0  0  0  0  0  0
    4.9760  -22.7390  -39.2180 H   0  0  0  0  0  0  0  0  0  0  0  0
    3.9980  -21.4970  -38.3560 H   0  0  0  0  0  0  0  0  0  0  0  0
    5.7740  -21.4140  -38.2120 H   0  0  0  0  0  0  0  0  0  0  0  0
  2  3  1  0  0  0  0
  2  1  1  0  0  0  0
  3 31  1  0  0  0  0
  4  8  1  0  0  0  0
  4  3  2  0  0  0  0
  5  4  1  0  0  0  0
  6  5  2  0  0  0  0
  6  7  1  0  0  0  0
  7  2  2  0  0  0  0
  8  9  1  0  0  0  0
  9 13  1  0  0  0  0
  9 10  1  0  0  0  0
 10 28  1  0  0  0  0
 10 11  2  0  0  0  0
 11 24  1  0  0  0  0
 12 11  1  0  0  0  0
 13 12  2  0  0  0  0
 14 13  1  0  0  0  0
 15 14  1  0  0  0  0
 15 38  1  0  0  0  0
 16 39  1  0  0  0  0
 16 15  1  0  0  0  0
 16 17  1  0  0  0  0
 17 20  1  0  0  0  0
 18 17  1  0  0  0  0
 18 41  1  0  0  0  0
 19 18  1  0  0  0  0
 19 14  1  0  0  0  0
 19 43  1  0  0  0  0
 20 21  1  0  0  0  0
 20 45  1  0  0  0  0
 20 46  1  0  0  0  0
 21 22  2  0  0  0  0
 23 21  1  0  0  0  0
 23 48  1  0  0  0  0
 24 25  1  0  0  0  0
 24 30  1  0  0  0  0
 25 26  2  0  0  0  0
 27 49  1  0  0  0  0
 27 25  1  0  0  0  0
 28 27  1  0  0  0  0
 29 28  2  0  0  0  0
 30 51  1  0  0  0  0
 30 52  1  0  0  0  0
 32  5  1  0  0  0  0
 33  6  1  0  0  0  0
 34  7  1  0  0  0  0
 35  8  1  0  0  0  0
 36  8  1  0  0  0  0
 37 15  1  0  0  0  0
 40 16  1  0  0  0  0
 42 18  1  0  0  0  0
 44 19  1  0  0  0  0
 47 23  1  0  0  0  0
 50 30  1  0  0  0  0
M  END
>  <Pose>
1

>  <Score>
-4.50

$$$$
