
 OpenBabel03232221553D

 46 49  0  0  0  0  0  0  0  0999 V2000
    1.2420  -17.6010  -41.1890 Cl  0  0  0  0  0  0  0  0  0  0  0  0
    2.8610  -17.7140  -41.8500 C   0  0  0  0  0  0  0  0  0  0  0  0
    3.8850  -18.3860  -41.2140 C   0  0  0  0  0  0  0  0  0  0  0  0
    5.1580  -18.4770  -41.7290 C   0  0  0  0  0  0  0  0  0  0  0  0
    5.4470  -17.8780  -42.9330 C   0  0  0  0  0  0  0  0  0  0  0  0
    4.4330  -17.1990  -43.5850 C   0  0  0  0  0  0  0  0  0  0  0  0
    3.1610  -17.1150  -43.0580 C   0  0  0  0  0  0  0  0  0  0  0  0
    6.2270  -19.2080  -41.0160 C   0  0  0  0  0  0  0  0  0  0  0  0
    5.7140  -20.2350  -40.1390 N   0  0  0  0  0  0  0  0  0  0  0  0
    5.4860  -21.6210  -40.4340 C   0  0  0  0  0  0  0  0  0  0  0  0
    5.7130  -22.1710  -41.5620 O   0  0  0  0  0  0  0  0  0  0  0  0
    4.9730  -22.2650  -39.2700 N   0  0  0  0  0  0  0  0  0  0  0  0
    4.4220  -21.2090  -38.4510 C   0  0  0  0  0  0  0  0  0  0  0  0
    3.0640  -20.8630  -39.0320 C   0  0  0  0  0  0  0  0  0  0  0  0
    2.6990  -19.4950  -38.4660 C   0  0  0  0  0  0  0  0  0  0  0  0
    2.9090  -19.4790  -37.0310 N   0  0  0  0  0  0  0  0  0  0  0  0
    3.2680  -20.6950  -36.3490 C   0  0  0  0  0  0  0  0  0  0  0  0
    4.3160  -21.5200  -37.0200 C   0  0  0  0  0  0  0  0  0  0  0  0
    2.7550  -18.2670  -36.3090 C   0  0  0  0  0  0  0  0  0  0  0  0
    3.2480  -18.1680  -35.1400 O   0  0  0  0  0  0  0  0  0  0  0  0
    2.0540  -17.1060  -36.8300 C   0  0  0  0  0  0  0  0  0  0  0  0
    1.9640  -16.8430  -38.1490 N   0  0  0  0  0  0  0  0  0  0  0  0
    1.2990  -15.7500  -38.5620 C   0  0  0  0  0  0  0  0  0  0  0  0
    0.6980  -14.8740  -37.6830 C   0  0  0  0  0  0  0  0  0  0  0  0
    0.7860  -15.1320  -36.3700 N   0  0  0  0  0  0  0  0  0  0  0  0
    1.4570  -16.2380  -35.9470 C   0  0  0  0  0  0  0  0  0  0  0  0
    5.3250  -20.0760  -38.7780 C   0  0  0  0  0  0  0  0  0  0  0  0
    5.7170  -19.1220  -38.0530 O   0  0  0  0  0  0  0  0  0  0  0  0
    3.6350  -18.8510  -40.2690 H   0  0  0  0  0  0  0  0  0  0  0  0
    6.4370  -17.9130  -43.3970 H   0  0  0  0  0  0  0  0  0  0  0  0
    4.6720  -16.7250  -44.5410 H   0  0  0  0  0  0  0  0  0  0  0  0
    2.3660  -16.5820  -43.5680 H   0  0  0  0  0  0  0  0  0  0  0  0
    6.9330  -19.5890  -41.7680 H   0  0  0  0  0  0  0  0  0  0  0  0
    6.8200  -18.4970  -40.3730 H   0  0  0  0  0  0  0  0  0  0  0  0
    4.9880  -23.2790  -39.0530 H   0  0  0  0  0  0  0  0  0  0  0  0
    3.2040  -20.7980  -40.1310 H   0  0  0  0  0  0  0  0  0  0  0  0
    2.3120  -21.6280  -38.7570 H   0  0  0  0  0  0  0  0  0  0  0  0
    1.6650  -19.2360  -38.6760 H   0  0  0  0  0  0  0  0  0  0  0  0
    3.3600  -18.7700  -38.9800 H   0  0  0  0  0  0  0  0  0  0  0  0
    2.3200  -21.2510  -36.1790 H   0  0  0  0  0  0  0  0  0  0  0  0
    3.6600  -20.4690  -35.3150 H   0  0  0  0  0  0  0  0  0  0  0  0
    3.9630  -22.5930  -36.9380 H   0  0  0  0  0  0  0  0  0  0  0  0
    5.2820  -21.5260  -36.4710 H   0  0  0  0  0  0  0  0  0  0  0  0
    1.2200  -15.5270  -39.6290 H   0  0  0  0  0  0  0  0  0  0  0  0
    0.1790  -14.0120  -38.0750 H   0  0  0  0  0  0  0  0  0  0  0  0
    1.5060  -16.4130  -34.8610 H   0  0  0  0  0  0  0  0  0  0  0  0
  2  3  1  0  0  0  0
  2  1  1  0  0  0  0
  3 29  1  0  0  0  0
  4  3  2  0  0  0  0
  4  8  1  0  0  0  0
  5  4  1  0  0  0  0
  6  7  1  0  0  0  0
  6  5  2  0  0  0  0
  7  2  2  0  0  0  0
  8 34  1  0  0  0  0
  8  9  1  0  0  0  0
  9 27  1  0  0  0  0
 10  9  1  0  0  0  0
 10 12  1  0  0  0  0
 11 10  2  0  0  0  0
 12 35  1  0  0  0  0
 12 13  1  0  0  0  0
 13 18  1  0  0  0  0
 14 37  1  0  0  0  0
 14 15  1  0  0  0  0
 14 13  1  0  0  0  0
 15 16  1  0  0  0  0
 16 17  1  0  0  0  0
 16 19  1  0  0  0  0
 17 40  1  0  0  0  0
 17 41  1  0  0  0  0
 18 42  1  0  0  0  0
 18 43  1  0  0  0  0
 18 17  1  0  0  0  0
 19 20  2  0  0  0  0
 21 19  1  0  0  0  0
 21 26  1  0  0  0  0
 22 21  2  0  0  0  0
 23 22  1  0  0  0  0
 23 24  2  0  0  0  0
 24 25  1  0  0  0  0
 25 26  2  0  0  0  0
 26 46  1  0  0  0  0
 27 13  1  0  0  0  0
 27 28  2  0  0  0  0
 30  5  1  0  0  0  0
 31  6  1  0  0  0  0
 32  7  1  0  0  0  0
 33  8  1  0  0  0  0
 36 14  1  0  0  0  0
 38 15  1  0  0  0  0
 39 15  1  0  0  0  0
 44 23  1  0  0  0  0
 45 24  1  0  0  0  0
M  END
>  <Pose>
1

>  <Score>
-3.83

$$$$
