
 OpenBabel03232221553D

 50 53  0  0  1  0  0  0  0  0999 V2000
    2.1190  -13.7720  -42.1790 Cl  0  0  0  0  0  0  0  0  0  0  0  0
    1.7270  -14.6180  -40.6940 C   0  0  0  0  0  0  0  0  0  0  0  0
    1.6940  -13.9680  -39.4680 C   0  0  0  0  0  0  0  0  0  0  0  0
    1.3720  -14.7100  -38.3340 C   0  0  0  0  0  0  0  0  0  0  0  0
    1.0920  -16.0500  -38.3980 C   0  0  0  0  0  0  0  0  0  0  0  0
    1.1240  -16.7030  -39.6180 C   0  0  0  0  0  0  0  0  0  0  0  0
    1.4430  -15.9690  -40.7420 C   0  0  0  0  0  0  0  0  0  0  0  0
    0.7410  -16.7780  -37.1810 C   0  0  2  0  0  0  0  0  0  0  0  0
    0.7490  -18.1880  -37.2050 N   0  0  0  0  0  4  0  0  0  0  0  0
   -0.5100  -18.6830  -37.5710 C   0  0  0  0  0  0  0  0  0  0  0  0
   -1.1760  -19.8060  -37.6870 C   0  0  0  0  0  0  0  0  0  0  0  0
   -2.5710  -19.8310  -38.1430 C   0  0  0  0  0  0  0  0  0  0  0  0
   -3.1490  -18.6700  -38.8090 C   0  0  0  0  0  0  0  0  0  0  0  0
   -2.2670  -17.4470  -38.8600 C   0  0  0  0  0  0  0  0  0  0  0  0
   -1.2820  -17.4780  -37.8380 N   0  0  0  0  0  0  0  0  0  0  0  0
   -0.7450  -16.5440  -36.8560 C   0  0  2  0  0  0  0  0  0  0  0  0
   -1.2460  -15.1820  -37.0930 C   0  0  0  0  0  0  0  0  0  0  0  0
    1.9310  -18.8290  -37.5620 C   0  0  0  0  0  0  0  0  0  0  0  0
    3.0300  -18.6290  -36.7430 C   0  0  0  0  0  0  0  0  0  0  0  0
    4.2580  -19.1940  -36.9900 C   0  0  0  0  0  0  0  0  0  0  0  0
    4.4800  -20.0190  -38.0980 C   0  0  0  0  0  0  0  0  0  0  0  0
    3.3750  -20.1990  -38.8920 C   0  0  0  0  0  0  0  0  0  0  0  0
    2.1510  -19.6300  -38.6380 C   0  0  0  0  0  0  0  0  0  0  0  0
    5.7180  -20.5850  -38.3340 O   0  0  0  0  0  0  0  0  0  0  0  0
    5.8260  -21.6720  -39.2190 C   0  0  0  0  0  0  0  0  0  0  0  0
    1.4300  -16.3220  -36.0800 O   0  0  0  0  0  0  0  0  0  0  0  0
    1.9120  -12.9160  -39.4130 H   0  0  0  0  0  0  0  0  0  0  0  0
    1.3680  -14.1090  -37.4280 H   0  0  0  0  0  0  0  0  0  0  0  0
    0.8890  -17.7540  -39.6370 H   0  0  0  0  0  0  0  0  0  0  0  0
    1.4560  -16.5280  -41.6670 H   0  0  0  0  0  0  0  0  0  0  0  0
    0.7300  -18.4240  -36.1120 H   0  0  0  0  0  0  0  0  0  0  0  0
   -0.7010  -20.7720  -37.4120 H   0  0  0  0  0  0  0  0  0  0  0  0
   -3.2010  -20.1400  -37.2620 H   0  0  0  0  0  0  0  0  0  0  0  0
   -2.6330  -20.7310  -38.8380 H   0  0  0  0  0  0  0  0  0  0  0  0
   -4.1490  -18.4160  -38.3280 H   0  0  0  0  0  0  0  0  0  0  0  0
   -3.4170  -18.9200  -39.8650 H   0  0  0  0  0  0  0  0  0  0  0  0
   -2.9180  -16.5670  -38.7080 H   0  0  0  0  0  0  0  0  0  0  0  0
   -1.8320  -17.3100  -39.8700 H   0  0  0  0  0  0  0  0  0  0  0  0
   -0.9830  -16.8820  -35.8560 H   0  0  0  0  0  0  0  0  0  0  0  0
   -0.7650  -14.4590  -36.4110 H   0  0  0  0  0  0  0  0  0  0  0  0
   -1.3640  -14.8580  -38.1320 H   0  0  0  0  0  0  0  0  0  0  0  0
   -2.3090  -15.2080  -36.6940 H   0  0  0  0  0  0  0  0  0  0  0  0
    2.9840  -18.0130  -35.8260 H   0  0  0  0  0  0  0  0  0  0  0  0
    5.1250  -19.0330  -36.3460 H   0  0  0  0  0  0  0  0  0  0  0  0
    3.5120  -20.8420  -39.7760 H   0  0  0  0  0  0  0  0  0  0  0  0
    1.3890  -19.8530  -39.3380 H   0  0  0  0  0  0  0  0  0  0  0  0
    5.8750  -21.3360  -40.2910 H   0  0  0  0  0  0  0  0  0  0  0  0
    5.0120  -22.4040  -39.1600 H   0  0  0  0  0  0  0  0  0  0  0  0
    6.7900  -22.2350  -39.0630 H   0  0  0  0  0  0  0  0  0  0  0  0
    2.3970  -16.4480  -36.0810 H   0  0  0  0  0  0  0  0  0  0  0  0
  1  2  1  0  0  0  0
  2  3  1  0  0  0  0
  3 27  1  0  0  0  0
  3  4  2  0  0  0  0
  4 28  1  0  0  0  0
  5  4  1  0  0  0  0
  5  8  1  0  0  0  0
  6  5  2  0  0  0  0
  7  2  2  0  0  0  0
  7  6  1  0  0  0  0
  8 16  1  0  0  0  0
  8 26  1  1  0  0  0
  9  8  1  0  0  0  0
  9 31  1  0  0  0  0
 10  9  1  0  0  0  0
 11 10  2  0  0  0  0
 11 32  1  0  0  0  0
 12 11  1  0  0  0  0
 12 33  1  0  0  0  0
 13 35  1  0  0  0  0
 13 12  1  0  0  0  0
 14 13  1  0  0  0  0
 14 37  1  0  0  0  0
 14 15  1  0  0  0  0
 15 10  1  0  0  0  0
 15 16  1  0  0  0  0
 16 39  1  1  0  0  0
 17 16  1  0  0  0  0
 17 42  1  0  0  0  0
 17 40  1  0  0  0  0
 18  9  1  0  0  0  0
 18 19  1  0  0  0  0
 19 43  1  0  0  0  0
 20 19  2  0  0  0  0
 20 44  1  0  0  0  0
 21 20  1  0  0  0  0
 22 23  1  0  0  0  0
 22 21  2  0  0  0  0
 23 18  2  0  0  0  0
 24 21  1  0  0  0  0
 25 48  1  0  0  0  0
 25 49  1  0  0  0  0
 25 24  1  0  0  0  0
 29  6  1  0  0  0  0
 30  7  1  0  0  0  0
 34 12  1  0  0  0  0
 36 13  1  0  0  0  0
 38 14  1  0  0  0  0
 41 17  1  0  0  0  0
 45 22  1  0  0  0  0
 46 23  1  0  0  0  0
 47 25  1  0  0  0  0
 50 26  1  0  0  0  0
M  END
>  <Pose>
1

>  <Score>
-3.39

$$$$
