
 OpenBabel03232221553D

 41 44  0  0  0  0  0  0  0  0999 V2000
   -3.1590  -18.8220  -37.2350 Cl  0  0  0  0  0  0  0  0  0  0  0  0
   -1.4070  -18.9000  -37.4510 C   0  0  0  0  0  0  0  0  0  0  0  0
   -0.6070  -17.8170  -37.1540 C   0  0  0  0  0  0  0  0  0  0  0  0
    0.7570  -17.9380  -37.3440 C   0  0  0  0  0  0  0  0  0  0  0  0
    1.3460  -19.0920  -37.8160 C   0  0  0  0  0  0  0  0  0  0  0  0
    0.5130  -20.1550  -38.1020 C   0  0  0  0  0  0  0  0  0  0  0  0
   -0.8660  -20.0780  -37.9260 C   0  0  0  0  0  0  0  0  0  0  0  0
    2.7410  -19.1910  -38.0000 N   0  0  0  0  0  0  0  0  0  0  0  0
    3.3880  -19.5860  -39.1220 C   0  0  0  0  0  0  0  0  0  0  0  0
    2.8060  -19.9300  -40.1840 O   0  0  0  0  0  0  0  0  0  0  0  0
    4.7600  -19.5600  -38.9390 C   0  0  0  0  0  0  0  0  0  0  0  0
    4.9540  -19.1470  -37.6970 C   0  0  0  0  0  0  0  0  0  0  0  0
    6.2920  -19.1230  -37.5220 N   0  0  0  0  0  0  0  0  0  0  0  0
    6.8840  -19.5220  -38.6560 N   0  0  0  0  0  0  0  0  0  0  0  0
    5.9400  -19.7950  -39.5410 N   0  0  0  0  0  0  0  0  0  0  0  0
    6.1310  -20.2570  -40.9000 C   0  0  0  0  0  0  0  0  0  0  0  0
    5.9150  -19.1920  -41.9110 C   0  0  0  0  0  0  0  0  0  0  0  0
    6.8840  -18.3020  -42.3160 C   0  0  0  0  0  0  0  0  0  0  0  0
    6.6790  -17.3140  -43.2580 C   0  0  0  0  0  0  0  0  0  0  0  0
    5.4380  -17.1980  -43.8350 C   0  0  0  0  0  0  0  0  0  0  0  0
    4.4390  -18.0670  -43.4600 C   0  0  0  0  0  0  0  0  0  0  0  0
    4.6720  -19.0490  -42.5120 C   0  0  0  0  0  0  0  0  0  0  0  0
    7.7360  -16.4600  -43.5970 O   0  0  0  0  0  0  0  0  0  0  0  0
    8.5890  -16.7380  -44.6890 C   0  0  0  0  0  0  0  0  0  0  0  0
    3.7210  -18.9200  -37.1210 C   0  0  0  0  0  0  0  0  0  0  0  0
    3.5690  -18.5190  -35.9460 O   0  0  0  0  0  0  0  0  0  0  0  0
   -1.0720  -16.9160  -36.7860 H   0  0  0  0  0  0  0  0  0  0  0  0
    1.3960  -17.1020  -37.1170 H   0  0  0  0  0  0  0  0  0  0  0  0
    0.9950  -21.0530  -38.4710 H   0  0  0  0  0  0  0  0  0  0  0  0
   -1.4810  -20.9480  -38.1680 H   0  0  0  0  0  0  0  0  0  0  0  0
    6.7750  -18.8410  -36.6480 H   0  0  0  0  0  0  0  0  0  0  0  0
    7.9030  -19.6150  -38.8530 H   0  0  0  0  0  0  0  0  0  0  0  0
    7.1500  -20.6720  -41.0220 H   0  0  0  0  0  0  0  0  0  0  0  0
    5.3510  -21.0520  -41.0860 H   0  0  0  0  0  0  0  0  0  0  0  0
    7.8890  -18.3760  -41.8650 H   0  0  0  0  0  0  0  0  0  0  0  0
    5.2470  -16.4200  -44.5870 H   0  0  0  0  0  0  0  0  0  0  0  0
    3.4640  -17.9720  -43.9170 H   0  0  0  0  0  0  0  0  0  0  0  0
    3.8830  -19.7270  -42.2240 H   0  0  0  0  0  0  0  0  0  0  0  0
    9.3110  -17.5550  -44.4560 H   0  0  0  0  0  0  0  0  0  0  0  0
    9.1860  -15.8430  -44.9280 H   0  0  0  0  0  0  0  0  0  0  0  0
    7.9860  -17.0860  -45.5640 H   0  0  0  0  0  0  0  0  0  0  0  0
  2  1  1  0  0  0  0
  2  3  1  0  0  0  0
  3 27  1  0  0  0  0
  4  3  2  0  0  0  0
  4 28  1  0  0  0  0
  5  4  1  0  0  0  0
  6  7  1  0  0  0  0
  6  5  2  0  0  0  0
  7  2  2  0  0  0  0
  8  5  1  0  0  0  0
  8 25  1  0  0  0  0
  9 11  1  0  0  0  0
  9  8  1  0  0  0  0
 10  9  2  0  0  0  0
 11 12  2  0  0  0  0
 12 13  1  0  0  0  0
 12 25  1  0  0  0  0
 13 31  1  0  0  0  0
 14 13  1  0  0  0  0
 15 11  1  0  0  0  0
 15 14  1  0  0  0  0
 16 15  1  0  0  0  0
 17 16  1  0  0  0  0
 18 17  1  0  0  0  0
 18 35  1  0  0  0  0
 19 18  2  0  0  0  0
 20 21  2  0  0  0  0
 20 19  1  0  0  0  0
 21 22  1  0  0  0  0
 22 38  1  0  0  0  0
 22 17  2  0  0  0  0
 23 19  1  0  0  0  0
 24 39  1  0  0  0  0
 24 23  1  0  0  0  0
 25 26  2  0  0  0  0
 29  6  1  0  0  0  0
 30  7  1  0  0  0  0
 32 14  1  0  0  0  0
 33 16  1  0  0  0  0
 34 16  1  0  0  0  0
 36 20  1  0  0  0  0
 37 21  1  0  0  0  0
 40 24  1  0  0  0  0
 41 24  1  0  0  0  0
M  END
>  <Pose>
1

>  <Score>
-5.25

$$$$
