
 OpenBabel03232221553D

 37 40  0  0  0  0  0  0  0  0999 V2000
    1.7860  -24.5670  -44.4750 Cl  0  0  0  0  0  0  0  0  0  0  0  0
    2.5280  -23.5440  -43.2470 C   0  0  0  0  0  0  0  0  0  0  0  0
    3.8130  -23.7760  -42.8070 C   0  0  0  0  0  0  0  0  0  0  0  0
    4.3970  -22.9750  -41.8440 C   0  0  0  0  0  0  0  0  0  0  0  0
    3.7250  -21.9100  -41.2810 C   0  0  0  0  0  0  0  0  0  0  0  0
    2.4370  -21.6850  -41.7290 C   0  0  0  0  0  0  0  0  0  0  0  0
    1.8450  -22.4810  -42.6910 C   0  0  0  0  0  0  0  0  0  0  0  0
    4.3350  -21.0890  -40.2870 N   0  0  0  0  0  0  0  0  0  0  0  0
    3.7770  -20.6240  -39.1470 C   0  0  0  0  0  0  0  0  0  0  0  0
    2.6030  -20.8630  -38.7950 O   0  0  0  0  0  0  0  0  0  0  0  0
    4.6790  -19.8560  -38.4310 C   0  0  0  0  0  0  0  0  0  0  0  0
    5.8100  -19.8530  -39.1510 C   0  0  0  0  0  0  0  0  0  0  0  0
    6.6780  -19.1060  -38.4470 N   0  0  0  0  0  0  0  0  0  0  0  0
    6.0970  -18.6730  -37.3430 N   0  0  0  0  0  0  0  0  0  0  0  0
    4.8620  -19.1270  -37.3170 N   0  0  0  0  0  0  0  0  0  0  0  0
    3.8690  -18.8920  -36.2960 C   0  0  0  0  0  0  0  0  0  0  0  0
    2.7860  -17.9770  -36.7160 C   0  0  0  0  0  0  0  0  0  0  0  0
    2.4050  -17.9350  -38.0340 C   0  0  0  0  0  0  0  0  0  0  0  0
    1.3980  -17.0730  -38.4040 C   0  0  0  0  0  0  0  0  0  0  0  0
    0.7700  -16.2570  -37.4800 C   0  0  0  0  0  0  0  0  0  0  0  0
    1.1520  -16.2980  -36.1580 C   0  0  0  0  0  0  0  0  0  0  0  0
    2.1540  -17.1600  -35.8070 C   0  0  0  0  0  0  0  0  0  0  0  0
    5.5850  -20.6090  -40.2820 C   0  0  0  0  0  0  0  0  0  0  0  0
    6.4400  -20.8200  -41.1850 O   0  0  0  0  0  0  0  0  0  0  0  0
    4.3320  -24.6140  -43.2560 H   0  0  0  0  0  0  0  0  0  0  0  0
    5.4100  -23.1620  -41.5020 H   0  0  0  0  0  0  0  0  0  0  0  0
    1.8950  -20.8620  -41.3040 H   0  0  0  0  0  0  0  0  0  0  0  0
    0.8220  -22.2980  -43.0440 H   0  0  0  0  0  0  0  0  0  0  0  0
    7.6630  -18.8830  -38.7010 H   0  0  0  0  0  0  0  0  0  0  0  0
    6.5420  -18.0620  -36.5960 H   0  0  0  0  0  0  0  0  0  0  0  0
    3.4020  -19.8760  -36.0110 H   0  0  0  0  0  0  0  0  0  0  0  0
    4.3440  -18.5250  -35.3450 H   0  0  0  0  0  0  0  0  0  0  0  0
    2.8830  -18.5700  -38.7950 H   0  0  0  0  0  0  0  0  0  0  0  0
    1.0990  -17.0460  -39.4590 H   0  0  0  0  0  0  0  0  0  0  0  0
   -0.0330  -15.5670  -37.7640 H   0  0  0  0  0  0  0  0  0  0  0  0
    0.6820  -15.6740  -35.4170 H   0  0  0  0  0  0  0  0  0  0  0  0
    2.4360  -17.1670  -34.7460 H   0  0  0  0  0  0  0  0  0  0  0  0
  1  2  1  0  0  0  0
  2  3  2  0  0  0  0
  2  7  1  0  0  0  0
  3  4  1  0  0  0  0
  4 26  1  0  0  0  0
  4  5  2  0  0  0  0
  5  8  1  0  0  0  0
  6 27  1  0  0  0  0
  6  5  1  0  0  0  0
  7  6  2  0  0  0  0
  8 23  1  0  0  0  0
  8  9  1  0  0  0  0
  9 10  2  0  0  0  0
  9 11  1  0  0  0  0
 11 15  1  0  0  0  0
 12 13  1  0  0  0  0
 12 11  2  0  0  0  0
 13 14  1  0  0  0  0
 14 15  1  0  0  0  0
 14 30  1  0  0  0  0
 15 16  1  0  0  0  0
 16 31  1  0  0  0  0
 16 32  1  0  0  0  0
 17 16  1  0  0  0  0
 17 22  1  0  0  0  0
 18 17  2  0  0  0  0
 19 18  1  0  0  0  0
 19 20  2  0  0  0  0
 20 21  1  0  0  0  0
 21 22  2  0  0  0  0
 21 36  1  0  0  0  0
 22 37  1  0  0  0  0
 23 12  1  0  0  0  0
 24 23  2  0  0  0  0
 25  3  1  0  0  0  0
 28  7  1  0  0  0  0
 29 13  1  0  0  0  0
 33 18  1  0  0  0  0
 34 19  1  0  0  0  0
 35 20  1  0  0  0  0
M  END
>  <Pose>
1

>  <Score>
-5.07

$$$$
