
 OpenBabel03232221553D

 56 59  0  0  1  0  0  0  0  0999 V2000
   10.9810  -26.3520  -42.5060 S   0  0  0  0  0  0  0  0  0  0  0  0
   11.9360  -25.4330  -41.8540 O   0  0  0  0  0  0  0  0  0  0  0  0
   10.4060  -27.2750  -41.4570 O   0  0  0  0  0  0  0  0  0  0  0  0
    9.6810  -25.5780  -43.2980 N   0  0  0  0  0  0  0  0  0  0  0  0
    8.9530  -24.6730  -42.4970 C   0  0  0  0  0  0  0  0  0  0  0  0
    7.9940  -23.9040  -43.4290 C   0  0  0  0  0  0  0  0  0  0  0  0
    7.0370  -24.9070  -43.8220 N   0  0  0  0  0  0  0  0  0  0  0  0
    7.6460  -25.9620  -44.6610 C   0  0  0  0  0  0  0  0  0  0  0  0
    9.0030  -26.3580  -44.2450 C   0  0  0  0  0  0  0  0  0  0  0  0
    5.6790  -25.0010  -43.5240 C   0  0  0  0  0  0  0  0  0  0  0  0
    5.3530  -26.1540  -42.9710 O   0  0  0  0  0  0  0  0  0  0  0  0
    4.5450  -24.1280  -43.6780 C   0  0  0  0  0  0  0  0  0  0  0  0
    4.2980  -23.1450  -42.6670 N   0  0  0  0  0  0  0  0  0  0  0  0
    3.1890  -23.1370  -41.7670 C   0  0  0  0  0  0  0  0  0  0  0  0
    2.2630  -24.0170  -41.7790 O   0  0  0  0  0  0  0  0  0  0  0  0
    3.3220  -22.0200  -40.9140 N   0  0  0  0  0  0  0  0  0  0  0  0
    4.6950  -21.5480  -40.9960 C   0  0  1  0  0  0  0  0  0  0  0  0
    4.8370  -20.0670  -40.9290 C   0  0  1  0  0  0  0  0  0  0  0  0
    6.1600  -19.7620  -40.2190 C   0  0  0  0  0  0  0  0  0  0  0  0
    5.9310  -20.0810  -38.7540 C   0  0  0  0  0  0  0  0  0  0  0  0
    5.2860  -21.4400  -38.6380 C   0  0  0  0  0  0  0  0  0  0  0  0
    5.4690  -22.2580  -39.9080 C   0  0  0  0  0  0  0  0  0  0  0  0
    4.9210  -19.3930  -42.2790 C   0  0  0  0  0  0  0  0  0  0  0  0
    5.1130  -22.0140  -42.3520 C   0  0  0  0  0  0  0  0  0  0  0  0
    6.0010  -21.5180  -43.0720 O   0  0  0  0  0  0  0  0  0  0  0  0
   11.8220  -27.3370  -43.7150 C   0  0  0  0  0  0  0  0  0  0  0  0
   13.2030  -26.9800  -44.6450 S   0  0  0  0  0  0  0  0  0  0  0  0
   13.3260  -28.4330  -45.5230 C   0  0  0  0  0  0  0  0  0  0  0  0
   12.2680  -29.1700  -45.0580 C   0  0  0  0  0  0  0  0  0  0  0  0
   11.4920  -28.5970  -44.1210 C   0  0  0  0  0  0  0  0  0  0  0  0
   14.5280  -28.8840  -46.7420 Cl  0  0  0  0  0  0  0  0  0  0  0  0
    8.3640  -25.1820  -41.7040 H   0  0  0  0  0  0  0  0  0  0  0  0
    9.6410  -23.9810  -41.9880 H   0  0  0  0  0  0  0  0  0  0  0  0
    7.6320  -23.0050  -42.9750 H   0  0  0  0  0  0  0  0  0  0  0  0
    8.6590  -23.6890  -44.3300 H   0  0  0  0  0  0  0  0  0  0  0  0
    7.6790  -25.5230  -45.6860 H   0  0  0  0  0  0  0  0  0  0  0  0
    6.9640  -26.8330  -44.7320 H   0  0  0  0  0  0  0  0  0  0  0  0
    8.9530  -27.4190  -43.8540 H   0  0  0  0  0  0  0  0  0  0  0  0
    9.6660  -26.4580  -45.1550 H   0  0  0  0  0  0  0  0  0  0  0  0
    4.5520  -23.6050  -44.7020 H   0  0  0  0  0  0  0  0  0  0  0  0
    3.5760  -24.7320  -43.7850 H   0  0  0  0  0  0  0  0  0  0  0  0
    2.5900  -21.5950  -40.3250 H   0  0  0  0  0  0  0  0  0  0  0  0
    4.0100  -19.6130  -40.3370 H   0  0  0  0  0  0  0  0  0  0  0  0
    6.9100  -20.4510  -40.6230 H   0  0  0  0  0  0  0  0  0  0  0  0
    6.4620  -18.7070  -40.3590 H   0  0  0  0  0  0  0  0  0  0  0  0
    5.2540  -19.2720  -38.3610 H   0  0  0  0  0  0  0  0  0  0  0  0
    6.8580  -20.0580  -38.1650 H   0  0  0  0  0  0  0  0  0  0  0  0
    4.1990  -21.2930  -38.4630 H   0  0  0  0  0  0  0  0  0  0  0  0
    5.6860  -21.9830  -37.7470 H   0  0  0  0  0  0  0  0  0  0  0  0
    4.9700  -23.2460  -39.6930 H   0  0  0  0  0  0  0  0  0  0  0  0
    6.5300  -22.3960  -40.1390 H   0  0  0  0  0  0  0  0  0  0  0  0
    4.3370  -19.8830  -43.0640 H   0  0  0  0  0  0  0  0  0  0  0  0
    4.5250  -18.3420  -42.1610 H   0  0  0  0  0  0  0  0  0  0  0  0
    5.9900  -19.2330  -42.6030 H   0  0  0  0  0  0  0  0  0  0  0  0
   12.1070  -30.1940  -45.4750 H   0  0  0  0  0  0  0  0  0  0  0  0
   10.6130  -29.1140  -43.6840 H   0  0  0  0  0  0  0  0  0  0  0  0
  1  2  2  0  0  0  0
  1  3  2  0  0  0  0
  4  1  1  0  0  0  0
  4  5  1  0  0  0  0
  5 33  1  0  0  0  0
  5 32  1  0  0  0  0
  6 34  1  0  0  0  0
  6  5  1  0  0  0  0
  7 10  1  0  0  0  0
  7  6  1  0  0  0  0
  8  9  1  0  0  0  0
  8  7  1  0  0  0  0
  9 38  1  0  0  0  0
  9  4  1  0  0  0  0
 10 11  2  0  0  0  0
 12 10  1  0  0  0  0
 12 13  1  0  0  0  0
 13 24  1  0  0  0  0
 13 14  1  0  0  0  0
 14 16  1  0  0  0  0
 15 14  2  0  0  0  0
 16 42  1  0  0  0  0
 17 24  1  6  0  0  0
 17 18  1  0  0  0  0
 17 16  1  0  0  0  0
 17 22  1  0  0  0  0
 18 43  1  1  0  0  0
 18 19  1  0  0  0  0
 19 20  1  0  0  0  0
 20 21  1  0  0  0  0
 20 46  1  0  0  0  0
 20 47  1  0  0  0  0
 21 48  1  0  0  0  0
 21 49  1  0  0  0  0
 22 50  1  0  0  0  0
 22 21  1  0  0  0  0
 23 53  1  0  0  0  0
 23 18  1  0  0  0  0
 25 24  2  0  0  0  0
 26  1  1  0  0  0  0
 27 26  1  0  0  0  0
 28 29  2  0  0  0  0
 28 27  1  0  0  0  0
 29 30  1  0  0  0  0
 30 26  2  0  0  0  0
 30 56  1  0  0  0  0
 31 28  1  0  0  0  0
 35  6  1  0  0  0  0
 36  8  1  0  0  0  0
 37  8  1  0  0  0  0
 39  9  1  0  0  0  0
 40 12  1  0  0  0  0
 41 12  1  0  0  0  0
 44 19  1  0  0  0  0
 45 19  1  0  0  0  0
 51 22  1  0  0  0  0
 52 23  1  0  0  0  0
 54 23  1  0  0  0  0
 55 29  1  0  0  0  0
M  END
>  <Pose>
1

>  <Score>
-5.35

$$$$
