
 OpenBabel03232221553D

 55 58  0  0  1  0  0  0  0  0999 V2000
    1.5720  -16.9350  -36.1020 Cl  0  0  0  0  0  0  0  0  0  0  0  0
    2.1740  -18.0430  -37.3630 C   0  0  0  0  0  0  0  0  0  0  0  0
    1.7140  -17.9600  -38.6550 C   0  0  0  0  0  0  0  0  0  0  0  0
    2.1920  -18.8240  -39.6410 C   0  0  0  0  0  0  0  0  0  0  0  0
    3.1540  -19.8050  -39.3670 C   0  0  0  0  0  0  0  0  0  0  0  0
    3.5900  -19.8570  -38.0650 C   0  0  0  0  0  0  0  0  0  0  0  0
    3.1250  -19.0090  -37.0780 C   0  0  0  0  0  0  0  0  0  0  0  0
    3.6090  -20.6250  -40.4760 C   0  0  2  0  0  0  0  0  0  0  0  0
    4.5380  -21.7280  -39.9760 C   0  0  0  0  0  0  0  0  0  0  0  0
    4.6650  -22.6590  -41.1640 C   0  0  0  0  0  0  0  0  0  0  0  0
    5.3850  -22.0250  -42.2120 N   0  0  0  0  0  0  0  0  0  0  0  0
    4.8160  -20.7440  -42.7060 C   0  0  0  0  0  0  0  0  0  0  0  0
    4.1870  -19.9120  -41.6410 C   0  0  0  0  0  0  0  0  0  0  0  0
    6.5610  -22.4800  -42.7950 C   0  0  0  0  0  0  0  0  0  0  0  0
    6.6860  -22.2590  -44.0780 O   0  0  0  0  0  0  0  0  0  0  0  0
    7.7150  -23.1910  -42.2250 C   0  0  0  0  0  0  0  0  0  0  0  0
    8.5790  -23.8480  -43.1040 N   0  0  0  0  0  0  0  0  0  0  0  0
    9.2470  -25.0810  -42.8310 C   0  0  0  0  0  0  0  0  0  0  0  0
    9.4050  -25.3400  -41.6090 O   0  0  0  0  0  0  0  0  0  0  0  0
    9.6880  -25.9410  -43.8950 C   0  0  0  0  0  0  0  0  0  0  0  0
   10.4230  -27.0040  -43.8800 C   0  0  0  0  0  0  0  0  0  0  0  0
   10.9860  -27.5520  -42.6870 N   0  0  0  0  0  0  0  0  0  0  0  0
   11.7670  -28.7270  -42.6970 N   0  0  0  0  0  0  0  0  0  0  0  0
   12.0260  -29.4160  -43.8990 C   0  0  0  0  0  0  0  0  0  0  0  0
   12.7290  -30.4680  -43.8630 O   0  0  0  0  0  0  0  0  0  0  0  0
   11.4730  -28.8950  -45.1340 C   0  0  0  0  0  0  0  0  0  0  0  0
   10.7110  -27.7490  -45.1320 C   0  0  0  0  0  0  0  0  0  0  0  0
   10.2030  -27.3380  -46.3310 C   0  0  0  0  0  0  0  0  0  0  0  0
   10.4270  -28.0270  -47.5280 C   0  0  0  0  0  0  0  0  0  0  0  0
   11.1920  -29.1600  -47.4770 C   0  0  0  0  0  0  0  0  0  0  0  0
   11.7320  -29.6200  -46.2790 C   0  0  0  0  0  0  0  0  0  0  0  0
    2.4740  -21.3500  -40.9600 O   0  0  0  0  0  0  0  0  0  0  0  0
    0.9670  -17.2000  -38.8820 H   0  0  0  0  0  0  0  0  0  0  0  0
    1.7900  -18.7080  -40.6280 H   0  0  0  0  0  0  0  0  0  0  0  0
    4.3370  -20.6110  -37.8420 H   0  0  0  0  0  0  0  0  0  0  0  0
    3.5020  -19.0830  -36.0550 H   0  0  0  0  0  0  0  0  0  0  0  0
    5.4900  -21.3480  -39.6150 H   0  0  0  0  0  0  0  0  0  0  0  0
    4.0470  -22.2440  -39.1470 H   0  0  0  0  0  0  0  0  0  0  0  0
    3.5760  -22.7020  -41.5780 H   0  0  0  0  0  0  0  0  0  0  0  0
    4.8780  -23.6590  -40.8630 H   0  0  0  0  0  0  0  0  0  0  0  0
    5.5890  -20.1810  -43.2910 H   0  0  0  0  0  0  0  0  0  0  0  0
    4.0410  -21.0430  -43.4430 H   0  0  0  0  0  0  0  0  0  0  0  0
    4.9100  -19.1020  -41.3770 H   0  0  0  0  0  0  0  0  0  0  0  0
    3.3570  -19.3250  -42.1580 H   0  0  0  0  0  0  0  0  0  0  0  0
    8.2520  -22.4040  -41.5900 H   0  0  0  0  0  0  0  0  0  0  0  0
    7.3570  -23.9210  -41.4090 H   0  0  0  0  0  0  0  0  0  0  0  0
    8.7390  -23.4930  -44.0850 H   0  0  0  0  0  0  0  0  0  0  0  0
    9.3210  -25.6140  -44.8990 H   0  0  0  0  0  0  0  0  0  0  0  0
   10.8340  -27.0910  -41.7580 H   0  0  0  0  0  0  0  0  0  0  0  0
   12.1610  -29.1070  -41.8050 H   0  0  0  0  0  0  0  0  0  0  0  0
    9.6060  -26.4680  -46.4090 H   0  0  0  0  0  0  0  0  0  0  0  0
    9.9970  -27.6500  -48.4510 H   0  0  0  0  0  0  0  0  0  0  0  0
   11.3500  -29.6920  -48.4200 H   0  0  0  0  0  0  0  0  0  0  0  0
   12.3280  -30.5230  -46.3020 H   0  0  0  0  0  0  0  0  0  0  0  0
    2.5150  -22.2440  -40.5380 H   0  0  0  0  0  0  0  0  0  0  0  0
  2  7  1  0  0  0  0
  2  1  1  0  0  0  0
  3  2  2  0  0  0  0
  4  5  2  0  0  0  0
  4  3  1  0  0  0  0
  5  6  1  0  0  0  0
  6 35  1  0  0  0  0
  6  7  2  0  0  0  0
  7 36  1  0  0  0  0
  8 32  1  6  0  0  0
  8  9  1  0  0  0  0
  8  5  1  0  0  0  0
  9 37  1  0  0  0  0
  9 38  1  0  0  0  0
 10 40  1  0  0  0  0
 10  9  1  0  0  0  0
 11 10  1  0  0  0  0
 12 11  1  0  0  0  0
 12 13  1  0  0  0  0
 13 43  1  0  0  0  0
 13  8  1  0  0  0  0
 14 16  1  0  0  0  0
 14 11  1  0  0  0  0
 15 14  2  0  0  0  0
 16 45  1  0  0  0  0
 16 46  1  0  0  0  0
 17 18  1  0  0  0  0
 17 16  1  0  0  0  0
 18 19  2  0  0  0  0
 20 21  2  0  0  0  0
 20 18  1  0  0  0  0
 21 22  1  0  0  0  0
 22 49  1  0  0  0  0
 23 22  1  0  0  0  0
 23 50  1  0  0  0  0
 24 25  2  0  0  0  0
 24 23  1  0  0  0  0
 26 27  1  0  0  0  0
 26 24  1  0  0  0  0
 27 21  1  0  0  0  0
 28 27  2  0  0  0  0
 29 30  2  0  0  0  0
 29 28  1  0  0  0  0
 30 31  1  0  0  0  0
 31 26  2  0  0  0  0
 32 55  1  0  0  0  0
 33  3  1  0  0  0  0
 34  4  1  0  0  0  0
 39 10  1  0  0  0  0
 41 12  1  0  0  0  0
 42 12  1  0  0  0  0
 44 13  1  0  0  0  0
 47 17  1  0  0  0  0
 48 20  1  0  0  0  0
 51 28  1  0  0  0  0
 52 29  1  0  0  0  0
 53 30  1  0  0  0  0
 54 31  1  0  0  0  0
M  END
>  <Pose>
1

>  <Score>
-4.95

$$$$
