
 OpenBabel03232221553D

 42 45  0  0  0  0  0  0  0  0999 V2000
   -2.9930  -26.9920  -43.3510 Cl  0  0  0  0  0  0  0  0  0  0  0  0
   -1.4400  -26.4330  -42.7340 C   0  0  0  0  0  0  0  0  0  0  0  0
   -0.4680  -25.8990  -43.5630 C   0  0  0  0  0  0  0  0  0  0  0  0
    0.7590  -25.4520  -43.1220 C   0  0  0  0  0  0  0  0  0  0  0  0
    1.8500  -24.9090  -43.6900 N   0  0  0  0  0  0  0  0  0  0  0  0
    2.7930  -24.6560  -42.7640 C   0  0  0  0  0  0  0  0  0  0  0  0
    2.2680  -25.0560  -41.5950 N   0  0  0  0  0  0  0  0  0  0  0  0
    1.0240  -25.5500  -41.7530 C   0  0  0  0  0  0  0  0  0  0  0  0
    0.0680  -26.0790  -40.9180 C   0  0  0  0  0  0  0  0  0  0  0  0
   -1.1480  -26.5190  -41.3760 C   0  0  0  0  0  0  0  0  0  0  0  0
    4.1510  -24.0530  -42.9960 C   0  0  0  0  0  0  0  0  0  0  0  0
    4.6030  -23.3780  -41.7930 N   0  0  0  0  0  0  0  0  0  0  0  0
    5.4710  -22.2700  -41.8220 C   0  0  0  0  0  0  0  0  0  0  0  0
    6.5190  -22.3740  -42.4830 O   0  0  0  0  0  0  0  0  0  0  0  0
    5.1870  -21.0120  -41.1090 C   0  0  0  0  0  0  0  0  0  0  0  0
    4.8340  -19.8490  -41.9510 C   0  0  0  0  0  0  0  0  0  0  0  0
    3.7110  -20.5070  -41.2510 C   0  0  0  0  0  0  0  0  0  0  0  0
    5.6700  -20.8280  -39.7730 N   0  0  0  0  0  0  0  0  0  0  0  0
    4.8280  -21.2740  -38.7350 C   0  0  0  0  0  0  0  0  0  0  0  0
    4.0520  -20.0680  -38.2180 C   0  0  0  0  0  0  0  0  0  0  0  0
    4.9010  -19.2060  -37.5650 O   0  0  0  0  0  0  0  0  0  0  0  0
    6.1910  -19.1950  -38.0340 C   0  0  0  0  0  0  0  0  0  0  0  0
    6.2880  -19.5980  -39.4910 C   0  0  0  0  0  0  0  0  0  0  0  0
   -0.6800  -25.8260  -44.6360 H   0  0  0  0  0  0  0  0  0  0  0  0
    2.7650  -24.9880  -40.6770 H   0  0  0  0  0  0  0  0  0  0  0  0
    0.2860  -26.1470  -39.8680 H   0  0  0  0  0  0  0  0  0  0  0  0
   -1.9250  -26.9400  -40.7410 H   0  0  0  0  0  0  0  0  0  0  0  0
    4.1440  -23.3580  -43.8280 H   0  0  0  0  0  0  0  0  0  0  0  0
    4.8440  -24.8930  -43.1740 H   0  0  0  0  0  0  0  0  0  0  0  0
    4.2690  -23.7360  -40.8680 H   0  0  0  0  0  0  0  0  0  0  0  0
    4.8220  -19.9170  -43.0570 H   0  0  0  0  0  0  0  0  0  0  0  0
    5.0920  -18.8100  -41.6410 H   0  0  0  0  0  0  0  0  0  0  0  0
    3.0280  -21.2060  -41.7880 H   0  0  0  0  0  0  0  0  0  0  0  0
    3.2530  -19.9900  -40.4190 H   0  0  0  0  0  0  0  0  0  0  0  0
    4.1870  -22.1320  -38.9250 H   0  0  0  0  0  0  0  0  0  0  0  0
    5.4860  -21.5810  -37.8670 H   0  0  0  0  0  0  0  0  0  0  0  0
    3.5800  -19.5550  -39.0760 H   0  0  0  0  0  0  0  0  0  0  0  0
    3.2610  -20.4660  -37.5230 H   0  0  0  0  0  0  0  0  0  0  0  0
    6.5400  -18.1200  -37.9880 H   0  0  0  0  0  0  0  0  0  0  0  0
    6.9070  -19.7540  -37.3950 H   0  0  0  0  0  0  0  0  0  0  0  0
    5.9370  -18.7270  -40.0770 H   0  0  0  0  0  0  0  0  0  0  0  0
    7.3920  -19.6690  -39.7090 H   0  0  0  0  0  0  0  0  0  0  0  0
  1  2  1  0  0  0  0
  2 10  1  0  0  0  0
  3  4  1  0  0  0  0
  3  2  2  0  0  0  0
  4  8  2  0  0  0  0
  5  4  1  0  0  0  0
  5  6  2  0  0  0  0
  6  7  1  0  0  0  0
  7 25  1  0  0  0  0
  8  7  1  0  0  0  0
  8  9  1  0  0  0  0
  9 26  1  0  0  0  0
 10  9  2  0  0  0  0
 10 27  1  0  0  0  0
 11  6  1  0  0  0  0
 11 12  1  0  0  0  0
 12 30  1  0  0  0  0
 13 12  1  0  0  0  0
 13 15  1  0  0  0  0
 14 13  2  0  0  0  0
 15 18  1  0  0  0  0
 16 32  1  0  0  0  0
 16 17  1  0  0  0  0
 16 15  1  0  0  0  0
 17 15  1  0  0  0  0
 17 34  1  0  0  0  0
 18 23  1  0  0  0  0
 18 19  1  0  0  0  0
 19 20  1  0  0  0  0
 19 36  1  0  0  0  0
 20 21  1  0  0  0  0
 20 38  1  0  0  0  0
 22 39  1  0  0  0  0
 22 21  1  0  0  0  0
 22 40  1  0  0  0  0
 23 22  1  0  0  0  0
 24  3  1  0  0  0  0
 28 11  1  0  0  0  0
 29 11  1  0  0  0  0
 31 16  1  0  0  0  0
 33 17  1  0  0  0  0
 35 19  1  0  0  0  0
 37 20  1  0  0  0  0
 41 23  1  0  0  0  0
 42 23  1  0  0  0  0
M  END
>  <Pose>
1

>  <Score>
-3.71

$$$$
