
 OpenBabel03232221553D

 34 37  0  0  1  0  0  0  0  0999 V2000
   -3.3680  -18.1520  -36.1020 Cl  0  0  0  0  0  0  0  0  0  0  0  0
   -1.8020  -18.4750  -36.8370 C   0  0  0  0  0  0  0  0  0  0  0  0
   -0.7830  -17.5570  -36.7810 C   0  0  0  0  0  0  0  0  0  0  0  0
    0.4400  -17.8180  -37.3580 C   0  0  0  0  0  0  0  0  0  0  0  0
    0.7060  -19.0030  -38.0180 C   0  0  0  0  0  0  0  0  0  0  0  0
   -0.3280  -19.9120  -38.0630 C   0  0  0  0  0  0  0  0  0  0  0  0
   -1.5570  -19.6710  -37.4930 C   0  0  0  0  0  0  0  0  0  0  0  0
    1.9850  -19.2240  -38.5990 N   0  0  0  0  0  0  0  0  0  0  0  0
    2.3700  -19.0550  -39.9720 C   0  0  0  0  0  0  0  0  0  0  0  0
    1.5190  -19.1280  -40.9240 O   0  0  0  0  0  0  0  0  0  0  0  0
    3.8170  -18.8010  -40.0480 C   0  0  1  0  0  0  0  0  0  0  0  0
    4.3230  -19.3270  -38.7260 C   0  0  2  0  0  0  0  0  0  0  0  0
    5.2540  -20.4920  -38.9850 C   0  0  2  0  0  0  0  0  0  0  0  0
    6.4840  -19.8850  -39.6760 C   0  0  0  0  0  0  0  0  0  0  0  0
    5.9780  -19.3530  -40.9860 C   0  0  0  0  0  0  0  0  0  0  0  0
    6.7400  -18.8880  -41.7900 O   0  0  0  0  0  0  0  0  0  0  0  0
    4.4930  -19.4410  -41.2110 C   0  0  1  0  0  0  0  0  0  0  0  0
    4.1760  -20.9400  -41.2560 C   0  0  0  0  0  0  0  0  0  0  0  0
    4.6570  -21.4880  -39.9410 C   0  0  0  0  0  0  0  0  0  0  0  0
    4.5540  -22.6600  -39.7050 O   0  0  0  0  0  0  0  0  0  0  0  0
    3.1520  -19.6600  -37.9170 C   0  0  0  0  0  0  0  0  0  0  0  0
    3.1740  -20.2350  -36.8050 O   0  0  0  0  0  0  0  0  0  0  0  0
   -0.9660  -16.6270  -36.2740 H   0  0  0  0  0  0  0  0  0  0  0  0
    1.2590  -17.0890  -37.3170 H   0  0  0  0  0  0  0  0  0  0  0  0
   -0.1800  -20.8550  -38.5650 H   0  0  0  0  0  0  0  0  0  0  0  0
   -2.3790  -20.3970  -37.5300 H   0  0  0  0  0  0  0  0  0  0  0  0
    3.9880  -17.6920  -40.1350 H   0  0  0  0  0  0  0  0  0  0  0  0
    4.9340  -18.5270  -38.2520 H   0  0  0  0  0  0  0  0  0  0  0  0
    5.5280  -21.0090  -38.0490 H   0  0  0  0  0  0  0  0  0  0  0  0
    6.7430  -18.9760  -39.0680 H   0  0  0  0  0  0  0  0  0  0  0  0
    7.2950  -20.5990  -39.7860 H   0  0  0  0  0  0  0  0  0  0  0  0
    4.2390  -18.9270  -42.1370 H   0  0  0  0  0  0  0  0  0  0  0  0
    4.7800  -21.3450  -42.1110 H   0  0  0  0  0  0  0  0  0  0  0  0
    3.1090  -21.1290  -41.4080 H   0  0  0  0  0  0  0  0  0  0  0  0
  2  3  1  0  0  0  0
  2  1  1  0  0  0  0
  3 23  1  0  0  0  0
  4 24  1  0  0  0  0
  4  3  2  0  0  0  0
  5  4  1  0  0  0  0
  6  5  2  0  0  0  0
  6  7  1  0  0  0  0
  7  2  2  0  0  0  0
  8  5  1  0  0  0  0
  8 21  1  0  0  0  0
  9  8  1  0  0  0  0
 10  9  2  0  0  0  0
 11 27  1  6  0  0  0
 11  9  1  0  0  0  0
 11 12  1  0  0  0  0
 12 28  1  1  0  0  0
 12 21  1  0  0  0  0
 13 12  1  0  0  0  0
 13 29  1  1  0  0  0
 14 30  1  0  0  0  0
 14 13  1  0  0  0  0
 15 14  1  0  0  0  0
 16 15  2  0  0  0  0
 17 32  1  6  0  0  0
 17 15  1  0  0  0  0
 17 11  1  0  0  0  0
 18 17  1  0  0  0  0
 18 19  1  0  0  0  0
 19 20  2  0  0  0  0
 19 13  1  0  0  0  0
 21 22  2  0  0  0  0
 25  6  1  0  0  0  0
 26  7  1  0  0  0  0
 31 14  1  0  0  0  0
 33 18  1  0  0  0  0
 34 18  1  0  0  0  0
M  END
>  <Pose>
1

>  <Score>
-3.40

$$$$
