
 OpenBabel03232221553D

 47 51  0  0  1  0  0  0  0  0999 V2000
   -0.9020  -15.4920  -37.3340 Cl  0  0  0  0  0  0  0  0  0  0  0  0
    0.1800  -16.6040  -38.1530 C   0  0  0  0  0  0  0  0  0  0  0  0
    0.3130  -17.8920  -37.6920 C   0  0  0  0  0  0  0  0  0  0  0  0
    1.1790  -18.7610  -38.3430 C   0  0  0  0  0  0  0  0  0  0  0  0
    1.9210  -18.4050  -39.4360 C   0  0  0  0  0  0  0  0  0  0  0  0
    1.7660  -17.1120  -39.8750 C   0  0  0  0  0  0  0  0  0  0  0  0
    0.9020  -16.2150  -39.2390 C   0  0  0  0  0  0  0  0  0  0  0  0
    2.7960  -19.2780  -40.0910 N   0  0  0  0  0  0  0  0  0  0  0  0
    2.5440  -20.6050  -40.6030 C   0  0  0  0  0  0  0  0  0  0  0  0
    1.4830  -21.2290  -40.5080 O   0  0  0  0  0  0  0  0  0  0  0  0
    3.7520  -21.1130  -41.2660 C   0  0  2  0  0  0  0  0  0  0  0  0
    4.1550  -22.5210  -40.9000 C   0  0  2  0  0  0  0  0  0  0  0  0
    5.0840  -22.4420  -39.7990 N   0  0  0  0  0  0  0  0  0  0  0  0
    5.0000  -21.0860  -39.2940 C   0  0  2  0  0  0  0  0  0  0  0  0
    4.8300  -20.3060  -40.5820 C   0  0  2  0  0  0  0  0  0  0  0  0
    4.1720  -18.9990  -40.4000 C   0  0  0  0  0  0  0  0  0  0  0  0
    4.7500  -17.9150  -40.5090 O   0  0  0  0  0  0  0  0  0  0  0  0
    6.2500  -20.6700  -38.5630 C   0  0  0  0  0  0  0  0  0  0  0  0
    6.1520  -19.3750  -37.8960 C   0  0  0  0  0  0  0  0  0  0  0  0
    5.0770  -19.0030  -37.3890 O   0  0  0  0  0  0  0  0  0  0  0  0
    7.2840  -18.5310  -37.8230 N   0  0  0  0  0  0  0  0  0  0  0  0
    4.8110  -23.0670  -42.1380 C   0  0  0  0  0  0  0  0  0  0  0  0
    3.9850  -24.0240  -42.6560 C   0  0  0  0  0  0  0  0  0  0  0  0
    4.2840  -24.6880  -43.8560 C   0  0  0  0  0  0  0  0  0  0  0  0
    5.4400  -24.3860  -44.5450 C   0  0  0  0  0  0  0  0  0  0  0  0
    6.2710  -23.4290  -44.0250 C   0  0  0  0  0  0  0  0  0  0  0  0
    5.9610  -22.7850  -42.8460 C   0  0  0  0  0  0  0  0  0  0  0  0
    2.8900  -24.2750  -41.7890 N   0  0  0  0  0  0  0  0  0  0  0  0
    3.0500  -23.4280  -40.6610 C   0  0  0  0  0  0  0  0  0  0  0  0
    2.3280  -23.4960  -39.6440 O   0  0  0  0  0  0  0  0  0  0  0  0
   -0.2560  -18.2280  -36.8230 H   0  0  0  0  0  0  0  0  0  0  0  0
    1.2390  -19.7380  -37.9400 H   0  0  0  0  0  0  0  0  0  0  0  0
    2.2910  -16.7220  -40.7160 H   0  0  0  0  0  0  0  0  0  0  0  0
    0.7930  -15.1930  -39.6020 H   0  0  0  0  0  0  0  0  0  0  0  0
    3.7410  -20.9410  -42.3620 H   0  0  0  0  0  0  0  0  0  0  0  0
    4.7830  -23.1400  -39.0780 H   0  0  0  0  0  0  0  0  0  0  0  0
    4.0720  -20.9290  -38.7010 H   0  0  0  0  0  0  0  0  0  0  0  0
    5.7690  -20.2360  -41.1540 H   0  0  0  0  0  0  0  0  0  0  0  0
    7.0600  -20.5990  -39.3490 H   0  0  0  0  0  0  0  0  0  0  0  0
    6.5490  -21.5100  -37.9010 H   0  0  0  0  0  0  0  0  0  0  0  0
    7.7300  -18.2140  -36.9280 H   0  0  0  0  0  0  0  0  0  0  0  0
    7.7740  -18.1500  -38.6840 H   0  0  0  0  0  0  0  0  0  0  0  0
    3.6210  -25.4450  -44.2600 H   0  0  0  0  0  0  0  0  0  0  0  0
    5.6460  -24.9160  -45.4770 H   0  0  0  0  0  0  0  0  0  0  0  0
    7.1770  -23.1810  -44.5430 H   0  0  0  0  0  0  0  0  0  0  0  0
    6.6350  -22.0320  -42.4470 H   0  0  0  0  0  0  0  0  0  0  0  0
    2.0980  -24.9690  -41.9530 H   0  0  0  0  0  0  0  0  0  0  0  0
  2  3  1  0  0  0  0
  2  1  1  0  0  0  0
  3 31  1  0  0  0  0
  4 32  1  0  0  0  0
  4  3  2  0  0  0  0
  5  4  1  0  0  0  0
  6  5  2  0  0  0  0
  6  7  1  0  0  0  0
  7  2  2  0  0  0  0
  8  5  1  0  0  0  0
  9 10  2  0  0  0  0
  9  8  1  0  0  0  0
 11 35  1  6  0  0  0
 11 12  1  0  0  0  0
 11  9  1  0  0  0  0
 11 15  1  0  0  0  0
 12 22  1  6  0  0  0
 12 29  1  0  0  0  0
 12 13  1  0  0  0  0
 13 14  1  0  0  0  0
 13 36  1  0  0  0  0
 14 37  1  1  0  0  0
 14 18  1  0  0  0  0
 15 38  1  6  0  0  0
 15 16  1  0  0  0  0
 15 14  1  0  0  0  0
 16  8  1  0  0  0  0
 17 16  2  0  0  0  0
 18 40  1  0  0  0  0
 18 19  1  0  0  0  0
 19 21  1  0  0  0  0
 19 20  2  0  0  0  0
 21 41  1  0  0  0  0
 23 22  1  0  0  0  0
 23 28  1  0  0  0  0
 24 23  2  0  0  0  0
 25 26  2  0  0  0  0
 25 24  1  0  0  0  0
 26 27  1  0  0  0  0
 27 46  1  0  0  0  0
 27 22  2  0  0  0  0
 28 29  1  0  0  0  0
 29 30  2  0  0  0  0
 33  6  1  0  0  0  0
 34  7  1  0  0  0  0
 39 18  1  0  0  0  0
 42 21  1  0  0  0  0
 43 24  1  0  0  0  0
 44 25  1  0  0  0  0
 45 26  1  0  0  0  0
 47 28  1  0  0  0  0
M  END
>  <Pose>
1

>  <Score>
-4.63

$$$$
