
 OpenBabel03232221553D

 63 66  0  0  1  0  0  0  0  0999 V2000
   12.4850  -29.8150  -44.6710 Cl  0  0  0  0  0  0  0  0  0  0  0  0
   11.5310  -28.4130  -44.2430 C   0  0  0  0  0  0  0  0  0  0  0  0
   11.4670  -27.9150  -42.9630 C   0  0  0  0  0  0  0  0  0  0  0  0
   10.6990  -26.8050  -42.6780 C   0  0  0  0  0  0  0  0  0  0  0  0
    9.9530  -26.1330  -43.6550 C   0  0  0  0  0  0  0  0  0  0  0  0
   10.0380  -26.6520  -44.9260 C   0  0  0  0  0  0  0  0  0  0  0  0
   10.8170  -27.7790  -45.2190 C   0  0  0  0  0  0  0  0  0  0  0  0
    9.2050  -24.9490  -43.2930 C   0  0  0  0  0  0  0  0  0  0  0  0
    7.8960  -24.8470  -43.4510 C   0  0  0  0  0  0  0  0  0  0  0  0
    7.0660  -23.6380  -43.0990 C   0  0  2  0  0  0  0  0  0  0  0  0
    5.7040  -24.0860  -43.1320 N   0  0  0  0  0  0  0  0  0  0  0  0
    5.6120  -25.3710  -43.7300 C   0  0  0  0  0  0  0  0  0  0  0  0
    4.5760  -25.9820  -44.0320 O   0  0  0  0  0  0  0  0  0  0  0  0
    6.9990  -25.8510  -43.9290 C   0  0  0  0  0  0  0  0  0  0  0  0
    7.2980  -26.9590  -44.4330 O   0  0  0  0  0  0  0  0  0  0  0  0
    4.5610  -23.3420  -42.6130 C   0  0  0  0  0  0  0  0  0  0  0  0
    5.0300  -22.0760  -41.9820 C   0  0  0  0  0  0  0  0  0  0  0  0
    4.8260  -22.0920  -40.5240 N   0  0  0  0  0  4  0  0  0  0  0  0
    3.6940  -21.2700  -40.2270 C   0  0  0  0  0  0  0  0  0  0  0  0
    3.6320  -20.8990  -38.7470 C   0  0  0  0  0  0  0  0  0  0  0  0
    4.8440  -20.2470  -38.4570 O   0  0  0  0  0  0  0  0  0  0  0  0
    5.8400  -21.2000  -38.4970 C   0  0  0  0  0  0  0  0  0  0  0  0
    6.0610  -21.6220  -39.9350 C   0  0  0  0  0  0  0  0  0  0  0  0
    7.3810  -22.6000  -44.1180 C   0  0  0  0  0  0  0  0  0  0  0  0
    7.9480  -21.4180  -43.7370 C   0  0  0  0  0  0  0  0  0  0  0  0
    8.2450  -20.4770  -44.6800 C   0  0  0  0  0  0  0  0  0  0  0  0
    7.9880  -20.6830  -46.0180 C   0  0  0  0  0  0  0  0  0  0  0  0
    7.4130  -21.8790  -46.4060 C   0  0  0  0  0  0  0  0  0  0  0  0
    7.1140  -22.8320  -45.4440 C   0  0  0  0  0  0  0  0  0  0  0  0
    8.2930  -19.7180  -46.9730 O   0  0  0  0  0  0  0  0  0  0  0  0
    8.0970  -18.3400  -46.6280 C   0  0  0  0  0  0  0  0  0  0  0  0
    9.4390  -17.7440  -46.2100 C   0  0  0  0  0  0  0  0  0  0  0  0
    9.4330  -17.6610  -44.6900 C   0  0  0  0  0  0  0  0  0  0  0  0
    9.8530  -23.8190  -42.7420 O   0  0  0  0  0  0  0  0  0  0  0  0
   12.0360  -28.4240  -42.2000 H   0  0  0  0  0  0  0  0  0  0  0  0
   10.6600  -26.4260  -41.6640 H   0  0  0  0  0  0  0  0  0  0  0  0
    9.5080  -26.1600  -45.7310 H   0  0  0  0  0  0  0  0  0  0  0  0
   10.8500  -28.1540  -46.2420 H   0  0  0  0  0  0  0  0  0  0  0  0
    7.3630  -23.2740  -42.0930 H   0  0  0  0  0  0  0  0  0  0  0  0
    4.0620  -23.9740  -41.8450 H   0  0  0  0  0  0  0  0  0  0  0  0
    3.8580  -23.1520  -43.4390 H   0  0  0  0  0  0  0  0  0  0  0  0
    4.4800  -21.1970  -42.3580 H   0  0  0  0  0  0  0  0  0  0  0  0
    6.1320  -21.9550  -42.1420 H   0  0  0  0  0  0  0  0  0  0  0  0
    4.6380  -23.0740  -40.1920 H   0  0  0  0  0  0  0  0  0  0  0  0
    2.7780  -21.8800  -40.4550 H   0  0  0  0  0  0  0  0  0  0  0  0
    3.7020  -20.3180  -40.7980 H   0  0  0  0  0  0  0  0  0  0  0  0
    3.5380  -21.8510  -38.1970 H   0  0  0  0  0  0  0  0  0  0  0  0
    2.7990  -20.2110  -38.5990 H   0  0  0  0  0  0  0  0  0  0  0  0
    6.7930  -20.7720  -38.1420 H   0  0  0  0  0  0  0  0  0  0  0  0
    5.5940  -22.1040  -37.9230 H   0  0  0  0  0  0  0  0  0  0  0  0
    6.7720  -22.4750  -39.9440 H   0  0  0  0  0  0  0  0  0  0  0  0
    6.4410  -20.7880  -40.5560 H   0  0  0  0  0  0  0  0  0  0  0  0
    8.1700  -21.2080  -42.6990 H   0  0  0  0  0  0  0  0  0  0  0  0
    8.6960  -19.5330  -44.3930 H   0  0  0  0  0  0  0  0  0  0  0  0
    7.2190  -22.0220  -47.4590 H   0  0  0  0  0  0  0  0  0  0  0  0
    6.6600  -23.7560  -45.8110 H   0  0  0  0  0  0  0  0  0  0  0  0
    7.7340  -17.7810  -47.5040 H   0  0  0  0  0  0  0  0  0  0  0  0
    7.3560  -18.2580  -45.8120 H   0  0  0  0  0  0  0  0  0  0  0  0
   10.2310  -18.4600  -46.5090 H   0  0  0  0  0  0  0  0  0  0  0  0
    9.5870  -16.7500  -46.6740 H   0  0  0  0  0  0  0  0  0  0  0  0
   10.4420  -17.8320  -44.2950 H   0  0  0  0  0  0  0  0  0  0  0  0
    8.7710  -18.4390  -44.2400 H   0  0  0  0  0  0  0  0  0  0  0  0
    9.0820  -16.6470  -44.4120 H   0  0  0  0  0  0  0  0  0  0  0  0
  1  2  1  0  0  0  0
  2  3  1  0  0  0  0
  3  4  2  0  0  0  0
  3 35  1  0  0  0  0
  4 36  1  0  0  0  0
  5  8  1  0  0  0  0
  5  4  1  0  0  0  0
  6  5  2  0  0  0  0
  7  6  1  0  0  0  0
  7  2  2  0  0  0  0
  8 34  1  0  0  0  0
  9  8  2  0  0  0  0
  9 10  1  0  0  0  0
 10 39  1  1  0  0  0
 11 10  1  0  0  0  0
 11 16  1  0  0  0  0
 12 11  1  0  0  0  0
 13 12  2  0  0  0  0
 14 12  1  0  0  0  0
 14  9  1  0  0  0  0
 15 14  2  0  0  0  0
 16 17  1  0  0  0  0
 16 40  1  0  0  0  0
 17 18  1  0  0  0  0
 18 19  1  0  0  0  0
 18 44  1  0  0  0  0
 18 23  1  0  0  0  0
 19 20  1  0  0  0  0
 20 48  1  0  0  0  0
 20 21  1  0  0  0  0
 20 47  1  0  0  0  0
 22 21  1  0  0  0  0
 22 49  1  0  0  0  0
 22 50  1  0  0  0  0
 23 22  1  0  0  0  0
 24 25  1  0  0  0  0
 24 10  1  0  0  0  0
 25 53  1  0  0  0  0
 26 54  1  0  0  0  0
 26 25  2  0  0  0  0
 27 26  1  0  0  0  0
 28 27  2  0  0  0  0
 28 29  1  0  0  0  0
 29 24  2  0  0  0  0
 30 31  1  0  0  0  0
 30 27  1  0  0  0  0
 31 32  1  0  0  0  0
 31 58  1  0  0  0  0
 32 33  1  0  0  0  0
 33 63  1  0  0  0  0
 33 61  1  0  0  0  0
 33 62  1  0  0  0  0
 37  6  1  0  0  0  0
 38  7  1  0  0  0  0
 41 16  1  0  0  0  0
 42 17  1  0  0  0  0
 43 17  1  0  0  0  0
 45 19  1  0  0  0  0
 46 19  1  0  0  0  0
 51 23  1  0  0  0  0
 52 23  1  0  0  0  0
 55 28  1  0  0  0  0
 56 29  1  0  0  0  0
 57 31  1  0  0  0  0
 59 32  1  0  0  0  0
 60 32  1  0  0  0  0
M  END
>  <Pose>
1

>  <Score>
-4.11

$$$$
