
 OpenBabel03232221553D

 57 61  0  0  1  0  0  0  0  0999 V2000
    5.8010  -27.9920  -46.2750 Cl  0  0  0  0  0  0  0  0  0  0  0  0
    5.1180  -26.8180  -45.1620 C   0  0  0  0  0  0  0  0  0  0  0  0
    5.8810  -26.1920  -44.1950 C   0  0  0  0  0  0  0  0  0  0  0  0
    5.3380  -25.2780  -43.3310 C   0  0  0  0  0  0  0  0  0  0  0  0
    3.9880  -24.9340  -43.3880 C   0  0  0  0  0  0  0  0  0  0  0  0
    3.2190  -25.5490  -44.3460 C   0  0  0  0  0  0  0  0  0  0  0  0
    3.7880  -26.4640  -45.2000 C   0  0  0  0  0  0  0  0  0  0  0  0
    3.4280  -23.9200  -42.4510 C   0  0  1  0  0  0  0  0  0  0  0  0
    2.5640  -24.5390  -41.5860 O   0  0  0  0  0  0  0  0  0  0  0  0
    4.4880  -23.0950  -41.7720 C   0  0  2  0  0  0  0  0  0  0  0  0
    3.9100  -22.6720  -40.5030 N   0  0  0  0  0  0  0  0  0  0  0  0
    4.3460  -21.3090  -40.2790 C   0  0  1  0  0  0  0  0  0  0  0  0
    4.4150  -20.7550  -41.6730 C   0  0  2  0  0  0  0  0  0  0  0  0
    4.9020  -21.8860  -42.5220 C   0  0  1  0  0  0  0  0  0  0  0  0
    6.3800  -21.7230  -42.6110 C   0  0  0  0  0  0  0  0  0  0  0  0
    7.2040  -22.5810  -43.0060 O   0  0  0  0  0  0  0  0  0  0  0  0
    6.6700  -20.3840  -42.1530 N   0  0  0  0  0  0  0  0  0  0  0  0
    5.4520  -19.7270  -41.8690 C   0  0  0  0  0  0  0  0  0  0  0  0
    5.2580  -18.4890  -41.7910 O   0  0  0  0  0  0  0  0  0  0  0  0
    7.9830  -19.8300  -42.0030 C   0  0  0  0  0  0  0  0  0  0  0  0
    8.5920  -19.2590  -43.2280 C   0  0  0  0  0  0  0  0  0  0  0  0
    9.9160  -19.8020  -43.6350 C   0  0  0  0  0  0  0  0  0  0  0  0
   10.9880  -19.0730  -43.1370 O   0  0  0  0  0  0  0  0  0  0  0  0
   12.1110  -19.9180  -43.0150 C   0  0  0  0  0  0  0  0  0  0  0  0
    3.3920  -20.5500  -39.4350 C   0  0  0  0  0  0  0  0  0  0  0  0
    4.0750  -20.1840  -38.2990 C   0  0  0  0  0  0  0  0  0  0  0  0
    3.4110  -19.4500  -37.3250 C   0  0  0  0  0  0  0  0  0  0  0  0
    2.0940  -19.1100  -37.5210 C   0  0  0  0  0  0  0  0  0  0  0  0
    1.3980  -19.4730  -38.6620 C   0  0  0  0  0  0  0  0  0  0  0  0
    2.0690  -20.2020  -39.6210 C   0  0  0  0  0  0  0  0  0  0  0  0
    5.4310  -20.6640  -38.3340 N   0  0  0  0  0  0  0  0  0  0  0  0
    5.6030  -21.3650  -39.5530 C   0  0  0  0  0  0  0  0  0  0  0  0
    6.6640  -21.9140  -39.8910 O   0  0  0  0  0  0  0  0  0  0  0  0
    6.9450  -26.4400  -44.1250 H   0  0  0  0  0  0  0  0  0  0  0  0
    5.9540  -24.7830  -42.5630 H   0  0  0  0  0  0  0  0  0  0  0  0
    2.1660  -25.3320  -44.4640 H   0  0  0  0  0  0  0  0  0  0  0  0
    3.1900  -26.9640  -45.9690 H   0  0  0  0  0  0  0  0  0  0  0  0
    2.8390  -23.2030  -43.1350 H   0  0  0  0  0  0  0  0  0  0  0  0
    3.1000  -24.9750  -40.8750 H   0  0  0  0  0  0  0  0  0  0  0  0
    5.3610  -23.7620  -41.5080 H   0  0  0  0  0  0  0  0  0  0  0  0
    4.2020  -23.2990  -39.7450 H   0  0  0  0  0  0  0  0  0  0  0  0
    3.4160  -20.3920  -41.9840 H   0  0  0  0  0  0  0  0  0  0  0  0
    4.5080  -21.8390  -43.5510 H   0  0  0  0  0  0  0  0  0  0  0  0
    8.6460  -20.6070  -41.5760 H   0  0  0  0  0  0  0  0  0  0  0  0
    7.9850  -19.0080  -41.2280 H   0  0  0  0  0  0  0  0  0  0  0  0
    7.8850  -19.4970  -44.0800 H   0  0  0  0  0  0  0  0  0  0  0  0
    8.6140  -18.1370  -43.2310 H   0  0  0  0  0  0  0  0  0  0  0  0
   10.0610  -19.8780  -44.7250 H   0  0  0  0  0  0  0  0  0  0  0  0
    9.9890  -20.8370  -43.2190 H   0  0  0  0  0  0  0  0  0  0  0  0
   11.9060  -20.7590  -42.3280 H   0  0  0  0  0  0  0  0  0  0  0  0
   12.3080  -20.3600  -44.0160 H   0  0  0  0  0  0  0  0  0  0  0  0
   13.0070  -19.3400  -42.7200 H   0  0  0  0  0  0  0  0  0  0  0  0
    3.9530  -19.1550  -36.4150 H   0  0  0  0  0  0  0  0  0  0  0  0
    1.5880  -18.5340  -36.7490 H   0  0  0  0  0  0  0  0  0  0  0  0
    0.3630  -19.1710  -38.7480 H   0  0  0  0  0  0  0  0  0  0  0  0
    1.5240  -20.4960  -40.5310 H   0  0  0  0  0  0  0  0  0  0  0  0
    6.1180  -20.4920  -37.5650 H   0  0  0  0  0  0  0  0  0  0  0  0
  1  2  1  0  0  0  0
  2  3  1  0  0  0  0
  3 34  1  0  0  0  0
  3  4  2  0  0  0  0
  4 35  1  0  0  0  0
  5  4  1  0  0  0  0
  5  8  1  0  0  0  0
  6  5  2  0  0  0  0
  7  2  2  0  0  0  0
  7  6  1  0  0  0  0
  8 38  1  6  0  0  0
  8 10  1  0  0  0  0
  8  9  1  0  0  0  0
  9 39  1  0  0  0  0
 10 40  1  1  0  0  0
 10 11  1  0  0  0  0
 11 12  1  0  0  0  0
 11 41  1  0  0  0  0
 12 32  1  1  0  0  0
 12 25  1  0  0  0  0
 13 42  1  6  0  0  0
 13 12  1  0  0  0  0
 14 43  1  6  0  0  0
 14 10  1  0  0  0  0
 14 13  1  0  0  0  0
 15 14  1  0  0  0  0
 15 17  1  0  0  0  0
 16 15  2  0  0  0  0
 17 20  1  0  0  0  0
 17 18  1  0  0  0  0
 18 19  2  0  0  0  0
 18 13  1  0  0  0  0
 20 44  1  0  0  0  0
 20 45  1  0  0  0  0
 21 20  1  0  0  0  0
 22 21  1  0  0  0  0
 22 49  1  0  0  0  0
 22 23  1  0  0  0  0
 23 24  1  0  0  0  0
 24 52  1  0  0  0  0
 24 50  1  0  0  0  0
 25 26  1  0  0  0  0
 26 27  2  0  0  0  0
 27 53  1  0  0  0  0
 28 27  1  0  0  0  0
 28 54  1  0  0  0  0
 29 28  2  0  0  0  0
 30 25  2  0  0  0  0
 30 29  1  0  0  0  0
 31 26  1  0  0  0  0
 31 57  1  0  0  0  0
 32 31  1  0  0  0  0
 33 32  2  0  0  0  0
 36  6  1  0  0  0  0
 37  7  1  0  0  0  0
 46 21  1  0  0  0  0
 47 21  1  0  0  0  0
 48 22  1  0  0  0  0
 51 24  1  0  0  0  0
 55 29  1  0  0  0  0
 56 30  1  0  0  0  0
M  END
>  <Pose>
1

>  <Score>
-4.89

$$$$
