
 OpenBabel03232221553D

 48 51  0  0  1  0  0  0  0  0999 V2000
   -3.0560  -18.1860  -36.2380 Cl  0  0  0  0  0  0  0  0  0  0  0  0
   -1.4400  -18.3380  -36.8930 C   0  0  0  0  0  0  0  0  0  0  0  0
   -1.0680  -19.4740  -37.6060 C   0  0  0  0  0  0  0  0  0  0  0  0
    0.2080  -19.5810  -38.1170 C   0  0  0  0  0  0  0  0  0  0  0  0
    1.1530  -18.5930  -37.9470 C   0  0  0  0  0  0  0  0  0  0  0  0
    0.7920  -17.4660  -37.2430 C   0  0  0  0  0  0  0  0  0  0  0  0
   -0.4820  -17.3560  -36.7320 C   0  0  0  0  0  0  0  0  0  0  0  0
    2.5220  -18.6770  -38.4810 C   0  0  0  0  0  0  0  0  0  0  0  0
    3.3080  -19.7520  -37.7950 C   0  0  0  0  0  0  0  0  0  0  0  0
    2.8150  -20.2140  -36.7080 O   0  0  0  0  0  0  0  0  0  0  0  0
    4.5190  -20.2250  -38.3180 N   0  0  0  0  0  0  0  0  0  0  0  0
    5.5820  -19.3460  -38.6900 C   0  0  0  0  0  0  0  0  0  0  0  0
    6.4890  -19.8860  -39.7600 C   0  0  0  0  0  0  0  0  0  0  0  0
    5.7710  -20.8950  -40.5760 C   0  0  2  0  0  0  0  0  0  0  0  0
    4.8890  -21.7820  -39.9880 C   0  0  0  0  0  0  0  0  0  0  0  0
    4.2420  -22.7000  -40.7150 N   0  0  0  0  0  0  0  0  0  0  0  0
    4.4020  -22.8190  -42.0500 C   0  0  2  0  0  0  0  0  0  0  0  0
    5.2650  -21.9520  -42.6310 N   0  0  0  0  0  0  0  0  0  0  0  0
    5.9380  -21.0130  -41.9430 C   0  0  0  0  0  0  0  0  0  0  0  0
    6.8160  -20.1400  -42.5700 O   0  0  0  0  0  0  0  0  0  0  0  0
    3.6950  -23.7990  -42.7680 N   0  0  0  0  0  0  0  0  0  0  0  0
    4.1170  -24.1910  -44.0800 C   0  0  0  0  0  0  0  0  0  0  0  0
    3.5440  -25.5970  -44.3130 C   0  0  0  0  0  0  0  0  0  0  0  0
    2.1720  -25.5830  -44.2920 O   0  0  0  0  0  0  0  0  0  0  0  0
    1.5910  -24.9110  -43.2510 C   0  0  0  0  0  0  0  0  0  0  0  0
    2.5380  -24.4180  -42.1920 C   0  0  0  0  0  0  0  0  0  0  0  0
    4.7100  -21.6380  -38.4950 C   0  0  0  0  0  0  0  0  0  0  0  0
   -1.8010  -20.2500  -37.7430 H   0  0  0  0  0  0  0  0  0  0  0  0
    0.5090  -20.4650  -38.6750 H   0  0  0  0  0  0  0  0  0  0  0  0
    1.5020  -16.6410  -37.0740 H   0  0  0  0  0  0  0  0  0  0  0  0
   -0.7790  -16.4590  -36.1670 H   0  0  0  0  0  0  0  0  0  0  0  0
    2.9990  -17.6740  -38.3430 H   0  0  0  0  0  0  0  0  0  0  0  0
    2.4430  -18.8590  -39.5750 H   0  0  0  0  0  0  0  0  0  0  0  0
    5.2380  -18.3100  -38.9050 H   0  0  0  0  0  0  0  0  0  0  0  0
    6.2530  -19.2170  -37.7800 H   0  0  0  0  0  0  0  0  0  0  0  0
    7.4130  -20.3730  -39.3290 H   0  0  0  0  0  0  0  0  0  0  0  0
    6.8940  -19.0800  -40.4170 H   0  0  0  0  0  0  0  0  0  0  0  0
    7.5180  -19.6080  -42.0490 H   0  0  0  0  0  0  0  0  0  0  0  0
    5.2230  -24.3090  -44.1630 H   0  0  0  0  0  0  0  0  0  0  0  0
    3.7770  -23.4970  -44.8860 H   0  0  0  0  0  0  0  0  0  0  0  0
    3.9010  -26.2120  -43.4610 H   0  0  0  0  0  0  0  0  0  0  0  0
    3.9160  -26.0290  -45.2420 H   0  0  0  0  0  0  0  0  0  0  0  0
    0.9890  -24.0510  -43.6190 H   0  0  0  0  0  0  0  0  0  0  0  0
    0.8800  -25.6160  -42.7400 H   0  0  0  0  0  0  0  0  0  0  0  0
    2.8080  -25.2650  -41.5010 H   0  0  0  0  0  0  0  0  0  0  0  0
    1.9820  -23.6560  -41.6010 H   0  0  0  0  0  0  0  0  0  0  0  0
    3.8240  -22.2080  -38.1590 H   0  0  0  0  0  0  0  0  0  0  0  0
    5.6120  -22.0200  -37.9690 H   0  0  0  0  0  0  0  0  0  0  0  0
  2  7  1  0  0  0  0
  2  1  1  0  0  0  0
  3  2  2  0  0  0  0
  4  5  2  0  0  0  0
  4  3  1  0  0  0  0
  5  6  1  0  0  0  0
  6 30  1  0  0  0  0
  6  7  2  0  0  0  0
  7 31  1  0  0  0  0
  8 32  1  0  0  0  0
  8  5  1  0  0  0  0
  8  9  1  0  0  0  0
  9 10  2  0  0  0  0
 11  9  1  0  0  0  0
 12 11  1  0  0  0  0
 12 35  1  0  0  0  0
 13 36  1  0  0  0  0
 13 12  1  0  0  0  0
 14 19  1  1  0  0  0
 14 15  1  0  0  0  0
 14 13  1  0  0  0  0
 15 27  1  0  0  0  0
 16 15  2  0  0  0  0
 17 21  1  6  0  0  0
 17 16  1  0  0  0  0
 18 17  1  0  0  0  0
 18 19  2  0  0  0  0
 20 38  1  0  0  0  0
 20 19  1  0  0  0  0
 21 26  1  0  0  0  0
 22 21  1  0  0  0  0
 23 24  1  0  0  0  0
 23 22  1  0  0  0  0
 23 41  1  0  0  0  0
 24 25  1  0  0  0  0
 25 44  1  0  0  0  0
 25 26  1  0  0  0  0
 26 46  1  0  0  0  0
 26 45  1  0  0  0  0
 27 11  1  0  0  0  0
 27 47  1  0  0  0  0
 27 48  1  0  0  0  0
 28  3  1  0  0  0  0
 29  4  1  0  0  0  0
 33  8  1  0  0  0  0
 34 12  1  0  0  0  0
 37 13  1  0  0  0  0
 39 22  1  0  0  0  0
 40 22  1  0  0  0  0
 42 23  1  0  0  0  0
 43 25  1  0  0  0  0
M  END
>  <Pose>
1

>  <Score>
-4.50

$$$$
