
 OpenBabel03232221553D

 52 55  0  0  0  0  0  0  0  0999 V2000
   11.4680  -27.9640  -43.0520 Cl  0  0  0  0  0  0  0  0  0  0  0  0
   10.5790  -26.5550  -43.5430 C   0  0  0  0  0  0  0  0  0  0  0  0
    9.2460  -26.6550  -43.9430 C   0  0  0  0  0  0  0  0  0  0  0  0
    8.5440  -25.5290  -44.3330 C   0  0  0  0  0  0  0  0  0  0  0  0
    9.1480  -24.2740  -44.3360 C   0  0  0  0  0  0  0  0  0  0  0  0
   10.4540  -24.1710  -43.9440 C   0  0  0  0  0  0  0  0  0  0  0  0
   11.1590  -25.3080  -43.5510 C   0  0  0  0  0  0  0  0  0  0  0  0
    8.3570  -23.0890  -44.7640 C   0  0  0  0  0  0  0  0  0  0  0  0
    7.6130  -22.4980  -43.6360 C   0  0  0  0  0  0  0  0  0  0  0  0
    7.6640  -23.0980  -42.5290 O   0  0  0  0  0  0  0  0  0  0  0  0
    6.8610  -21.3160  -43.7260 N   0  0  0  0  0  0  0  0  0  0  0  0
    5.4070  -21.3560  -43.9580 C   0  0  0  0  0  0  0  0  0  0  0  0
    4.7670  -20.2490  -43.1350 C   0  0  0  0  0  0  0  0  0  0  0  0
    5.6370  -20.0190  -42.0000 N   0  0  0  0  0  0  0  0  0  0  0  0
    6.8880  -19.3430  -42.3010 C   0  0  0  0  0  0  0  0  0  0  0  0
    7.4120  -19.9740  -43.6030 C   0  0  0  0  0  0  0  0  0  0  0  0
    5.2940  -20.4410  -40.6890 C   0  0  0  0  0  0  0  0  0  0  0  0
    5.9910  -21.4720  -40.0880 C   0  0  0  0  0  0  0  0  0  0  0  0
    5.6320  -21.8670  -38.8320 N   0  0  0  0  0  0  0  0  0  0  0  0
    4.6430  -21.3090  -38.1600 N   0  0  0  0  0  0  0  0  0  0  0  0
    3.9110  -20.2840  -38.6940 C   0  0  0  0  0  0  0  0  0  0  0  0
    4.2740  -19.8930  -39.9470 C   0  0  0  0  0  0  0  0  0  0  0  0
    2.8650  -19.7350  -37.9200 N   0  0  0  0  0  0  0  0  0  0  0  0
    1.4800  -19.8730  -38.3320 C   0  0  0  0  0  0  0  0  0  0  0  0
    0.7410  -18.5430  -38.1760 C   0  0  0  0  0  0  0  0  0  0  0  0
    0.9890  -17.9630  -36.9480 O   0  0  0  0  0  0  0  0  0  0  0  0
    2.3440  -17.6780  -36.8750 C   0  0  0  0  0  0  0  0  0  0  0  0
    3.0970  -19.0090  -36.6980 C   0  0  0  0  0  0  0  0  0  0  0  0
    8.7850  -27.6200  -43.9410 H   0  0  0  0  0  0  0  0  0  0  0  0
    7.5040  -25.5710  -44.6520 H   0  0  0  0  0  0  0  0  0  0  0  0
   10.9740  -23.2090  -43.9280 H   0  0  0  0  0  0  0  0  0  0  0  0
   12.1860  -25.1950  -43.2490 H   0  0  0  0  0  0  0  0  0  0  0  0
    7.6180  -23.4750  -45.5250 H   0  0  0  0  0  0  0  0  0  0  0  0
    9.0110  -22.3430  -45.2600 H   0  0  0  0  0  0  0  0  0  0  0  0
    5.0800  -22.3570  -43.6390 H   0  0  0  0  0  0  0  0  0  0  0  0
    5.1860  -21.2540  -45.0400 H   0  0  0  0  0  0  0  0  0  0  0  0
    3.7320  -20.4730  -42.8410 H   0  0  0  0  0  0  0  0  0  0  0  0
    4.7480  -19.3120  -43.7350 H   0  0  0  0  0  0  0  0  0  0  0  0
    7.6450  -19.4130  -41.5200 H   0  0  0  0  0  0  0  0  0  0  0  0
    6.6330  -18.2920  -42.5460 H   0  0  0  0  0  0  0  0  0  0  0  0
    8.4970  -19.9310  -43.6700 H   0  0  0  0  0  0  0  0  0  0  0  0
    7.0100  -19.4040  -44.4730 H   0  0  0  0  0  0  0  0  0  0  0  0
    6.8020  -21.9840  -40.5450 H   0  0  0  0  0  0  0  0  0  0  0  0
    3.7260  -19.0920  -40.4120 H   0  0  0  0  0  0  0  0  0  0  0  0
    1.3790  -20.1770  -39.3940 H   0  0  0  0  0  0  0  0  0  0  0  0
    0.9780  -20.5800  -37.6470 H   0  0  0  0  0  0  0  0  0  0  0  0
   -0.3340  -18.7460  -38.2730 H   0  0  0  0  0  0  0  0  0  0  0  0
    1.0100  -17.8380  -38.9810 H   0  0  0  0  0  0  0  0  0  0  0  0
    2.6020  -16.9690  -36.0850 H   0  0  0  0  0  0  0  0  0  0  0  0
    2.6670  -17.3080  -37.8880 H   0  0  0  0  0  0  0  0  0  0  0  0
    4.1300  -18.8180  -36.4370 H   0  0  0  0  0  0  0  0  0  0  0  0
    2.5570  -19.5630  -35.8810 H   0  0  0  0  0  0  0  0  0  0  0  0
  2  1  1  0  0  0  0
  3 29  1  0  0  0  0
  3  2  2  0  0  0  0
  4  3  1  0  0  0  0
  5  4  2  0  0  0  0
  5  6  1  0  0  0  0
  6 31  1  0  0  0  0
  6  7  2  0  0  0  0
  7  2  1  0  0  0  0
  7 32  1  0  0  0  0
  8  5  1  0  0  0  0
  8  9  1  0  0  0  0
  9 10  2  0  0  0  0
 11  9  1  0  0  0  0
 11 16  1  0  0  0  0
 12 11  1  0  0  0  0
 12 35  1  0  0  0  0
 12 13  1  0  0  0  0
 13 37  1  0  0  0  0
 13 14  1  0  0  0  0
 14 17  1  0  0  0  0
 15 14  1  0  0  0  0
 15 39  1  0  0  0  0
 16 15  1  0  0  0  0
 17 18  2  0  0  0  0
 17 22  1  0  0  0  0
 18 19  1  0  0  0  0
 19 20  2  0  0  0  0
 21 20  1  0  0  0  0
 21 23  1  0  0  0  0
 22 21  2  0  0  0  0
 23 28  1  0  0  0  0
 24 25  1  0  0  0  0
 24 23  1  0  0  0  0
 24 46  1  0  0  0  0
 25 26  1  0  0  0  0
 26 27  1  0  0  0  0
 27 28  1  0  0  0  0
 27 49  1  0  0  0  0
 28 51  1  0  0  0  0
 28 52  1  0  0  0  0
 30  4  1  0  0  0  0
 33  8  1  0  0  0  0
 34  8  1  0  0  0  0
 36 12  1  0  0  0  0
 38 13  1  0  0  0  0
 40 15  1  0  0  0  0
 41 16  1  0  0  0  0
 42 16  1  0  0  0  0
 43 18  1  0  0  0  0
 44 22  1  0  0  0  0
 45 24  1  0  0  0  0
 47 25  1  0  0  0  0
 48 25  1  0  0  0  0
 50 27  1  0  0  0  0
M  END
>  <Pose>
1

>  <Score>
-4.36

$$$$
