
 OpenBabel03232221553D

 37 40  0  0  0  0  0  0  0  0999 V2000
    6.0260  -19.5430  -42.4310 F   0  0  0  0  0  0  0  0  0  0  0  0
    6.6850  -20.6700  -42.7950 C   0  0  0  0  0  0  0  0  0  0  0  0
    7.8280  -20.6320  -43.5460 N   0  0  0  0  0  0  0  0  0  0  0  0
    8.1870  -21.9150  -43.7090 C   0  0  0  0  0  0  0  0  0  0  0  0
    7.3010  -22.7080  -43.0860 N   0  0  0  0  0  0  0  0  0  0  0  0
    6.3430  -21.9650  -42.4990 C   0  0  0  0  0  0  0  0  0  0  0  0
    5.1870  -22.4720  -41.7110 C   0  0  0  0  0  0  0  0  0  0  0  0
    4.4810  -23.2860  -42.4220 O   0  0  0  0  0  0  0  0  0  0  0  0
    4.8990  -22.1340  -40.4120 N   0  0  0  0  0  0  0  0  0  0  0  0
    4.6120  -21.7980  -39.1220 C   0  0  0  0  0  0  0  0  0  0  0  0
    5.5120  -20.7580  -38.5030 C   0  0  0  0  0  0  0  0  0  0  0  0
    5.1250  -19.5640  -38.0470 N   0  0  0  0  0  0  0  0  0  0  0  0
    6.1960  -18.9450  -37.5780 N   0  0  0  0  0  0  0  0  0  0  0  0
    7.2560  -19.7120  -37.7210 N   0  0  0  0  0  0  0  0  0  0  0  0
    6.8230  -20.8340  -38.2950 N   0  0  0  0  0  0  0  0  0  0  0  0
    3.7680  -19.1210  -38.0880 C   0  0  0  0  0  0  0  0  0  0  0  0
    3.2530  -18.4820  -36.9660 C   0  0  0  0  0  0  0  0  0  0  0  0
    1.9350  -18.0430  -36.9340 C   0  0  0  0  0  0  0  0  0  0  0  0
    1.0950  -18.2280  -38.0140 C   0  0  0  0  0  0  0  0  0  0  0  0
    1.6120  -18.8620  -39.1230 C   0  0  0  0  0  0  0  0  0  0  0  0
    2.9240  -19.3010  -39.1580 C   0  0  0  0  0  0  0  0  0  0  0  0
    9.3230  -22.1610  -44.4410 C   0  0  0  0  0  0  0  0  0  0  0  0
   10.0910  -21.1380  -45.0010 C   0  0  0  0  0  0  0  0  0  0  0  0
    9.6930  -19.8420  -44.8120 C   0  0  0  0  0  0  0  0  0  0  0  0
    8.5400  -19.6190  -44.0690 C   0  0  0  0  0  0  0  0  0  0  0  0
   10.6170  -18.5000  -45.4860 Cl  0  0  0  0  0  0  0  0  0  0  0  0
    4.2200  -23.3080  -40.2430 H   0  0  0  0  0  0  0  0  0  0  0  0
    4.7100  -22.6900  -38.4010 H   0  0  0  0  0  0  0  0  0  0  0  0
    3.5470  -21.4640  -38.8910 H   0  0  0  0  0  0  0  0  0  0  0  0
    3.8980  -18.3290  -36.1150 H   0  0  0  0  0  0  0  0  0  0  0  0
    1.5220  -17.5460  -36.0680 H   0  0  0  0  0  0  0  0  0  0  0  0
    0.0500  -17.8850  -37.9900 H   0  0  0  0  0  0  0  0  0  0  0  0
    0.9460  -19.0130  -39.9860 H   0  0  0  0  0  0  0  0  0  0  0  0
    3.2900  -19.7960  -40.0480 H   0  0  0  0  0  0  0  0  0  0  0  0
    9.6770  -23.1680  -44.6160 H   0  0  0  0  0  0  0  0  0  0  0  0
   10.9960  -21.3460  -45.5860 H   0  0  0  0  0  0  0  0  0  0  0  0
    8.2450  -18.5920  -43.9300 H   0  0  0  0  0  0  0  0  0  0  0  0
  2  6  2  0  0  0  0
  2  1  1  0  0  0  0
  3  2  1  0  0  0  0
  4  3  1  0  0  0  0
  4  5  2  0  0  0  0
  5  6  1  0  0  0  0
  6  7  1  0  0  0  0
  7  9  1  0  0  0  0
  8  7  2  0  0  0  0
  9 27  1  0  0  0  0
  9 10  1  0  0  0  0
 10 29  1  0  0  0  0
 10 11  1  0  0  0  0
 10 28  1  0  0  0  0
 11 15  2  0  0  0  0
 11 12  1  0  0  0  0
 12 13  1  0  0  0  0
 14 13  2  0  0  0  0
 15 14  1  0  0  0  0
 16 12  1  0  0  0  0
 16 17  1  0  0  0  0
 17 18  2  0  0  0  0
 17 30  1  0  0  0  0
 18 31  1  0  0  0  0
 19 32  1  0  0  0  0
 19 18  1  0  0  0  0
 20 19  2  0  0  0  0
 21 20  1  0  0  0  0
 21 16  2  0  0  0  0
 22  4  1  0  0  0  0
 23 24  1  0  0  0  0
 23 22  2  0  0  0  0
 24 25  2  0  0  0  0
 25 37  1  0  0  0  0
 25  3  1  0  0  0  0
 26 24  1  0  0  0  0
 33 20  1  0  0  0  0
 34 21  1  0  0  0  0
 35 22  1  0  0  0  0
 36 23  1  0  0  0  0
M  END
>  <Pose>
1

>  <Score>
-5.11

$$$$
