
 OpenBabel03232221553D

 42 45  0  0  0  0  0  0  0  0999 V2000
    0.6920  -13.3320  -36.2950 Cl  0  0  0  0  0  0  0  0  0  0  0  0
    0.4500  -14.9950  -36.7290 C   0  0  0  0  0  0  0  0  0  0  0  0
    1.4780  -15.9160  -36.8850 C   0  0  0  0  0  0  0  0  0  0  0  0
    1.2260  -17.2020  -37.2150 C   0  0  0  0  0  0  0  0  0  0  0  0
   -0.0990  -17.5480  -37.3890 C   0  0  0  0  0  0  0  0  0  0  0  0
   -1.1420  -16.6960  -37.2500 C   0  0  0  0  0  0  0  0  0  0  0  0
   -0.9100  -15.4070  -36.9160 C   0  0  0  0  0  0  0  0  0  0  0  0
    2.2350  -18.2200  -37.4060 N   0  0  0  0  0  0  0  0  0  0  0  0
    2.9560  -18.6550  -36.3940 N   0  0  0  0  0  0  0  0  0  0  0  0
    3.6800  -19.4720  -36.8570 N   0  0  0  0  0  0  0  0  0  0  0  0
    3.8790  -19.9330  -37.9630 C   0  0  0  0  0  0  0  0  0  0  0  0
    2.6590  -18.8730  -38.4550 C   0  0  0  0  0  0  0  0  0  0  0  0
    4.1170  -20.4860  -39.2840 C   0  0  0  0  0  0  0  0  0  0  0  0
    4.4320  -21.8100  -38.9940 O   0  0  0  0  0  0  0  0  0  0  0  0
    4.1550  -20.2570  -40.6180 N   0  0  0  0  0  0  0  0  0  0  0  0
    3.1440  -20.3270  -41.6310 C   0  0  0  0  0  0  0  0  0  0  0  0
    3.8090  -20.6030  -42.9950 C   0  0  0  0  0  0  0  0  0  0  0  0
    4.9730  -21.4330  -42.6570 N   0  0  0  0  0  0  0  0  0  0  0  0
    6.0790  -20.8270  -41.9930 C   0  0  0  0  0  0  0  0  0  0  0  0
    5.4750  -19.7660  -41.1300 C   0  0  0  0  0  0  0  0  0  0  0  0
    4.9250  -22.8040  -42.8820 C   0  0  0  0  0  0  0  0  0  0  0  0
    6.0000  -23.4740  -43.4770 N   0  0  0  0  0  0  0  0  0  0  0  0
    6.0700  -24.7380  -43.7060 C   0  0  0  0  0  0  0  0  0  0  0  0
    5.0300  -25.6140  -43.3550 C   0  0  0  0  0  0  0  0  0  0  0  0
    3.9560  -24.9570  -42.7710 C   0  0  0  0  0  0  0  0  0  0  0  0
    3.9440  -23.6920  -42.5730 N   0  0  0  0  0  0  0  0  0  0  0  0
    2.5010  -15.5680  -36.7850 H   0  0  0  0  0  0  0  0  0  0  0  0
   -0.2590  -18.6290  -37.6750 H   0  0  0  0  0  0  0  0  0  0  0  0
   -2.1600  -17.0450  -37.3980 H   0  0  0  0  0  0  0  0  0  0  0  0
   -1.6420  -14.6730  -36.7810 H   0  0  0  0  0  0  0  0  0  0  0  0
    2.3740  -18.8170  -39.4200 H   0  0  0  0  0  0  0  0  0  0  0  0
    2.6860  -19.3200  -41.7930 H   0  0  0  0  0  0  0  0  0  0  0  0
    2.4220  -21.1230  -41.5090 H   0  0  0  0  0  0  0  0  0  0  0  0
    3.1600  -21.1360  -43.6870 H   0  0  0  0  0  0  0  0  0  0  0  0
    4.1370  -19.6280  -43.4240 H   0  0  0  0  0  0  0  0  0  0  0  0
    6.7660  -20.3400  -42.7060 H   0  0  0  0  0  0  0  0  0  0  0  0
    6.6700  -21.6160  -41.4180 H   0  0  0  0  0  0  0  0  0  0  0  0
    5.3230  -18.7670  -41.5850 H   0  0  0  0  0  0  0  0  0  0  0  0
    6.1280  -19.6510  -40.2520 H   0  0  0  0  0  0  0  0  0  0  0  0
    6.9090  -25.2350  -44.2200 H   0  0  0  0  0  0  0  0  0  0  0  0
    5.0350  -26.6710  -43.5260 H   0  0  0  0  0  0  0  0  0  0  0  0
    3.0730  -25.5830  -42.4880 H   0  0  0  0  0  0  0  0  0  0  0  0
  2  1  1  0  0  0  0
  3 27  1  0  0  0  0
  3  2  1  0  0  0  0
  4  3  2  0  0  0  0
  5  6  2  0  0  0  0
  5  4  1  0  0  0  0
  6  7  1  0  0  0  0
  7 30  1  0  0  0  0
  7  2  2  0  0  0  0
  8  4  1  0  0  0  0
  8  9  1  0  0  0  0
 10  9  2  0  0  0  0
 11 10  1  0  0  0  0
 12 11  2  0  0  0  0
 12  8  1  0  0  0  0
 13 14  2  0  0  0  0
 13 11  1  0  0  0  0
 15 13  1  0  0  0  0
 16 33  1  0  0  0  0
 16 15  1  0  0  0  0
 17 18  1  0  0  0  0
 17 16  1  0  0  0  0
 18 19  1  0  0  0  0
 19 37  1  0  0  0  0
 19 20  1  0  0  0  0
 20 15  1  0  0  0  0
 20 39  1  0  0  0  0
 21 18  1  0  0  0  0
 21 26  1  0  0  0  0
 22 21  2  0  0  0  0
 23 22  1  0  0  0  0
 23 24  2  0  0  0  0
 24 25  1  0  0  0  0
 25 26  2  0  0  0  0
 25 42  1  0  0  0  0
 28  5  1  0  0  0  0
 29  6  1  0  0  0  0
 31 12  1  0  0  0  0
 32 16  1  0  0  0  0
 34 17  1  0  0  0  0
 35 17  1  0  0  0  0
 36 19  1  0  0  0  0
 38 20  1  0  0  0  0
 40 23  1  0  0  0  0
 41 24  1  0  0  0  0
M  END
>  <Pose>
1

>  <Score>
-4.28

$$$$
