
 OpenBabel03232221553D

 33 36  0  0  1  0  0  0  0  0999 V2000
   -0.3330  -16.4180  -36.4540 Cl  0  0  0  0  0  0  0  0  0  0  0  0
   -0.1980  -17.9080  -37.3620 C   0  0  0  0  0  0  0  0  0  0  0  0
    1.0280  -18.4670  -37.6540 C   0  0  0  0  0  0  0  0  0  0  0  0
    1.1480  -19.6470  -38.3710 C   0  0  0  0  0  0  0  0  0  0  0  0
   -0.0240  -20.2470  -38.7880 C   0  0  0  0  0  0  0  0  0  0  0  0
   -1.2590  -19.6830  -38.4940 C   0  0  0  0  0  0  0  0  0  0  0  0
   -1.3680  -18.5080  -37.7780 C   0  0  0  0  0  0  0  0  0  0  0  0
    2.4120  -20.2250  -38.6740 N   0  0  0  0  0  0  0  0  0  0  0  0
    3.5800  -20.3030  -37.8360 C   0  0  0  0  0  0  0  0  0  0  0  0
    3.6840  -19.7670  -36.7080 O   0  0  0  0  0  0  0  0  0  0  0  0
    4.6120  -21.0930  -38.5020 C   0  0  2  0  0  0  0  0  0  0  0  0
    5.7770  -20.3160  -39.0200 C   0  0  1  0  0  0  0  0  0  0  0  0
    6.1950  -21.1670  -40.0740 O   0  0  0  0  0  0  0  0  0  0  0  0
    4.9930  -21.0970  -40.8250 C   0  0  1  0  0  0  0  0  0  0  0  0
    3.9910  -21.5980  -39.8150 C   0  0  2  0  0  0  0  0  0  0  0  0
    2.7390  -20.8450  -39.9130 C   0  0  0  0  0  0  0  0  0  0  0  0
    2.0290  -20.7460  -40.9430 O   0  0  0  0  0  0  0  0  0  0  0  0
    4.8280  -19.6320  -40.9370 C   0  0  0  0  0  0  0  0  0  0  0  0
    5.3610  -19.1290  -39.8000 C   0  0  0  0  0  0  0  0  0  0  0  0
    6.8670  -20.0720  -38.0370 C   0  0  0  0  0  0  0  0  0  0  0  0
    7.0420  -18.7040  -37.8740 O   0  0  0  0  0  0  0  0  0  0  0  0
    1.9570  -18.0010  -37.3270 H   0  0  0  0  0  0  0  0  0  0  0  0
    0.0490  -21.1740  -39.3530 H   0  0  0  0  0  0  0  0  0  0  0  0
   -2.1730  -20.1680  -38.8280 H   0  0  0  0  0  0  0  0  0  0  0  0
   -2.3440  -18.0840  -37.5600 H   0  0  0  0  0  0  0  0  0  0  0  0
    4.9940  -21.9380  -37.9050 H   0  0  0  0  0  0  0  0  0  0  0  0
    5.0340  -21.6460  -41.7490 H   0  0  0  0  0  0  0  0  0  0  0  0
    3.8630  -22.6820  -39.8150 H   0  0  0  0  0  0  0  0  0  0  0  0
    4.3900  -19.0610  -41.7270 H   0  0  0  0  0  0  0  0  0  0  0  0
    5.4520  -18.0820  -39.5450 H   0  0  0  0  0  0  0  0  0  0  0  0
    7.8080  -20.4830  -38.4860 H   0  0  0  0  0  0  0  0  0  0  0  0
    6.7250  -20.5910  -37.0780 H   0  0  0  0  0  0  0  0  0  0  0  0
    7.6220  -18.3450  -38.5840 H   0  0  0  0  0  0  0  0  0  0  0  0
  2  1  1  0  0  0  0
  3  2  1  0  0  0  0
  3 22  1  0  0  0  0
  4  3  2  0  0  0  0
  5  6  2  0  0  0  0
  5  4  1  0  0  0  0
  6  7  1  0  0  0  0
  7 25  1  0  0  0  0
  7  2  2  0  0  0  0
  8  4  1  0  0  0  0
  8  9  1  0  0  0  0
  9 10  2  0  0  0  0
 11 26  1  1  0  0  0
 11  9  1  0  0  0  0
 12 11  1  0  0  0  0
 12 20  1  1  0  0  0
 13 12  1  0  0  0  0
 14 27  1  6  0  0  0
 14 13  1  0  0  0  0
 14 15  1  0  0  0  0
 15 28  1  6  0  0  0
 15 11  1  0  0  0  0
 16 15  1  0  0  0  0
 16  8  1  0  0  0  0
 17 16  2  0  0  0  0
 18 14  1  0  0  0  0
 18 19  2  0  0  0  0
 19 30  1  0  0  0  0
 19 12  1  0  0  0  0
 20 21  1  0  0  0  0
 20 32  1  0  0  0  0
 23  5  1  0  0  0  0
 24  6  1  0  0  0  0
 29 18  1  0  0  0  0
 31 20  1  0  0  0  0
 33 21  1  0  0  0  0
M  END
>  <Pose>
1

>  <Score>
-4.02

$$$$
