
 OpenBabel03232221553D

 41 44  0  0  0  0  0  0  0  0999 V2000
    1.2910  -18.3870  -40.8050 F   0  0  0  0  0  0  0  0  0  0  0  0
    1.1100  -17.5060  -39.7910 C   0  0  0  0  0  0  0  0  0  0  0  0
    1.7110  -17.7740  -38.5700 C   0  0  0  0  0  0  0  0  0  0  0  0
    1.5720  -16.9250  -37.4950 C   0  0  0  0  0  0  0  0  0  0  0  0
    0.8050  -15.7860  -37.6710 C   0  0  0  0  0  0  0  0  0  0  0  0
    0.2090  -15.5180  -38.8810 C   0  0  0  0  0  0  0  0  0  0  0  0
    0.3520  -16.3710  -39.9510 C   0  0  0  0  0  0  0  0  0  0  0  0
    0.6250  -14.7010  -36.3040 Cl  0  0  0  0  0  0  0  0  0  0  0  0
    2.2890  -17.4200  -36.3380 C   0  0  0  0  0  0  0  0  0  0  0  0
    2.3800  -16.9070  -35.1990 O   0  0  0  0  0  0  0  0  0  0  0  0
    2.9050  -18.6680  -36.7680 C   0  0  0  0  0  0  0  0  0  0  0  0
    3.6280  -19.4190  -36.0410 O   0  0  0  0  0  0  0  0  0  0  0  0
    2.5430  -18.8670  -38.1260 N   0  0  0  0  0  0  0  0  0  0  0  0
    2.9230  -19.9780  -38.9730 C   0  0  0  0  0  0  0  0  0  0  0  0
    4.3390  -20.0160  -39.2700 N   0  0  0  0  0  0  0  0  0  0  0  0
    4.9070  -21.2670  -38.8980 C   0  0  0  0  0  0  0  0  0  0  0  0
    5.8440  -21.8670  -39.8860 C   0  0  0  0  0  0  0  0  0  0  0  0
    5.4350  -21.6880  -41.2540 N   0  0  0  0  0  0  0  0  0  0  0  0
    4.4490  -20.6770  -41.5530 C   0  0  0  0  0  0  0  0  0  0  0  0
    4.6730  -19.5460  -40.5720 C   0  0  0  0  0  0  0  0  0  0  0  0
    5.9650  -22.4630  -42.3110 C   0  0  0  0  0  0  0  0  0  0  0  0
    7.2900  -22.5530  -42.5170 N   0  0  0  0  0  0  0  0  0  0  0  0
    7.8190  -23.2840  -43.5170 C   0  0  0  0  0  0  0  0  0  0  0  0
    6.9990  -23.9820  -44.3830 C   0  0  0  0  0  0  0  0  0  0  0  0
    5.6740  -23.8970  -44.1820 N   0  0  0  0  0  0  0  0  0  0  0  0
    5.1430  -23.1660  -43.1830 C   0  0  0  0  0  0  0  0  0  0  0  0
   -0.3930  -14.6060  -38.9900 H   0  0  0  0  0  0  0  0  0  0  0  0
   -0.1350  -16.1310  -40.9040 H   0  0  0  0  0  0  0  0  0  0  0  0
    2.5630  -20.8910  -38.4900 H   0  0  0  0  0  0  0  0  0  0  0  0
    2.3820  -19.8820  -39.9380 H   0  0  0  0  0  0  0  0  0  0  0  0
    5.4630  -21.1190  -37.9360 H   0  0  0  0  0  0  0  0  0  0  0  0
    4.0880  -21.9930  -38.6350 H   0  0  0  0  0  0  0  0  0  0  0  0
    6.9070  -21.5650  -39.7190 H   0  0  0  0  0  0  0  0  0  0  0  0
    5.8410  -22.9830  -39.7050 H   0  0  0  0  0  0  0  0  0  0  0  0
    3.4570  -21.1350  -41.2970 H   0  0  0  0  0  0  0  0  0  0  0  0
    4.4900  -20.3370  -42.6010 H   0  0  0  0  0  0  0  0  0  0  0  0
    4.1510  -18.6220  -40.8060 H   0  0  0  0  0  0  0  0  0  0  0  0
    5.7700  -19.2790  -40.5630 H   0  0  0  0  0  0  0  0  0  0  0  0
    8.8910  -23.3490  -43.6750 H   0  0  0  0  0  0  0  0  0  0  0  0
    7.4520  -24.5640  -45.1800 H   0  0  0  0  0  0  0  0  0  0  0  0
    4.0750  -23.0930  -43.0140 H   0  0  0  0  0  0  0  0  0  0  0  0
  1  2  1  0  0  0  0
  2  3  1  0  0  0  0
  3 13  1  0  0  0  0
  3  4  2  0  0  0  0
  4  9  1  0  0  0  0
  5  4  1  0  0  0  0
  5  8  1  0  0  0  0
  6  5  2  0  0  0  0
  7  2  2  0  0  0  0
  7  6  1  0  0  0  0
  9 10  2  0  0  0  0
 11  9  1  0  0  0  0
 11 12  2  0  0  0  0
 13 11  1  0  0  0  0
 14 29  1  0  0  0  0
 14 13  1  0  0  0  0
 15 14  1  0  0  0  0
 15 16  1  0  0  0  0
 16 32  1  0  0  0  0
 16 31  1  0  0  0  0
 17 33  1  0  0  0  0
 17 34  1  0  0  0  0
 17 16  1  0  0  0  0
 18 17  1  0  0  0  0
 19 35  1  0  0  0  0
 19 18  1  0  0  0  0
 19 20  1  0  0  0  0
 20 38  1  0  0  0  0
 20 15  1  0  0  0  0
 21 18  1  0  0  0  0
 22 21  1  0  0  0  0
 23 22  2  0  0  0  0
 24 25  2  0  0  0  0
 24 23  1  0  0  0  0
 25 26  1  0  0  0  0
 26 41  1  0  0  0  0
 26 21  2  0  0  0  0
 27  6  1  0  0  0  0
 28  7  1  0  0  0  0
 30 14  1  0  0  0  0
 36 19  1  0  0  0  0
 37 20  1  0  0  0  0
 39 23  1  0  0  0  0
 40 24  1  0  0  0  0
M  END
>  <Pose>
1

>  <Score>
-3.86

$$$$
