
 OpenBabel03232221553D

 36 39  0  0  0  0  0  0  0  0999 V2000
    6.6780  -19.1100  -37.8750 Cl  0  0  0  0  0  0  0  0  0  0  0  0
    5.5390  -19.7200  -39.0560 C   0  0  0  0  0  0  0  0  0  0  0  0
    4.1850  -19.8070  -38.8090 C   0  0  0  0  0  0  0  0  0  0  0  0
    3.2760  -20.2870  -39.7300 C   0  0  0  0  0  0  0  0  0  0  0  0
    3.7640  -20.6950  -40.9570 C   0  0  0  0  0  0  0  0  0  0  0  0
    5.1170  -20.6110  -41.2160 C   0  0  0  0  0  0  0  0  0  0  0  0
    6.0250  -20.1320  -40.2940 C   0  0  0  0  0  0  0  0  0  0  0  0
    2.8090  -21.2110  -41.9610 C   0  0  0  0  0  0  0  0  0  0  0  0
    2.9910  -21.6410  -43.1380 N   0  0  0  0  0  0  0  0  0  0  0  0
    1.7710  -22.0600  -43.7960 C   0  0  0  0  0  0  0  0  0  0  0  0
    0.6920  -21.8190  -42.7920 C   0  0  0  0  0  0  0  0  0  0  0  0
    1.4220  -21.2830  -41.6600 N   0  0  0  0  0  0  0  0  0  0  0  0
    1.0000  -20.8410  -40.3690 C   0  0  0  0  0  0  0  0  0  0  0  0
   -0.2250  -20.7920  -39.8150 N   0  0  0  0  0  0  0  0  0  0  0  0
   -0.1680  -20.3100  -38.5860 N   0  0  0  0  0  0  0  0  0  0  0  0
    1.1440  -20.0490  -38.3700 C   0  0  0  0  0  0  0  0  0  0  0  0
    1.5800  -19.5760  -37.2980 O   0  0  0  0  0  0  0  0  0  0  0  0
    1.8790  -20.3660  -39.4490 N   0  0  0  0  0  0  0  0  0  0  0  0
   -1.2740  -20.1060  -37.6700 C   0  0  0  0  0  0  0  0  0  0  0  0
   -1.6610  -18.6200  -37.6680 C   0  0  0  0  0  0  0  0  0  0  0  0
   -2.2280  -18.2420  -36.3500 C   0  0  0  0  0  0  0  0  0  0  0  0
   -3.4540  -18.2600  -36.0730 O   0  0  0  0  0  0  0  0  0  0  0  0
   -1.3270  -17.8310  -35.3340 N   0  0  0  0  0  0  0  0  0  0  0  0
    3.8390  -19.4790  -37.8390 H   0  0  0  0  0  0  0  0  0  0  0  0
    5.4670  -20.9380  -42.1840 H   0  0  0  0  0  0  0  0  0  0  0  0
    7.0900  -20.0660  -40.4940 H   0  0  0  0  0  0  0  0  0  0  0  0
    1.8200  -23.1220  -44.1120 H   0  0  0  0  0  0  0  0  0  0  0  0
    1.6600  -21.3980  -44.6910 H   0  0  0  0  0  0  0  0  0  0  0  0
    0.1120  -22.7260  -42.5400 H   0  0  0  0  0  0  0  0  0  0  0  0
   -0.0210  -21.0390  -43.1870 H   0  0  0  0  0  0  0  0  0  0  0  0
   -2.1680  -20.6360  -38.0700 H   0  0  0  0  0  0  0  0  0  0  0  0
   -1.0370  -20.4230  -36.6540 H   0  0  0  0  0  0  0  0  0  0  0  0
   -2.3970  -18.4100  -38.4660 H   0  0  0  0  0  0  0  0  0  0  0  0
   -0.7600  -17.9780  -37.8290 H   0  0  0  0  0  0  0  0  0  0  0  0
   -1.1900  -18.3480  -34.4460 H   0  0  0  0  0  0  0  0  0  0  0  0
   -0.7780  -16.9610  -35.4950 H   0  0  0  0  0  0  0  0  0  0  0  0
  2  3  1  0  0  0  0
  2  1  1  0  0  0  0
  3 24  1  0  0  0  0
  4 18  1  0  0  0  0
  4  3  2  0  0  0  0
  5  4  1  0  0  0  0
  6  5  1  0  0  0  0
  6  7  1  0  0  0  0
  7  2  2  0  0  0  0
  8 12  1  0  0  0  0
  8  5  2  0  0  0  0
  9  8  1  0  0  0  0
 10  9  1  0  0  0  0
 10 11  1  0  0  0  0
 11 29  1  0  0  0  0
 11 12  1  0  0  0  0
 12 13  1  0  0  0  0
 13 14  2  0  0  0  0
 13 18  1  0  0  0  0
 14 15  1  0  0  0  0
 15 16  1  0  0  0  0
 15 19  1  0  0  0  0
 16 17  2  0  0  0  0
 18 16  1  0  0  0  0
 19 20  1  0  0  0  0
 19 32  1  0  0  0  0
 20 21  1  0  0  0  0
 21 22  2  0  0  0  0
 21 23  1  0  0  0  0
 23 35  1  0  0  0  0
 25  6  1  0  0  0  0
 26  7  1  0  0  0  0
 27 10  1  0  0  0  0
 28 10  1  0  0  0  0
 30 11  1  0  0  0  0
 31 19  1  0  0  0  0
 33 20  1  0  0  0  0
 34 20  1  0  0  0  0
 36 23  1  0  0  0  0
M  END
>  <Pose>
1

>  <Score>
-4.35

$$$$
