
 OpenBabel03232221553D

 46 49  0  0  1  0  0  0  0  0999 V2000
    1.1970  -25.2160  -41.9430 Cl  0  0  0  0  0  0  0  0  0  0  0  0
    2.7070  -24.4250  -42.3630 C   0  0  0  0  0  0  0  0  0  0  0  0
    2.8860  -23.0740  -42.1440 C   0  0  0  0  0  0  0  0  0  0  0  0
    4.0910  -22.4430  -42.4800 C   0  0  0  0  0  0  0  0  0  0  0  0
    5.0680  -23.2320  -43.0300 C   0  0  0  0  0  0  0  0  0  0  0  0
    4.8820  -24.6030  -43.2500 C   0  0  0  0  0  0  0  0  0  0  0  0
    3.6930  -25.2150  -42.9170 C   0  0  0  0  0  0  0  0  0  0  0  0
    6.2750  -22.6280  -43.3710 O   0  0  0  0  0  0  0  0  0  0  0  0
    6.5300  -21.2810  -43.1840 C   0  0  0  0  0  0  0  0  0  0  0  0
    5.5410  -20.4840  -42.6280 C   0  0  0  0  0  0  0  0  0  0  0  0
    4.2250  -20.9950  -42.2260 C   0  0  2  0  0  0  0  0  0  0  0  0
    4.0210  -20.7380  -40.7630 C   0  0  0  0  0  0  0  0  0  0  0  0
    4.9620  -21.1340  -39.8380 C   0  0  0  0  0  0  0  0  0  0  0  0
    4.7640  -20.8980  -38.5130 N   0  0  0  0  0  0  0  0  0  0  0  0
    3.6390  -20.2700  -38.0860 C   0  0  0  0  0  0  0  0  0  0  0  0
    3.4880  -20.0680  -36.8490 O   0  0  0  0  0  0  0  0  0  0  0  0
    2.7040  -19.8730  -38.9640 N   0  0  0  0  0  0  0  0  0  0  0  0
    2.8950  -20.1050  -40.2770 C   0  0  0  0  0  0  0  0  0  0  0  0
    2.0230  -19.7320  -41.0750 O   0  0  0  0  0  0  0  0  0  0  0  0
    1.5050  -19.2020  -38.4710 C   0  0  0  0  0  0  0  0  0  0  0  0
    5.7980  -21.3400  -37.5830 C   0  0  0  0  0  0  0  0  0  0  0  0
    6.0970  -21.7660  -40.2630 O   0  0  0  0  0  0  0  0  0  0  0  0
    5.8430  -19.1480  -42.4590 C   0  0  0  0  0  0  0  0  0  0  0  0
    4.9750  -18.3680  -41.9530 O   0  0  0  0  0  0  0  0  0  0  0  0
    7.0160  -18.5880  -42.7960 N   0  0  0  0  0  0  0  0  0  0  0  0
    7.9530  -19.4050  -43.3360 C   0  0  0  0  0  0  0  0  0  0  0  0
    9.0460  -18.8590  -43.6450 O   0  0  0  0  0  0  0  0  0  0  0  0
    7.7020  -20.7140  -43.5190 N   0  0  0  0  0  0  0  0  0  0  0  0
    8.7540  -21.5220  -44.1020 C   0  0  0  0  0  0  0  0  0  0  0  0
    7.2850  -17.1640  -42.5930 C   0  0  0  0  0  0  0  0  0  0  0  0
    2.0960  -22.4660  -41.7050 H   0  0  0  0  0  0  0  0  0  0  0  0
    5.7020  -25.1650  -43.6900 H   0  0  0  0  0  0  0  0  0  0  0  0
    3.5690  -26.2740  -43.0940 H   0  0  0  0  0  0  0  0  0  0  0  0
    3.4480  -20.4030  -42.7570 H   0  0  0  0  0  0  0  0  0  0  0  0
    0.6840  -19.2180  -39.1860 H   0  0  0  0  0  0  0  0  0  0  0  0
    1.8220  -18.1420  -38.2730 H   0  0  0  0  0  0  0  0  0  0  0  0
    1.2510  -19.6300  -37.4760 H   0  0  0  0  0  0  0  0  0  0  0  0
    6.2930  -22.2340  -38.0230 H   0  0  0  0  0  0  0  0  0  0  0  0
    6.5710  -20.5200  -37.5070 H   0  0  0  0  0  0  0  0  0  0  0  0
    5.3670  -21.5480  -36.5880 H   0  0  0  0  0  0  0  0  0  0  0  0
    9.4600  -21.8200  -43.2870 H   0  0  0  0  0  0  0  0  0  0  0  0
    8.3640  -22.4370  -44.5740 H   0  0  0  0  0  0  0  0  0  0  0  0
    9.3020  -20.9490  -44.8870 H   0  0  0  0  0  0  0  0  0  0  0  0
    7.9310  -17.1280  -41.6700 H   0  0  0  0  0  0  0  0  0  0  0  0
    7.7590  -16.6960  -43.4540 H   0  0  0  0  0  0  0  0  0  0  0  0
    6.3530  -16.6610  -42.3280 H   0  0  0  0  0  0  0  0  0  0  0  0
  2  3  1  0  0  0  0
  2  1  1  0  0  0  0
  3 31  1  0  0  0  0
  4 11  1  0  0  0  0
  4  3  2  0  0  0  0
  5  4  1  0  0  0  0
  6  5  2  0  0  0  0
  6  7  1  0  0  0  0
  7  2  2  0  0  0  0
  8  9  1  0  0  0  0
  8  5  1  0  0  0  0
  9 10  2  0  0  0  0
 10 23  1  0  0  0  0
 10 11  1  0  0  0  0
 11 34  1  6  0  0  0
 11 12  1  0  0  0  0
 12 18  1  0  0  0  0
 12 13  1  0  0  0  0
 13 14  1  0  0  0  0
 14 15  1  0  0  0  0
 14 21  1  0  0  0  0
 15 16  2  0  0  0  0
 17 20  1  0  0  0  0
 17 15  1  0  0  0  0
 18 17  1  0  0  0  0
 19 18  2  0  0  0  0
 20 36  1  0  0  0  0
 20 37  1  0  0  0  0
 21 39  1  0  0  0  0
 21 40  1  0  0  0  0
 22 13  2  0  0  0  0
 23 24  2  0  0  0  0
 25 30  1  0  0  0  0
 25 23  1  0  0  0  0
 26 25  1  0  0  0  0
 27 26  2  0  0  0  0
 28 26  1  0  0  0  0
 28  9  1  0  0  0  0
 29 28  1  0  0  0  0
 29 41  1  0  0  0  0
 30 46  1  0  0  0  0
 30 44  1  0  0  0  0
 32  6  1  0  0  0  0
 33  7  1  0  0  0  0
 35 20  1  0  0  0  0
 38 21  1  0  0  0  0
 42 29  1  0  0  0  0
 43 29  1  0  0  0  0
 45 30  1  0  0  0  0
M  END
>  <Pose>
1

>  <Score>
-3.65

$$$$
