
 OpenBabel03232221553D

 57 60  0  0  0  0  0  0  0  0999 V2000
    2.1460  -23.9900  -45.6640 Cl  0  0  0  0  0  0  0  0  0  0  0  0
    3.1030  -23.4930  -44.2890 C   0  0  0  0  0  0  0  0  0  0  0  0
    4.0270  -22.4780  -44.3980 C   0  0  0  0  0  0  0  0  0  0  0  0
    4.7690  -22.1020  -43.3090 C   0  0  0  0  0  0  0  0  0  0  0  0
    4.5810  -22.7540  -42.0850 C   0  0  0  0  0  0  0  0  0  0  0  0
    3.6540  -23.7770  -41.9660 C   0  0  0  0  0  0  0  0  0  0  0  0
    2.9340  -24.1240  -43.0760 C   0  0  0  0  0  0  0  0  0  0  0  0
    5.2480  -22.4940  -40.8980 O   0  0  0  0  0  0  0  0  0  0  0  0
    5.8860  -21.3000  -40.5100 C   0  0  0  0  0  0  0  0  0  0  0  0
    7.0640  -20.9780  -41.3690 C   0  0  0  0  0  0  0  0  0  0  0  0
    6.8880  -21.2220  -42.7690 N   0  0  0  0  0  0  0  0  0  0  0  0
    5.7210  -20.9950  -43.5820 C   0  0  0  0  0  0  0  0  0  0  0  0
    7.9990  -21.7690  -43.4980 C   0  0  0  0  0  0  0  0  0  0  0  0
    8.7250  -20.9540  -44.1200 O   0  0  0  0  0  0  0  0  0  0  0  0
    8.2740  -23.2040  -43.5170 C   0  0  0  0  0  0  0  0  0  0  0  0
    8.5470  -23.8070  -44.7700 N   0  0  0  0  0  0  0  0  0  0  0  0
    7.8430  -25.0830  -44.9270 C   0  0  0  0  0  0  0  0  0  0  0  0
    8.3070  -26.0040  -43.8620 C   0  0  0  0  0  0  0  0  0  0  0  0
    9.7810  -26.0860  -43.6460 C   0  0  0  0  0  0  0  0  0  0  0  0
   10.6170  -25.0460  -44.2810 C   0  0  0  0  0  0  0  0  0  0  0  0
    9.9370  -24.0100  -45.0930 C   0  0  0  0  0  0  0  0  0  0  0  0
   10.1150  -26.2290  -42.2070 C   0  0  0  0  0  0  0  0  0  0  0  0
    9.5350  -25.5080  -41.3700 O   0  0  0  0  0  0  0  0  0  0  0  0
   11.0810  -27.1730  -41.7970 N   0  0  0  0  0  0  0  0  0  0  0  0
    4.8670  -20.1720  -40.4650 C   0  0  0  0  0  0  0  0  0  0  0  0
    4.2690  -20.0600  -39.0730 C   0  0  0  0  0  0  0  0  0  0  0  0
    5.1940  -19.6530  -38.1320 O   0  0  0  0  0  0  0  0  0  0  0  0
    6.4770  -20.0440  -38.4950 C   0  0  0  0  0  0  0  0  0  0  0  0
    6.4070  -21.4430  -39.0770 C   0  0  0  0  0  0  0  0  0  0  0  0
    4.1800  -21.9670  -45.3370 H   0  0  0  0  0  0  0  0  0  0  0  0
    3.5430  -24.2540  -41.0040 H   0  0  0  0  0  0  0  0  0  0  0  0
    2.1970  -24.9210  -43.0240 H   0  0  0  0  0  0  0  0  0  0  0  0
    7.3220  -19.8980  -41.2210 H   0  0  0  0  0  0  0  0  0  0  0  0
    7.9350  -21.5570  -40.9630 H   0  0  0  0  0  0  0  0  0  0  0  0
    5.2600  -20.0000  -43.4270 H   0  0  0  0  0  0  0  0  0  0  0  0
    5.9710  -21.0470  -44.6690 H   0  0  0  0  0  0  0  0  0  0  0  0
    7.3450  -23.7090  -43.1140 H   0  0  0  0  0  0  0  0  0  0  0  0
    9.0440  -23.4140  -42.7280 H   0  0  0  0  0  0  0  0  0  0  0  0
    6.7700  -24.9200  -44.8340 H   0  0  0  0  0  0  0  0  0  0  0  0
    8.1520  -25.4920  -45.9150 H   0  0  0  0  0  0  0  0  0  0  0  0
    7.8420  -25.7340  -42.8720 H   0  0  0  0  0  0  0  0  0  0  0  0
    7.8390  -27.0100  -44.0860 H   0  0  0  0  0  0  0  0  0  0  0  0
   10.0880  -27.0830  -44.0960 H   0  0  0  0  0  0  0  0  0  0  0  0
   11.4760  -25.5110  -44.8540 H   0  0  0  0  0  0  0  0  0  0  0  0
   11.1630  -24.4900  -43.4580 H   0  0  0  0  0  0  0  0  0  0  0  0
   10.4360  -23.0390  -45.1680 H   0  0  0  0  0  0  0  0  0  0  0  0
    9.9300  -24.3970  -46.1590 H   0  0  0  0  0  0  0  0  0  0  0  0
   10.6960  -28.0800  -41.4000 H   0  0  0  0  0  0  0  0  0  0  0  0
   12.1010  -27.0650  -41.8460 H   0  0  0  0  0  0  0  0  0  0  0  0
    4.0130  -20.4280  -41.1400 H   0  0  0  0  0  0  0  0  0  0  0  0
    5.3180  -19.1970  -40.7130 H   0  0  0  0  0  0  0  0  0  0  0  0
    3.4700  -19.2870  -39.1160 H   0  0  0  0  0  0  0  0  0  0  0  0
    3.8280  -21.0250  -38.7650 H   0  0  0  0  0  0  0  0  0  0  0  0
    6.8320  -19.3080  -39.2530 H   0  0  0  0  0  0  0  0  0  0  0  0
    7.1720  -19.9830  -37.6370 H   0  0  0  0  0  0  0  0  0  0  0  0
    5.6520  -21.9940  -38.4780 H   0  0  0  0  0  0  0  0  0  0  0  0
    7.3720  -21.9660  -39.0490 H   0  0  0  0  0  0  0  0  0  0  0  0
  1  2  1  0  0  0  0
  2  7  1  0  0  0  0
  3  2  2  0  0  0  0
  3  4  1  0  0  0  0
  4  5  2  0  0  0  0
  5  6  1  0  0  0  0
  5  8  1  0  0  0  0
  6 31  1  0  0  0  0
  7 32  1  0  0  0  0
  7  6  2  0  0  0  0
  8  9  1  0  0  0  0
  9 25  1  0  0  0  0
  9 29  1  0  0  0  0
 10 33  1  0  0  0  0
 10 34  1  0  0  0  0
 10  9  1  0  0  0  0
 11 10  1  0  0  0  0
 12 35  1  0  0  0  0
 12  4  1  0  0  0  0
 12 11  1  0  0  0  0
 13 11  1  0  0  0  0
 14 13  2  0  0  0  0
 15 13  1  0  0  0  0
 15 37  1  0  0  0  0
 15 38  1  0  0  0  0
 16 15  1  0  0  0  0
 17 39  1  0  0  0  0
 17 16  1  0  0  0  0
 17 18  1  0  0  0  0
 18 19  1  0  0  0  0
 18 41  1  0  0  0  0
 19 22  1  0  0  0  0
 20 19  1  0  0  0  0
 20 45  1  0  0  0  0
 21 16  1  0  0  0  0
 21 20  1  0  0  0  0
 22 24  1  0  0  0  0
 22 23  2  0  0  0  0
 24 48  1  0  0  0  0
 25 26  1  0  0  0  0
 26 53  1  0  0  0  0
 26 27  1  0  0  0  0
 28 27  1  0  0  0  0
 28 55  1  0  0  0  0
 29 57  1  0  0  0  0
 29 28  1  0  0  0  0
 29 56  1  0  0  0  0
 30  3  1  0  0  0  0
 36 12  1  0  0  0  0
 40 17  1  0  0  0  0
 42 18  1  0  0  0  0
 43 19  1  0  0  0  0
 44 20  1  0  0  0  0
 46 21  1  0  0  0  0
 47 21  1  0  0  0  0
 49 24  1  0  0  0  0
 50 25  1  0  0  0  0
 51 25  1  0  0  0  0
 52 26  1  0  0  0  0
 54 28  1  0  0  0  0
M  END
>  <Pose>
1

>  <Score>
-4.19

$$$$
