
 OpenBabel03232221553D

 43 46  0  0  0  0  0  0  0  0999 V2000
   -0.3220  -17.7610  -37.5670 S   0  0  0  0  0  0  0  0  0  0  0  0
   -1.1810  -18.0810  -38.7290 O   0  0  0  0  0  0  0  0  0  0  0  0
   -0.9180  -18.3560  -36.3110 O   0  0  0  0  0  0  0  0  0  0  0  0
    1.2420  -18.3780  -37.7710 N   0  0  0  0  0  0  0  0  0  0  0  0
    1.2940  -19.7190  -38.2670 C   0  0  0  0  0  0  0  0  0  0  0  0
    2.6620  -20.1230  -38.7500 C   0  0  0  0  0  0  0  0  0  0  0  0
    3.7200  -19.5550  -37.9460 N   0  0  0  0  0  0  0  0  0  0  0  0
    3.4840  -18.7270  -36.7930 C   0  0  0  0  0  0  0  0  0  0  0  0
    2.1580  -18.0700  -36.7310 C   0  0  0  0  0  0  0  0  0  0  0  0
    5.0640  -19.8320  -38.3130 C   0  0  0  0  0  0  0  0  0  0  0  0
    6.0410  -19.4230  -37.6020 O   0  0  0  0  0  0  0  0  0  0  0  0
    5.3710  -20.5970  -39.5220 C   0  0  0  0  0  0  0  0  0  0  0  0
    5.1780  -21.9610  -39.6230 C   0  0  0  0  0  0  0  0  0  0  0  0
    5.4810  -22.5990  -40.7690 N   0  0  0  0  0  0  0  0  0  0  0  0
    5.9750  -21.9760  -41.8550 C   0  0  0  0  0  0  0  0  0  0  0  0
    6.1680  -20.6470  -41.7720 N   0  0  0  0  0  0  0  0  0  0  0  0
    6.6610  -20.0050  -42.8500 C   0  0  0  0  0  0  0  0  0  0  0  0
    6.9710  -20.6660  -44.0220 C   0  0  0  0  0  0  0  0  0  0  0  0
    6.7840  -22.0300  -44.1380 C   0  0  0  0  0  0  0  0  0  0  0  0
    6.2760  -22.6690  -43.0200 C   0  0  0  0  0  0  0  0  0  0  0  0
    5.8770  -19.9720  -40.6440 C   0  0  0  0  0  0  0  0  0  0  0  0
    6.0580  -18.7320  -40.5670 O   0  0  0  0  0  0  0  0  0  0  0  0
   -0.2170  -16.0040  -37.3610 C   0  0  0  0  0  0  0  0  0  0  0  0
    1.1600  -15.0020  -37.2860 S   0  0  0  0  0  0  0  0  0  0  0  0
    0.3870  -13.4960  -37.0820 C   0  0  0  0  0  0  0  0  0  0  0  0
   -0.9400  -13.8270  -37.0780 C   0  0  0  0  0  0  0  0  0  0  0  0
   -1.2540  -15.1180  -37.2210 C   0  0  0  0  0  0  0  0  0  0  0  0
    1.0900  -11.8740  -36.9130 Cl  0  0  0  0  0  0  0  0  0  0  0  0
    1.0160  -20.4080  -37.4440 H   0  0  0  0  0  0  0  0  0  0  0  0
    0.5360  -19.8180  -39.0690 H   0  0  0  0  0  0  0  0  0  0  0  0
    2.7840  -21.2200  -38.8120 H   0  0  0  0  0  0  0  0  0  0  0  0
    2.7730  -19.7210  -39.7770 H   0  0  0  0  0  0  0  0  0  0  0  0
    4.2710  -17.9160  -36.8310 H   0  0  0  0  0  0  0  0  0  0  0  0
    3.7260  -19.2910  -35.8560 H   0  0  0  0  0  0  0  0  0  0  0  0
    1.6710  -18.3720  -35.7580 H   0  0  0  0  0  0  0  0  0  0  0  0
    2.2370  -16.9440  -36.6710 H   0  0  0  0  0  0  0  0  0  0  0  0
    4.7810  -22.4740  -38.7560 H   0  0  0  0  0  0  0  0  0  0  0  0
    6.8160  -18.9320  -42.7770 H   0  0  0  0  0  0  0  0  0  0  0  0
    7.3700  -20.1450  -44.8910 H   0  0  0  0  0  0  0  0  0  0  0  0
    7.0150  -22.5800  -45.0410 H   0  0  0  0  0  0  0  0  0  0  0  0
    6.1210  -23.7380  -43.0900 H   0  0  0  0  0  0  0  0  0  0  0  0
   -1.7050  -13.0310  -36.9590 H   0  0  0  0  0  0  0  0  0  0  0  0
   -2.2980  -15.5120  -37.2350 H   0  0  0  0  0  0  0  0  0  0  0  0
  1 23  1  0  0  0  0
  1  3  2  0  0  0  0
  2  1  2  0  0  0  0
  4  1  1  0  0  0  0
  4  9  1  0  0  0  0
  5  4  1  0  0  0  0
  5 29  1  0  0  0  0
  6  5  1  0  0  0  0
  6  7  1  0  0  0  0
  7  8  1  0  0  0  0
  8  9  1  0  0  0  0
  8 34  1  0  0  0  0
  9 36  1  0  0  0  0
  9 35  1  0  0  0  0
 10  7  1  0  0  0  0
 10 11  2  0  0  0  0
 12 10  1  0  0  0  0
 13 12  2  0  0  0  0
 13 37  1  0  0  0  0
 14 13  1  0  0  0  0
 15 16  1  0  0  0  0
 15 14  2  0  0  0  0
 16 21  1  0  0  0  0
 17 38  1  0  0  0  0
 17 16  1  0  0  0  0
 18 17  2  0  0  0  0
 19 18  1  0  0  0  0
 19 20  2  0  0  0  0
 20 15  1  0  0  0  0
 21 22  2  0  0  0  0
 21 12  1  0  0  0  0
 23 24  1  0  0  0  0
 23 27  2  0  0  0  0
 24 25  1  0  0  0  0
 25 26  2  0  0  0  0
 25 28  1  0  0  0  0
 26 42  1  0  0  0  0
 27 26  1  0  0  0  0
 30  5  1  0  0  0  0
 31  6  1  0  0  0  0
 32  6  1  0  0  0  0
 33  8  1  0  0  0  0
 39 18  1  0  0  0  0
 40 19  1  0  0  0  0
 41 20  1  0  0  0  0
 43 27  1  0  0  0  0
M  END
>  <Pose>
1

>  <Score>
-4.83

$$$$
