
 OpenBabel03232221553D

 50 53  0  0  1  0  0  0  0  0999 V2000
    4.3250  -20.9100  -39.8830 S   0  0  0  0  0  0  0  0  0  0  0  0
    5.0550  -19.5850  -40.0370 O   0  0  0  0  0  0  0  0  0  0  0  0
    4.8940  -21.4960  -38.5920 O   0  0  0  0  0  0  0  0  0  0  0  0
    4.6610  -21.9480  -41.1520 N   0  0  0  0  0  0  0  0  0  0  0  0
    3.8440  -23.0680  -41.3270 C   0  0  0  0  0  0  0  0  0  0  0  0
    4.0850  -23.7790  -42.6660 C   0  0  0  0  0  0  0  0  0  0  0  0
    5.4750  -23.7940  -43.0120 N   0  0  0  0  0  0  0  0  0  0  0  0
    6.2320  -22.5740  -42.8390 C   0  0  0  0  0  0  0  0  0  0  0  0
    6.0690  -22.1660  -41.3880 C   0  0  0  0  0  0  0  0  0  0  0  0
    6.0720  -24.9610  -43.5020 C   0  0  0  0  0  0  0  0  0  0  0  0
    5.7260  -26.0860  -43.0600 O   0  0  0  0  0  0  0  0  0  0  0  0
    7.1340  -24.9370  -44.5570 C   0  0  0  0  0  0  0  0  0  0  0  0
    7.8890  -26.2390  -44.6860 C   0  0  0  0  0  0  0  0  0  0  0  0
    8.8860  -25.6840  -43.6710 C   0  0  0  0  0  0  0  0  0  0  0  0
    8.4000  -24.2850  -44.0610 C   0  0  0  0  0  0  0  0  0  0  0  0
    2.6360  -20.5690  -39.5740 C   0  0  0  0  0  0  0  0  0  0  0  0
    1.6750  -21.0120  -40.5050 C   0  0  0  0  0  0  0  0  0  0  0  0
    0.3390  -20.7230  -40.3480 C   0  0  0  0  0  0  0  0  0  0  0  0
   -0.1410  -19.9920  -39.2850 C   0  0  0  0  0  0  0  0  0  0  0  0
    0.7920  -19.5600  -38.3740 C   0  0  0  0  0  0  0  0  0  0  0  0
    2.1580  -19.8450  -38.5150 C   0  0  0  0  0  0  0  0  0  0  0  0
    3.2700  -19.3240  -37.2720 Cl  0  0  0  0  0  0  0  0  0  0  0  0
   -1.5270  -19.7270  -39.1830 N   0  0  0  0  0  0  0  0  0  0  0  0
   -2.4630  -20.1910  -40.1480 C   0  0  0  0  0  0  0  0  0  0  0  0
   -3.6990  -20.2170  -39.9890 O   0  0  0  0  0  0  0  0  0  0  0  0
   -1.8930  -20.6740  -41.4330 C   0  0  2  0  0  0  0  0  0  0  0  0
   -0.5930  -21.1740  -41.2840 O   0  0  0  0  0  0  0  0  0  0  0  0
   -1.8580  -19.5600  -42.4550 C   0  0  0  0  0  0  0  0  0  0  0  0
    2.7850  -22.7490  -41.3970 H   0  0  0  0  0  0  0  0  0  0  0  0
    3.9590  -23.8160  -40.5320 H   0  0  0  0  0  0  0  0  0  0  0  0
    3.7110  -24.8090  -42.5680 H   0  0  0  0  0  0  0  0  0  0  0  0
    3.5520  -23.2170  -43.4580 H   0  0  0  0  0  0  0  0  0  0  0  0
    7.2870  -22.6770  -43.1310 H   0  0  0  0  0  0  0  0  0  0  0  0
    5.7370  -21.7790  -43.4650 H   0  0  0  0  0  0  0  0  0  0  0  0
    6.4330  -22.9870  -40.7350 H   0  0  0  0  0  0  0  0  0  0  0  0
    6.6020  -21.2330  -41.1930 H   0  0  0  0  0  0  0  0  0  0  0  0
    6.7510  -24.5410  -45.5290 H   0  0  0  0  0  0  0  0  0  0  0  0
    8.3400  -26.4070  -45.6730 H   0  0  0  0  0  0  0  0  0  0  0  0
    7.3400  -27.1360  -44.2990 H   0  0  0  0  0  0  0  0  0  0  0  0
    8.6350  -25.9490  -42.6310 H   0  0  0  0  0  0  0  0  0  0  0  0
    9.9330  -25.8920  -43.9060 H   0  0  0  0  0  0  0  0  0  0  0  0
    8.9960  -23.8190  -44.8740 H   0  0  0  0  0  0  0  0  0  0  0  0
    8.2810  -23.6050  -43.2090 H   0  0  0  0  0  0  0  0  0  0  0  0
    2.0360  -21.5830  -41.3400 H   0  0  0  0  0  0  0  0  0  0  0  0
    0.4650  -18.9840  -37.5240 H   0  0  0  0  0  0  0  0  0  0  0  0
   -1.8860  -19.1710  -38.3720 H   0  0  0  0  0  0  0  0  0  0  0  0
   -2.5430  -21.4770  -41.8090 H   0  0  0  0  0  0  0  0  0  0  0  0
   -2.5270  -18.7290  -42.0920 H   0  0  0  0  0  0  0  0  0  0  0  0
   -2.2130  -19.9430  -43.4280 H   0  0  0  0  0  0  0  0  0  0  0  0
   -0.8340  -19.1490  -42.5300 H   0  0  0  0  0  0  0  0  0  0  0  0
  1 16  1  0  0  0  0
  1  3  2  0  0  0  0
  2  1  2  0  0  0  0
  4  1  1  0  0  0  0
  5  4  1  0  0  0  0
  5 30  1  0  0  0  0
  6 31  1  0  0  0  0
  6  5  1  0  0  0  0
  7  8  1  0  0  0  0
  7  6  1  0  0  0  0
  8  9  1  0  0  0  0
  9 36  1  0  0  0  0
  9  4  1  0  0  0  0
  9 35  1  0  0  0  0
 10 11  2  0  0  0  0
 10  7  1  0  0  0  0
 12 15  1  0  0  0  0
 12 10  1  0  0  0  0
 13 12  1  0  0  0  0
 13 39  1  0  0  0  0
 13 14  1  0  0  0  0
 14 40  1  0  0  0  0
 15 14  1  0  0  0  0
 15 43  1  0  0  0  0
 16 21  1  0  0  0  0
 17 18  1  0  0  0  0
 17 16  2  0  0  0  0
 18 19  2  0  0  0  0
 19 23  1  0  0  0  0
 19 20  1  0  0  0  0
 20 45  1  0  0  0  0
 21 20  2  0  0  0  0
 21 22  1  0  0  0  0
 23 46  1  0  0  0  0
 24 25  2  0  0  0  0
 24 23  1  0  0  0  0
 26 47  1  6  0  0  0
 26 27  1  0  0  0  0
 26 24  1  0  0  0  0
 27 18  1  0  0  0  0
 28 48  1  0  0  0  0
 28 26  1  0  0  0  0
 29  5  1  0  0  0  0
 32  6  1  0  0  0  0
 33  8  1  0  0  0  0
 34  8  1  0  0  0  0
 37 12  1  0  0  0  0
 38 13  1  0  0  0  0
 41 14  1  0  0  0  0
 42 15  1  0  0  0  0
 44 17  1  0  0  0  0
 49 28  1  0  0  0  0
 50 28  1  0  0  0  0
M  END
>  <Pose>
1

>  <Score>
-4.14

$$$$
