
 OpenBabel03232221553D

 37 40  0  0  1  0  0  0  0  0999 V2000
   -1.9230  -17.9570  -36.3510 Cl  0  0  0  0  0  0  0  0  0  0  0  0
   -0.9930  -18.9720  -37.4500 C   0  0  0  0  0  0  0  0  0  0  0  0
    0.3940  -18.8670  -37.5000 C   0  0  0  0  0  0  0  0  0  0  0  0
    1.0760  -19.6850  -38.3710 C   0  0  0  0  0  0  0  0  0  0  0  0
    0.3910  -20.5990  -39.1870 C   0  0  0  0  0  0  0  0  0  0  0  0
   -0.9670  -20.6960  -39.1330 C   0  0  0  0  0  0  0  0  0  0  0  0
   -1.6550  -19.8760  -38.2540 C   0  0  0  0  0  0  0  0  0  0  0  0
    2.4920  -19.6470  -38.4950 N   0  0  0  0  0  0  0  0  0  0  0  0
    3.5190  -19.6280  -37.5100 C   0  0  0  0  0  0  0  0  0  0  0  0
    3.3760  -20.0150  -36.3380 O   0  0  0  0  0  0  0  0  0  0  0  0
    4.7510  -19.0820  -38.1040 C   0  0  1  0  0  0  0  0  0  0  0  0
    5.9400  -19.6030  -37.7050 O   0  0  0  0  0  0  0  0  0  0  0  0
    6.6890  -19.5660  -38.8660 N   0  0  0  0  0  0  0  0  0  0  0  0
    5.8320  -19.9070  -39.9580 C   0  0  0  0  0  0  0  0  0  0  0  0
    4.6190  -19.6170  -39.5000 C   0  0  0  0  0  0  0  0  0  0  0  0
    3.1890  -19.6390  -39.7680 C   0  0  0  0  0  0  0  0  0  0  0  0
    2.6970  -19.6470  -40.9250 O   0  0  0  0  0  0  0  0  0  0  0  0
    6.1890  -20.3970  -41.2740 C   0  0  0  0  0  0  0  0  0  0  0  0
    6.0880  -21.7510  -41.6070 C   0  0  0  0  0  0  0  0  0  0  0  0
    6.4910  -21.9350  -42.8730 N   0  0  0  0  0  0  0  0  0  0  0  0
    6.8490  -20.7490  -43.3670 N   0  0  0  0  0  0  0  0  0  0  0  0
    6.6710  -19.8100  -42.4080 C   0  0  0  0  0  0  0  0  0  0  0  0
    6.9700  -18.3630  -42.5520 C   0  0  0  0  0  0  0  0  0  0  0  0
    6.5610  -23.1710  -43.6450 C   0  0  0  0  0  0  0  0  0  0  0  0
    0.9420  -18.1590  -36.8670 H   0  0  0  0  0  0  0  0  0  0  0  0
    0.9720  -21.2290  -39.8650 H   0  0  0  0  0  0  0  0  0  0  0  0
   -1.4880  -21.4220  -39.7860 H   0  0  0  0  0  0  0  0  0  0  0  0
   -2.7430  -19.9260  -38.1880 H   0  0  0  0  0  0  0  0  0  0  0  0
    4.7190  -17.9700  -38.1140 H   0  0  0  0  0  0  0  0  0  0  0  0
    7.6920  -19.3200  -38.8960 H   0  0  0  0  0  0  0  0  0  0  0  0
    5.7440  -22.5430  -40.9640 H   0  0  0  0  0  0  0  0  0  0  0  0
    6.0830  -17.8430  -42.9260 H   0  0  0  0  0  0  0  0  0  0  0  0
    7.7580  -18.2290  -43.3310 H   0  0  0  0  0  0  0  0  0  0  0  0
    7.3770  -17.9280  -41.6250 H   0  0  0  0  0  0  0  0  0  0  0  0
    7.6050  -23.3730  -43.9710 H   0  0  0  0  0  0  0  0  0  0  0  0
    6.3110  -24.0550  -42.9940 H   0  0  0  0  0  0  0  0  0  0  0  0
    5.9230  -23.1360  -44.5480 H   0  0  0  0  0  0  0  0  0  0  0  0
  2  1  1  0  0  0  0
  3  2  1  0  0  0  0
  3 25  1  0  0  0  0
  4  3  2  0  0  0  0
  5  6  2  0  0  0  0
  5  4  1  0  0  0  0
  6  7  1  0  0  0  0
  7 28  1  0  0  0  0
  7  2  2  0  0  0  0
  8  4  1  0  0  0  0
  8  9  1  0  0  0  0
  9 10  2  0  0  0  0
 11 29  1  1  0  0  0
 11 12  1  0  0  0  0
 11  9  1  0  0  0  0
 13 12  1  0  0  0  0
 14 15  2  0  0  0  0
 14 13  1  0  0  0  0
 15 11  1  0  0  0  0
 16 15  1  0  0  0  0
 16  8  1  0  0  0  0
 17 16  2  0  0  0  0
 18 14  1  0  0  0  0
 19 18  2  0  0  0  0
 19 31  1  0  0  0  0
 20 19  1  0  0  0  0
 21 20  1  0  0  0  0
 21 22  2  0  0  0  0
 22 18  1  0  0  0  0
 23 22  1  0  0  0  0
 23 34  1  0  0  0  0
 24 36  1  0  0  0  0
 24 20  1  0  0  0  0
 26  5  1  0  0  0  0
 27  6  1  0  0  0  0
 30 13  1  0  0  0  0
 32 23  1  0  0  0  0
 33 23  1  0  0  0  0
 35 24  1  0  0  0  0
 37 24  1  0  0  0  0
M  END
>  <Pose>
1

>  <Score>
-4.58

$$$$
