
 OpenBabel03232221553D

 41 44  0  0  0  0  0  0  0  0999 V2000
   -2.4900  -18.4500  -36.6270 B   0  0  0  0  0  0  0  0  0  0  0  0
   -1.0000  -18.0220  -37.7560 C   0  0  0  0  0  0  0  0  0  0  0  0
    0.2370  -18.5490  -37.5060 C   0  0  0  0  0  0  0  0  0  0  0  0
    1.3110  -18.2310  -38.3330 C   0  0  0  0  0  0  0  0  0  0  0  0
    1.0560  -17.3790  -39.3870 C   0  0  0  0  0  0  0  0  0  0  0  0
   -0.1820  -16.8590  -39.6270 C   0  0  0  0  0  0  0  0  0  0  0  0
   -1.2590  -17.1670  -38.8130 C   0  0  0  0  0  0  0  0  0  0  0  0
    2.1620  -17.0720  -40.2090 O   0  0  0  0  0  0  0  0  0  0  0  0
    2.2880  -15.7970  -40.8110 C   0  0  0  0  0  0  0  0  0  0  0  0
    2.6530  -18.7200  -38.0320 C   0  0  0  0  0  0  0  0  0  0  0  0
    3.4970  -19.5160  -38.6810 N   0  0  0  0  0  0  0  0  0  0  0  0
    4.6420  -19.6710  -37.9550 C   0  0  0  0  0  0  0  0  0  0  0  0
    4.4520  -18.9370  -36.8330 N   0  0  0  0  0  0  0  0  0  0  0  0
    3.2780  -18.3680  -36.8650 N   0  0  0  0  0  0  0  0  0  0  0  0
    5.5050  -20.4750  -38.5960 N   0  0  0  0  0  0  0  0  0  0  0  0
    4.9590  -20.8650  -39.7420 C   0  0  0  0  0  0  0  0  0  0  0  0
    3.6910  -20.2620  -39.7980 C   0  0  0  0  0  0  0  0  0  0  0  0
    2.8980  -20.4910  -40.8520 N   0  0  0  0  0  0  0  0  0  0  0  0
    3.3640  -21.3060  -41.8370 C   0  0  0  0  0  0  0  0  0  0  0  0
    2.5910  -21.5030  -42.8260 O   0  0  0  0  0  0  0  0  0  0  0  0
    4.5550  -21.8980  -41.8330 N   0  0  0  0  0  0  0  0  0  0  0  0
    5.3470  -21.6740  -40.7830 C   0  0  0  0  0  0  0  0  0  0  0  0
    6.4840  -22.2090  -40.7280 O   0  0  0  0  0  0  0  0  0  0  0  0
    4.9850  -22.7660  -42.9430 C   0  0  0  0  0  0  0  0  0  0  0  0
    1.5780  -19.9390  -40.9570 C   0  0  0  0  0  0  0  0  0  0  0  0
    6.8210  -20.8680  -38.1370 C   0  0  0  0  0  0  0  0  0  0  0  0
    0.4140  -19.2160  -36.6730 H   0  0  0  0  0  0  0  0  0  0  0  0
   -0.3240  -16.1850  -40.4820 H   0  0  0  0  0  0  0  0  0  0  0  0
   -2.2400  -16.7560  -39.0040 H   0  0  0  0  0  0  0  0  0  0  0  0
    3.0870  -15.8900  -41.5840 H   0  0  0  0  0  0  0  0  0  0  0  0
    1.3590  -15.4720  -41.3040 H   0  0  0  0  0  0  0  0  0  0  0  0
    2.5890  -15.0120  -40.1140 H   0  0  0  0  0  0  0  0  0  0  0  0
    4.5140  -23.7490  -42.9020 H   0  0  0  0  0  0  0  0  0  0  0  0
    4.6790  -22.2340  -43.8850 H   0  0  0  0  0  0  0  0  0  0  0  0
    6.0810  -22.7720  -42.9450 H   0  0  0  0  0  0  0  0  0  0  0  0
    1.0780  -20.4840  -41.8430 H   0  0  0  0  0  0  0  0  0  0  0  0
    1.5440  -18.9030  -41.2660 H   0  0  0  0  0  0  0  0  0  0  0  0
    0.9690  -20.2560  -40.1200 H   0  0  0  0  0  0  0  0  0  0  0  0
    7.0040  -21.9390  -38.3980 H   0  0  0  0  0  0  0  0  0  0  0  0
    7.5660  -20.2390  -38.6660 H   0  0  0  0  0  0  0  0  0  0  0  0
    6.9150  -20.8120  -37.0310 H   0  0  0  0  0  0  0  0  0  0  0  0
  2  3  1  0  0  0  0
  2  1  1  0  0  0  0
  3 27  1  0  0  0  0
  4 10  1  0  0  0  0
  4  3  2  0  0  0  0
  5  4  1  0  0  0  0
  6  5  2  0  0  0  0
  6  7  1  0  0  0  0
  7  2  2  0  0  0  0
  8  5  1  0  0  0  0
  9  8  1  0  0  0  0
  9 32  1  0  0  0  0
 10 14  2  0  0  0  0
 11 10  1  0  0  0  0
 11 12  1  0  0  0  0
 12 13  2  0  0  0  0
 14 13  1  0  0  0  0
 15 26  1  0  0  0  0
 15 12  1  0  0  0  0
 16 15  1  0  0  0  0
 17 16  2  0  0  0  0
 17 11  1  0  0  0  0
 18 17  1  0  0  0  0
 19 21  1  0  0  0  0
 19 18  1  0  0  0  0
 20 19  2  0  0  0  0
 21 22  1  0  0  0  0
 22 23  2  0  0  0  0
 22 16  1  0  0  0  0
 24 33  1  0  0  0  0
 24 21  1  0  0  0  0
 25 18  1  0  0  0  0
 25 38  1  0  0  0  0
 26 41  1  0  0  0  0
 28  6  1  0  0  0  0
 29  7  1  0  0  0  0
 30  9  1  0  0  0  0
 31  9  1  0  0  0  0
 34 24  1  0  0  0  0
 35 24  1  0  0  0  0
 36 25  1  0  0  0  0
 37 25  1  0  0  0  0
 39 26  1  0  0  0  0
 40 26  1  0  0  0  0
M  END
>  <Pose>
1

>  <Score>
-3.88

$$$$
