
 OpenBabel03232221553D

 40 43  0  0  0  0  0  0  0  0999 V2000
    1.8940  -17.2660  -36.0320 Cl  0  0  0  0  0  0  0  0  0  0  0  0
    2.5500  -18.2010  -37.3660 C   0  0  0  0  0  0  0  0  0  0  0  0
    3.8460  -18.6780  -37.3680 C   0  0  0  0  0  0  0  0  0  0  0  0
    4.3440  -19.4010  -38.4060 N   0  0  0  0  0  0  0  0  0  0  0  0
    3.6130  -19.7010  -39.4930 C   0  0  0  0  0  0  0  0  0  0  0  0
    4.0970  -20.4160  -40.5260 N   0  0  0  0  0  0  0  0  0  0  0  0
    5.3580  -20.8830  -40.5370 C   0  0  0  0  0  0  0  0  0  0  0  0
    6.1240  -20.5780  -39.4110 C   0  0  0  0  0  0  0  0  0  0  0  0
    5.6180  -19.8440  -38.3590 C   0  0  0  0  0  0  0  0  0  0  0  0
    6.3220  -19.5680  -37.3350 O   0  0  0  0  0  0  0  0  0  0  0  0
    5.9360  -21.6760  -41.6520 C   0  0  0  0  0  0  0  0  0  0  0  0
    4.8930  -22.3350  -42.3470 N   0  0  0  0  0  0  0  0  0  0  0  0
    4.2900  -23.4550  -41.7280 C   0  0  0  0  0  0  0  0  0  0  0  0
    3.7360  -24.4860  -42.6980 C   0  0  0  0  0  0  0  0  0  0  0  0
    4.8270  -24.7570  -43.6710 C   0  0  0  0  0  0  0  0  0  0  0  0
    5.4410  -23.6450  -44.2100 C   0  0  0  0  0  0  0  0  0  0  0  0
    6.4330  -23.8390  -45.0920 N   0  0  0  0  0  0  0  0  0  0  0  0
    6.8140  -25.1070  -45.4390 C   0  0  0  0  0  0  0  0  0  0  0  0
    6.1880  -26.1750  -44.8890 N   0  0  0  0  0  0  0  0  0  0  0  0
    5.1830  -26.0460  -43.9940 C   0  0  0  0  0  0  0  0  0  0  0  0
    7.9120  -25.3350  -46.4140 C   0  0  0  0  0  0  0  0  0  0  0  0
    4.9520  -22.3160  -43.7690 C   0  0  0  0  0  0  0  0  0  0  0  0
    2.3050  -19.2340  -39.5170 C   0  0  0  0  0  0  0  0  0  0  0  0
    1.7820  -18.4980  -38.4730 C   0  0  0  0  0  0  0  0  0  0  0  0
    4.4630  -18.4490  -36.4960 H   0  0  0  0  0  0  0  0  0  0  0  0
    7.1390  -20.9360  -39.3860 H   0  0  0  0  0  0  0  0  0  0  0  0
    6.4560  -20.9520  -42.3210 H   0  0  0  0  0  0  0  0  0  0  0  0
    6.6650  -22.3790  -41.2200 H   0  0  0  0  0  0  0  0  0  0  0  0
    3.4880  -23.1960  -41.0030 H   0  0  0  0  0  0  0  0  0  0  0  0
    5.0870  -24.0130  -41.1550 H   0  0  0  0  0  0  0  0  0  0  0  0
    2.8860  -23.9740  -43.2330 H   0  0  0  0  0  0  0  0  0  0  0  0
    3.4270  -25.3830  -42.1670 H   0  0  0  0  0  0  0  0  0  0  0  0
    4.7040  -26.9190  -43.5750 H   0  0  0  0  0  0  0  0  0  0  0  0
    8.0590  -24.4020  -46.9910 H   0  0  0  0  0  0  0  0  0  0  0  0
    8.8320  -25.5450  -45.8110 H   0  0  0  0  0  0  0  0  0  0  0  0
    7.6730  -26.1700  -47.1010 H   0  0  0  0  0  0  0  0  0  0  0  0
    3.9730  -22.0720  -44.2500 H   0  0  0  0  0  0  0  0  0  0  0  0
    5.6750  -21.5310  -44.0760 H   0  0  0  0  0  0  0  0  0  0  0  0
    1.7040  -19.4720  -40.3970 H   0  0  0  0  0  0  0  0  0  0  0  0
    0.7500  -18.1340  -38.5000 H   0  0  0  0  0  0  0  0  0  0  0  0
  2  1  1  0  0  0  0
  3  2  1  0  0  0  0
  3 25  1  0  0  0  0
  4  9  1  0  0  0  0
  4  3  1  0  0  0  0
  5  4  1  0  0  0  0
  6  5  1  0  0  0  0
  7  6  2  0  0  0  0
  7  8  1  0  0  0  0
  8 26  1  0  0  0  0
  8  9  1  0  0  0  0
  9 10  2  0  0  0  0
 11 28  1  0  0  0  0
 11  7  1  0  0  0  0
 12 13  1  0  0  0  0
 12 11  1  0  0  0  0
 13 30  1  0  0  0  0
 13 29  1  0  0  0  0
 14 32  1  0  0  0  0
 14 13  1  0  0  0  0
 15 14  1  0  0  0  0
 16 22  1  0  0  0  0
 16 15  2  0  0  0  0
 17 16  1  0  0  0  0
 18 17  2  0  0  0  0
 18 19  1  0  0  0  0
 19 20  2  0  0  0  0
 20 15  1  0  0  0  0
 20 33  1  0  0  0  0
 21 35  1  0  0  0  0
 21 18  1  0  0  0  0
 22 12  1  0  0  0  0
 23  5  2  0  0  0  0
 23 24  1  0  0  0  0
 24  2  2  0  0  0  0
 27 11  1  0  0  0  0
 31 14  1  0  0  0  0
 34 21  1  0  0  0  0
 36 21  1  0  0  0  0
 37 22  1  0  0  0  0
 38 22  1  0  0  0  0
 39 23  1  0  0  0  0
 40 24  1  0  0  0  0
M  END
>  <Pose>
1

>  <Score>
-3.19

$$$$
