
 OpenBabel03232221553D

 50 53  0  0  1  0  0  0  0  0999 V2000
    6.6850  -18.8900  -37.7360 Cl  0  0  0  0  0  0  0  0  0  0  0  0
    5.2940  -19.5200  -38.6140 C   0  0  0  0  0  0  0  0  0  0  0  0
    5.5010  -20.0070  -39.9180 C   0  0  0  0  0  0  0  0  0  0  0  0
    4.4230  -20.4990  -40.5930 C   0  0  0  0  0  0  0  0  0  0  0  0
    3.1540  -20.5210  -40.0310 C   0  0  0  0  0  0  0  0  0  0  0  0
    2.9820  -20.0360  -38.7550 C   0  0  0  0  0  0  0  0  0  0  0  0
    4.0440  -19.5340  -38.0360 C   0  0  0  0  0  0  0  0  0  0  0  0
    1.5960  -20.0710  -38.1720 C   0  0  0  0  0  0  0  0  0  0  0  0
    4.9310  -21.0620  -41.8810 C   0  0  2  0  0  0  0  0  0  0  0  0
    4.0850  -20.8750  -42.9910 N   0  0  0  0  0  0  0  0  0  0  0  0
    3.1940  -22.0000  -43.0280 C   0  0  2  0  0  0  0  0  0  0  0  0
    3.6580  -23.0190  -42.0680 C   0  0  2  0  0  0  0  0  0  0  0  0
    5.0880  -22.5480  -41.7900 C   0  0  1  0  0  0  0  0  0  0  0  0
    5.7940  -23.1340  -42.9140 C   0  0  0  0  0  0  0  0  0  0  0  0
    6.7340  -22.7410  -43.6390 O   0  0  0  0  0  0  0  0  0  0  0  0
    5.1690  -24.4300  -43.1070 N   0  0  0  0  0  0  0  0  0  0  0  0
    3.8590  -24.3750  -42.5620 C   0  0  0  0  0  0  0  0  0  0  0  0
    3.0600  -25.3210  -42.5280 O   0  0  0  0  0  0  0  0  0  0  0  0
    5.7310  -25.6020  -43.7240 C   0  0  0  0  0  0  0  0  0  0  0  0
    4.8970  -26.2440  -44.7690 C   0  0  0  0  0  0  0  0  0  0  0  0
    4.8920  -27.6040  -44.8340 O   0  0  0  0  0  0  0  0  0  0  0  0
    5.4000  -28.1400  -46.0000 C   0  0  0  0  0  0  0  0  0  0  0  0
    2.9490  -22.4920  -44.4420 C   0  0  1  0  0  0  0  0  0  0  0  0
    4.0510  -22.9630  -45.0910 O   0  0  0  0  0  0  0  0  0  0  0  0
    1.7440  -23.3740  -44.4560 C   0  0  0  0  0  0  0  0  0  0  0  0
    6.2600  -20.4690  -42.0070 C   0  0  0  0  0  0  0  0  0  0  0  0
    7.0310  -20.3470  -43.0110 O   0  0  0  0  0  0  0  0  0  0  0  0
    6.6560  -19.9790  -40.7480 N   0  0  0  0  0  0  0  0  0  0  0  0
    2.2670  -20.8940  -40.5440 H   0  0  0  0  0  0  0  0  0  0  0  0
    3.8780  -19.1570  -37.0220 H   0  0  0  0  0  0  0  0  0  0  0  0
    1.1490  -21.0610  -38.3960 H   0  0  0  0  0  0  0  0  0  0  0  0
    0.9360  -19.3190  -38.6940 H   0  0  0  0  0  0  0  0  0  0  0  0
    1.6050  -19.9150  -37.0900 H   0  0  0  0  0  0  0  0  0  0  0  0
    3.5600  -19.9680  -42.9620 H   0  0  0  0  0  0  0  0  0  0  0  0
    2.1580  -21.6660  -42.7010 H   0  0  0  0  0  0  0  0  0  0  0  0
    3.1580  -22.9910  -41.0690 H   0  0  0  0  0  0  0  0  0  0  0  0
    5.4300  -22.8940  -40.7950 H   0  0  0  0  0  0  0  0  0  0  0  0
    6.7070  -25.3340  -44.1920 H   0  0  0  0  0  0  0  0  0  0  0  0
    5.9890  -26.3350  -42.9210 H   0  0  0  0  0  0  0  0  0  0  0  0
    5.2760  -25.8680  -45.7630 H   0  0  0  0  0  0  0  0  0  0  0  0
    3.8500  -25.8580  -44.7290 H   0  0  0  0  0  0  0  0  0  0  0  0
    6.4370  -27.8550  -46.1870 H   0  0  0  0  0  0  0  0  0  0  0  0
    5.3490  -29.2470  -45.9090 H   0  0  0  0  0  0  0  0  0  0  0  0
    4.7420  -27.7850  -46.8360 H   0  0  0  0  0  0  0  0  0  0  0  0
    2.6640  -21.5390  -44.9990 H   0  0  0  0  0  0  0  0  0  0  0  0
    4.0700  -23.9460  -45.2150 H   0  0  0  0  0  0  0  0  0  0  0  0
    0.9810  -22.9460  -45.1770 H   0  0  0  0  0  0  0  0  0  0  0  0
    1.9460  -24.3850  -44.8710 H   0  0  0  0  0  0  0  0  0  0  0  0
    1.2740  -23.3700  -43.4640 H   0  0  0  0  0  0  0  0  0  0  0  0
    7.5970  -19.6430  -40.4220 H   0  0  0  0  0  0  0  0  0  0  0  0
  2  7  1  0  0  0  0
  2  1  1  0  0  0  0
  3  2  2  0  0  0  0
  4  5  2  0  0  0  0
  4  3  1  0  0  0  0
  5  6  1  0  0  0  0
  6  8  1  0  0  0  0
  6  7  2  0  0  0  0
  7 30  1  0  0  0  0
  8 33  1  0  0  0  0
  9 26  1  6  0  0  0
  9 13  1  0  0  0  0
  9  4  1  0  0  0  0
 10 34  1  0  0  0  0
 10  9  1  0  0  0  0
 11 10  1  0  0  0  0
 11 35  1  1  0  0  0
 11 12  1  0  0  0  0
 12 13  1  0  0  0  0
 12 36  1  1  0  0  0
 13 37  1  1  0  0  0
 14 13  1  0  0  0  0
 15 14  2  0  0  0  0
 16 14  1  0  0  0  0
 16 17  1  0  0  0  0
 17 18  2  0  0  0  0
 17 12  1  0  0  0  0
 19 16  1  0  0  0  0
 19 39  1  0  0  0  0
 20 41  1  0  0  0  0
 20 19  1  0  0  0  0
 21 20  1  0  0  0  0
 22 43  1  0  0  0  0
 22 21  1  0  0  0  0
 23 45  1  6  0  0  0
 23 11  1  0  0  0  0
 24 23  1  0  0  0  0
 25 23  1  0  0  0  0
 25 49  1  0  0  0  0
 26 28  1  0  0  0  0
 27 26  2  0  0  0  0
 28 50  1  0  0  0  0
 28  3  1  0  0  0  0
 29  5  1  0  0  0  0
 31  8  1  0  0  0  0
 32  8  1  0  0  0  0
 38 19  1  0  0  0  0
 40 20  1  0  0  0  0
 42 22  1  0  0  0  0
 44 22  1  0  0  0  0
 46 24  1  0  0  0  0
 47 25  1  0  0  0  0
 48 25  1  0  0  0  0
M  END
>  <Pose>
1

>  <Score>
-4.84

$$$$
