
 OpenBabel03232221553D

 55 58  0  0  0  0  0  0  0  0999 V2000
   14.4870  -24.1090  -42.3500 B   0  0  0  0  0  0  0  0  0  0  0  0
   12.9200  -23.6130  -43.2980 C   0  0  0  0  0  0  0  0  0  0  0  0
   11.8450  -24.5020  -43.4770 C   0  0  0  0  0  0  0  0  0  0  0  0
   10.7280  -24.1160  -44.1720 C   0  0  0  0  0  0  0  0  0  0  0  0
   10.6600  -22.8460  -44.6940 C   0  0  0  0  0  0  0  0  0  0  0  0
   11.7330  -21.9600  -44.5130 C   0  0  0  0  0  0  0  0  0  0  0  0
   12.8400  -22.3440  -43.8280 C   0  0  0  0  0  0  0  0  0  0  0  0
    9.5320  -22.5220  -45.3660 O   0  0  0  0  0  0  0  0  0  0  0  0
    9.1190  -22.9940  -46.6020 C   0  0  0  0  0  0  0  0  0  0  0  0
    9.6030  -25.0290  -44.3180 C   0  0  0  0  0  0  0  0  0  0  0  0
    8.3660  -24.7970  -44.0150 C   0  0  0  0  0  0  0  0  0  0  0  0
    7.8560  -23.6420  -43.4930 O   0  0  0  0  0  0  0  0  0  0  0  0
    6.4810  -23.7900  -43.3180 C   0  0  0  0  0  0  0  0  0  0  0  0
    6.0450  -25.0170  -43.7030 C   0  0  0  0  0  0  0  0  0  0  0  0
    4.6910  -25.3630  -43.6250 C   0  0  0  0  0  0  0  0  0  0  0  0
    3.7420  -24.4910  -43.1570 C   0  0  0  0  0  0  0  0  0  0  0  0
    4.2430  -23.2370  -42.7660 C   0  0  0  0  0  0  0  0  0  0  0  0
    5.5440  -22.8700  -42.8350 C   0  0  0  0  0  0  0  0  0  0  0  0
    6.0790  -21.5740  -42.3780 C   0  0  0  0  0  0  0  0  0  0  0  0
    6.3600  -20.6950  -43.4880 N   0  0  0  0  0  4  0  0  0  0  0  0
    7.7960  -20.6350  -43.6980 C   0  0  0  0  0  0  0  0  0  0  0  0
    8.3170  -19.3060  -44.0500 C   0  0  0  0  0  0  0  0  0  0  0  0
    7.4360  -18.4550  -44.7830 N   0  0  0  0  0  0  0  0  0  0  0  0
    6.1110  -18.8540  -44.9360 C   0  0  0  0  0  0  0  0  0  0  0  0
    5.6180  -19.5390  -43.6340 C   0  0  0  0  0  0  0  0  0  0  0  0
    7.7180  -17.0700  -44.7570 C   0  0  0  0  0  0  0  0  0  0  0  0
    7.5040  -16.3950  -43.4490 C   0  0  0  0  0  0  0  0  0  0  0  0
    3.2310  -22.3840  -42.2770 O   0  0  0  0  0  0  0  0  0  0  0  0
    7.2440  -25.7230  -44.1690 C   0  0  0  0  0  0  0  0  0  0  0  0
    7.2900  -26.9050  -44.6200 O   0  0  0  0  0  0  0  0  0  0  0  0
   11.9790  -25.4770  -43.0400 H   0  0  0  0  0  0  0  0  0  0  0  0
   11.6790  -20.9510  -44.9210 H   0  0  0  0  0  0  0  0  0  0  0  0
   13.6410  -21.6160  -43.7140 H   0  0  0  0  0  0  0  0  0  0  0  0
    8.0870  -23.4420  -46.5660 H   0  0  0  0  0  0  0  0  0  0  0  0
    9.7400  -23.7760  -47.0700 H   0  0  0  0  0  0  0  0  0  0  0  0
    9.0980  -22.1400  -47.3620 H   0  0  0  0  0  0  0  0  0  0  0  0
    9.7860  -26.0500  -44.7390 H   0  0  0  0  0  0  0  0  0  0  0  0
    4.4510  -26.3680  -43.9640 H   0  0  0  0  0  0  0  0  0  0  0  0
    2.7070  -24.7270  -43.0870 H   0  0  0  0  0  0  0  0  0  0  0  0
    6.9170  -21.6990  -41.6770 H   0  0  0  0  0  0  0  0  0  0  0  0
    5.2580  -21.1200  -41.7270 H   0  0  0  0  0  0  0  0  0  0  0  0
    6.0290  -21.3400  -44.3430 H   0  0  0  0  0  0  0  0  0  0  0  0
    8.1090  -21.4140  -44.4370 H   0  0  0  0  0  0  0  0  0  0  0  0
    8.2800  -20.9620  -42.7490 H   0  0  0  0  0  0  0  0  0  0  0  0
    8.7620  -18.8040  -43.1560 H   0  0  0  0  0  0  0  0  0  0  0  0
    9.2140  -19.4710  -44.7290 H   0  0  0  0  0  0  0  0  0  0  0  0
    5.4420  -18.0680  -45.2570 H   0  0  0  0  0  0  0  0  0  0  0  0
    6.0340  -19.6950  -45.6800 H   0  0  0  0  0  0  0  0  0  0  0  0
    4.5580  -19.8100  -43.9490 H   0  0  0  0  0  0  0  0  0  0  0  0
    5.5290  -18.8680  -42.7970 H   0  0  0  0  0  0  0  0  0  0  0  0
    8.8050  -16.9420  -45.0370 H   0  0  0  0  0  0  0  0  0  0  0  0
    7.1260  -16.5980  -45.5880 H   0  0  0  0  0  0  0  0  0  0  0  0
    6.9450  -16.9830  -42.7170 H   0  0  0  0  0  0  0  0  0  0  0  0
    8.4710  -16.0480  -42.9980 H   0  0  0  0  0  0  0  0  0  0  0  0
    6.9010  -15.4880  -43.6390 H   0  0  0  0  0  0  0  0  0  0  0  0
  2  1  1  0  0  0  0
  3  2  1  0  0  0  0
  3 31  1  0  0  0  0
  4  3  2  0  0  0  0
  5  6  2  0  0  0  0
  5  4  1  0  0  0  0
  6  7  1  0  0  0  0
  7 33  1  0  0  0  0
  7  2  2  0  0  0  0
  8  5  1  0  0  0  0
  9 34  1  0  0  0  0
  9  8  1  0  0  0  0
 10  4  1  0  0  0  0
 10 11  2  0  0  0  0
 11 12  1  0  0  0  0
 12 13  1  0  0  0  0
 13 18  1  0  0  0  0
 14 15  1  0  0  0  0
 14 13  2  0  0  0  0
 15 16  2  0  0  0  0
 16 39  1  0  0  0  0
 16 17  1  0  0  0  0
 17 28  1  0  0  0  0
 18 17  2  0  0  0  0
 18 19  1  0  0  0  0
 19 41  1  0  0  0  0
 19 40  1  0  0  0  0
 20 19  1  0  0  0  0
 21 20  1  0  0  0  0
 21 44  1  0  0  0  0
 22 21  1  0  0  0  0
 22 45  1  0  0  0  0
 23 26  1  0  0  0  0
 23 22  1  0  0  0  0
 24 23  1  0  0  0  0
 24 25  1  0  0  0  0
 25 20  1  0  0  0  0
 25 50  1  0  0  0  0
 26 27  1  0  0  0  0
 27 54  1  0  0  0  0
 27 53  1  0  0  0  0
 29 11  1  0  0  0  0
 29 14  1  0  0  0  0
 30 29  2  0  0  0  0
 32  6  1  0  0  0  0
 35  9  1  0  0  0  0
 36  9  1  0  0  0  0
 37 10  1  0  0  0  0
 38 15  1  0  0  0  0
 42 20  1  0  0  0  0
 43 21  1  0  0  0  0
 46 22  1  0  0  0  0
 47 24  1  0  0  0  0
 48 24  1  0  0  0  0
 49 25  1  0  0  0  0
 51 26  1  0  0  0  0
 52 26  1  0  0  0  0
 55 27  1  0  0  0  0
M  END
>  <Pose>
1

>  <Score>
-3.75

$$$$
