
 OpenBabel03232221553D

 48 51  0  0  0  0  0  0  0  0999 V2000
    6.4240  -22.3150  -43.0590 B   0  0  0  0  0  0  0  0  0  0  0  0
    4.6690  -22.9780  -42.7270 C   0  0  0  0  0  0  0  0  0  0  0  0
    3.5830  -22.2040  -42.4340 C   0  0  0  0  0  0  0  0  0  0  0  0
    2.3230  -22.7080  -42.1990 C   0  0  0  0  0  0  0  0  0  0  0  0
    2.1730  -24.0960  -42.2700 C   0  0  0  0  0  0  0  0  0  0  0  0
    3.2260  -24.9210  -42.5580 C   0  0  0  0  0  0  0  0  0  0  0  0
    4.4740  -24.3550  -42.7860 C   0  0  0  0  0  0  0  0  0  0  0  0
    0.9180  -24.6270  -42.0430 O   0  0  0  0  0  0  0  0  0  0  0  0
    0.5550  -25.8590  -42.6080 C   0  0  0  0  0  0  0  0  0  0  0  0
    1.1780  -21.8630  -41.9040 C   0  0  0  0  0  0  0  0  0  0  0  0
    1.0920  -20.9810  -40.9480 C   0  0  0  0  0  0  0  0  0  0  0  0
    2.1060  -20.7020  -40.0440 O   0  0  0  0  0  0  0  0  0  0  0  0
    1.7350  -19.7240  -39.1400 C   0  0  0  0  0  0  0  0  0  0  0  0
    0.4510  -19.2950  -39.3910 C   0  0  0  0  0  0  0  0  0  0  0  0
   -0.1190  -18.3180  -38.6030 C   0  0  0  0  0  0  0  0  0  0  0  0
    0.6070  -17.7770  -37.5630 C   0  0  0  0  0  0  0  0  0  0  0  0
    1.9190  -18.2330  -37.3270 C   0  0  0  0  0  0  0  0  0  0  0  0
    2.5030  -19.1950  -38.0930 C   0  0  0  0  0  0  0  0  0  0  0  0
    3.8410  -19.6850  -37.9110 C   0  0  0  0  0  0  0  0  0  0  0  0
    4.9520  -19.1350  -38.5730 N   0  0  0  0  0  4  0  0  0  0  0  0
    6.2140  -19.2690  -37.8980 C   0  0  0  0  0  0  0  0  0  0  0  0
    6.8820  -20.6070  -38.1010 C   0  0  0  0  0  0  0  0  0  0  0  0
    6.1020  -21.5160  -38.8030 O   0  0  0  0  0  0  0  0  0  0  0  0
    5.8330  -20.9310  -40.0350 C   0  0  0  0  0  0  0  0  0  0  0  0
    5.0910  -19.6370  -39.9520 C   0  0  0  0  0  0  0  0  0  0  0  0
    2.5330  -17.5950  -36.2380 O   0  0  0  0  0  0  0  0  0  0  0  0
    0.0070  -20.0810  -40.5470 C   0  0  0  0  0  0  0  0  0  0  0  0
   -1.1090  -20.0070  -41.1080 O   0  0  0  0  0  0  0  0  0  0  0  0
    3.7400  -21.1230  -42.3890 H   0  0  0  0  0  0  0  0  0  0  0  0
    3.1620  -26.0130  -42.6220 H   0  0  0  0  0  0  0  0  0  0  0  0
    5.3290  -25.0070  -43.0190 H   0  0  0  0  0  0  0  0  0  0  0  0
   -0.5740  -25.9260  -42.6850 H   0  0  0  0  0  0  0  0  0  0  0  0
    0.8650  -26.6860  -41.9200 H   0  0  0  0  0  0  0  0  0  0  0  0
    0.9160  -25.9970  -43.6480 H   0  0  0  0  0  0  0  0  0  0  0  0
    0.2860  -21.9710  -42.5440 H   0  0  0  0  0  0  0  0  0  0  0  0
   -1.1350  -17.9840  -38.8120 H   0  0  0  0  0  0  0  0  0  0  0  0
    0.2150  -17.0100  -36.9140 H   0  0  0  0  0  0  0  0  0  0  0  0
    4.1360  -19.7180  -36.8020 H   0  0  0  0  0  0  0  0  0  0  0  0
    3.8930  -20.8180  -38.1420 H   0  0  0  0  0  0  0  0  0  0  0  0
    4.7890  -18.1180  -38.7250 H   0  0  0  0  0  0  0  0  0  0  0  0
    6.8970  -18.5060  -38.3800 H   0  0  0  0  0  0  0  0  0  0  0  0
    6.1460  -18.9930  -36.8460 H   0  0  0  0  0  0  0  0  0  0  0  0
    7.8510  -20.5240  -38.6740 H   0  0  0  0  0  0  0  0  0  0  0  0
    7.1770  -21.0270  -37.1190 H   0  0  0  0  0  0  0  0  0  0  0  0
    5.1510  -21.6520  -40.5770 H   0  0  0  0  0  0  0  0  0  0  0  0
    6.7830  -20.8650  -40.6400 H   0  0  0  0  0  0  0  0  0  0  0  0
    4.0840  -19.6770  -40.4160 H   0  0  0  0  0  0  0  0  0  0  0  0
    5.6560  -18.8880  -40.5440 H   0  0  0  0  0  0  0  0  0  0  0  0
  1  2  1  0  0  0  0
  2  3  1  0  0  0  0
  3 29  1  0  0  0  0
  3  4  2  0  0  0  0
  4 10  1  0  0  0  0
  5  4  1  0  0  0  0
  5  8  1  0  0  0  0
  6  5  2  0  0  0  0
  7  2  2  0  0  0  0
  7  6  1  0  0  0  0
  9  8  1  0  0  0  0
  9 33  1  0  0  0  0
 10 11  2  0  0  0  0
 11 27  1  0  0  0  0
 11 12  1  0  0  0  0
 12 13  1  0  0  0  0
 13 18  1  0  0  0  0
 14 13  2  0  0  0  0
 14 15  1  0  0  0  0
 15 16  2  0  0  0  0
 16 17  1  0  0  0  0
 16 37  1  0  0  0  0
 17 26  1  0  0  0  0
 18 19  1  0  0  0  0
 18 17  2  0  0  0  0
 19 38  1  0  0  0  0
 20 19  1  0  0  0  0
 20 21  1  0  0  0  0
 21 42  1  0  0  0  0
 22 21  1  0  0  0  0
 22 44  1  0  0  0  0
 23 22  1  0  0  0  0
 24 25  1  0  0  0  0
 24 23  1  0  0  0  0
 25 20  1  0  0  0  0
 27 14  1  0  0  0  0
 28 27  2  0  0  0  0
 30  6  1  0  0  0  0
 31  7  1  0  0  0  0
 32  9  1  0  0  0  0
 34  9  1  0  0  0  0
 35 10  1  0  0  0  0
 36 15  1  0  0  0  0
 39 19  1  0  0  0  0
 40 20  1  0  0  0  0
 41 21  1  0  0  0  0
 43 22  1  0  0  0  0
 45 24  1  0  0  0  0
 46 24  1  0  0  0  0
 47 25  1  0  0  0  0
 48 25  1  0  0  0  0
M  END
>  <Pose>
1

>  <Score>
-4.25

$$$$
