
 OpenBabel03232221553D

 49 52  0  0  0  0  0  0  0  0999 V2000
    7.8060  -15.9130  -44.0630 S   0  0  0  0  0  0  0  0  0  0  0  0
    6.8800  -15.2450  -45.0710 O   0  0  0  0  0  0  0  0  0  0  0  0
    6.9130  -16.2110  -42.8630 O   0  0  0  0  0  0  0  0  0  0  0  0
    8.3080  -17.3750  -44.7180 N   0  0  0  0  0  0  0  0  0  0  0  0
    7.5130  -17.8700  -45.8150 C   0  0  0  0  0  0  0  0  0  0  0  0
    7.0030  -19.2580  -45.4330 C   0  0  0  0  0  0  0  0  0  0  0  0
    6.5960  -19.2580  -44.0790 N   0  0  0  0  0  0  0  0  0  0  0  0
    7.8210  -19.2530  -43.1620 C   0  0  0  0  0  0  0  0  0  0  0  0
    8.8040  -18.3550  -43.8250 C   0  0  0  0  0  0  0  0  0  0  0  0
    5.3690  -19.2100  -43.4850 C   0  0  0  0  0  0  0  0  0  0  0  0
    4.4150  -18.8840  -44.4240 O   0  0  0  0  0  0  0  0  0  0  0  0
    4.7460  -19.3790  -42.2320 C   0  0  0  0  0  0  0  0  0  0  0  0
    5.0080  -19.3730  -40.9670 C   0  0  0  0  0  0  0  0  0  0  0  0
    6.2870  -19.1510  -40.4330 N   0  0  0  0  0  0  0  0  0  0  0  0
    6.5830  -19.0810  -39.0540 N   0  0  0  0  0  0  0  0  0  0  0  0
    5.5460  -19.2420  -38.1300 C   0  0  0  0  0  0  0  0  0  0  0  0
    5.7950  -19.1820  -36.8970 O   0  0  0  0  0  0  0  0  0  0  0  0
    4.1800  -19.4800  -38.6300 C   0  0  0  0  0  0  0  0  0  0  0  0
    3.8980  -19.5460  -39.9820 C   0  0  0  0  0  0  0  0  0  0  0  0
    2.6120  -19.7680  -40.3580 C   0  0  0  0  0  0  0  0  0  0  0  0
    1.6170  -19.9210  -39.3870 C   0  0  0  0  0  0  0  0  0  0  0  0
    1.8910  -19.8560  -38.0440 C   0  0  0  0  0  0  0  0  0  0  0  0
    3.1980  -19.6310  -37.6680 C   0  0  0  0  0  0  0  0  0  0  0  0
    9.0570  -14.8560  -43.5410 C   0  0  0  0  0  0  0  0  0  0  0  0
    8.7770  -13.6730  -42.9060 C   0  0  0  0  0  0  0  0  0  0  0  0
    9.8020  -12.8390  -42.4950 C   0  0  0  0  0  0  0  0  0  0  0  0
   11.1260  -13.1540  -42.7030 C   0  0  0  0  0  0  0  0  0  0  0  0
   11.4150  -14.3470  -43.3450 C   0  0  0  0  0  0  0  0  0  0  0  0
   10.3740  -15.1780  -43.7530 C   0  0  0  0  0  0  0  0  0  0  0  0
   12.3860  -12.0620  -42.1640 Cl  0  0  0  0  0  0  0  0  0  0  0  0
    6.7040  -17.2010  -46.1290 H   0  0  0  0  0  0  0  0  0  0  0  0
    8.1870  -18.0130  -46.6810 H   0  0  0  0  0  0  0  0  0  0  0  0
    7.9690  -19.9000  -45.4930 H   0  0  0  0  0  0  0  0  0  0  0  0
    6.3520  -19.7240  -46.1480 H   0  0  0  0  0  0  0  0  0  0  0  0
    8.1400  -20.3090  -43.1880 H   0  0  0  0  0  0  0  0  0  0  0  0
    7.5040  -18.9640  -42.1510 H   0  0  0  0  0  0  0  0  0  0  0  0
    9.5170  -19.0100  -44.4080 H   0  0  0  0  0  0  0  0  0  0  0  0
    9.4560  -17.8360  -43.0860 H   0  0  0  0  0  0  0  0  0  0  0  0
    3.6160  -19.6010  -42.3990 H   0  0  0  0  0  0  0  0  0  0  0  0
    7.1020  -19.0660  -41.0440 H   0  0  0  0  0  0  0  0  0  0  0  0
    7.5930  -18.9060  -38.7700 H   0  0  0  0  0  0  0  0  0  0  0  0
    2.3200  -19.8330  -41.3920 H   0  0  0  0  0  0  0  0  0  0  0  0
    0.6150  -20.0950  -39.7300 H   0  0  0  0  0  0  0  0  0  0  0  0
    1.1290  -19.9730  -37.2780 H   0  0  0  0  0  0  0  0  0  0  0  0
    3.4770  -19.5690  -36.6100 H   0  0  0  0  0  0  0  0  0  0  0  0
    7.7710  -13.3350  -42.6940 H   0  0  0  0  0  0  0  0  0  0  0  0
    9.5980  -11.8890  -41.9850 H   0  0  0  0  0  0  0  0  0  0  0  0
   12.4570  -14.6090  -43.5150 H   0  0  0  0  0  0  0  0  0  0  0  0
   10.6950  -16.1020  -44.2520 H   0  0  0  0  0  0  0  0  0  0  0  0
  1 24  1  0  0  0  0
  1  3  2  0  0  0  0
  2  1  2  0  0  0  0
  4  1  1  0  0  0  0
  4  9  1  0  0  0  0
  5  6  1  0  0  0  0
  5  4  1  0  0  0  0
  6  7  1  0  0  0  0
  7 10  1  0  0  0  0
  7  8  1  0  0  0  0
  8 36  1  0  0  0  0
  9  8  1  0  0  0  0
  9 38  1  0  0  0  0
 10 12  1  0  0  0  0
 11 10  2  0  0  0  0
 12 13  2  0  0  0  0
 13 14  1  0  0  0  0
 13 19  1  0  0  0  0
 14 15  1  0  0  0  0
 15 41  1  0  0  0  0
 15 16  1  0  0  0  0
 16 17  2  0  0  0  0
 18 16  1  0  0  0  0
 18 23  1  0  0  0  0
 19 18  2  0  0  0  0
 20 19  1  0  0  0  0
 20 21  2  0  0  0  0
 21 22  1  0  0  0  0
 22 23  2  0  0  0  0
 22 44  1  0  0  0  0
 23 45  1  0  0  0  0
 24 25  1  0  0  0  0
 25 46  1  0  0  0  0
 25 26  2  0  0  0  0
 26 47  1  0  0  0  0
 27 26  1  0  0  0  0
 27 30  1  0  0  0  0
 28 27  2  0  0  0  0
 29 24  2  0  0  0  0
 29 28  1  0  0  0  0
 31  5  1  0  0  0  0
 32  5  1  0  0  0  0
 33  6  1  0  0  0  0
 34  6  1  0  0  0  0
 35  8  1  0  0  0  0
 37  9  1  0  0  0  0
 39 12  1  0  0  0  0
 40 14  1  0  0  0  0
 42 20  1  0  0  0  0
 43 21  1  0  0  0  0
 48 28  1  0  0  0  0
 49 29  1  0  0  0  0
M  END
>  <Pose>
1

>  <Score>
-4.19

$$$$
