
 OpenBabel03232221553D

 49 52  0  0  1  0  0  0  0  0999 V2000
    7.0630  -25.2930  -45.4090 B   0  0  0  0  0  0  0  0  0  0  0  0
    6.3180  -24.2270  -44.0060 C   0  0  0  0  0  0  0  0  0  0  0  0
    5.0380  -24.4290  -43.5460 C   0  0  0  0  0  0  0  0  0  0  0  0
    4.4870  -23.6600  -42.5280 C   0  0  0  0  0  0  0  0  0  0  0  0
    5.2250  -22.6540  -41.9390 C   0  0  0  0  0  0  0  0  0  0  0  0
    6.5140  -22.4530  -42.4030 C   0  0  0  0  0  0  0  0  0  0  0  0
    7.0620  -23.2160  -43.4140 C   0  0  0  0  0  0  0  0  0  0  0  0
    4.7150  -21.8160  -40.8740 C   0  0  0  0  0  0  0  0  0  0  0  0
    5.3470  -21.7440  -39.6360 C   0  0  0  0  0  0  0  0  0  0  0  0
    4.9020  -20.9910  -38.6590 O   0  0  0  0  0  0  0  0  0  0  0  0
    3.8280  -20.2450  -38.7670 C   0  0  0  0  0  0  0  0  0  0  0  0
    3.1350  -20.2500  -39.9550 C   0  0  0  0  0  0  0  0  0  0  0  0
    2.0170  -19.4550  -40.0240 C   0  0  0  0  0  0  0  0  0  0  0  0
    1.5780  -18.6780  -38.9830 C   0  0  0  0  0  0  0  0  0  0  0  0
    2.2730  -18.6590  -37.7560 C   0  0  0  0  0  0  0  0  0  0  0  0
    3.3910  -19.4570  -37.6950 C   0  0  0  0  0  0  0  0  0  0  0  0
    1.7990  -17.8640  -36.7340 O   0  0  0  0  0  0  0  0  0  0  0  0
    0.9680  -16.7890  -36.8570 C   0  0  2  0  0  0  0  0  0  0  0  0
    1.3290  -15.7030  -36.0150 O   0  0  0  0  0  0  0  0  0  0  0  0
    0.7810  -14.5840  -36.6050 C   0  0  1  0  0  0  0  0  0  0  0  0
   -0.7150  -14.5770  -36.6530 C   0  0  2  0  0  0  0  0  0  0  0  0
   -1.2850  -15.9150  -37.0600 C   0  0  1  0  0  0  0  0  0  0  0  0
   -0.4800  -17.0670  -36.4950 C   0  0  1  0  0  0  0  0  0  0  0  0
   -0.9400  -18.2400  -37.0810 O   0  0  0  0  0  0  0  0  0  0  0  0
   -2.6250  -15.9780  -36.7000 O   0  0  0  0  0  0  0  0  0  0  0  0
   -1.0930  -13.6620  -37.6500 O   0  0  0  0  0  0  0  0  0  0  0  0
    1.2790  -13.2960  -35.9990 C   0  0  0  0  0  0  0  0  0  0  0  0
    2.4750  -12.8750  -36.5750 O   0  0  0  0  0  0  0  0  0  0  0  0
    3.5760  -21.0300  -41.0020 C   0  0  0  0  0  0  0  0  0  0  0  0
    2.9420  -21.0360  -42.0910 O   0  0  0  0  0  0  0  0  0  0  0  0
    4.4400  -25.2170  -43.9990 H   0  0  0  0  0  0  0  0  0  0  0  0
    3.4880  -23.8140  -42.1670 H   0  0  0  0  0  0  0  0  0  0  0  0
    7.1000  -21.6580  -41.9380 H   0  0  0  0  0  0  0  0  0  0  0  0
    8.0710  -23.0580  -43.7780 H   0  0  0  0  0  0  0  0  0  0  0  0
    6.2440  -22.3630  -39.5380 H   0  0  0  0  0  0  0  0  0  0  0  0
    1.4790  -19.4700  -40.9740 H   0  0  0  0  0  0  0  0  0  0  0  0
    0.6960  -18.0540  -39.0460 H   0  0  0  0  0  0  0  0  0  0  0  0
    3.9640  -19.4860  -36.7880 H   0  0  0  0  0  0  0  0  0  0  0  0
    0.9510  -16.4030  -37.8890 H   0  0  0  0  0  0  0  0  0  0  0  0
    1.1380  -14.5800  -37.6730 H   0  0  0  0  0  0  0  0  0  0  0  0
   -1.1770  -14.2180  -35.6990 H   0  0  0  0  0  0  0  0  0  0  0  0
   -1.2180  -15.9960  -38.1640 H   0  0  0  0  0  0  0  0  0  0  0  0
   -0.5310  -17.1200  -35.3870 H   0  0  0  0  0  0  0  0  0  0  0  0
   -0.8570  -19.0000  -36.4580 H   0  0  0  0  0  0  0  0  0  0  0  0
   -2.8990  -15.2020  -36.1210 H   0  0  0  0  0  0  0  0  0  0  0  0
   -0.2950  -13.2630  -38.0780 H   0  0  0  0  0  0  0  0  0  0  0  0
    1.3580  -13.3670  -34.8960 H   0  0  0  0  0  0  0  0  0  0  0  0
    0.5450  -12.4650  -36.1870 H   0  0  0  0  0  0  0  0  0  0  0  0
    3.1980  -13.1890  -35.9470 H   0  0  0  0  0  0  0  0  0  0  0  0
  1  2  1  0  0  0  0
  2  3  2  0  0  0  0
  2  7  1  0  0  0  0
  3  4  1  0  0  0  0
  4 32  1  0  0  0  0
  4  5  2  0  0  0  0
  5  8  1  0  0  0  0
  6  5  1  0  0  0  0
  6 33  1  0  0  0  0
  7  6  2  0  0  0  0
  8  9  2  0  0  0  0
  9 35  1  0  0  0  0
  9 10  1  0  0  0  0
 11 10  1  0  0  0  0
 11 16  1  0  0  0  0
 12 11  2  0  0  0  0
 13 12  1  0  0  0  0
 13 14  2  0  0  0  0
 14 15  1  0  0  0  0
 15 16  2  0  0  0  0
 15 17  1  0  0  0  0
 16 38  1  0  0  0  0
 18 39  1  6  0  0  0
 18 17  1  0  0  0  0
 18 23  1  0  0  0  0
 18 19  1  0  0  0  0
 20 40  1  6  0  0  0
 20 19  1  0  0  0  0
 20 27  1  0  0  0  0
 21 20  1  0  0  0  0
 21 41  1  1  0  0  0
 22 42  1  6  0  0  0
 22 25  1  0  0  0  0
 22 21  1  0  0  0  0
 22 23  1  0  0  0  0
 23 43  1  1  0  0  0
 24 23  1  0  0  0  0
 24 44  1  0  0  0  0
 25 45  1  0  0  0  0
 26 21  1  0  0  0  0
 27 47  1  0  0  0  0
 28 27  1  0  0  0  0
 28 49  1  0  0  0  0
 29  8  1  0  0  0  0
 29 12  1  0  0  0  0
 30 29  2  0  0  0  0
 31  3  1  0  0  0  0
 34  7  1  0  0  0  0
 36 13  1  0  0  0  0
 37 14  1  0  0  0  0
 46 26  1  0  0  0  0
 48 27  1  0  0  0  0
M  END
>  <Pose>
1

>  <Score>
-4.22

$$$$
