
 OpenBabel03232221553D

 54 57  0  0  0  0  0  0  0  0999 V2000
    2.0550  -25.2560  -43.5420 B   0  0  0  0  0  0  0  0  0  0  0  0
    2.1600  -23.4650  -42.8950 C   0  0  0  0  0  0  0  0  0  0  0  0
    1.0510  -22.6480  -42.8840 C   0  0  0  0  0  0  0  0  0  0  0  0
    1.1460  -21.3400  -42.4080 C   0  0  0  0  0  0  0  0  0  0  0  0
    2.3500  -20.8860  -41.9560 C   0  0  0  0  0  0  0  0  0  0  0  0
    3.4580  -21.6830  -41.9600 C   0  0  0  0  0  0  0  0  0  0  0  0
    3.3660  -22.9710  -42.4280 C   0  0  0  0  0  0  0  0  0  0  0  0
    2.4130  -19.4450  -41.4830 C   0  0  0  0  0  0  0  0  0  0  0  0
    2.6510  -19.3710  -40.0650 N   0  0  0  0  0  0  0  0  0  0  0  0
    3.9010  -19.2990  -39.5010 C   0  0  0  0  0  0  0  0  0  0  0  0
    3.7850  -19.2740  -38.1250 C   0  0  0  0  0  0  0  0  0  0  0  0
    2.4730  -19.3290  -37.8810 N   0  0  0  0  0  0  0  0  0  0  0  0
    1.7750  -19.3860  -39.0600 C   0  0  0  0  0  0  0  0  0  0  0  0
    0.3720  -19.3520  -39.0890 N   0  0  0  0  0  0  0  0  0  0  0  0
   -0.5080  -18.3250  -39.5180 C   0  0  0  0  0  0  0  0  0  0  0  0
   -1.8570  -18.3760  -38.7930 C   0  0  0  0  0  0  0  0  0  0  0  0
   -1.8480  -19.0010  -37.5350 N   0  0  0  0  0  0  0  0  0  0  0  0
   -1.1930  -20.2450  -37.4310 C   0  0  0  0  0  0  0  0  0  0  0  0
   -0.3260  -20.5820  -38.6230 C   0  0  0  0  0  0  0  0  0  0  0  0
   -2.0780  -18.2500  -36.3710 C   0  0  0  0  0  0  0  0  0  0  0  0
   -1.1740  -17.1220  -36.1010 C   0  0  0  0  0  0  0  0  0  0  0  0
   -0.3270  -17.1360  -35.1690 O   0  0  0  0  0  0  0  0  0  0  0  0
   -1.2380  -15.9910  -36.8870 O   0  0  0  0  0  0  0  0  0  0  0  0
   -0.1410  -15.1410  -37.0790 C   0  0  0  0  0  0  0  0  0  0  0  0
    4.8760  -19.1970  -37.3380 N   0  0  0  0  0  0  0  0  0  0  0  0
    6.0800  -19.1430  -37.9250 C   0  0  0  0  0  0  0  0  0  0  0  0
    7.0900  -19.0710  -37.1810 O   0  0  0  0  0  0  0  0  0  0  0  0
    6.2320  -19.1620  -39.2540 N   0  0  0  0  0  0  0  0  0  0  0  0
    5.1490  -19.2410  -40.0840 C   0  0  0  0  0  0  0  0  0  0  0  0
    5.3260  -19.2540  -41.3260 O   0  0  0  0  0  0  0  0  0  0  0  0
    4.7100  -19.1800  -35.8960 C   0  0  0  0  0  0  0  0  0  0  0  0
    0.0770  -22.9940  -43.2430 H   0  0  0  0  0  0  0  0  0  0  0  0
    0.2320  -20.7320  -42.4160 H   0  0  0  0  0  0  0  0  0  0  0  0
    4.4070  -21.3160  -41.6140 H   0  0  0  0  0  0  0  0  0  0  0  0
    4.2460  -23.5950  -42.4270 H   0  0  0  0  0  0  0  0  0  0  0  0
    1.4640  -19.0390  -41.8270 H   0  0  0  0  0  0  0  0  0  0  0  0
    3.2710  -18.9770  -42.0350 H   0  0  0  0  0  0  0  0  0  0  0  0
   -0.1400  -17.2880  -39.3010 H   0  0  0  0  0  0  0  0  0  0  0  0
   -0.7650  -18.4830  -40.5830 H   0  0  0  0  0  0  0  0  0  0  0  0
   -2.2920  -17.3480  -38.6840 H   0  0  0  0  0  0  0  0  0  0  0  0
   -2.6300  -18.9200  -39.4190 H   0  0  0  0  0  0  0  0  0  0  0  0
   -1.9790  -21.0430  -37.3850 H   0  0  0  0  0  0  0  0  0  0  0  0
   -0.6350  -20.3100  -36.4830 H   0  0  0  0  0  0  0  0  0  0  0  0
   -0.9210  -20.9150  -39.4970 H   0  0  0  0  0  0  0  0  0  0  0  0
    0.3910  -21.3540  -38.3190 H   0  0  0  0  0  0  0  0  0  0  0  0
   -2.2020  -18.9160  -35.4810 H   0  0  0  0  0  0  0  0  0  0  0  0
   -3.1070  -17.7830  -36.4800 H   0  0  0  0  0  0  0  0  0  0  0  0
   -0.2170  -14.2350  -36.4310 H   0  0  0  0  0  0  0  0  0  0  0  0
   -0.2180  -14.7670  -38.1400 H   0  0  0  0  0  0  0  0  0  0  0  0
    0.8430  -15.6060  -36.8810 H   0  0  0  0  0  0  0  0  0  0  0  0
    7.1840  -19.1170  -39.6980 H   0  0  0  0  0  0  0  0  0  0  0  0
    4.1170  -18.2740  -35.6470 H   0  0  0  0  0  0  0  0  0  0  0  0
    4.1020  -20.0550  -35.5520 H   0  0  0  0  0  0  0  0  0  0  0  0
    5.6940  -19.2280  -35.4150 H   0  0  0  0  0  0  0  0  0  0  0  0
  1  2  1  0  0  0  0
  2  3  2  0  0  0  0
  2  7  1  0  0  0  0
  3  4  1  0  0  0  0
  4  5  2  0  0  0  0
  5  8  1  0  0  0  0
  6  5  1  0  0  0  0
  6 34  1  0  0  0  0
  7 35  1  0  0  0  0
  7  6  2  0  0  0  0
  8  9  1  0  0  0  0
  9 10  1  0  0  0  0
  9 13  1  0  0  0  0
 10 11  2  0  0  0  0
 11 12  1  0  0  0  0
 11 25  1  0  0  0  0
 13 12  2  0  0  0  0
 14 13  1  0  0  0  0
 14 19  1  0  0  0  0
 15 38  1  0  0  0  0
 15 14  1  0  0  0  0
 15 16  1  0  0  0  0
 16 40  1  0  0  0  0
 16 17  1  0  0  0  0
 17 18  1  0  0  0  0
 17 20  1  0  0  0  0
 18 42  1  0  0  0  0
 18 43  1  0  0  0  0
 19 45  1  0  0  0  0
 19 18  1  0  0  0  0
 20 21  1  0  0  0  0
 20 46  1  0  0  0  0
 21 22  2  0  0  0  0
 23 21  1  0  0  0  0
 24 23  1  0  0  0  0
 24 50  1  0  0  0  0
 24 48  1  0  0  0  0
 25 31  1  0  0  0  0
 26 25  1  0  0  0  0
 26 27  2  0  0  0  0
 28 26  1  0  0  0  0
 29 10  1  0  0  0  0
 29 28  1  0  0  0  0
 30 29  2  0  0  0  0
 31 52  1  0  0  0  0
 31 53  1  0  0  0  0
 31 54  1  0  0  0  0
 32  3  1  0  0  0  0
 33  4  1  0  0  0  0
 36  8  1  0  0  0  0
 37  8  1  0  0  0  0
 39 15  1  0  0  0  0
 41 16  1  0  0  0  0
 44 19  1  0  0  0  0
 47 20  1  0  0  0  0
 49 24  1  0  0  0  0
 51 28  1  0  0  0  0
M  END
>  <Pose>
1

>  <Score>
-4.84

$$$$
