
 OpenBabel03232221553D

 48 51  0  0  0  0  0  0  0  0999 V2000
    1.3350  -13.1640  -36.8310 B   0  0  0  0  0  0  0  0  0  0  0  0
    1.3670  -15.0400  -37.1620 C   0  0  0  0  0  0  0  0  0  0  0  0
    1.6570  -15.5600  -38.4200 C   0  0  0  0  0  0  0  0  0  0  0  0
    1.6540  -16.9420  -38.6000 C   0  0  0  0  0  0  0  0  0  0  0  0
    1.3800  -17.8280  -37.6050 C   0  0  0  0  0  0  0  0  0  0  0  0
    1.0940  -17.2560  -36.3500 C   0  0  0  0  0  0  0  0  0  0  0  0
    1.0840  -15.8990  -36.1260 C   0  0  0  0  0  0  0  0  0  0  0  0
    1.3190  -19.2700  -37.7280 C   0  0  0  0  0  0  0  0  0  0  0  0
    1.4960  -19.8460  -39.0380 N   0  0  0  0  0  0  0  0  0  0  0  0
    0.5970  -19.8690  -40.0330 C   0  0  0  0  0  0  0  0  0  0  0  0
    1.1540  -20.4990  -41.1240 C   0  0  0  0  0  0  0  0  0  0  0  0
    2.3790  -20.8420  -40.7570 N   0  0  0  0  0  0  0  0  0  0  0  0
    2.6160  -20.4600  -39.4950 C   0  0  0  0  0  0  0  0  0  0  0  0
    3.8270  -20.6530  -38.7500 N   0  0  0  0  0  0  0  0  0  0  0  0
    4.3030  -19.5520  -37.9430 C   0  0  0  0  0  0  0  0  0  0  0  0
    5.6330  -19.0930  -38.5210 C   0  0  0  0  0  0  0  0  0  0  0  0
    6.2920  -20.1080  -39.2730 N   0  0  0  0  0  0  0  0  0  0  0  0
    6.0640  -21.4500  -38.8500 C   0  0  0  0  0  0  0  0  0  0  0  0
    4.6160  -21.8560  -38.7560 C   0  0  0  0  0  0  0  0  0  0  0  0
    6.4640  -19.8900  -40.6590 C   0  0  0  0  0  0  0  0  0  0  0  0
    0.4970  -20.6940  -42.2950 N   0  0  0  0  0  0  0  0  0  0  0  0
   -0.7650  -20.2400  -42.3650 C   0  0  0  0  0  0  0  0  0  0  0  0
   -1.3580  -20.4270  -43.4570 O   0  0  0  0  0  0  0  0  0  0  0  0
   -1.3650  -19.6200  -41.3340 N   0  0  0  0  0  0  0  0  0  0  0  0
   -0.7220  -19.4210  -40.1690 C   0  0  0  0  0  0  0  0  0  0  0  0
   -1.2460  -18.8560  -39.1990 O   0  0  0  0  0  0  0  0  0  0  0  0
    1.1660  -21.3650  -43.3890 C   0  0  0  0  0  0  0  0  0  0  0  0
    1.8870  -14.8960  -39.2430 H   0  0  0  0  0  0  0  0  0  0  0  0
    1.8780  -17.2690  -39.5800 H   0  0  0  0  0  0  0  0  0  0  0  0
    0.8590  -17.8810  -35.4950 H   0  0  0  0  0  0  0  0  0  0  0  0
    0.8520  -15.5180  -35.1250 H   0  0  0  0  0  0  0  0  0  0  0  0
    2.1380  -19.7180  -37.0870 H   0  0  0  0  0  0  0  0  0  0  0  0
    0.3250  -19.6150  -37.3490 H   0  0  0  0  0  0  0  0  0  0  0  0
    4.4960  -19.9640  -36.9070 H   0  0  0  0  0  0  0  0  0  0  0  0
    3.5840  -18.7310  -37.8180 H   0  0  0  0  0  0  0  0  0  0  0  0
    5.4070  -18.2400  -39.1920 H   0  0  0  0  0  0  0  0  0  0  0  0
    6.2910  -18.7180  -37.7160 H   0  0  0  0  0  0  0  0  0  0  0  0
    6.5580  -21.5970  -37.8460 H   0  0  0  0  0  0  0  0  0  0  0  0
    6.5810  -22.1410  -39.5450 H   0  0  0  0  0  0  0  0  0  0  0  0
    4.4700  -22.3840  -37.7700 H   0  0  0  0  0  0  0  0  0  0  0  0
    4.3730  -22.5410  -39.5910 H   0  0  0  0  0  0  0  0  0  0  0  0
    5.8340  -19.0950  -41.1030 H   0  0  0  0  0  0  0  0  0  0  0  0
    6.2010  -20.8340  -41.1940 H   0  0  0  0  0  0  0  0  0  0  0  0
    7.5290  -19.6770  -40.9460 H   0  0  0  0  0  0  0  0  0  0  0  0
   -2.3460  -19.2730  -41.3970 H   0  0  0  0  0  0  0  0  0  0  0  0
    0.4430  -21.9120  -44.0400 H   0  0  0  0  0  0  0  0  0  0  0  0
    1.9930  -21.9650  -43.0170 H   0  0  0  0  0  0  0  0  0  0  0  0
    1.5870  -20.5700  -44.0460 H   0  0  0  0  0  0  0  0  0  0  0  0
  2  1  1  0  0  0  0
  2  7  1  0  0  0  0
  3  2  2  0  0  0  0
  4  3  1  0  0  0  0
  4  5  2  0  0  0  0
  5  6  1  0  0  0  0
  6  7  2  0  0  0  0
  6 30  1  0  0  0  0
  7 31  1  0  0  0  0
  8  5  1  0  0  0  0
  8 33  1  0  0  0  0
  8 32  1  0  0  0  0
  9  8  1  0  0  0  0
 10  9  1  0  0  0  0
 11 12  1  0  0  0  0
 11 10  2  0  0  0  0
 12 13  2  0  0  0  0
 13  9  1  0  0  0  0
 13 14  1  0  0  0  0
 14 15  1  0  0  0  0
 15 35  1  0  0  0  0
 15 34  1  0  0  0  0
 16 15  1  0  0  0  0
 16 37  1  0  0  0  0
 17 18  1  0  0  0  0
 17 16  1  0  0  0  0
 18 19  1  0  0  0  0
 18 38  1  0  0  0  0
 19 14  1  0  0  0  0
 19 40  1  0  0  0  0
 20 17  1  0  0  0  0
 21 11  1  0  0  0  0
 22 21  1  0  0  0  0
 22 24  1  0  0  0  0
 23 22  2  0  0  0  0
 24 25  1  0  0  0  0
 25 10  1  0  0  0  0
 25 26  2  0  0  0  0
 27 47  1  0  0  0  0
 27 21  1  0  0  0  0
 28  3  1  0  0  0  0
 29  4  1  0  0  0  0
 36 16  1  0  0  0  0
 39 18  1  0  0  0  0
 41 19  1  0  0  0  0
 42 20  1  0  0  0  0
 43 20  1  0  0  0  0
 44 20  1  0  0  0  0
 45 24  1  0  0  0  0
 46 27  1  0  0  0  0
 48 27  1  0  0  0  0
M  END
>  <Pose>
1

>  <Score>
-3.46

$$$$
