
 OpenBabel03232221553D

 38 41  0  0  1  0  0  0  0  0999 V2000
    0.7320  -24.2820  -42.4110 Cl  0  0  0  0  0  0  0  0  0  0  0  0
    2.4170  -23.8050  -42.4500 C   0  0  0  0  0  0  0  0  0  0  0  0
    2.8030  -22.5270  -42.0470 C   0  0  0  0  0  0  0  0  0  0  0  0
    4.1030  -22.1170  -42.0630 C   0  0  0  0  0  0  0  0  0  0  0  0
    5.0390  -23.0430  -42.5040 C   0  0  0  0  0  0  0  0  0  0  0  0
    4.6780  -24.3110  -42.9050 C   0  0  0  0  0  0  0  0  0  0  0  0
    3.3590  -24.7060  -42.8820 C   0  0  0  0  0  0  0  0  0  0  0  0
    4.1740  -20.7230  -41.5820 C   0  0  2  0  0  0  0  0  0  0  0  0
    4.6940  -19.8200  -42.6710 C   0  0  0  0  0  0  0  0  0  0  0  0
    5.7380  -19.0510  -42.5310 C   0  0  0  0  0  0  0  0  0  0  0  0
    6.4810  -19.0070  -41.3150 N   0  0  0  0  0  0  0  0  0  0  0  0
    6.0600  -19.8250  -40.2380 C   0  0  0  0  0  0  0  0  0  0  0  0
    5.0090  -20.6030  -40.3670 C   0  0  0  0  0  0  0  0  0  0  0  0
    4.6110  -21.4280  -39.2350 C   0  0  0  0  0  0  0  0  0  0  0  0
    4.2930  -22.0690  -38.3260 N   0  0  0  0  0  0  0  0  0  0  0  0
    6.7530  -19.8350  -38.9860 N   0  0  0  0  0  0  0  0  0  0  0  0
    5.9590  -18.3110  -43.7900 C   0  0  0  0  0  0  0  0  0  0  0  0
    4.9640  -18.7190  -44.6450 O   0  0  0  0  0  0  0  0  0  0  0  0
    4.1600  -19.6410  -44.0160 C   0  0  0  0  0  0  0  0  0  0  0  0
    3.1350  -20.2450  -44.4890 O   0  0  0  0  0  0  0  0  0  0  0  0
    7.3600  -18.5900  -44.2870 C   0  0  0  0  0  0  0  0  0  0  0  0
    5.8360  -16.8110  -43.5920 C   0  0  0  0  0  0  0  0  0  0  0  0
    2.7680  -20.3650  -41.2830 C   0  0  0  0  0  0  0  0  0  0  0  0
    2.3440  -19.2390  -40.8350 O   0  0  0  0  0  0  0  0  0  0  0  0
    1.9640  -21.4850  -41.5790 N   0  0  0  0  0  0  0  0  0  0  0  0
    6.0810  -22.7760  -42.5370 H   0  0  0  0  0  0  0  0  0  0  0  0
    5.4060  -25.0450  -43.2530 H   0  0  0  0  0  0  0  0  0  0  0  0
    3.0440  -25.6930  -43.1910 H   0  0  0  0  0  0  0  0  0  0  0  0
    7.3160  -18.3960  -41.1960 H   0  0  0  0  0  0  0  0  0  0  0  0
    6.3120  -20.2260  -38.1430 H   0  0  0  0  0  0  0  0  0  0  0  0
    7.7010  -19.4410  -38.9490 H   0  0  0  0  0  0  0  0  0  0  0  0
    7.5230  -18.1830  -45.3010 H   0  0  0  0  0  0  0  0  0  0  0  0
    7.6620  -19.6350  -44.1610 H   0  0  0  0  0  0  0  0  0  0  0  0
    8.0450  -17.9920  -43.6180 H   0  0  0  0  0  0  0  0  0  0  0  0
    4.9010  -16.6680  -42.9800 H   0  0  0  0  0  0  0  0  0  0  0  0
    5.6870  -16.3660  -44.5960 H   0  0  0  0  0  0  0  0  0  0  0  0
    6.7200  -16.3640  -43.1340 H   0  0  0  0  0  0  0  0  0  0  0  0
    0.9060  -21.5040  -41.4550 H   0  0  0  0  0  0  0  0  0  0  0  0
  2  1  1  0  0  0  0
  2  3  1  0  0  0  0
  3 25  1  0  0  0  0
  4  3  2  0  0  0  0
  4  8  1  0  0  0  0
  5  4  1  0  0  0  0
  6  7  1  0  0  0  0
  6  5  2  0  0  0  0
  7  2  2  0  0  0  0
  8  9  1  6  0  0  0
  8 23  1  0  0  0  0
  8 13  1  0  0  0  0
  9 10  2  0  0  0  0
 10 11  1  0  0  0  0
 11 29  1  0  0  0  0
 11 12  1  0  0  0  0
 12 16  1  0  0  0  0
 13 12  2  0  0  0  0
 13 14  1  0  0  0  0
 14 15  3  0  0  0  0
 16 31  1  0  0  0  0
 16 30  1  0  0  0  0
 17 22  1  0  0  0  0
 17 10  1  0  0  0  0
 18 19  1  0  0  0  0
 18 17  1  0  0  0  0
 19  9  1  0  0  0  0
 20 19  2  0  0  0  0
 21 33  1  0  0  0  0
 21 17  1  0  0  0  0
 21 34  1  0  0  0  0
 22 37  1  0  0  0  0
 22 35  1  0  0  0  0
 23 24  2  0  0  0  0
 25 38  1  0  0  0  0
 25 23  1  0  0  0  0
 26  5  1  0  0  0  0
 27  6  1  0  0  0  0
 28  7  1  0  0  0  0
 32 21  1  0  0  0  0
 36 22  1  0  0  0  0
M  END
>  <Pose>
1

>  <Score>
-4.19

$$$$
