
 OpenBabel03232221553D

 36 39  0  0  1  0  0  0  0  0999 V2000
   -0.4070  -16.6760  -36.4870 Cl  0  0  0  0  0  0  0  0  0  0  0  0
    0.9710  -17.6440  -36.9800 C   0  0  0  0  0  0  0  0  0  0  0  0
    2.1810  -17.5270  -36.3280 C   0  0  0  0  0  0  0  0  0  0  0  0
    3.2640  -18.2950  -36.7240 C   0  0  0  0  0  0  0  0  0  0  0  0
    3.2000  -19.1980  -37.7630 C   0  0  0  0  0  0  0  0  0  0  0  0
    1.9780  -19.3090  -38.4120 C   0  0  0  0  0  0  0  0  0  0  0  0
    0.8950  -18.5450  -38.0210 C   0  0  0  0  0  0  0  0  0  0  0  0
    4.3100  -19.9950  -38.1790 N   0  0  0  0  0  0  0  0  0  0  0  0
    4.3230  -21.3910  -38.5100 C   0  0  0  0  0  0  0  0  0  0  0  0
    3.3440  -22.1760  -38.4520 O   0  0  0  0  0  0  0  0  0  0  0  0
    5.6810  -21.7960  -38.9380 C   0  0  1  0  0  0  0  0  0  0  0  0
    5.6800  -22.4720  -40.1520 O   0  0  0  0  0  0  0  0  0  0  0  0
    5.3030  -21.6240  -41.0940 N   0  0  1  0  0  0  0  0  0  0  0  0
    5.5570  -20.3030  -40.7190 C   0  0  1  0  0  0  0  0  0  0  0  0
    6.2560  -20.4500  -39.3660 C   0  0  1  0  0  0  0  0  0  0  0  0
    5.6560  -19.5510  -38.3510 C   0  0  0  0  0  0  0  0  0  0  0  0
    6.1710  -18.5750  -37.7280 O   0  0  0  0  0  0  0  0  0  0  0  0
    6.2790  -19.4150  -41.6410 C   0  0  0  0  0  0  0  0  0  0  0  0
    6.6500  -19.9460  -42.9700 C   0  0  0  0  0  0  0  0  0  0  0  0
    5.5790  -20.9120  -43.4250 C   0  0  0  0  0  0  0  0  0  0  0  0
    5.5540  -22.0290  -42.4150 C   0  0  0  0  0  0  0  0  0  0  0  0
    2.2860  -16.8220  -35.4930 H   0  0  0  0  0  0  0  0  0  0  0  0
    4.2130  -18.2080  -36.2180 H   0  0  0  0  0  0  0  0  0  0  0  0
    1.9200  -20.0190  -39.2320 H   0  0  0  0  0  0  0  0  0  0  0  0
   -0.0530  -18.6300  -38.5240 H   0  0  0  0  0  0  0  0  0  0  0  0
    6.2720  -22.2830  -38.1680 H   0  0  0  0  0  0  0  0  0  0  0  0
    4.5630  -19.8210  -40.4720 H   0  0  0  0  0  0  0  0  0  0  0  0
    7.3340  -20.4280  -39.4200 H   0  0  0  0  0  0  0  0  0  0  0  0
    7.2360  -19.0880  -41.1340 H   0  0  0  0  0  0  0  0  0  0  0  0
    5.7350  -18.4360  -41.8020 H   0  0  0  0  0  0  0  0  0  0  0  0
    6.6770  -19.1250  -43.7260 H   0  0  0  0  0  0  0  0  0  0  0  0
    7.6140  -20.4920  -43.0050 H   0  0  0  0  0  0  0  0  0  0  0  0
    5.9080  -21.3370  -44.3940 H   0  0  0  0  0  0  0  0  0  0  0  0
    4.6060  -20.4340  -43.5690 H   0  0  0  0  0  0  0  0  0  0  0  0
    6.5060  -22.6060  -42.5290 H   0  0  0  0  0  0  0  0  0  0  0  0
    4.7440  -22.7390  -42.7440 H   0  0  0  0  0  0  0  0  0  0  0  0
  2  1  1  0  0  0  0
  2  3  1  0  0  0  0
  3 22  1  0  0  0  0
  4  3  2  0  0  0  0
  4 23  1  0  0  0  0
  5  4  1  0  0  0  0
  6  7  1  0  0  0  0
  6  5  2  0  0  0  0
  7  2  2  0  0  0  0
  8  5  1  0  0  0  0
  9 10  2  0  0  0  0
  9  8  1  0  0  0  0
 11  9  1  0  0  0  0
 11 26  1  1  0  0  0
 12 11  1  0  0  0  0
 13 14  1  0  0  0  0
 13 12  1  1  0  0  0
 14 27  1  1  0  0  0
 14 15  1  0  0  0  0
 15 28  1  6  0  0  0
 15 11  1  0  0  0  0
 15 16  1  0  0  0  0
 16  8  1  0  0  0  0
 16 17  2  0  0  0  0
 18 29  1  0  0  0  0
 18 14  1  0  0  0  0
 19 18  1  0  0  0  0
 20 19  1  0  0  0  0
 20 21  1  0  0  0  0
 21 13  1  0  0  0  0
 24  6  1  0  0  0  0
 25  7  1  0  0  0  0
 30 18  1  0  0  0  0
 31 19  1  0  0  0  0
 32 19  1  0  0  0  0
 33 20  1  0  0  0  0
 34 20  1  0  0  0  0
 35 21  1  0  0  0  0
 36 21  1  0  0  0  0
M  END
>  <Pose>
1

>  <Score>
-3.37

$$$$
