
 OpenBabel03232221553D

 52 55  0  0  0  0  0  0  0  0999 V2000
   11.0890  -26.4490  -42.0710 B   0  0  0  0  0  0  0  0  0  0  0  0
    9.7070  -26.4420  -43.3760 C   0  0  0  0  0  0  0  0  0  0  0  0
    9.9530  -27.0580  -44.5930 C   0  0  0  0  0  0  0  0  0  0  0  0
    8.9350  -27.0350  -45.5270 C   0  0  0  0  0  0  0  0  0  0  0  0
    7.7360  -26.4270  -45.2560 C   0  0  0  0  0  0  0  0  0  0  0  0
    7.4650  -25.8040  -44.0390 C   0  0  0  0  0  0  0  0  0  0  0  0
    8.4920  -25.8360  -43.1200 C   0  0  0  0  0  0  0  0  0  0  0  0
    6.1690  -25.1990  -43.8080 C   0  0  0  0  0  0  0  0  0  0  0  0
    5.3250  -25.6890  -42.9670 N   0  0  0  0  0  0  0  0  0  0  0  0
    4.0750  -25.1480  -42.7160 N   0  0  0  0  0  0  0  0  0  0  0  0
    3.8840  -23.7390  -42.7190 C   0  0  0  0  0  0  0  0  0  0  0  0
    3.2650  -23.1500  -43.7300 N   0  0  0  0  0  4  0  0  0  0  0  0
    3.0150  -21.8310  -43.8020 C   0  0  0  0  0  0  0  0  0  0  0  0
    3.4330  -21.0790  -42.7610 N   0  0  0  0  0  0  0  0  0  0  0  0
    4.0750  -21.6250  -41.6940 C   0  0  0  0  0  0  0  0  0  0  0  0
    4.2920  -22.9630  -41.6920 N   0  0  0  0  0  0  0  0  0  0  0  0
    4.4920  -20.8300  -40.6070 N   0  0  0  0  0  0  0  0  0  0  0  0
    3.5440  -20.1060  -39.8000 C   0  0  0  0  0  0  0  0  0  0  0  0
    3.8460  -20.5190  -38.3520 C   0  0  0  0  0  0  0  0  0  0  0  0
    5.1870  -20.3150  -38.0980 O   0  0  0  0  0  0  0  0  0  0  0  0
    5.9630  -21.2330  -38.8040 C   0  0  0  0  0  0  0  0  0  0  0  0
    5.8900  -20.7460  -40.2680 C   0  0  0  0  0  0  0  0  0  0  0  0
    2.3350  -21.2380  -44.9200 N   0  0  0  0  0  0  0  0  0  0  0  0
    2.9110  -20.1460  -45.6510 C   0  0  0  0  0  0  0  0  0  0  0  0
    2.2570  -19.7800  -46.9260 C   0  0  0  0  0  0  0  0  0  0  0  0
    0.9720  -20.2830  -47.0810 O   0  0  0  0  0  0  0  0  0  0  0  0
    0.9030  -21.6380  -46.7890 C   0  0  0  0  0  0  0  0  0  0  0  0
    1.0570  -21.7690  -45.2930 C   0  0  0  0  0  0  0  0  0  0  0  0
    6.7100  -26.4070  -46.2070 O   0  0  0  0  0  0  0  0  0  0  0  0
   11.1670  -27.6780  -44.8800 O   0  0  0  0  0  0  0  0  0  0  0  0
    9.1470  -27.5250  -46.4830 H   0  0  0  0  0  0  0  0  0  0  0  0
    8.2940  -25.3460  -42.1550 H   0  0  0  0  0  0  0  0  0  0  0  0
    5.8920  -24.3110  -44.3530 H   0  0  0  0  0  0  0  0  0  0  0  0
    3.2770  -25.7650  -42.5240 H   0  0  0  0  0  0  0  0  0  0  0  0
    3.7110  -19.0150  -39.9090 H   0  0  0  0  0  0  0  0  0  0  0  0
    2.4900  -20.3870  -40.0520 H   0  0  0  0  0  0  0  0  0  0  0  0
    3.1880  -19.9290  -37.6900 H   0  0  0  0  0  0  0  0  0  0  0  0
    3.5790  -21.6030  -38.2840 H   0  0  0  0  0  0  0  0  0  0  0  0
    5.4100  -22.2200  -38.7970 H   0  0  0  0  0  0  0  0  0  0  0  0
    6.9820  -21.3080  -38.4350 H   0  0  0  0  0  0  0  0  0  0  0  0
    6.1500  -19.6490  -40.2150 H   0  0  0  0  0  0  0  0  0  0  0  0
    6.5560  -21.3120  -40.9250 H   0  0  0  0  0  0  0  0  0  0  0  0
    2.9480  -19.2710  -44.9450 H   0  0  0  0  0  0  0  0  0  0  0  0
    3.9830  -20.4390  -45.8760 H   0  0  0  0  0  0  0  0  0  0  0  0
    2.8910  -20.0780  -47.8000 H   0  0  0  0  0  0  0  0  0  0  0  0
    2.1740  -18.6640  -46.9760 H   0  0  0  0  0  0  0  0  0  0  0  0
   -0.0520  -22.0160  -47.1650 H   0  0  0  0  0  0  0  0  0  0  0  0
    1.7580  -22.2170  -47.2290 H   0  0  0  0  0  0  0  0  0  0  0  0
    0.9870  -22.8700  -45.0880 H   0  0  0  0  0  0  0  0  0  0  0  0
    0.2240  -21.2850  -44.7410 H   0  0  0  0  0  0  0  0  0  0  0  0
    5.7610  -26.5820  -45.8930 H   0  0  0  0  0  0  0  0  0  0  0  0
   11.4670  -28.5440  -44.4580 H   0  0  0  0  0  0  0  0  0  0  0  0
  2  7  1  0  0  0  0
  2  1  1  0  0  0  0
  3  2  2  0  0  0  0
  4  5  2  0  0  0  0
  4  3  1  0  0  0  0
  5  6  1  0  0  0  0
  6  8  1  0  0  0  0
  6  7  2  0  0  0  0
  7 32  1  0  0  0  0
  8  9  2  0  0  0  0
  9 10  1  0  0  0  0
 10 34  1  0  0  0  0
 11 10  1  0  0  0  0
 11 16  1  0  0  0  0
 12 11  2  0  0  0  0
 13 12  2  0  0  0  0
 13 14  1  0  0  0  0
 14 15  2  0  0  0  0
 15 16  1  0  0  0  0
 15 17  1  0  0  0  0
 17 22  1  0  0  0  0
 17 18  1  0  0  0  0
 18 19  1  0  0  0  0
 19 38  1  0  0  0  0
 19 20  1  0  0  0  0
 19 37  1  0  0  0  0
 21 39  1  0  0  0  0
 21 40  1  0  0  0  0
 21 20  1  0  0  0  0
 22 41  1  0  0  0  0
 22 21  1  0  0  0  0
 23 13  1  0  0  0  0
 24 43  1  0  0  0  0
 24 23  1  0  0  0  0
 25 24  1  0  0  0  0
 26 25  1  0  0  0  0
 26 27  1  0  0  0  0
 27 28  1  0  0  0  0
 28 49  1  0  0  0  0
 28 23  1  0  0  0  0
 28 50  1  0  0  0  0
 29 51  1  0  0  0  0
 29  5  1  0  0  0  0
 30  3  1  0  0  0  0
 30 52  1  0  0  0  0
 31  4  1  0  0  0  0
 33  8  1  0  0  0  0
 35 18  1  0  0  0  0
 36 18  1  0  0  0  0
 42 22  1  0  0  0  0
 44 24  1  0  0  0  0
 45 25  1  0  0  0  0
 46 25  1  0  0  0  0
 47 27  1  0  0  0  0
 48 27  1  0  0  0  0
M  END
>  <Pose>
1

>  <Score>
-4.19

$$$$
