
 OpenBabel03232221553D

 46 49  0  0  0  0  0  0  0  0999 V2000
    3.6690  -11.5310  -37.6450 Cl  0  0  0  0  0  0  0  0  0  0  0  0
    2.1430  -12.4010  -37.6030 C   0  0  0  0  0  0  0  0  0  0  0  0
    2.0810  -13.6030  -36.9040 C   0  0  0  0  0  0  0  0  0  0  0  0
    0.8740  -14.2860  -36.8730 C   0  0  0  0  0  0  0  0  0  0  0  0
   -0.2180  -13.7320  -37.5450 C   0  0  0  0  0  0  0  0  0  0  0  0
   -0.1410  -12.5520  -38.2270 C   0  0  0  0  0  0  0  0  0  0  0  0
    1.0430  -11.8800  -38.2590 C   0  0  0  0  0  0  0  0  0  0  0  0
   -1.1810  -14.5780  -37.3430 O   0  0  0  0  0  0  0  0  0  0  0  0
   -0.7940  -15.5960  -36.6170 C   0  0  0  0  0  0  0  0  0  0  0  0
   -1.5500  -16.5480  -36.2870 O   0  0  0  0  0  0  0  0  0  0  0  0
    0.5040  -15.4370  -36.3040 N   0  0  0  0  0  0  0  0  0  0  0  0
    1.2620  -16.3660  -35.5160 C   0  0  0  0  0  0  0  0  0  0  0  0
    1.7810  -17.4700  -36.3690 C   0  0  0  0  0  0  0  0  0  0  0  0
    3.0610  -17.8750  -36.4240 N   0  0  0  0  0  0  0  0  0  0  0  0
    3.1980  -18.8390  -37.2880 O   0  0  0  0  0  0  0  0  0  0  0  0
    2.0070  -19.0720  -37.8020 C   0  0  0  0  0  0  0  0  0  0  0  0
    1.1230  -18.2380  -37.2470 N   0  0  0  0  0  0  0  0  0  0  0  0
    1.7980  -20.1310  -38.8450 C   0  0  0  0  0  0  0  0  0  0  0  0
    0.5500  -20.3590  -39.0100 O   0  0  0  0  0  0  0  0  0  0  0  0
    2.8510  -20.6960  -39.4630 N   0  0  0  0  0  0  0  0  0  0  0  0
    3.9230  -21.2910  -40.1010 C   0  0  0  0  0  0  0  0  0  0  0  0
    3.6030  -21.7560  -41.5270 C   0  0  0  0  0  0  0  0  0  0  0  0
    4.5060  -22.6940  -42.0640 N   0  0  0  0  0  0  0  0  0  0  0  0
    5.7020  -22.0740  -42.4820 C   0  0  0  0  0  0  0  0  0  0  0  0
    6.4030  -22.8150  -43.5710 C   0  0  0  0  0  0  0  0  0  0  0  0
    6.3420  -24.1590  -43.3060 O   0  0  0  0  0  0  0  0  0  0  0  0
    5.0670  -24.6890  -43.3750 C   0  0  0  0  0  0  0  0  0  0  0  0
    4.0160  -23.7990  -42.7810 C   0  0  0  0  0  0  0  0  0  0  0  0
    2.9040  -14.0360  -36.3830 H   0  0  0  0  0  0  0  0  0  0  0  0
   -1.0240  -12.1590  -38.7320 H   0  0  0  0  0  0  0  0  0  0  0  0
    1.1040  -10.9370  -38.8050 H   0  0  0  0  0  0  0  0  0  0  0  0
    0.6180  -16.7410  -34.7000 H   0  0  0  0  0  0  0  0  0  0  0  0
    2.1310  -15.8880  -35.0100 H   0  0  0  0  0  0  0  0  0  0  0  0
    2.1000  -21.8200  -39.6960 H   0  0  0  0  0  0  0  0  0  0  0  0
    4.2200  -22.2540  -39.5850 H   0  0  0  0  0  0  0  0  0  0  0  0
    4.8440  -20.6920  -40.1910 H   0  0  0  0  0  0  0  0  0  0  0  0
    3.5300  -20.9050  -42.2380 H   0  0  0  0  0  0  0  0  0  0  0  0
    2.5960  -22.2080  -41.4750 H   0  0  0  0  0  0  0  0  0  0  0  0
    5.5330  -21.0110  -42.7600 H   0  0  0  0  0  0  0  0  0  0  0  0
    6.4340  -22.0300  -41.6190 H   0  0  0  0  0  0  0  0  0  0  0  0
    6.0020  -22.5790  -44.5760 H   0  0  0  0  0  0  0  0  0  0  0  0
    7.5060  -22.5570  -43.5720 H   0  0  0  0  0  0  0  0  0  0  0  0
    5.0930  -25.6980  -42.8960 H   0  0  0  0  0  0  0  0  0  0  0  0
    4.8260  -24.8510  -44.4420 H   0  0  0  0  0  0  0  0  0  0  0  0
    3.3750  -24.4770  -42.1390 H   0  0  0  0  0  0  0  0  0  0  0  0
    3.3350  -23.4270  -43.5710 H   0  0  0  0  0  0  0  0  0  0  0  0
  1  2  1  0  0  0  0
  2  3  1  0  0  0  0
  3  4  2  0  0  0  0
  3 29  1  0  0  0  0
  4 11  1  0  0  0  0
  5  8  1  0  0  0  0
  5  4  1  0  0  0  0
  6  5  2  0  0  0  0
  7  6  1  0  0  0  0
  7  2  2  0  0  0  0
  8  9  1  0  0  0  0
  9 11  1  0  0  0  0
  9 10  2  0  0  0  0
 11 12  1  0  0  0  0
 12 33  1  0  0  0  0
 12 32  1  0  0  0  0
 13 12  1  0  0  0  0
 14 13  2  0  0  0  0
 15 14  1  0  0  0  0
 16 15  1  0  0  0  0
 16 17  2  0  0  0  0
 17 13  1  0  0  0  0
 18 16  1  0  0  0  0
 19 18  2  0  0  0  0
 20 18  1  0  0  0  0
 21 35  1  0  0  0  0
 21 20  1  0  0  0  0
 22 38  1  0  0  0  0
 22 21  1  0  0  0  0
 23 22  1  0  0  0  0
 24 23  1  0  0  0  0
 24 40  1  0  0  0  0
 25 26  1  0  0  0  0
 25 24  1  0  0  0  0
 27 26  1  0  0  0  0
 27 43  1  0  0  0  0
 27 28  1  0  0  0  0
 28 45  1  0  0  0  0
 28 23  1  0  0  0  0
 30  6  1  0  0  0  0
 31  7  1  0  0  0  0
 34 20  1  0  0  0  0
 36 21  1  0  0  0  0
 37 22  1  0  0  0  0
 39 24  1  0  0  0  0
 41 25  1  0  0  0  0
 42 25  1  0  0  0  0
 44 27  1  0  0  0  0
 46 28  1  0  0  0  0
M  END
>  <Pose>
1

>  <Score>
-4.35

$$$$
