
 OpenBabel03232221553D

 41 45  0  0  1  0  0  0  0  0999 V2000
    5.2070  -26.2770  -44.8240 Cl  0  0  0  0  0  0  0  0  0  0  0  0
    4.8910  -24.8110  -43.8890 C   0  0  0  0  0  0  0  0  0  0  0  0
    4.0900  -24.8290  -42.7730 C   0  0  0  0  0  0  0  0  0  0  0  0
    3.8670  -23.6630  -42.0610 C   0  0  0  0  0  0  0  0  0  0  0  0
    4.4180  -22.4570  -42.4210 C   0  0  0  0  0  0  0  0  0  0  0  0
    5.2250  -22.4370  -43.5440 C   0  0  0  0  0  0  0  0  0  0  0  0
    5.4510  -23.6100  -44.2610 C   0  0  0  0  0  0  0  0  0  0  0  0
    4.1970  -21.2460  -41.6930 N   0  0  0  0  0  0  0  0  0  0  0  0
    2.9780  -20.6570  -41.2640 C   0  0  0  0  0  0  0  0  0  0  0  0
    1.8400  -21.1870  -41.3620 O   0  0  0  0  0  0  0  0  0  0  0  0
    3.2310  -19.3010  -40.6710 C   0  0  1  0  0  0  0  0  0  0  0  0
    2.7150  -19.2200  -39.2730 C   0  0  2  0  0  0  0  0  0  0  0  0
    3.8040  -18.7170  -38.5190 O   0  0  0  0  0  0  0  0  0  0  0  0
    4.7490  -19.6850  -38.9450 C   0  0  2  0  0  0  0  0  0  0  0  0
    4.7470  -19.3490  -40.4330 C   0  0  1  0  0  0  0  0  0  0  0  0
    5.2710  -20.4120  -41.2780 C   0  0  0  0  0  0  0  0  0  0  0  0
    6.4850  -20.5480  -41.5770 O   0  0  0  0  0  0  0  0  0  0  0  0
    4.0050  -20.9330  -38.6530 C   0  0  0  0  0  0  0  0  0  0  0  0
    2.6960  -20.6180  -38.7350 C   0  0  0  0  0  0  0  0  0  0  0  0
    6.0650  -19.5720  -38.2960 C   0  0  0  0  0  0  0  0  0  0  0  0
    1.4690  -18.4730  -39.0610 C   0  0  0  0  0  0  0  0  0  0  0  0
    1.1040  -18.5900  -37.7180 O   0  0  0  0  0  0  0  0  0  0  0  0
    1.7180  -17.5820  -37.0180 C   0  0  0  0  0  0  0  0  0  0  0  0
    1.8900  -16.5100  -38.0610 C   0  0  0  0  0  0  0  0  0  0  0  0
    1.6950  -17.1140  -39.2820 O   0  0  0  0  0  0  0  0  0  0  0  0
    3.6460  -25.7520  -42.4650 H   0  0  0  0  0  0  0  0  0  0  0  0
    3.2340  -23.6520  -41.1680 H   0  0  0  0  0  0  0  0  0  0  0  0
    5.6790  -21.5060  -43.8650 H   0  0  0  0  0  0  0  0  0  0  0  0
    6.0790  -23.6100  -45.1360 H   0  0  0  0  0  0  0  0  0  0  0  0
    2.9370  -18.4870  -41.3320 H   0  0  0  0  0  0  0  0  0  0  0  0
    5.2100  -18.3730  -40.5600 H   0  0  0  0  0  0  0  0  0  0  0  0
    4.3450  -21.9320  -38.4130 H   0  0  0  0  0  0  0  0  0  0  0  0
    1.8270  -21.2050  -38.4860 H   0  0  0  0  0  0  0  0  0  0  0  0
    6.8310  -19.0190  -38.8880 H   0  0  0  0  0  0  0  0  0  0  0  0
    6.5170  -20.5780  -38.0660 H   0  0  0  0  0  0  0  0  0  0  0  0
    6.0370  -19.0550  -37.3010 H   0  0  0  0  0  0  0  0  0  0  0  0
    0.6830  -18.8000  -39.7420 H   0  0  0  0  0  0  0  0  0  0  0  0
    1.0060  -17.2670  -36.2020 H   0  0  0  0  0  0  0  0  0  0  0  0
    2.6490  -17.8630  -36.5100 H   0  0  0  0  0  0  0  0  0  0  0  0
    2.9250  -16.1030  -37.9310 H   0  0  0  0  0  0  0  0  0  0  0  0
    1.1220  -15.7240  -37.8370 H   0  0  0  0  0  0  0  0  0  0  0  0
  1  2  1  0  0  0  0
  2  3  1  0  0  0  0
  3 26  1  0  0  0  0
  3  4  2  0  0  0  0
  4 27  1  0  0  0  0
  5  4  1  0  0  0  0
  5  8  1  0  0  0  0
  6  5  2  0  0  0  0
  7  2  2  0  0  0  0
  7  6  1  0  0  0  0
  8 16  1  0  0  0  0
  8  9  1  0  0  0  0
  9 11  1  0  0  0  0
 10  9  2  0  0  0  0
 11 30  1  6  0  0  0
 11 15  1  0  0  0  0
 11 12  1  0  0  0  0
 12 21  1  1  0  0  0
 12 19  1  0  0  0  0
 12 13  1  0  0  0  0
 14 18  1  0  0  0  0
 14 13  1  0  0  0  0
 14 20  1  1  0  0  0
 15 31  1  6  0  0  0
 15 14  1  0  0  0  0
 16 15  1  0  0  0  0
 17 16  2  0  0  0  0
 18 32  1  0  0  0  0
 19 18  2  0  0  0  0
 19 33  1  0  0  0  0
 20 35  1  0  0  0  0
 20 36  1  0  0  0  0
 21 22  1  0  0  0  0
 22 23  1  0  0  0  0
 23 39  1  0  0  0  0
 23 38  1  0  0  0  0
 24 40  1  0  0  0  0
 24 41  1  0  0  0  0
 24 23  1  0  0  0  0
 25 21  1  0  0  0  0
 25 24  1  0  0  0  0
 28  6  1  0  0  0  0
 29  7  1  0  0  0  0
 34 20  1  0  0  0  0
 37 21  1  0  0  0  0
M  END
>  <Pose>
1

>  <Score>
-3.20

$$$$
