
 OpenBabel03232221553D

 42 45  0  0  0  0  0  0  0  0999 V2000
   -2.3180  -18.2920  -36.4630 Cl  0  0  0  0  0  0  0  0  0  0  0  0
   -0.7120  -18.4220  -37.1510 C   0  0  0  0  0  0  0  0  0  0  0  0
   -0.3770  -19.5300  -37.9010 C   0  0  0  0  0  0  0  0  0  0  0  0
    0.9110  -19.5760  -38.4220 C   0  0  0  0  0  0  0  0  0  0  0  0
    1.8450  -18.5890  -38.2270 C   0  0  0  0  0  0  0  0  0  0  0  0
    1.4910  -17.4950  -37.4790 C   0  0  0  0  0  0  0  0  0  0  0  0
    0.2220  -17.4300  -36.9560 C   0  0  0  0  0  0  0  0  0  0  0  0
    3.1830  -18.7030  -38.8050 C   0  0  0  0  0  0  0  0  0  0  0  0
    4.1140  -19.4830  -38.0850 N   0  0  0  0  0  0  0  0  0  0  0  0
    3.8270  -20.8490  -37.8970 C   0  0  0  0  0  0  0  0  0  0  0  0
    4.3950  -21.7990  -38.9160 C   0  0  0  0  0  0  0  0  0  0  0  0
    5.5490  -21.0950  -39.5340 N   0  0  0  0  0  0  0  0  0  0  0  0
    6.3130  -20.3380  -38.6160 C   0  0  0  0  0  0  0  0  0  0  0  0
    5.4950  -19.1220  -38.2370 C   0  0  0  0  0  0  0  0  0  0  0  0
    5.7440  -21.2960  -40.9160 C   0  0  0  0  0  0  0  0  0  0  0  0
    5.3310  -22.4700  -41.4830 N   0  0  0  0  0  0  0  0  0  0  0  0
    5.4870  -22.7980  -42.7600 C   0  0  0  0  0  0  0  0  0  0  0  0
    6.0960  -21.9210  -43.5760 N   0  0  0  0  0  0  0  0  0  0  0  0
    6.5260  -20.7430  -43.0720 C   0  0  0  0  0  0  0  0  0  0  0  0
    7.1430  -19.6890  -43.6380 N   0  0  0  0  0  0  0  0  0  0  0  0
    7.3490  -18.7520  -42.7130 C   0  0  0  0  0  0  0  0  0  0  0  0
    6.8730  -19.1670  -41.5260 N   0  0  0  0  0  0  0  0  0  0  0  0
    6.3650  -20.3920  -41.7300 C   0  0  0  0  0  0  0  0  0  0  0  0
    5.0250  -24.0570  -43.2930 N   0  0  0  0  0  0  0  0  0  0  0  0
   -1.0910  -20.3300  -38.0740 H   0  0  0  0  0  0  0  0  0  0  0  0
    1.1190  -20.4750  -39.0050 H   0  0  0  0  0  0  0  0  0  0  0  0
    2.2050  -16.6720  -37.2920 H   0  0  0  0  0  0  0  0  0  0  0  0
   -0.0600  -16.5540  -36.3570 H   0  0  0  0  0  0  0  0  0  0  0  0
    3.1630  -19.0640  -39.8630 H   0  0  0  0  0  0  0  0  0  0  0  0
    3.5950  -17.6540  -38.8840 H   0  0  0  0  0  0  0  0  0  0  0  0
    2.7520  -21.0030  -37.8500 H   0  0  0  0  0  0  0  0  0  0  0  0
    4.2300  -21.1520  -36.8870 H   0  0  0  0  0  0  0  0  0  0  0  0
    3.6880  -22.1490  -39.6670 H   0  0  0  0  0  0  0  0  0  0  0  0
    4.8460  -22.6840  -38.4220 H   0  0  0  0  0  0  0  0  0  0  0  0
    6.3450  -20.9620  -37.6490 H   0  0  0  0  0  0  0  0  0  0  0  0
    7.3550  -20.1510  -38.8220 H   0  0  0  0  0  0  0  0  0  0  0  0
    5.5850  -18.2790  -38.9430 H   0  0  0  0  0  0  0  0  0  0  0  0
    5.8690  -18.7750  -37.2460 H   0  0  0  0  0  0  0  0  0  0  0  0
    7.8370  -17.7940  -42.9220 H   0  0  0  0  0  0  0  0  0  0  0  0
    6.9100  -18.6010  -40.6510 H   0  0  0  0  0  0  0  0  0  0  0  0
    4.7870  -24.1740  -44.2880 H   0  0  0  0  0  0  0  0  0  0  0  0
    4.9250  -24.8770  -42.6630 H   0  0  0  0  0  0  0  0  0  0  0  0
  2  7  1  0  0  0  0
  2  1  1  0  0  0  0
  3  2  2  0  0  0  0
  4  5  2  0  0  0  0
  4  3  1  0  0  0  0
  5  6  1  0  0  0  0
  6 27  1  0  0  0  0
  6  7  2  0  0  0  0
  7 28  1  0  0  0  0
  8  5  1  0  0  0  0
  8  9  1  0  0  0  0
  9 10  1  0  0  0  0
 10 31  1  0  0  0  0
 10 32  1  0  0  0  0
 11 34  1  0  0  0  0
 11 10  1  0  0  0  0
 12 11  1  0  0  0  0
 12 13  1  0  0  0  0
 13 14  1  0  0  0  0
 13 35  1  0  0  0  0
 14  9  1  0  0  0  0
 14 38  1  0  0  0  0
 15 12  1  0  0  0  0
 16 15  1  0  0  0  0
 17 16  2  0  0  0  0
 18 19  2  0  0  0  0
 18 17  1  0  0  0  0
 19 23  1  0  0  0  0
 20 19  1  0  0  0  0
 20 21  2  0  0  0  0
 21 22  1  0  0  0  0
 22 40  1  0  0  0  0
 23 22  1  0  0  0  0
 23 15  2  0  0  0  0
 24 17  1  0  0  0  0
 24 42  1  0  0  0  0
 25  3  1  0  0  0  0
 26  4  1  0  0  0  0
 29  8  1  0  0  0  0
 30  8  1  0  0  0  0
 33 11  1  0  0  0  0
 36 13  1  0  0  0  0
 37 14  1  0  0  0  0
 39 21  1  0  0  0  0
 41 24  1  0  0  0  0
M  END
>  <Pose>
1

>  <Score>
-4.72

$$$$
