
 OpenBabel03232221553D

 54 57  0  0  0  0  0  0  0  0999 V2000
    3.1800  -10.1510  -38.2850 B   0  0  0  0  0  0  0  0  0  0  0  0
    1.6800  -11.1440  -37.6550 C   0  0  0  0  0  0  0  0  0  0  0  0
    1.7940  -12.4800  -37.3420 C   0  0  0  0  0  0  0  0  0  0  0  0
    0.7130  -13.1960  -36.8880 C   0  0  0  0  0  0  0  0  0  0  0  0
   -0.4910  -12.5390  -36.7530 C   0  0  0  0  0  0  0  0  0  0  0  0
   -0.6200  -11.1840  -37.0680 C   0  0  0  0  0  0  0  0  0  0  0  0
    0.4740  -10.4670  -37.5250 C   0  0  0  0  0  0  0  0  0  0  0  0
   -1.5680  -13.2870  -36.2920 O   0  0  0  0  0  0  0  0  0  0  0  0
   -2.2920  -14.1930  -37.0910 C   0  0  0  0  0  0  0  0  0  0  0  0
    0.8200  -14.6120  -36.5520 C   0  0  0  0  0  0  0  0  0  0  0  0
    1.6790  -15.0720  -35.7220 N   0  0  0  0  0  0  0  0  0  0  0  0
    1.7950  -16.4230  -35.3900 N   0  0  0  0  0  0  0  0  0  0  0  0
    1.7720  -17.4590  -36.3640 C   0  0  0  0  0  0  0  0  0  0  0  0
    0.6560  -17.8130  -37.0380 N   0  0  0  0  0  4  0  0  0  0  0  0
    0.6670  -18.7940  -37.9480 C   0  0  0  0  0  0  0  0  0  0  0  0
    1.8240  -19.4310  -38.1870 N   0  0  0  0  0  0  0  0  0  0  0  0
    2.9840  -19.1270  -37.5460 C   0  0  0  0  0  0  0  0  0  0  0  0
    2.8980  -18.1200  -36.6340 N   0  0  0  0  0  0  0  0  0  0  0  0
    4.1940  -19.7990  -37.8010 N   0  0  0  0  0  0  0  0  0  0  0  0
    5.4230  -19.0840  -37.9690 C   0  0  0  0  0  0  0  0  0  0  0  0
    6.0300  -19.5440  -39.2930 C   0  0  0  0  0  0  0  0  0  0  0  0
    6.1560  -20.9210  -39.2230 O   0  0  0  0  0  0  0  0  0  0  0  0
    4.9450  -21.5710  -39.1980 C   0  0  0  0  0  0  0  0  0  0  0  0
    4.2120  -21.2290  -37.9000 C   0  0  0  0  0  0  0  0  0  0  0  0
   -0.5060  -19.1660  -38.6580 N   0  0  0  0  0  0  0  0  0  0  0  0
   -1.7030  -18.3550  -38.6540 C   0  0  0  0  0  0  0  0  0  0  0  0
   -2.9510  -19.2150  -38.5130 C   0  0  0  0  0  0  0  0  0  0  0  0
   -2.8790  -20.3260  -39.3600 O   0  0  0  0  0  0  0  0  0  0  0  0
   -1.8080  -21.1310  -39.0530 C   0  0  0  0  0  0  0  0  0  0  0  0
   -0.5380  -20.3940  -39.4210 C   0  0  0  0  0  0  0  0  0  0  0  0
    2.7440  -13.0190  -37.4430 H   0  0  0  0  0  0  0  0  0  0  0  0
   -1.5830  -10.6810  -36.9540 H   0  0  0  0  0  0  0  0  0  0  0  0
    0.3520   -9.4230  -37.7600 H   0  0  0  0  0  0  0  0  0  0  0  0
   -3.1340  -13.6160  -37.5520 H   0  0  0  0  0  0  0  0  0  0  0  0
   -1.6720  -14.7170  -37.8340 H   0  0  0  0  0  0  0  0  0  0  0  0
   -2.7640  -14.9520  -36.4270 H   0  0  0  0  0  0  0  0  0  0  0  0
    0.1510  -15.3220  -37.0160 H   0  0  0  0  0  0  0  0  0  0  0  0
    1.9040  -16.6450  -34.3630 H   0  0  0  0  0  0  0  0  0  0  0  0
    5.2610  -17.9750  -37.9710 H   0  0  0  0  0  0  0  0  0  0  0  0
    6.1350  -19.3800  -37.1650 H   0  0  0  0  0  0  0  0  0  0  0  0
    7.0460  -19.1030  -39.3260 H   0  0  0  0  0  0  0  0  0  0  0  0
    5.4380  -19.1970  -40.1430 H   0  0  0  0  0  0  0  0  0  0  0  0
    4.2730  -21.2410  -40.0250 H   0  0  0  0  0  0  0  0  0  0  0  0
    5.1160  -22.6520  -39.2310 H   0  0  0  0  0  0  0  0  0  0  0  0
    3.2030  -21.6800  -37.8840 H   0  0  0  0  0  0  0  0  0  0  0  0
    4.8550  -21.6370  -37.0850 H   0  0  0  0  0  0  0  0  0  0  0  0
   -1.7720  -17.9100  -39.6890 H   0  0  0  0  0  0  0  0  0  0  0  0
   -1.7030  -17.5870  -37.8760 H   0  0  0  0  0  0  0  0  0  0  0  0
   -3.0470  -19.4920  -37.4550 H   0  0  0  0  0  0  0  0  0  0  0  0
   -3.8130  -18.6090  -38.8910 H   0  0  0  0  0  0  0  0  0  0  0  0
   -1.8470  -21.3720  -37.9720 H   0  0  0  0  0  0  0  0  0  0  0  0
   -1.9120  -22.0730  -39.6010 H   0  0  0  0  0  0  0  0  0  0  0  0
   -0.6040  -20.1370  -40.4830 H   0  0  0  0  0  0  0  0  0  0  0  0
    0.3630  -21.0020  -39.2420 H   0  0  0  0  0  0  0  0  0  0  0  0
  1  2  1  0  0  0  0
  2  7  2  0  0  0  0
  2  3  1  0  0  0  0
  3  4  2  0  0  0  0
  4  5  1  0  0  0  0
  4 10  1  0  0  0  0
  5  8  1  0  0  0  0
  6 32  1  0  0  0  0
  6  5  2  0  0  0  0
  7  6  1  0  0  0  0
  9 36  1  0  0  0  0
  9  8  1  0  0  0  0
 10 11  2  0  0  0  0
 11 12  1  0  0  0  0
 12 38  1  0  0  0  0
 13 12  1  0  0  0  0
 14 13  2  0  0  0  0
 15 14  2  0  0  0  0
 16 15  1  0  0  0  0
 16 17  2  0  0  0  0
 17 18  1  0  0  0  0
 18 13  1  0  0  0  0
 19 17  1  0  0  0  0
 20 19  1  0  0  0  0
 20 40  1  0  0  0  0
 21 22  1  0  0  0  0
 21 20  1  0  0  0  0
 22 23  1  0  0  0  0
 23 24  1  0  0  0  0
 24 45  1  0  0  0  0
 24 19  1  0  0  0  0
 24 46  1  0  0  0  0
 25 26  1  0  0  0  0
 25 15  1  0  0  0  0
 26 27  1  0  0  0  0
 26 48  1  0  0  0  0
 27 49  1  0  0  0  0
 28 29  1  0  0  0  0
 28 27  1  0  0  0  0
 29 51  1  0  0  0  0
 30 54  1  0  0  0  0
 30 29  1  0  0  0  0
 30 25  1  0  0  0  0
 31  3  1  0  0  0  0
 33  7  1  0  0  0  0
 34  9  1  0  0  0  0
 35  9  1  0  0  0  0
 37 10  1  0  0  0  0
 39 20  1  0  0  0  0
 41 21  1  0  0  0  0
 42 21  1  0  0  0  0
 43 23  1  0  0  0  0
 44 23  1  0  0  0  0
 47 26  1  0  0  0  0
 50 27  1  0  0  0  0
 52 29  1  0  0  0  0
 53 30  1  0  0  0  0
M  END
>  <Pose>
1

>  <Score>
-5.28

$$$$
