
 OpenBabel03232221553D

 38 41  0  0  1  0  0  0  0  0999 V2000
   11.0260  -26.3580  -42.2720 B   0  0  0  0  0  0  0  0  0  0  0  0
    9.4350  -26.0600  -43.2780 C   0  0  0  0  0  0  0  0  0  0  0  0
    8.5330  -25.0850  -42.9230 C   0  0  0  0  0  0  0  0  0  0  0  0
    7.3530  -24.8400  -43.6420 C   0  0  0  0  0  0  0  0  0  0  0  0
    7.1370  -25.6340  -44.7340 C   0  0  0  0  0  0  0  0  0  0  0  0
    8.0590  -26.6220  -45.0860 C   0  0  0  0  0  0  0  0  0  0  0  0
    9.1950  -26.8370  -44.3720 C   0  0  0  0  0  0  0  0  0  0  0  0
    6.4850  -23.8200  -43.2080 N   0  0  0  0  0  0  0  0  0  0  0  0
    5.0900  -23.9300  -43.1040 C   0  0  0  0  0  0  0  0  0  0  0  0
    4.4580  -24.9800  -42.9190 O   0  0  0  0  0  0  0  0  0  0  0  0
    4.2460  -22.6900  -43.2250 C   0  0  2  0  0  0  0  0  0  0  0  0
    4.9960  -21.4130  -42.9510 C   0  0  0  0  0  0  0  0  0  0  0  0
    4.5290  -21.4030  -41.5570 N   0  0  1  0  0  0  0  0  0  0  0  0
    3.4920  -22.3260  -41.9790 C   0  0  0  0  0  0  0  0  0  0  0  0
    4.9690  -20.7430  -40.3770 C   0  0  1  0  0  0  0  0  0  0  0  0
    6.2760  -20.4410  -40.1620 N   0  0  0  0  0  0  0  0  0  0  0  0
    6.6720  -19.8060  -39.0210 C   0  0  0  0  0  0  0  0  0  0  0  0
    5.7900  -19.4600  -38.0780 N   0  0  0  0  0  0  0  0  0  0  0  0
    4.4900  -19.7250  -38.2240 C   0  0  0  0  0  0  0  0  0  0  0  0
    3.4230  -19.4860  -37.4360 N   0  0  0  0  0  0  0  0  0  0  0  0
    2.3770  -19.9630  -38.0740 N   0  0  0  0  0  0  0  0  0  0  0  0
    2.7450  -20.5000  -39.2430 N   0  0  0  0  0  0  0  0  0  0  0  0
    4.0920  -20.3680  -39.3780 C   0  0  0  0  0  0  0  0  0  0  0  0
    3.3950  -18.8300  -36.1310 C   0  0  0  0  0  0  0  0  0  0  0  0
    8.7470  -24.4800  -42.0500 H   0  0  0  0  0  0  0  0  0  0  0  0
    6.2430  -25.5110  -45.3500 H   0  0  0  0  0  0  0  0  0  0  0  0
    7.8340  -27.2290  -45.9720 H   0  0  0  0  0  0  0  0  0  0  0  0
    9.8990  -27.6140  -44.6670 H   0  0  0  0  0  0  0  0  0  0  0  0
    6.9530  -22.8790  -42.9350 H   0  0  0  0  0  0  0  0  0  0  0  0
    3.6930  -22.6280  -44.1770 H   0  0  0  0  0  0  0  0  0  0  0  0
    6.1030  -21.4960  -42.9330 H   0  0  0  0  0  0  0  0  0  0  0  0
    4.6250  -20.5190  -43.4610 H   0  0  0  0  0  0  0  0  0  0  0  0
    3.3440  -23.1960  -41.3050 H   0  0  0  0  0  0  0  0  0  0  0  0
    2.5530  -21.7800  -42.1460 H   0  0  0  0  0  0  0  0  0  0  0  0
    7.7270  -19.5980  -38.9190 H   0  0  0  0  0  0  0  0  0  0  0  0
    2.4340  -18.3200  -35.9550 H   0  0  0  0  0  0  0  0  0  0  0  0
    4.1780  -18.0170  -36.0830 H   0  0  0  0  0  0  0  0  0  0  0  0
    3.6220  -19.5160  -35.3140 H   0  0  0  0  0  0  0  0  0  0  0  0
  2  3  1  0  0  0  0
  2  1  1  0  0  0  0
  3 25  1  0  0  0  0
  4  8  1  0  0  0  0
  4  3  2  0  0  0  0
  5  4  1  0  0  0  0
  6  5  2  0  0  0  0
  6  7  1  0  0  0  0
  7  2  2  0  0  0  0
  8  9  1  0  0  0  0
  8 29  1  0  0  0  0
  9 10  2  0  0  0  0
 11 30  1  6  0  0  0
 11  9  1  0  0  0  0
 11 12  1  0  0  0  0
 11 14  1  0  0  0  0
 12 31  1  0  0  0  0
 13 12  1  1  0  0  0
 13 15  1  0  0  0  0
 14 13  1  0  0  0  0
 14 33  1  0  0  0  0
 15 16  1  6  0  0  0
 15 23  1  0  0  0  0
 16 17  2  0  0  0  0
 17 35  1  0  0  0  0
 17 18  1  0  0  0  0
 19 18  1  0  0  0  0
 19 20  1  0  0  0  0
 20 24  1  0  0  0  0
 21 20  1  0  0  0  0
 22 21  2  0  0  0  0
 23 22  1  0  0  0  0
 23 19  2  0  0  0  0
 24 37  1  0  0  0  0
 24 36  1  0  0  0  0
 24 38  1  0  0  0  0
 26  5  1  0  0  0  0
 27  6  1  0  0  0  0
 28  7  1  0  0  0  0
 32 12  1  0  0  0  0
 34 14  1  0  0  0  0
M  END
>  <Pose>
1

>  <Score>
-4.62

$$$$
