
 OpenBabel03232221553D

 52 56  0  0  0  0  0  0  0  0999 V2000
   -3.1670  -23.5360  -43.2540 Cl  0  0  0  0  0  0  0  0  0  0  0  0
   -2.4440  -22.5850  -41.9670 C   0  0  0  0  0  0  0  0  0  0  0  0
   -1.6080  -21.5110  -42.2400 C   0  0  0  0  0  0  0  0  0  0  0  0
   -1.0490  -20.7760  -41.2140 C   0  0  0  0  0  0  0  0  0  0  0  0
   -1.2900  -21.0670  -39.8880 C   0  0  0  0  0  0  0  0  0  0  0  0
   -2.1350  -22.1520  -39.6280 C   0  0  0  0  0  0  0  0  0  0  0  0
   -2.6980  -22.8920  -40.6460 C   0  0  0  0  0  0  0  0  0  0  0  0
   -0.7020  -20.2950  -38.8010 C   0  0  0  0  0  0  0  0  0  0  0  0
   -0.7700  -20.7340  -37.6310 O   0  0  0  0  0  0  0  0  0  0  0  0
   -0.0450  -19.0190  -39.1350 C   0  0  0  0  0  0  0  0  0  0  0  0
    1.0490  -18.6820  -38.2540 N   0  0  0  0  0  0  0  0  0  0  0  0
    2.2980  -19.0980  -38.2510 N   0  0  0  0  0  0  0  0  0  0  0  0
    3.0070  -18.5380  -37.2600 C   0  0  0  0  0  0  0  0  0  0  0  0
    4.2760  -18.9740  -37.2750 N   0  0  0  0  0  0  0  0  0  0  0  0
    4.4280  -19.8440  -38.2970 C   0  0  0  0  0  0  0  0  0  0  0  0
    3.1690  -19.9130  -38.9040 C   0  0  0  0  0  0  0  0  0  0  0  0
    3.0910  -20.7510  -39.9960 C   0  0  0  0  0  0  0  0  0  0  0  0
    1.9700  -20.8430  -40.5810 O   0  0  0  0  0  0  0  0  0  0  0  0
    4.1410  -21.4740  -40.4680 N   0  0  0  0  0  0  0  0  0  0  0  0
    5.3140  -21.3540  -39.8280 C   0  0  0  0  0  0  0  0  0  0  0  0
    6.2870  -22.0400  -40.2870 O   0  0  0  0  0  0  0  0  0  0  0  0
    5.4670  -20.5570  -38.7620 N   0  0  0  0  0  0  0  0  0  0  0  0
    6.7530  -20.4720  -38.1230 C   0  0  0  0  0  0  0  0  0  0  0  0
    3.9750  -22.3330  -41.6180 C   0  0  0  0  0  0  0  0  0  0  0  0
    2.1330  -17.7230  -36.6170 N   0  0  0  0  0  0  0  0  0  0  0  0
    0.9360  -17.8010  -37.2130 C   0  0  0  0  0  0  0  0  0  0  0  0
   -0.2670  -17.1180  -36.8720 N   0  0  0  0  0  0  0  0  0  0  0  0
   -1.5240  -17.8250  -36.6920 C   0  0  0  0  0  0  0  0  0  0  0  0
   -2.6190  -16.9710  -37.2820 C   0  0  0  0  0  0  0  0  0  0  0  0
   -2.6020  -15.6950  -36.6970 O   0  0  0  0  0  0  0  0  0  0  0  0
   -1.4890  -14.9750  -37.0740 C   0  0  0  0  0  0  0  0  0  0  0  0
   -0.2410  -15.6900  -36.6950 C   0  0  0  0  0  0  0  0  0  0  0  0
   -1.4000  -21.2600  -43.2640 H   0  0  0  0  0  0  0  0  0  0  0  0
   -0.3960  -19.9380  -41.4250 H   0  0  0  0  0  0  0  0  0  0  0  0
   -2.3620  -22.4280  -38.6130 H   0  0  0  0  0  0  0  0  0  0  0  0
   -3.3570  -23.7390  -40.4520 H   0  0  0  0  0  0  0  0  0  0  0  0
   -0.7190  -18.1870  -39.2810 H   0  0  0  0  0  0  0  0  0  0  0  0
    0.4020  -19.1990  -40.1620 H   0  0  0  0  0  0  0  0  0  0  0  0
    7.3020  -21.4270  -38.3130 H   0  0  0  0  0  0  0  0  0  0  0  0
    6.6120  -20.3170  -37.0230 H   0  0  0  0  0  0  0  0  0  0  0  0
    7.3150  -19.5920  -38.4810 H   0  0  0  0  0  0  0  0  0  0  0  0
    3.9140  -21.7080  -42.5470 H   0  0  0  0  0  0  0  0  0  0  0  0
    2.9780  -22.8370  -41.5460 H   0  0  0  0  0  0  0  0  0  0  0  0
    4.7250  -23.1230  -41.6810 H   0  0  0  0  0  0  0  0  0  0  0  0
   -1.7460  -17.9890  -35.6160 H   0  0  0  0  0  0  0  0  0  0  0  0
   -1.5280  -18.7990  -37.2330 H   0  0  0  0  0  0  0  0  0  0  0  0
   -2.6180  -16.9270  -38.3720 H   0  0  0  0  0  0  0  0  0  0  0  0
   -3.5950  -17.4220  -36.9660 H   0  0  0  0  0  0  0  0  0  0  0  0
   -1.4660  -14.7860  -38.1810 H   0  0  0  0  0  0  0  0  0  0  0  0
   -1.5160  -14.0150  -36.5140 H   0  0  0  0  0  0  0  0  0  0  0  0
    0.0960  -15.4730  -35.6570 H   0  0  0  0  0  0  0  0  0  0  0  0
    0.5850  -15.2820  -37.3430 H   0  0  0  0  0  0  0  0  0  0  0  0
  1  2  1  0  0  0  0
  2  7  1  0  0  0  0
  3  2  2  0  0  0  0
  3  4  1  0  0  0  0
  4  5  2  0  0  0  0
  5  6  1  0  0  0  0
  5  8  1  0  0  0  0
  6 35  1  0  0  0  0
  7 36  1  0  0  0  0
  7  6  2  0  0  0  0
  8  9  2  0  0  0  0
 10  8  1  0  0  0  0
 10 11  1  0  0  0  0
 11 12  1  0  0  0  0
 11 26  1  0  0  0  0
 12 13  1  0  0  0  0
 13 25  1  0  0  0  0
 14 13  2  0  0  0  0
 15 14  1  0  0  0  0
 16 15  2  0  0  0  0
 16 12  1  0  0  0  0
 17 16  1  0  0  0  0
 18 17  2  0  0  0  0
 19 17  1  0  0  0  0
 19 20  1  0  0  0  0
 20 22  1  0  0  0  0
 21 20  2  0  0  0  0
 22 15  1  0  0  0  0
 22 23  1  0  0  0  0
 23 40  1  0  0  0  0
 24 43  1  0  0  0  0
 24 19  1  0  0  0  0
 26 27  1  0  0  0  0
 26 25  2  0  0  0  0
 27 32  1  0  0  0  0
 27 28  1  0  0  0  0
 28 45  1  0  0  0  0
 29 48  1  0  0  0  0
 29 30  1  0  0  0  0
 29 28  1  0  0  0  0
 31 30  1  0  0  0  0
 31 32  1  0  0  0  0
 31 50  1  0  0  0  0
 32 51  1  0  0  0  0
 33  3  1  0  0  0  0
 34  4  1  0  0  0  0
 37 10  1  0  0  0  0
 38 10  1  0  0  0  0
 39 23  1  0  0  0  0
 41 23  1  0  0  0  0
 42 24  1  0  0  0  0
 44 24  1  0  0  0  0
 46 28  1  0  0  0  0
 47 29  1  0  0  0  0
 49 31  1  0  0  0  0
 52 32  1  0  0  0  0
M  END
>  <Pose>
1

>  <Score>
-4.69

$$$$
