
 OpenBabel03232221553D

 49 52  0  0  0  0  0  0  0  0999 V2000
   -2.2700  -21.3900  -39.0040 Cl  0  0  0  0  0  0  0  0  0  0  0  0
   -1.6370  -20.0270  -38.0750 C   0  0  0  0  0  0  0  0  0  0  0  0
   -0.3140  -19.6750  -38.0480 C   0  0  0  0  0  0  0  0  0  0  0  0
    0.1060  -18.5920  -37.3590 C   0  0  0  0  0  0  0  0  0  0  0  0
   -0.7760  -17.8090  -36.6670 C   0  0  0  0  0  0  0  0  0  0  0  0
   -2.1440  -18.1710  -36.6900 C   0  0  0  0  0  0  0  0  0  0  0  0
   -2.5830  -19.2670  -37.3780 C   0  0  0  0  0  0  0  0  0  0  0  0
   -3.9520  -19.6150  -37.3620 O   0  0  0  0  0  0  0  0  0  0  0  0
   -0.4120  -16.7430  -36.0120 O   0  0  0  0  0  0  0  0  0  0  0  0
    0.8640  -16.3730  -35.9990 C   0  0  0  0  0  0  0  0  0  0  0  0
    1.1870  -15.3570  -35.3720 O   0  0  0  0  0  0  0  0  0  0  0  0
    1.8370  -17.1240  -36.6890 C   0  0  0  0  0  0  0  0  0  0  0  0
    1.4920  -18.2370  -37.3750 C   0  0  0  0  0  0  0  0  0  0  0  0
    2.3260  -19.2280  -38.0740 C   0  0  0  0  0  0  0  0  0  0  0  0
    3.6000  -18.9280  -38.5630 N   0  0  0  0  0  4  0  0  0  0  0  0
    3.9510  -18.8410  -39.8970 C   0  0  0  0  0  0  0  0  0  0  0  0
    5.3570  -19.4900  -40.1390 C   0  0  0  0  0  0  0  0  0  0  0  0
    4.9450  -20.9620  -39.9460 N   0  0  0  0  0  0  0  0  0  0  0  0
    4.6130  -21.2340  -38.6340 C   0  0  0  0  0  0  0  0  0  0  0  0
    4.5520  -19.8710  -37.9080 C   0  0  0  0  0  0  0  0  0  0  0  0
    4.9300  -21.6810  -41.1610 C   0  0  0  0  0  0  0  0  0  0  0  0
    5.9110  -21.7140  -42.0900 C   0  0  0  0  0  0  0  0  0  0  0  0
    5.9050  -22.6590  -43.1550 C   0  0  0  0  0  0  0  0  0  0  0  0
    4.9030  -23.5830  -43.2880 C   0  0  0  0  0  0  0  0  0  0  0  0
    3.8840  -23.5530  -42.3410 C   0  0  0  0  0  0  0  0  0  0  0  0
    3.8960  -22.6250  -41.3100 C   0  0  0  0  0  0  0  0  0  0  0  0
    4.9400  -24.4840  -44.3450 O   0  0  0  0  0  0  0  0  0  0  0  0
    5.6510  -25.7260  -44.2310 C   0  0  0  0  0  0  0  0  0  0  0  0
    0.3470  -20.2900  -38.5970 H   0  0  0  0  0  0  0  0  0  0  0  0
   -2.8560  -17.5650  -36.1440 H   0  0  0  0  0  0  0  0  0  0  0  0
    2.8570  -16.8000  -36.5950 H   0  0  0  0  0  0  0  0  0  0  0  0
    1.8560  -20.1510  -38.4310 H   0  0  0  0  0  0  0  0  0  0  0  0
    2.7300  -19.7870  -37.0300 H   0  0  0  0  0  0  0  0  0  0  0  0
    3.8780  -18.0030  -38.0990 H   0  0  0  0  0  0  0  0  0  0  0  0
    3.3450  -19.4250  -40.6490 H   0  0  0  0  0  0  0  0  0  0  0  0
    4.0400  -17.8310  -40.3670 H   0  0  0  0  0  0  0  0  0  0  0  0
    6.1230  -19.2760  -39.5050 H   0  0  0  0  0  0  0  0  0  0  0  0
    5.5080  -19.3320  -41.2090 H   0  0  0  0  0  0  0  0  0  0  0  0
    3.5990  -21.7120  -38.5910 H   0  0  0  0  0  0  0  0  0  0  0  0
    5.2900  -21.8820  -38.0190 H   0  0  0  0  0  0  0  0  0  0  0  0
    5.5190  -19.4240  -37.9020 H   0  0  0  0  0  0  0  0  0  0  0  0
    4.2540  -19.9900  -36.8440 H   0  0  0  0  0  0  0  0  0  0  0  0
    6.7160  -20.9740  -42.0070 H   0  0  0  0  0  0  0  0  0  0  0  0
    6.7200  -22.6310  -43.8440 H   0  0  0  0  0  0  0  0  0  0  0  0
    3.0700  -24.2680  -42.4060 H   0  0  0  0  0  0  0  0  0  0  0  0
    3.0810  -22.6110  -40.6310 H   0  0  0  0  0  0  0  0  0  0  0  0
    6.5800  -25.6550  -44.9000 H   0  0  0  0  0  0  0  0  0  0  0  0
    5.0570  -26.6100  -44.4410 H   0  0  0  0  0  0  0  0  0  0  0  0
    6.1070  -25.8740  -43.2300 H   0  0  0  0  0  0  0  0  0  0  0  0
  1  2  1  0  0  0  0
  2  3  2  0  0  0  0
  2  7  1  0  0  0  0
  3  4  1  0  0  0  0
  4  5  2  0  0  0  0
  5  9  1  0  0  0  0
  6  5  1  0  0  0  0
  6 30  1  0  0  0  0
  7  8  1  0  0  0  0
  7  6  2  0  0  0  0
  9 10  1  0  0  0  0
 10 11  2  0  0  0  0
 12 31  1  0  0  0  0
 12 10  1  0  0  0  0
 13  4  1  0  0  0  0
 13 12  2  0  0  0  0
 14 13  1  0  0  0  0
 14 33  1  0  0  0  0
 15 34  1  0  0  0  0
 15 14  1  0  0  0  0
 15 20  1  0  0  0  0
 16 15  1  0  0  0  0
 17 18  1  0  0  0  0
 17 16  1  0  0  0  0
 17 37  1  0  0  0  0
 18 19  1  0  0  0  0
 19 39  1  0  0  0  0
 19 40  1  0  0  0  0
 19 20  1  0  0  0  0
 20 41  1  0  0  0  0
 20 42  1  0  0  0  0
 21 18  1  0  0  0  0
 22 43  1  0  0  0  0
 22 21  2  0  0  0  0
 23 22  1  0  0  0  0
 24 23  2  0  0  0  0
 24 25  1  0  0  0  0
 25 26  2  0  0  0  0
 26 21  1  0  0  0  0
 26 46  1  0  0  0  0
 27 28  1  0  0  0  0
 27 24  1  0  0  0  0
 28 49  1  0  0  0  0
 29  3  1  0  0  0  0
 32 14  1  0  0  0  0
 35 16  1  0  0  0  0
 36 16  1  0  0  0  0
 38 17  1  0  0  0  0
 44 23  1  0  0  0  0
 45 25  1  0  0  0  0
 47 28  1  0  0  0  0
 48 28  1  0  0  0  0
M  END
>  <Pose>
1

>  <Score>
-4.12

$$$$
