
 OpenBabel03232221553D

 47 50  0  0  1  0  0  0  0  0999 V2000
    1.7340  -23.7490  -42.6120 S   0  0  0  0  0  0  0  0  0  0  0  0
    0.8680  -23.2610  -41.5040 O   0  0  0  0  0  0  0  0  0  0  0  0
    2.0730  -25.2130  -42.4170 O   0  0  0  0  0  0  0  0  0  0  0  0
    3.1870  -22.8880  -42.7570 N   0  0  0  0  0  0  0  0  0  0  0  0
    4.0900  -23.0920  -41.7160 C   0  0  0  0  0  0  0  0  0  0  0  0
    5.2150  -22.1800  -41.5030 C   0  0  1  0  0  0  0  0  0  0  0  0
    5.4580  -21.3200  -42.7170 C   0  0  0  0  0  0  0  0  0  0  0  0
    4.1790  -20.6630  -43.0950 C   0  0  0  0  0  0  0  0  0  0  0  0
    3.1660  -21.7030  -43.4780 C   0  0  0  0  0  0  0  0  0  0  0  0
    5.0980  -21.2940  -40.3130 C   0  0  0  0  0  0  0  0  0  0  0  0
    3.9310  -20.8970  -39.8080 N   0  0  0  0  0  0  0  0  0  0  0  0
    3.8590  -20.0910  -38.7350 C   0  0  0  0  0  0  0  0  0  0  0  0
    2.8270  -19.5470  -38.0330 N   0  0  0  0  0  0  0  0  0  0  0  0
    3.3690  -18.8330  -37.0690 N   0  0  0  0  0  0  0  0  0  0  0  0
    4.6870  -18.8860  -37.1110 N   0  0  0  0  0  0  0  0  0  0  0  0
    5.0390  -19.6640  -38.1400 C   0  0  0  0  0  0  0  0  0  0  0  0
    6.2590  -20.0690  -38.6540 C   0  0  0  0  0  0  0  0  0  0  0  0
    6.2220  -20.8730  -39.7250 N   0  0  0  0  0  0  0  0  0  0  0  0
    7.4490  -19.6530  -38.0740 O   0  0  0  0  0  0  0  0  0  0  0  0
    1.4340  -19.7240  -38.3000 C   0  0  0  0  0  0  0  0  0  0  0  0
    0.6650  -18.4560  -38.3140 C   0  0  0  0  0  0  0  0  0  0  0  0
   -0.6340  -18.4740  -37.8740 C   0  0  0  0  0  0  0  0  0  0  0  0
   -1.4270  -17.3290  -37.8540 C   0  0  0  0  0  0  0  0  0  0  0  0
   -0.9090  -16.1270  -38.2860 C   0  0  0  0  0  0  0  0  0  0  0  0
    0.3950  -16.1010  -38.7270 C   0  0  0  0  0  0  0  0  0  0  0  0
    1.1780  -17.2530  -38.7430 C   0  0  0  0  0  0  0  0  0  0  0  0
   -1.3540  -19.9690  -37.3130 Cl  0  0  0  0  0  0  0  0  0  0  0  0
    0.7910  -23.6830  -44.1420 C   0  0  0  0  0  0  0  0  0  0  0  0
    4.4680  -24.1560  -41.7850 H   0  0  0  0  0  0  0  0  0  0  0  0
    3.4920  -23.1130  -40.7520 H   0  0  0  0  0  0  0  0  0  0  0  0
    6.1700  -22.7930  -41.3960 H   0  0  0  0  0  0  0  0  0  0  0  0
    6.2830  -20.6040  -42.5190 H   0  0  0  0  0  0  0  0  0  0  0  0
    5.7770  -21.9500  -43.5820 H   0  0  0  0  0  0  0  0  0  0  0  0
    4.4060  -20.0600  -44.0310 H   0  0  0  0  0  0  0  0  0  0  0  0
    3.7750  -19.9320  -42.3940 H   0  0  0  0  0  0  0  0  0  0  0  0
    2.1640  -21.1990  -43.4660 H   0  0  0  0  0  0  0  0  0  0  0  0
    3.3400  -21.9440  -44.5660 H   0  0  0  0  0  0  0  0  0  0  0  0
    8.1280  -19.1450  -38.6200 H   0  0  0  0  0  0  0  0  0  0  0  0
    0.9270  -20.3900  -37.5640 H   0  0  0  0  0  0  0  0  0  0  0  0
    1.3300  -20.1530  -39.3370 H   0  0  0  0  0  0  0  0  0  0  0  0
   -2.4520  -17.3280  -37.5110 H   0  0  0  0  0  0  0  0  0  0  0  0
   -1.5280  -15.2190  -38.2730 H   0  0  0  0  0  0  0  0  0  0  0  0
    0.8080  -15.1420  -39.0720 H   0  0  0  0  0  0  0  0  0  0  0  0
    2.2000  -17.2130  -39.0940 H   0  0  0  0  0  0  0  0  0  0  0  0
    0.4020  -22.6710  -44.3180 H   0  0  0  0  0  0  0  0  0  0  0  0
    1.4780  -24.0340  -44.9380 H   0  0  0  0  0  0  0  0  0  0  0  0
   -0.0790  -24.3520  -43.9850 H   0  0  0  0  0  0  0  0  0  0  0  0
  1  3  2  0  0  0  0
  1  2  2  0  0  0  0
  4  1  1  0  0  0  0
  4  5  1  0  0  0  0
  5  6  1  0  0  0  0
  5 30  1  0  0  0  0
  6 31  1  1  0  0  0
  6 10  1  0  0  0  0
  7 32  1  0  0  0  0
  7  6  1  0  0  0  0
  8  7  1  0  0  0  0
  8 35  1  0  0  0  0
  9 36  1  0  0  0  0
  9  8  1  0  0  0  0
  9  4  1  0  0  0  0
 10 11  2  0  0  0  0
 10 18  1  0  0  0  0
 11 12  1  0  0  0  0
 12 16  2  0  0  0  0
 12 13  1  0  0  0  0
 13 14  1  0  0  0  0
 15 14  2  0  0  0  0
 16 15  1  0  0  0  0
 17 16  1  0  0  0  0
 17 19  1  0  0  0  0
 18 17  2  0  0  0  0
 20 13  1  0  0  0  0
 20 39  1  0  0  0  0
 21 20  1  0  0  0  0
 21 22  1  0  0  0  0
 22 23  2  0  0  0  0
 22 27  1  0  0  0  0
 23 41  1  0  0  0  0
 24 42  1  0  0  0  0
 24 23  1  0  0  0  0
 25 24  2  0  0  0  0
 26 25  1  0  0  0  0
 26 21  2  0  0  0  0
 28 47  1  0  0  0  0
 28  1  1  0  0  0  0
 29  5  1  0  0  0  0
 33  7  1  0  0  0  0
 34  8  1  0  0  0  0
 37  9  1  0  0  0  0
 38 19  1  0  0  0  0
 40 20  1  0  0  0  0
 43 25  1  0  0  0  0
 44 26  1  0  0  0  0
 45 28  1  0  0  0  0
 46 28  1  0  0  0  0
M  END
>  <Pose>
1

>  <Score>
-4.82

$$$$
