
 OpenBabel03232221553D

 56 59  0  0  0  0  0  0  0  0999 V2000
   -3.5920  -17.5490  -37.0830 B   0  0  0  0  0  0  0  0  0  0  0  0
   -1.9790  -16.5420  -36.9610 C   0  0  0  0  0  0  0  0  0  0  0  0
   -0.8230  -17.1410  -36.4330 C   0  0  0  0  0  0  0  0  0  0  0  0
    0.3080  -16.4090  -36.3540 C   0  0  0  0  0  0  0  0  0  0  0  0
    0.3570  -15.1010  -36.7810 C   0  0  0  0  0  0  0  0  0  0  0  0
   -0.8080  -14.5240  -37.3080 C   0  0  0  0  0  0  0  0  0  0  0  0
   -1.9840  -15.2410  -37.3990 C   0  0  0  0  0  0  0  0  0  0  0  0
    1.5410  -14.3830  -36.6910 O   0  0  0  0  0  0  0  0  0  0  0  0
    1.6660  -13.0050  -36.6430 C   0  0  0  0  0  0  0  0  0  0  0  0
    1.5530  -17.0500  -35.8950 C   0  0  0  0  0  0  0  0  0  0  0  0
    2.0940  -17.9200  -36.7580 C   0  0  0  0  0  0  0  0  0  0  0  0
    1.5450  -18.2300  -37.9970 O   0  0  0  0  0  0  0  0  0  0  0  0
    2.3850  -19.1470  -38.6440 C   0  0  0  0  0  0  0  0  0  0  0  0
    3.4730  -19.4740  -37.8940 C   0  0  0  0  0  0  0  0  0  0  0  0
    4.4380  -20.3410  -38.3490 C   0  0  0  0  0  0  0  0  0  0  0  0
    4.3150  -20.9110  -39.6120 C   0  0  0  0  0  0  0  0  0  0  0  0
    3.1960  -20.5740  -40.3750 C   0  0  0  0  0  0  0  0  0  0  0  0
    2.2440  -19.7190  -39.9200 C   0  0  0  0  0  0  0  0  0  0  0  0
    0.9490  -19.4670  -40.5860 C   0  0  0  0  0  0  0  0  0  0  0  0
    0.8790  -18.2440  -41.2350 N   0  0  0  0  0  4  0  0  0  0  0  0
   -0.4920  -17.6460  -41.1680 C   0  0  0  0  0  0  0  0  0  0  0  0
   -0.2420  -16.1870  -40.7130 C   0  0  0  0  0  0  0  0  0  0  0  0
    1.1400  -15.8680  -40.8860 N   0  0  0  0  0  0  0  0  0  0  0  0
    1.6950  -16.2180  -42.1340 C   0  0  0  0  0  0  0  0  0  0  0  0
    1.4920  -17.7750  -42.3870 C   0  0  0  0  0  0  0  0  0  0  0  0
    1.8290  -15.2740  -39.8520 C   0  0  0  0  0  0  0  0  0  0  0  0
    2.0920  -13.8010  -39.8630 C   0  0  0  0  0  0  0  0  0  0  0  0
    3.4710  -13.5360  -39.8740 O   0  0  0  0  0  0  0  0  0  0  0  0
    3.1460  -21.1870  -41.6270 O   0  0  0  0  0  0  0  0  0  0  0  0
    3.3150  -18.6870  -36.6350 C   0  0  0  0  0  0  0  0  0  0  0  0
    4.0810  -18.6900  -35.6620 O   0  0  0  0  0  0  0  0  0  0  0  0
   -0.9300  -18.1710  -36.1310 H   0  0  0  0  0  0  0  0  0  0  0  0
   -0.8140  -13.5010  -37.6520 H   0  0  0  0  0  0  0  0  0  0  0  0
   -2.8800  -14.7420  -37.8150 H   0  0  0  0  0  0  0  0  0  0  0  0
    1.1500  -12.5030  -35.8250 H   0  0  0  0  0  0  0  0  0  0  0  0
    2.7560  -12.7580  -36.5410 H   0  0  0  0  0  0  0  0  0  0  0  0
    1.3260  -12.5340  -37.6140 H   0  0  0  0  0  0  0  0  0  0  0  0
    1.9920  -16.8620  -34.9490 H   0  0  0  0  0  0  0  0  0  0  0  0
    5.2910  -20.5710  -37.7110 H   0  0  0  0  0  0  0  0  0  0  0  0
    5.0820  -21.5940  -39.9490 H   0  0  0  0  0  0  0  0  0  0  0  0
    0.7790  -20.3410  -41.3110 H   0  0  0  0  0  0  0  0  0  0  0  0
    0.1300  -19.6440  -39.8390 H   0  0  0  0  0  0  0  0  0  0  0  0
    1.3420  -17.6070  -40.4010 H   0  0  0  0  0  0  0  0  0  0  0  0
   -1.0930  -18.1960  -40.4290 H   0  0  0  0  0  0  0  0  0  0  0  0
   -0.9030  -17.6580  -42.1890 H   0  0  0  0  0  0  0  0  0  0  0  0
   -0.8970  -15.5380  -41.3130 H   0  0  0  0  0  0  0  0  0  0  0  0
   -0.5220  -16.1420  -39.6650 H   0  0  0  0  0  0  0  0  0  0  0  0
    1.0890  -15.7480  -42.9230 H   0  0  0  0  0  0  0  0  0  0  0  0
    2.7230  -15.9470  -42.2480 H   0  0  0  0  0  0  0  0  0  0  0  0
    0.7660  -17.8880  -43.2530 H   0  0  0  0  0  0  0  0  0  0  0  0
    2.4520  -18.1530  -42.7190 H   0  0  0  0  0  0  0  0  0  0  0  0
    1.2750  -15.4560  -38.8500 H   0  0  0  0  0  0  0  0  0  0  0  0
    2.8100  -15.8030  -39.6550 H   0  0  0  0  0  0  0  0  0  0  0  0
    1.6210  -13.2140  -39.0780 H   0  0  0  0  0  0  0  0  0  0  0  0
    1.6950  -13.3820  -40.8370 H   0  0  0  0  0  0  0  0  0  0  0  0
    3.9080  -14.0640  -39.1280 H   0  0  0  0  0  0  0  0  0  0  0  0
  1  2  1  0  0  0  0
  2  3  1  0  0  0  0
  3  4  2  0  0  0  0
  3 32  1  0  0  0  0
  4 10  1  0  0  0  0
  5  8  1  0  0  0  0
  5  4  1  0  0  0  0
  6  5  2  0  0  0  0
  7  6  1  0  0  0  0
  7  2  2  0  0  0  0
  8  9  1  0  0  0  0
  9 36  1  0  0  0  0
  9 35  1  0  0  0  0
 10 38  1  0  0  0  0
 11 30  1  0  0  0  0
 11 10  2  0  0  0  0
 12 11  1  0  0  0  0
 13 12  1  0  0  0  0
 13 14  1  0  0  0  0
 14 30  1  0  0  0  0
 15 14  2  0  0  0  0
 15 39  1  0  0  0  0
 16 15  1  0  0  0  0
 17 18  1  0  0  0  0
 17 16  2  0  0  0  0
 18 13  2  0  0  0  0
 19 18  1  0  0  0  0
 19 42  1  0  0  0  0
 20 21  1  0  0  0  0
 20 19  1  0  0  0  0
 20 43  1  0  0  0  0
 21 22  1  0  0  0  0
 21 44  1  0  0  0  0
 22 47  1  0  0  0  0
 23 22  1  0  0  0  0
 23 26  1  0  0  0  0
 24 23  1  0  0  0  0
 25 24  1  0  0  0  0
 25 20  1  0  0  0  0
 26 53  1  0  0  0  0
 26 52  1  0  0  0  0
 27 26  1  0  0  0  0
 27 54  1  0  0  0  0
 28 27  1  0  0  0  0
 28 56  1  0  0  0  0
 29 17  1  0  0  0  0
 30 31  2  0  0  0  0
 33  6  1  0  0  0  0
 34  7  1  0  0  0  0
 37  9  1  0  0  0  0
 40 16  1  0  0  0  0
 41 19  1  0  0  0  0
 45 21  1  0  0  0  0
 46 22  1  0  0  0  0
 48 24  1  0  0  0  0
 49 24  1  0  0  0  0
 50 25  1  0  0  0  0
 51 25  1  0  0  0  0
 55 27  1  0  0  0  0
M  END
>  <Pose>
1

>  <Score>
-3.94

$$$$
