
 OpenBabel03232221553D

 53 56  0  0  0  0  0  0  0  0999 V2000
   12.8850  -29.2610  -43.6970 Cl  0  0  0  0  0  0  0  0  0  0  0  0
   11.5670  -28.1160  -43.6790 C   0  0  0  0  0  0  0  0  0  0  0  0
   11.2810  -27.3590  -42.5660 C   0  0  0  0  0  0  0  0  0  0  0  0
   10.2580  -26.4610  -42.5390 C   0  0  0  0  0  0  0  0  0  0  0  0
    9.4230  -26.2540  -43.6590 C   0  0  0  0  0  0  0  0  0  0  0  0
    9.7320  -27.0390  -44.7900 C   0  0  0  0  0  0  0  0  0  0  0  0
   10.7650  -27.9280  -44.7820 C   0  0  0  0  0  0  0  0  0  0  0  0
    8.4360  -25.4180  -43.6920 O   0  0  0  0  0  0  0  0  0  0  0  0
    7.4370  -24.6100  -43.6990 C   0  0  0  0  0  0  0  0  0  0  0  0
    6.0320  -25.0180  -43.5070 C   0  0  0  0  0  0  0  0  0  0  0  0
    5.8920  -26.2470  -43.0940 O   0  0  0  0  0  0  0  0  0  0  0  0
    4.8580  -24.3070  -43.6940 N   0  0  0  0  0  0  0  0  0  0  0  0
    4.9160  -23.0890  -44.5590 C   0  0  0  0  0  0  0  0  0  0  0  0
    4.0630  -22.0530  -43.8710 C   0  0  0  0  0  0  0  0  0  0  0  0
    3.8660  -22.3240  -42.4580 N   0  0  0  0  0  0  0  0  0  0  0  0
    3.1880  -23.5430  -42.1100 C   0  0  0  0  0  0  0  0  0  0  0  0
    3.5390  -24.5660  -43.1790 C   0  0  0  0  0  0  0  0  0  0  0  0
    4.3360  -21.4120  -41.4900 C   0  0  0  0  0  0  0  0  0  0  0  0
    3.5450  -21.0090  -40.4560 N   0  0  0  0  0  0  0  0  0  0  0  0
    3.9420  -20.1580  -39.5210 C   0  0  0  0  0  0  0  0  0  0  0  0
    5.2060  -19.6710  -39.6160 N   0  0  0  0  0  0  0  0  0  0  0  0
    6.0320  -20.0140  -40.5880 C   0  0  0  0  0  0  0  0  0  0  0  0
    5.6090  -20.9080  -41.5670 C   0  0  0  0  0  0  0  0  0  0  0  0
    3.1320  -19.7290  -38.4400 N   0  0  0  0  0  0  0  0  0  0  0  0
    1.6920  -19.5870  -38.6230 C   0  0  0  0  0  0  0  0  0  0  0  0
    1.3680  -18.1650  -38.1550 C   0  0  0  0  0  0  0  0  0  0  0  0
    1.7100  -18.0150  -36.8380 O   0  0  0  0  0  0  0  0  0  0  0  0
    3.0510  -18.1470  -36.5680 C   0  0  0  0  0  0  0  0  0  0  0  0
    3.6540  -19.4140  -37.1330 C   0  0  0  0  0  0  0  0  0  0  0  0
   11.9300  -27.5240  -41.7030 H   0  0  0  0  0  0  0  0  0  0  0  0
   10.0560  -25.8820  -41.6740 H   0  0  0  0  0  0  0  0  0  0  0  0
    9.0990  -26.8880  -45.6590 H   0  0  0  0  0  0  0  0  0  0  0  0
   10.9810  -28.5170  -45.6660 H   0  0  0  0  0  0  0  0  0  0  0  0
    7.3950  -24.0160  -44.7030 H   0  0  0  0  0  0  0  0  0  0  0  0
    7.5460  -23.6910  -42.9920 H   0  0  0  0  0  0  0  0  0  0  0  0
    4.4560  -23.4120  -45.5140 H   0  0  0  0  0  0  0  0  0  0  0  0
    5.9740  -22.7650  -44.6710 H   0  0  0  0  0  0  0  0  0  0  0  0
    3.0270  -22.1060  -44.3200 H   0  0  0  0  0  0  0  0  0  0  0  0
    4.4710  -21.0150  -43.9920 H   0  0  0  0  0  0  0  0  0  0  0  0
    3.3850  -23.9150  -41.1020 H   0  0  0  0  0  0  0  0  0  0  0  0
    2.0740  -23.3520  -42.1390 H   0  0  0  0  0  0  0  0  0  0  0  0
    2.8170  -24.3220  -44.0280 H   0  0  0  0  0  0  0  0  0  0  0  0
    3.3100  -25.5920  -42.9230 H   0  0  0  0  0  0  0  0  0  0  0  0
    7.0470  -19.6100  -40.6450 H   0  0  0  0  0  0  0  0  0  0  0  0
    6.2970  -21.1890  -42.3630 H   0  0  0  0  0  0  0  0  0  0  0  0
    1.3960  -19.7110  -39.6810 H   0  0  0  0  0  0  0  0  0  0  0  0
    1.2050  -20.2840  -37.9420 H   0  0  0  0  0  0  0  0  0  0  0  0
    1.9070  -17.4650  -38.8360 H   0  0  0  0  0  0  0  0  0  0  0  0
    0.2940  -18.0200  -38.2800 H   0  0  0  0  0  0  0  0  0  0  0  0
    3.6580  -17.2850  -36.9240 H   0  0  0  0  0  0  0  0  0  0  0  0
    3.1770  -18.1910  -35.4660 H   0  0  0  0  0  0  0  0  0  0  0  0
    4.7510  -19.2540  -37.1760 H   0  0  0  0  0  0  0  0  0  0  0  0
    3.4690  -20.2480  -36.4360 H   0  0  0  0  0  0  0  0  0  0  0  0
  1  2  1  0  0  0  0
  2  3  1  0  0  0  0
  3  4  2  0  0  0  0
  3 30  1  0  0  0  0
  4 31  1  0  0  0  0
  5  4  1  0  0  0  0
  6  7  1  0  0  0  0
  6  5  2  0  0  0  0
  7  2  2  0  0  0  0
  8  5  1  0  0  0  0
  9  8  1  0  0  0  0
  9 10  1  0  0  0  0
  9 35  1  0  0  0  0
 10 11  2  0  0  0  0
 12 10  1  0  0  0  0
 12 17  1  0  0  0  0
 13 14  1  0  0  0  0
 13 12  1  0  0  0  0
 14 15  1  0  0  0  0
 15 16  1  0  0  0  0
 15 18  1  0  0  0  0
 16 40  1  0  0  0  0
 17 43  1  0  0  0  0
 17 16  1  0  0  0  0
 18 19  1  0  0  0  0
 19 20  2  0  0  0  0
 20 24  1  0  0  0  0
 21 20  1  0  0  0  0
 22 21  2  0  0  0  0
 23 18  2  0  0  0  0
 23 22  1  0  0  0  0
 24 29  1  0  0  0  0
 25 24  1  0  0  0  0
 25 26  1  0  0  0  0
 25 47  1  0  0  0  0
 26 27  1  0  0  0  0
 27 28  1  0  0  0  0
 28 51  1  0  0  0  0
 29 28  1  0  0  0  0
 29 53  1  0  0  0  0
 32  6  1  0  0  0  0
 33  7  1  0  0  0  0
 34  9  1  0  0  0  0
 36 13  1  0  0  0  0
 37 13  1  0  0  0  0
 38 14  1  0  0  0  0
 39 14  1  0  0  0  0
 41 16  1  0  0  0  0
 42 17  1  0  0  0  0
 44 22  1  0  0  0  0
 45 23  1  0  0  0  0
 46 25  1  0  0  0  0
 48 26  1  0  0  0  0
 49 26  1  0  0  0  0
 50 28  1  0  0  0  0
 52 29  1  0  0  0  0
M  END
>  <Pose>
1

>  <Score>
-4.59

$$$$
