
 OpenBabel03232221553D

 45 48  0  0  0  0  0  0  0  0999 V2000
    9.5970  -19.5070  -43.5950 Cl  0  0  0  0  0  0  0  0  0  0  0  0
    8.6030  -18.0770  -43.7740 C   0  0  0  0  0  0  0  0  0  0  0  0
    8.9140  -17.1880  -44.7640 C   0  0  0  0  0  0  0  0  0  0  0  0
    8.1850  -16.0500  -44.9640 C   0  0  0  0  0  0  0  0  0  0  0  0
    7.1180  -15.8140  -44.1380 C   0  0  0  0  0  0  0  0  0  0  0  0
    6.8030  -16.7320  -43.1210 C   0  0  0  0  0  0  0  0  0  0  0  0
    7.5250  -17.8730  -42.9100 C   0  0  0  0  0  0  0  0  0  0  0  0
    7.2790  -18.8450  -41.9310 N   0  0  0  0  0  0  0  0  0  0  0  0
    6.0180  -19.3440  -41.5950 C   0  0  0  0  0  0  0  0  0  0  0  0
    5.2480  -19.8500  -42.4240 O   0  0  0  0  0  0  0  0  0  0  0  0
    5.5340  -19.2890  -40.1880 C   0  0  0  0  0  0  0  0  0  0  0  0
    4.2580  -19.2110  -39.9720 N   0  0  0  0  0  0  0  0  0  0  0  0
    3.7220  -19.1550  -38.6870 N   0  0  0  0  0  0  0  0  0  0  0  0
    4.5960  -19.1850  -37.5820 C   0  0  0  0  0  0  0  0  0  0  0  0
    4.0560  -19.2200  -36.4240 O   0  0  0  0  0  0  0  0  0  0  0  0
    6.0660  -19.1750  -37.7260 C   0  0  0  0  0  0  0  0  0  0  0  0
    6.4320  -19.3190  -39.0910 N   0  0  0  0  0  0  0  0  0  0  0  0
    2.2910  -19.0640  -38.4850 C   0  0  0  0  0  0  0  0  0  0  0  0
    1.4430  -20.0700  -38.8790 C   0  0  0  0  0  0  0  0  0  0  0  0
    0.0650  -19.9600  -38.6690 C   0  0  0  0  0  0  0  0  0  0  0  0
   -0.4720  -18.8420  -38.0650 C   0  0  0  0  0  0  0  0  0  0  0  0
    0.3900  -17.8420  -37.6770 C   0  0  0  0  0  0  0  0  0  0  0  0
    1.7320  -17.9560  -37.8850 C   0  0  0  0  0  0  0  0  0  0  0  0
   -1.9350  -18.6770  -37.8150 C   0  0  0  0  0  0  0  0  0  0  0  0
    6.3240  -14.6790  -44.2720 O   0  0  0  0  0  0  0  0  0  0  0  0
    6.3170  -13.8870  -45.4690 C   0  0  0  0  0  0  0  0  0  0  0  0
    7.6530  -13.9570  -46.1310 C   0  0  0  0  0  0  0  0  0  0  0  0
    8.0340  -12.9750  -46.8090 O   0  0  0  0  0  0  0  0  0  0  0  0
    8.4830  -15.1070  -46.0000 N   0  0  0  0  0  0  0  0  0  0  0  0
    9.7630  -17.3410  -45.4500 H   0  0  0  0  0  0  0  0  0  0  0  0
    5.9520  -16.5080  -42.4910 H   0  0  0  0  0  0  0  0  0  0  0  0
    8.1230  -19.2310  -41.4020 H   0  0  0  0  0  0  0  0  0  0  0  0
    6.4450  -18.1640  -37.3960 H   0  0  0  0  0  0  0  0  0  0  0  0
    6.5360  -19.9310  -37.0620 H   0  0  0  0  0  0  0  0  0  0  0  0
    7.4490  -19.4590  -39.3270 H   0  0  0  0  0  0  0  0  0  0  0  0
    1.8610  -20.9500  -39.3530 H   0  0  0  0  0  0  0  0  0  0  0  0
   -0.5880  -20.7450  -38.9760 H   0  0  0  0  0  0  0  0  0  0  0  0
   -0.0470  -16.9530  -37.1960 H   0  0  0  0  0  0  0  0  0  0  0  0
    2.3790  -17.1440  -37.5620 H   0  0  0  0  0  0  0  0  0  0  0  0
   -2.2980  -17.6800  -38.1220 H   0  0  0  0  0  0  0  0  0  0  0  0
   -2.5360  -19.4410  -38.3170 H   0  0  0  0  0  0  0  0  0  0  0  0
   -2.1190  -18.7820  -36.7150 H   0  0  0  0  0  0  0  0  0  0  0  0
    5.5880  -14.3950  -46.1550 H   0  0  0  0  0  0  0  0  0  0  0  0
    6.0070  -12.8580  -45.2500 H   0  0  0  0  0  0  0  0  0  0  0  0
    9.2860  -15.2590  -46.6410 H   0  0  0  0  0  0  0  0  0  0  0  0
  2  1  1  0  0  0  0
  2  7  1  0  0  0  0
  3  2  2  0  0  0  0
  4  3  1  0  0  0  0
  4  5  2  0  0  0  0
  5  6  1  0  0  0  0
  6  7  2  0  0  0  0
  6 31  1  0  0  0  0
  7  8  1  0  0  0  0
  8  9  1  0  0  0  0
  8 32  1  0  0  0  0
  9 11  1  0  0  0  0
 10  9  2  0  0  0  0
 11 12  2  0  0  0  0
 11 17  1  0  0  0  0
 12 13  1  0  0  0  0
 13 18  1  0  0  0  0
 13 14  1  0  0  0  0
 14 15  2  0  0  0  0
 16 14  1  0  0  0  0
 16 33  1  0  0  0  0
 16 34  1  0  0  0  0
 17 16  1  0  0  0  0
 18 23  1  0  0  0  0
 19 20  1  0  0  0  0
 19 18  2  0  0  0  0
 20 21  2  0  0  0  0
 21 24  1  0  0  0  0
 21 22  1  0  0  0  0
 22 38  1  0  0  0  0
 23 22  2  0  0  0  0
 23 39  1  0  0  0  0
 24 42  1  0  0  0  0
 25  5  1  0  0  0  0
 26 44  1  0  0  0  0
 26 25  1  0  0  0  0
 27 29  1  0  0  0  0
 27 26  1  0  0  0  0
 28 27  2  0  0  0  0
 29  4  1  0  0  0  0
 30  3  1  0  0  0  0
 35 17  1  0  0  0  0
 36 19  1  0  0  0  0
 37 20  1  0  0  0  0
 40 24  1  0  0  0  0
 41 24  1  0  0  0  0
 43 26  1  0  0  0  0
 45 29  1  0  0  0  0
M  END
>  <Pose>
1

>  <Score>
-4.79

$$$$
