
 OpenBabel03232221553D

 41 44  0  0  1  0  0  0  0  0999 V2000
    5.8600  -21.5670  -42.5970 S   0  0  0  0  0  0  0  0  0  0  0  0
    5.3860  -20.5300  -43.6060 O   0  0  0  0  0  0  0  0  0  0  0  0
    7.2880  -21.8850  -43.0290 O   0  0  0  0  0  0  0  0  0  0  0  0
    5.9200  -20.9440  -41.0400 N   0  0  0  0  0  0  0  0  0  0  0  0
    5.6700  -21.8210  -39.9670 C   0  0  0  0  0  0  0  0  0  0  0  0
    5.4910  -21.1230  -38.6330 C   0  0  0  0  0  0  0  0  0  0  0  0
    4.4470  -20.0780  -38.8520 C   0  0  2  0  0  0  0  0  0  0  0  0
    4.5880  -19.2900  -39.9760 C   0  0  0  0  0  0  0  0  0  0  0  0
    3.6900  -18.3390  -40.2280 N   0  0  0  0  0  0  0  0  0  0  0  0
    2.6650  -18.1810  -39.3660 C   0  0  1  0  0  0  0  0  0  0  0  0
    2.5040  -18.9350  -38.2640 N   0  0  0  0  0  0  0  0  0  0  0  0
    1.3990  -18.5510  -37.5980 N   0  0  0  0  0  0  0  0  0  0  0  0
    0.8040  -17.5360  -38.2420 C   0  0  0  0  0  0  0  0  0  0  0  0
    1.5810  -17.2920  -39.3490 C   0  0  0  0  0  0  0  0  0  0  0  0
    3.3970  -19.9080  -37.9770 C   0  0  0  0  0  0  0  0  0  0  0  0
    3.3000  -20.6450  -36.9630 O   0  0  0  0  0  0  0  0  0  0  0  0
    5.7580  -19.5630  -40.8450 C   0  0  0  0  0  0  0  0  0  0  0  0
    4.9000  -22.9770  -42.8290 C   0  0  0  0  0  0  0  0  0  0  0  0
    3.6340  -23.0800  -42.2580 C   0  0  0  0  0  0  0  0  0  0  0  0
    2.8930  -24.2230  -42.4620 C   0  0  0  0  0  0  0  0  0  0  0  0
    3.3530  -25.2610  -43.2050 C   0  0  0  0  0  0  0  0  0  0  0  0
    4.5910  -25.1910  -43.7780 C   0  0  0  0  0  0  0  0  0  0  0  0
    5.3340  -24.0470  -43.5750 C   0  0  0  0  0  0  0  0  0  0  0  0
    5.2150  -26.5280  -44.7510 Cl  0  0  0  0  0  0  0  0  0  0  0  0
    3.0930  -22.0740  -41.4930 O   0  0  0  0  0  0  0  0  0  0  0  0
    1.8720  -21.4910  -41.8880 C   0  0  0  0  0  0  0  0  0  0  0  0
    6.5140  -22.5500  -39.8810 H   0  0  0  0  0  0  0  0  0  0  0  0
    4.7590  -22.4370  -40.1870 H   0  0  0  0  0  0  0  0  0  0  0  0
    6.4670  -20.6800  -38.3340 H   0  0  0  0  0  0  0  0  0  0  0  0
    5.1610  -21.8910  -37.9120 H   0  0  0  0  0  0  0  0  0  0  0  0
    1.0770  -18.9980  -36.7100 H   0  0  0  0  0  0  0  0  0  0  0  0
   -0.1030  -16.9950  -37.9760 H   0  0  0  0  0  0  0  0  0  0  0  0
    1.4360  -16.5370  -40.1360 H   0  0  0  0  0  0  0  0  0  0  0  0
    6.6540  -19.1800  -40.2730 H   0  0  0  0  0  0  0  0  0  0  0  0
    5.7430  -19.0110  -41.7830 H   0  0  0  0  0  0  0  0  0  0  0  0
    1.8890  -24.3370  -42.0240 H   0  0  0  0  0  0  0  0  0  0  0  0
    2.7570  -26.1710  -43.3630 H   0  0  0  0  0  0  0  0  0  0  0  0
    6.3230  -24.0490  -44.0610 H   0  0  0  0  0  0  0  0  0  0  0  0
    1.9200  -21.1200  -42.9340 H   0  0  0  0  0  0  0  0  0  0  0  0
    1.0310  -22.2280  -41.8490 H   0  0  0  0  0  0  0  0  0  0  0  0
    1.5740  -20.6770  -41.1830 H   0  0  0  0  0  0  0  0  0  0  0  0
  1  4  1  0  0  0  0
  2  1  2  0  0  0  0
  3  1  2  0  0  0  0
  4 17  1  0  0  0  0
  4  5  1  0  0  0  0
  5 27  1  0  0  0  0
  5  6  1  0  0  0  0
  6 29  1  0  0  0  0
  6 30  1  0  0  0  0
  7  8  1  1  0  0  0
  7  6  1  0  0  0  0
  7 15  1  0  0  0  0
  9  8  2  0  0  0  0
 10  9  1  1  0  0  0
 10 14  1  0  0  0  0
 10 11  1  0  0  0  0
 11 15  1  0  0  0  0
 11 12  1  0  0  0  0
 12 31  1  0  0  0  0
 13 32  1  0  0  0  0
 13 12  1  0  0  0  0
 14 13  2  0  0  0  0
 15 16  2  0  0  0  0
 17 34  1  0  0  0  0
 17  8  1  0  0  0  0
 18  1  1  0  0  0  0
 18 19  1  0  0  0  0
 19 25  1  0  0  0  0
 20 19  2  0  0  0  0
 20 36  1  0  0  0  0
 21 20  1  0  0  0  0
 22 23  1  0  0  0  0
 22 21  2  0  0  0  0
 23 18  2  0  0  0  0
 24 22  1  0  0  0  0
 26 40  1  0  0  0  0
 26 25  1  0  0  0  0
 26 41  1  0  0  0  0
 28  5  1  0  0  0  0
 33 14  1  0  0  0  0
 35 17  1  0  0  0  0
 37 21  1  0  0  0  0
 38 23  1  0  0  0  0
 39 26  1  0  0  0  0
M  END
>  <Pose>
1

>  <Score>
-3.77

$$$$
