
 OpenBabel03232221553D

 41 43  0  0  1  0  0  0  0  0999 V2000
   -0.1520  -19.2810  -37.7240 Cl  0  0  0  0  0  0  0  0  0  0  0  0
    1.5370  -19.5880  -38.1200 C   0  0  0  0  0  0  0  0  0  0  0  0
    2.5270  -18.9430  -37.4090 C   0  0  0  0  0  0  0  0  0  0  0  0
    3.8400  -19.1960  -37.7340 C   0  0  0  0  0  0  0  0  0  0  0  0
    4.2200  -20.0770  -38.7520 C   0  0  0  0  0  0  0  0  0  0  0  0
    3.2330  -20.7100  -39.4500 C   0  0  0  0  0  0  0  0  0  0  0  0
    1.8920  -20.4660  -39.1340 C   0  0  0  0  0  0  0  0  0  0  0  0
    5.6300  -20.2560  -38.9900 C   0  0  0  0  0  0  0  0  0  0  0  0
    6.2660  -21.1030  -38.3010 O   0  0  0  0  0  0  0  0  0  0  0  0
    6.2800  -19.4750  -39.9940 N   0  0  0  0  0  0  0  0  0  0  0  0
    5.5440  -19.1670  -41.1840 C   0  0  0  0  0  0  0  0  0  0  0  0
    6.3200  -18.7460  -42.3680 C   0  0  2  0  0  0  0  0  0  0  0  0
    6.2950  -17.3580  -42.7130 N   0  0  1  0  0  0  0  0  0  0  0  0
    7.6650  -17.0550  -43.1940 C   0  0  0  0  0  0  0  0  0  0  0  0
    7.9760  -18.2050  -44.1600 C   0  0  0  0  0  0  0  0  0  0  0  0
    6.7730  -18.8190  -44.6840 N   0  0  1  0  0  0  0  0  0  0  0  0
    6.0160  -19.5180  -43.6420 C   0  0  0  0  0  0  0  0  0  0  0  0
    5.9070  -17.7380  -45.1220 C   0  0  0  0  0  0  0  0  0  0  0  0
    5.4620  -17.0260  -43.8510 C   0  0  0  0  0  0  0  0  0  0  0  0
    2.1800  -18.0640  -36.3920 O   0  0  0  0  0  0  0  0  0  0  0  0
    1.4720  -16.8690  -36.6610 C   0  0  0  0  0  0  0  0  0  0  0  0
    4.5930  -18.6670  -37.1480 H   0  0  0  0  0  0  0  0  0  0  0  0
    3.4460  -21.3960  -40.2390 H   0  0  0  0  0  0  0  0  0  0  0  0
    1.1270  -20.9790  -39.7010 H   0  0  0  0  0  0  0  0  0  0  0  0
    7.2370  -19.1660  -39.8250 H   0  0  0  0  0  0  0  0  0  0  0  0
    4.9010  -20.0140  -41.4620 H   0  0  0  0  0  0  0  0  0  0  0  0
    4.8650  -18.3060  -40.9190 H   0  0  0  0  0  0  0  0  0  0  0  0
    7.3990  -19.0440  -42.1390 H   0  0  0  0  0  0  0  0  0  0  0  0
    8.3040  -17.1210  -42.2950 H   0  0  0  0  0  0  0  0  0  0  0  0
    7.6760  -16.0830  -43.6910 H   0  0  0  0  0  0  0  0  0  0  0  0
    8.4770  -17.7180  -45.0240 H   0  0  0  0  0  0  0  0  0  0  0  0
    8.6810  -18.9110  -43.7080 H   0  0  0  0  0  0  0  0  0  0  0  0
    4.9650  -19.4950  -43.9310 H   0  0  0  0  0  0  0  0  0  0  0  0
    6.3920  -20.5600  -43.5440 H   0  0  0  0  0  0  0  0  0  0  0  0
    5.0340  -18.2110  -45.6120 H   0  0  0  0  0  0  0  0  0  0  0  0
    6.5010  -17.1080  -45.7930 H   0  0  0  0  0  0  0  0  0  0  0  0
    4.3930  -17.0810  -43.6900 H   0  0  0  0  0  0  0  0  0  0  0  0
    5.6930  -15.9340  -44.0650 H   0  0  0  0  0  0  0  0  0  0  0  0
    0.4870  -17.1720  -37.0770 H   0  0  0  0  0  0  0  0  0  0  0  0
    1.9820  -16.2770  -37.4650 H   0  0  0  0  0  0  0  0  0  0  0  0
    1.3410  -16.3100  -35.7350 H   0  0  0  0  0  0  0  0  0  0  0  0
  2  1  1  0  0  0  0
  2  3  1  0  0  0  0
  3 20  1  0  0  0  0
  4  3  2  0  0  0  0
  4 22  1  0  0  0  0
  5  4  1  0  0  0  0
  6  7  1  0  0  0  0
  6  5  2  0  0  0  0
  7  2  2  0  0  0  0
  8  5  1  0  0  0  0
  8  9  2  0  0  0  0
 10 25  1  0  0  0  0
 10  8  1  0  0  0  0
 11 27  1  0  0  0  0
 11 10  1  0  0  0  0
 12 28  1  1  0  0  0
 12 11  1  0  0  0  0
 13 19  1  6  0  0  0
 13 12  1  0  0  0  0
 14 13  1  0  0  0  0
 14 29  1  0  0  0  0
 15 32  1  0  0  0  0
 15 14  1  0  0  0  0
 16 18  1  1  0  0  0
 16 15  1  0  0  0  0
 16 17  1  0  0  0  0
 17 34  1  0  0  0  0
 17 12  1  0  0  0  0
 18 19  1  0  0  0  0
 19 37  1  0  0  0  0
 21 20  1  0  0  0  0
 21 41  1  0  0  0  0
 23  6  1  0  0  0  0
 24  7  1  0  0  0  0
 26 11  1  0  0  0  0
 30 14  1  0  0  0  0
 31 15  1  0  0  0  0
 33 17  1  0  0  0  0
 35 18  1  0  0  0  0
 36 18  1  0  0  0  0
 38 19  1  0  0  0  0
 39 21  1  0  0  0  0
 40 21  1  0  0  0  0
M  END
>  <Pose>
1

>  <Score>
-3.69

$$$$
