
 OpenBabel03232221553D

 47 50  0  0  1  0  0  0  0  0999 V2000
    6.6570  -19.2590  -38.0260 Cl  0  0  0  0  0  0  0  0  0  0  0  0
    5.9700  -20.2140  -39.3150 C   0  0  0  0  0  0  0  0  0  0  0  0
    5.0990  -21.2740  -39.0890 C   0  0  0  0  0  0  0  0  0  0  0  0
    4.5730  -22.0080  -40.1110 C   0  0  0  0  0  0  0  0  0  0  0  0
    4.8940  -21.7190  -41.4230 C   0  0  0  0  0  0  0  0  0  0  0  0
    5.7520  -20.6730  -41.6530 C   0  0  0  0  0  0  0  0  0  0  0  0
    6.2850  -19.9290  -40.6150 C   0  0  0  0  0  0  0  0  0  0  0  0
    4.2990  -22.5050  -42.4850 C   0  0  2  0  0  0  0  0  0  0  0  0
    4.9930  -22.9720  -43.5800 N   0  0  0  0  0  4  0  0  0  0  0  0
    5.2260  -21.8030  -44.4030 C   0  0  0  0  0  0  0  0  0  0  0  0
    6.2190  -21.3290  -45.0820 C   0  0  0  0  0  0  0  0  0  0  0  0
    6.1670  -20.0730  -45.8530 C   0  0  0  0  0  0  0  0  0  0  0  0
    4.8760  -19.3360  -45.7980 C   0  0  0  0  0  0  0  0  0  0  0  0
    3.6980  -20.1720  -45.4270 C   0  0  0  0  0  0  0  0  0  0  0  0
    3.9910  -21.1100  -44.3650 N   0  0  0  0  0  0  0  0  0  0  0  0
    3.2760  -21.5540  -43.1710 C   0  0  0  0  0  0  0  0  0  0  0  0
    6.0900  -23.8160  -43.5110 C   0  0  0  0  0  0  0  0  0  0  0  0
    6.1040  -25.1550  -43.7110 C   0  0  0  0  0  0  0  0  0  0  0  0
    7.2970  -25.8700  -43.6190 C   0  0  0  0  0  0  0  0  0  0  0  0
    8.5070  -25.2650  -43.3260 C   0  0  0  0  0  0  0  0  0  0  0  0
    8.4610  -23.9010  -43.1270 C   0  0  0  0  0  0  0  0  0  0  0  0
    7.3060  -23.1700  -43.2100 C   0  0  0  0  0  0  0  0  0  0  0  0
    9.6700  -26.0130  -43.2430 O   0  0  0  0  0  0  0  0  0  0  0  0
   10.3010  -26.1710  -41.9980 C   0  0  0  0  0  0  0  0  0  0  0  0
    3.4570  -23.5060  -41.9250 O   0  0  0  0  0  0  0  0  0  0  0  0
    4.8620  -21.4820  -38.0380 H   0  0  0  0  0  0  0  0  0  0  0  0
    3.8960  -22.8240  -39.8400 H   0  0  0  0  0  0  0  0  0  0  0  0
    6.0590  -20.3520  -42.6360 H   0  0  0  0  0  0  0  0  0  0  0  0
    6.9720  -19.0930  -40.8070 H   0  0  0  0  0  0  0  0  0  0  0  0
    4.2690  -23.5060  -44.1870 H   0  0  0  0  0  0  0  0  0  0  0  0
    7.1740  -21.8410  -45.1060 H   0  0  0  0  0  0  0  0  0  0  0  0
    6.5430  -20.2200  -46.8960 H   0  0  0  0  0  0  0  0  0  0  0  0
    6.9590  -19.4120  -45.3870 H   0  0  0  0  0  0  0  0  0  0  0  0
    4.6980  -18.9040  -46.8250 H   0  0  0  0  0  0  0  0  0  0  0  0
    4.9070  -18.4770  -45.0710 H   0  0  0  0  0  0  0  0  0  0  0  0
    3.3320  -20.7170  -46.3440 H   0  0  0  0  0  0  0  0  0  0  0  0
    2.8510  -19.5410  -45.0970 H   0  0  0  0  0  0  0  0  0  0  0  0
    2.4080  -22.1480  -43.5220 H   0  0  0  0  0  0  0  0  0  0  0  0
    3.0000  -20.7260  -42.5140 H   0  0  0  0  0  0  0  0  0  0  0  0
    5.1790  -25.6540  -43.9480 H   0  0  0  0  0  0  0  0  0  0  0  0
    7.2380  -26.9450  -43.7920 H   0  0  0  0  0  0  0  0  0  0  0  0
    9.4290  -23.4410  -42.8980 H   0  0  0  0  0  0  0  0  0  0  0  0
    7.3460  -22.0830  -43.0540 H   0  0  0  0  0  0  0  0  0  0  0  0
   10.7370  -25.2120  -41.6530 H   0  0  0  0  0  0  0  0  0  0  0  0
   11.0470  -26.9940  -42.0140 H   0  0  0  0  0  0  0  0  0  0  0  0
    9.5720  -26.4790  -41.1940 H   0  0  0  0  0  0  0  0  0  0  0  0
    3.9060  -23.7910  -41.0880 H   0  0  0  0  0  0  0  0  0  0  0  0
  2  3  1  0  0  0  0
  2  1  1  0  0  0  0
  3 26  1  0  0  0  0
  4 27  1  0  0  0  0
  4  3  2  0  0  0  0
  5  4  1  0  0  0  0
  6  5  2  0  0  0  0
  6  7  1  0  0  0  0
  7  2  2  0  0  0  0
  8 25  1  1  0  0  0
  8  5  1  0  0  0  0
  9 17  1  0  0  0  0
  9  8  1  0  0  0  0
 10 15  1  0  0  0  0
 10  9  1  0  0  0  0
 11 10  2  0  0  0  0
 12 13  1  0  0  0  0
 12 33  1  0  0  0  0
 12 11  1  0  0  0  0
 13 14  1  0  0  0  0
 13 35  1  0  0  0  0
 14 37  1  0  0  0  0
 14 15  1  0  0  0  0
 15 16  1  0  0  0  0
 16 39  1  0  0  0  0
 16  8  1  0  0  0  0
 17 22  1  0  0  0  0
 18 19  1  0  0  0  0
 18 17  2  0  0  0  0
 19 20  2  0  0  0  0
 20 23  1  0  0  0  0
 20 21  1  0  0  0  0
 21 42  1  0  0  0  0
 22 21  2  0  0  0  0
 22 43  1  0  0  0  0
 23 24  1  0  0  0  0
 24 44  1  0  0  0  0
 24 46  1  0  0  0  0
 25 47  1  0  0  0  0
 28  6  1  0  0  0  0
 29  7  1  0  0  0  0
 30  9  1  0  0  0  0
 31 11  1  0  0  0  0
 32 12  1  0  0  0  0
 34 13  1  0  0  0  0
 36 14  1  0  0  0  0
 38 16  1  0  0  0  0
 40 18  1  0  0  0  0
 41 19  1  0  0  0  0
 45 24  1  0  0  0  0
M  END
>  <Pose>
1

>  <Score>
-3.88

$$$$
