
 OpenBabel03232221553D

 51 54  0  0  0  0  0  0  0  0999 V2000
   -0.2270  -12.3370  -35.6250 Cl  0  0  0  0  0  0  0  0  0  0  0  0
   -0.0000  -13.8280  -36.5050 C   0  0  0  0  0  0  0  0  0  0  0  0
   -1.0420  -14.4030  -37.1790 C   0  0  0  0  0  0  0  0  0  0  0  0
   -0.8280  -15.5930  -37.8870 C   0  0  0  0  0  0  0  0  0  0  0  0
    0.4000  -16.2090  -37.9280 C   0  0  0  0  0  0  0  0  0  0  0  0
    1.4810  -15.6280  -37.2410 C   0  0  0  0  0  0  0  0  0  0  0  0
    1.2330  -14.4530  -36.5520 C   0  0  0  0  0  0  0  0  0  0  0  0
    0.3370  -17.3090  -38.6750 N   0  0  0  0  0  0  0  0  0  0  0  0
   -0.9680  -17.3740  -39.1050 C   0  0  0  0  0  0  0  0  0  0  0  0
   -1.4460  -18.2820  -39.8440 O   0  0  0  0  0  0  0  0  0  0  0  0
   -1.6120  -16.3430  -38.6160 O   0  0  0  0  0  0  0  0  0  0  0  0
    1.3230  -18.3340  -38.9700 C   0  0  0  0  0  0  0  0  0  0  0  0
    1.7840  -19.1620  -37.8590 C   0  0  0  0  0  0  0  0  0  0  0  0
    3.1010  -19.0200  -37.2890 C   0  0  0  0  0  0  0  0  0  0  0  0
    3.2080  -18.0930  -36.3990 O   0  0  0  0  0  0  0  0  0  0  0  0
    4.2650  -19.7500  -37.5420 N   0  0  0  0  0  0  0  0  0  0  0  0
    4.3280  -21.2210  -37.6220 C   0  0  0  0  0  0  0  0  0  0  0  0
    4.5760  -21.3600  -39.1570 C   0  0  0  0  0  0  0  0  0  0  0  0
    5.8990  -20.8200  -39.4370 N   0  0  0  0  0  0  0  0  0  0  0  0
    6.4620  -19.8920  -38.6200 C   0  0  0  0  0  0  0  0  0  0  0  0
    5.5510  -19.1290  -37.7010 C   0  0  0  0  0  0  0  0  0  0  0  0
    6.1850  -21.0640  -40.7710 C   0  0  0  0  0  0  0  0  0  0  0  0
    5.9630  -19.8240  -41.6380 C   0  0  0  0  0  0  0  0  0  0  0  0
    4.7550  -19.3750  -41.5920 O   0  0  0  0  0  0  0  0  0  0  0  0
    6.9470  -19.3010  -42.3600 N   0  0  0  0  0  0  0  0  0  0  0  0
    7.9930  -18.7430  -43.1290 C   0  0  0  0  0  0  0  0  0  0  0  0
    8.3560  -19.5530  -44.4320 C   0  0  0  0  0  0  0  0  0  0  0  0
    9.2620  -19.5520  -43.2990 C   0  0  0  0  0  0  0  0  0  0  0  0
   -2.0280  -13.9470  -37.1670 H   0  0  0  0  0  0  0  0  0  0  0  0
    2.4110  -16.1250  -37.2850 H   0  0  0  0  0  0  0  0  0  0  0  0
    2.0630  -14.0140  -36.0220 H   0  0  0  0  0  0  0  0  0  0  0  0
    2.2010  -17.7990  -39.4440 H   0  0  0  0  0  0  0  0  0  0  0  0
    0.8170  -18.9420  -39.7910 H   0  0  0  0  0  0  0  0  0  0  0  0
    1.6990  -20.2800  -38.1440 H   0  0  0  0  0  0  0  0  0  0  0  0
    1.0490  -19.0080  -36.9900 H   0  0  0  0  0  0  0  0  0  0  0  0
    3.4490  -21.7300  -37.3030 H   0  0  0  0  0  0  0  0  0  0  0  0
    5.2150  -21.6180  -37.0960 H   0  0  0  0  0  0  0  0  0  0  0  0
    4.5320  -22.4080  -39.4480 H   0  0  0  0  0  0  0  0  0  0  0  0
    3.8470  -20.8060  -39.7480 H   0  0  0  0  0  0  0  0  0  0  0  0
    7.0680  -19.1320  -39.2080 H   0  0  0  0  0  0  0  0  0  0  0  0
    7.2910  -20.3950  -37.9800 H   0  0  0  0  0  0  0  0  0  0  0  0
    5.5010  -18.0750  -37.9570 H   0  0  0  0  0  0  0  0  0  0  0  0
    6.0900  -19.1500  -36.6820 H   0  0  0  0  0  0  0  0  0  0  0  0
    5.5160  -21.8680  -41.1610 H   0  0  0  0  0  0  0  0  0  0  0  0
    7.2330  -21.4400  -40.9730 H   0  0  0  0  0  0  0  0  0  0  0  0
    7.7610  -19.2360  -41.2750 H   0  0  0  0  0  0  0  0  0  0  0  0
    7.9390  -17.6770  -43.4470 H   0  0  0  0  0  0  0  0  0  0  0  0
    7.5900  -20.2660  -44.6850 H   0  0  0  0  0  0  0  0  0  0  0  0
    8.6750  -18.9220  -45.3150 H   0  0  0  0  0  0  0  0  0  0  0  0
    9.4110  -20.4590  -42.6480 H   0  0  0  0  0  0  0  0  0  0  0  0
   10.2440  -19.0140  -43.4220 H   0  0  0  0  0  0  0  0  0  0  0  0
  2  1  1  0  0  0  0
  3 29  1  0  0  0  0
  3  2  2  0  0  0  0
  4  3  1  0  0  0  0
  5  4  2  0  0  0  0
  5  6  1  0  0  0  0
  6  7  2  0  0  0  0
  7  2  1  0  0  0  0
  7 31  1  0  0  0  0
  8  5  1  0  0  0  0
  9  8  1  0  0  0  0
  9 11  1  0  0  0  0
 10  9  2  0  0  0  0
 11  4  1  0  0  0  0
 12  8  1  0  0  0  0
 12 13  1  0  0  0  0
 13 14  1  0  0  0  0
 13 35  1  0  0  0  0
 14 15  2  0  0  0  0
 16 14  1  0  0  0  0
 17 16  1  0  0  0  0
 17 36  1  0  0  0  0
 17 37  1  0  0  0  0
 18 17  1  0  0  0  0
 19 18  1  0  0  0  0
 19 20  1  0  0  0  0
 20 41  1  0  0  0  0
 20 21  1  0  0  0  0
 21 16  1  0  0  0  0
 21 43  1  0  0  0  0
 22 19  1  0  0  0  0
 23 24  2  0  0  0  0
 23 22  1  0  0  0  0
 25 23  1  0  0  0  0
 25 46  1  0  0  0  0
 26 25  1  0  0  0  0
 27 28  1  0  0  0  0
 27 26  1  0  0  0  0
 28 26  1  0  0  0  0
 28 50  1  0  0  0  0
 30  6  1  0  0  0  0
 32 12  1  0  0  0  0
 33 12  1  0  0  0  0
 34 13  1  0  0  0  0
 38 18  1  0  0  0  0
 39 18  1  0  0  0  0
 40 20  1  0  0  0  0
 42 21  1  0  0  0  0
 44 22  1  0  0  0  0
 45 22  1  0  0  0  0
 47 26  1  0  0  0  0
 48 27  1  0  0  0  0
 49 27  1  0  0  0  0
 51 28  1  0  0  0  0
M  END
>  <Pose>
1

>  <Score>
-4.19

$$$$
