
 OpenBabel03232221553D

 38 40  0  0  1  0  0  0  0  0999 V2000
    4.2850  -18.9050  -37.2790 Cl  0  0  0  0  0  0  0  0  0  0  0  0
    2.5580  -18.9280  -37.5570 C   0  0  0  0  0  0  0  0  0  0  0  0
    2.0100  -19.8480  -38.4260 C   0  0  0  0  0  0  0  0  0  0  0  0
    0.6430  -19.8120  -38.5930 C   0  0  0  0  0  0  0  0  0  0  0  0
    0.0360  -20.6130  -39.3680 O   0  0  0  0  0  0  0  0  0  0  0  0
   -0.0900  -18.9080  -37.9250 N   0  0  0  0  0  0  0  0  0  0  0  0
    0.3910  -18.0130  -37.0850 N   0  0  0  0  0  0  0  0  0  0  0  0
   -0.4410  -17.0520  -36.3810 C   0  0  1  0  0  0  0  0  0  0  0  0
   -0.9670  -15.9650  -37.2940 C   0  0  0  0  0  0  0  0  0  0  0  0
   -2.1920  -16.4520  -38.0490 C   0  0  0  0  0  0  0  0  0  0  0  0
   -1.8650  -17.6480  -38.9140 C   0  0  0  0  0  0  0  0  0  0  0  0
   -1.5480  -18.8870  -38.1190 C   0  0  2  0  0  0  0  0  0  0  0  0
   -2.1430  -18.7340  -36.7650 C   0  0  0  0  0  0  0  0  0  0  0  0
   -1.6540  -17.8270  -35.9250 C   0  0  0  0  0  0  0  0  0  0  0  0
    1.7450  -18.0280  -36.9030 C   0  0  0  0  0  0  0  0  0  0  0  0
    2.2400  -17.1710  -36.0950 O   0  0  0  0  0  0  0  0  0  0  0  0
    2.7880  -20.8040  -39.1400 N   0  0  0  0  0  0  0  0  0  0  0  0
    4.0320  -20.5160  -39.7990 C   0  0  0  0  0  0  0  0  0  0  0  0
    5.2160  -21.1310  -39.0730 C   0  0  0  0  0  0  0  0  0  0  0  0
    4.0920  -20.9480  -41.2260 C   0  0  0  0  0  0  0  0  0  0  0  0
    0.0650  -16.6180  -35.5180 H   0  0  0  0  0  0  0  0  0  0  0  0
   -0.2010  -15.5510  -37.9620 H   0  0  0  0  0  0  0  0  0  0  0  0
   -1.3100  -15.1330  -36.6410 H   0  0  0  0  0  0  0  0  0  0  0  0
   -2.4950  -15.6370  -38.7350 H   0  0  0  0  0  0  0  0  0  0  0  0
   -2.9770  -16.7090  -37.3210 H   0  0  0  0  0  0  0  0  0  0  0  0
   -0.9760  -17.3380  -39.5380 H   0  0  0  0  0  0  0  0  0  0  0  0
   -2.6880  -17.8000  -39.6390 H   0  0  0  0  0  0  0  0  0  0  0  0
   -1.8880  -19.8140  -38.6220 H   0  0  0  0  0  0  0  0  0  0  0  0
   -2.9800  -19.3600  -36.4490 H   0  0  0  0  0  0  0  0  0  0  0  0
   -2.0920  -17.6380  -34.9530 H   0  0  0  0  0  0  0  0  0  0  0  0
    2.3690  -21.7830  -39.1520 H   0  0  0  0  0  0  0  0  0  0  0  0
    4.1930  -19.4200  -39.7700 H   0  0  0  0  0  0  0  0  0  0  0  0
    5.1350  -22.2420  -39.0540 H   0  0  0  0  0  0  0  0  0  0  0  0
    6.1140  -20.8860  -39.6670 H   0  0  0  0  0  0  0  0  0  0  0  0
    5.3510  -20.7080  -38.0570 H   0  0  0  0  0  0  0  0  0  0  0  0
    5.1360  -20.7620  -41.5740 H   0  0  0  0  0  0  0  0  0  0  0  0
    3.4050  -20.3720  -41.8950 H   0  0  0  0  0  0  0  0  0  0  0  0
    3.9350  -22.0310  -41.3150 H   0  0  0  0  0  0  0  0  0  0  0  0
  2  1  1  0  0  0  0
  2 15  1  0  0  0  0
  3  2  2  0  0  0  0
  4  3  1  0  0  0  0
  4  6  1  0  0  0  0
  5  4  2  0  0  0  0
  6  7  1  0  0  0  0
  7 15  1  0  0  0  0
  7  8  1  0  0  0  0
  8 14  1  0  0  0  0
  8 21  1  1  0  0  0
  9 23  1  0  0  0  0
  9  8  1  0  0  0  0
 10 25  1  0  0  0  0
 10  9  1  0  0  0  0
 11 12  1  0  0  0  0
 11 10  1  0  0  0  0
 12 28  1  6  0  0  0
 12  6  1  0  0  0  0
 12 13  1  0  0  0  0
 13 29  1  0  0  0  0
 13 14  2  0  0  0  0
 14 30  1  0  0  0  0
 15 16  2  0  0  0  0
 17  3  1  0  0  0  0
 18 32  1  0  0  0  0
 18 17  1  0  0  0  0
 18 19  1  0  0  0  0
 19 33  1  0  0  0  0
 19 35  1  0  0  0  0
 20 18  1  0  0  0  0
 22  9  1  0  0  0  0
 24 10  1  0  0  0  0
 26 11  1  0  0  0  0
 27 11  1  0  0  0  0
 31 17  1  0  0  0  0
 34 19  1  0  0  0  0
 36 20  1  0  0  0  0
 37 20  1  0  0  0  0
 38 20  1  0  0  0  0
M  END
>  <Pose>
1

>  <Score>
-3.13

$$$$
