
 OpenBabel03232221553D

 59 62  0  0  1  0  0  0  0  0999 V2000
    2.1980  -24.0270  -42.8930 Cl  0  0  0  0  0  0  0  0  0  0  0  0
    3.3290  -22.8040  -42.1870 C   0  0  2  0  0  0  0  0  0  0  0  0
    4.6120  -22.9130  -42.5000 C   0  0  2  0  0  0  0  0  0  0  0  0
    5.4980  -21.9160  -41.8520 C   0  0  0  0  0  0  0  0  0  0  0  0
    4.9550  -21.0440  -41.0890 N   0  0  0  0  0  0  0  0  0  0  0  0
    3.6290  -20.9570  -40.8080 N   0  0  0  0  0  0  0  0  0  0  0  0
    2.8110  -21.8220  -41.3410 C   0  0  0  0  0  0  0  0  0  0  0  0
    1.5480  -21.8210  -41.1510 O   0  0  0  0  0  0  0  0  0  0  0  0
    3.1770  -19.7370  -40.1410 C   0  0  0  0  0  0  0  0  0  0  0  0
    2.9110  -18.5870  -40.8130 C   0  0  0  0  0  0  0  0  0  0  0  0
    2.3710  -17.4910  -40.1750 C   0  0  0  0  0  0  0  0  0  0  0  0
    2.0780  -17.5350  -38.8120 C   0  0  0  0  0  0  0  0  0  0  0  0
    2.3700  -18.7260  -38.1480 C   0  0  0  0  0  0  0  0  0  0  0  0
    2.8950  -19.7790  -38.7880 C   0  0  0  0  0  0  0  0  0  0  0  0
    5.1570  -23.6080  -43.5690 N   0  0  0  0  0  0  0  0  0  0  0  0
    4.9650  -24.8790  -44.1270 C   0  0  0  0  0  0  0  0  0  0  0  0
    6.3540  -25.6160  -44.0790 C   0  0  0  0  0  0  0  0  0  0  0  0
    7.3530  -25.0350  -43.3300 N   0  0  0  0  0  0  0  0  0  0  0  0
    7.3480  -23.6120  -43.1270 C   0  0  0  0  0  0  0  0  0  0  0  0
    6.3900  -22.9320  -44.1590 C   0  0  0  0  0  0  0  0  0  0  0  0
    8.7470  -25.2730  -43.8330 C   0  0  0  0  0  0  0  0  0  0  0  0
    9.4940  -26.0560  -42.8600 C   0  0  0  0  0  0  0  0  0  0  0  0
    9.3730  -26.3130  -41.7800 O   0  0  0  0  0  0  0  0  0  0  0  0
   10.8780  -26.7320  -43.6000 N   0  0  0  0  0  0  0  0  0  0  0  0
   11.1280  -27.7260  -42.4970 C   0  0  0  0  0  0  0  0  0  0  0  0
   10.8890  -27.5560  -41.3340 O   0  0  0  0  0  0  0  0  0  0  0  0
   11.6910  -28.9410  -43.0410 N   0  0  0  0  0  0  0  0  0  0  0  0
   12.4760  -29.0810  -44.2090 C   0  0  0  0  0  0  0  0  0  0  0  0
   13.9370  -28.8950  -44.1350 C   0  0  0  0  0  0  0  0  0  0  0  0
   14.5620  -30.2690  -43.8740 C   0  0  0  0  0  0  0  0  0  0  0  0
   13.6170  -31.1700  -44.6340 C   0  0  0  0  0  0  0  0  0  0  0  0
   12.2890  -30.5510  -44.6370 C   0  0  0  0  0  0  0  0  0  0  0  0
    6.5130  -22.0920  -42.1340 H   0  0  0  0  0  0  0  0  0  0  0  0
    3.1510  -18.5170  -41.8730 H   0  0  0  0  0  0  0  0  0  0  0  0
    2.1260  -16.6120  -40.6860 H   0  0  0  0  0  0  0  0  0  0  0  0
    1.6480  -16.6690  -38.3620 H   0  0  0  0  0  0  0  0  0  0  0  0
    2.1050  -18.7330  -37.0890 H   0  0  0  0  0  0  0  0  0  0  0  0
    3.1030  -20.6890  -38.2390 H   0  0  0  0  0  0  0  0  0  0  0  0
    4.1750  -25.5130  -43.7470 H   0  0  0  0  0  0  0  0  0  0  0  0
    4.7050  -24.7190  -45.2110 H   0  0  0  0  0  0  0  0  0  0  0  0
    6.6130  -25.7300  -45.1770 H   0  0  0  0  0  0  0  0  0  0  0  0
    6.0830  -26.6810  -43.8030 H   0  0  0  0  0  0  0  0  0  0  0  0
    6.9100  -23.2780  -42.1540 H   0  0  0  0  0  0  0  0  0  0  0  0
    8.3140  -23.1810  -43.3790 H   0  0  0  0  0  0  0  0  0  0  0  0
    6.3760  -21.8860  -44.0960 H   0  0  0  0  0  0  0  0  0  0  0  0
    6.6260  -23.4280  -45.1330 H   0  0  0  0  0  0  0  0  0  0  0  0
    8.5790  -25.7520  -44.7890 H   0  0  0  0  0  0  0  0  0  0  0  0
    9.2080  -24.2900  -43.9700 H   0  0  0  0  0  0  0  0  0  0  0  0
   10.7450  -26.2170  -44.1620 H   0  0  0  0  0  0  0  0  0  0  0  0
   11.4610  -29.8350  -42.4920 H   0  0  0  0  0  0  0  0  0  0  0  0
   12.0950  -28.3600  -45.0280 H   0  0  0  0  0  0  0  0  0  0  0  0
   14.2970  -28.5970  -45.1490 H   0  0  0  0  0  0  0  0  0  0  0  0
   14.2870  -28.1510  -43.3900 H   0  0  0  0  0  0  0  0  0  0  0  0
   14.5410  -30.5160  -42.7920 H   0  0  0  0  0  0  0  0  0  0  0  0
   15.6030  -30.3280  -44.2890 H   0  0  0  0  0  0  0  0  0  0  0  0
   13.5540  -32.1300  -44.0060 H   0  0  0  0  0  0  0  0  0  0  0  0
   13.9800  -31.4550  -45.6420 H   0  0  0  0  0  0  0  0  0  0  0  0
   11.6770  -30.6560  -45.5560 H   0  0  0  0  0  0  0  0  0  0  0  0
   11.7000  -31.0550  -43.7710 H   0  0  0  0  0  0  0  0  0  0  0  0
  2  1  1  1  0  0  0
  2  7  1  0  0  0  0
  3 15  1  6  0  0  0
  3  2  1  0  0  0  0
  3  4  1  0  0  0  0
  4  5  2  0  0  0  0
  5  6  1  0  0  0  0
  6  9  1  0  0  0  0
  7  8  2  0  0  0  0
  7  6  1  0  0  0  0
  9 14  1  0  0  0  0
 10 11  1  0  0  0  0
 10  9  2  0  0  0  0
 11 12  2  0  0  0  0
 12 36  1  0  0  0  0
 12 13  1  0  0  0  0
 13 37  1  0  0  0  0
 14 38  1  0  0  0  0
 14 13  2  0  0  0  0
 16 17  1  0  0  0  0
 16 39  1  0  0  0  0
 16 15  1  0  0  0  0
 17 42  1  0  0  0  0
 17 18  1  0  0  0  0
 18 19  1  0  0  0  0
 19 43  1  0  0  0  0
 20 45  1  0  0  0  0
 20 15  1  0  0  0  0
 20 19  1  0  0  0  0
 21 18  1  0  0  0  0
 21 22  1  0  0  0  0
 22 23  2  0  0  0  0
 24 22  1  0  0  0  0
 24 25  1  0  0  0  0
 25 26  2  0  0  0  0
 27 25  1  0  0  0  0
 27 50  1  0  0  0  0
 28 29  1  0  0  0  0
 28 27  1  0  0  0  0
 29 30  1  0  0  0  0
 29 53  1  0  0  0  0
 30 54  1  0  0  0  0
 31 56  1  0  0  0  0
 31 30  1  0  0  0  0
 32 31  1  0  0  0  0
 32 28  1  0  0  0  0
 32 59  1  0  0  0  0
 33  4  1  0  0  0  0
 34 10  1  0  0  0  0
 35 11  1  0  0  0  0
 40 16  1  0  0  0  0
 41 17  1  0  0  0  0
 44 19  1  0  0  0  0
 46 20  1  0  0  0  0
 47 21  1  0  0  0  0
 48 21  1  0  0  0  0
 49 24  1  0  0  0  0
 51 28  1  0  0  0  0
 52 29  1  0  0  0  0
 55 30  1  0  0  0  0
 57 31  1  0  0  0  0
 58 32  1  0  0  0  0
M  END
>  <Pose>
1

>  <Score>
-5.16

$$$$
