
 OpenBabel03232221553D

 50 54  0  0  0  0  0  0  0  0999 V2000
    7.7610  -25.6540  -43.8720 S   0  0  0  0  0  0  0  0  0  0  0  0
    7.6810  -26.6410  -45.0320 O   0  0  0  0  0  0  0  0  0  0  0  0
    6.6470  -25.9290  -42.8960 O   0  0  0  0  0  0  0  0  0  0  0  0
    7.7090  -24.1130  -44.4840 N   0  0  0  0  0  0  0  0  0  0  0  0
    8.8680  -23.3450  -44.6260 C   0  0  0  0  0  0  0  0  0  0  0  0
    8.5400  -21.8500  -44.5560 C   0  0  0  0  0  0  0  0  0  0  0  0
    7.7640  -21.6110  -43.4050 N   0  0  0  0  0  0  0  0  0  0  0  0
    6.5630  -22.3520  -43.3400 C   0  0  0  0  0  0  0  0  0  0  0  0
    6.5190  -23.3700  -44.4580 C   0  0  0  0  0  0  0  0  0  0  0  0
    7.6850  -20.2590  -42.9530 C   0  0  0  0  0  0  0  0  0  0  0  0
    6.6260  -20.1630  -41.9200 C   0  0  0  0  0  0  0  0  0  0  0  0
    6.8140  -20.5960  -40.6220 C   0  0  0  0  0  0  0  0  0  0  0  0
    5.8660  -20.5280  -39.6330 C   0  0  0  0  0  0  0  0  0  0  0  0
    6.1580  -20.9610  -38.4700 O   0  0  0  0  0  0  0  0  0  0  0  0
    4.6370  -20.0010  -39.9130 N   0  0  0  0  0  0  0  0  0  0  0  0
    3.6740  -19.8810  -39.0890 N   0  0  0  0  0  0  0  0  0  0  0  0
    2.5260  -19.3690  -39.4230 C   0  0  0  0  0  0  0  0  0  0  0  0
    2.8400  -19.0170  -41.0840 S   0  0  0  0  0  0  0  0  0  0  0  0
    4.4590  -19.5840  -41.1680 C   0  0  0  0  0  0  0  0  0  0  0  0
    5.3950  -19.6520  -42.1390 N   0  0  0  0  0  0  0  0  0  0  0  0
    1.2960  -19.1350  -38.6580 C   0  0  0  0  0  0  0  0  0  0  0  0
    1.1510  -17.9380  -37.9890 C   0  0  0  0  0  0  0  0  0  0  0  0
    0.0110  -17.6560  -37.2480 C   0  0  0  0  0  0  0  0  0  0  0  0
   -1.0050  -18.5860  -37.1740 C   0  0  0  0  0  0  0  0  0  0  0  0
   -0.8810  -19.7950  -37.8370 C   0  0  0  0  0  0  0  0  0  0  0  0
    0.2670  -20.0290  -38.5580 C   0  0  0  0  0  0  0  0  0  0  0  0
   -2.4340  -18.2470  -36.2530 Cl  0  0  0  0  0  0  0  0  0  0  0  0
    9.2960  -25.9750  -43.0950 C   0  0  0  0  0  0  0  0  0  0  0  0
    9.5720  -25.8790  -41.7650 N   0  0  0  0  0  0  0  0  0  0  0  0
   10.8470  -26.1950  -41.5340 C   0  0  0  0  0  0  0  0  0  0  0  0
   11.4470  -26.5090  -42.6910 N   0  0  0  0  0  0  0  0  0  0  0  0
   10.4890  -26.3720  -43.6480 C   0  0  0  0  0  0  0  0  0  0  0  0
    9.2970  -23.5670  -45.6550 H   0  0  0  0  0  0  0  0  0  0  0  0
    9.6810  -23.5150  -43.8840 H   0  0  0  0  0  0  0  0  0  0  0  0
    7.9430  -21.6250  -45.4640 H   0  0  0  0  0  0  0  0  0  0  0  0
    9.4770  -21.2490  -44.5820 H   0  0  0  0  0  0  0  0  0  0  0  0
    6.5570  -22.9380  -42.3930 H   0  0  0  0  0  0  0  0  0  0  0  0
    5.6430  -21.7170  -43.4250 H   0  0  0  0  0  0  0  0  0  0  0  0
    5.6340  -24.0600  -44.3200 H   0  0  0  0  0  0  0  0  0  0  0  0
    6.3540  -22.8730  -45.4390 H   0  0  0  0  0  0  0  0  0  0  0  0
    7.3910  -19.6260  -43.8140 H   0  0  0  0  0  0  0  0  0  0  0  0
    8.6400  -19.9740  -42.5030 H   0  0  0  0  0  0  0  0  0  0  0  0
    7.8170  -21.0200  -40.4130 H   0  0  0  0  0  0  0  0  0  0  0  0
    1.9130  -17.1750  -38.0130 H   0  0  0  0  0  0  0  0  0  0  0  0
   -0.1320  -16.7280  -36.7130 H   0  0  0  0  0  0  0  0  0  0  0  0
   -1.6780  -20.5240  -37.7790 H   0  0  0  0  0  0  0  0  0  0  0  0
    0.3520  -20.9710  -39.0700 H   0  0  0  0  0  0  0  0  0  0  0  0
   11.3200  -26.1990  -40.5610 H   0  0  0  0  0  0  0  0  0  0  0  0
   12.4310  -26.7930  -42.8230 H   0  0  0  0  0  0  0  0  0  0  0  0
   10.6870  -26.5590  -44.6860 H   0  0  0  0  0  0  0  0  0  0  0  0
  1 28  1  0  0  0  0
  1  3  2  0  0  0  0
  2  1  2  0  0  0  0
  4  9  1  0  0  0  0
  4  1  1  0  0  0  0
  5  6  1  0  0  0  0
  5  4  1  0  0  0  0
  5 34  1  0  0  0  0
  6  7  1  0  0  0  0
  7  8  1  0  0  0  0
  7 10  1  0  0  0  0
  8 37  1  0  0  0  0
  9 39  1  0  0  0  0
  9  8  1  0  0  0  0
 10 42  1  0  0  0  0
 10 11  1  0  0  0  0
 11 12  2  0  0  0  0
 12 43  1  0  0  0  0
 12 13  1  0  0  0  0
 13 14  2  0  0  0  0
 15 13  1  0  0  0  0
 15 16  1  0  0  0  0
 17 16  2  0  0  0  0
 17 21  1  0  0  0  0
 18 17  1  0  0  0  0
 19 18  1  0  0  0  0
 19 15  1  0  0  0  0
 20 11  1  0  0  0  0
 20 19  2  0  0  0  0
 21 26  2  0  0  0  0
 21 22  1  0  0  0  0
 22 23  2  0  0  0  0
 23 24  1  0  0  0  0
 23 45  1  0  0  0  0
 24 27  1  0  0  0  0
 25 46  1  0  0  0  0
 25 24  2  0  0  0  0
 26 25  1  0  0  0  0
 28 29  1  0  0  0  0
 29 30  2  0  0  0  0
 30 48  1  0  0  0  0
 31 30  1  0  0  0  0
 32 28  2  0  0  0  0
 32 31  1  0  0  0  0
 33  5  1  0  0  0  0
 35  6  1  0  0  0  0
 36  6  1  0  0  0  0
 38  8  1  0  0  0  0
 40  9  1  0  0  0  0
 41 10  1  0  0  0  0
 44 22  1  0  0  0  0
 47 26  1  0  0  0  0
 49 31  1  0  0  0  0
 50 32  1  0  0  0  0
M  END
>  <Pose>
1

>  <Score>
-5.74

$$$$
