
 OpenBabel03232221553D

 55 58  0  0  0  0  0  0  0  0999 V2000
    5.6530  -21.1930  -42.0510 S   0  0  0  0  0  0  0  0  0  0  0  0
    4.1780  -20.9300  -42.2910 O   0  0  0  0  0  0  0  0  0  0  0  0
    6.4570  -20.0560  -42.5730 O   0  0  0  0  0  0  0  0  0  0  0  0
    5.8820  -21.2840  -40.2890 N   0  0  0  0  0  0  0  0  0  0  0  0
    6.1550  -19.9420  -39.8680 C   0  0  0  0  0  0  0  0  0  0  0  0
    5.8300  -19.6700  -38.3880 C   0  0  0  0  0  0  0  0  0  0  0  0
    4.4590  -20.0290  -38.2010 N   0  0  0  0  0  0  0  0  0  0  0  0
    4.3550  -21.4550  -38.3400 C   0  0  0  0  0  0  0  0  0  0  0  0
    4.5140  -21.6960  -39.8160 C   0  0  0  0  0  0  0  0  0  0  0  0
    3.6770  -19.2960  -37.3260 C   0  0  0  0  0  0  0  0  0  0  0  0
    2.5060  -18.6090  -37.8740 C   0  0  0  0  0  0  0  0  0  0  0  0
    2.1640  -17.5580  -37.1720 O   0  0  0  0  0  0  0  0  0  0  0  0
    1.7280  -18.8540  -38.9690 N   0  0  0  0  0  0  0  0  0  0  0  0
    0.3430  -18.4050  -39.1320 C   0  0  0  0  0  0  0  0  0  0  0  0
   -0.5090  -19.5720  -39.4340 C   0  0  0  0  0  0  0  0  0  0  0  0
   -1.3600  -20.1260  -38.4510 C   0  0  0  0  0  0  0  0  0  0  0  0
   -2.0460  -21.2640  -38.6370 C   0  0  0  0  0  0  0  0  0  0  0  0
   -1.9410  -21.9770  -39.8720 C   0  0  0  0  0  0  0  0  0  0  0  0
   -1.1330  -21.4730  -40.8100 C   0  0  0  0  0  0  0  0  0  0  0  0
   -0.4030  -20.2900  -40.6400 C   0  0  0  0  0  0  0  0  0  0  0  0
   -1.5330  -19.2480  -36.9100 Cl  0  0  0  0  0  0  0  0  0  0  0  0
    6.0920  -22.6580  -42.8360 C   0  0  0  0  0  0  0  0  0  0  0  0
    7.4540  -22.7860  -43.1400 C   0  0  0  0  0  0  0  0  0  0  0  0
    8.0150  -23.9410  -43.6890 C   0  0  0  0  0  0  0  0  0  0  0  0
    7.1730  -25.0200  -43.9460 C   0  0  0  0  0  0  0  0  0  0  0  0
    5.8310  -24.8760  -43.6470 C   0  0  0  0  0  0  0  0  0  0  0  0
    5.2850  -23.7230  -43.0970 C   0  0  0  0  0  0  0  0  0  0  0  0
    7.7950  -26.1310  -44.4830 O   0  0  0  0  0  0  0  0  0  0  0  0
    9.1150  -26.4670  -43.9770 C   0  0  0  0  0  0  0  0  0  0  0  0
    9.9950  -25.2740  -43.8040 C   0  0  0  0  0  0  0  0  0  0  0  0
    9.3650  -24.0280  -43.9800 O   0  0  0  0  0  0  0  0  0  0  0  0
    7.2940  -19.8360  -39.9220 H   0  0  0  0  0  0  0  0  0  0  0  0
    5.7780  -19.1100  -40.4780 H   0  0  0  0  0  0  0  0  0  0  0  0
    6.4770  -20.2930  -37.7700 H   0  0  0  0  0  0  0  0  0  0  0  0
    5.9570  -18.6290  -38.1230 H   0  0  0  0  0  0  0  0  0  0  0  0
    5.1600  -21.9660  -37.8210 H   0  0  0  0  0  0  0  0  0  0  0  0
    3.3140  -21.7920  -38.0870 H   0  0  0  0  0  0  0  0  0  0  0  0
    3.8240  -20.9680  -40.3590 H   0  0  0  0  0  0  0  0  0  0  0  0
    4.4020  -22.7340  -40.0530 H   0  0  0  0  0  0  0  0  0  0  0  0
    4.4120  -18.4730  -36.9240 H   0  0  0  0  0  0  0  0  0  0  0  0
    3.4250  -19.8090  -36.3580 H   0  0  0  0  0  0  0  0  0  0  0  0
    2.0620  -19.3740  -39.8470 H   0  0  0  0  0  0  0  0  0  0  0  0
    0.0640  -18.1040  -38.0570 H   0  0  0  0  0  0  0  0  0  0  0  0
    0.2850  -17.5940  -39.8220 H   0  0  0  0  0  0  0  0  0  0  0  0
   -2.6750  -21.6460  -37.8790 H   0  0  0  0  0  0  0  0  0  0  0  0
   -2.4950  -22.8760  -39.9990 H   0  0  0  0  0  0  0  0  0  0  0  0
   -1.0050  -21.9840  -41.7690 H   0  0  0  0  0  0  0  0  0  0  0  0
    0.2450  -19.9600  -41.4140 H   0  0  0  0  0  0  0  0  0  0  0  0
    8.0990  -21.9060  -42.9440 H   0  0  0  0  0  0  0  0  0  0  0  0
    5.2250  -25.7120  -43.8770 H   0  0  0  0  0  0  0  0  0  0  0  0
    4.2390  -23.6760  -42.8710 H   0  0  0  0  0  0  0  0  0  0  0  0
    8.9100  -27.0070  -42.9940 H   0  0  0  0  0  0  0  0  0  0  0  0
    9.5840  -27.1700  -44.6650 H   0  0  0  0  0  0  0  0  0  0  0  0
   10.8410  -25.3190  -44.4990 H   0  0  0  0  0  0  0  0  0  0  0  0
   10.3980  -25.3380  -42.7540 H   0  0  0  0  0  0  0  0  0  0  0  0
  1  4  1  0  0  0  0
  2  1  2  0  0  0  0
  3  1  2  0  0  0  0
  4  5  1  0  0  0  0
  4  9  1  0  0  0  0
  5  6  1  0  0  0  0
  6  7  1  0  0  0  0
  6 35  1  0  0  0  0
  6 34  1  0  0  0  0
  7 10  1  0  0  0  0
  8  7  1  0  0  0  0
  8 37  1  0  0  0  0
  8 36  1  0  0  0  0
  9  8  1  0  0  0  0
 10 40  1  0  0  0  0
 10 41  1  0  0  0  0
 11 10  1  0  0  0  0
 11 12  2  0  0  0  0
 13 11  1  0  0  0  0
 14 13  1  0  0  0  0
 14 43  1  0  0  0  0
 15 14  1  0  0  0  0
 15 16  1  0  0  0  0
 16 21  1  0  0  0  0
 17 16  2  0  0  0  0
 17 45  1  0  0  0  0
 18 17  1  0  0  0  0
 19 20  1  0  0  0  0
 19 18  2  0  0  0  0
 20 15  2  0  0  0  0
 22  1  1  0  0  0  0
 23 49  1  0  0  0  0
 23 22  2  0  0  0  0
 24 23  1  0  0  0  0
 25 24  2  0  0  0  0
 25 26  1  0  0  0  0
 26 27  2  0  0  0  0
 27 51  1  0  0  0  0
 27 22  1  0  0  0  0
 28 29  1  0  0  0  0
 28 25  1  0  0  0  0
 29 30  1  0  0  0  0
 29 52  1  0  0  0  0
 30 55  1  0  0  0  0
 31 30  1  0  0  0  0
 31 24  1  0  0  0  0
 32  5  1  0  0  0  0
 33  5  1  0  0  0  0
 38  9  1  0  0  0  0
 39  9  1  0  0  0  0
 42 13  1  0  0  0  0
 44 14  1  0  0  0  0
 46 18  1  0  0  0  0
 47 19  1  0  0  0  0
 48 20  1  0  0  0  0
 50 26  1  0  0  0  0
 53 29  1  0  0  0  0
 54 30  1  0  0  0  0
M  END
>  <Pose>
1

>  <Score>
-4.32

$$$$
