
 OpenBabel03232221553D

 68 71  0  0  0  0  0  0  0  0999 V2000
    4.6910  -20.5280  -38.6960 S   0  0  0  0  0  0  0  0  0  0  0  0
    4.5770  -21.9090  -38.0990 O   0  0  0  0  0  0  0  0  0  0  0  0
    5.8440  -19.8700  -37.9730 O   0  0  0  0  0  0  0  0  0  0  0  0
    4.8340  -20.5250  -40.3520 N   0  0  0  0  0  0  0  0  0  0  0  0
    3.7730  -20.7280  -41.2090 C   0  0  0  0  0  0  0  0  0  0  0  0
    4.1130  -21.7700  -42.2410 C   0  0  0  0  0  0  0  0  0  0  0  0
    5.4000  -21.6620  -42.8270 N   0  0  0  0  0  0  0  0  0  0  0  0
    6.0450  -20.4430  -42.4550 C   0  0  0  0  0  0  0  0  0  0  0  0
    6.0870  -20.3100  -40.9360 C   0  0  0  0  0  0  0  0  0  0  0  0
    6.2380  -22.8070  -42.6210 C   0  0  0  0  0  0  0  0  0  0  0  0
    5.8570  -23.9300  -43.5430 C   0  0  0  0  0  0  0  0  0  0  0  0
    4.6980  -24.3840  -43.4310 O   0  0  0  0  0  0  0  0  0  0  0  0
    6.7730  -24.4460  -44.4940 N   0  0  0  0  0  0  0  0  0  0  0  0
    8.1630  -24.1450  -44.3090 C   0  0  0  0  0  0  0  0  0  0  0  0
    9.1330  -25.1070  -44.8780 C   0  0  0  0  0  0  0  0  0  0  0  0
   10.2280  -24.3540  -45.5930 C   0  0  0  0  0  0  0  0  0  0  0  0
    9.9120  -24.1450  -47.0770 C   0  0  0  0  0  0  0  0  0  0  0  0
    9.9340  -25.4730  -47.8080 C   0  0  0  0  0  0  0  0  0  0  0  0
    9.4660  -26.5350  -46.8300 C   0  0  0  0  0  0  0  0  0  0  0  0
    8.3920  -25.8810  -45.9860 C   0  0  0  0  0  0  0  0  0  0  0  0
    9.6860  -26.0810  -44.0180 N   0  0  0  0  0  0  0  0  0  0  0  0
   11.0810  -26.3370  -44.0950 C   0  0  0  0  0  0  0  0  0  0  0  0
   11.3000  -27.6950  -43.4030 C   0  0  0  0  0  0  0  0  0  0  0  0
   10.9500  -27.6100  -42.0760 O   0  0  0  0  0  0  0  0  0  0  0  0
   10.4580  -26.3870  -41.6950 C   0  0  0  0  0  0  0  0  0  0  0  0
    9.3440  -25.9010  -42.6230 C   0  0  0  0  0  0  0  0  0  0  0  0
    3.2210  -19.6810  -38.2220 C   0  0  0  0  0  0  0  0  0  0  0  0
    3.2470  -18.6880  -37.2820 C   0  0  0  0  0  0  0  0  0  0  0  0
    2.1070  -18.0260  -36.9100 C   0  0  0  0  0  0  0  0  0  0  0  0
    0.9110  -18.3750  -37.4980 C   0  0  0  0  0  0  0  0  0  0  0  0
    0.8810  -19.3790  -38.4470 C   0  0  0  0  0  0  0  0  0  0  0  0
    2.0290  -20.0350  -38.8130 C   0  0  0  0  0  0  0  0  0  0  0  0
   -0.5320  -17.5090  -36.9990 Cl  0  0  0  0  0  0  0  0  0  0  0  0
    3.4420  -19.8260  -41.8010 H   0  0  0  0  0  0  0  0  0  0  0  0
    2.8310  -21.0690  -40.7020 H   0  0  0  0  0  0  0  0  0  0  0  0
    3.3560  -21.6950  -43.0660 H   0  0  0  0  0  0  0  0  0  0  0  0
    3.9230  -22.7590  -41.7710 H   0  0  0  0  0  0  0  0  0  0  0  0
    5.4570  -19.5660  -42.8480 H   0  0  0  0  0  0  0  0  0  0  0  0
    7.0810  -20.4480  -42.8120 H   0  0  0  0  0  0  0  0  0  0  0  0
    6.8860  -21.0140  -40.5630 H   0  0  0  0  0  0  0  0  0  0  0  0
    6.4710  -19.2720  -40.7090 H   0  0  0  0  0  0  0  0  0  0  0  0
    6.2880  -23.1390  -41.5640 H   0  0  0  0  0  0  0  0  0  0  0  0
    7.2750  -22.5340  -42.9100 H   0  0  0  0  0  0  0  0  0  0  0  0
    6.3870  -25.0260  -45.2860 H   0  0  0  0  0  0  0  0  0  0  0  0
    8.3240  -23.1230  -44.7210 H   0  0  0  0  0  0  0  0  0  0  0  0
    8.3830  -24.1020  -43.1980 H   0  0  0  0  0  0  0  0  0  0  0  0
   11.1960  -24.9160  -45.5820 H   0  0  0  0  0  0  0  0  0  0  0  0
   10.3570  -23.3280  -45.1800 H   0  0  0  0  0  0  0  0  0  0  0  0
   10.7250  -23.5180  -47.4880 H   0  0  0  0  0  0  0  0  0  0  0  0
    8.9660  -23.5960  -47.2240 H   0  0  0  0  0  0  0  0  0  0  0  0
    9.2220  -25.4170  -48.6570 H   0  0  0  0  0  0  0  0  0  0  0  0
   10.9470  -25.6550  -48.1730 H   0  0  0  0  0  0  0  0  0  0  0  0
    9.0570  -27.4320  -47.3550 H   0  0  0  0  0  0  0  0  0  0  0  0
   10.3000  -26.8250  -46.1590 H   0  0  0  0  0  0  0  0  0  0  0  0
    7.7480  -26.6590  -45.5850 H   0  0  0  0  0  0  0  0  0  0  0  0
    7.7560  -25.1820  -46.5680 H   0  0  0  0  0  0  0  0  0  0  0  0
   11.4570  -26.4980  -45.1270 H   0  0  0  0  0  0  0  0  0  0  0  0
   11.7340  -25.6280  -43.5500 H   0  0  0  0  0  0  0  0  0  0  0  0
   10.5620  -28.3900  -43.8940 H   0  0  0  0  0  0  0  0  0  0  0  0
   12.3150  -28.0540  -43.5800 H   0  0  0  0  0  0  0  0  0  0  0  0
   11.2450  -25.5960  -41.5750 H   0  0  0  0  0  0  0  0  0  0  0  0
    9.9870  -26.4800  -40.6850 H   0  0  0  0  0  0  0  0  0  0  0  0
    8.4470  -26.5090  -42.3980 H   0  0  0  0  0  0  0  0  0  0  0  0
    9.1520  -24.8520  -42.3370 H   0  0  0  0  0  0  0  0  0  0  0  0
    4.1930  -18.3960  -36.8030 H   0  0  0  0  0  0  0  0  0  0  0  0
    2.1400  -17.2350  -36.1580 H   0  0  0  0  0  0  0  0  0  0  0  0
   -0.0740  -19.6450  -38.9040 H   0  0  0  0  0  0  0  0  0  0  0  0
    1.9800  -20.8260  -39.5640 H   0  0  0  0  0  0  0  0  0  0  0  0
  1 27  1  0  0  0  0
  1  2  2  0  0  0  0
  1  3  2  0  0  0  0
  4  1  1  0  0  0  0
  5 35  1  0  0  0  0
  5  4  1  0  0  0  0
  6 37  1  0  0  0  0
  6  5  1  0  0  0  0
  7 10  1  0  0  0  0
  7  8  1  0  0  0  0
  7  6  1  0  0  0  0
  8  9  1  0  0  0  0
  9 41  1  0  0  0  0
  9 40  1  0  0  0  0
  9  4  1  0  0  0  0
 10 42  1  0  0  0  0
 11 12  2  0  0  0  0
 11 10  1  0  0  0  0
 13 14  1  0  0  0  0
 13 11  1  0  0  0  0
 14 46  1  0  0  0  0
 15 14  1  0  0  0  0
 15 21  1  0  0  0  0
 16 47  1  0  0  0  0
 16 48  1  0  0  0  0
 16 15  1  0  0  0  0
 17 16  1  0  0  0  0
 18 17  1  0  0  0  0
 18 19  1  0  0  0  0
 19 54  1  0  0  0  0
 19 20  1  0  0  0  0
 20 55  1  0  0  0  0
 20 15  1  0  0  0  0
 21 26  1  0  0  0  0
 22 21  1  0  0  0  0
 22 58  1  0  0  0  0
 22 23  1  0  0  0  0
 23 24  1  0  0  0  0
 24 25  1  0  0  0  0
 25 61  1  0  0  0  0
 25 62  1  0  0  0  0
 26 63  1  0  0  0  0
 26 64  1  0  0  0  0
 26 25  1  0  0  0  0
 27 28  1  0  0  0  0
 28 29  2  0  0  0  0
 28 65  1  0  0  0  0
 29 66  1  0  0  0  0
 30 33  1  0  0  0  0
 30 29  1  0  0  0  0
 31 30  2  0  0  0  0
 32 31  1  0  0  0  0
 32 27  2  0  0  0  0
 34  5  1  0  0  0  0
 36  6  1  0  0  0  0
 38  8  1  0  0  0  0
 39  8  1  0  0  0  0
 43 10  1  0  0  0  0
 44 13  1  0  0  0  0
 45 14  1  0  0  0  0
 49 17  1  0  0  0  0
 50 17  1  0  0  0  0
 51 18  1  0  0  0  0
 52 18  1  0  0  0  0
 53 19  1  0  0  0  0
 56 20  1  0  0  0  0
 57 22  1  0  0  0  0
 59 23  1  0  0  0  0
 60 23  1  0  0  0  0
 67 31  1  0  0  0  0
 68 32  1  0  0  0  0
M  END
>  <Pose>
1

>  <Score>
-3.87

$$$$
