
 OpenBabel03232221553D

 38 41  0  0  0  0  0  0  0  0999 V2000
   15.2080  -21.0720  -43.0020 Cl  0  0  0  0  0  0  0  0  0  0  0  0
   14.1060  -22.4240  -43.1620 C   0  0  0  0  0  0  0  0  0  0  0  0
   13.0750  -22.4300  -44.0930 C   0  0  0  0  0  0  0  0  0  0  0  0
   12.1910  -23.4630  -44.2410 C   0  0  0  0  0  0  0  0  0  0  0  0
   12.3040  -24.5650  -43.4430 C   0  0  0  0  0  0  0  0  0  0  0  0
   13.3300  -24.5900  -42.5000 C   0  0  0  0  0  0  0  0  0  0  0  0
   14.2130  -23.5360  -42.3650 C   0  0  0  0  0  0  0  0  0  0  0  0
   11.4320  -25.7510  -43.4850 C   0  0  0  0  0  0  0  0  0  0  0  0
   10.7430  -25.8170  -44.8080 C   0  0  0  0  0  0  0  0  0  0  0  0
    9.5590  -24.8350  -44.8490 C   0  0  0  0  0  0  0  0  0  0  0  0
    8.6480  -25.3850  -43.8340 N   0  0  0  0  0  0  0  0  0  0  0  0
    9.1430  -25.3200  -42.4960 C   0  0  0  0  0  0  0  0  0  0  0  0
   10.5140  -25.9070  -42.3310 C   0  0  0  0  0  0  0  0  0  0  0  0
    7.4030  -25.9140  -44.2510 C   0  0  0  0  0  0  0  0  0  0  0  0
    7.3710  -27.0630  -44.9490 N   0  0  0  0  0  0  0  0  0  0  0  0
    6.2790  -27.6610  -45.3820 N   0  0  0  0  0  0  0  0  0  0  0  0
    6.0200  -28.7770  -46.0690 N   0  0  0  0  0  0  0  0  0  0  0  0
    4.7260  -28.9240  -46.2430 N   0  0  0  0  0  0  0  0  0  0  0  0
    4.1370  -27.9100  -45.6690 N   0  0  0  0  0  0  0  0  0  0  0  0
    5.0920  -27.1130  -45.1290 C   0  0  0  0  0  0  0  0  0  0  0  0
    5.0440  -25.9280  -44.4140 C   0  0  0  0  0  0  0  0  0  0  0  0
    6.1970  -25.3170  -43.9700 C   0  0  0  0  0  0  0  0  0  0  0  0
   12.3250  -26.8520  -43.4640 O   0  0  0  0  0  0  0  0  0  0  0  0
   12.9600  -21.5720  -44.7310 H   0  0  0  0  0  0  0  0  0  0  0  0
   11.3920  -23.4680  -44.9710 H   0  0  0  0  0  0  0  0  0  0  0  0
   13.4930  -25.4160  -41.8310 H   0  0  0  0  0  0  0  0  0  0  0  0
   15.0210  -23.5670  -41.6070 H   0  0  0  0  0  0  0  0  0  0  0  0
   11.4190  -25.5330  -45.6400 H   0  0  0  0  0  0  0  0  0  0  0  0
   10.3280  -26.8130  -45.0410 H   0  0  0  0  0  0  0  0  0  0  0  0
    9.0990  -24.8360  -45.8470 H   0  0  0  0  0  0  0  0  0  0  0  0
    9.8390  -23.8300  -44.5030 H   0  0  0  0  0  0  0  0  0  0  0  0
    9.2220  -24.2210  -42.2340 H   0  0  0  0  0  0  0  0  0  0  0  0
    8.4550  -25.7730  -41.7570 H   0  0  0  0  0  0  0  0  0  0  0  0
   10.3420  -27.0190  -42.1880 H   0  0  0  0  0  0  0  0  0  0  0  0
   10.9530  -25.5760  -41.3800 H   0  0  0  0  0  0  0  0  0  0  0  0
    4.0670  -25.5160  -44.2290 H   0  0  0  0  0  0  0  0  0  0  0  0
    6.1610  -24.3960  -43.4150 H   0  0  0  0  0  0  0  0  0  0  0  0
   12.7480  -26.8620  -42.5510 H   0  0  0  0  0  0  0  0  0  0  0  0
  2  1  1  0  0  0  0
  2  7  1  0  0  0  0
  3  2  2  0  0  0  0
  4  3  1  0  0  0  0
  4  5  2  0  0  0  0
  5  6  1  0  0  0  0
  6  7  2  0  0  0  0
  6 26  1  0  0  0  0
  7 27  1  0  0  0  0
  8 23  1  0  0  0  0
  8  5  1  0  0  0  0
  8 13  1  0  0  0  0
  9  8  1  0  0  0  0
 10  9  1  0  0  0  0
 10 31  1  0  0  0  0
 10 11  1  0  0  0  0
 11 12  1  0  0  0  0
 12 13  1  0  0  0  0
 12 32  1  0  0  0  0
 12 33  1  0  0  0  0
 13 34  1  0  0  0  0
 13 35  1  0  0  0  0
 14 22  1  0  0  0  0
 14 11  1  0  0  0  0
 15 14  2  0  0  0  0
 16 20  1  0  0  0  0
 16 15  1  0  0  0  0
 17 16  1  0  0  0  0
 18 17  2  0  0  0  0
 18 19  1  0  0  0  0
 19 20  2  0  0  0  0
 20 21  1  0  0  0  0
 21 36  1  0  0  0  0
 21 22  2  0  0  0  0
 22 37  1  0  0  0  0
 23 38  1  0  0  0  0
 24  3  1  0  0  0  0
 25  4  1  0  0  0  0
 28  9  1  0  0  0  0
 29  9  1  0  0  0  0
 30 10  1  0  0  0  0
M  END
>  <Pose>
1

>  <Score>
-3.94

$$$$
