
 OpenBabel03232221553D

 50 53  0  0  1  0  0  0  0  0999 V2000
    9.7260  -18.6570  -44.8880 S   0  0  0  0  0  0  0  0  0  0  0  0
   10.0510  -18.1750  -46.2670 O   0  0  0  0  0  0  0  0  0  0  0  0
    9.9790  -17.4980  -43.9550 O   0  0  0  0  0  0  0  0  0  0  0  0
    8.0920  -19.0950  -44.7660 N   0  0  0  0  0  0  0  0  0  0  0  0
    7.1580  -18.0680  -45.0320 C   0  0  0  0  0  0  0  0  0  0  0  0
    5.8100  -18.2520  -44.3860 C   0  0  0  0  0  0  0  0  0  0  0  0
    5.8930  -18.7130  -43.0280 N   0  0  0  0  0  0  0  0  0  0  0  0
    7.1770  -19.1850  -42.5750 C   0  0  0  0  0  0  0  0  0  0  0  0
    7.7730  -20.0010  -43.7190 C   0  0  0  0  0  0  0  0  0  0  0  0
    4.7530  -18.6970  -42.2070 C   0  0  0  0  0  0  0  0  0  0  0  0
    4.2600  -17.5690  -41.9230 O   0  0  0  0  0  0  0  0  0  0  0  0
    4.0990  -19.9170  -41.6570 C   0  0  2  0  0  0  0  0  0  0  0  0
    3.9390  -19.8410  -40.2520 N   0  0  0  0  0  0  0  0  0  0  0  0
    5.0120  -20.3460  -39.4600 C   0  0  2  0  0  0  0  0  0  0  0  0
    5.6790  -21.6690  -40.4900 S   0  0  0  0  0  0  0  0  0  0  0  0
    4.8220  -21.1740  -42.0370 C   0  0  0  0  0  0  0  0  0  0  0  0
    4.2900  -21.0050  -38.3000 C   0  0  0  0  0  0  0  0  0  0  0  0
    3.3010  -19.8810  -37.9660 C   0  0  0  0  0  0  0  0  0  0  0  0
    2.9610  -19.3750  -39.2930 C   0  0  0  0  0  0  0  0  0  0  0  0
    1.9540  -18.6410  -39.5280 O   0  0  0  0  0  0  0  0  0  0  0  0
    6.0190  -19.3630  -39.0140 C   0  0  0  0  0  0  0  0  0  0  0  0
   10.8230  -19.9440  -44.3960 C   0  0  0  0  0  0  0  0  0  0  0  0
   11.8820  -19.6780  -43.5570 C   0  0  0  0  0  0  0  0  0  0  0  0
   12.7570  -20.6600  -43.1550 C   0  0  0  0  0  0  0  0  0  0  0  0
   12.6130  -21.9690  -43.5790 C   0  0  0  0  0  0  0  0  0  0  0  0
   11.5390  -22.2040  -44.4220 C   0  0  0  0  0  0  0  0  0  0  0  0
   10.6580  -21.2350  -44.8300 C   0  0  0  0  0  0  0  0  0  0  0  0
   13.7080  -23.2430  -43.0880 Cl  0  0  0  0  0  0  0  0  0  0  0  0
    7.0650  -17.9040  -46.1240 H   0  0  0  0  0  0  0  0  0  0  0  0
    7.5750  -17.1090  -44.6160 H   0  0  0  0  0  0  0  0  0  0  0  0
    5.2170  -18.9220  -45.0460 H   0  0  0  0  0  0  0  0  0  0  0  0
    5.2590  -17.2660  -44.4260 H   0  0  0  0  0  0  0  0  0  0  0  0
    7.1170  -19.7850  -41.6490 H   0  0  0  0  0  0  0  0  0  0  0  0
    7.8180  -18.2840  -42.4230 H   0  0  0  0  0  0  0  0  0  0  0  0
    7.1010  -20.8080  -44.0180 H   0  0  0  0  0  0  0  0  0  0  0  0
    8.7240  -20.4870  -43.3780 H   0  0  0  0  0  0  0  0  0  0  0  0
    3.1110  -19.9840  -42.1620 H   0  0  0  0  0  0  0  0  0  0  0  0
    4.1610  -22.0120  -42.3140 H   0  0  0  0  0  0  0  0  0  0  0  0
    5.5570  -21.0470  -42.8570 H   0  0  0  0  0  0  0  0  0  0  0  0
    3.7620  -21.8880  -38.7220 H   0  0  0  0  0  0  0  0  0  0  0  0
    4.9460  -21.2360  -37.4620 H   0  0  0  0  0  0  0  0  0  0  0  0
    2.4220  -20.3420  -37.4500 H   0  0  0  0  0  0  0  0  0  0  0  0
    3.8260  -19.1370  -37.3610 H   0  0  0  0  0  0  0  0  0  0  0  0
    6.4740  -19.7440  -38.0510 H   0  0  0  0  0  0  0  0  0  0  0  0
    6.8990  -19.2820  -39.7070 H   0  0  0  0  0  0  0  0  0  0  0  0
    5.5970  -18.3740  -38.7540 H   0  0  0  0  0  0  0  0  0  0  0  0
   12.0110  -18.6460  -43.2110 H   0  0  0  0  0  0  0  0  0  0  0  0
   13.5910  -20.4340  -42.4890 H   0  0  0  0  0  0  0  0  0  0  0  0
   11.4480  -23.2480  -44.7430 H   0  0  0  0  0  0  0  0  0  0  0  0
    9.8510  -21.4950  -45.4840 H   0  0  0  0  0  0  0  0  0  0  0  0
  1  4  1  0  0  0  0
  1 22  1  0  0  0  0
  1  3  2  0  0  0  0
  2  1  2  0  0  0  0
  4  9  1  0  0  0  0
  5  4  1  0  0  0  0
  5 30  1  0  0  0  0
  5  6  1  0  0  0  0
  6  7  1  0  0  0  0
  7  8  1  0  0  0  0
  7 10  1  0  0  0  0
  8 34  1  0  0  0  0
  8 33  1  0  0  0  0
  9 36  1  0  0  0  0
  9  8  1  0  0  0  0
 10 11  2  0  0  0  0
 10 12  1  0  0  0  0
 12 37  1  6  0  0  0
 12 13  1  0  0  0  0
 13 14  1  0  0  0  0
 13 19  1  0  0  0  0
 14 21  1  1  0  0  0
 14 17  1  0  0  0  0
 15 14  1  0  0  0  0
 16 12  1  0  0  0  0
 16 15  1  0  0  0  0
 17 18  1  0  0  0  0
 17 41  1  0  0  0  0
 18 42  1  0  0  0  0
 18 43  1  0  0  0  0
 19 18  1  0  0  0  0
 20 19  2  0  0  0  0
 21 46  1  0  0  0  0
 21 44  1  0  0  0  0
 22 23  1  0  0  0  0
 23 47  1  0  0  0  0
 23 24  2  0  0  0  0
 24 48  1  0  0  0  0
 25 24  1  0  0  0  0
 25 28  1  0  0  0  0
 26 25  2  0  0  0  0
 27 26  1  0  0  0  0
 27 22  2  0  0  0  0
 29  5  1  0  0  0  0
 31  6  1  0  0  0  0
 32  6  1  0  0  0  0
 35  9  1  0  0  0  0
 38 16  1  0  0  0  0
 39 16  1  0  0  0  0
 40 17  1  0  0  0  0
 45 21  1  0  0  0  0
 49 26  1  0  0  0  0
 50 27  1  0  0  0  0
M  END
>  <Pose>
1

>  <Score>
-3.68

$$$$
