
 OpenBabel03232221553D

 44 47  0  0  1  0  0  0  0  0999 V2000
    7.0890  -19.6430  -37.9000 B   0  0  0  0  0  0  0  0  0  0  0  0
    5.4360  -20.1600  -38.7130 C   0  0  0  0  0  0  0  0  0  0  0  0
    4.2240  -19.6810  -38.2600 C   0  0  0  0  0  0  0  0  0  0  0  0
    3.0220  -20.0460  -38.8420 C   0  0  0  0  0  0  0  0  0  0  0  0
    3.0940  -20.9200  -39.9040 C   0  0  0  0  0  0  0  0  0  0  0  0
    4.2830  -21.4200  -40.3840 C   0  0  0  0  0  0  0  0  0  0  0  0
    5.4770  -21.0440  -39.7910 C   0  0  0  0  0  0  0  0  0  0  0  0
    4.3130  -22.6300  -41.8640 B   0  0  0  0  0  0  0  0  0  0  0  0
    1.9000  -19.3980  -38.1770 C   0  0  0  0  0  0  0  0  0  0  0  0
    0.6440  -19.4740  -38.4120 N   0  0  0  0  0  0  0  0  0  0  0  0
   -0.3090  -18.7740  -37.6660 N   0  0  0  0  0  0  0  0  0  0  0  0
   -1.5750  -19.3740  -37.4780 C   0  0  0  0  0  0  0  0  0  0  0  0
   -1.7870  -20.5410  -37.8690 O   0  0  0  0  0  0  0  0  0  0  0  0
   -2.7090  -18.6580  -36.8140 C   0  0  0  0  0  0  0  0  0  0  0  0
   -3.1450  -17.5190  -37.5740 N   0  0  0  0  0  0  0  0  0  0  0  0
   -3.8750  -16.4420  -37.0010 C   0  0  0  0  0  0  0  0  0  0  0  0
   -4.6270  -16.6840  -36.0320 O   0  0  0  0  0  0  0  0  0  0  0  0
   -3.7950  -15.0350  -37.4970 C   0  0  2  0  0  0  0  0  0  0  0  0
   -2.4730  -14.6060  -37.6360 O   0  0  0  0  0  0  0  0  0  0  0  0
   -1.8550  -13.6560  -36.8260 C   0  0  0  0  0  0  0  0  0  0  0  0
   -2.6740  -12.8340  -36.0970 C   0  0  0  0  0  0  0  0  0  0  0  0
   -2.0830  -11.8720  -35.2770 C   0  0  0  0  0  0  0  0  0  0  0  0
   -0.7180  -11.7230  -35.1790 C   0  0  0  0  0  0  0  0  0  0  0  0
    0.0750  -12.5690  -35.9290 C   0  0  0  0  0  0  0  0  0  0  0  0
   -0.5020  -13.5200  -36.7380 C   0  0  0  0  0  0  0  0  0  0  0  0
   -4.0320  -12.9740  -36.1880 O   0  0  0  0  0  0  0  0  0  0  0  0
   -4.6610  -14.1060  -36.7220 C   0  0  0  0  0  0  0  0  0  0  0  0
    2.4910  -18.5800  -37.1120 C   0  0  0  0  0  0  0  0  0  0  0  0
    1.8190  -17.8680  -36.3190 O   0  0  0  0  0  0  0  0  0  0  0  0
    3.8870  -18.7860  -37.2060 N   0  0  0  0  0  0  0  0  0  0  0  0
    2.1850  -21.2330  -40.3890 H   0  0  0  0  0  0  0  0  0  0  0  0
    6.4100  -21.4180  -40.1470 H   0  0  0  0  0  0  0  0  0  0  0  0
   -0.0340  -17.8430  -37.2900 H   0  0  0  0  0  0  0  0  0  0  0  0
   -3.5420  -19.3930  -36.7720 H   0  0  0  0  0  0  0  0  0  0  0  0
   -2.4570  -18.3960  -35.7620 H   0  0  0  0  0  0  0  0  0  0  0  0
   -2.9360  -17.4360  -38.5970 H   0  0  0  0  0  0  0  0  0  0  0  0
   -4.2050  -15.0930  -38.5490 H   0  0  0  0  0  0  0  0  0  0  0  0
   -2.7500  -11.2340  -34.7120 H   0  0  0  0  0  0  0  0  0  0  0  0
   -0.3020  -10.9660  -34.5320 H   0  0  0  0  0  0  0  0  0  0  0  0
    1.1690  -12.4450  -35.8450 H   0  0  0  0  0  0  0  0  0  0  0  0
    0.1420  -14.1680  -37.3160 H   0  0  0  0  0  0  0  0  0  0  0  0
   -5.5320  -13.7560  -37.3590 H   0  0  0  0  0  0  0  0  0  0  0  0
   -5.1210  -14.6560  -35.8680 H   0  0  0  0  0  0  0  0  0  0  0  0
    4.5820  -18.3410  -36.5830 H   0  0  0  0  0  0  0  0  0  0  0  0
  2  3  1  0  0  0  0
  2  1  1  0  0  0  0
  3 30  1  0  0  0  0
  4  3  2  0  0  0  0
  4  9  1  0  0  0  0
  5  4  1  0  0  0  0
  6  5  2  0  0  0  0
  6  7  1  0  0  0  0
  7  2  2  0  0  0  0
  8  6  1  0  0  0  0
  9 28  1  0  0  0  0
 10  9  2  0  0  0  0
 10 11  1  0  0  0  0
 11 12  1  0  0  0  0
 11 33  1  0  0  0  0
 12 14  1  0  0  0  0
 13 12  2  0  0  0  0
 14 34  1  0  0  0  0
 14 35  1  0  0  0  0
 15 16  1  0  0  0  0
 15 14  1  0  0  0  0
 16 17  2  0  0  0  0
 18 37  1  6  0  0  0
 18 16  1  0  0  0  0
 18 27  1  0  0  0  0
 19 18  1  0  0  0  0
 19 20  1  0  0  0  0
 20 25  2  0  0  0  0
 20 21  1  0  0  0  0
 21 22  2  0  0  0  0
 22 23  1  0  0  0  0
 22 38  1  0  0  0  0
 23 39  1  0  0  0  0
 24 40  1  0  0  0  0
 24 23  2  0  0  0  0
 25 24  1  0  0  0  0
 26 21  1  0  0  0  0
 27 26  1  0  0  0  0
 27 43  1  0  0  0  0
 28 29  2  0  0  0  0
 30 28  1  0  0  0  0
 30 44  1  0  0  0  0
 31  5  1  0  0  0  0
 32  7  1  0  0  0  0
 36 15  1  0  0  0  0
 41 25  1  0  0  0  0
 42 27  1  0  0  0  0
M  END
>  <Pose>
1

>  <Score>
-5.06

$$$$
