
 OpenBabel03232221553D

 53 56  0  0  1  0  0  0  0  0999 V2000
    1.7360  -18.8220  -40.1190 S   0  0  0  0  0  0  0  0  0  0  0  0
    0.9910  -19.2820  -41.3740 O   0  0  0  0  0  0  0  0  0  0  0  0
    2.3360  -17.4690  -40.5180 O   0  0  0  0  0  0  0  0  0  0  0  0
    0.5640  -18.6060  -38.9150 N   0  0  0  0  0  0  0  0  0  0  0  0
   -0.5070  -17.7240  -39.2170 C   0  0  0  0  0  0  0  0  0  0  0  0
   -1.5230  -17.6150  -38.1040 C   0  0  1  0  0  0  0  0  0  0  0  0
   -2.0440  -18.9630  -37.7400 C   0  0  0  0  0  0  0  0  0  0  0  0
   -0.9190  -19.9550  -37.5020 C   0  0  0  0  0  0  0  0  0  0  0  0
   -0.0120  -19.9470  -38.6830 C   0  0  0  0  0  0  0  0  0  0  0  0
   -1.0840  -16.7860  -36.9630 C   0  0  0  0  0  0  0  0  0  0  0  0
   -1.3080  -17.2940  -35.8030 O   0  0  0  0  0  0  0  0  0  0  0  0
   -0.4650  -15.5450  -37.0080 N   0  0  0  0  0  0  0  0  0  0  0  0
   -1.2020  -14.3290  -36.8600 C   0  0  0  0  0  0  0  0  0  0  0  0
   -0.4600  -13.2580  -36.1100 C   0  0  0  0  0  0  0  0  0  0  0  0
    0.8960  -13.3610  -36.1290 O   0  0  0  0  0  0  0  0  0  0  0  0
    1.4260  -14.6270  -35.9840 C   0  0  0  0  0  0  0  0  0  0  0  0
    0.9550  -15.4090  -37.2220 C   0  0  0  0  0  0  0  0  0  0  0  0
    3.0290  -19.8940  -39.7820 C   0  0  0  0  0  0  0  0  0  0  0  0
    3.5670  -20.0380  -38.5260 C   0  0  0  0  0  0  0  0  0  0  0  0
    4.5690  -20.9710  -38.3040 C   0  0  0  0  0  0  0  0  0  0  0  0
    5.0550  -21.7760  -39.3380 C   0  0  0  0  0  0  0  0  0  0  0  0
    4.5270  -21.6400  -40.6020 C   0  0  0  0  0  0  0  0  0  0  0  0
    3.5340  -20.7100  -40.8020 C   0  0  0  0  0  0  0  0  0  0  0  0
    5.0170  -22.4660  -41.6980 C   0  0  0  0  0  0  0  0  0  0  0  0
    4.3670  -23.4960  -42.2660 N   0  0  0  0  0  0  0  0  0  0  0  0
    5.0970  -24.0100  -43.2170 O   0  0  0  0  0  0  0  0  0  0  0  0
    6.2190  -23.3470  -43.2980 C   0  0  0  0  0  0  0  0  0  0  0  0
    6.1830  -22.3840  -42.3580 N   0  0  0  0  0  0  0  0  0  0  0  0
    7.3510  -23.6020  -44.2560 C   0  0  0  0  0  0  0  0  0  0  0  0
    3.1120  -19.0390  -37.1630 Cl  0  0  0  0  0  0  0  0  0  0  0  0
   -0.1420  -16.6880  -39.4580 H   0  0  0  0  0  0  0  0  0  0  0  0
   -1.0380  -18.0860  -40.1140 H   0  0  0  0  0  0  0  0  0  0  0  0
   -2.3960  -17.0670  -38.5740 H   0  0  0  0  0  0  0  0  0  0  0  0
   -2.6190  -19.3530  -38.6090 H   0  0  0  0  0  0  0  0  0  0  0  0
   -2.6970  -18.9250  -36.8530 H   0  0  0  0  0  0  0  0  0  0  0  0
   -0.3540  -19.6300  -36.6120 H   0  0  0  0  0  0  0  0  0  0  0  0
   -1.3810  -20.9440  -37.4140 H   0  0  0  0  0  0  0  0  0  0  0  0
   -0.5960  -20.2030  -39.6120 H   0  0  0  0  0  0  0  0  0  0  0  0
    0.7940  -20.6840  -38.5260 H   0  0  0  0  0  0  0  0  0  0  0  0
   -2.1850  -14.4680  -36.3610 H   0  0  0  0  0  0  0  0  0  0  0  0
   -1.4430  -13.9630  -37.8980 H   0  0  0  0  0  0  0  0  0  0  0  0
   -0.8050  -13.1920  -35.0360 H   0  0  0  0  0  0  0  0  0  0  0  0
   -0.7440  -12.2830  -36.5640 H   0  0  0  0  0  0  0  0  0  0  0  0
    0.9460  -15.0920  -35.0830 H   0  0  0  0  0  0  0  0  0  0  0  0
    2.5070  -14.5660  -35.9180 H   0  0  0  0  0  0  0  0  0  0  0  0
    1.5110  -16.3140  -37.4080 H   0  0  0  0  0  0  0  0  0  0  0  0
    1.0420  -14.6750  -38.0870 H   0  0  0  0  0  0  0  0  0  0  0  0
    4.9790  -21.0740  -37.3130 H   0  0  0  0  0  0  0  0  0  0  0  0
    5.8370  -22.5000  -39.1560 H   0  0  0  0  0  0  0  0  0  0  0  0
    3.1390  -20.6250  -41.8020 H   0  0  0  0  0  0  0  0  0  0  0  0
    7.0410  -24.3990  -44.9510 H   0  0  0  0  0  0  0  0  0  0  0  0
    7.5740  -22.6390  -44.7490 H   0  0  0  0  0  0  0  0  0  0  0  0
    8.2230  -23.8990  -43.6290 H   0  0  0  0  0  0  0  0  0  0  0  0
  1 18  1  0  0  0  0
  1  4  1  0  0  0  0
  2  1  2  0  0  0  0
  3  1  2  0  0  0  0
  4  9  1  0  0  0  0
  5  4  1  0  0  0  0
  5  6  1  0  0  0  0
  6 33  1  6  0  0  0
  6  7  1  0  0  0  0
  6 10  1  0  0  0  0
  7  8  1  0  0  0  0
  7 35  1  0  0  0  0
  8 37  1  0  0  0  0
  8 36  1  0  0  0  0
  9 39  1  0  0  0  0
  9  8  1  0  0  0  0
 10 11  2  0  0  0  0
 12 10  1  0  0  0  0
 12 13  1  0  0  0  0
 13 40  1  0  0  0  0
 13 14  1  0  0  0  0
 14 42  1  0  0  0  0
 15 14  1  0  0  0  0
 15 16  1  0  0  0  0
 16 45  1  0  0  0  0
 16 44  1  0  0  0  0
 17 12  1  0  0  0  0
 17 16  1  0  0  0  0
 18 19  1  0  0  0  0
 19 20  2  0  0  0  0
 19 30  1  0  0  0  0
 20 48  1  0  0  0  0
 21 49  1  0  0  0  0
 21 20  1  0  0  0  0
 22 21  2  0  0  0  0
 23 22  1  0  0  0  0
 23 18  2  0  0  0  0
 24 22  1  0  0  0  0
 25 24  2  0  0  0  0
 26 25  1  0  0  0  0
 27 26  1  0  0  0  0
 27 28  2  0  0  0  0
 28 24  1  0  0  0  0
 29 53  1  0  0  0  0
 29 27  1  0  0  0  0
 31  5  1  0  0  0  0
 32  5  1  0  0  0  0
 34  7  1  0  0  0  0
 38  9  1  0  0  0  0
 41 13  1  0  0  0  0
 43 14  1  0  0  0  0
 46 17  1  0  0  0  0
 47 17  1  0  0  0  0
 50 23  1  0  0  0  0
 51 29  1  0  0  0  0
 52 29  1  0  0  0  0
M  END
>  <Pose>
1

>  <Score>
-4.47

$$$$
