
 OpenBabel03232221553D

 67 70  0  0  1  0  0  0  0  0999 V2000
    8.2590  -25.7090  -43.6210 S   0  0  0  0  0  0  0  0  0  0  0  0
    8.2690  -26.8220  -44.6670 O   0  0  0  0  0  0  0  0  0  0  0  0
    8.3110  -26.4640  -42.2990 O   0  0  0  0  0  0  0  0  0  0  0  0
    6.8060  -24.9070  -43.7130 N   0  0  0  0  0  0  0  0  0  0  0  0
    6.5040  -23.8870  -42.7890 C   0  0  0  0  0  0  0  0  0  0  0  0
    5.2410  -24.1410  -41.9960 C   0  0  2  0  0  0  0  0  0  0  0  0
    4.2430  -24.9820  -42.6960 C   0  0  0  0  0  0  0  0  0  0  0  0
    4.4090  -25.1470  -44.1630 C   0  0  0  0  0  0  0  0  0  0  0  0
    5.8310  -25.2520  -44.6510 C   0  0  0  0  0  0  0  0  0  0  0  0
    4.6200  -22.8630  -41.5630 C   0  0  0  0  0  0  0  0  0  0  0  0
    3.9750  -22.2040  -42.4150 O   0  0  0  0  0  0  0  0  0  0  0  0
    4.7610  -22.4050  -40.2000 N   0  0  0  0  0  0  0  0  0  0  0  0
    5.2700  -21.0970  -40.0010 C   0  0  0  0  0  0  0  0  0  0  0  0
    4.8910  -20.3570  -38.7750 C   0  0  0  0  0  0  0  0  0  0  0  0
    3.5210  -20.1440  -38.4920 N   0  0  0  0  0  0  0  0  0  0  0  0
    2.7600  -19.4250  -39.4050 C   0  0  0  0  0  0  0  0  0  0  0  0
    2.2330  -18.0970  -38.9450 C   0  0  0  0  0  0  0  0  0  0  0  0
    1.8040  -18.1210  -37.6260 O   0  0  0  0  0  0  0  0  0  0  0  0
    2.9290  -18.3960  -36.8500 C   0  0  0  0  0  0  0  0  0  0  0  0
    3.2900  -19.8430  -37.0980 C   0  0  0  0  0  0  0  0  0  0  0  0
    9.6880  -24.7520  -43.7540 C   0  0  0  0  0  0  0  0  0  0  0  0
    9.5960  -23.3900  -43.9960 C   0  0  0  0  0  0  0  0  0  0  0  0
   10.7020  -22.5810  -44.0970 C   0  0  0  0  0  0  0  0  0  0  0  0
   11.9710  -23.1530  -43.9500 C   0  0  0  0  0  0  0  0  0  0  0  0
   12.0510  -24.4860  -43.7130 C   0  0  0  0  0  0  0  0  0  0  0  0
   10.9350  -25.2990  -43.6110 C   0  0  0  0  0  0  0  0  0  0  0  0
   11.1730  -27.1850  -43.2770 B   0  0  0  0  0  0  0  0  0  0  0  0
   13.0270  -22.1140  -44.0940 C   0  0  0  0  0  0  0  0  0  0  0  0
   12.2880  -21.0340  -44.8580 C   0  0  0  0  0  0  0  0  0  0  0  0
   10.9320  -21.1970  -44.3210 N   0  0  0  0  0  0  0  0  0  0  0  0
   10.0670  -20.1300  -44.0900 C   0  0  0  0  0  0  0  0  0  0  0  0
   10.3890  -19.2250  -43.2450 O   0  0  0  0  0  0  0  0  0  0  0  0
    8.7790  -19.9610  -44.7590 C   0  0  0  0  0  0  0  0  0  0  0  0
    7.7640  -19.2410  -43.8740 C   0  0  0  0  0  0  0  0  0  0  0  0
    6.3210  -22.9320  -43.3620 H   0  0  0  0  0  0  0  0  0  0  0  0
    7.3800  -23.6920  -42.1480 H   0  0  0  0  0  0  0  0  0  0  0  0
    5.5940  -24.6750  -41.0630 H   0  0  0  0  0  0  0  0  0  0  0  0
    3.2140  -24.5320  -42.5440 H   0  0  0  0  0  0  0  0  0  0  0  0
    4.2240  -26.0040  -42.2420 H   0  0  0  0  0  0  0  0  0  0  0  0
    3.9120  -26.1070  -44.4660 H   0  0  0  0  0  0  0  0  0  0  0  0
    3.8210  -24.3600  -44.7020 H   0  0  0  0  0  0  0  0  0  0  0  0
    6.0680  -26.2140  -45.1400 H   0  0  0  0  0  0  0  0  0  0  0  0
    5.9010  -24.5040  -45.5050 H   0  0  0  0  0  0  0  0  0  0  0  0
    4.4840  -23.0790  -39.4820 H   0  0  0  0  0  0  0  0  0  0  0  0
    4.9050  -20.4790  -40.8700 H   0  0  0  0  0  0  0  0  0  0  0  0
    6.4020  -21.1840  -40.0990 H   0  0  0  0  0  0  0  0  0  0  0  0
    5.3830  -20.8600  -37.8670 H   0  0  0  0  0  0  0  0  0  0  0  0
    5.4580  -19.3630  -38.7810 H   0  0  0  0  0  0  0  0  0  0  0  0
    1.7920  -20.0440  -39.5610 H   0  0  0  0  0  0  0  0  0  0  0  0
    3.1810  -19.4180  -40.4210 H   0  0  0  0  0  0  0  0  0  0  0  0
    3.0380  -17.3450  -39.0080 H   0  0  0  0  0  0  0  0  0  0  0  0
    1.3940  -17.7380  -39.5730 H   0  0  0  0  0  0  0  0  0  0  0  0
    3.7370  -17.6880  -37.0390 H   0  0  0  0  0  0  0  0  0  0  0  0
    2.6880  -18.3200  -35.7560 H   0  0  0  0  0  0  0  0  0  0  0  0
    2.3730  -20.4390  -36.8100 H   0  0  0  0  0  0  0  0  0  0  0  0
    4.0890  -20.2140  -36.4410 H   0  0  0  0  0  0  0  0  0  0  0  0
    8.6420  -22.8970  -44.1170 H   0  0  0  0  0  0  0  0  0  0  0  0
   13.0300  -24.9630  -43.5930 H   0  0  0  0  0  0  0  0  0  0  0  0
   13.4220  -21.7520  -43.1420 H   0  0  0  0  0  0  0  0  0  0  0  0
   13.8460  -22.4910  -44.7310 H   0  0  0  0  0  0  0  0  0  0  0  0
   12.6890  -20.0240  -44.6430 H   0  0  0  0  0  0  0  0  0  0  0  0
   12.3500  -21.2030  -45.9340 H   0  0  0  0  0  0  0  0  0  0  0  0
    8.9840  -19.2850  -45.6490 H   0  0  0  0  0  0  0  0  0  0  0  0
    8.3130  -20.8760  -45.1320 H   0  0  0  0  0  0  0  0  0  0  0  0
    7.2130  -18.5060  -44.4790 H   0  0  0  0  0  0  0  0  0  0  0  0
    8.3220  -18.7690  -43.0360 H   0  0  0  0  0  0  0  0  0  0  0  0
    7.0810  -20.0010  -43.4460 H   0  0  0  0  0  0  0  0  0  0  0  0
  1  3  2  0  0  0  0
  2  1  2  0  0  0  0
  4  1  1  0  0  0  0
  4  5  1  0  0  0  0
  5 36  1  0  0  0  0
  5  6  1  0  0  0  0
  6 10  1  0  0  0  0
  6 37  1  1  0  0  0
  7 38  1  0  0  0  0
  7 39  1  0  0  0  0
  7  6  1  0  0  0  0
  8  7  1  0  0  0  0
  9  8  1  0  0  0  0
  9  4  1  0  0  0  0
 10 12  1  0  0  0  0
 11 10  2  0  0  0  0
 12 13  1  0  0  0  0
 12 44  1  0  0  0  0
 13 14  1  0  0  0  0
 14 15  1  0  0  0  0
 14 47  1  0  0  0  0
 15 20  1  0  0  0  0
 16 17  1  0  0  0  0
 16 15  1  0  0  0  0
 17 18  1  0  0  0  0
 18 19  1  0  0  0  0
 19 54  1  0  0  0  0
 20 19  1  0  0  0  0
 20 55  1  0  0  0  0
 20 56  1  0  0  0  0
 21  1  1  0  0  0  0
 21 26  1  0  0  0  0
 22 21  2  0  0  0  0
 23 22  1  0  0  0  0
 23 24  2  0  0  0  0
 24 25  1  0  0  0  0
 25 26  2  0  0  0  0
 25 58  1  0  0  0  0
 26 27  1  0  0  0  0
 28 24  1  0  0  0  0
 28 59  1  0  0  0  0
 29 61  1  0  0  0  0
 29 30  1  0  0  0  0
 29 28  1  0  0  0  0
 30 23  1  0  0  0  0
 30 31  1  0  0  0  0
 31 32  2  0  0  0  0
 33 31  1  0  0  0  0
 33 34  1  0  0  0  0
 34 67  1  0  0  0  0
 34 66  1  0  0  0  0
 35  5  1  0  0  0  0
 40  8  1  0  0  0  0
 41  8  1  0  0  0  0
 42  9  1  0  0  0  0
 43  9  1  0  0  0  0
 45 13  1  0  0  0  0
 46 13  1  0  0  0  0
 48 14  1  0  0  0  0
 49 16  1  0  0  0  0
 50 16  1  0  0  0  0
 51 17  1  0  0  0  0
 52 17  1  0  0  0  0
 53 19  1  0  0  0  0
 57 22  1  0  0  0  0
 60 28  1  0  0  0  0
 62 29  1  0  0  0  0
 63 33  1  0  0  0  0
 64 33  1  0  0  0  0
 65 34  1  0  0  0  0
M  END
>  <Pose>
1

>  <Score>
-5.56

$$$$
