
 OpenBabel03232221553D

 49 52  0  0  1  0  0  0  0  0999 V2000
   -0.3190  -12.0780  -35.5570 Cl  0  0  0  0  0  0  0  0  0  0  0  0
   -0.1400  -13.6690  -36.2960 C   0  0  0  0  0  0  0  0  0  0  0  0
   -1.2250  -14.3310  -36.8070 C   0  0  0  0  0  0  0  0  0  0  0  0
   -1.0710  -15.5780  -37.3830 C   0  0  0  0  0  0  0  0  0  0  0  0
    0.1540  -16.2040  -37.4730 C   0  0  0  0  0  0  0  0  0  0  0  0
    1.2370  -15.5260  -36.9560 C   0  0  0  0  0  0  0  0  0  0  0  0
    1.0910  -14.2610  -36.3690 C   0  0  0  0  0  0  0  0  0  0  0  0
    0.3100  -17.4870  -38.0720 N   0  0  0  0  0  0  0  0  0  0  0  0
    1.3280  -17.9210  -39.0200 C   0  0  0  0  0  0  0  0  0  0  0  0
    1.4630  -19.4090  -38.8480 C   0  0  2  0  0  0  0  0  0  0  0  0
    0.2450  -19.8790  -38.1240 C   0  0  0  0  0  0  0  0  0  0  0  0
   -0.5280  -18.6440  -37.8570 C   0  0  0  0  0  0  0  0  0  0  0  0
   -1.7410  -18.5080  -37.4920 O   0  0  0  0  0  0  0  0  0  0  0  0
    2.7470  -19.8560  -38.2950 C   0  0  0  0  0  0  0  0  0  0  0  0
    2.7910  -20.0610  -37.0250 O   0  0  0  0  0  0  0  0  0  0  0  0
    3.9340  -20.0850  -38.9990 N   0  0  0  0  0  0  0  0  0  0  0  0
    4.2870  -19.2460  -40.1330 C   0  0  0  0  0  0  0  0  0  0  0  0
    4.4920  -20.0960  -41.3830 C   0  0  0  0  0  0  0  0  0  0  0  0
    5.0680  -21.3520  -41.0040 N   0  0  0  0  0  0  0  0  0  0  0  0
    5.8470  -21.4180  -39.8050 C   0  0  0  0  0  0  0  0  0  0  0  0
    4.8620  -21.1360  -38.6540 C   0  0  0  0  0  0  0  0  0  0  0  0
    4.8680  -22.5080  -41.7890 C   0  0  0  0  0  0  0  0  0  0  0  0
    5.7430  -23.0470  -42.6820 N   0  0  0  0  0  0  0  0  0  0  0  0
    5.1950  -24.1440  -43.2210 C   0  0  0  0  0  0  0  0  0  0  0  0
    3.9470  -24.3150  -42.6710 C   0  0  0  0  0  0  0  0  0  0  0  0
    3.7900  -23.3160  -41.8200 N   0  0  0  0  0  0  0  0  0  0  0  0
    7.0720  -22.5090  -43.0020 C   0  0  0  0  0  0  0  0  0  0  0  0
   -2.1910  -13.8400  -36.7360 H   0  0  0  0  0  0  0  0  0  0  0  0
   -1.9660  -16.0530  -37.7690 H   0  0  0  0  0  0  0  0  0  0  0  0
    2.2010  -15.9660  -37.0000 H   0  0  0  0  0  0  0  0  0  0  0  0
    1.9480  -13.7370  -35.9670 H   0  0  0  0  0  0  0  0  0  0  0  0
    2.2440  -17.3590  -38.8520 H   0  0  0  0  0  0  0  0  0  0  0  0
    0.9350  -17.6420  -40.0370 H   0  0  0  0  0  0  0  0  0  0  0  0
    1.3580  -19.8280  -39.8980 H   0  0  0  0  0  0  0  0  0  0  0  0
   -0.4440  -20.5130  -38.7610 H   0  0  0  0  0  0  0  0  0  0  0  0
    0.4650  -20.4810  -37.2330 H   0  0  0  0  0  0  0  0  0  0  0  0
    5.2580  -18.7570  -39.8850 H   0  0  0  0  0  0  0  0  0  0  0  0
    3.5640  -18.4380  -40.3080 H   0  0  0  0  0  0  0  0  0  0  0  0
    5.2500  -19.5720  -42.0140 H   0  0  0  0  0  0  0  0  0  0  0  0
    3.5160  -20.1980  -41.9050 H   0  0  0  0  0  0  0  0  0  0  0  0
    6.2570  -22.4340  -39.6080 H   0  0  0  0  0  0  0  0  0  0  0  0
    6.6340  -20.6370  -39.8160 H   0  0  0  0  0  0  0  0  0  0  0  0
    5.4810  -20.9090  -37.7640 H   0  0  0  0  0  0  0  0  0  0  0  0
    4.2900  -22.0730  -38.5750 H   0  0  0  0  0  0  0  0  0  0  0  0
    5.6530  -24.7850  -43.9640 H   0  0  0  0  0  0  0  0  0  0  0  0
    3.2170  -25.1060  -42.8790 H   0  0  0  0  0  0  0  0  0  0  0  0
    7.0900  -22.2190  -44.0820 H   0  0  0  0  0  0  0  0  0  0  0  0
    7.2460  -21.6120  -42.3890 H   0  0  0  0  0  0  0  0  0  0  0  0
    7.8240  -23.2890  -42.8700 H   0  0  0  0  0  0  0  0  0  0  0  0
  2  1  1  0  0  0  0
  3 28  1  0  0  0  0
  3  2  2  0  0  0  0
  4  3  1  0  0  0  0
  5  4  2  0  0  0  0
  5  6  1  0  0  0  0
  6  7  2  0  0  0  0
  7  2  1  0  0  0  0
  7 31  1  0  0  0  0
  8 12  1  0  0  0  0
  8  5  1  0  0  0  0
  9 32  1  0  0  0  0
  9 10  1  0  0  0  0
  9  8  1  0  0  0  0
 10 34  1  6  0  0  0
 10 14  1  0  0  0  0
 10 11  1  0  0  0  0
 11 12  1  0  0  0  0
 11 36  1  0  0  0  0
 12 13  2  0  0  0  0
 14 15  2  0  0  0  0
 16 21  1  0  0  0  0
 16 14  1  0  0  0  0
 17 37  1  0  0  0  0
 17 16  1  0  0  0  0
 18 19  1  0  0  0  0
 18 17  1  0  0  0  0
 19 20  1  0  0  0  0
 20 41  1  0  0  0  0
 20 21  1  0  0  0  0
 21 44  1  0  0  0  0
 21 43  1  0  0  0  0
 22 19  1  0  0  0  0
 23 22  1  0  0  0  0
 24 23  1  0  0  0  0
 24 25  2  0  0  0  0
 25 26  1  0  0  0  0
 26 22  2  0  0  0  0
 27 49  1  0  0  0  0
 27 23  1  0  0  0  0
 27 48  1  0  0  0  0
 29  4  1  0  0  0  0
 30  6  1  0  0  0  0
 33  9  1  0  0  0  0
 35 11  1  0  0  0  0
 38 17  1  0  0  0  0
 39 18  1  0  0  0  0
 40 18  1  0  0  0  0
 42 20  1  0  0  0  0
 45 24  1  0  0  0  0
 46 25  1  0  0  0  0
 47 27  1  0  0  0  0
M  END
>  <Pose>
1

>  <Score>
-3.73

$$$$
