
 OpenBabel03232221553D

 45 48  0  0  1  0  0  0  0  0999 V2000
   -2.8100  -17.3790  -36.8910 Cl  0  0  0  0  0  0  0  0  0  0  0  0
   -1.1510  -17.8310  -37.2390 C   0  0  0  0  0  0  0  0  0  0  0  0
   -0.8170  -19.1570  -37.5140 C   0  0  0  0  0  0  0  0  0  0  0  0
    0.4730  -19.5300  -37.7800 C   0  0  0  0  0  0  0  0  0  0  0  0
    1.5330  -18.6210  -37.7930 C   0  0  0  0  0  0  0  0  0  0  0  0
    1.1900  -17.3070  -37.5200 C   0  0  0  0  0  0  0  0  0  0  0  0
   -0.1040  -16.9310  -37.2520 C   0  0  0  0  0  0  0  0  0  0  0  0
    2.8590  -19.0320  -38.0650 N   0  0  0  0  0  0  0  0  0  0  0  0
    3.8170  -18.8960  -37.0060 C   0  0  0  0  0  0  0  0  0  0  0  0
    3.4290  -18.4580  -35.8860 O   0  0  0  0  0  0  0  0  0  0  0  0
    5.1520  -19.2700  -37.3010 N   0  0  0  0  0  0  0  0  0  0  0  0
    5.5590  -19.7000  -38.4120 C   0  0  0  0  0  0  0  0  0  0  0  0
    4.7130  -19.8920  -39.6410 C   0  0  1  0  0  0  0  0  0  0  0  0
    5.2500  -18.8940  -40.6270 C   0  0  0  0  0  0  0  0  0  0  0  0
    5.0430  -19.1590  -41.9980 N   0  0  0  0  0  4  0  0  0  0  0  0
    5.1970  -20.5060  -42.4050 C   0  0  0  0  0  0  0  0  0  0  0  0
    5.1110  -21.5070  -41.4910 C   0  0  0  0  0  0  0  0  0  0  0  0
    5.2670  -22.8190  -41.9290 C   0  0  0  0  0  0  0  0  0  0  0  0
    5.5030  -23.0760  -43.2640 C   0  0  0  0  0  0  0  0  0  0  0  0
    5.5910  -22.0530  -44.1960 C   0  0  0  0  0  0  0  0  0  0  0  0
    5.4340  -20.7440  -43.7440 C   0  0  0  0  0  0  0  0  0  0  0  0
    5.6850  -24.4760  -43.7650 C   0  0  0  0  0  0  0  0  0  0  0  0
    4.8570  -21.3080  -40.0480 C   0  0  0  0  0  0  0  0  0  0  0  0
    3.8180  -18.6140  -42.5640 C   0  0  0  0  0  0  0  0  0  0  0  0
    3.3120  -19.5350  -39.3080 C   0  0  0  0  0  0  0  0  0  0  0  0
    2.3830  -19.6750  -40.1820 O   0  0  0  0  0  0  0  0  0  0  0  0
    6.9110  -20.0480  -38.5860 O   0  0  0  0  0  0  0  0  0  0  0  0
   -1.6490  -19.8750  -37.5040 H   0  0  0  0  0  0  0  0  0  0  0  0
    0.7280  -20.5840  -37.9980 H   0  0  0  0  0  0  0  0  0  0  0  0
    2.0150  -16.6100  -37.5340 H   0  0  0  0  0  0  0  0  0  0  0  0
   -0.3220  -15.8750  -37.0400 H   0  0  0  0  0  0  0  0  0  0  0  0
    6.3410  -18.6910  -40.4390 H   0  0  0  0  0  0  0  0  0  0  0  0
    4.7380  -17.9190  -40.3820 H   0  0  0  0  0  0  0  0  0  0  0  0
    5.8150  -18.6390  -42.5280 H   0  0  0  0  0  0  0  0  0  0  0  0
    5.2100  -23.6570  -41.2410 H   0  0  0  0  0  0  0  0  0  0  0  0
    5.7800  -22.2330  -45.2640 H   0  0  0  0  0  0  0  0  0  0  0  0
    5.5050  -19.9470  -44.4830 H   0  0  0  0  0  0  0  0  0  0  0  0
    5.9150  -25.1860  -42.9410 H   0  0  0  0  0  0  0  0  0  0  0  0
    6.4770  -24.4740  -44.5610 H   0  0  0  0  0  0  0  0  0  0  0  0
    4.7570  -24.8130  -44.2450 H   0  0  0  0  0  0  0  0  0  0  0  0
    5.7330  -21.8130  -39.5360 H   0  0  0  0  0  0  0  0  0  0  0  0
    3.9740  -21.9130  -39.7740 H   0  0  0  0  0  0  0  0  0  0  0  0
    3.3580  -17.8250  -41.9310 H   0  0  0  0  0  0  0  0  0  0  0  0
    3.1230  -19.4480  -42.8220 H   0  0  0  0  0  0  0  0  0  0  0  0
    4.0190  -18.1070  -43.5570 H   0  0  0  0  0  0  0  0  0  0  0  0
  2  1  1  0  0  0  0
  3 28  1  0  0  0  0
  3  2  2  0  0  0  0
  4  3  1  0  0  0  0
  5  4  2  0  0  0  0
  5  6  1  0  0  0  0
  6  7  2  0  0  0  0
  7  2  1  0  0  0  0
  7 31  1  0  0  0  0
  8  5  1  0  0  0  0
  8  9  1  0  0  0  0
  9 10  2  0  0  0  0
 11  9  1  0  0  0  0
 12 11  1  0  0  0  0
 13 25  1  1  0  0  0
 13 12  1  0  0  0  0
 14 32  1  0  0  0  0
 14 33  1  0  0  0  0
 14 13  1  0  0  0  0
 15 14  1  0  0  0  0
 16 15  1  0  0  0  0
 16 17  1  0  0  0  0
 17 23  1  0  0  0  0
 18 17  2  0  0  0  0
 18 35  1  0  0  0  0
 19 18  1  0  0  0  0
 20 21  1  0  0  0  0
 20 19  2  0  0  0  0
 21 16  2  0  0  0  0
 22 19  1  0  0  0  0
 22 38  1  0  0  0  0
 23 42  1  0  0  0  0
 23 13  1  0  0  0  0
 23 41  1  0  0  0  0
 24 15  1  0  0  0  0
 24 43  1  0  0  0  0
 25  8  1  0  0  0  0
 26 25  2  0  0  0  0
 27 12  2  0  0  0  0
 29  4  1  0  0  0  0
 30  6  1  0  0  0  0
 34 15  1  0  0  0  0
 36 20  1  0  0  0  0
 37 21  1  0  0  0  0
 39 22  1  0  0  0  0
 40 22  1  0  0  0  0
 44 24  1  0  0  0  0
 45 24  1  0  0  0  0
M  END
>  <Pose>
1

>  <Score>
-3.93

$$$$
