
 OpenBabel03232221553D

 35 38  0  0  1  0  0  0  0  0999 V2000
    6.4190  -19.8320  -38.1230 Cl  0  0  0  0  0  0  0  0  0  0  0  0
    4.6920  -19.5880  -38.3770 C   0  0  0  0  0  0  0  0  0  0  0  0
    4.1690  -19.5610  -39.6550 C   0  0  0  0  0  0  0  0  0  0  0  0
    2.8250  -19.3750  -39.8760 C   0  0  0  0  0  0  0  0  0  0  0  0
    1.9390  -19.2070  -38.8050 C   0  0  0  0  0  0  0  0  0  0  0  0
    2.4960  -19.2390  -37.5480 C   0  0  0  0  0  0  0  0  0  0  0  0
    3.8350  -19.4240  -37.2980 C   0  0  0  0  0  0  0  0  0  0  0  0
    0.5500  -19.0240  -39.0380 N   0  0  0  0  0  0  0  0  0  0  0  0
   -0.5520  -19.8290  -38.5880 C   0  0  0  0  0  0  0  0  0  0  0  0
   -0.4110  -20.9720  -38.0850 O   0  0  0  0  0  0  0  0  0  0  0  0
   -1.8410  -19.1260  -38.8040 C   0  0  1  0  0  0  0  0  0  0  0  0
   -2.5670  -18.7980  -37.5400 C   0  0  1  0  0  0  0  0  0  0  0  0
   -1.5250  -18.5840  -36.4630 C   0  0  1  0  0  0  0  0  0  0  0  0
   -0.8150  -17.3310  -36.9730 C   0  0  1  0  0  0  0  0  0  0  0  0
   -1.5920  -16.8760  -38.1860 C   0  0  1  0  0  0  0  0  0  0  0  0
   -1.4110  -17.7680  -39.3740 C   0  0  1  0  0  0  0  0  0  0  0  0
    0.0010  -17.9520  -39.7890 C   0  0  0  0  0  0  0  0  0  0  0  0
    0.5780  -17.2590  -40.6610 O   0  0  0  0  0  0  0  0  0  0  0  0
   -2.9990  -17.3360  -37.7430 C   0  0  0  0  0  0  0  0  0  0  0  0
   -0.9060  -16.2940  -36.0460 O   0  0  0  0  0  0  0  0  0  0  0  0
   -2.1830  -18.2450  -35.3000 O   0  0  0  0  0  0  0  0  0  0  0  0
    4.8630  -19.6910  -40.4820 H   0  0  0  0  0  0  0  0  0  0  0  0
    2.3950  -19.3480  -40.8570 H   0  0  0  0  0  0  0  0  0  0  0  0
    1.8380  -19.1130  -36.6850 H   0  0  0  0  0  0  0  0  0  0  0  0
    4.2580  -19.4470  -36.2890 H   0  0  0  0  0  0  0  0  0  0  0  0
   -2.4740  -19.6410  -39.5550 H   0  0  0  0  0  0  0  0  0  0  0  0
   -3.3830  -19.4430  -37.2690 H   0  0  0  0  0  0  0  0  0  0  0  0
   -0.8370  -19.4320  -36.3660 H   0  0  0  0  0  0  0  0  0  0  0  0
    0.2350  -17.5180  -37.1720 H   0  0  0  0  0  0  0  0  0  0  0  0
   -1.5530  -15.8090  -38.3850 H   0  0  0  0  0  0  0  0  0  0  0  0
   -2.0720  -17.4300  -40.1890 H   0  0  0  0  0  0  0  0  0  0  0  0
   -3.7350  -17.2190  -38.5290 H   0  0  0  0  0  0  0  0  0  0  0  0
   -3.2370  -16.8740  -36.7650 H   0  0  0  0  0  0  0  0  0  0  0  0
   -0.2890  -16.5210  -35.2870 H   0  0  0  0  0  0  0  0  0  0  0  0
   -1.6520  -18.3450  -34.4760 H   0  0  0  0  0  0  0  0  0  0  0  0
  2  1  1  0  0  0  0
  2  7  1  0  0  0  0
  3  2  2  0  0  0  0
  4  3  1  0  0  0  0
  4  5  2  0  0  0  0
  5  6  1  0  0  0  0
  6  7  2  0  0  0  0
  6 24  1  0  0  0  0
  7 25  1  0  0  0  0
  8  5  1  0  0  0  0
  8  9  1  0  0  0  0
  9 10  2  0  0  0  0
 11 26  1  6  0  0  0
 11  9  1  0  0  0  0
 11 12  1  0  0  0  0
 12 27  1  1  0  0  0
 12 13  1  0  0  0  0
 13 28  1  1  0  0  0
 13 21  1  0  0  0  0
 14 29  1  6  0  0  0
 14 13  1  0  0  0  0
 14 20  1  0  0  0  0
 15 30  1  6  0  0  0
 15 19  1  0  0  0  0
 15 14  1  0  0  0  0
 16 31  1  6  0  0  0
 16 11  1  0  0  0  0
 16 15  1  0  0  0  0
 17 16  1  0  0  0  0
 17  8  1  0  0  0  0
 18 17  2  0  0  0  0
 19 12  1  0  0  0  0
 19 33  1  0  0  0  0
 20 34  1  0  0  0  0
 21 35  1  0  0  0  0
 22  3  1  0  0  0  0
 23  4  1  0  0  0  0
 32 19  1  0  0  0  0
M  END
>  <Pose>
1

>  <Score>
-3.76

$$$$
