
 OpenBabel03232221553D

 51 54  0  0  1  0  0  0  0  0999 V2000
    7.3700  -22.4470  -40.2140 Cl  0  0  0  0  0  0  0  0  0  0  0  0
    6.0830  -21.4010  -39.5990 C   0  0  0  0  0  0  0  0  0  0  0  0
    6.3730  -20.1870  -39.0280 C   0  0  0  0  0  0  0  0  0  0  0  0
    5.3560  -19.3840  -38.5540 C   0  0  0  0  0  0  0  0  0  0  0  0
    4.0400  -19.7600  -38.6320 C   0  0  0  0  0  0  0  0  0  0  0  0
    3.7510  -20.9690  -39.2000 C   0  0  0  0  0  0  0  0  0  0  0  0
    4.7700  -21.7980  -39.6880 C   0  0  0  0  0  0  0  0  0  0  0  0
    3.0160  -18.9110  -38.1320 N   0  0  0  0  0  0  0  0  0  0  0  0
    3.0370  -18.4980  -36.7720 C   0  0  0  0  0  0  0  0  0  0  0  0
    4.0040  -18.9240  -36.0500 O   0  0  0  0  0  0  0  0  0  0  0  0
    2.0380  -17.6640  -36.2610 N   0  0  0  0  0  0  0  0  0  0  0  0
    0.9830  -17.2100  -37.0840 C   0  0  0  0  0  0  0  0  0  0  0  0
    0.2830  -16.2380  -36.7420 O   0  0  0  0  0  0  0  0  0  0  0  0
    0.7020  -17.8950  -38.3660 C   0  0  1  0  0  0  0  0  0  0  0  0
    1.9490  -18.4470  -38.9460 C   0  0  0  0  0  0  0  0  0  0  0  0
    2.0590  -18.5020  -40.1830 O   0  0  0  0  0  0  0  0  0  0  0  0
   -0.2520  -19.0370  -38.1510 C   0  0  0  0  0  0  0  0  0  0  0  0
   -1.5220  -19.1090  -38.5010 C   0  0  0  0  0  0  0  0  0  0  0  0
   -2.0870  -20.4200  -38.0960 C   0  0  2  0  0  0  0  0  0  0  0  0
   -1.1560  -20.8720  -37.1000 N   0  0  0  0  0  0  0  0  0  0  0  0
    0.0450  -20.2720  -37.5090 N   0  0  0  0  0  0  0  0  0  0  0  0
   -2.1810  -21.2730  -39.2760 C   0  0  0  0  0  0  0  0  0  0  0  0
   -2.1000  -20.6850  -40.5200 C   0  0  0  0  0  0  0  0  0  0  0  0
   -2.1750  -21.4050  -41.6950 C   0  0  0  0  0  0  0  0  0  0  0  0
   -2.3410  -22.7930  -41.5990 C   0  0  0  0  0  0  0  0  0  0  0  0
   -2.4270  -23.4260  -40.3790 C   0  0  0  0  0  0  0  0  0  0  0  0
   -2.3440  -22.6410  -39.2460 C   0  0  0  0  0  0  0  0  0  0  0  0
   -2.5900  -24.7790  -40.3410 O   0  0  0  0  0  0  0  0  0  0  0  0
   -2.2790  -25.6280  -39.2760 C   0  0  0  0  0  0  0  0  0  0  0  0
   -2.4210  -23.5540  -42.7430 O   0  0  0  0  0  0  0  0  0  0  0  0
   -2.0950  -20.8220  -42.9530 O   0  0  0  0  0  0  0  0  0  0  0  0
   -0.7990  -20.6110  -43.4760 C   0  0  0  0  0  0  0  0  0  0  0  0
    7.4070  -19.8920  -38.9680 H   0  0  0  0  0  0  0  0  0  0  0  0
    5.6110  -18.4320  -38.1100 H   0  0  0  0  0  0  0  0  0  0  0  0
    2.7250  -21.2810  -39.2700 H   0  0  0  0  0  0  0  0  0  0  0  0
    4.5360  -22.7490  -40.1330 H   0  0  0  0  0  0  0  0  0  0  0  0
    2.1040  -17.3860  -35.2390 H   0  0  0  0  0  0  0  0  0  0  0  0
    0.2150  -17.1610  -39.0400 H   0  0  0  0  0  0  0  0  0  0  0  0
   -2.0440  -18.2940  -39.0160 H   0  0  0  0  0  0  0  0  0  0  0  0
   -3.0900  -20.2320  -37.6490 H   0  0  0  0  0  0  0  0  0  0  0  0
   -1.1000  -21.8820  -36.9800 H   0  0  0  0  0  0  0  0  0  0  0  0
    0.9900  -20.6790  -37.3570 H   0  0  0  0  0  0  0  0  0  0  0  0
   -1.9720  -19.6110  -40.6320 H   0  0  0  0  0  0  0  0  0  0  0  0
   -2.4080  -23.0970  -38.2760 H   0  0  0  0  0  0  0  0  0  0  0  0
   -1.3110  -25.3780  -38.7870 H   0  0  0  0  0  0  0  0  0  0  0  0
   -2.2450  -26.6850  -39.5270 H   0  0  0  0  0  0  0  0  0  0  0  0
   -3.0530  -25.4910  -38.4880 H   0  0  0  0  0  0  0  0  0  0  0  0
   -3.2990  -23.9840  -43.0010 H   0  0  0  0  0  0  0  0  0  0  0  0
   -0.8390  -20.0190  -44.4060 H   0  0  0  0  0  0  0  0  0  0  0  0
   -0.2290  -21.5430  -43.5910 H   0  0  0  0  0  0  0  0  0  0  0  0
   -0.2370  -19.9800  -42.7380 H   0  0  0  0  0  0  0  0  0  0  0  0
  1  2  1  0  0  0  0
  2  3  1  0  0  0  0
  3 33  1  0  0  0  0
  3  4  2  0  0  0  0
  4 34  1  0  0  0  0
  5  4  1  0  0  0  0
  5  8  1  0  0  0  0
  6  5  2  0  0  0  0
  7  2  2  0  0  0  0
  7  6  1  0  0  0  0
  8  9  1  0  0  0  0
  9 11  1  0  0  0  0
  9 10  2  0  0  0  0
 11 37  1  0  0  0  0
 12 13  2  0  0  0  0
 12 11  1  0  0  0  0
 14 38  1  6  0  0  0
 14 17  1  0  0  0  0
 14 12  1  0  0  0  0
 15 14  1  0  0  0  0
 15  8  1  0  0  0  0
 16 15  2  0  0  0  0
 17 21  1  0  0  0  0
 18 17  2  0  0  0  0
 18 19  1  0  0  0  0
 19 40  1  1  0  0  0
 19 20  1  0  0  0  0
 20 41  1  0  0  0  0
 21 42  1  0  0  0  0
 21 20  1  0  0  0  0
 22 27  1  0  0  0  0
 22 19  1  0  0  0  0
 23 22  2  0  0  0  0
 24 25  2  0  0  0  0
 24 23  1  0  0  0  0
 25 26  1  0  0  0  0
 26 28  1  0  0  0  0
 26 27  2  0  0  0  0
 27 44  1  0  0  0  0
 28 29  1  0  0  0  0
 29 45  1  0  0  0  0
 29 47  1  0  0  0  0
 30 25  1  0  0  0  0
 31 24  1  0  0  0  0
 32 31  1  0  0  0  0
 32 51  1  0  0  0  0
 35  6  1  0  0  0  0
 36  7  1  0  0  0  0
 39 18  1  0  0  0  0
 43 23  1  0  0  0  0
 46 29  1  0  0  0  0
 48 30  1  0  0  0  0
 49 32  1  0  0  0  0
 50 32  1  0  0  0  0
M  END
>  <Pose>
1

>  <Score>
-4.57

$$$$
