
 OpenBabel03232221553D

 41 44  0  0  1  0  0  0  0  0999 V2000
    4.6370  -25.4890  -44.7580 Cl  0  0  0  0  0  0  0  0  0  0  0  0
    4.9240  -24.2320  -43.5680 C   0  0  0  0  0  0  0  0  0  0  0  0
    6.1600  -23.6360  -43.4410 C   0  0  0  0  0  0  0  0  0  0  0  0
    6.3840  -22.6410  -42.4950 C   0  0  0  0  0  0  0  0  0  0  0  0
    5.3800  -22.2150  -41.6520 C   0  0  0  0  0  0  0  0  0  0  0  0
    4.1460  -22.8120  -41.7830 C   0  0  0  0  0  0  0  0  0  0  0  0
    3.9230  -23.8010  -42.7230 C   0  0  0  0  0  0  0  0  0  0  0  0
    5.5970  -21.1800  -40.6630 N   0  0  0  0  0  0  0  0  0  0  0  0
    6.0370  -19.8910  -41.0500 C   0  0  0  0  0  0  0  0  0  0  0  0
    6.2410  -19.6290  -42.2620 O   0  0  0  0  0  0  0  0  0  0  0  0
    6.2440  -18.8940  -40.0340 N   0  0  0  0  0  0  0  0  0  0  0  0
    6.0150  -19.1880  -38.6630 C   0  0  0  0  0  0  0  0  0  0  0  0
    6.5110  -18.4440  -37.7800 O   0  0  0  0  0  0  0  0  0  0  0  0
    5.2000  -20.3580  -38.3010 C   0  0  2  0  0  0  0  0  0  0  0  0
    5.3780  -21.4380  -39.2870 C   0  0  0  0  0  0  0  0  0  0  0  0
    5.3360  -22.6580  -38.9040 O   0  0  0  0  0  0  0  0  0  0  0  0
    3.7480  -19.9890  -38.1990 C   0  0  0  0  0  0  0  0  0  0  0  0
    3.0320  -19.2730  -39.0270 C   0  0  0  0  0  0  0  0  0  0  0  0
    1.6560  -19.1720  -38.5140 C   0  0  1  0  0  0  0  0  0  0  0  0
    1.5850  -20.1930  -37.5080 N   0  0  0  0  0  0  0  0  0  0  0  0
    2.9190  -20.4030  -37.1260 N   0  0  0  0  0  0  0  0  0  0  0  0
    1.5210  -17.8300  -37.8930 C   0  0  0  0  0  0  0  0  0  0  0  0
    1.7900  -17.6550  -36.5570 C   0  0  0  0  0  0  0  0  0  0  0  0
    1.6670  -16.4270  -35.9810 N   0  0  0  0  0  0  0  0  0  0  0  0
    1.2840  -15.3420  -36.6710 C   0  0  0  0  0  0  0  0  0  0  0  0
    1.0060  -15.4810  -38.0120 C   0  0  0  0  0  0  0  0  0  0  0  0
    1.1280  -16.7390  -38.6210 C   0  0  0  0  0  0  0  0  0  0  0  0
    6.9580  -23.9560  -44.0920 H   0  0  0  0  0  0  0  0  0  0  0  0
    7.3440  -22.1630  -42.3840 H   0  0  0  0  0  0  0  0  0  0  0  0
    3.3390  -22.4840  -41.1180 H   0  0  0  0  0  0  0  0  0  0  0  0
    2.9490  -24.2830  -42.8320 H   0  0  0  0  0  0  0  0  0  0  0  0
    6.5680  -17.9320  -40.2740 H   0  0  0  0  0  0  0  0  0  0  0  0
    5.4610  -20.7630  -37.2970 H   0  0  0  0  0  0  0  0  0  0  0  0
    3.4180  -18.8380  -39.9390 H   0  0  0  0  0  0  0  0  0  0  0  0
    0.8920  -19.3180  -39.3160 H   0  0  0  0  0  0  0  0  0  0  0  0
    1.1470  -21.0540  -37.8490 H   0  0  0  0  0  0  0  0  0  0  0  0
    3.1770  -20.8000  -36.1930 H   0  0  0  0  0  0  0  0  0  0  0  0
    2.1050  -18.5250  -35.9720 H   0  0  0  0  0  0  0  0  0  0  0  0
    1.1910  -14.3580  -36.1870 H   0  0  0  0  0  0  0  0  0  0  0  0
    0.6980  -14.6150  -38.5760 H   0  0  0  0  0  0  0  0  0  0  0  0
    0.9100  -16.8350  -39.6560 H   0  0  0  0  0  0  0  0  0  0  0  0
  1  2  1  0  0  0  0
  2  3  2  0  0  0  0
  2  7  1  0  0  0  0
  3  4  1  0  0  0  0
  4 29  1  0  0  0  0
  4  5  2  0  0  0  0
  5  8  1  0  0  0  0
  6  5  1  0  0  0  0
  6 30  1  0  0  0  0
  7  6  2  0  0  0  0
  8 15  1  0  0  0  0
  9  8  1  0  0  0  0
  9 11  1  0  0  0  0
 10  9  2  0  0  0  0
 11 12  1  0  0  0  0
 12 14  1  0  0  0  0
 12 13  2  0  0  0  0
 14 17  1  0  0  0  0
 14 33  1  1  0  0  0
 15 16  2  0  0  0  0
 15 14  1  0  0  0  0
 17 21  1  0  0  0  0
 18 19  1  0  0  0  0
 18 17  2  0  0  0  0
 19 35  1  6  0  0  0
 19 22  1  0  0  0  0
 19 20  1  0  0  0  0
 20 21  1  0  0  0  0
 21 37  1  0  0  0  0
 22 23  1  0  0  0  0
 23 24  2  0  0  0  0
 23 38  1  0  0  0  0
 25 39  1  0  0  0  0
 25 24  1  0  0  0  0
 26 25  2  0  0  0  0
 27 26  1  0  0  0  0
 27 22  2  0  0  0  0
 28  3  1  0  0  0  0
 31  7  1  0  0  0  0
 32 11  1  0  0  0  0
 34 18  1  0  0  0  0
 36 20  1  0  0  0  0
 40 26  1  0  0  0  0
 41 27  1  0  0  0  0
M  END
>  <Pose>
1

>  <Score>
-4.81

$$$$
