
 OpenBabel03232221553D

 58 62  0  0  1  0  0  0  0  0999 V2000
    0.3490  -25.7340  -41.6230 Cl  0  0  0  0  0  0  0  0  0  0  0  0
    1.6560  -24.6790  -42.1140 C   0  0  0  0  0  0  0  0  0  0  0  0
    1.4930  -23.3080  -42.1180 C   0  0  0  0  0  0  0  0  0  0  0  0
    2.5030  -22.4540  -42.4990 C   0  0  0  0  0  0  0  0  0  0  0  0
    3.7050  -23.0060  -42.8850 C   0  0  0  0  0  0  0  0  0  0  0  0
    3.8510  -24.3570  -42.8760 C   0  0  0  0  0  0  0  0  0  0  0  0
    2.8550  -25.2280  -42.4980 C   0  0  0  0  0  0  0  0  0  0  0  0
    2.2990  -20.9640  -42.4930 C   0  0  0  0  0  0  0  0  0  0  0  0
    2.9420  -20.3830  -41.3280 N   0  0  0  0  0  0  0  0  0  0  0  0
    4.2700  -19.8760  -41.3690 C   0  0  0  0  0  0  0  0  0  0  0  0
    4.9540  -20.0040  -42.4350 O   0  0  0  0  0  0  0  0  0  0  0  0
    4.9110  -19.2000  -40.2370 C   0  0  1  0  0  0  0  0  0  0  0  0
    4.2020  -19.2870  -39.0040 N   0  0  1  0  0  0  0  0  0  0  0  0
    2.7780  -19.3250  -39.0890 C   0  0  0  0  0  0  0  0  0  0  0  0
    2.0820  -17.9860  -39.1100 C   0  0  0  0  0  0  0  0  0  0  0  0
    1.5490  -18.2480  -37.8120 N   0  0  0  0  0  0  0  0  0  0  0  0
    2.1910  -19.4980  -37.6980 C   0  0  0  0  0  0  0  0  0  0  0  0
    1.6730  -17.2670  -36.7970 C   0  0  0  0  0  0  0  0  0  0  0  0
    0.7370  -16.1390  -36.8710 C   0  0  0  0  0  0  0  0  0  0  0  0
   -0.6170  -16.3680  -36.8880 C   0  0  0  0  0  0  0  0  0  0  0  0
   -1.5300  -15.3130  -36.9580 C   0  0  0  0  0  0  0  0  0  0  0  0
   -1.0570  -14.0220  -37.0110 C   0  0  0  0  0  0  0  0  0  0  0  0
    0.2920  -13.7640  -36.9950 C   0  0  0  0  0  0  0  0  0  0  0  0
    1.1750  -14.8390  -36.9240 C   0  0  0  0  0  0  0  0  0  0  0  0
   -2.8920  -15.5400  -36.9750 O   0  0  0  0  0  0  0  0  0  0  0  0
   -3.3540  -16.8740  -37.0830 C   0  0  0  0  0  0  0  0  0  0  0  0
    2.2590  -20.3010  -40.0820 C   0  0  0  0  0  0  0  0  0  0  0  0
    1.2640  -21.0380  -39.8690 O   0  0  0  0  0  0  0  0  0  0  0  0
    4.6700  -20.4450  -38.2970 C   0  0  0  0  0  0  0  0  0  0  0  0
    5.7730  -21.0690  -39.1040 C   0  0  1  0  0  0  0  0  0  0  0  0
    6.2330  -19.9360  -39.9760 C   0  0  0  0  0  0  0  0  0  0  0  0
    6.7940  -21.5850  -38.3180 O   0  0  0  0  0  0  0  0  0  0  0  0
    0.5280  -22.8790  -41.8070 H   0  0  0  0  0  0  0  0  0  0  0  0
    4.4930  -22.3490  -43.1800 H   0  0  0  0  0  0  0  0  0  0  0  0
    4.8070  -24.7800  -43.1820 H   0  0  0  0  0  0  0  0  0  0  0  0
    3.0030  -26.3150  -42.5020 H   0  0  0  0  0  0  0  0  0  0  0  0
    1.2020  -20.7950  -42.4350 H   0  0  0  0  0  0  0  0  0  0  0  0
    2.7410  -20.5720  -43.4280 H   0  0  0  0  0  0  0  0  0  0  0  0
    5.1710  -18.1410  -40.4750 H   0  0  0  0  0  0  0  0  0  0  0  0
    2.7170  -17.1140  -39.2570 H   0  0  0  0  0  0  0  0  0  0  0  0
    1.2330  -17.9850  -39.8550 H   0  0  0  0  0  0  0  0  0  0  0  0
    2.9220  -19.6660  -36.9030 H   0  0  0  0  0  0  0  0  0  0  0  0
    1.4610  -20.3590  -37.7100 H   0  0  0  0  0  0  0  0  0  0  0  0
    1.5870  -17.8160  -35.8100 H   0  0  0  0  0  0  0  0  0  0  0  0
    2.7490  -16.9180  -36.7870 H   0  0  0  0  0  0  0  0  0  0  0  0
   -1.0570  -17.3570  -36.8500 H   0  0  0  0  0  0  0  0  0  0  0  0
   -1.7980  -13.2190  -37.0650 H   0  0  0  0  0  0  0  0  0  0  0  0
    0.6050  -12.7310  -37.0380 H   0  0  0  0  0  0  0  0  0  0  0  0
    2.2240  -14.5760  -36.9160 H   0  0  0  0  0  0  0  0  0  0  0  0
   -4.4640  -16.8180  -37.1400 H   0  0  0  0  0  0  0  0  0  0  0  0
   -2.9420  -17.3730  -37.9920 H   0  0  0  0  0  0  0  0  0  0  0  0
   -3.0670  -17.4850  -36.2040 H   0  0  0  0  0  0  0  0  0  0  0  0
    3.8810  -21.2240  -38.1510 H   0  0  0  0  0  0  0  0  0  0  0  0
    5.0650  -20.1270  -37.2870 H   0  0  0  0  0  0  0  0  0  0  0  0
    5.3300  -21.8520  -39.7800 H   0  0  0  0  0  0  0  0  0  0  0  0
    6.6960  -20.2710  -40.9180 H   0  0  0  0  0  0  0  0  0  0  0  0
    6.8700  -19.2660  -39.3890 H   0  0  0  0  0  0  0  0  0  0  0  0
    6.9950  -22.4920  -38.6570 H   0  0  0  0  0  0  0  0  0  0  0  0
  2  1  1  0  0  0  0
  3  2  1  0  0  0  0
  3 33  1  0  0  0  0
  4  8  1  0  0  0  0
  4  3  2  0  0  0  0
  5  6  2  0  0  0  0
  5  4  1  0  0  0  0
  6  7  1  0  0  0  0
  7  2  2  0  0  0  0
  8 37  1  0  0  0  0
  8  9  1  0  0  0  0
  9 27  1  0  0  0  0
 10  9  1  0  0  0  0
 10 12  1  0  0  0  0
 11 10  2  0  0  0  0
 12 39  1  6  0  0  0
 12 31  1  0  0  0  0
 12 13  1  0  0  0  0
 13 14  1  6  0  0  0
 13 29  1  0  0  0  0
 14 17  1  0  0  0  0
 15 14  1  0  0  0  0
 15 16  1  0  0  0  0
 16 17  1  0  0  0  0
 16 18  1  0  0  0  0
 17 42  1  0  0  0  0
 18 45  1  0  0  0  0
 18 44  1  0  0  0  0
 19 18  1  0  0  0  0
 20 19  1  0  0  0  0
 20 46  1  0  0  0  0
 21 20  2  0  0  0  0
 22 23  2  0  0  0  0
 22 21  1  0  0  0  0
 23 24  1  0  0  0  0
 24 49  1  0  0  0  0
 24 19  2  0  0  0  0
 25 21  1  0  0  0  0
 26 25  1  0  0  0  0
 26 52  1  0  0  0  0
 27 28  2  0  0  0  0
 27 14  1  0  0  0  0
 29 53  1  0  0  0  0
 29 54  1  0  0  0  0
 30 55  1  6  0  0  0
 30 32  1  0  0  0  0
 30 29  1  0  0  0  0
 31 57  1  0  0  0  0
 31 30  1  0  0  0  0
 34  5  1  0  0  0  0
 35  6  1  0  0  0  0
 36  7  1  0  0  0  0
 38  8  1  0  0  0  0
 40 15  1  0  0  0  0
 41 15  1  0  0  0  0
 43 17  1  0  0  0  0
 47 22  1  0  0  0  0
 48 23  1  0  0  0  0
 50 26  1  0  0  0  0
 51 26  1  0  0  0  0
 56 31  1  0  0  0  0
 58 32  1  0  0  0  0
M  END
>  <Pose>
1

>  <Score>
-4.43

$$$$
