
 OpenBabel03232221553D

 55 59  0  0  1  0  0  0  0  0999 V2000
   -0.6460  -15.2750  -36.9730 B   0  0  0  0  0  0  0  0  0  0  0  0
    0.7540  -16.5350  -36.6880 C   0  0  0  0  0  0  0  0  0  0  0  0
    1.0820  -17.6570  -37.4220 C   0  0  0  0  0  0  0  0  0  0  0  0
    2.1550  -18.2710  -36.8600 N   0  0  0  0  0  0  0  0  0  0  0  0
    2.4920  -17.5690  -35.8130 N   0  0  0  0  0  0  0  0  0  0  0  0
    1.6870  -16.5030  -35.6490 C   0  0  0  0  0  0  0  0  0  0  0  0
    2.8240  -19.4720  -37.3010 C   0  0  0  0  0  0  0  0  0  0  0  0
    3.3130  -19.3750  -38.7270 C   0  0  2  0  0  0  0  0  0  0  0  0
    2.5180  -18.3920  -39.5190 C   0  0  0  0  0  0  0  0  0  0  0  0
    3.3120  -20.7350  -39.3390 C   0  0  0  0  0  0  0  0  0  0  0  0
    2.2870  -21.0580  -39.9910 O   0  0  0  0  0  0  0  0  0  0  0  0
    4.4010  -21.6270  -39.1980 N   0  0  0  0  0  0  0  0  0  0  0  0
    4.9010  -22.4220  -40.2060 N   0  0  0  0  0  0  0  0  0  0  0  0
    5.7900  -21.9140  -41.1650 C   0  0  0  0  0  0  0  0  0  0  0  0
    6.2740  -20.7560  -40.9830 O   0  0  0  0  0  0  0  0  0  0  0  0
    6.2070  -22.6420  -42.3860 C   0  0  1  0  0  0  0  0  0  0  0  0
    7.4680  -23.4420  -42.1280 C   0  0  0  0  0  0  0  0  0  0  0  0
    7.9030  -24.1720  -43.3670 C   0  0  1  0  0  0  0  0  0  0  0  0
    6.7920  -25.1650  -43.7150 C   0  0  0  0  0  0  0  0  0  0  0  0
    5.5180  -24.4230  -43.9650 C   0  0  1  0  0  0  0  0  0  0  0  0
    5.1170  -23.6290  -42.7430 C   0  0  0  0  0  0  0  0  0  0  0  0
    5.7130  -23.4840  -45.1320 C   0  0  0  0  0  0  0  0  0  0  0  0
    6.8080  -22.5100  -44.7650 C   0  0  2  0  0  0  0  0  0  0  0  0
    8.0930  -23.2670  -44.5450 C   0  0  0  0  0  0  0  0  0  0  0  0
    6.4100  -21.7050  -43.5570 C   0  0  0  0  0  0  0  0  0  0  0  0
    9.1060  -24.9070  -43.0340 N   0  0  2  0  0  0  0  0  0  0  0  0
   10.3470  -24.7450  -43.4590 N   0  0  0  0  0  0  0  0  0  0  0  0
   11.1610  -25.6070  -42.9290 N   0  0  0  0  0  0  0  0  0  0  0  0
   10.4600  -26.3820  -42.1190 C   0  0  0  0  0  0  0  0  0  0  0  0
    9.1710  -25.9450  -42.1830 N   0  0  0  0  0  0  0  0  0  0  0  0
    0.5730  -17.9970  -38.3010 H   0  0  0  0  0  0  0  0  0  0  0  0
    1.7020  -15.7350  -34.8890 H   0  0  0  0  0  0  0  0  0  0  0  0
    2.1020  -20.3050  -37.2570 H   0  0  0  0  0  0  0  0  0  0  0  0
    3.6820  -19.7410  -36.6480 H   0  0  0  0  0  0  0  0  0  0  0  0
    4.3710  -19.0370  -38.7170 H   0  0  0  0  0  0  0  0  0  0  0  0
    2.5020  -17.4370  -38.9240 H   0  0  0  0  0  0  0  0  0  0  0  0
    3.0570  -18.1220  -40.4550 H   0  0  0  0  0  0  0  0  0  0  0  0
    1.4720  -18.6790  -39.6770 H   0  0  0  0  0  0  0  0  0  0  0  0
    4.8550  -21.6750  -38.2430 H   0  0  0  0  0  0  0  0  0  0  0  0
    4.6130  -23.4290  -40.2570 H   0  0  0  0  0  0  0  0  0  0  0  0
    8.2780  -22.7790  -41.7270 H   0  0  0  0  0  0  0  0  0  0  0  0
    7.1860  -24.2320  -41.3850 H   0  0  0  0  0  0  0  0  0  0  0  0
    7.0570  -25.7790  -44.5800 H   0  0  0  0  0  0  0  0  0  0  0  0
    6.6500  -25.7690  -42.7840 H   0  0  0  0  0  0  0  0  0  0  0  0
    4.7040  -25.1350  -44.1780 H   0  0  0  0  0  0  0  0  0  0  0  0
    4.1430  -23.1320  -42.9360 H   0  0  0  0  0  0  0  0  0  0  0  0
    5.0300  -24.3440  -41.8940 H   0  0  0  0  0  0  0  0  0  0  0  0
    6.0610  -24.1080  -45.9940 H   0  0  0  0  0  0  0  0  0  0  0  0
    4.7630  -22.9830  -45.3410 H   0  0  0  0  0  0  0  0  0  0  0  0
    6.9050  -21.8010  -45.6380 H   0  0  0  0  0  0  0  0  0  0  0  0
    8.9310  -22.5640  -44.4040 H   0  0  0  0  0  0  0  0  0  0  0  0
    8.2580  -23.9180  -45.4300 H   0  0  0  0  0  0  0  0  0  0  0  0
    5.4570  -21.2040  -43.7430 H   0  0  0  0  0  0  0  0  0  0  0  0
    7.2410  -21.0160  -43.3200 H   0  0  0  0  0  0  0  0  0  0  0  0
   10.8520  -27.1970  -41.5310 H   0  0  0  0  0  0  0  0  0  0  0  0
  1  2  1  0  0  0  0
  2  6  1  0  0  0  0
  3  4  1  0  0  0  0
  3  2  2  0  0  0  0
  4  5  1  0  0  0  0
  5  6  2  0  0  0  0
  6 32  1  0  0  0  0
  7 33  1  0  0  0  0
  7  4  1  0  0  0  0
  7 34  1  0  0  0  0
  8 35  1  1  0  0  0
  8  7  1  0  0  0  0
  9 36  1  0  0  0  0
  9  8  1  0  0  0  0
 10 12  1  0  0  0  0
 10  8  1  0  0  0  0
 11 10  2  0  0  0  0
 12 39  1  0  0  0  0
 13 12  1  0  0  0  0
 14 15  2  0  0  0  0
 14 13  1  0  0  0  0
 16 17  1  0  0  0  0
 16 14  1  1  0  0  0
 17 41  1  0  0  0  0
 17 42  1  0  0  0  0
 18 24  1  6  0  0  0
 18 26  1  0  0  0  0
 18 17  1  0  0  0  0
 19 18  1  0  0  0  0
 19 44  1  0  0  0  0
 20 45  1  6  0  0  0
 20 19  1  0  0  0  0
 20 21  1  0  0  0  0
 21 16  1  0  0  0  0
 21 47  1  0  0  0  0
 22 23  1  0  0  0  0
 22 20  1  0  0  0  0
 23 50  1  6  0  0  0
 23 24  1  0  0  0  0
 23 25  1  0  0  0  0
 24 51  1  0  0  0  0
 25 54  1  0  0  0  0
 25 16  1  0  0  0  0
 26 27  1  6  0  0  0
 26 30  1  0  0  0  0
 27 28  1  0  0  0  0
 28 29  2  0  0  0  0
 29 55  1  0  0  0  0
 30 29  1  0  0  0  0
 31  3  1  0  0  0  0
 37  9  1  0  0  0  0
 38  9  1  0  0  0  0
 40 13  1  0  0  0  0
 43 19  1  0  0  0  0
 46 21  1  0  0  0  0
 48 22  1  0  0  0  0
 49 22  1  0  0  0  0
 52 24  1  0  0  0  0
 53 25  1  0  0  0  0
M  END
>  <Pose>
1

>  <Score>
-4.97

$$$$
