
 OpenBabel03232221553D

 58 61  0  0  0  0  0  0  0  0999 V2000
    3.9400  -24.7320  -43.4760 Cl  0  0  0  0  0  0  0  0  0  0  0  0
    4.8070  -23.4440  -42.6780 C   0  0  0  0  0  0  0  0  0  0  0  0
    6.1360  -23.2650  -42.9940 C   0  0  0  0  0  0  0  0  0  0  0  0
    6.7490  -22.1990  -42.3210 C   0  0  0  0  0  0  0  0  0  0  0  0
    6.0680  -21.4350  -41.4470 N   0  0  0  0  0  0  0  0  0  0  0  0
    4.7990  -21.6000  -41.1390 N   0  0  0  0  0  0  0  0  0  0  0  0
    4.1700  -22.6070  -41.7570 C   0  0  0  0  0  0  0  0  0  0  0  0
    2.9570  -22.8330  -41.5200 O   0  0  0  0  0  0  0  0  0  0  0  0
    4.1560  -20.7430  -40.2010 C   0  0  0  0  0  0  0  0  0  0  0  0
    3.5350  -19.5640  -40.5840 C   0  0  0  0  0  0  0  0  0  0  0  0
    2.9070  -18.7230  -39.6880 C   0  0  0  0  0  0  0  0  0  0  0  0
    2.9020  -19.0780  -38.3550 C   0  0  0  0  0  0  0  0  0  0  0  0
    3.5120  -20.2470  -37.9380 C   0  0  0  0  0  0  0  0  0  0  0  0
    4.1400  -21.0790  -38.8720 C   0  0  0  0  0  0  0  0  0  0  0  0
    6.8470  -24.0910  -43.8850 N   0  0  0  0  0  0  0  0  0  0  0  0
    7.8450  -23.5150  -44.7800 C   0  0  0  0  0  0  0  0  0  0  0  0
    9.2100  -24.1350  -44.5820 C   0  0  0  0  0  0  0  0  0  0  0  0
    9.0320  -25.3860  -43.8860 N   0  0  0  0  0  0  0  0  0  0  0  0
    7.9440  -26.2230  -44.3590 C   0  0  0  0  0  0  0  0  0  0  0  0
    6.6450  -25.5470  -43.9200 C   0  0  0  0  0  0  0  0  0  0  0  0
    9.8360  -25.8170  -42.8100 C   0  0  0  0  0  0  0  0  0  0  0  0
    9.2940  -26.0760  -41.7130 O   0  0  0  0  0  0  0  0  0  0  0  0
   11.3060  -25.9820  -42.9060 C   0  0  0  0  0  0  0  0  0  0  0  0
   11.7080  -26.4240  -44.2940 C   0  0  0  0  0  0  0  0  0  0  0  0
   11.2410  -27.8140  -44.6110 C   0  0  0  0  0  0  0  0  0  0  0  0
   12.3130  -28.7660  -44.7930 N   0  0  0  0  0  0  0  0  0  0  0  0
   13.0340  -29.4200  -43.7640 C   0  0  0  0  0  0  0  0  0  0  0  0
   12.8610  -29.2760  -42.5070 O   0  0  0  0  0  0  0  0  0  0  0  0
   14.0110  -30.2890  -44.2930 N   0  0  0  0  0  0  0  0  0  0  0  0
   13.9560  -30.2080  -45.7360 C   0  0  0  0  0  0  0  0  0  0  0  0
   12.8660  -29.2490  -46.0230 C   0  0  0  0  0  0  0  0  0  0  0  0
   12.4780  -28.9040  -47.1590 O   0  0  0  0  0  0  0  0  0  0  0  0
   14.9210  -31.1240  -43.5370 C   0  0  0  0  0  0  0  0  0  0  0  0
    7.7890  -22.0390  -42.5370 H   0  0  0  0  0  0  0  0  0  0  0  0
    3.5490  -19.3000  -41.6340 H   0  0  0  0  0  0  0  0  0  0  0  0
    2.4210  -17.7920  -40.0130 H   0  0  0  0  0  0  0  0  0  0  0  0
    2.4080  -18.4140  -37.6600 H   0  0  0  0  0  0  0  0  0  0  0  0
    3.4850  -20.4890  -36.8900 H   0  0  0  0  0  0  0  0  0  0  0  0
    4.6200  -21.9960  -38.5590 H   0  0  0  0  0  0  0  0  0  0  0  0
    7.4620  -23.7900  -45.8180 H   0  0  0  0  0  0  0  0  0  0  0  0
    7.9780  -22.4340  -44.6940 H   0  0  0  0  0  0  0  0  0  0  0  0
    9.8830  -23.4680  -44.0080 H   0  0  0  0  0  0  0  0  0  0  0  0
    9.6700  -24.2950  -45.5990 H   0  0  0  0  0  0  0  0  0  0  0  0
    7.9660  -26.2330  -45.4670 H   0  0  0  0  0  0  0  0  0  0  0  0
    8.0100  -27.2640  -43.9930 H   0  0  0  0  0  0  0  0  0  0  0  0
    6.5180  -25.8760  -42.8800 H   0  0  0  0  0  0  0  0  0  0  0  0
    5.8770  -25.7670  -44.6380 H   0  0  0  0  0  0  0  0  0  0  0  0
   11.8350  -25.0350  -42.6730 H   0  0  0  0  0  0  0  0  0  0  0  0
   11.6740  -26.7210  -42.1530 H   0  0  0  0  0  0  0  0  0  0  0  0
   12.8080  -26.4120  -44.4000 H   0  0  0  0  0  0  0  0  0  0  0  0
   11.3060  -25.7130  -45.0570 H   0  0  0  0  0  0  0  0  0  0  0  0
   10.6180  -27.8140  -45.5450 H   0  0  0  0  0  0  0  0  0  0  0  0
   10.5830  -28.2340  -43.8240 H   0  0  0  0  0  0  0  0  0  0  0  0
   13.7270  -31.2080  -46.1920 H   0  0  0  0  0  0  0  0  0  0  0  0
   14.9140  -29.8860  -46.1870 H   0  0  0  0  0  0  0  0  0  0  0  0
   14.3670  -32.0370  -43.2140 H   0  0  0  0  0  0  0  0  0  0  0  0
   15.1770  -30.5940  -42.5760 H   0  0  0  0  0  0  0  0  0  0  0  0
   15.8150  -31.3680  -44.1270 H   0  0  0  0  0  0  0  0  0  0  0  0
  1  2  1  0  0  0  0
  2  7  1  0  0  0  0
  3  2  2  0  0  0  0
  3  4  1  0  0  0  0
  4  5  2  0  0  0  0
  5  6  1  0  0  0  0
  6  9  1  0  0  0  0
  7  8  2  0  0  0  0
  7  6  1  0  0  0  0
  9 14  1  0  0  0  0
 10  9  2  0  0  0  0
 10 11  1  0  0  0  0
 11 12  2  0  0  0  0
 12 13  1  0  0  0  0
 12 37  1  0  0  0  0
 13 38  1  0  0  0  0
 14 39  1  0  0  0  0
 14 13  2  0  0  0  0
 15  3  1  0  0  0  0
 16 41  1  0  0  0  0
 16 17  1  0  0  0  0
 16 15  1  0  0  0  0
 17 42  1  0  0  0  0
 17 18  1  0  0  0  0
 18 21  1  0  0  0  0
 19 45  1  0  0  0  0
 19 20  1  0  0  0  0
 19 18  1  0  0  0  0
 20 15  1  0  0  0  0
 20 46  1  0  0  0  0
 21 22  2  0  0  0  0
 23 21  1  0  0  0  0
 23 48  1  0  0  0  0
 23 49  1  0  0  0  0
 24 23  1  0  0  0  0
 25 24  1  0  0  0  0
 25 53  1  0  0  0  0
 26 25  1  0  0  0  0
 26 27  1  0  0  0  0
 27 28  2  0  0  0  0
 29 27  1  0  0  0  0
 29 33  1  0  0  0  0
 30 29  1  0  0  0  0
 31 30  1  0  0  0  0
 31 26  1  0  0  0  0
 32 31  2  0  0  0  0
 33 56  1  0  0  0  0
 33 57  1  0  0  0  0
 34  4  1  0  0  0  0
 35 10  1  0  0  0  0
 36 11  1  0  0  0  0
 40 16  1  0  0  0  0
 43 17  1  0  0  0  0
 44 19  1  0  0  0  0
 47 20  1  0  0  0  0
 50 24  1  0  0  0  0
 51 24  1  0  0  0  0
 52 25  1  0  0  0  0
 54 30  1  0  0  0  0
 55 30  1  0  0  0  0
 58 33  1  0  0  0  0
M  END
>  <Pose>
1

>  <Score>
-5.19

$$$$
