
 OpenBabel03232221553D

 50 53  0  0  0  0  0  0  0  0999 V2000
    3.4080  -23.0750  -41.7430 Cl  0  0  0  0  0  0  0  0  0  0  0  0
    4.1640  -21.6660  -41.0360 C   0  0  0  0  0  0  0  0  0  0  0  0
    5.4240  -21.2960  -41.4630 C   0  0  0  0  0  0  0  0  0  0  0  0
    5.9650  -20.1740  -40.8620 C   0  0  0  0  0  0  0  0  0  0  0  0
    5.3040  -19.4830  -39.9150 N   0  0  0  0  0  0  0  0  0  0  0  0
    4.0970  -19.8230  -39.4930 N   0  0  0  0  0  0  0  0  0  0  0  0
    3.5390  -20.9100  -40.0560 C   0  0  0  0  0  0  0  0  0  0  0  0
    2.3990  -21.2380  -39.6650 O   0  0  0  0  0  0  0  0  0  0  0  0
    3.4010  -19.0830  -38.4860 C   0  0  0  0  0  0  0  0  0  0  0  0
    2.2900  -18.3280  -38.8040 C   0  0  0  0  0  0  0  0  0  0  0  0
    1.6130  -17.6100  -37.8400 C   0  0  0  0  0  0  0  0  0  0  0  0
    2.0110  -17.6110  -36.5190 C   0  0  0  0  0  0  0  0  0  0  0  0
    3.1210  -18.3640  -36.1940 C   0  0  0  0  0  0  0  0  0  0  0  0
    3.7920  -19.0770  -37.1600 C   0  0  0  0  0  0  0  0  0  0  0  0
    6.1350  -22.0210  -42.4680 N   0  0  0  0  0  0  0  0  0  0  0  0
    5.5910  -22.0580  -43.7980 C   0  0  0  0  0  0  0  0  0  0  0  0
    5.7900  -23.4130  -44.4410 C   0  0  0  0  0  0  0  0  0  0  0  0
    7.0240  -24.0310  -44.0250 N   0  0  0  0  0  0  0  0  0  0  0  0
    8.0080  -23.2250  -43.3430 C   0  0  0  0  0  0  0  0  0  0  0  0
    7.3680  -22.6820  -42.0910 C   0  0  0  0  0  0  0  0  0  0  0  0
    7.2570  -25.4050  -44.2860 C   0  0  0  0  0  0  0  0  0  0  0  0
    6.3650  -26.2840  -44.0570 O   0  0  0  0  0  0  0  0  0  0  0  0
    8.5450  -25.9030  -44.8380 C   0  0  0  0  0  0  0  0  0  0  0  0
    9.2020  -26.7600  -43.9440 O   0  0  0  0  0  0  0  0  0  0  0  0
   10.1600  -26.2700  -43.0780 C   0  0  0  0  0  0  0  0  0  0  0  0
   10.2080  -26.3080  -41.7420 N   0  0  0  0  0  0  0  0  0  0  0  0
   11.2840  -25.7330  -41.3140 O   0  0  0  0  0  0  0  0  0  0  0  0
   12.0160  -25.2800  -42.3110 C   0  0  0  0  0  0  0  0  0  0  0  0
   11.3210  -25.6100  -43.4560 C   0  0  0  0  0  0  0  0  0  0  0  0
   13.3000  -24.5790  -42.1300 C   0  0  0  0  0  0  0  0  0  0  0  0
    6.9690  -19.8700  -41.1950 H   0  0  0  0  0  0  0  0  0  0  0  0
    1.9540  -18.3080  -39.8320 H   0  0  0  0  0  0  0  0  0  0  0  0
    0.7420  -17.0180  -38.0880 H   0  0  0  0  0  0  0  0  0  0  0  0
    1.4700  -17.0430  -35.7670 H   0  0  0  0  0  0  0  0  0  0  0  0
    3.4140  -18.3480  -35.1480 H   0  0  0  0  0  0  0  0  0  0  0  0
    4.6530  -19.6510  -36.8640 H   0  0  0  0  0  0  0  0  0  0  0  0
    4.5070  -21.8360  -43.8100 H   0  0  0  0  0  0  0  0  0  0  0  0
    6.0930  -21.2440  -44.3790 H   0  0  0  0  0  0  0  0  0  0  0  0
    4.9090  -24.0420  -44.3010 H   0  0  0  0  0  0  0  0  0  0  0  0
    5.8780  -23.2350  -45.5450 H   0  0  0  0  0  0  0  0  0  0  0  0
    8.2090  -22.3340  -43.9990 H   0  0  0  0  0  0  0  0  0  0  0  0
    8.9480  -23.7670  -43.1470 H   0  0  0  0  0  0  0  0  0  0  0  0
    7.1760  -23.4900  -41.3480 H   0  0  0  0  0  0  0  0  0  0  0  0
    8.0770  -21.9150  -41.6650 H   0  0  0  0  0  0  0  0  0  0  0  0
    9.2030  -25.0770  -45.1690 H   0  0  0  0  0  0  0  0  0  0  0  0
    8.3350  -26.5140  -45.7640 H   0  0  0  0  0  0  0  0  0  0  0  0
   11.6540  -25.3780  -44.4550 H   0  0  0  0  0  0  0  0  0  0  0  0
   13.6460  -24.0840  -43.0530 H   0  0  0  0  0  0  0  0  0  0  0  0
   14.1130  -25.2890  -41.7980 H   0  0  0  0  0  0  0  0  0  0  0  0
   13.1890  -23.8220  -41.2990 H   0  0  0  0  0  0  0  0  0  0  0  0
  1  2  1  0  0  0  0
  2  7  1  0  0  0  0
  3  2  2  0  0  0  0
  3  4  1  0  0  0  0
  4  5  2  0  0  0  0
  5  6  1  0  0  0  0
  6  9  1  0  0  0  0
  7  8  2  0  0  0  0
  7  6  1  0  0  0  0
  9 14  1  0  0  0  0
 10  9  2  0  0  0  0
 10 11  1  0  0  0  0
 11 12  2  0  0  0  0
 12 13  1  0  0  0  0
 12 34  1  0  0  0  0
 13 35  1  0  0  0  0
 14 36  1  0  0  0  0
 14 13  2  0  0  0  0
 15 20  1  0  0  0  0
 15  3  1  0  0  0  0
 16 15  1  0  0  0  0
 17 39  1  0  0  0  0
 17 18  1  0  0  0  0
 17 16  1  0  0  0  0
 18 19  1  0  0  0  0
 19 42  1  0  0  0  0
 19 20  1  0  0  0  0
 20 44  1  0  0  0  0
 20 43  1  0  0  0  0
 21 22  2  0  0  0  0
 21 18  1  0  0  0  0
 23 21  1  0  0  0  0
 23 24  1  0  0  0  0
 24 25  1  0  0  0  0
 25 26  2  0  0  0  0
 26 27  1  0  0  0  0
 28 30  1  0  0  0  0
 28 27  1  0  0  0  0
 29 25  1  0  0  0  0
 29 28  2  0  0  0  0
 30 49  1  0  0  0  0
 30 50  1  0  0  0  0
 31  4  1  0  0  0  0
 32 10  1  0  0  0  0
 33 11  1  0  0  0  0
 37 16  1  0  0  0  0
 38 16  1  0  0  0  0
 40 17  1  0  0  0  0
 41 19  1  0  0  0  0
 45 23  1  0  0  0  0
 46 23  1  0  0  0  0
 47 29  1  0  0  0  0
 48 30  1  0  0  0  0
M  END
>  <Pose>
1

>  <Score>
-4.99

$$$$
