
 OpenBabel03232221553D

 53 56  0  0  0  0  0  0  0  0999 V2000
    5.6430  -17.1500  -46.0120 Cl  0  0  0  0  0  0  0  0  0  0  0  0
    5.7690  -18.1030  -44.5370 C   0  0  0  0  0  0  0  0  0  0  0  0
    5.0590  -19.3010  -44.4930 C   0  0  0  0  0  0  0  0  0  0  0  0
    5.1460  -20.0580  -43.3470 C   0  0  0  0  0  0  0  0  0  0  0  0
    5.9220  -19.6270  -42.2790 C   0  0  0  0  0  0  0  0  0  0  0  0
    6.6270  -18.4300  -42.3310 C   0  0  0  0  0  0  0  0  0  0  0  0
    6.5380  -17.6700  -43.4830 C   0  0  0  0  0  0  0  0  0  0  0  0
    6.0600  -20.3300  -41.0940 O   0  0  0  0  0  0  0  0  0  0  0  0
    5.1750  -21.2160  -40.4660 C   0  0  0  0  0  0  0  0  0  0  0  0
    4.8030  -22.4280  -41.2400 C   0  0  0  0  0  0  0  0  0  0  0  0
    4.9270  -22.3470  -42.6600 N   0  0  0  0  0  0  0  0  0  0  0  0
    4.3280  -21.2920  -43.4880 C   0  0  0  0  0  0  0  0  0  0  0  0
    5.6700  -23.3490  -43.3420 C   0  0  0  0  0  0  0  0  0  0  0  0
    5.3220  -24.5380  -43.1560 O   0  0  0  0  0  0  0  0  0  0  0  0
    6.7820  -23.0330  -44.2250 C   0  0  0  0  0  0  0  0  0  0  0  0
    8.1510  -23.2940  -43.7460 C   0  0  0  0  0  0  0  0  0  0  0  0
    8.4700  -24.5770  -43.0990 C   0  0  0  0  0  0  0  0  0  0  0  0
    9.7950  -25.0730  -43.1040 N   0  0  0  0  0  0  0  0  0  0  0  0
   10.3040  -26.0770  -42.2440 C   0  0  0  0  0  0  0  0  0  0  0  0
    9.6980  -26.7180  -41.3350 O   0  0  0  0  0  0  0  0  0  0  0  0
   11.6670  -26.2630  -42.5810 N   0  0  0  0  0  0  0  0  0  0  0  0
   11.9150  -25.6540  -43.8860 C   0  0  0  0  0  0  0  0  0  0  0  0
   10.8370  -24.6460  -43.9600 C   0  0  0  0  0  0  0  0  0  0  0  0
   10.8680  -23.5840  -44.6800 O   0  0  0  0  0  0  0  0  0  0  0  0
    5.8110  -21.6580  -39.1350 C   0  0  0  0  0  0  0  0  0  0  0  0
    6.2360  -20.3990  -38.4280 C   0  0  0  0  0  0  0  0  0  0  0  0
    5.8190  -19.2540  -39.0840 O   0  0  0  0  0  0  0  0  0  0  0  0
    4.4480  -19.2140  -39.2720 C   0  0  0  0  0  0  0  0  0  0  0  0
    3.9350  -20.4270  -40.0170 C   0  0  0  0  0  0  0  0  0  0  0  0
    4.4710  -19.5950  -45.3430 H   0  0  0  0  0  0  0  0  0  0  0  0
    7.2100  -18.1310  -41.4940 H   0  0  0  0  0  0  0  0  0  0  0  0
    7.0820  -16.7250  -43.5530 H   0  0  0  0  0  0  0  0  0  0  0  0
    3.7110  -22.6330  -41.0300 H   0  0  0  0  0  0  0  0  0  0  0  0
    5.3220  -23.3370  -40.8230 H   0  0  0  0  0  0  0  0  0  0  0  0
    4.1690  -21.5930  -44.5210 H   0  0  0  0  0  0  0  0  0  0  0  0
    3.3120  -21.0280  -43.0870 H   0  0  0  0  0  0  0  0  0  0  0  0
    6.7560  -21.9820  -44.6080 H   0  0  0  0  0  0  0  0  0  0  0  0
    6.6410  -23.6460  -45.1670 H   0  0  0  0  0  0  0  0  0  0  0  0
    8.3800  -22.4840  -42.9750 H   0  0  0  0  0  0  0  0  0  0  0  0
    8.9100  -23.0320  -44.5570 H   0  0  0  0  0  0  0  0  0  0  0  0
    8.0650  -24.4950  -42.0310 H   0  0  0  0  0  0  0  0  0  0  0  0
    7.8190  -25.4260  -43.4990 H   0  0  0  0  0  0  0  0  0  0  0  0
   12.4000  -26.7440  -42.0240 H   0  0  0  0  0  0  0  0  0  0  0  0
   11.7510  -26.3860  -44.6980 H   0  0  0  0  0  0  0  0  0  0  0  0
   12.9180  -25.1820  -43.9250 H   0  0  0  0  0  0  0  0  0  0  0  0
    6.6260  -22.3670  -39.3010 H   0  0  0  0  0  0  0  0  0  0  0  0
    4.9880  -22.1430  -38.5670 H   0  0  0  0  0  0  0  0  0  0  0  0
    5.8900  -20.3680  -37.3670 H   0  0  0  0  0  0  0  0  0  0  0  0
    7.3440  -20.3890  -38.3970 H   0  0  0  0  0  0  0  0  0  0  0  0
    3.8790  -19.0370  -38.3320 H   0  0  0  0  0  0  0  0  0  0  0  0
    4.2410  -18.3130  -39.9180 H   0  0  0  0  0  0  0  0  0  0  0  0
    3.3980  -21.0610  -39.2650 H   0  0  0  0  0  0  0  0  0  0  0  0
    3.2790  -20.1720  -40.8490 H   0  0  0  0  0  0  0  0  0  0  0  0
  1  2  1  0  0  0  0
  2  3  2  0  0  0  0
  2  7  1  0  0  0  0
  3  4  1  0  0  0  0
  4  5  2  0  0  0  0
  5  8  1  0  0  0  0
  6  5  1  0  0  0  0
  6 31  1  0  0  0  0
  7  6  2  0  0  0  0
  8  9  1  0  0  0  0
  9 29  1  0  0  0  0
  9 25  1  0  0  0  0
 10 33  1  0  0  0  0
 10 34  1  0  0  0  0
 10  9  1  0  0  0  0
 11 10  1  0  0  0  0
 12  4  1  0  0  0  0
 12 36  1  0  0  0  0
 12 11  1  0  0  0  0
 13 14  2  0  0  0  0
 13 11  1  0  0  0  0
 15 16  1  0  0  0  0
 15 13  1  0  0  0  0
 16 17  1  0  0  0  0
 16 39  1  0  0  0  0
 17 41  1  0  0  0  0
 18 17  1  0  0  0  0
 18 19  1  0  0  0  0
 19 20  2  0  0  0  0
 21 19  1  0  0  0  0
 21 43  1  0  0  0  0
 22 21  1  0  0  0  0
 23 22  1  0  0  0  0
 23 18  1  0  0  0  0
 24 23  2  0  0  0  0
 25 47  1  0  0  0  0
 25 26  1  0  0  0  0
 26 49  1  0  0  0  0
 26 48  1  0  0  0  0
 27 26  1  0  0  0  0
 28 27  1  0  0  0  0
 28 50  1  0  0  0  0
 29 28  1  0  0  0  0
 29 52  1  0  0  0  0
 30  3  1  0  0  0  0
 32  7  1  0  0  0  0
 35 12  1  0  0  0  0
 37 15  1  0  0  0  0
 38 15  1  0  0  0  0
 40 16  1  0  0  0  0
 42 17  1  0  0  0  0
 44 22  1  0  0  0  0
 45 22  1  0  0  0  0
 46 25  1  0  0  0  0
 51 28  1  0  0  0  0
 53 29  1  0  0  0  0
M  END
>  <Pose>
1

>  <Score>
-4.53

$$$$
