
 OpenBabel03232221553D

 55 58  0  0  1  0  0  0  0  0999 V2000
   -2.5640  -23.0430  -39.6940 B   0  0  0  0  0  0  0  0  0  0  0  0
   -1.3200  -21.6320  -39.3510 C   0  0  0  0  0  0  0  0  0  0  0  0
   -0.4810  -21.2590  -40.3610 C   0  0  0  0  0  0  0  0  0  0  0  0
    0.4200  -20.2570  -40.1520 C   0  0  0  0  0  0  0  0  0  0  0  0
    0.5470  -19.5700  -38.9600 C   0  0  0  0  0  0  0  0  0  0  0  0
   -0.3120  -19.9650  -37.9580 C   0  0  0  0  0  0  0  0  0  0  0  0
   -1.2430  -20.9870  -38.1390 C   0  0  0  0  0  0  0  0  0  0  0  0
    1.5450  -18.5200  -38.8430 C   0  0  2  0  0  0  0  0  0  0  0  0
    2.7090  -18.8650  -38.0830 N   0  0  0  0  0  0  0  0  0  0  0  0
    2.7360  -18.1520  -36.8570 C   0  0  0  0  0  0  0  0  0  0  0  0
    3.4690  -18.2910  -35.8480 O   0  0  0  0  0  0  0  0  0  0  0  0
    1.6870  -17.1080  -36.9070 C   0  0  0  0  0  0  0  0  0  0  0  0
    1.4060  -16.2770  -36.0080 O   0  0  0  0  0  0  0  0  0  0  0  0
    1.0660  -17.2610  -38.2100 C   0  0  0  0  0  0  0  0  0  0  0  0
    0.1850  -16.3820  -38.7030 C   0  0  0  0  0  0  0  0  0  0  0  0
   -0.3270  -16.7220  -39.9610 O   0  0  0  0  0  0  0  0  0  0  0  0
   -0.2150  -15.1650  -38.0040 C   0  0  0  0  0  0  0  0  0  0  0  0
    0.4590  -14.1140  -37.6880 O   0  0  0  0  0  0  0  0  0  0  0  0
   -0.2200  -13.2040  -37.0540 C   0  0  0  0  0  0  0  0  0  0  0  0
   -1.5170  -13.6730  -36.9100 C   0  0  0  0  0  0  0  0  0  0  0  0
   -1.4870  -14.9260  -37.5250 C   0  0  0  0  0  0  0  0  0  0  0  0
   -2.4540  -12.9000  -36.2670 C   0  0  0  0  0  0  0  0  0  0  0  0
   -2.1220  -11.6630  -35.7630 C   0  0  0  0  0  0  0  0  0  0  0  0
   -0.8250  -11.1860  -35.9030 C   0  0  0  0  0  0  0  0  0  0  0  0
    0.0930  -11.9580  -36.5410 C   0  0  0  0  0  0  0  0  0  0  0  0
    1.3890  -11.5120  -36.6970 O   0  0  0  0  0  0  0  0  0  0  0  0
    2.0420  -11.3520  -37.9490 C   0  0  0  0  0  0  0  0  0  0  0  0
    3.7290  -19.8000  -38.4750 C   0  0  0  0  0  0  0  0  0  0  0  0
    4.7620  -19.1520  -39.3790 C   0  0  0  0  0  0  0  0  0  0  0  0
    6.0910  -19.5990  -39.1390 N   0  0  0  0  0  4  0  0  0  0  0  0
    6.5660  -19.4560  -37.7970 C   0  0  0  0  0  0  0  0  0  0  0  0
    6.2720  -20.9670  -39.6040 C   0  0  0  0  0  0  0  0  0  0  0  0
   -0.5160  -21.7540  -41.3390 H   0  0  0  0  0  0  0  0  0  0  0  0
    1.0760  -19.9950  -40.9940 H   0  0  0  0  0  0  0  0  0  0  0  0
   -0.2560  -19.4720  -37.0190 H   0  0  0  0  0  0  0  0  0  0  0  0
   -1.8970  -21.2710  -37.3450 H   0  0  0  0  0  0  0  0  0  0  0  0
    1.9430  -18.3050  -39.8830 H   0  0  0  0  0  0  0  0  0  0  0  0
   -2.3530  -15.5690  -37.5880 H   0  0  0  0  0  0  0  0  0  0  0  0
   -3.4620  -13.2580  -36.1500 H   0  0  0  0  0  0  0  0  0  0  0  0
   -2.8240  -11.0280  -35.2520 H   0  0  0  0  0  0  0  0  0  0  0  0
   -0.5920  -10.1930  -35.4910 H   0  0  0  0  0  0  0  0  0  0  0  0
    2.8140  -10.5460  -37.8240 H   0  0  0  0  0  0  0  0  0  0  0  0
    2.5120  -12.3150  -38.1890 H   0  0  0  0  0  0  0  0  0  0  0  0
    1.3790  -11.0340  -38.7560 H   0  0  0  0  0  0  0  0  0  0  0  0
    3.3070  -20.7080  -38.9500 H   0  0  0  0  0  0  0  0  0  0  0  0
    4.2750  -20.1570  -37.5750 H   0  0  0  0  0  0  0  0  0  0  0  0
    4.6810  -18.0390  -39.2690 H   0  0  0  0  0  0  0  0  0  0  0  0
    4.5250  -19.3330  -40.4580 H   0  0  0  0  0  0  0  0  0  0  0  0
    6.7350  -19.0070  -39.7430 H   0  0  0  0  0  0  0  0  0  0  0  0
    6.7000  -18.3770  -37.5660 H   0  0  0  0  0  0  0  0  0  0  0  0
    5.9760  -19.9910  -37.0410 H   0  0  0  0  0  0  0  0  0  0  0  0
    7.5920  -19.9070  -37.7740 H   0  0  0  0  0  0  0  0  0  0  0  0
    5.9200  -21.6680  -38.8360 H   0  0  0  0  0  0  0  0  0  0  0  0
    5.6580  -21.1500  -40.5070 H   0  0  0  0  0  0  0  0  0  0  0  0
    7.3460  -21.1140  -39.8260 H   0  0  0  0  0  0  0  0  0  0  0  0
  1  2  1  0  0  0  0
  2  7  1  0  0  0  0
  3  4  1  0  0  0  0
  3  2  2  0  0  0  0
  4  5  2  0  0  0  0
  5  8  1  0  0  0  0
  5  6  1  0  0  0  0
  6 35  1  0  0  0  0
  7  6  2  0  0  0  0
  7 36  1  0  0  0  0
  8 37  1  6  0  0  0
  8 14  1  0  0  0  0
  8  9  1  0  0  0  0
  9 10  1  0  0  0  0
 10 11  2  0  0  0  0
 12 10  1  0  0  0  0
 12 13  2  0  0  0  0
 14 12  1  0  0  0  0
 15 14  2  0  0  0  0
 15 17  1  0  0  0  0
 16 15  1  0  0  0  0
 17 18  1  0  0  0  0
 17 21  2  0  0  0  0
 18 19  1  0  0  0  0
 19 20  2  0  0  0  0
 19 25  1  0  0  0  0
 20 22  1  0  0  0  0
 21 20  1  0  0  0  0
 22 39  1  0  0  0  0
 22 23  2  0  0  0  0
 23 40  1  0  0  0  0
 24 23  1  0  0  0  0
 24 41  1  0  0  0  0
 25 24  2  0  0  0  0
 26 25  1  0  0  0  0
 27 42  1  0  0  0  0
 27 26  1  0  0  0  0
 28  9  1  0  0  0  0
 28 46  1  0  0  0  0
 29 47  1  0  0  0  0
 29 30  1  0  0  0  0
 29 28  1  0  0  0  0
 30 31  1  0  0  0  0
 31 52  1  0  0  0  0
 31 50  1  0  0  0  0
 31 51  1  0  0  0  0
 32 30  1  0  0  0  0
 32 53  1  0  0  0  0
 33  3  1  0  0  0  0
 34  4  1  0  0  0  0
 38 21  1  0  0  0  0
 43 27  1  0  0  0  0
 44 27  1  0  0  0  0
 45 28  1  0  0  0  0
 48 29  1  0  0  0  0
 49 30  1  0  0  0  0
 54 32  1  0  0  0  0
 55 32  1  0  0  0  0
M  END
>  <Pose>
1

>  <Score>
-5.07

$$$$
