
 OpenBabel03232221553D

 53 56  0  0  1  0  0  0  0  0999 V2000
    3.4940  -22.3330  -42.8540 S   0  0  0  0  0  0  0  0  0  0  0  0
    3.2240  -21.2940  -43.9280 O   0  0  0  0  0  0  0  0  0  0  0  0
    2.1320  -22.7240  -42.3200 O   0  0  0  0  0  0  0  0  0  0  0  0
    4.3450  -23.5870  -43.5240 N   0  0  0  0  0  0  0  0  0  0  0  0
    4.8360  -24.6430  -42.7630 C   0  0  0  0  0  0  0  0  0  0  0  0
    5.7490  -25.5090  -43.6420 C   0  0  0  0  0  0  0  0  0  0  0  0
    6.5680  -24.6450  -44.4930 N   0  0  0  0  0  0  0  0  0  0  0  0
    5.8460  -23.7370  -45.3630 C   0  0  0  0  0  0  0  0  0  0  0  0
    4.3790  -23.7850  -44.9130 C   0  0  0  0  0  0  0  0  0  0  0  0
    7.9880  -24.7080  -44.4280 C   0  0  0  0  0  0  0  0  0  0  0  0
    8.6340  -23.7980  -44.9980 O   0  0  0  0  0  0  0  0  0  0  0  0
    8.6560  -25.8010  -43.7220 C   0  0  0  0  0  0  0  0  0  0  0  0
   10.0950  -25.4990  -43.3290 C   0  0  2  0  0  0  0  0  0  0  0  0
   10.9720  -25.3140  -44.4550 N   0  0  0  0  0  0  0  0  0  0  0  0
   12.0410  -26.0920  -44.9740 C   0  0  0  0  0  0  0  0  0  0  0  0
   12.9110  -25.5570  -45.7110 O   0  0  0  0  0  0  0  0  0  0  0  0
   12.2850  -27.5330  -44.7500 C   0  0  0  0  0  0  0  0  0  0  0  0
   11.8510  -28.2970  -43.6600 C   0  0  0  0  0  0  0  0  0  0  0  0
   12.1550  -29.6270  -43.6080 C   0  0  0  0  0  0  0  0  0  0  0  0
   12.8890  -30.2720  -44.6050 C   0  0  0  0  0  0  0  0  0  0  0  0
   13.3060  -29.4840  -45.6790 C   0  0  0  0  0  0  0  0  0  0  0  0
   13.0070  -28.1410  -45.7440 C   0  0  0  0  0  0  0  0  0  0  0  0
   11.0960  -27.8190  -42.5570 N   0  0  0  0  0  0  0  0  0  0  0  0
   10.5570  -26.5090  -42.3530 C   0  0  0  0  0  0  0  0  0  0  0  0
   10.4810  -26.2030  -41.1110 O   0  0  0  0  0  0  0  0  0  0  0  0
    4.3530  -21.4930  -41.5580 C   0  0  0  0  0  0  0  0  0  0  0  0
    5.2960  -20.5270  -41.8260 C   0  0  0  0  0  0  0  0  0  0  0  0
    5.9430  -19.9040  -40.7820 C   0  0  0  0  0  0  0  0  0  0  0  0
    5.6960  -20.1970  -39.4530 C   0  0  0  0  0  0  0  0  0  0  0  0
    4.7440  -21.1730  -39.1860 C   0  0  0  0  0  0  0  0  0  0  0  0
    4.1000  -21.7930  -40.2320 C   0  0  0  0  0  0  0  0  0  0  0  0
    6.5040  -19.4170  -38.1340 Cl  0  0  0  0  0  0  0  0  0  0  0  0
    4.0450  -25.3390  -42.3520 H   0  0  0  0  0  0  0  0  0  0  0  0
    5.4870  -24.3560  -41.9020 H   0  0  0  0  0  0  0  0  0  0  0  0
    5.1550  -26.1560  -44.3070 H   0  0  0  0  0  0  0  0  0  0  0  0
    6.3860  -26.1720  -43.0260 H   0  0  0  0  0  0  0  0  0  0  0  0
    6.1560  -22.6800  -45.1920 H   0  0  0  0  0  0  0  0  0  0  0  0
    5.9030  -24.0410  -46.4060 H   0  0  0  0  0  0  0  0  0  0  0  0
    3.9960  -24.8040  -45.2170 H   0  0  0  0  0  0  0  0  0  0  0  0
    3.7790  -23.0460  -45.4990 H   0  0  0  0  0  0  0  0  0  0  0  0
    8.1350  -26.0020  -42.7320 H   0  0  0  0  0  0  0  0  0  0  0  0
    8.5990  -26.7600  -44.2720 H   0  0  0  0  0  0  0  0  0  0  0  0
   10.0530  -24.5090  -42.7790 H   0  0  0  0  0  0  0  0  0  0  0  0
   10.8280  -24.4340  -45.0440 H   0  0  0  0  0  0  0  0  0  0  0  0
   11.8240  -30.2090  -42.7700 H   0  0  0  0  0  0  0  0  0  0  0  0
   13.1210  -31.3160  -44.5540 H   0  0  0  0  0  0  0  0  0  0  0  0
   13.8710  -29.9900  -46.4490 H   0  0  0  0  0  0  0  0  0  0  0  0
   13.3280  -27.5320  -46.5710 H   0  0  0  0  0  0  0  0  0  0  0  0
   10.9190  -28.5070  -41.8260 H   0  0  0  0  0  0  0  0  0  0  0  0
    5.5450  -20.2400  -42.8270 H   0  0  0  0  0  0  0  0  0  0  0  0
    6.6980  -19.1270  -40.9890 H   0  0  0  0  0  0  0  0  0  0  0  0
    4.5450  -21.4120  -38.1560 H   0  0  0  0  0  0  0  0  0  0  0  0
    3.3700  -22.5440  -39.9870 H   0  0  0  0  0  0  0  0  0  0  0  0
  1  3  2  0  0  0  0
  1 26  1  0  0  0  0
  2  1  2  0  0  0  0
  4  1  1  0  0  0  0
  4  5  1  0  0  0  0
  5 33  1  0  0  0  0
  5 34  1  0  0  0  0
  6 36  1  0  0  0  0
  6  5  1  0  0  0  0
  7 10  1  0  0  0  0
  7  6  1  0  0  0  0
  8 37  1  0  0  0  0
  8  9  1  0  0  0  0
  8  7  1  0  0  0  0
  9  4  1  0  0  0  0
 10 12  1  0  0  0  0
 11 10  2  0  0  0  0
 12 13  1  0  0  0  0
 12 41  1  0  0  0  0
 13 43  1  1  0  0  0
 13 24  1  0  0  0  0
 14 13  1  0  0  0  0
 15 17  1  0  0  0  0
 15 14  1  0  0  0  0
 16 15  2  0  0  0  0
 17 18  1  0  0  0  0
 18 19  2  0  0  0  0
 18 23  1  0  0  0  0
 19 45  1  0  0  0  0
 20 46  1  0  0  0  0
 20 19  1  0  0  0  0
 21 20  2  0  0  0  0
 22 21  1  0  0  0  0
 22 17  2  0  0  0  0
 23 24  1  0  0  0  0
 23 49  1  0  0  0  0
 24 25  2  0  0  0  0
 26 31  1  0  0  0  0
 27 26  2  0  0  0  0
 27 28  1  0  0  0  0
 28 29  2  0  0  0  0
 29 30  1  0  0  0  0
 29 32  1  0  0  0  0
 30 52  1  0  0  0  0
 31 53  1  0  0  0  0
 31 30  2  0  0  0  0
 35  6  1  0  0  0  0
 38  8  1  0  0  0  0
 39  9  1  0  0  0  0
 40  9  1  0  0  0  0
 42 12  1  0  0  0  0
 44 14  1  0  0  0  0
 47 21  1  0  0  0  0
 48 22  1  0  0  0  0
 50 27  1  0  0  0  0
 51 28  1  0  0  0  0
M  END
>  <Pose>
1

>  <Score>
-4.76

$$$$
