
 OpenBabel03232221553D

 49 52  0  0  1  0  0  0  0  0999 V2000
   13.4610  -24.6200  -43.8950 B   0  0  0  0  0  0  0  0  0  0  0  0
   12.4980  -22.9780  -43.9170 C   0  0  0  0  0  0  0  0  0  0  0  0
   13.1100  -21.7960  -43.5620 C   0  0  0  0  0  0  0  0  0  0  0  0
   12.4360  -20.6120  -43.5730 C   0  0  0  0  0  0  0  0  0  0  0  0
   12.7530  -19.3170  -43.2850 N   0  0  0  0  0  0  0  0  0  0  0  0
   11.6900  -18.5500  -43.4710 N   0  0  0  0  0  0  0  0  0  0  0  0
   10.6470  -19.2850  -43.8790 C   0  0  0  0  0  0  0  0  0  0  0  0
   11.1150  -20.5930  -43.9460 C   0  0  0  0  0  0  0  0  0  0  0  0
   10.4730  -21.7700  -44.3080 C   0  0  0  0  0  0  0  0  0  0  0  0
   11.1550  -22.9660  -44.2970 C   0  0  0  0  0  0  0  0  0  0  0  0
    9.3210  -18.9010  -44.2020 N   0  0  0  0  0  0  0  0  0  0  0  0
    8.3420  -19.6650  -44.9730 C   0  0  0  0  0  0  0  0  0  0  0  0
    7.0480  -19.3960  -44.2380 C   0  0  2  0  0  0  0  0  0  0  0  0
    7.1470  -17.9030  -43.9480 C   0  0  0  0  0  0  0  0  0  0  0  0
    8.6350  -17.6930  -43.8600 C   0  0  0  0  0  0  0  0  0  0  0  0
    9.2070  -16.6110  -43.5320 O   0  0  0  0  0  0  0  0  0  0  0  0
    6.9620  -20.1610  -42.9710 C   0  0  0  0  0  0  0  0  0  0  0  0
    7.0110  -21.4150  -43.0320 O   0  0  0  0  0  0  0  0  0  0  0  0
    6.8280  -19.5360  -41.7110 N   0  0  0  0  0  0  0  0  0  0  0  0
    5.5540  -19.3370  -41.0680 C   0  0  0  0  0  0  0  0  0  0  0  0
    4.9540  -20.6800  -40.7100 C   0  0  0  0  0  0  0  0  0  0  0  0
    4.5250  -20.7560  -39.3350 N   0  0  0  0  0  0  0  0  0  0  0  0
    5.6940  -21.0960  -38.5320 C   0  0  0  0  0  0  0  0  0  0  0  0
    6.4910  -19.8390  -38.1960 C   0  0  0  0  0  0  0  0  0  0  0  0
    5.8170  -18.9960  -37.3430 O   0  0  0  0  0  0  0  0  0  0  0  0
    4.4660  -19.2450  -37.4240 C   0  0  0  0  0  0  0  0  0  0  0  0
    4.0140  -19.4940  -38.8490 C   0  0  0  0  0  0  0  0  0  0  0  0
   14.1510  -21.7930  -43.2670 H   0  0  0  0  0  0  0  0  0  0  0  0
   13.7250  -19.0720  -42.9720 H   0  0  0  0  0  0  0  0  0  0  0  0
    9.4120  -21.7380  -44.6040 H   0  0  0  0  0  0  0  0  0  0  0  0
   10.6340  -23.8830  -44.5850 H   0  0  0  0  0  0  0  0  0  0  0  0
    8.5930  -20.7280  -45.0590 H   0  0  0  0  0  0  0  0  0  0  0  0
    8.2460  -19.2390  -45.9920 H   0  0  0  0  0  0  0  0  0  0  0  0
    6.1800  -19.5560  -44.8980 H   0  0  0  0  0  0  0  0  0  0  0  0
    6.7740  -17.7390  -42.9160 H   0  0  0  0  0  0  0  0  0  0  0  0
    6.6780  -17.2860  -44.7100 H   0  0  0  0  0  0  0  0  0  0  0  0
    7.7110  -19.2090  -41.2420 H   0  0  0  0  0  0  0  0  0  0  0  0
    4.8740  -18.9090  -41.8560 H   0  0  0  0  0  0  0  0  0  0  0  0
    5.5690  -18.6400  -40.2330 H   0  0  0  0  0  0  0  0  0  0  0  0
    5.7430  -21.4670  -40.8360 H   0  0  0  0  0  0  0  0  0  0  0  0
    4.1280  -20.9570  -41.3940 H   0  0  0  0  0  0  0  0  0  0  0  0
    5.4570  -21.6120  -37.6040 H   0  0  0  0  0  0  0  0  0  0  0  0
    6.3470  -21.7320  -39.1710 H   0  0  0  0  0  0  0  0  0  0  0  0
    7.4280  -20.2150  -37.6940 H   0  0  0  0  0  0  0  0  0  0  0  0
    6.7700  -19.2750  -39.1080 H   0  0  0  0  0  0  0  0  0  0  0  0
    4.1310  -20.0880  -36.7900 H   0  0  0  0  0  0  0  0  0  0  0  0
    3.9480  -18.3290  -37.0500 H   0  0  0  0  0  0  0  0  0  0  0  0
    2.8950  -19.4860  -38.8150 H   0  0  0  0  0  0  0  0  0  0  0  0
    4.3170  -18.6380  -39.4930 H   0  0  0  0  0  0  0  0  0  0  0  0
  2  1  1  0  0  0  0
  2  3  1  0  0  0  0
  3 28  1  0  0  0  0
  4  3  2  0  0  0  0
  4  5  1  0  0  0  0
  5 29  1  0  0  0  0
  6  5  1  0  0  0  0
  7  6  2  0  0  0  0
  8  7  1  0  0  0  0
  8  4  1  0  0  0  0
  9 10  1  0  0  0  0
  9  8  2  0  0  0  0
 10  2  2  0  0  0  0
 11  7  1  0  0  0  0
 11 15  1  0  0  0  0
 12 13  1  0  0  0  0
 12 11  1  0  0  0  0
 13 34  1  6  0  0  0
 13 14  1  0  0  0  0
 13 17  1  0  0  0  0
 14 15  1  0  0  0  0
 14 35  1  0  0  0  0
 15 16  2  0  0  0  0
 17 19  1  0  0  0  0
 18 17  2  0  0  0  0
 19 37  1  0  0  0  0
 19 20  1  0  0  0  0
 20 21  1  0  0  0  0
 20 39  1  0  0  0  0
 21 22  1  0  0  0  0
 22 27  1  0  0  0  0
 22 23  1  0  0  0  0
 23 24  1  0  0  0  0
 23 42  1  0  0  0  0
 24 44  1  0  0  0  0
 24 25  1  0  0  0  0
 26 25  1  0  0  0  0
 26 47  1  0  0  0  0
 26 46  1  0  0  0  0
 27 48  1  0  0  0  0
 27 26  1  0  0  0  0
 30  9  1  0  0  0  0
 31 10  1  0  0  0  0
 32 12  1  0  0  0  0
 33 12  1  0  0  0  0
 36 14  1  0  0  0  0
 38 20  1  0  0  0  0
 40 21  1  0  0  0  0
 41 21  1  0  0  0  0
 43 23  1  0  0  0  0
 45 24  1  0  0  0  0
 49 27  1  0  0  0  0
M  END
>  <Pose>
1

>  <Score>
-4.14

$$$$
