
 OpenBabel03232221553D

 55 59  0  0  1  0  0  0  0  0999 V2000
    1.4880  -16.8020  -36.4290 B   0  0  0  0  0  0  0  0  0  0  0  0
    2.0290  -18.1200  -37.6800 C   0  0  0  0  0  0  0  0  0  0  0  0
    2.9260  -19.0950  -37.3550 C   0  0  0  0  0  0  0  0  0  0  0  0
    3.2980  -20.0390  -38.2920 C   0  0  0  0  0  0  0  0  0  0  0  0
    2.8040  -20.0710  -39.5960 C   0  0  0  0  0  0  0  0  0  0  0  0
    1.9100  -19.0940  -39.9090 C   0  0  0  0  0  0  0  0  0  0  0  0
    1.5260  -18.1230  -38.9520 C   0  0  0  0  0  0  0  0  0  0  0  0
    3.2910  -21.1200  -40.4980 C   0  0  0  0  0  0  0  0  0  0  0  0
    2.4130  -21.8660  -41.3050 C   0  0  0  0  0  0  0  0  0  0  0  0
    3.1200  -22.7280  -42.0340 N   0  0  0  0  0  0  0  0  0  0  0  0
    2.9970  -23.7000  -42.9740 C   0  0  0  0  0  0  0  0  0  0  0  0
    4.2480  -24.1380  -43.2460 C   0  0  0  0  0  0  0  0  0  0  0  0
    5.0900  -23.4340  -42.4770 N   0  0  0  0  0  0  0  0  0  0  0  0
    4.4040  -22.5520  -41.7160 C   0  0  1  0  0  0  0  0  0  0  0  0
    4.5260  -21.5650  -40.7690 N   0  0  0  0  0  0  0  0  0  0  0  0
    5.7730  -21.1240  -40.2370 C   0  0  0  0  0  0  0  0  0  0  0  0
    6.8690  -20.8990  -41.2470 C   0  0  0  0  0  0  0  0  0  0  0  0
    6.6510  -19.8490  -42.2430 C   0  0  0  0  0  0  0  0  0  0  0  0
    7.6840  -18.8890  -42.5010 N   0  0  0  0  0  4  0  0  0  0  0  0
    8.7610  -19.4350  -43.3060 C   0  0  0  0  0  0  0  0  0  0  0  0
    8.5980  -19.3390  -44.7640 C   0  0  0  0  0  0  0  0  0  0  0  0
    7.5020  -18.4700  -45.2580 C   0  0  0  0  0  0  0  0  0  0  0  0
    7.2930  -17.3020  -44.3610 C   0  0  0  0  0  0  0  0  0  0  0  0
    7.2320  -17.6070  -42.9110 C   0  0  0  0  0  0  0  0  0  0  0  0
    4.4550  -25.1410  -44.1770 C   0  0  0  0  0  0  0  0  0  0  0  0
    3.3880  -25.7150  -44.8490 C   0  0  0  0  0  0  0  0  0  0  0  0
    2.1050  -25.2650  -44.5690 C   0  0  0  0  0  0  0  0  0  0  0  0
    1.9350  -24.2660  -43.6370 C   0  0  0  0  0  0  0  0  0  0  0  0
    3.3290  -19.1020  -36.3520 H   0  0  0  0  0  0  0  0  0  0  0  0
    4.0130  -20.7920  -37.9720 H   0  0  0  0  0  0  0  0  0  0  0  0
    1.4810  -19.0230  -40.8680 H   0  0  0  0  0  0  0  0  0  0  0  0
    0.8170  -17.3700  -39.2450 H   0  0  0  0  0  0  0  0  0  0  0  0
    1.3410  -21.8050  -41.3730 H   0  0  0  0  0  0  0  0  0  0  0  0
    6.1380  -23.5370  -42.4660 H   0  0  0  0  0  0  0  0  0  0  0  0
    6.1190  -21.6990  -39.3670 H   0  0  0  0  0  0  0  0  0  0  0  0
    5.5260  -20.1100  -39.7450 H   0  0  0  0  0  0  0  0  0  0  0  0
    6.9270  -21.8760  -41.8320 H   0  0  0  0  0  0  0  0  0  0  0  0
    7.8770  -20.8820  -40.7620 H   0  0  0  0  0  0  0  0  0  0  0  0
    5.7600  -19.2400  -41.8970 H   0  0  0  0  0  0  0  0  0  0  0  0
    6.2670  -20.3030  -43.2050 H   0  0  0  0  0  0  0  0  0  0  0  0
    8.1520  -18.7570  -41.5760 H   0  0  0  0  0  0  0  0  0  0  0  0
    9.7570  -19.0220  -43.0320 H   0  0  0  0  0  0  0  0  0  0  0  0
    8.8270  -20.5210  -42.9920 H   0  0  0  0  0  0  0  0  0  0  0  0
    8.4240  -20.3680  -45.2010 H   0  0  0  0  0  0  0  0  0  0  0  0
    9.5530  -19.0110  -45.2750 H   0  0  0  0  0  0  0  0  0  0  0  0
    7.7580  -18.1000  -46.2730 H   0  0  0  0  0  0  0  0  0  0  0  0
    6.5540  -19.0680  -45.4160 H   0  0  0  0  0  0  0  0  0  0  0  0
    6.3510  -16.7890  -44.6900 H   0  0  0  0  0  0  0  0  0  0  0  0
    8.1030  -16.5540  -44.5860 H   0  0  0  0  0  0  0  0  0  0  0  0
    6.1610  -17.5140  -42.5670 H   0  0  0  0  0  0  0  0  0  0  0  0
    7.7530  -16.7670  -42.3750 H   0  0  0  0  0  0  0  0  0  0  0  0
    5.4520  -25.4940  -44.3960 H   0  0  0  0  0  0  0  0  0  0  0  0
    3.5210  -26.5020  -45.5820 H   0  0  0  0  0  0  0  0  0  0  0  0
    1.2940  -25.7290  -45.1060 H   0  0  0  0  0  0  0  0  0  0  0  0
    0.9480  -23.9260  -43.4280 H   0  0  0  0  0  0  0  0  0  0  0  0
  2  3  1  0  0  0  0
  2  1  1  0  0  0  0
  3 29  1  0  0  0  0
  4 30  1  0  0  0  0
  4  3  2  0  0  0  0
  5  4  1  0  0  0  0
  6  5  2  0  0  0  0
  6  7  1  0  0  0  0
  7  2  2  0  0  0  0
  8  5  1  0  0  0  0
  9  8  2  0  0  0  0
 10 14  1  0  0  0  0
 10  9  1  0  0  0  0
 11 10  1  0  0  0  0
 12 11  1  0  0  0  0
 12 13  1  0  0  0  0
 13 34  1  0  0  0  0
 14 13  1  6  0  0  0
 14 15  1  0  0  0  0
 15  8  1  0  0  0  0
 15 16  1  0  0  0  0
 16 36  1  0  0  0  0
 16 35  1  0  0  0  0
 17 38  1  0  0  0  0
 17 16  1  0  0  0  0
 18 39  1  0  0  0  0
 18 17  1  0  0  0  0
 19 18  1  0  0  0  0
 19 41  1  0  0  0  0
 20 42  1  0  0  0  0
 20 43  1  0  0  0  0
 20 19  1  0  0  0  0
 21 20  1  0  0  0  0
 22 21  1  0  0  0  0
 22 23  1  0  0  0  0
 23 24  1  0  0  0  0
 24 50  1  0  0  0  0
 24 19  1  0  0  0  0
 24 51  1  0  0  0  0
 25 12  2  0  0  0  0
 26 27  2  0  0  0  0
 26 25  1  0  0  0  0
 27 28  1  0  0  0  0
 28 55  1  0  0  0  0
 28 11  2  0  0  0  0
 31  6  1  0  0  0  0
 32  7  1  0  0  0  0
 33  9  1  0  0  0  0
 37 17  1  0  0  0  0
 40 18  1  0  0  0  0
 44 21  1  0  0  0  0
 45 21  1  0  0  0  0
 46 22  1  0  0  0  0
 47 22  1  0  0  0  0
 48 23  1  0  0  0  0
 49 23  1  0  0  0  0
 52 25  1  0  0  0  0
 53 26  1  0  0  0  0
 54 27  1  0  0  0  0
M  END
>  <Pose>
1

>  <Score>
-4.07

$$$$
