
 OpenBabel03232221553D

 52 55  0  0  1  0  0  0  0  0999 V2000
    2.9020  -18.6730  -37.3480 Cl  0  0  0  0  0  0  0  0  0  0  0  0
    4.0740  -19.5400  -38.3350 C   0  0  0  0  0  0  0  0  0  0  0  0
    3.5730  -20.3240  -39.3850 C   0  0  0  0  0  0  0  0  0  0  0  0
    4.4870  -20.9950  -40.1500 C   0  0  0  0  0  0  0  0  0  0  0  0
    5.8710  -20.9030  -39.8930 C   0  0  0  0  0  0  0  0  0  0  0  0
    6.3500  -20.1340  -38.8630 C   0  0  0  0  0  0  0  0  0  0  0  0
    5.4250  -19.4590  -38.0960 C   0  0  0  0  0  0  0  0  0  0  0  0
    3.7520  -21.7340  -41.1860 C   0  0  2  0  0  0  0  0  0  0  0  0
    4.0670  -23.1150  -41.2640 N   0  0  0  0  0  0  0  0  0  0  0  0
    3.8970  -23.6100  -42.5590 C   0  0  1  0  0  0  0  0  0  0  0  0
    3.8690  -22.3850  -43.4470 C   0  0  2  0  0  0  0  0  0  0  0  0
    4.0910  -21.1930  -42.5740 C   0  0  1  0  0  0  0  0  0  0  0  0
    3.1440  -20.1340  -43.0100 C   0  0  0  0  0  0  0  0  0  0  0  0
    3.1390  -18.9670  -42.5530 O   0  0  0  0  0  0  0  0  0  0  0  0
    2.2870  -20.6940  -44.0060 N   0  0  0  0  0  0  0  0  0  0  0  0
    2.5280  -22.1090  -44.0080 C   0  0  0  0  0  0  0  0  0  0  0  0
    1.7220  -22.9560  -44.4240 O   0  0  0  0  0  0  0  0  0  0  0  0
    1.3620  -20.0130  -44.8590 C   0  0  0  0  0  0  0  0  0  0  0  0
    1.9420  -19.3610  -46.0630 C   0  0  0  0  0  0  0  0  0  0  0  0
    2.6580  -18.0760  -45.8440 C   0  0  0  0  0  0  0  0  0  0  0  0
    4.0840  -18.2980  -45.3530 C   0  0  0  0  0  0  0  0  0  0  0  0
    4.8000  -24.6710  -43.0540 C   0  0  0  0  0  0  0  0  0  0  0  0
    4.4080  -25.4180  -44.2650 C   0  0  0  0  0  0  0  0  0  0  0  0
    5.1370  -26.6560  -44.5650 C   0  0  0  0  0  0  0  0  0  0  0  0
    6.3580  -26.7430  -44.3370 O   0  0  0  0  0  0  0  0  0  0  0  0
    4.5090  -27.8080  -45.1200 N   0  0  0  0  0  0  0  0  0  0  0  0
    2.3350  -21.4610  -40.9270 C   0  0  0  0  0  0  0  0  0  0  0  0
    1.3130  -21.9020  -41.5390 O   0  0  0  0  0  0  0  0  0  0  0  0
    2.2450  -20.5790  -39.8250 N   0  0  0  0  0  0  0  0  0  0  0  0
    6.5670  -21.4520  -40.5220 H   0  0  0  0  0  0  0  0  0  0  0  0
    7.4040  -20.0410  -38.6380 H   0  0  0  0  0  0  0  0  0  0  0  0
    5.7800  -18.8460  -37.2800 H   0  0  0  0  0  0  0  0  0  0  0  0
    3.7440  -23.7000  -40.4760 H   0  0  0  0  0  0  0  0  0  0  0  0
    2.8480  -24.0370  -42.6170 H   0  0  0  0  0  0  0  0  0  0  0  0
    4.5720  -22.4540  -44.2920 H   0  0  0  0  0  0  0  0  0  0  0  0
    5.0990  -20.7800  -42.6110 H   0  0  0  0  0  0  0  0  0  0  0  0
    0.8810  -19.1870  -44.2560 H   0  0  0  0  0  0  0  0  0  0  0  0
    0.5020  -20.6660  -45.1470 H   0  0  0  0  0  0  0  0  0  0  0  0
    2.7060  -20.0770  -46.4900 H   0  0  0  0  0  0  0  0  0  0  0  0
    1.1780  -19.2930  -46.8780 H   0  0  0  0  0  0  0  0  0  0  0  0
    2.2070  -17.3730  -45.1420 H   0  0  0  0  0  0  0  0  0  0  0  0
    2.7060  -17.5610  -46.8460 H   0  0  0  0  0  0  0  0  0  0  0  0
    4.1550  -19.1510  -44.6480 H   0  0  0  0  0  0  0  0  0  0  0  0
    4.4810  -17.3890  -44.8460 H   0  0  0  0  0  0  0  0  0  0  0  0
    4.7640  -18.5380  -46.1940 H   0  0  0  0  0  0  0  0  0  0  0  0
    5.8300  -24.2280  -43.1190 H   0  0  0  0  0  0  0  0  0  0  0  0
    4.9140  -25.4310  -42.2230 H   0  0  0  0  0  0  0  0  0  0  0  0
    3.3140  -25.7230  -44.2210 H   0  0  0  0  0  0  0  0  0  0  0  0
    4.4500  -24.7980  -45.1940 H   0  0  0  0  0  0  0  0  0  0  0  0
    4.6550  -28.1260  -46.0940 H   0  0  0  0  0  0  0  0  0  0  0  0
    3.8730  -28.3610  -44.5210 H   0  0  0  0  0  0  0  0  0  0  0  0
    1.3900  -20.1650  -39.3830 H   0  0  0  0  0  0  0  0  0  0  0  0
  2  7  1  0  0  0  0
  2  1  1  0  0  0  0
  3  2  2  0  0  0  0
  4  5  2  0  0  0  0
  4  3  1  0  0  0  0
  5  6  1  0  0  0  0
  6 31  1  0  0  0  0
  6  7  2  0  0  0  0
  7 32  1  0  0  0  0
  8 27  1  1  0  0  0
  8  4  1  0  0  0  0
  9  8  1  0  0  0  0
  9 33  1  0  0  0  0
 10 34  1  6  0  0  0
 10  9  1  0  0  0  0
 11 35  1  6  0  0  0
 11 12  1  0  0  0  0
 11 10  1  0  0  0  0
 12 36  1  6  0  0  0
 12  8  1  0  0  0  0
 13 12  1  0  0  0  0
 13 14  2  0  0  0  0
 15 13  1  0  0  0  0
 16 15  1  0  0  0  0
 16 11  1  0  0  0  0
 17 16  2  0  0  0  0
 18 37  1  0  0  0  0
 18 15  1  0  0  0  0
 19 20  1  0  0  0  0
 19 18  1  0  0  0  0
 20 21  1  0  0  0  0
 20 41  1  0  0  0  0
 21 44  1  0  0  0  0
 21 43  1  0  0  0  0
 22 10  1  0  0  0  0
 22 47  1  0  0  0  0
 23 48  1  0  0  0  0
 23 22  1  0  0  0  0
 24 25  2  0  0  0  0
 24 23  1  0  0  0  0
 26 24  1  0  0  0  0
 26 51  1  0  0  0  0
 27 29  1  0  0  0  0
 28 27  2  0  0  0  0
 29  3  1  0  0  0  0
 29 52  1  0  0  0  0
 30  5  1  0  0  0  0
 38 18  1  0  0  0  0
 39 19  1  0  0  0  0
 40 19  1  0  0  0  0
 42 20  1  0  0  0  0
 45 21  1  0  0  0  0
 46 22  1  0  0  0  0
 49 23  1  0  0  0  0
 50 26  1  0  0  0  0
M  END
>  <Pose>
1

>  <Score>
-4.54

$$$$
