
 OpenBabel03232221553D

 62 65  0  0  1  0  0  0  0  0999 V2000
   10.8590  -26.7390  -42.4920 S   0  0  0  0  0  0  0  0  0  0  0  0
   11.8830  -25.8680  -41.7960 O   0  0  0  0  0  0  0  0  0  0  0  0
    9.9010  -27.2040  -41.4030 O   0  0  0  0  0  0  0  0  0  0  0  0
    9.9550  -25.9080  -43.6670 N   0  0  0  0  0  0  0  0  0  0  0  0
    8.9730  -25.0190  -43.1440 C   0  0  0  0  0  0  0  0  0  0  0  0
    7.6350  -25.7320  -43.1230 C   0  0  0  0  0  0  0  0  0  0  0  0
    7.2140  -25.8940  -44.4930 N   0  0  0  0  0  0  0  0  0  0  0  0
    8.2590  -26.0590  -45.4330 C   0  0  0  0  0  0  0  0  0  0  0  0
    9.4380  -26.7220  -44.7190 C   0  0  0  0  0  0  0  0  0  0  0  0
    6.0940  -25.1100  -44.8790 C   0  0  0  0  0  0  0  0  0  0  0  0
    6.1230  -23.8220  -44.1350 C   0  0  1  0  0  0  0  0  0  0  0  0
    5.9550  -22.6290  -45.0150 C   0  0  0  0  0  0  0  0  0  0  0  0
    5.9590  -22.7070  -46.2670 O   0  0  0  0  0  0  0  0  0  0  0  0
    5.7950  -21.4350  -44.3180 O   0  0  0  0  0  0  0  0  0  0  0  0
    5.2430  -21.3280  -43.0590 C   0  0  0  0  0  0  0  0  0  0  0  0
    4.8250  -22.4630  -42.4560 C   0  0  0  0  0  0  0  0  0  0  0  0
    4.9770  -23.7170  -43.1620 C   0  0  0  0  0  0  0  0  0  0  0  0
    4.2080  -24.6780  -42.9910 O   0  0  0  0  0  0  0  0  0  0  0  0
    4.2110  -22.4310  -41.1220 C   0  0  0  0  0  0  0  0  0  0  0  0
    4.5420  -21.3180  -40.3310 N   0  0  0  0  0  0  0  0  0  0  0  0
    4.5090  -21.3880  -38.9330 C   0  0  0  0  0  0  0  0  0  0  0  0
    4.3780  -19.9730  -38.3250 C   0  0  0  0  0  0  0  0  0  0  0  0
    3.3070  -19.3520  -39.0630 N   0  0  0  0  0  0  0  0  0  0  0  0
    3.6340  -19.0430  -40.4470 C   0  0  0  0  0  0  0  0  0  0  0  0
    4.6550  -20.0510  -40.9570 C   0  0  0  0  0  0  0  0  0  0  0  0
    2.0470  -19.0800  -38.4950 C   0  0  0  0  0  0  0  0  0  0  0  0
    0.9980  -19.9710  -38.4960 C   0  0  0  0  0  0  0  0  0  0  0  0
   -0.2110  -19.6540  -37.9230 C   0  0  0  0  0  0  0  0  0  0  0  0
   -0.4420  -18.4390  -37.3200 C   0  0  0  0  0  0  0  0  0  0  0  0
    0.5840  -17.5310  -37.3030 C   0  0  0  0  0  0  0  0  0  0  0  0
    1.8050  -17.8470  -37.8810 C   0  0  0  0  0  0  0  0  0  0  0  0
   -1.5030  -20.8240  -37.9570 Cl  0  0  0  0  0  0  0  0  0  0  0  0
   11.6780  -28.1640  -43.1030 C   0  0  0  0  0  0  0  0  0  0  0  0
    8.8510  -24.1970  -43.9100 H   0  0  0  0  0  0  0  0  0  0  0  0
    9.2450  -24.5370  -42.2110 H   0  0  0  0  0  0  0  0  0  0  0  0
    7.7930  -26.7440  -42.6980 H   0  0  0  0  0  0  0  0  0  0  0  0
    6.8970  -25.2170  -42.5060 H   0  0  0  0  0  0  0  0  0  0  0  0
    8.5620  -25.1450  -45.9720 H   0  0  0  0  0  0  0  0  0  0  0  0
    7.9230  -26.7910  -46.2160 H   0  0  0  0  0  0  0  0  0  0  0  0
    9.0510  -27.7000  -44.3300 H   0  0  0  0  0  0  0  0  0  0  0  0
   10.2340  -26.9940  -45.4510 H   0  0  0  0  0  0  0  0  0  0  0  0
    6.1170  -24.8650  -45.9700 H   0  0  0  0  0  0  0  0  0  0  0  0
    5.1800  -25.7150  -44.6800 H   0  0  0  0  0  0  0  0  0  0  0  0
    7.0570  -23.7150  -43.5840 H   0  0  0  0  0  0  0  0  0  0  0  0
    5.1230  -20.4020  -42.5240 H   0  0  0  0  0  0  0  0  0  0  0  0
    4.4440  -23.4210  -40.6330 H   0  0  0  0  0  0  0  0  0  0  0  0
    3.0890  -22.4290  -41.2710 H   0  0  0  0  0  0  0  0  0  0  0  0
    5.4070  -21.8140  -38.4580 H   0  0  0  0  0  0  0  0  0  0  0  0
    3.5480  -21.8700  -38.5890 H   0  0  0  0  0  0  0  0  0  0  0  0
    4.2760  -19.9870  -37.2460 H   0  0  0  0  0  0  0  0  0  0  0  0
    5.3580  -19.4950  -38.5510 H   0  0  0  0  0  0  0  0  0  0  0  0
    2.7680  -19.0870  -41.1100 H   0  0  0  0  0  0  0  0  0  0  0  0
    4.1510  -18.0620  -40.4420 H   0  0  0  0  0  0  0  0  0  0  0  0
    4.4880  -20.1610  -42.0450 H   0  0  0  0  0  0  0  0  0  0  0  0
    5.6880  -19.6640  -40.8390 H   0  0  0  0  0  0  0  0  0  0  0  0
    1.1650  -20.9460  -38.9750 H   0  0  0  0  0  0  0  0  0  0  0  0
   -1.4140  -18.2010  -36.8670 H   0  0  0  0  0  0  0  0  0  0  0  0
    0.4640  -16.5480  -36.8390 H   0  0  0  0  0  0  0  0  0  0  0  0
    2.6290  -17.1380  -37.8730 H   0  0  0  0  0  0  0  0  0  0  0  0
   12.7150  -27.9790  -43.4430 H   0  0  0  0  0  0  0  0  0  0  0  0
   11.7680  -28.9490  -42.2970 H   0  0  0  0  0  0  0  0  0  0  0  0
   11.1520  -28.6650  -43.9410 H   0  0  0  0  0  0  0  0  0  0  0  0
  1  2  2  0  0  0  0
  1  3  2  0  0  0  0
  4  5  1  0  0  0  0
  4  1  1  0  0  0  0
  5  6  1  0  0  0  0
  5 35  1  0  0  0  0
  6 36  1  0  0  0  0
  6 37  1  0  0  0  0
  7  6  1  0  0  0  0
  8  9  1  0  0  0  0
  8  7  1  0  0  0  0
  9 40  1  0  0  0  0
  9  4  1  0  0  0  0
 10 43  1  0  0  0  0
 10  7  1  0  0  0  0
 10 11  1  0  0  0  0
 11 44  1  1  0  0  0
 11 17  1  0  0  0  0
 12 14  1  0  0  0  0
 12 11  1  0  0  0  0
 13 12  2  0  0  0  0
 14 15  1  0  0  0  0
 15 45  1  0  0  0  0
 15 16  2  0  0  0  0
 16 19  1  0  0  0  0
 17 18  2  0  0  0  0
 17 16  1  0  0  0  0
 19 46  1  0  0  0  0
 19 20  1  0  0  0  0
 20 21  1  0  0  0  0
 21 49  1  0  0  0  0
 21 48  1  0  0  0  0
 21 22  1  0  0  0  0
 22 50  1  0  0  0  0
 23 26  1  0  0  0  0
 23 22  1  0  0  0  0
 24 53  1  0  0  0  0
 24 23  1  0  0  0  0
 25 55  1  0  0  0  0
 25 24  1  0  0  0  0
 25 20  1  0  0  0  0
 26 31  1  0  0  0  0
 27 26  2  0  0  0  0
 27 28  1  0  0  0  0
 28 29  2  0  0  0  0
 29 30  1  0  0  0  0
 29 57  1  0  0  0  0
 30 58  1  0  0  0  0
 31 59  1  0  0  0  0
 31 30  2  0  0  0  0
 32 28  1  0  0  0  0
 33  1  1  0  0  0  0
 33 61  1  0  0  0  0
 34  5  1  0  0  0  0
 38  8  1  0  0  0  0
 39  8  1  0  0  0  0
 41  9  1  0  0  0  0
 42 10  1  0  0  0  0
 47 19  1  0  0  0  0
 51 22  1  0  0  0  0
 52 24  1  0  0  0  0
 54 25  1  0  0  0  0
 56 27  1  0  0  0  0
 60 33  1  0  0  0  0
 62 33  1  0  0  0  0
M  END
>  <Pose>
1

>  <Score>
-4.67

$$$$
