/Users/jonathanwahrer/Desktop/Msc/3_Semester/Drug_Design_Praktikum/waehrer_HTS_screening/HTS_experiment/out/docking_results/vina_output/2qfa/0002_docked.pdbqt
 OpenBabel03162219113D

 38 41  0  0  0  0  0  0  0  0999 V2000
   47.5950    4.4140   43.0620 C   0  0  0  0  0  0  0  0  0  0  0  0
   47.4120    3.6330   41.9410 N   0  0  0  0  0  0  0  0  0  0  0  0
   48.4540    2.8760   41.8110 N   0  0  0  0  0  0  0  0  0  0  0  0
   49.3290    3.1370   42.8210 N   0  0  0  0  0  0  0  0  0  0  0  0
   48.8270    4.0830   43.6120 C   0  0  0  0  0  0  0  0  0  0  0  0
   46.6140    5.3740   43.5080 C   0  0  0  0  0  0  0  0  0  0  0  0
   45.3400    5.1810   44.0540 N   0  0  0  0  0  0  0  0  0  0  0  0
   44.9060    4.2900   44.2290 H   0  0  0  0  0  0  0  0  0  0  0  0
   46.9880    6.6180   43.3790 O   0  0  0  0  0  0  0  0  0  0  0  0
   44.6050    6.3680   44.3980 N   0  0  0  0  0  0  0  0  0  0  0  0
   43.3770    6.4900   44.0590 C   0  0  0  0  0  3  0  0  0  0  0  0
   42.5840    7.6820   44.3870 C   0  0  0  0  0  0  0  0  0  0  0  0
   42.4140    8.7260   43.5010 C   0  0  0  0  0  3  0  0  0  0  0  0
   41.6650    9.8460   43.8170 C   0  0  0  0  0  0  0  0  0  0  0  0
   41.0540    9.9560   45.0480 C   0  0  0  0  0  0  0  0  0  0  0  0
   41.4310   11.2920   42.5870 Br  0  0  0  0  0  0  0  0  0  0  0  0
   41.2210    8.9130   45.9390 C   0  0  0  0  0  0  0  0  0  0  0  0
   40.2910   11.0710   45.4010 O   0  0  0  0  0  1  0  0  0  0  0  0
   40.3830    9.0390   47.6610 Br  0  0  0  0  0  0  0  0  0  0  0  0
   41.9690    7.7990   45.6160 C   0  0  0  0  0  0  0  0  0  0  0  0
   42.1440    6.7340   46.5180 O   0  0  0  0  0  0  0  0  0  0  0  0
   43.0550    6.5710   46.9200 H   0  0  0  0  0  0  0  0  0  0  0  0
   49.4020    4.6790   44.8170 C   0  0  0  0  0  2  0  0  0  0  0  0
   49.0330    4.1850   46.0900 N   0  0  0  0  0  4  0  0  0  0  0  0
   49.2340    5.1470   47.1640 C   0  0  0  0  0  2  0  0  0  0  0  0
   50.6020    5.6980   47.1420 C   0  0  0  0  0  2  0  0  0  0  0  0
   51.6310    4.9510   46.7370 O   0  0  0  0  0  0  0  0  0  0  0  0
   51.4100    3.6900   46.2860 C   0  0  0  0  0  2  0  0  0  0  0  0
   50.0510    3.1430   46.4470 C   0  0  0  0  0  2  0  0  0  0  0  0
   48.1200    3.7550   46.1050 H   0  0  0  0  0  0  0  0  0  0  0  0
   50.5670    2.4230   42.8820 C   0  0  0  0  0  0  0  0  0  0  0  0
   51.8270    2.8370   42.9270 N   0  0  0  0  0  0  0  0  0  0  0  0
   52.5790    1.7890   43.0080 O   0  0  0  0  0  0  0  0  0  0  0  0
   51.8830    0.6960   43.0200 N   0  0  0  0  0  0  0  0  0  0  0  0
   50.6000    1.0210   42.9440 C   0  0  0  0  0  0  0  0  0  0  0  0
   49.4560    0.1820   42.9230 N   0  0  0  0  0  0  0  0  0  0  0  0
   49.4710   -0.6890   42.3530 H   0  0  0  0  0  0  0  0  0  0  0  0
   48.5750    0.4050   43.4680 H   0  0  0  0  0  0  0  0  0  0  0  0
  1  6  1  0  0  0  0
  1  5  2  0  0  0  0
  2  1  1  0  0  0  0
  3  2  2  0  0  0  0
  3  4  1  0  0  0  0
  4 31  1  0  0  0  0
  4  5  1  0  0  0  0
  5 23  1  0  0  0  0
  6  7  1  0  0  0  0
  7  8  1  0  0  0  0
  7 10  1  0  0  0  0
  9  6  2  0  0  0  0
 11 12  1  0  0  0  0
 11 10  2  0  0  0  0
 12 20  1  0  0  0  0
 13 14  1  0  0  0  0
 13 12  2  0  0  0  0
 14 15  2  0  0  0  0
 15 18  1  0  0  0  0
 15 17  1  0  0  0  0
 16 14  1  0  0  0  0
 17 19  1  0  0  0  0
 20 17  2  0  0  0  0
 20 21  1  0  0  0  0
 21 22  1  0  0  0  0
 23 24  1  0  0  0  0
 24 30  1  0  0  0  0
 24 29  1  0  0  0  0
 24 25  1  0  0  0  0
 26 25  1  0  0  0  0
 27 26  1  0  0  0  0
 28 29  1  0  0  0  0
 28 27  1  0  0  0  0
 31 32  2  0  0  0  0
 31 35  1  0  0  0  0
 32 33  1  0  0  0  0
 33 34  1  0  0  0  0
 35 34  2  0  0  0  0
 36 35  1  0  0  0  0
 36 38  1  0  0  0  0
 37 36  1  0  0  0  0
M  END
>  <Pose>
1

>  <Score>
-7.451

$$$$
