/Users/jonathanwahrer/Desktop/Msc/3_Semester/Drug_Design_Praktikum/waehrer_HTS_screening/HTS_experiment/out/docking_results/vina_output/2qfa/0003_docked.pdbqt
 OpenBabel03162219123D

 38 41  0  0  0  0  0  0  0  0999 V2000
   42.3970   10.0130   43.7510 C   0  0  0  0  0  0  0  0  0  0  0  0
   41.6490   10.3870   42.6630 N   0  0  0  0  0  0  0  0  0  0  0  0
   40.9380   11.4380   42.9660 N   0  0  0  0  0  0  0  0  0  0  0  0
   41.1510   11.8220   44.2130 N   0  0  0  0  0  0  0  0  0  0  0  0
   42.0460   10.9580   44.7210 C   0  0  0  0  0  0  0  0  0  0  0  0
   43.3060    8.8840   43.7930 C   0  0  0  0  0  0  0  0  0  0  0  0
   44.6070    8.7910   43.3170 N   0  0  0  0  0  0  0  0  0  0  0  0
   45.1620    9.5370   42.8340 H   0  0  0  0  0  0  0  0  0  0  0  0
   42.8210    7.8300   44.3530 O   0  0  0  0  0  0  0  0  0  0  0  0
   45.2820    7.5360   43.4970 N   0  0  0  0  0  0  0  0  0  0  0  0
   46.5660    7.5000   43.4350 C   0  0  0  0  0  3  0  0  0  0  0  0
   47.3470    6.2840   43.6040 C   0  0  0  0  0  0  0  0  0  0  0  0
   48.2540    6.1590   44.6220 C   0  0  0  0  0  3  0  0  0  0  0  0
   49.0090    5.0050   44.8000 C   0  0  0  0  0  0  0  0  0  0  0  0
   48.8490    3.9350   43.9230 C   0  0  0  0  0  0  0  0  0  0  0  0
   50.2540    4.8750   46.2230 Br  0  0  0  0  0  0  0  0  0  0  0  0
   47.9480    4.0520   42.9050 C   0  0  0  0  0  0  0  0  0  0  0  0
   47.6980    2.6200   41.6910 Br  0  0  0  0  0  0  0  0  0  0  0  0
   47.1980    5.2190   42.7440 C   0  0  0  0  0  0  0  0  0  0  0  0
   49.6130    2.7940   44.1170 O   0  0  0  0  0  0  0  0  0  0  0  0
   49.1890    1.8800   44.1240 H   0  0  0  0  0  0  0  0  0  0  0  0
   46.2780    5.3570   41.7170 O   0  0  0  0  0  0  0  0  0  0  0  0
   45.6420    6.1440   41.7050 H   0  0  0  0  0  0  0  0  0  0  0  0
   42.6290   10.9840   46.0660 C   0  0  0  0  0  2  0  0  0  0  0  0
   41.6630   10.7690   47.1470 N   0  0  0  0  0  0  0  0  0  0  0  0
   42.4070   10.5420   48.4010 C   0  0  0  0  0  2  0  0  0  0  0  0
   43.5000    9.5580   48.1690 C   0  0  0  0  0  2  0  0  0  0  0  0
   42.9800    8.4150   47.6120 O   0  0  0  0  0  0  0  0  0  0  0  0
   41.6110    8.3640   47.5960 C   0  0  0  0  0  2  0  0  0  0  0  0
   40.9420    9.5030   46.8720 C   0  0  0  0  0  2  0  0  0  0  0  0
   40.5420   12.9530   44.8090 C   0  0  0  0  0  0  0  0  0  0  0  0
   41.0990   14.1170   45.2060 N   0  0  0  0  0  0  0  0  0  0  0  0
   40.1780   14.9030   45.6980 O   0  0  0  0  0  0  0  0  0  0  0  0
   39.0080   14.3180   45.6540 N   0  0  0  0  0  0  0  0  0  0  0  0
   39.1960   13.1060   45.1060 C   0  0  0  0  0  0  0  0  0  0  0  0
   38.1670   12.1650   44.8860 N   0  0  0  0  0  0  0  0  0  0  0  0
   37.1830   12.4590   45.0260 H   0  0  0  0  0  0  0  0  0  0  0  0
   38.3550   11.1910   44.5880 H   0  0  0  0  0  0  0  0  0  0  0  0
  1  6  1  0  0  0  0
  1  5  2  0  0  0  0
  2  3  2  0  0  0  0
  2  1  1  0  0  0  0
  3  4  1  0  0  0  0
  4  5  1  0  0  0  0
  4 31  1  0  0  0  0
  5 24  1  0  0  0  0
  6  9  2  0  0  0  0
  7 10  1  0  0  0  0
  7  6  1  0  0  0  0
  8  7  1  0  0  0  0
 11 10  2  0  0  0  0
 11 12  1  0  0  0  0
 12 13  1  0  0  0  0
 13 14  2  0  0  0  0
 14 16  1  0  0  0  0
 15 20  1  0  0  0  0
 15 14  1  0  0  0  0
 17 15  2  0  0  0  0
 18 17  1  0  0  0  0
 19 17  1  0  0  0  0
 19 12  2  0  0  0  0
 20 21  1  0  0  0  0
 22 19  1  0  0  0  0
 23 22  1  0  0  0  0
 24 25  1  0  0  0  0
 25 26  1  0  0  0  0
 27 26  1  0  0  0  0
 28 27  1  0  0  0  0
 29 28  1  0  0  0  0
 30 25  1  0  0  0  0
 30 29  1  0  0  0  0
 31 35  1  0  0  0  0
 31 32  2  0  0  0  0
 32 33  1  0  0  0  0
 34 33  1  0  0  0  0
 35 34  2  0  0  0  0
 36 37  1  0  0  0  0
 36 35  1  0  0  0  0
 38 36  1  0  0  0  0
M  END
>  <Pose>
1

>  <Score>
-7.609

$$$$
