/Users/jonathanwahrer/Desktop/Msc/3_Semester/Drug_Design_Praktikum/waehrer_HTS_screening/HTS_experiment/out/docking_results/vina_output/2qfa/0004_docked.pdbqt
 OpenBabel03162219123D

 34 37  0  0  0  0  0  0  0  0999 V2000
   43.5740    9.6830   44.0510 C   0  0  0  0  0  0  0  0  0  0  0  0
   43.8610   10.9710   44.2210 N   0  0  0  0  0  4  0  0  0  0  0  0
   43.3060   11.7240   45.2140 C   0  0  0  0  0  0  0  0  0  0  0  0
   42.4510   11.0960   46.0170 N   0  0  0  0  0  0  0  0  0  0  0  0
   42.1040    9.7930   45.9160 C   0  0  0  0  0  0  0  0  0  0  0  0
   42.7050    9.1130   44.8950 N   0  0  0  0  0  2  0  0  0  0  0  0
   44.1740    8.9320   43.0030 N   0  0  0  0  0  0  0  0  0  0  0  0
   44.0930    9.1620   42.0080 H   0  0  0  0  0  0  0  0  0  0  0  0
   44.9370    7.7930   43.3270 N   0  0  0  0  0  0  0  0  0  0  0  0
   46.1700    7.6730   43.0300 C   0  0  0  0  0  3  0  0  0  0  0  0
   46.9780    6.5080   43.3520 C   0  0  0  0  0  0  0  0  0  0  0  0
   47.7810    6.5180   44.4680 C   0  0  0  0  0  3  0  0  0  0  0  0
   48.5590    5.4220   44.7970 C   0  0  0  0  0  0  0  0  0  0  0  0
   48.5620    4.2840   44.0220 C   0  0  0  0  0  0  0  0  0  0  0  0
   49.6670    5.4610   46.3590 Br  0  0  0  0  0  0  0  0  0  0  0  0
   47.7590    4.2650   42.8990 C   0  0  0  0  0  0  0  0  0  0  0  0
   47.7690    2.6820   41.8280 Br  0  0  0  0  0  0  0  0  0  0  0  0
   46.9820    5.3670   42.5770 C   0  0  0  0  0  0  0  0  0  0  0  0
   49.3390    3.1710   44.3380 O   0  0  0  0  0  0  0  0  0  0  0  0
   50.3240    3.2870   44.5080 H   0  0  0  0  0  0  0  0  0  0  0  0
   46.1880    5.3350   41.4550 O   0  0  0  0  0  0  0  0  0  0  0  0
   46.2400    4.5510   40.7990 H   0  0  0  0  0  0  0  0  0  0  0  0
   43.6250   13.0890   45.3770 N   0  0  0  0  0  0  0  0  0  0  0  0
   44.8930   13.5960   44.9330 C   0  0  0  0  0  2  0  0  0  0  0  0
   45.4560   14.4510   46.0570 C   0  0  0  0  0  2  0  0  0  0  0  0
   44.5070   15.3280   46.5700 O   0  0  0  0  0  0  0  0  0  0  0  0
   43.4180   14.6940   47.1240 C   0  0  0  0  0  2  0  0  0  0  0  0
   42.6770   13.9760   45.9890 C   0  0  0  0  0  2  0  0  0  0  0  0
   41.1930    9.1710   46.7900 N   0  0  0  0  0  0  0  0  0  0  0  0
   39.8270    9.5900   46.8440 C   0  0  0  0  0  2  0  0  0  0  0  0
   39.4910    9.8460   48.3150 C   0  0  0  0  0  2  0  0  0  0  0  0
   40.5890    9.6820   49.1320 O   0  0  0  0  0  0  0  0  0  0  0  0
   41.1750    8.4430   49.0560 C   0  0  0  0  0  2  0  0  0  0  0  0
   41.6260    8.1050   47.6400 C   0  0  0  0  0  2  0  0  0  0  0  0
  1  2  2  0  0  0  0
  1  6  1  0  0  0  0
  2  3  2  0  0  0  0
  3 23  1  0  0  0  0
  3  4  1  0  0  0  0
  5  4  2  0  0  0  0
  5 29  1  0  0  0  0
  6  5  1  0  0  0  0
  7  9  1  0  0  0  0
  7  1  1  0  0  0  0
  8  7  1  0  0  0  0
 10  9  2  0  0  0  0
 10 11  1  0  0  0  0
 11 12  1  0  0  0  0
 12 13  2  0  0  0  0
 13 15  1  0  0  0  0
 14 19  1  0  0  0  0
 14 13  1  0  0  0  0
 16 14  2  0  0  0  0
 17 16  1  0  0  0  0
 18 16  1  0  0  0  0
 18 11  2  0  0  0  0
 19 20  1  0  0  0  0
 21 18  1  0  0  0  0
 22 21  1  0  0  0  0
 23 28  1  0  0  0  0
 24 23  1  0  0  0  0
 24 25  1  0  0  0  0
 25 26  1  0  0  0  0
 26 27  1  0  0  0  0
 28 27  1  0  0  0  0
 29 30  1  0  0  0  0
 29 34  1  0  0  0  0
 30 31  1  0  0  0  0
 31 32  1  0  0  0  0
 33 32  1  0  0  0  0
 34 33  1  0  0  0  0
M  END
>  <Pose>
1

>  <Score>
-7.160

$$$$
