/Users/jonathanwahrer/Desktop/Msc/3_Semester/Drug_Design_Praktikum/waehrer_HTS_screening/HTS_experiment/out/docking_results/vina_output/2qfa/0005_docked.pdbqt
 OpenBabel03162219133D

 38 41  0  0  1  0  0  0  0  0999 V2000
   41.3360   10.3020   46.7260 N   0  0  0  0  0  0  0  0  0  0  0  0
   42.1840    9.4250   46.1270 C   0  0  0  0  0  0  0  0  0  0  0  0
   41.8400    9.2850   44.8080 C   0  0  0  0  0  0  0  0  0  0  0  0
   40.8010   10.0750   44.6340 N   0  0  0  0  0  0  0  0  0  0  0  0
   40.4660   10.7170   45.7860 C   0  0  0  0  0  0  0  0  0  0  0  0
   42.5040    8.4850   43.9180 N   0  0  0  0  0  0  0  0  0  0  0  0
   43.5580    7.8080   44.3920 C   0  0  0  0  0  0  0  0  0  0  0  0
   44.1680    7.0700   43.5680 O   0  0  0  0  0  0  0  0  0  0  0  0
   43.9390    7.9140   45.6790 N   0  0  0  0  0  2  0  0  0  0  0  0
   43.2970    8.6940   46.5640 C   0  0  0  0  0  0  0  0  0  0  0  0
   43.7110    8.7890   47.8720 O   0  0  0  0  0  0  0  0  0  0  0  0
   42.0420    8.4070   42.5390 C   0  0  0  0  0  1  0  0  0  0  0  0
   41.3790   10.6980   48.0880 C   0  0  0  0  0  2  0  0  0  0  0  0
   41.9880   11.9450   48.5220 C   0  0  1  0  0  3  0  0  0  0  0  0
   43.3090   12.4400   48.1130 C   0  0  0  0  0  2  0  0  0  0  0  0
   43.1820   13.3960   47.0630 O   0  0  0  0  0  0  0  0  0  0  0  0
   44.1790   14.1250   46.5150 C   0  0  0  0  0  0  0  0  0  0  0  0
   44.7500   13.7020   45.3050 C   0  0  0  0  0  0  0  0  0  0  0  0
   44.0620   12.1020   44.5110 Br  0  0  0  0  0  0  0  0  0  0  0  0
   45.7650   14.4020   44.7050 C   0  0  0  0  0  3  0  0  0  0  0  0
   46.2570   15.5540   45.2810 C   0  0  0  0  0  0  0  0  0  0  0  0
   45.7140   15.9890   46.4670 C   0  0  0  0  0  3  0  0  0  0  0  0
   47.6680   16.4600   44.3760 Br  0  0  0  0  0  0  0  0  0  0  0  0
   44.6780   15.2610   47.0660 C   0  0  0  0  0  0  0  0  0  0  0  0
   44.0110   15.9220   48.6980 Br  0  0  0  0  0  0  0  0  0  0  0  0
   41.1710   13.0800   48.6670 O   0  0  0  0  0  0  0  0  0  0  0  0
   40.2340   12.8830   48.4860 H   0  0  0  0  0  0  0  0  0  0  0  0
   39.4390   11.7250   45.8300 N   0  0  0  0  0  0  0  0  0  0  0  0
   38.1470   11.6160   46.3890 C   0  0  0  0  0  2  0  0  0  0  0  0
   37.4610   13.0040   46.2650 C   0  0  0  0  0  2  0  0  0  0  0  0
   37.3720   13.2410   44.8370 N   0  0  0  0  0  4  0  0  0  0  0  0
   38.7280   13.7080   44.4910 C   0  0  0  0  0  2  0  0  0  0  0  0
   37.2230   12.3760   44.2750 H   0  0  0  0  0  0  0  0  0  0  0  0
   39.7900   13.0340   45.2640 C   0  0  0  0  0  2  0  0  0  0  0  0
   36.4070   14.2770   44.5250 C   0  0  0  0  0  2  0  0  0  0  0  0
   35.1010   13.6220   44.1310 C   0  0  0  0  0  2  0  0  0  0  0  0
   35.2960   12.8840   42.9570 O   0  0  0  0  0  0  0  0  0  0  0  0
   35.6930   11.9930   43.1620 H   0  0  0  0  0  0  0  0  0  0  0  0
  1 13  1  0  0  0  0
  2 10  1  0  0  0  0
  2  1  1  0  0  0  0
  3  2  2  0  0  0  0
  4  3  1  0  0  0  0
  4  5  2  0  0  0  0
  5 28  1  0  0  0  0
  5  1  1  0  0  0  0
  6  7  1  0  0  0  0
  6  3  1  0  0  0  0
  7  9  1  0  0  0  0
  8  7  2  0  0  0  0
  9 10  1  0  0  0  0
 10 11  2  0  0  0  0
 12  6  1  0  0  0  0
 14 13  1  6  0  0  0
 14 26  1  0  0  0  0
 15 14  1  0  0  0  0
 16 15  1  0  0  0  0
 17 16  1  0  0  0  0
 17 24  1  0  0  0  0
 18 17  2  0  0  0  0
 19 18  1  0  0  0  0
 20 21  2  0  0  0  0
 20 18  1  0  0  0  0
 21 22  1  0  0  0  0
 22 24  2  0  0  0  0
 23 21  1  0  0  0  0
 24 25  1  0  0  0  0
 27 26  1  0  0  0  0
 28 29  1  0  0  0  0
 30 29  1  0  0  0  0
 31 30  1  0  0  0  0
 32 31  1  0  0  0  0
 32 34  1  0  0  0  0
 33 31  1  0  0  0  0
 34 28  1  0  0  0  0
 35 31  1  0  0  0  0
 36 35  1  0  0  0  0
 37 38  1  0  0  0  0
 37 36  1  0  0  0  0
M  END
>  <Pose>
1

>  <Score>
-6.237

$$$$
