/Users/jonathanwahrer/Desktop/Msc/3_Semester/Drug_Design_Praktikum/waehrer_HTS_screening/HTS_experiment/out/docking_results/vina_output/2qfa/0006_docked.pdbqt
 OpenBabel03162219133D

 34 37  0  0  0  0  0  0  0  0999 V2000
   42.5080   11.6890   44.9840 N   0  0  0  0  0  0  0  0  0  0  0  0
   43.4420   12.6590   45.1700 C   0  0  0  0  0  0  0  0  0  0  0  0
   43.0660   13.4840   46.1930 C   0  0  0  0  0  0  0  0  0  0  0  0
   41.8900   12.9990   46.6250 N   0  0  0  0  0  0  0  0  0  0  0  0
   41.5450   11.8980   45.8850 C   0  0  0  0  0  0  0  0  0  0  0  0
   43.8890   14.5360   46.5350 C   0  0  0  0  0  3  0  0  0  0  0  0
   45.0820   14.7790   45.8730 C   0  0  0  0  0  3  0  0  0  0  0  0
   45.4360   13.9280   44.8410 C   0  0  0  0  0  3  0  0  0  0  0  0
   44.6140   12.8740   44.4980 C   0  0  0  0  0  3  0  0  0  0  0  0
   42.5270   10.6340   44.0200 C   0  0  0  0  0  2  0  0  0  0  0  0
   43.3780    9.5090   44.3190 C   0  0  0  0  0  0  0  0  0  0  0  0
   44.4110    9.0630   43.4590 N   0  0  0  0  0  0  0  0  0  0  0  0
   44.5510    9.5850   42.5680 H   0  0  0  0  0  0  0  0  0  0  0  0
   43.2200    8.8730   45.3880 O   0  0  0  0  0  0  0  0  0  0  0  0
   45.2430    7.9870   43.7200 N   0  0  0  0  0  0  0  0  0  0  0  0
   46.1830    7.6070   42.9420 C   0  0  0  0  0  3  0  0  0  0  0  0
   46.9930    6.4650   43.3170 C   0  0  0  0  0  0  0  0  0  0  0  0
   46.9800    5.3400   42.5510 C   0  0  0  0  0  0  0  0  0  0  0  0
   47.7550    4.2590   42.9170 C   0  0  0  0  0  0  0  0  0  0  0  0
   46.2000    5.2700   41.4110 O   0  0  0  0  0  1  0  0  0  0  0  0
   47.7230    2.7010   41.8350 Br  0  0  0  0  0  0  0  0  0  0  0  0
   48.5390    4.3170   44.0560 C   0  0  0  0  0  3  0  0  0  0  0  0
   48.5380    5.4610   44.8150 C   0  0  0  0  0  0  0  0  0  0  0  0
   47.7770    6.5520   44.4730 C   0  0  0  0  0  3  0  0  0  0  0  0
   49.6280    5.5270   46.3850 Br  0  0  0  0  0  0  0  0  0  0  0  0
   40.3250   11.1290   46.0960 C   0  0  0  0  0  0  0  0  0  0  0  0
   40.2290   10.0010   46.8110 N   0  0  0  0  0  0  0  0  0  0  0  0
   38.9760    9.5850   46.7840 O   0  0  0  0  0  0  0  0  0  0  0  0
   38.2500   10.3950   46.0800 N   0  0  0  0  0  0  0  0  0  0  0  0
   39.0550   11.3810   45.6280 C   0  0  0  0  0  0  0  0  0  0  0  0
   38.6700   12.4770   44.8190 N   0  0  0  0  0  4  0  0  0  0  0  0
   38.4410   12.2010   43.8550 H   0  0  0  0  0  0  0  0  0  0  0  0
   39.5170   13.1050   44.7560 H   0  0  0  0  0  0  0  0  0  0  0  0
   37.8990   13.0500   45.2510 H   0  0  0  0  0  0  0  0  0  0  0  0
  1  2  1  0  0  0  0
  1  5  1  0  0  0  0
  2  3  1  0  0  0  0
  3  6  2  0  0  0  0
  3  4  1  0  0  0  0
  5 26  1  0  0  0  0
  5  4  2  0  0  0  0
  7  6  1  0  0  0  0
  8  7  2  0  0  0  0
  9  8  1  0  0  0  0
  9  2  2  0  0  0  0
 10 11  1  0  0  0  0
 10  1  1  0  0  0  0
 11 14  2  0  0  0  0
 12 15  1  0  0  0  0
 12 11  1  0  0  0  0
 13 12  1  0  0  0  0
 16 17  1  0  0  0  0
 16 15  2  0  0  0  0
 17 24  1  0  0  0  0
 18 19  1  0  0  0  0
 18 17  2  0  0  0  0
 19 22  2  0  0  0  0
 20 18  1  0  0  0  0
 21 19  1  0  0  0  0
 22 23  1  0  0  0  0
 23 25  1  0  0  0  0
 24 23  2  0  0  0  0
 26 27  2  0  0  0  0
 28 27  1  0  0  0  0
 29 28  1  0  0  0  0
 30 29  2  0  0  0  0
 30 26  1  0  0  0  0
 31 34  1  0  0  0  0
 31 30  1  0  0  0  0
 32 31  1  0  0  0  0
 33 31  1  0  0  0  0
M  END
>  <Pose>
1

>  <Score>
-7.734

$$$$
