/Users/jonathanwahrer/Desktop/Msc/3_Semester/Drug_Design_Praktikum/waehrer_HTS_screening/HTS_experiment/out/docking_results/vina_output/2qfa/0011_docked.pdbqt
 OpenBabel03162219143D

 36 39  0  0  0  0  0  0  0  0999 V2000
   42.8010    9.2030   44.9990 N   0  0  0  0  0  0  0  0  0  0  0  0
   42.0800   10.2510   44.4480 C   0  0  0  0  0  0  0  0  0  0  0  0
   42.2240   10.1710   43.1130 C   0  0  0  0  0  0  0  0  0  0  0  0
   42.9930    9.1220   42.8680 N   0  0  0  0  0  0  0  0  0  0  0  0
   43.3660    8.5020   44.0520 C   0  0  0  0  0  0  0  0  0  0  0  0
   41.6280   11.0680   42.2410 C   0  0  0  0  0  3  0  0  0  0  0  0
   40.8700   12.0630   42.8090 C   0  0  0  0  0  3  0  0  0  0  0  0
   40.6920   12.1940   44.1730 C   0  0  0  0  0  3  0  0  0  0  0  0
   41.3130   11.2630   45.0040 C   0  0  0  0  0  3  0  0  0  0  0  0
   42.8130    9.0200   46.3910 C   0  0  0  0  0  2  0  0  0  0  0  0
   41.6860    8.0750   46.8640 C   0  0  0  0  0  0  0  0  0  0  0  0
   40.5500    8.7670   47.1270 N   0  0  0  0  0  0  0  0  0  0  0  0
   39.9330    7.5440   47.4460 H   0  0  0  0  0  0  0  0  0  0  0  0
   42.0400    6.8990   46.9080 O   0  0  0  0  0  0  0  0  0  0  0  0
   39.5150    9.3930   47.3670 N   0  0  0  0  0  2  0  0  0  0  0  0
   38.5380   10.0390   47.5220 C   0  0  0  0  0  2  0  0  0  0  0  0
   37.9970   11.1980   46.8990 C   0  0  0  0  0  0  0  0  0  0  0  0
   38.6410   12.4360   47.0350 C   0  0  0  0  0  3  0  0  0  0  0  0
   38.2220   13.6060   46.4700 C   0  0  0  0  0  0  0  0  0  0  0  0
   37.0450   13.5670   45.6840 C   0  0  0  0  0  0  0  0  0  0  0  0
   36.3800   12.3720   45.5250 C   0  0  0  0  0  0  0  0  0  0  0  0
   36.6340   14.7390   45.1170 O   0  0  0  0  0  1  0  0  0  0  0  0
   34.8160   12.2810   44.4540 Br  0  0  0  0  0  0  0  0  0  0  0  0
   36.8580   11.2230   46.1250 C   0  0  0  0  0  3  0  0  0  0  0  0
   38.8700   14.8190   46.6090 O   0  0  0  0  0  0  0  0  0  0  0  0
   40.1290   14.9430   47.1760 C   0  0  0  0  0  2  0  0  0  0  0  0
   41.2330   15.3730   46.2530 C   0  0  0  0  0  1  0  0  0  0  0  0
   44.2010    7.3220   43.9230 C   0  0  0  0  0  0  0  0  0  0  0  0
   43.7070    6.0340   44.1250 N   0  0  0  0  0  0  0  0  0  0  0  0
   44.6190    5.1710   43.9300 O   0  0  0  0  0  0  0  0  0  0  0  0
   45.7110    5.7410   43.6110 N   0  0  0  0  0  0  0  0  0  0  0  0
   45.4890    7.0990   43.5940 C   0  0  0  0  0  0  0  0  0  0  0  0
   46.5040    8.0170   43.2510 N   0  0  0  0  0  4  0  0  0  0  0  0
   46.0360    8.9790   43.0490 H   0  0  0  0  0  0  0  0  0  0  0  0
   46.9190    7.7620   42.3460 H   0  0  0  0  0  0  0  0  0  0  0  0
   47.1060    8.2290   44.0420 H   0  0  0  0  0  0  0  0  0  0  0  0
  1 10  1  0  0  0  0
  2  1  1  0  0  0  0
  2  9  1  0  0  0  0
  3  2  2  0  0  0  0
  4  3  1  0  0  0  0
  4  5  2  0  0  0  0
  5  1  1  0  0  0  0
  6  7  2  0  0  0  0
  6  3  1  0  0  0  0
  7  8  1  0  0  0  0
  8  9  2  0  0  0  0
 10 11  1  0  0  0  0
 11 14  2  0  0  0  0
 11 12  1  0  0  0  0
 12 15  1  0  0  0  0
 12 13  1  0  0  0  0
 15 16  1  0  0  0  0
 17 18  1  0  0  0  0
 17 16  1  0  0  0  0
 19 25  1  0  0  0  0
 19 18  2  0  0  0  0
 20 19  1  0  0  0  0
 21 20  2  0  0  0  0
 21 24  1  0  0  0  0
 22 20  1  0  0  0  0
 23 21  1  0  0  0  0
 24 17  2  0  0  0  0
 25 26  1  0  0  0  0
 27 26  1  0  0  0  0
 28  5  1  0  0  0  0
 28 29  2  0  0  0  0
 30 29  1  0  0  0  0
 31 30  1  0  0  0  0
 32 31  2  0  0  0  0
 32 28  1  0  0  0  0
 33 32  1  0  0  0  0
 33 36  1  0  0  0  0
 34 33  1  0  0  0  0
 35 33  1  0  0  0  0
M  END
>  <Pose>
1

>  <Score>
-7.059

$$$$
