/Users/jonathanwahrer/Desktop/Msc/3_Semester/Drug_Design_Praktikum/waehrer_HTS_screening/HTS_experiment/out/docking_results/vina_output/2qfa/0017_docked.pdbqt
 OpenBabel03162219153D

 38 41  0  0  0  0  0  0  0  0999 V2000
   42.2160    9.7050   43.6660 C   0  0  0  0  0  0  0  0  0  0  0  0
   41.6120   10.1390   42.5520 N   0  0  0  0  0  0  0  0  0  0  0  0
   40.9090   11.2110   42.8230 N   0  0  0  0  0  0  0  0  0  0  0  0
   41.0160   11.5330   44.1240 N   0  0  0  0  0  0  0  0  0  0  0  0
   41.8210   10.6140   44.6660 C   0  0  0  0  0  0  0  0  0  0  0  0
   43.0920    8.5540   43.8430 C   0  0  0  0  0  0  0  0  0  0  0  0
   44.4980    8.6860   43.8840 N   0  0  0  0  0  0  0  0  0  0  0  0
   44.9120    9.6570   43.7830 H   0  0  0  0  0  0  0  0  0  0  0  0
   42.5850    7.4200   43.9600 O   0  0  0  0  0  0  0  0  0  0  0  0
   45.3780    7.6450   44.0480 N   0  0  0  0  0  0  0  0  0  0  0  0
   46.2120    7.2260   43.1690 C   0  0  0  0  0  3  0  0  0  0  0  0
   47.1090    6.1120   43.4330 C   0  0  0  0  0  0  0  0  0  0  0  0
   48.0410    6.1110   44.4600 C   0  0  0  0  0  3  0  0  0  0  0  0
   48.8770    5.0440   44.6860 C   0  0  0  0  0  0  0  0  0  0  0  0
   48.7610    3.9570   43.8510 C   0  0  0  0  0  0  0  0  0  0  0  0
   47.8380    3.9230   42.8120 C   0  0  0  0  0  0  0  0  0  0  0  0
   47.6840    2.4120   41.6610 Br  0  0  0  0  0  0  0  0  0  0  0  0
   47.0270    5.0030   42.6210 C   0  0  0  0  0  3  0  0  0  0  0  0
   49.8110    5.0080   45.6930 O   0  0  0  0  0  0  0  0  0  0  0  0
   49.8780    5.8410   46.8040 C   0  0  0  0  0  2  0  0  0  0  0  0
   49.5790    5.1790   48.1100 C   0  0  0  0  0  1  0  0  0  0  0  0
   49.5800    2.8470   44.0330 O   0  0  0  0  0  0  0  0  0  0  0  0
   50.2110    2.5610   43.2940 H   0  0  0  0  0  0  0  0  0  0  0  0
   42.2520   10.4690   46.0580 C   0  0  0  0  0  2  0  0  0  0  0  0
   41.2170   10.4110   47.0590 N   0  0  0  0  0  0  0  0  0  0  0  0
   40.6830    9.0470   46.9580 C   0  0  0  0  0  2  0  0  0  0  0  0
   41.6590    7.9730   47.2310 C   0  0  0  0  0  2  0  0  0  0  0  0
   42.5980    8.3670   48.1710 O   0  0  0  0  0  0  0  0  0  0  0  0
   41.9890    9.2260   49.0590 C   0  0  0  0  0  2  0  0  0  0  0  0
   41.8140   10.5740   48.3870 C   0  0  0  0  0  2  0  0  0  0  0  0
   40.3380   12.6480   44.7130 C   0  0  0  0  0  0  0  0  0  0  0  0
   40.7990   13.8850   44.9560 N   0  0  0  0  0  0  0  0  0  0  0  0
   39.8450   14.6000   45.5020 O   0  0  0  0  0  0  0  0  0  0  0  0
   38.7550   13.8830   45.6350 N   0  0  0  0  0  0  0  0  0  0  0  0
   39.0360   12.6600   45.1500 C   0  0  0  0  0  0  0  0  0  0  0  0
   38.0960   11.5980   45.1190 N   0  0  0  0  0  0  0  0  0  0  0  0
   37.9970   10.9320   44.3250 H   0  0  0  0  0  0  0  0  0  0  0  0
   37.4390   11.4360   45.9250 H   0  0  0  0  0  0  0  0  0  0  0  0
  1  6  1  0  0  0  0
  1  5  2  0  0  0  0
  2  3  2  0  0  0  0
  2  1  1  0  0  0  0
  3  4  1  0  0  0  0
  4  5  1  0  0  0  0
  4 31  1  0  0  0  0
  5 24  1  0  0  0  0
  6  7  1  0  0  0  0
  6  9  2  0  0  0  0
  7 10  1  0  0  0  0
  8  7  1  0  0  0  0
 11 12  1  0  0  0  0
 11 10  2  0  0  0  0
 12 13  1  0  0  0  0
 13 14  2  0  0  0  0
 14 19  1  0  0  0  0
 15 22  1  0  0  0  0
 15 14  1  0  0  0  0
 16 15  2  0  0  0  0
 17 16  1  0  0  0  0
 18 16  1  0  0  0  0
 18 12  2  0  0  0  0
 19 20  1  0  0  0  0
 20 21  1  0  0  0  0
 23 22  1  0  0  0  0
 24 25  1  0  0  0  0
 25 30  1  0  0  0  0
 26 25  1  0  0  0  0
 26 27  1  0  0  0  0
 27 28  1  0  0  0  0
 28 29  1  0  0  0  0
 30 29  1  0  0  0  0
 31 32  2  0  0  0  0
 31 35  1  0  0  0  0
 32 33  1  0  0  0  0
 33 34  1  0  0  0  0
 35 34  2  0  0  0  0
 36 35  1  0  0  0  0
 36 38  1  0  0  0  0
 37 36  1  0  0  0  0
M  END
>  <Pose>
1

>  <Score>
-6.873

$$$$
