/Users/jonathanwahrer/Desktop/Msc/3_Semester/Drug_Design_Praktikum/waehrer_HTS_screening/HTS_experiment/out/docking_results/vina_output/2qfa/0018_docked.pdbqt
 OpenBabel03162219163D

 37 40  0  0  0  0  0  0  0  0999 V2000
   42.6020    8.1740   45.8530 C   0  0  0  0  0  0  0  0  0  0  0  0
   42.4880    6.8950   45.9310 N   0  0  0  0  0  0  0  0  0  0  0  0
   43.1830    6.3190   44.9660 N   0  0  0  0  0  0  0  0  0  0  0  0
   43.7590    7.2630   44.2350 N   0  0  0  0  0  0  0  0  0  0  0  0
   43.4630    8.4770   44.6750 C   0  0  0  0  0  0  0  0  0  0  0  0
   42.4710    9.2830   46.7710 C   0  0  0  0  0  0  0  0  0  0  0  0
   43.6330   10.0550   47.1540 N   0  0  0  0  0  0  0  0  0  0  0  0
   44.5610   10.0620   47.2310 H   0  0  0  0  0  0  0  0  0  0  0  0
   41.3530    9.6140   47.1620 O   0  0  0  0  0  0  0  0  0  0  0  0
   42.9840   11.4480   47.5820 N   0  0  0  0  0  2  0  0  0  0  0  0
   44.0080   12.2020   47.1420 C   0  0  0  0  0  2  0  0  0  0  0  0
   44.4930   13.4720   47.0010 C   0  0  0  0  0  0  0  0  0  0  0  0
   44.2990   14.5750   47.8130 C   0  0  0  0  0  3  0  0  0  0  0  0
   44.8390   15.8180   47.5780 C   0  0  0  0  0  0  0  0  0  0  0  0
   45.6230   15.9760   46.4690 C   0  0  0  0  0  0  0  0  0  0  0  0
   45.8470   14.9080   45.6260 C   0  0  0  0  0  0  0  0  0  0  0  0
   46.9360   15.1790   44.0550 Br  0  0  0  0  0  0  0  0  0  0  0  0
   45.3270   13.7060   45.8470 C   0  0  0  0  0  3  0  0  0  0  0  0
   44.5750   16.8820   48.4490 O   0  0  0  0  0  0  0  0  0  0  0  0
   43.3740   17.6560   48.2530 C   0  0  0  0  0  1  0  0  0  0  0  0
   46.2030   17.2150   46.1820 O   0  0  0  0  0  0  0  0  0  0  0  0
   47.1650   17.2230   45.7820 H   0  0  0  0  0  0  0  0  0  0  0  0
   43.9060    9.8070   44.3700 C   0  0  0  0  0  2  0  0  0  0  0  0
   43.3540   10.4600   43.1810 N   0  0  0  0  0  0  0  0  0  0  0  0
   42.8790   11.7770   43.4550 C   0  0  0  0  0  2  0  0  0  0  0  0
   41.6620   11.8390   44.3330 C   0  0  0  0  0  2  0  0  0  0  0  0
   40.5500   11.4390   43.6130 O   0  0  0  0  0  0  0  0  0  0  0  0
   40.9220   10.6080   42.5500 C   0  0  0  0  0  2  0  0  0  0  0  0
   42.0370    9.7140   42.9790 C   0  0  0  0  0  2  0  0  0  0  0  0
   44.8950    6.9400   43.3950 C   0  0  0  0  0  0  0  0  0  0  0  0
   45.0300    6.6230   42.1750 N   0  0  0  0  0  0  0  0  0  0  0  0
   46.2970    6.3600   41.8550 O   0  0  0  0  0  0  0  0  0  0  0  0
   46.9820    6.5250   42.9280 N   0  0  0  0  0  0  0  0  0  0  0  0
   46.2090    6.8870   43.9520 C   0  0  0  0  0  0  0  0  0  0  0  0
   46.5860    7.1390   45.2820 N   0  0  0  0  0  0  0  0  0  0  0  0
   46.3040    6.5320   46.0720 H   0  0  0  0  0  0  0  0  0  0  0  0
   47.2050    7.9760   45.5500 H   0  0  0  0  0  0  0  0  0  0  0  0
  1  2  1  0  0  0  0
  1  6  1  0  0  0  0
  3  2  2  0  0  0  0
  4  5  1  0  0  0  0
  4  3  1  0  0  0  0
  5  1  2  0  0  0  0
  6  7  1  0  0  0  0
  6  9  2  0  0  0  0
  7  8  1  0  0  0  0
  7 10  1  0  0  0  0
 11 10  1  0  0  0  0
 12 11  1  0  0  0  0
 12 13  1  0  0  0  0
 14 13  2  0  0  0  0
 14 19  1  0  0  0  0
 15 14  1  0  0  0  0
 16 18  1  0  0  0  0
 16 15  2  0  0  0  0
 17 16  1  0  0  0  0
 18 12  2  0  0  0  0
 20 19  1  0  0  0  0
 21 15  1  0  0  0  0
 22 21  1  0  0  0  0
 23  5  1  0  0  0  0
 24 25  1  0  0  0  0
 24 23  1  0  0  0  0
 25 26  1  0  0  0  0
 27 26  1  0  0  0  0
 28 29  1  0  0  0  0
 28 27  1  0  0  0  0
 29 24  1  0  0  0  0
 30 34  1  0  0  0  0
 30  4  1  0  0  0  0
 31 30  2  0  0  0  0
 32 31  1  0  0  0  0
 32 33  1  0  0  0  0
 33 34  2  0  0  0  0
 34 35  1  0  0  0  0
 35 37  1  0  0  0  0
 35 36  1  0  0  0  0
M  END
>  <Pose>
1

>  <Score>
-7.373

$$$$
