/Users/jonathanwahrer/Desktop/Msc/3_Semester/Drug_Design_Praktikum/waehrer_HTS_screening/HTS_experiment/out/docking_results/vina_output/2qfa/0020_docked.pdbqt
 OpenBabel03162219163D

 34 37  0  0  0  0  0  0  0  0999 V2000
   42.3720    8.4830   43.5750 C   0  0  0  0  0  0  0  0  0  0  0  0
   42.0820    8.8290   44.8150 N   0  0  0  0  0  4  0  0  0  0  0  0
   42.8490    8.4030   45.8600 C   0  0  0  0  0  0  0  0  0  0  0  0
   43.9040    7.6190   45.5360 N   0  0  0  0  0  0  0  0  0  0  0  0
   44.2470    7.2330   44.2920 C   0  0  0  0  0  0  0  0  0  0  0  0
   43.4430    7.6870   43.3050 N   0  0  0  0  0  2  0  0  0  0  0  0
   41.7300    9.0650   42.3740 N   0  0  0  0  0  0  0  0  0  0  0  0
   41.6580    8.4510   41.5860 H   0  0  0  0  0  0  0  0  0  0  0  0
   41.3660   10.2990   42.6140 N   0  0  0  0  0  2  0  0  0  0  0  0
   41.0350   11.3870   42.8450 C   0  0  0  0  0  2  0  0  0  0  0  0
   40.9880   12.1170   44.1280 C   0  0  0  0  0  0  0  0  0  0  0  0
   42.0830   12.5180   44.8380 C   0  0  0  0  0  3  0  0  0  0  0  0
   41.9600   13.3850   45.9150 C   0  0  0  0  0  0  0  0  0  0  0  0
   40.7040   13.8570   46.2920 C   0  0  0  0  0  0  0  0  0  0  0  0
   39.5990   13.4550   45.5950 C   0  0  0  0  0  0  0  0  0  0  0  0
   37.8710   14.1210   46.0980 Br  0  0  0  0  0  0  0  0  0  0  0  0
   39.7620   12.5970   44.5290 C   0  0  0  0  0  3  0  0  0  0  0  0
   43.0020   13.8290   46.6670 O   0  0  0  0  0  0  0  0  0  0  0  0
   43.9720   14.7680   46.3670 C   0  0  0  0  0  2  0  0  0  0  0  0
   45.1460   14.1810   45.5970 C   0  0  0  0  0  1  0  0  0  0  0  0
   40.5320   14.7230   47.3510 O   0  0  0  0  0  0  0  0  0  0  0  0
   40.8090   14.5260   48.2830 H   0  0  0  0  0  0  0  0  0  0  0  0
   42.6240    8.8210   47.1920 N   0  0  0  0  0  0  0  0  0  0  0  0
   43.5230    9.8130   47.8030 C   0  0  0  0  0  2  0  0  0  0  0  0
   43.8610    9.2350   49.2010 C   0  0  0  0  0  2  0  0  0  0  0  0
   42.6820    9.2960   49.8880 O   0  0  0  0  0  0  0  0  0  0  0  0
   41.7350    8.4140   49.4470 C   0  0  0  0  0  2  0  0  0  0  0  0
   41.5740    8.2830   47.9680 C   0  0  0  0  0  2  0  0  0  0  0  0
   45.4240    6.5560   44.0240 N   0  0  0  0  0  0  0  0  0  0  0  0
   46.7590    6.9010   44.3280 C   0  0  0  0  0  2  0  0  0  0  0  0
   47.4880    7.0440   42.9890 C   0  0  0  0  0  2  0  0  0  0  0  0
   47.3200    5.8670   42.2940 O   0  0  0  0  0  0  0  0  0  0  0  0
   46.0200    5.5370   41.9870 C   0  0  0  0  0  2  0  0  0  0  0  0
   45.2510    5.2560   43.3100 C   0  0  0  0  0  2  0  0  0  0  0  0
  1  2  2  0  0  0  0
  2  3  2  0  0  0  0
  3 23  1  0  0  0  0
  4  3  1  0  0  0  0
  5  4  2  0  0  0  0
  6  1  1  0  0  0  0
  6  5  1  0  0  0  0
  7  9  1  0  0  0  0
  7  1  1  0  0  0  0
  8  7  1  0  0  0  0
  9 10  1  0  0  0  0
 10 11  1  0  0  0  0
 11 17  2  0  0  0  0
 11 12  1  0  0  0  0
 12 13  2  0  0  0  0
 13 14  1  0  0  0  0
 13 18  1  0  0  0  0
 14 21  1  0  0  0  0
 15 16  1  0  0  0  0
 15 14  2  0  0  0  0
 17 15  1  0  0  0  0
 19 18  1  0  0  0  0
 20 19  1  0  0  0  0
 21 22  1  0  0  0  0
 23 24  1  0  0  0  0
 23 28  1  0  0  0  0
 24 25  1  0  0  0  0
 25 26  1  0  0  0  0
 27 26  1  0  0  0  0
 28 27  1  0  0  0  0
 29  5  1  0  0  0  0
 29 30  1  0  0  0  0
 31 30  1  0  0  0  0
 32 31  1  0  0  0  0
 33 32  1  0  0  0  0
 33 34  1  0  0  0  0
 34 29  1  0  0  0  0
M  END
>  <Pose>
1

>  <Score>
-6.514

$$$$
