/Users/jonathanwahrer/Desktop/Msc/3_Semester/Drug_Design_Praktikum/waehrer_HTS_screening/HTS_experiment/out/docking_results/vina_output/2qfa/0035_docked.pdbqt
 OpenBabel03162219183D

 33 36  0  0  0  0  0  0  0  0999 V2000
   42.3440   10.9050   46.1010 C   0  0  0  0  0  0  0  0  0  0  0  0
   42.7470   10.0590   45.1480 N   0  0  0  0  0  4  0  0  0  0  0  0
   43.1720    8.7980   45.4310 C   0  0  0  0  0  0  0  0  0  0  0  0
   43.1870    8.3930   46.7100 N   0  0  0  0  0  0  0  0  0  0  0  0
   42.7880    9.2180   47.6900 C   0  0  0  0  0  0  0  0  0  0  0  0
   42.3680   10.4780   47.3670 N   0  0  0  0  0  2  0  0  0  0  0  0
   41.9070   12.1960   45.7400 N   0  0  0  0  0  0  0  0  0  0  0  0
   40.8820   12.3670   45.6810 H   0  0  0  0  0  0  0  0  0  0  0  0
   42.8230   13.2490   45.4630 N   0  0  0  0  0  0  0  0  0  0  0  0
   43.8480   13.4450   46.2250 C   0  0  0  0  0  3  0  0  0  0  0  0
   44.8300   14.4820   46.0270 C   0  0  0  0  0  0  0  0  0  0  0  0
   44.9010   15.5920   46.8360 C   0  0  0  0  0  0  0  0  0  0  0  0
   43.6430   15.7190   48.2620 Br  0  0  0  0  0  0  0  0  0  0  0  0
   45.8390   16.5880   46.6370 C   0  0  0  0  0  0  0  0  0  0  0  0
   46.7430   16.4720   45.5920 C   0  0  0  0  0  3  0  0  0  0  0  0
   46.6920   15.3700   44.7670 C   0  0  0  0  0  0  0  0  0  0  0  0
   45.7360   14.3930   44.9990 C   0  0  0  0  0  3  0  0  0  0  0  0
   45.8860   17.6930   47.4670 O   0  0  0  0  0  0  0  0  0  0  0  0
   45.0170   18.1630   47.6880 H   0  0  0  0  0  0  0  0  0  0  0  0
   47.6130   15.2950   43.7340 O   0  0  0  0  0  0  0  0  0  0  0  0
   48.4990   15.7820   43.7250 H   0  0  0  0  0  0  0  0  0  0  0  0
   43.5790    7.9880   44.3510 N   0  0  0  0  0  0  0  0  0  0  0  0
   44.3760    8.5630   43.3010 C   0  0  0  0  0  2  0  0  0  0  0  0
   45.6410    7.6930   43.2340 C   0  0  0  0  0  2  0  0  0  0  0  0
   45.1960    6.4170   42.8870 O   0  0  0  0  0  0  0  0  0  0  0  0
   44.4730    5.8180   43.9130 C   0  0  0  0  0  2  0  0  0  0  0  0
   43.2180    6.5950   44.2590 C   0  0  0  0  0  2  0  0  0  0  0  0
   42.8030    8.7960   49.0530 N   0  0  0  0  0  0  0  0  0  0  0  0
   43.8570    9.1310   49.9810 C   0  0  0  0  0  2  0  0  0  0  0  0
   44.2810    7.9150   50.7750 C   0  0  0  0  0  2  0  0  0  0  0  0
   43.5820    6.7730   50.4130 O   0  0  0  0  0  0  0  0  0  0  0  0
   42.2050    7.0070   50.5890 C   0  0  0  0  0  2  0  0  0  0  0  0
   41.7070    7.9820   49.5400 C   0  0  0  0  0  2  0  0  0  0  0  0
  1  6  1  0  0  0  0
  2  3  2  0  0  0  0
  2  1  2  0  0  0  0
  3  4  1  0  0  0  0
  4  5  2  0  0  0  0
  5 28  1  0  0  0  0
  6  5  1  0  0  0  0
  7  1  1  0  0  0  0
  8  7  1  0  0  0  0
  9  7  1  0  0  0  0
  9 10  2  0  0  0  0
 11 10  1  0  0  0  0
 11 12  1  0  0  0  0
 12 13  1  0  0  0  0
 14 12  2  0  0  0  0
 14 18  1  0  0  0  0
 15 14  1  0  0  0  0
 16 17  1  0  0  0  0
 16 15  2  0  0  0  0
 17 11  2  0  0  0  0
 18 19  1  0  0  0  0
 20 16  1  0  0  0  0
 21 20  1  0  0  0  0
 22  3  1  0  0  0  0
 23 22  1  0  0  0  0
 24 23  1  0  0  0  0
 25 24  1  0  0  0  0
 25 26  1  0  0  0  0
 26 27  1  0  0  0  0
 27 22  1  0  0  0  0
 28 33  1  0  0  0  0
 28 29  1  0  0  0  0
 29 30  1  0  0  0  0
 31 32  1  0  0  0  0
 31 30  1  0  0  0  0
 33 32  1  0  0  0  0
M  END
>  <Pose>
1

>  <Score>
-6.840

$$$$
