/Users/jonathanwahrer/Desktop/Msc/3_Semester/Drug_Design_Praktikum/waehrer_HTS_screening/HTS_experiment/out/docking_results/vina_output/2qfa/0037_docked.pdbqt
 OpenBabel03162219183D

 27 30  0  0  1  0  0  0  0  0999 V2000
   46.3310    5.9570   43.3400 N   0  0  0  0  0  0  0  0  0  0  0  0
   44.9610    5.7690   43.7540 C   0  0  0  0  0  2  0  0  0  0  0  0
   44.6760    7.0650   44.4810 C   0  0  1  0  0  3  0  0  0  0  0  0
   45.2630    8.0790   43.5150 C   0  0  0  0  0  2  0  0  0  0  0  0
   46.4910    7.3450   43.1100 C   0  0  0  0  0  0  0  0  0  0  0  0
   47.5120    7.8890   42.6360 O   0  0  0  0  0  0  0  0  0  0  0  0
   43.2290    7.2780   44.6930 C   0  0  0  0  0  0  0  0  0  0  0  0
   42.3780    6.8000   43.9060 O   0  0  0  0  0  0  0  0  0  0  0  0
   42.8050    8.0350   45.8060 N   0  0  0  0  0  0  0  0  0  0  0  0
   43.5010    8.4360   46.4600 H   0  0  0  0  0  0  0  0  0  0  0  0
   41.4030    8.2660   46.0530 C   0  0  0  0  0  2  0  0  0  0  0  0
   41.0350    9.6850   45.7860 C   0  0  0  0  0  0  0  0  0  0  0  0
   40.9770   10.3170   44.5870 N   0  0  0  0  0  0  0  0  0  0  0  0
   40.6020   11.5940   44.7730 C   0  0  0  0  0  0  0  0  0  0  0  0
   41.2010   10.0270   43.1820 C   0  0  0  0  0  2  0  0  0  0  0  0
   40.4320   11.7250   46.1130 N   0  0  0  0  0  0  0  0  0  0  0  0
   40.5280   12.3250   43.4650 C   0  0  0  0  0  2  0  0  0  0  0  0
   40.6910   10.5850   46.7210 N   0  0  0  0  0  0  0  0  0  0  0  0
   41.2790   11.3950   42.5380 C   0  0  0  0  0  2  0  0  0  0  0  0
   47.2730    4.9010   43.2060 C   0  0  0  0  0  0  0  0  0  0  0  0
   48.3270    4.6910   44.0690 C   0  0  0  0  0  3  0  0  0  0  0  0
   49.2410    3.6790   43.9560 C   0  0  0  0  0  0  0  0  0  0  0  0
   49.0940    2.7990   42.8910 C   0  0  0  0  0  0  0  0  0  0  0  0
   50.3670    3.4810   44.9090 C   0  0  0  0  0  1  0  0  0  0  0  0
   50.3520    1.3790   42.7030 Br  0  0  0  0  0  0  0  0  0  0  0  0
   48.0590    2.9570   41.9920 C   0  0  0  0  0  3  0  0  0  0  0  0
   47.1610    3.9950   42.1490 C   0  0  0  0  0  3  0  0  0  0  0  0
  1  2  1  0  0  0  0
  2  3  1  0  0  0  0
  3  7  1  6  0  0  0
  4  3  1  0  0  0  0
  5  1  1  0  0  0  0
  5  4  1  0  0  0  0
  6  5  2  0  0  0  0
  7  9  1  0  0  0  0
  8  7  2  0  0  0  0
  9 11  1  0  0  0  0
  9 10  1  0  0  0  0
 12 11  1  0  0  0  0
 12 18  2  0  0  0  0
 13 14  1  0  0  0  0
 13 12  1  0  0  0  0
 14 16  2  0  0  0  0
 15 13  1  0  0  0  0
 16 18  1  0  0  0  0
 17 14  1  0  0  0  0
 19 15  1  0  0  0  0
 19 17  1  0  0  0  0
 20  1  1  0  0  0  0
 20 21  1  0  0  0  0
 22 21  2  0  0  0  0
 22 24  1  0  0  0  0
 23 22  1  0  0  0  0
 25 23  1  0  0  0  0
 26 27  1  0  0  0  0
 26 23  2  0  0  0  0
 27 20  2  0  0  0  0
M  END
>  <Pose>
1

>  <Score>
-8.149

$$$$
