/Users/jonathanwahrer/Desktop/Msc/3_Semester/Drug_Design_Praktikum/waehrer_HTS_screening/HTS_experiment/out/docking_results/vina_output/2qfa/0039_docked.pdbqt
 OpenBabel03162219193D

 21 23  0  0  1  0  0  0  0  0999 V2000
   41.8610    8.4220   45.0010 N   0  0  0  0  0  0  0  0  0  0  0  0
   41.6720    8.7520   46.3440 C   0  0  0  0  0  0  0  0  0  0  0  0
   42.5010    8.4400   47.2110 O   0  0  0  0  0  0  0  0  0  0  0  0
   41.0940    8.7340   44.3340 H   0  0  0  0  0  0  0  0  0  0  0  0
   40.4530    9.4890   46.7340 C   0  0  0  0  0  2  0  0  0  0  0  0
   40.3990   10.8590   46.3390 N   0  0  1  0  0  4  0  0  0  0  0  0
   39.4400   11.5370   47.2250 C   0  0  0  0  0  2  0  0  0  0  0  0
   39.8010   13.0020   47.2320 C   0  0  0  0  0  2  0  0  0  0  0  0
   40.1820   13.3280   45.8580 N   0  0  1  0  0  0  0  0  0  0  0  0
   41.5640   12.8780   45.7190 C   0  0  0  0  0  2  0  0  0  0  0  0
   39.3870   12.5280   44.9400 C   0  0  0  0  0  2  0  0  0  0  0  0
   41.6910   11.5350   46.4240 C   0  0  0  0  0  2  0  0  0  0  0  0
   39.8960   11.0780   44.9980 C   0  0  0  0  0  2  0  0  0  0  0  0
   42.9410    7.7280   44.4080 C   0  0  0  0  0  0  0  0  0  0  0  0
   43.8880    8.4140   43.6340 C   0  0  0  0  0  0  0  0  0  0  0  0
   43.6130   10.3070   43.4470 Br  0  0  0  0  0  0  0  0  0  0  0  0
   44.9570    7.7940   43.0340 C   0  0  0  0  0  3  0  0  0  0  0  0
   45.1670    6.4420   43.1590 C   0  0  0  0  0  0  0  0  0  0  0  0
   44.2520    5.7490   43.9130 C   0  0  0  0  0  3  0  0  0  0  0  0
   46.3260    5.7570   42.5100 C   0  0  0  0  0  1  0  0  0  0  0  0
   43.1620    6.3720   44.5260 C   0  0  0  0  0  3  0  0  0  0  0  0
  1  2  1  0  0  0  0
  2  5  1  0  0  0  0
  2  3  2  0  0  0  0
  4  1  1  0  0  0  0
  6 12  1  0  0  0  0
  6  5  1  1  0  0  0
  6  7  1  0  0  0  0
  7  8  1  0  0  0  0
  9 11  1  6  0  0  0
  9  8  1  0  0  0  0
 10  9  1  0  0  0  0
 10 12  1  0  0  0  0
 11 13  1  0  0  0  0
 13  6  1  0  0  0  0
 14 21  1  0  0  0  0
 14  1  1  0  0  0  0
 15 14  2  0  0  0  0
 16 15  1  0  0  0  0
 17 18  2  0  0  0  0
 17 15  1  0  0  0  0
 18 19  1  0  0  0  0
 19 21  2  0  0  0  0
 20 18  1  0  0  0  0
M  END
>  <Pose>
1

>  <Score>
-5.845

$$$$
