/Users/jonathanwahrer/Desktop/Msc/3_Semester/Drug_Design_Praktikum/waehrer_HTS_screening/HTS_experiment/out/docking_results/vina_output/2qfa/0064_docked.pdbqt
 OpenBabel03162219193D

 22 25  0  0  1  0  0  0  0  0999 V2000
   42.4880   11.6570   45.4160 N   0  0  0  0  0  0  0  0  0  0  0  0
   42.6350   10.3220   45.8730 C   0  0  0  0  0  0  0  0  0  0  0  0
   43.4240    9.9700   46.7670 O   0  0  0  0  0  0  0  0  0  0  0  0
   41.7260    9.4070   45.1460 C   0  0  2  0  0  3  0  0  0  0  0  0
   42.4430    8.4000   44.3160 C   0  0  1  0  0  0  0  0  0  0  0  0
   41.8810    8.5150   43.0170 O   0  0  0  0  0  0  0  0  0  0  0  0
   42.0630    9.9170   42.8930 C   0  0  1  0  0  3  0  0  0  0  0  0
   41.1480   10.3250   44.0540 C   0  0  2  0  0  3  0  0  0  0  0  0
   41.4020   11.7080   44.4860 C   0  0  0  0  0  0  0  0  0  0  0  0
   40.8080   12.7500   44.1340 O   0  0  0  0  0  0  0  0  0  0  0  0
   43.4920   10.0380   43.2490 C   0  0  0  0  0  2  0  0  0  0  0  0
   43.7870    8.9760   44.0000 C   0  0  0  0  0  2  0  0  0  0  0  0
   43.2450   12.8100   45.7560 C   0  0  0  0  0  0  0  0  0  0  0  0
   42.8950   13.6870   46.7570 C   0  0  0  0  0  0  0  0  0  0  0  0
   41.2810   13.2980   47.7360 Br  0  0  0  0  0  0  0  0  0  0  0  0
   43.6450   14.8000   47.0670 C   0  0  0  0  0  3  0  0  0  0  0  0
   44.7930   15.0930   46.3800 C   0  0  0  0  0  3  0  0  0  0  0  0
   45.1770   14.2280   45.3610 C   0  0  0  0  0  3  0  0  0  0  0  0
   44.4120   13.1170   45.0650 C   0  0  0  0  0  3  0  0  0  0  0  0
   42.4800    7.0140   44.8060 C   0  0  0  0  0  2  0  0  0  0  0  0
   41.4140    6.8410   45.7080 O   0  0  0  0  0  0  0  0  0  0  0  0
   41.0290    7.7360   45.9400 H   0  0  0  0  0  0  0  0  0  0  0  0
  1 13  1  0  0  0  0
  1  2  1  0  0  0  0
  2  3  2  0  0  0  0
  4  2  1  1  0  0  0
  5 20  1  1  0  0  0
  5  4  1  0  0  0  0
  6  5  1  0  0  0  0
  7  6  1  0  0  0  0
  7 11  1  1  0  0  0
  7  8  1  0  0  0  0
  8  9  1  1  0  0  0
  8  4  1  0  0  0  0
  9  1  1  0  0  0  0
 10  9  2  0  0  0  0
 11 12  1  0  0  0  0
 12  5  1  0  0  0  0
 13 14  1  0  0  0  0
 14 16  2  0  0  0  0
 14 15  1  0  0  0  0
 17 16  1  0  0  0  0
 18 17  2  0  0  0  0
 19 18  1  0  0  0  0
 19 13  2  0  0  0  0
 20 21  1  0  0  0  0
 21 22  1  0  0  0  0
M  END
>  <Pose>
1

>  <Score>
-6.540

$$$$
