/Users/jonathanwahrer/Desktop/Msc/3_Semester/Drug_Design_Praktikum/waehrer_HTS_screening/HTS_experiment/out/docking_results/vina_output/2qfa/0081_docked.pdbqt
 OpenBabel03162219193D

 22 25  0  0  0  0  0  0  0  0999 V2000
   45.5360    5.8320   42.8470 C   0  0  0  0  0  0  0  0  0  0  0  0
   44.6140    5.3770   43.7160 N   0  0  0  0  0  0  0  0  0  0  0  0
   43.8430    6.3890   44.1150 N   0  0  0  0  0  0  0  0  0  0  0  0
   44.2570    7.5200   43.5070 C   0  0  0  0  0  0  0  0  0  0  0  0
   45.2960    7.1510   42.7360 N   0  0  0  0  0  0  0  0  0  0  0  0
   43.6000    8.7060   43.7710 C   0  0  0  0  0  0  0  0  0  0  0  0
   42.5290    8.7800   44.6390 C   0  0  0  0  0  0  0  0  0  0  0  0
   42.0790   10.0480   44.7130 N   0  0  0  0  0  0  0  0  0  0  0  0
   42.8360   10.7780   43.9160 N   0  0  0  0  0  0  0  0  0  0  0  0
   43.7830    9.9960   43.3170 C   0  0  0  0  0  3  0  0  0  0  0  0
   40.9740   10.5640   45.5050 C   0  0  0  0  0  1  0  0  0  0  0  0
   42.1490    7.6300   45.2250 N   0  0  0  0  0  0  0  0  0  0  0  0
   42.7990    6.4660   44.9600 C   0  0  0  0  0  3  0  0  0  0  0  0
   46.6040    5.0350   42.1510 C   0  0  0  0  0  2  0  0  0  0  0  0
   47.6640    4.6670   43.0610 N   0  0  0  0  0  0  0  0  0  0  0  0
   48.4040    3.5540   42.9580 C   0  0  0  0  0  0  0  0  0  0  0  0
   49.2900    3.5780   44.0040 C   0  0  0  0  0  0  0  0  0  0  0  0
   48.3160    2.4730   41.9250 C   0  0  0  0  0  1  0  0  0  0  0  0
   50.6090    2.2710   44.4040 Br  0  0  0  0  0  0  0  0  0  0  0  0
   49.0730    4.7160   44.7340 C   0  0  0  0  0  0  0  0  0  0  0  0
   48.0580    5.3590   44.1130 N   0  0  0  0  0  0  0  0  0  0  0  0
   49.8000    5.1780   45.9720 C   0  0  0  0  0  1  0  0  0  0  0  0
  1  2  2  0  0  0  0
  2  3  1  0  0  0  0
  3 13  1  0  0  0  0
  4  6  1  0  0  0  0
  4  3  1  0  0  0  0
  5  1  1  0  0  0  0
  5  4  2  0  0  0  0
  6  7  2  0  0  0  0
  7  8  1  0  0  0  0
  7 12  1  0  0  0  0
  8 11  1  0  0  0  0
  9  8  1  0  0  0  0
 10  6  1  0  0  0  0
 10  9  2  0  0  0  0
 13 12  2  0  0  0  0
 14  1  1  0  0  0  0
 14 15  1  0  0  0  0
 15 21  1  0  0  0  0
 16 15  1  0  0  0  0
 16 17  2  0  0  0  0
 17 19  1  0  0  0  0
 17 20  1  0  0  0  0
 18 16  1  0  0  0  0
 20 22  1  0  0  0  0
 21 20  2  0  0  0  0
M  END
>  <Pose>
1

>  <Score>
-6.861

$$$$
