/Users/jonathanwahrer/Desktop/Msc/3_Semester/Drug_Design_Praktikum/waehrer_HTS_screening/HTS_experiment/out/docking_results/vina_output/2qfa/0095_docked.pdbqt
 OpenBabel03162219193D

 26 29  0  0  0  0  0  0  0  0999 V2000
   43.3060   10.7860   45.4490 C   0  0  0  0  0  0  0  0  0  0  0  0
   42.8500   10.6980   46.6350 O   0  0  0  0  0  0  0  0  0  0  0  0
   44.0020   11.8490   44.9260 N   0  0  0  0  0  0  0  0  0  0  0  0
   43.9000   12.5160   46.1090 H   0  0  0  0  0  0  0  0  0  0  0  0
   43.0360    9.5930   44.5630 C   0  0  0  0  0  0  0  0  0  0  0  0
   43.8520    8.4900   44.5830 C   0  0  0  0  0  3  0  0  0  0  0  0
   43.5580    7.4190   43.7310 C   0  0  0  0  0  0  0  0  0  0  0  0
   44.6690    5.8870   43.7390 Br  0  0  0  0  0  0  0  0  0  0  0  0
   42.4730    7.4730   42.8900 C   0  0  0  0  0  3  0  0  0  0  0  0
   41.6530    8.5830   42.8700 C   0  0  0  0  0  3  0  0  0  0  0  0
   41.9520    9.6540   43.7290 C   0  0  0  0  0  0  0  0  0  0  0  0
   41.1490   10.8210   43.7660 N   0  0  0  0  0  0  0  0  0  0  0  0
   40.2340   11.0510   44.6880 N   0  0  0  0  0  0  0  0  0  0  0  0
   39.6420   12.2070   44.4810 N   0  0  0  0  0  0  0  0  0  0  0  0
   40.1750   12.7550   43.4010 N   0  0  0  0  0  0  0  0  0  0  0  0
   41.1020   11.8960   42.9660 C   0  0  0  0  0  3  0  0  0  0  0  0
   44.6940   12.9060   44.4060 C   0  0  0  0  0  2  0  0  0  0  0  0
   44.8770   14.0620   45.3760 C   0  0  0  0  0  0  0  0  0  0  0  0
   45.7990   15.0420   45.2490 N   0  0  0  0  0  0  0  0  0  0  0  0
   45.6990   15.9060   46.2670 C   0  0  0  0  0  0  0  0  0  0  0  0
   46.7450   15.2460   44.2890 C   0  0  0  0  0  3  0  0  0  0  0  0
   44.6960   15.4510   47.0340 N   0  0  0  0  0  0  0  0  0  0  0  0
   46.5540   17.0130   46.3510 C   0  0  0  0  0  3  0  0  0  0  0  0
   44.1950   14.3290   46.4950 N   0  0  0  0  0  0  0  0  0  0  0  0
   47.5040   17.2230   45.3910 C   0  0  0  0  0  3  0  0  0  0  0  0
   47.6070   16.3310   44.3410 C   0  0  0  0  0  3  0  0  0  0  0  0
  1  2  2  0  0  0  0
  3  1  1  0  0  0  0
  3  4  1  0  0  0  0
  5  6  1  0  0  0  0
  5  1  1  0  0  0  0
  7  8  1  0  0  0  0
  7  6  2  0  0  0  0
  9  7  1  0  0  0  0
 10  9  2  0  0  0  0
 10 11  1  0  0  0  0
 11 12  1  0  0  0  0
 11  5  2  0  0  0  0
 12 13  1  0  0  0  0
 14 13  2  0  0  0  0
 15 14  1  0  0  0  0
 16 15  2  0  0  0  0
 16 12  1  0  0  0  0
 17  3  1  0  0  0  0
 17 18  1  0  0  0  0
 18 24  2  0  0  0  0
 19 18  1  0  0  0  0
 19 20  1  0  0  0  0
 20 23  1  0  0  0  0
 20 22  2  0  0  0  0
 21 26  2  0  0  0  0
 21 19  1  0  0  0  0
 24 22  1  0  0  0  0
 25 23  2  0  0  0  0
 26 25  1  0  0  0  0
M  END
>  <Pose>
1

>  <Score>
-6.956

$$$$
