/Users/jonathanwahrer/Desktop/Msc/3_Semester/Drug_Design_Praktikum/waehrer_HTS_screening/HTS_experiment/out/docking_results/vina_output/2qfa/0127_docked.pdbqt
 OpenBabel03162219213D

 29 32  0  0  0  0  0  0  0  0999 V2000
   44.6410    6.3590   43.4790 N   0  0  0  0  0  0  0  0  0  0  0  0
   45.4280    7.5350   43.5240 C   0  0  0  0  0  2  0  0  0  0  0  0
   44.6840    8.8150   43.5530 C   0  0  0  0  0  2  0  0  0  0  0  0
   43.7020    8.8200   44.5890 N   0  0  0  0  0  0  0  0  0  0  0  0
   43.2370    7.5610   45.0970 C   0  0  0  0  0  2  0  0  0  0  0  0
   43.3730    6.4170   44.1190 C   0  0  0  0  0  2  0  0  0  0  0  0
   43.1540   10.0210   45.1110 C   0  0  0  0  0  0  0  0  0  0  0  0
   42.1330   10.5760   44.4620 C   0  0  0  0  0  0  0  0  0  0  0  0
   41.3930   10.2600   43.2960 N   0  0  0  0  0  0  0  0  0  0  0  0
   41.5910   11.8260   45.0400 C   0  0  0  0  0  0  0  0  0  0  0  0
   40.4320   11.2900   43.1770 N   0  0  0  0  0  0  0  0  0  0  0  0
   41.5830    9.1280   42.4220 C   0  0  0  0  0  1  0  0  0  0  0  0
   40.5980   12.2000   44.2470 C   0  0  0  0  0  0  0  0  0  0  0  0
   39.7430   11.3100   42.3960 H   0  0  0  0  0  0  0  0  0  0  0  0
   39.7980   13.4260   44.5040 C   0  0  0  0  0  1  0  0  0  0  0  0
   42.1630   12.3660   46.2260 N   0  0  0  0  0  0  0  0  0  0  0  0
   43.1500   11.7890   46.8160 C   0  0  0  0  0  3  0  0  0  0  0  0
   43.7070   10.5980   46.3120 N   0  0  0  0  0  0  0  0  0  0  0  0
   44.5000   10.0990   46.7510 H   0  0  0  0  0  0  0  0  0  0  0  0
   45.3310    5.1310   43.5590 C   0  0  0  0  0  2  0  0  0  0  0  0
   46.3440    4.9430   42.5190 C   0  0  0  0  0  0  0  0  0  0  0  0
   46.1370    5.4150   41.3710 O   0  0  0  0  0  0  0  0  0  0  0  0
   47.5650    4.2130   42.8430 C   0  0  0  0  0  0  0  0  0  0  0  0
   48.3270    4.5710   43.9240 C   0  0  0  0  0  3  0  0  0  0  0  0
   49.4950    3.8990   44.2610 C   0  0  0  0  0  0  0  0  0  0  0  0
   50.5510    4.3970   45.7630 Br  0  0  0  0  0  0  0  0  0  0  0  0
   49.9040    2.8370   43.4840 C   0  0  0  0  0  3  0  0  0  0  0  0
   49.1210    2.4850   42.3920 C   0  0  0  0  0  3  0  0  0  0  0  0
   47.9680    3.1530   42.0650 C   0  0  0  0  0  3  0  0  0  0  0  0
  1  2  1  0  0  0  0
  1 20  1  0  0  0  0
  1  6  1  0  0  0  0
  2  3  1  0  0  0  0
  3  4  1  0  0  0  0
  4  5  1  0  0  0  0
  4  7  1  0  0  0  0
  6  5  1  0  0  0  0
  7 18  1  0  0  0  0
  8 10  1  0  0  0  0
  8  7  2  0  0  0  0
  9  8  1  0  0  0  0
 10 16  1  0  0  0  0
 11  9  1  0  0  0  0
 11 13  1  0  0  0  0
 12  9  1  0  0  0  0
 13 15  1  0  0  0  0
 13 10  2  0  0  0  0
 14 11  1  0  0  0  0
 16 17  2  0  0  0  0
 18 19  1  0  0  0  0
 18 17  1  0  0  0  0
 21 23  1  0  0  0  0
 21 20  1  0  0  0  0
 22 21  2  0  0  0  0
 23 24  1  0  0  0  0
 24 25  2  0  0  0  0
 25 26  1  0  0  0  0
 27 25  1  0  0  0  0
 28 27  2  0  0  0  0
 29 28  1  0  0  0  0
 29 23  2  0  0  0  0
M  END
>  <Pose>
1

>  <Score>
-7.927

$$$$
