/Users/jonathanwahrer/Desktop/Msc/3_Semester/Drug_Design_Praktikum/waehrer_HTS_screening/HTS_experiment/out/docking_results/vina_output/2qfa/0129_docked.pdbqt
 OpenBabel03162219213D

 31 34  0  0  1  0  0  0  0  0999 V2000
   43.0790    7.9880   44.9340 C   0  0  0  0  0  0  0  0  0  0  0  0
   42.7160    6.9210   45.5220 O   0  0  0  0  0  0  0  0  0  0  0  0
   42.9380    9.2510   45.5770 N   0  0  0  0  0  0  0  0  0  0  0  0
   43.1780   10.4990   44.8970 C   0  0  0  0  0  2  0  0  0  0  0  0
   41.7750   11.1500   44.8670 C   0  0  0  0  0  2  0  0  0  0  0  0
   41.5370   11.6060   46.2820 C   0  0  2  0  0  0  0  0  0  0  0  0
   40.1070   11.8840   46.3920 N   0  0  0  0  0  0  0  0  0  0  0  0
   39.6470   12.8370   45.4520 C   0  0  0  0  0  2  0  0  0  0  0  0
   40.2660   14.2100   45.6430 C   0  0  0  0  0  2  0  0  0  0  0  0
   41.6560   14.1230   46.1270 C   0  0  0  0  0  0  0  0  0  0  0  0
   42.5420   15.1080   46.3500 N   0  0  0  0  0  0  0  0  0  0  0  0
   43.6790   14.5320   46.7970 C   0  0  0  0  0  3  0  0  0  0  0  0
   43.4820   13.1900   46.8450 N   0  0  0  0  0  0  0  0  0  0  0  0
   42.2320   12.9050   46.4310 C   0  0  0  0  0  0  0  0  0  0  0  0
   41.9000   10.6230   47.3390 C   0  0  0  0  0  3  0  0  0  0  0  0
   42.5310    9.3340   46.9330 C   0  0  0  0  0  3  0  0  0  0  0  0
   39.8230   12.1140   47.3780 H   0  0  0  0  0  0  0  0  0  0  0  0
   44.2570   12.5790   47.1720 H   0  0  0  0  0  0  0  0  0  0  0  0
   43.6210    7.8420   43.5910 C   0  0  2  0  0  3  0  0  0  0  0  0
   42.4830    7.7480   42.5860 C   0  0  0  0  0  1  0  0  0  0  0  0
   44.6120    6.8360   43.4660 N   0  0  0  0  0  0  0  0  0  0  0  0
   45.8940    7.0330   42.9640 C   0  0  0  0  0  0  0  0  0  0  0  0
   46.4480    8.0490   42.5800 O   0  0  0  0  0  0  0  0  0  0  0  0
   44.3410    5.8770   43.8400 H   0  0  0  0  0  0  0  0  0  0  0  0
   46.7070    5.7620   42.8790 C   0  0  0  0  0  0  0  0  0  0  0  0
   47.6490    5.5510   43.8630 C   0  0  0  0  0  3  0  0  0  0  0  0
   48.4400    4.4280   43.8070 C   0  0  0  0  0  0  0  0  0  0  0  0
   49.7490    4.1190   45.1860 Br  0  0  0  0  0  0  0  0  0  0  0  0
   48.3250    3.5010   42.7920 C   0  0  0  0  0  3  0  0  0  0  0  0
   47.3570    3.7670   41.8210 C   0  0  0  0  0  3  0  0  0  0  0  0
   46.5580    4.8770   41.8600 C   0  0  0  0  0  3  0  0  0  0  0  0
  1  2  2  0  0  0  0
  1  3  1  0  0  0  0
  3 16  1  0  0  0  0
  4  3  1  0  0  0  0
  5  4  1  0  0  0  0
  6  5  1  6  0  0  0
  6  7  1  0  0  0  0
  6 14  1  0  0  0  0
  6 15  1  0  0  0  0
  7 17  1  0  0  0  0
  8  9  1  0  0  0  0
  8  7  1  0  0  0  0
  9 10  1  0  0  0  0
 10 11  1  0  0  0  0
 10 14  2  0  0  0  0
 11 12  2  0  0  0  0
 12 13  1  0  0  0  0
 13 18  1  0  0  0  0
 14 13  1  0  0  0  0
 16 15  2  0  0  0  0
 19 20  1  6  0  0  0
 19  1  1  0  0  0  0
 21 19  1  0  0  0  0
 21 24  1  0  0  0  0
 22 21  1  0  0  0  0
 23 22  2  0  0  0  0
 25 22  1  0  0  0  0
 25 26  1  0  0  0  0
 27 26  2  0  0  0  0
 27 28  1  0  0  0  0
 29 27  1  0  0  0  0
 30 31  1  0  0  0  0
 30 29  2  0  0  0  0
 31 25  2  0  0  0  0
M  END
>  <Pose>
1

>  <Score>
-8.079

$$$$
