/Users/jonathanwahrer/Desktop/Msc/3_Semester/Drug_Design_Praktikum/waehrer_HTS_screening/HTS_experiment/out/docking_results/vina_output/2qfa/0131_docked.pdbqt
 OpenBabel03162219213D

 30 33  0  0  1  0  0  0  0  0999 V2000
   45.1070    6.8480   43.0140 C   0  0  0  0  0  0  0  0  0  0  0  0
   45.6830    7.1760   41.9470 O   0  0  0  0  0  0  0  0  0  0  0  0
   44.4860    7.8380   43.7910 N   0  0  0  0  0  0  0  0  0  0  0  0
   43.8060    7.5390   45.0270 C   0  0  0  0  0  2  0  0  0  0  0  0
   42.3450    7.8720   44.8150 C   0  0  0  0  0  2  0  0  0  0  0  0
   42.2170    9.2670   44.2510 C   0  0  1  0  0  0  0  0  0  0  0  0
   41.6150    9.1650   42.9390 N   0  0  0  0  0  0  0  0  0  0  0  0
   41.3100   10.4080   42.3220 C   0  0  0  0  0  2  0  0  0  0  0  0
   40.7710   11.4830   43.1930 C   0  0  0  0  0  2  0  0  0  0  0  0
   40.5260   11.0780   44.5930 C   0  0  0  0  0  0  0  0  0  0  0  0
   39.6970   11.5690   45.5650 N   0  0  0  0  0  0  0  0  0  0  0  0
   39.8910   10.8110   46.6520 C   0  0  0  0  0  3  0  0  0  0  0  0
   40.8100    9.8710   46.3770 N   0  0  0  0  0  0  0  0  0  0  0  0
   41.2320   10.0080   45.0950 C   0  0  0  0  0  0  0  0  0  0  0  0
   43.5020   10.0270   44.1850 C   0  0  0  0  0  2  0  0  0  0  0  0
   44.5100    9.2140   43.3670 C   0  0  0  0  0  2  0  0  0  0  0  0
   42.2810    8.6430   42.3110 H   0  0  0  0  0  0  0  0  0  0  0  0
   39.0450   12.3960   45.4330 H   0  0  0  0  0  0  0  0  0  0  0  0
   45.1300    5.4070   43.3770 C   0  0  0  0  0  2  0  0  0  0  0  0
   46.4220    5.0060   43.8920 N   0  0  0  0  0  0  0  0  0  0  0  0
   47.3790    4.3500   43.0850 C   0  0  0  0  0  0  0  0  0  0  0  0
   47.0680    4.1220   41.8870 O   0  0  0  0  0  0  0  0  0  0  0  0
   46.6550    5.2050   44.8850 H   0  0  0  0  0  0  0  0  0  0  0  0
   48.6840    3.9360   43.5780 C   0  0  0  0  0  0  0  0  0  0  0  0
   49.4740    2.9980   42.9390 C   0  0  0  0  0  3  0  0  0  0  0  0
   50.7120    2.6240   43.4310 C   0  0  0  0  0  0  0  0  0  0  0  0
   51.7280    1.3330   42.4900 Br  0  0  0  0  0  0  0  0  0  0  0  0
   51.2000    3.1960   44.6070 C   0  0  0  0  0  3  0  0  0  0  0  0
   50.4000    4.1270   45.2300 C   0  0  0  0  0  3  0  0  0  0  0  0
   49.1700    4.5040   44.7470 C   0  0  0  0  0  3  0  0  0  0  0  0
  1 19  1  0  0  0  0
  1  3  1  0  0  0  0
  2  1  2  0  0  0  0
  3  4  1  0  0  0  0
  5  4  1  0  0  0  0
  6 15  1  6  0  0  0
  6  5  1  0  0  0  0
  6 14  1  0  0  0  0
  7  6  1  0  0  0  0
  8  7  1  0  0  0  0
  8  9  1  0  0  0  0
  9 10  1  0  0  0  0
 10 14  2  0  0  0  0
 10 11  1  0  0  0  0
 11 12  1  0  0  0  0
 13 12  2  0  0  0  0
 14 13  1  0  0  0  0
 16  3  1  0  0  0  0
 16 15  1  0  0  0  0
 17  7  1  0  0  0  0
 18 11  1  0  0  0  0
 19 20  1  0  0  0  0
 20 23  1  0  0  0  0
 21 24  1  0  0  0  0
 21 20  1  0  0  0  0
 22 21  2  0  0  0  0
 24 30  1  0  0  0  0
 25 26  1  0  0  0  0
 25 24  2  0  0  0  0
 26 28  2  0  0  0  0
 27 26  1  0  0  0  0
 28 29  1  0  0  0  0
 30 29  2  0  0  0  0
M  END
>  <Pose>
1

>  <Score>
-8.203

$$$$
