/Users/jonathanwahrer/Desktop/Msc/3_Semester/Drug_Design_Praktikum/waehrer_HTS_screening/HTS_experiment/out/docking_results/vina_output/2qfa/0136_docked.pdbqt
 OpenBabel03162219223D

 30 33  0  0  1  0  0  0  0  0999 V2000
   44.8900    5.9660   43.4290 C   0  0  2  0  0  3  0  0  0  0  0  0
   45.2520    7.4230   43.6450 C   0  0  0  0  0  2  0  0  0  0  0  0
   43.9710    8.0330   43.9430 N   0  0  0  0  0  0  0  0  0  0  0  0
   42.9440    7.0260   44.1190 C   0  0  1  0  0  3  0  0  0  0  0  0
   43.7810    5.7770   44.4250 C   0  0  0  0  0  2  0  0  0  0  0  0
   42.1050    7.4090   45.2540 C   0  0  0  0  0  0  0  0  0  0  0  0
   41.8900    6.6290   46.1930 O   0  0  0  0  0  0  0  0  0  0  0  0
   41.5380    8.7090   45.2500 N   0  0  0  0  0  0  0  0  0  0  0  0
   42.2020    9.7730   44.5320 C   0  0  1  0  0  3  0  0  0  0  0  0
   43.5640    9.4020   44.0860 C   0  0  0  0  0  0  0  0  0  0  0  0
   44.4010   10.3050   43.8210 O   0  0  0  0  0  0  0  0  0  0  0  0
   40.6500    8.9360   45.7520 H   0  0  0  0  0  0  0  0  0  0  0  0
   46.0240    5.0950   43.6780 N   0  0  0  0  0  0  0  0  0  0  0  0
   46.7600    4.6500   42.5610 C   0  0  0  0  0  0  0  0  0  0  0  0
   46.4070    5.0230   41.3820 O   0  0  0  0  0  0  0  0  0  0  0  0
   46.2980    4.7950   44.6230 H   0  0  0  0  0  0  0  0  0  0  0  0
   47.9130    3.7760   42.6910 C   0  0  0  0  0  0  0  0  0  0  0  0
   48.9210    4.0720   43.6000 C   0  0  0  0  0  3  0  0  0  0  0  0
   50.0060    3.2500   43.7300 C   0  0  0  0  0  0  0  0  0  0  0  0
   51.3870    3.6700   44.9860 Br  0  0  0  0  0  0  0  0  0  0  0  0
   50.1380    2.1180   42.9780 C   0  0  0  0  0  3  0  0  0  0  0  0
   49.1430    1.8220   42.0790 C   0  0  0  0  0  3  0  0  0  0  0  0
   48.0400    2.6490   41.9400 C   0  0  0  0  0  3  0  0  0  0  0  0
   41.3620   10.3210   43.3990 C   0  0  0  0  0  2  0  0  0  0  0  0
   40.5260   11.4660   43.7960 C   0  0  0  0  0  0  0  0  0  0  0  0
   40.4900   12.5990   43.0030 C   0  0  0  0  0  3  0  0  0  0  0  0
   39.7120   13.6740   43.3680 C   0  0  0  0  0  3  0  0  0  0  0  0
   38.9430   13.6820   44.5160 C   0  0  0  0  0  3  0  0  0  0  0  0
   38.9760   12.5540   45.3080 C   0  0  0  0  0  3  0  0  0  0  0  0
   39.7520   11.4660   44.9580 C   0  0  0  0  0  3  0  0  0  0  0  0
  1  2  1  0  0  0  0
  1 13  1  1  0  0  0
  1  5  1  0  0  0  0
  2  3  1  0  0  0  0
  3 10  1  0  0  0  0
  3  4  1  0  0  0  0
  4  5  1  1  0  0  0
  4  6  1  0  0  0  0
  6  7  2  0  0  0  0
  8  6  1  0  0  0  0
  8 12  1  0  0  0  0
  9 24  1  6  0  0  0
  9  8  1  0  0  0  0
 10  9  1  0  0  0  0
 11 10  2  0  0  0  0
 13 16  1  0  0  0  0
 14 17  1  0  0  0  0
 14 13  1  0  0  0  0
 15 14  2  0  0  0  0
 17 18  1  0  0  0  0
 18 19  2  0  0  0  0
 19 20  1  0  0  0  0
 21 19  1  0  0  0  0
 22 21  2  0  0  0  0
 23 22  1  0  0  0  0
 23 17  2  0  0  0  0
 24 25  1  0  0  0  0
 25 30  1  0  0  0  0
 26 27  1  0  0  0  0
 26 25  2  0  0  0  0
 27 28  2  0  0  0  0
 28 29  1  0  0  0  0
 30 29  2  0  0  0  0
M  END
>  <Pose>
1

>  <Score>
-8.550

$$$$
