/Users/jonathanwahrer/Desktop/Msc/3_Semester/Drug_Design_Praktikum/waehrer_HTS_screening/HTS_experiment/out/docking_results/vina_output/2qfa/0137_docked.pdbqt
 OpenBabel03162219223D

 25 28  0  0  1  0  0  0  0  0999 V2000
   44.9860    7.2860   43.8110 C   0  0  2  0  0  3  0  0  0  0  0  0
   43.6600    6.6950   44.4180 C   0  0  0  0  0  2  0  0  0  0  0  0
   43.0250    7.8290   44.9990 N   0  0  0  0  0  0  0  0  0  0  0  0
   43.5580    9.0390   44.3910 C   0  0  1  0  0  3  0  0  0  0  0  0
   44.3200    8.5660   43.2210 C   0  0  0  0  0  2  0  0  0  0  0  0
   42.4760   10.0070   44.1500 C   0  0  0  0  0  0  0  0  0  0  0  0
   42.4740   10.6710   43.0990 O   0  0  0  0  0  0  0  0  0  0  0  0
   41.4490   10.1810   45.1040 N   0  0  0  0  0  0  0  0  0  0  0  0
   41.0240    9.0580   45.9110 C   0  0  2  0  0  3  0  0  0  0  0  0
   40.6160    9.6480   47.2450 C   0  0  0  0  0  2  0  0  0  0  0  0
   40.7310   11.1210   47.0660 C   0  0  0  0  0  2  0  0  0  0  0  0
   40.6200   11.2980   45.5440 C   0  0  0  0  0  2  0  0  0  0  0  0
   42.0270    8.0020   45.9980 C   0  0  0  0  0  0  0  0  0  0  0  0
   42.0230    7.1990   46.9960 O   0  0  0  0  0  0  0  0  0  0  0  0
   45.5880    6.4600   42.9630 N   0  0  0  0  0  0  0  0  0  0  0  0
   46.2050    5.6070   42.0830 C   0  0  0  0  0  0  0  0  0  0  0  0
   45.9990    5.4250   40.8430 O   0  0  0  0  0  0  0  0  0  0  0  0
   44.7850    6.9050   41.9370 H   0  0  0  0  0  0  0  0  0  0  0  0
   47.3150    4.7080   42.5830 C   0  0  0  0  0  0  0  0  0  0  0  0
   47.9900    4.9940   43.7450 C   0  0  0  0  0  3  0  0  0  0  0  0
   48.9990    4.1960   44.2260 C   0  0  0  0  0  0  0  0  0  0  0  0
   49.9140    4.5750   45.8480 Br  0  0  0  0  0  0  0  0  0  0  0  0
   49.3240    3.0650   43.4830 C   0  0  0  0  0  3  0  0  0  0  0  0
   48.6710    2.7510   42.3230 C   0  0  0  0  0  3  0  0  0  0  0  0
   47.6560    3.5860   41.8720 C   0  0  0  0  0  3  0  0  0  0  0  0
  1 15  1  6  0  0  0
  1  2  1  0  0  0  0
  2  3  1  0  0  0  0
  3 13  1  0  0  0  0
  4  5  1  6  0  0  0
  4  3  1  0  0  0  0
  5  1  1  0  0  0  0
  6  4  1  0  0  0  0
  6  8  1  0  0  0  0
  7  6  2  0  0  0  0
  8 12  1  0  0  0  0
  8  9  1  0  0  0  0
  9 13  1  0  0  0  0
  9 10  1  1  0  0  0
 11 10  1  0  0  0  0
 12 11  1  0  0  0  0
 13 14  2  0  0  0  0
 16 19  1  0  0  0  0
 16 15  1  0  0  0  0
 17 16  2  0  0  0  0
 18 15  1  0  0  0  0
 19 20  1  0  0  0  0
 20 21  2  0  0  0  0
 21 22  1  0  0  0  0
 23 21  1  0  0  0  0
 24 23  2  0  0  0  0
 25 24  1  0  0  0  0
 25 19  2  0  0  0  0
M  END
>  <Pose>
1

>  <Score>
-7.780

$$$$
