/Users/jonathanwahrer/Desktop/Msc/3_Semester/Drug_Design_Praktikum/waehrer_HTS_screening/HTS_experiment/out/docking_results/vina_output/2qfa/0138_docked.pdbqt
 OpenBabel03162219223D

 25 28  0  0  1  0  0  0  0  0999 V2000
   44.3740    6.7030   43.6530 C   0  0  2  0  0  3  0  0  0  0  0  0
   44.6800    8.1520   43.4680 C   0  0  0  0  0  2  0  0  0  0  0  0
   43.3760    8.7950   43.7080 N   0  0  0  0  0  0  0  0  0  0  0  0
   42.4700    7.8290   44.3120 C   0  0  1  0  0  3  0  0  0  0  0  0
   43.3900    6.7660   44.8310 C   0  0  0  0  0  2  0  0  0  0  0  0
   41.7020    8.5180   45.3450 C   0  0  0  0  0  0  0  0  0  0  0  0
   41.3820    7.9450   46.3940 O   0  0  0  0  0  0  0  0  0  0  0  0
   41.3090    9.8830   45.1430 N   0  0  0  0  0  0  0  0  0  0  0  0
   41.4840   10.4030   43.8090 C   0  0  1  0  0  3  0  0  0  0  0  0
   41.1380   11.8350   43.7660 C   0  0  0  0  0  2  0  0  0  0  0  0
   40.3400   12.0150   45.0420 C   0  0  0  0  0  2  0  0  0  0  0  0
   40.7590   10.9190   45.9620 C   0  0  0  0  0  2  0  0  0  0  0  0
   42.9170   10.1190   43.4530 C   0  0  0  0  0  0  0  0  0  0  0  0
   43.6610   10.9970   42.9610 O   0  0  0  0  0  0  0  0  0  0  0  0
   45.4920    5.8760   43.9180 N   0  0  0  0  0  0  0  0  0  0  0  0
   46.2730    5.3720   42.8550 C   0  0  0  0  0  0  0  0  0  0  0  0
   45.9600    5.6700   41.6500 O   0  0  0  0  0  0  0  0  0  0  0  0
   45.7490    5.6320   44.8910 H   0  0  0  0  0  0  0  0  0  0  0  0
   47.4390    4.5180   43.0020 C   0  0  0  0  0  0  0  0  0  0  0  0
   48.3650    4.6840   44.0010 C   0  0  0  0  0  3  0  0  0  0  0  0
   49.4710    3.8870   44.1520 C   0  0  0  0  0  0  0  0  0  0  0  0
   50.7330    4.1480   45.5490 Br  0  0  0  0  0  0  0  0  0  0  0  0
   49.6830    2.8550   43.2630 C   0  0  0  0  0  3  0  0  0  0  0  0
   48.7740    2.6480   42.2380 C   0  0  0  0  0  3  0  0  0  0  0  0
   47.6560    3.4880   42.1190 C   0  0  0  0  0  3  0  0  0  0  0  0
  1 15  1  1  0  0  0
  1  5  1  0  0  0  0
  2  1  1  0  0  0  0
  2  3  1  0  0  0  0
  3  4  1  0  0  0  0
  4  5  1  1  0  0  0
  4  6  1  0  0  0  0
  6  7  2  0  0  0  0
  8  6  1  0  0  0  0
  8 12  1  0  0  0  0
  9 10  1  1  0  0  0
  9  8  1  0  0  0  0
 10 11  1  0  0  0  0
 11 12  1  0  0  0  0
 13  3  1  0  0  0  0
 13  9  1  0  0  0  0
 14 13  2  0  0  0  0
 15 18  1  0  0  0  0
 16 19  1  0  0  0  0
 16 15  1  0  0  0  0
 17 16  2  0  0  0  0
 19 20  1  0  0  0  0
 20 21  2  0  0  0  0
 21 22  1  0  0  0  0
 23 21  1  0  0  0  0
 24 23  2  0  0  0  0
 25 24  1  0  0  0  0
 25 19  2  0  0  0  0
M  END
>  <Pose>
1

>  <Score>
-8.038

$$$$
