/Users/jonathanwahrer/Desktop/Msc/3_Semester/Drug_Design_Praktikum/waehrer_HTS_screening/HTS_experiment/out/docking_results/vina_output/2qfa/0152_docked.pdbqt
 OpenBabel03162219223D

 27 30  0  0  0  0  0  0  0  0999 V2000
   42.5050    9.2760   42.9520 C   0  0  0  0  0  3  0  0  0  0  0  0
   42.0310   10.2400   43.7500 C   0  0  0  0  0  0  0  0  0  0  0  0
   42.1680   10.3070   45.0740 O   0  0  0  0  0  0  0  0  0  0  0  0
   41.5580   11.4900   45.5620 C   0  0  0  0  0  0  0  0  0  0  0  0
   41.0180   12.2100   44.5510 C   0  0  0  0  0  0  0  0  0  0  0  0
   40.4460   13.4420   44.8560 C   0  0  0  0  0  3  0  0  0  0  0  0
   40.4140   13.8900   46.1400 C   0  0  0  0  0  3  0  0  0  0  0  0
   40.9450   13.1180   47.1540 C   0  0  0  0  0  0  0  0  0  0  0  0
   41.5310   11.8960   46.9250 C   0  0  0  0  0  0  0  0  0  0  0  0
   40.8780   13.6150   48.4580 O   0  0  0  0  0  1  0  0  0  0  0  0
   41.2870   11.4310   43.3190 C   0  0  0  0  0  0  0  0  0  0  0  0
   40.9440   11.7270   42.1590 O   0  0  0  0  0  0  0  0  0  0  0  0
   43.2790    8.1450   43.5310 C   0  0  0  0  0  0  0  0  0  0  0  0
   44.6690    8.1050   43.3450 C   0  0  0  0  0  3  0  0  0  0  0  0
   45.4020    6.9260   43.5330 C   0  0  0  0  0  0  0  0  0  0  0  0
   47.2840    6.9900   43.2240 Br  0  0  0  0  0  0  0  0  0  0  0  0
   44.7910    5.7850   43.9060 C   0  0  0  0  0  3  0  0  0  0  0  0
   43.3860    5.7820   44.1100 C   0  0  0  0  0  3  0  0  0  0  0  0
   42.6710    6.9840   43.9140 C   0  0  0  0  0  3  0  0  0  0  0  0
   41.7020   10.7980   47.8550 C   0  0  0  0  0  2  0  0  0  0  0  0
   42.2030    9.5500   47.9410 N   0  0  0  0  0  4  0  0  0  0  0  0
   43.5410    9.1830   48.1110 C   0  0  0  0  0  2  0  0  0  0  0  0
   43.9340    8.9110   49.5790 C   0  0  0  0  0  2  0  0  0  0  0  0
   43.3020    7.8170   50.1200 O   0  0  0  0  0  0  0  0  0  0  0  0
   41.9760    7.7740   49.6730 C   0  0  0  0  0  2  0  0  0  0  0  0
   41.4840    9.0480   49.2260 C   0  0  0  0  0  2  0  0  0  0  0  0
   41.7600    8.9270   47.1660 H   0  0  0  0  0  0  0  0  0  0  0  0
  1 13  1  0  0  0  0
  1  2  2  0  0  0  0
  2  3  1  0  0  0  0
  3  4  1  0  0  0  0
  4  9  1  0  0  0  0
  5  6  1  0  0  0  0
  5  4  2  0  0  0  0
  6  7  2  0  0  0  0
  7  8  1  0  0  0  0
  8 10  1  0  0  0  0
  9  8  2  0  0  0  0
  9 20  1  0  0  0  0
 11  2  1  0  0  0  0
 11  5  1  0  0  0  0
 12 11  2  0  0  0  0
 13 19  1  0  0  0  0
 14 13  2  0  0  0  0
 14 15  1  0  0  0  0
 15 17  2  0  0  0  0
 16 15  1  0  0  0  0
 17 18  1  0  0  0  0
 19 18  2  0  0  0  0
 20 21  1  0  0  0  0
 21 22  1  0  0  0  0
 21 26  1  0  0  0  0
 22 23  1  0  0  0  0
 23 24  1  0  0  0  0
 25 24  1  0  0  0  0
 26 25  1  0  0  0  0
 27 21  1  0  0  0  0
M  END
>  <Pose>
1

>  <Score>
-6.697

$$$$
