/Users/jonathanwahrer/Desktop/Msc/3_Semester/Drug_Design_Praktikum/waehrer_HTS_screening/HTS_experiment/out/docking_results/vina_output/2qfa/0156_docked.pdbqt
 OpenBabel03162219233D

 29 32  0  0  0  0  0  0  0  0999 V2000
   48.3480    3.7860   42.8800 C   0  0  0  0  0  0  0  0  0  0  0  0
   48.6000    4.2720   44.1000 N   0  0  0  0  0  4  0  0  0  0  0  0
   49.5940    3.7940   44.8990 C   0  0  0  0  0  0  0  0  0  0  0  0
   50.3240    2.7840   44.3800 N   0  0  0  0  0  0  0  0  0  0  0  0
   50.1200    2.2530   43.1620 C   0  0  0  0  0  0  0  0  0  0  0  0
   49.1100    2.7900   42.4340 N   0  0  0  0  0  2  0  0  0  0  0  0
   47.2940    4.3330   42.0970 N   0  0  0  0  0  0  0  0  0  0  0  0
   47.3270    4.2800   41.0580 H   0  0  0  0  0  0  0  0  0  0  0  0
   46.1920    4.9550   42.6900 N   0  0  0  0  0  0  0  0  0  0  0  0
   45.9790    6.2120   42.6930 C   0  0  0  0  0  3  0  0  0  0  0  0
   44.8210    6.8330   43.3220 C   0  0  0  0  0  0  0  0  0  0  0  0
   44.5450    8.1830   43.1850 C   0  0  0  0  0  3  0  0  0  0  0  0
   43.4630    8.7970   43.7660 C   0  0  0  0  0  0  0  0  0  0  0  0
   43.1380   10.6700   43.5340 Br  0  0  0  0  0  0  0  0  0  0  0  0
   42.6000    8.0370   44.5280 C   0  0  0  0  0  3  0  0  0  0  0  0
   42.8310    6.6880   44.6960 C   0  0  0  0  0  3  0  0  0  0  0  0
   43.9400    6.1020   44.0910 C   0  0  0  0  0  3  0  0  0  0  0  0
   49.8400    4.3240   46.1850 N   0  0  0  0  0  0  0  0  0  0  0  0
   50.1360    5.7180   46.3610 C   0  0  0  0  0  2  0  0  0  0  0  0
   49.1470    6.2540   47.3900 C   0  0  0  0  0  2  0  0  0  0  0  0
   49.3610    5.5210   48.5540 O   0  0  0  0  0  0  0  0  0  0  0  0
   48.9810    4.1980   48.4200 C   0  0  0  0  0  2  0  0  0  0  0  0
   49.8030    3.4850   47.3510 C   0  0  0  0  0  2  0  0  0  0  0  0
   50.8950    1.2010   42.6460 N   0  0  0  0  0  0  0  0  0  0  0  0
   52.0630    1.4360   41.8410 C   0  0  0  0  0  2  0  0  0  0  0  0
   53.0780    0.3620   42.2520 C   0  0  0  0  0  2  0  0  0  0  0  0
   52.8430   -0.0490   43.5620 O   0  0  0  0  0  0  0  0  0  0  0  0
   51.6840   -0.7640   43.7280 C   0  0  0  0  0  2  0  0  0  0  0  0
   50.5290   -0.1600   42.9160 C   0  0  0  0  0  2  0  0  0  0  0  0
  1  2  2  0  0  0  0
  2  3  2  0  0  0  0
  3 18  1  0  0  0  0
  4  3  1  0  0  0  0
  5  4  2  0  0  0  0
  6  1  1  0  0  0  0
  6  5  1  0  0  0  0
  7  9  1  0  0  0  0
  7  1  1  0  0  0  0
  8  7  1  0  0  0  0
  9 10  2  0  0  0  0
 10 11  1  0  0  0  0
 11 17  1  0  0  0  0
 12 11  2  0  0  0  0
 12 13  1  0  0  0  0
 13 15  2  0  0  0  0
 14 13  1  0  0  0  0
 15 16  1  0  0  0  0
 17 16  2  0  0  0  0
 18 19  1  0  0  0  0
 18 23  1  0  0  0  0
 19 20  1  0  0  0  0
 20 21  1  0  0  0  0
 22 21  1  0  0  0  0
 23 22  1  0  0  0  0
 24 29  1  0  0  0  0
 24  5  1  0  0  0  0
 25 26  1  0  0  0  0
 25 24  1  0  0  0  0
 26 27  1  0  0  0  0
 27 28  1  0  0  0  0
 29 28  1  0  0  0  0
M  END
>  <Pose>
1

>  <Score>
-7.398

$$$$
