/Users/jonathanwahrer/Desktop/Msc/3_Semester/Drug_Design_Praktikum/waehrer_HTS_screening/HTS_experiment/out/docking_results/vina_output/2qfa/0169_docked.pdbqt
 OpenBabel03162219243D

 37 40  0  0  1  0  0  0  0  0999 V2000
   42.1780   11.0670   45.2500 C   0  0  2  0  0  3  0  0  0  0  0  0
   42.1640   10.4710   43.9290 N   0  0  0  0  0  0  0  0  0  0  0  0
   41.4440   11.3680   43.0960 C   0  0  0  0  0  0  0  0  0  0  0  0
   41.5430   11.5000   41.8560 O   0  0  0  0  0  0  0  0  0  0  0  0
   40.5380   12.1360   43.9780 C   0  0  0  0  0  0  0  0  0  0  0  0
   39.7260   13.0260   43.6410 O   0  0  0  0  0  0  0  0  0  0  0  0
   40.7850   11.6350   45.3220 C   0  0  0  0  0  0  0  0  0  0  0  0
   39.9420   11.6540   46.3090 C   0  0  0  0  0  0  0  0  0  0  0  0
   40.3340   11.0630   47.5280 O   0  0  0  0  0  1  0  0  0  0  0  0
   43.1790   12.1600   45.2590 C   0  0  0  0  0  0  0  0  0  0  0  0
   43.0750   13.2380   46.1280 C   0  0  0  0  0  3  0  0  0  0  0  0
   43.9980   14.2620   46.1360 C   0  0  0  0  0  0  0  0  0  0  0  0
   43.7940   15.7130   47.3570 Br  0  0  0  0  0  0  0  0  0  0  0  0
   45.0740   14.2620   45.2740 C   0  0  0  0  0  3  0  0  0  0  0  0
   45.1980   13.2030   44.4020 C   0  0  0  0  0  3  0  0  0  0  0  0
   44.2700   12.1840   44.4030 C   0  0  0  0  0  3  0  0  0  0  0  0
   38.6110   12.2420   46.2770 C   0  0  0  0  0  0  0  0  0  0  0  0
   37.3810   11.7530   45.9900 C   0  0  0  0  0  0  0  0  0  0  0  0
   36.4810   12.7400   46.1740 N   0  0  0  0  0  0  0  0  0  0  0  0
   37.0270   10.3790   45.4980 C   0  0  0  0  0  1  0  0  0  0  0  0
   37.0760   13.8710   46.5730 C   0  0  0  0  0  0  0  0  0  0  0  0
   35.4370   12.6270   46.0180 H   0  0  0  0  0  0  0  0  0  0  0  0
   38.4130   13.5880   46.6460 C   0  0  0  0  0  0  0  0  0  0  0  0
   39.4800   14.5520   47.0520 C   0  0  0  0  0  1  0  0  0  0  0  0
   36.4240   15.1620   46.8730 C   0  0  0  0  0  0  0  0  0  0  0  0
   36.0610   15.4010   48.0340 O   0  0  0  0  0  0  0  0  0  0  0  0
   36.2180   16.0970   45.8760 O   0  0  0  0  0  0  0  0  0  0  0  0
   35.3510   15.8990   44.7830 C   0  0  0  0  0  1  0  0  0  0  0  0
   42.7640    9.1980   43.5210 C   0  0  0  0  0  2  0  0  0  0  0  0
   43.4100    8.4980   44.6970 C   0  0  0  0  0  2  0  0  0  0  0  0
   44.4800    7.6270   44.3370 N   0  0  0  0  0  4  0  0  0  0  0  0
   45.2270    8.0640   43.1630 C   0  0  0  0  0  2  0  0  0  0  0  0
   46.5500    7.3470   43.1750 C   0  0  0  0  0  2  0  0  0  0  0  0
   46.4360    6.1930   43.9090 O   0  0  0  0  0  0  0  0  0  0  0  0
   45.2740    5.4780   43.6740 C   0  0  0  0  0  2  0  0  0  0  0  0
   44.0210    6.2810   44.0190 C   0  0  0  0  0  2  0  0  0  0  0  0
   45.1210    7.5180   45.1430 H   0  0  0  0  0  0  0  0  0  0  0  0
  1 10  1  6  0  0  0
  1  7  1  0  0  0  0
  2  1  1  0  0  0  0
  3  2  1  0  0  0  0
  3  5  1  0  0  0  0
  4  3  2  0  0  0  0
  5  7  1  0  0  0  0
  6  5  2  0  0  0  0
  7  8  2  0  0  0  0
  8  9  1  0  0  0  0
 10 11  1  0  0  0  0
 11 12  2  0  0  0  0
 12 13  1  0  0  0  0
 14 12  1  0  0  0  0
 15 16  1  0  0  0  0
 15 14  2  0  0  0  0
 16 10  2  0  0  0  0
 17  8  1  0  0  0  0
 17 23  1  0  0  0  0
 18 19  1  0  0  0  0
 18 17  2  0  0  0  0
 19 21  1  0  0  0  0
 20 18  1  0  0  0  0
 21 23  2  0  0  0  0
 21 25  1  0  0  0  0
 22 19  1  0  0  0  0
 23 24  1  0  0  0  0
 25 26  2  0  0  0  0
 27 25  1  0  0  0  0
 28 27  1  0  0  0  0
 29  2  1  0  0  0  0
 29 30  1  0  0  0  0
 31 30  1  0  0  0  0
 31 37  1  0  0  0  0
 32 33  1  0  0  0  0
 32 31  1  0  0  0  0
 33 34  1  0  0  0  0
 35 34  1  0  0  0  0
 35 36  1  0  0  0  0
 36 31  1  0  0  0  0
M  END
>  <Pose>
1

>  <Score>
-6.949

$$$$
