/Users/jonathanwahrer/Desktop/Msc/3_Semester/Drug_Design_Praktikum/waehrer_HTS_screening/HTS_experiment/out/docking_results/vina_output/2qfa/0175_docked.pdbqt
 OpenBabel03162219253D

 32 35  0  0  1  0  0  0  0  0999 V2000
   41.9140   11.0720   45.5100 C   0  0  2  0  0  3  0  0  0  0  0  0
   41.2670   10.8240   46.7640 N   0  0  0  0  0  0  0  0  0  0  0  0
   42.1030    9.9210   47.4720 C   0  0  0  0  0  0  0  0  0  0  0  0
   42.0780    9.7150   48.7110 O   0  0  0  0  0  0  0  0  0  0  0  0
   43.0170    9.2510   46.5170 C   0  0  0  0  0  0  0  0  0  0  0  0
   43.8860    8.3990   46.7650 O   0  0  0  0  0  0  0  0  0  0  0  0
   42.6790    9.8060   45.2200 C   0  0  0  0  0  0  0  0  0  0  0  0
   42.9310    9.3010   44.0330 C   0  0  0  0  0  0  0  0  0  0  0  0
   42.4700    9.9420   42.9020 O   0  0  0  0  0  1  0  0  0  0  0  0
   39.9920   11.3780   47.2590 C   0  0  0  0  0  2  0  0  0  0  0  0
   38.8910   10.4950   46.7410 C   0  0  0  0  0  2  0  0  0  0  0  0
   38.3130   10.9060   45.5130 N   0  0  0  0  0  4  0  0  0  0  0  0
   37.0790   10.2710   45.1530 C   0  0  0  0  0  2  0  0  0  0  0  0
   35.8490   10.9950   45.6260 C   0  0  0  0  0  2  0  0  0  0  0  0
   35.9200   12.3630   45.4840 O   0  0  0  0  0  0  0  0  0  0  0  0
   37.0130   12.8980   46.1240 C   0  0  0  0  0  2  0  0  0  0  0  0
   38.2490   12.3450   45.4670 C   0  0  0  0  0  2  0  0  0  0  0  0
   39.0120   10.6500   44.7520 H   0  0  0  0  0  0  0  0  0  0  0  0
   42.8460   12.2340   45.5590 C   0  0  0  0  0  0  0  0  0  0  0  0
   42.5920   13.3520   46.3260 C   0  0  0  0  0  3  0  0  0  0  0  0
   43.4600   14.4380   46.3740 C   0  0  0  0  0  0  0  0  0  0  0  0
   43.0690   15.9680   47.4490 Br  0  0  0  0  0  0  0  0  0  0  0  0
   44.6020   14.3980   45.6380 C   0  0  0  0  0  3  0  0  0  0  0  0
   44.8980   13.3080   44.8600 C   0  0  0  0  0  3  0  0  0  0  0  0
   44.0240   12.2420   44.8270 C   0  0  0  0  0  3  0  0  0  0  0  0
   43.6890    8.0860   43.8720 C   0  0  0  0  0  0  0  0  0  0  0  0
   43.2500    6.8160   44.1080 C   0  0  0  0  0  3  0  0  0  0  0  0
   44.0770    5.7340   43.8710 C   0  0  0  0  0  3  0  0  0  0  0  0
   45.3630    5.8510   43.3950 C   0  0  0  0  0  0  0  0  0  0  0  0
   45.8060    7.1350   43.1570 C   0  0  0  0  0  3  0  0  0  0  0  0
   46.2340    4.6680   43.1480 C   0  0  0  0  0  1  0  0  0  0  0  0
   45.0000    8.2230   43.3870 C   0  0  0  0  0  3  0  0  0  0  0  0
  1 19  1  1  0  0  0
  1  2  1  0  0  0  0
  2 10  1  0  0  0  0
  2  3  1  0  0  0  0
  3  4  2  0  0  0  0
  5  6  2  0  0  0  0
  5  3  1  0  0  0  0
  7  1  1  0  0  0  0
  7  5  1  0  0  0  0
  8  7  2  0  0  0  0
  9  8  1  0  0  0  0
 11 10  1  0  0  0  0
 12 11  1  0  0  0  0
 13 12  1  0  0  0  0
 13 14  1  0  0  0  0
 15 14  1  0  0  0  0
 15 16  1  0  0  0  0
 17 12  1  0  0  0  0
 17 16  1  0  0  0  0
 18 12  1  0  0  0  0
 19 20  1  0  0  0  0
 20 21  2  0  0  0  0
 21 22  1  0  0  0  0
 23 21  1  0  0  0  0
 24 23  2  0  0  0  0
 25 24  1  0  0  0  0
 25 19  2  0  0  0  0
 26  8  1  0  0  0  0
 26 27  1  0  0  0  0
 28 27  2  0  0  0  0
 29 28  1  0  0  0  0
 30 32  1  0  0  0  0
 30 29  2  0  0  0  0
 31 29  1  0  0  0  0
 32 26  2  0  0  0  0
M  END
>  <Pose>
1

>  <Score>
-7.837

$$$$
