/Users/jonathanwahrer/Desktop/Msc/3_Semester/Drug_Design_Praktikum/waehrer_HTS_screening/HTS_experiment/out/docking_results/vina_output/2qfa/0176_docked.pdbqt
 OpenBabel03162219263D

 33 36  0  0  1  0  0  0  0  0999 V2000
   42.0500   11.7670   44.6300 C   0  0  1  0  0  3  0  0  0  0  0  0
   42.6340   10.4460   44.7920 N   0  0  0  0  0  0  0  0  0  0  0  0
   42.1450    9.9210   46.0430 C   0  0  0  0  0  0  0  0  0  0  0  0
   42.6700    8.9710   46.6740 O   0  0  0  0  0  0  0  0  0  0  0  0
   40.9720   10.6920   46.3960 C   0  0  0  0  0  0  0  0  0  0  0  0
   40.2310   10.5700   47.4210 O   0  0  0  0  0  0  0  0  0  0  0  0
   40.7630   11.6790   45.3450 C   0  0  0  0  0  0  0  0  0  0  0  0
   39.6430   12.3580   45.1430 C   0  0  0  0  0  0  0  0  0  0  0  0
   39.7210   13.2960   44.0910 O   0  0  0  0  0  1  0  0  0  0  0  0
   43.5930    9.8470   43.9200 C   0  0  0  0  0  2  0  0  0  0  0  0
   43.3170    8.5170   43.3480 C   0  0  0  0  0  2  0  0  0  0  0  0
   44.0940    7.3360   43.7980 C   0  0  0  0  0  2  0  0  0  0  0  0
   45.0300    6.7590   42.8930 N   0  0  0  0  0  4  0  0  0  0  0  0
   46.2880    7.4610   42.9380 C   0  0  0  0  0  2  0  0  0  0  0  0
   47.2780    6.8560   43.9100 C   0  0  0  0  0  2  0  0  0  0  0  0
   47.6520    5.5800   43.4810 O   0  0  0  0  0  0  0  0  0  0  0  0
   46.6570    5.0130   42.6820 C   0  0  0  0  0  2  0  0  0  0  0  0
   45.3360    5.3560   43.3120 C   0  0  0  0  0  2  0  0  0  0  0  0
   44.6590    6.6450   41.9530 H   0  0  0  0  0  0  0  0  0  0  0  0
   42.9510   12.8110   45.1790 C   0  0  0  0  0  0  0  0  0  0  0  0
   42.4590   13.7730   46.0310 C   0  0  0  0  0  3  0  0  0  0  0  0
   43.2610   14.7700   46.5670 C   0  0  0  0  0  0  0  0  0  0  0  0
   42.5930   16.1000   47.7480 Br  0  0  0  0  0  0  0  0  0  0  0  0
   44.6020   14.8180   46.2490 C   0  0  0  0  0  3  0  0  0  0  0  0
   45.0970   13.8570   45.3970 C   0  0  0  0  0  3  0  0  0  0  0  0
   44.2770   12.8540   44.8630 C   0  0  0  0  0  3  0  0  0  0  0  0
   38.4180   12.1870   45.9050 C   0  0  0  0  0  0  0  0  0  0  0  0
   37.4810   11.2020   45.6950 C   0  0  0  0  0  3  0  0  0  0  0  0
   36.3500   11.0680   46.4750 C   0  0  0  0  0  3  0  0  0  0  0  0
   36.1100   11.9360   47.5160 C   0  0  0  0  0  0  0  0  0  0  0  0
   37.0400   12.9320   47.7410 C   0  0  0  0  0  3  0  0  0  0  0  0
   34.6700   11.7850   48.5280 Cl  0  0  0  0  0  0  0  0  0  0  0  0
   38.1690   13.0580   46.9550 C   0  0  0  0  0  3  0  0  0  0  0  0
  1  2  1  0  0  0  0
  1 20  1  1  0  0  0
  1  7  1  0  0  0  0
  2  3  1  0  0  0  0
  3  5  1  0  0  0  0
  3  4  2  0  0  0  0
  5  6  2  0  0  0  0
  7  5  1  0  0  0  0
  8  7  2  0  0  0  0
  8 27  1  0  0  0  0
  9  8  1  0  0  0  0
 10  2  1  0  0  0  0
 11 12  1  0  0  0  0
 11 10  1  0  0  0  0
 13 14  1  0  0  0  0
 13 18  1  0  0  0  0
 13 12  1  0  0  0  0
 14 15  1  0  0  0  0
 16 15  1  0  0  0  0
 17 18  1  0  0  0  0
 17 16  1  0  0  0  0
 19 13  1  0  0  0  0
 20 21  1  0  0  0  0
 21 22  2  0  0  0  0
 22 23  1  0  0  0  0
 24 22  1  0  0  0  0
 25 24  2  0  0  0  0
 26 20  2  0  0  0  0
 26 25  1  0  0  0  0
 27 33  1  0  0  0  0
 28 27  2  0  0  0  0
 28 29  1  0  0  0  0
 29 30  2  0  0  0  0
 30 31  1  0  0  0  0
 30 32  1  0  0  0  0
 33 31  2  0  0  0  0
M  END
>  <Pose>
1

>  <Score>
-7.266

$$$$
