/Users/jonathanwahrer/Desktop/Msc/3_Semester/Drug_Design_Praktikum/waehrer_HTS_screening/HTS_experiment/out/docking_results/vina_output/2qfa/0182_docked.pdbqt
 OpenBabel03162219263D

 36 40  0  0  1  0  0  0  0  0999 V2000
   39.6900   11.9530   46.2880 C   0  0  2  0  0  3  0  0  0  0  0  0
   40.0140   11.6520   44.9370 N   0  0  0  0  0  0  0  0  0  0  0  0
   40.1560   12.9750   44.3210 C   0  0  0  0  0  0  0  0  0  0  0  0
   39.9670   13.2510   43.1260 O   0  0  0  0  0  0  0  0  0  0  0  0
   40.5650   13.8880   45.4010 C   0  0  0  0  0  0  0  0  0  0  0  0
   40.8050   15.1150   45.3270 O   0  0  0  0  0  0  0  0  0  0  0  0
   40.6400   13.0600   46.6020 C   0  0  0  0  0  0  0  0  0  0  0  0
   41.4020   13.2580   47.6470 C   0  0  0  0  0  0  0  0  0  0  0  0
   41.3540   12.2850   48.6690 O   0  0  0  0  0  1  0  0  0  0  0  0
   39.5590   10.9140   47.2640 C   0  0  0  0  0  0  0  0  0  0  0  0
   38.4250   10.8910   48.1010 C   0  0  0  0  0  3  0  0  0  0  0  0
   38.2250    9.9430   49.0690 C   0  0  0  0  0  0  0  0  0  0  0  0
   36.6560    9.9750   50.1680 Br  0  0  0  0  0  0  0  0  0  0  0  0
   39.1380    8.9440   49.2790 C   0  0  0  0  0  3  0  0  0  0  0  0
   40.2630    8.9240   48.4870 C   0  0  0  0  0  3  0  0  0  0  0  0
   40.4440    9.8890   47.5200 C   0  0  0  0  0  3  0  0  0  0  0  0
   42.2660   14.4200   47.7910 C   0  0  0  0  0  0  0  0  0  0  0  0
   43.4500   14.7270   47.2410 N   0  0  0  0  0  0  0  0  0  0  0  0
   43.8770   15.8990   47.7190 C   0  0  0  0  0  0  0  0  0  0  0  0
   44.1560   14.0140   46.3200 C   0  0  0  0  0  3  0  0  0  0  0  0
   42.9370   16.3450   48.5930 N   0  0  0  0  0  0  0  0  0  0  0  0
   45.0800   16.4650   47.3030 C   0  0  0  0  0  0  0  0  0  0  0  0
   41.9300   15.4650   48.6650 C   0  0  0  0  0  0  0  0  0  0  0  0
   40.7020   15.5720   49.5040 C   0  0  0  0  0  1  0  0  0  0  0  0
   45.8170   15.7630   46.3690 C   0  0  0  0  0  3  0  0  0  0  0  0
   45.5060   17.7680   47.8690 C   0  0  0  0  0  1  0  0  0  0  0  0
   45.3460   14.5530   45.8930 C   0  0  0  0  0  3  0  0  0  0  0  0
   40.1540   10.4260   44.1700 C   0  0  0  0  0  2  0  0  0  0  0  0
   41.5560    9.9910   43.9180 C   0  0  0  0  0  2  0  0  0  0  0  0
   41.7080    8.5500   43.9110 N   0  0  0  0  0  4  0  0  0  0  0  0
   42.6450    8.1210   42.8970 C   0  0  0  0  0  2  0  0  0  0  0  0
   44.0710    8.4790   43.3300 C   0  0  0  0  0  2  0  0  0  0  0  0
   44.3300    7.6990   44.4630 O   0  0  0  0  0  0  0  0  0  0  0  0
   43.5380    8.2500   45.4910 C   0  0  0  0  0  2  0  0  0  0  0  0
   42.0660    8.0460   45.2220 C   0  0  0  0  0  2  0  0  0  0  0  0
   40.7860    8.1130   43.6660 H   0  0  0  0  0  0  0  0  0  0  0  0
  1  7  1  0  0  0  0
  1 10  1  1  0  0  0
  2  1  1  0  0  0  0
  3  2  1  0  0  0  0
  3  5  1  0  0  0  0
  4  3  2  0  0  0  0
  5  7  1  0  0  0  0
  6  5  2  0  0  0  0
  7  8  2  0  0  0  0
  8 17  1  0  0  0  0
  8  9  1  0  0  0  0
 10 16  2  0  0  0  0
 10 11  1  0  0  0  0
 11 12  2  0  0  0  0
 12 14  1  0  0  0  0
 12 13  1  0  0  0  0
 15 14  2  0  0  0  0
 16 15  1  0  0  0  0
 17 23  2  0  0  0  0
 18 19  1  0  0  0  0
 18 17  1  0  0  0  0
 19 21  2  0  0  0  0
 20 18  1  0  0  0  0
 21 23  1  0  0  0  0
 22 19  1  0  0  0  0
 22 26  1  0  0  0  0
 23 24  1  0  0  0  0
 25 22  2  0  0  0  0
 27 20  2  0  0  0  0
 27 25  1  0  0  0  0
 28  2  1  0  0  0  0
 29 28  1  0  0  0  0
 30 29  1  0  0  0  0
 30 35  1  0  0  0  0
 31 32  1  0  0  0  0
 31 30  1  0  0  0  0
 32 33  1  0  0  0  0
 33 34  1  0  0  0  0
 35 34  1  0  0  0  0
 36 30  1  0  0  0  0
M  END
>  <Pose>
1

>  <Score>
-6.445

$$$$
