/Users/jonathanwahrer/Desktop/Msc/3_Semester/Drug_Design_Praktikum/waehrer_HTS_screening/HTS_experiment/out/docking_results/vina_output/2qfa/0191_docked.pdbqt
 OpenBabel03162219283D

 34 37  0  0  1  0  0  0  0  0999 V2000
   41.2580    9.6840   45.8660 C   0  0  2  0  0  3  0  0  0  0  0  0
   42.0800    8.5620   46.2730 N   0  0  0  0  0  0  0  0  0  0  0  0
   42.9630    9.0750   47.2950 C   0  0  0  0  0  0  0  0  0  0  0  0
   43.5380    8.3870   48.1720 O   0  0  0  0  0  0  0  0  0  0  0  0
   43.0400   10.5250   47.0930 C   0  0  0  0  0  0  0  0  0  0  0  0
   43.6940   11.3730   47.7530 O   0  0  0  0  0  0  0  0  0  0  0  0
   42.2000   10.8620   45.9500 C   0  0  0  0  0  0  0  0  0  0  0  0
   42.2560   11.9460   45.1950 C   0  0  0  0  0  0  0  0  0  0  0  0
   41.3600   12.0960   44.1670 O   0  0  0  0  0  1  0  0  0  0  0  0
   40.0750    9.8950   46.7380 C   0  0  0  0  0  0  0  0  0  0  0  0
   39.1060   10.8520   46.4290 C   0  0  0  0  0  3  0  0  0  0  0  0
   38.0060   11.0830   47.2040 C   0  0  0  0  0  0  0  0  0  0  0  0
   36.7210   12.4240   46.6970 Br  0  0  0  0  0  0  0  0  0  0  0  0
   37.8120   10.3580   48.3430 C   0  0  0  0  0  3  0  0  0  0  0  0
   38.7290    9.4090   48.6920 C   0  0  0  0  0  3  0  0  0  0  0  0
   39.8470    9.1830   47.8940 C   0  0  0  0  0  3  0  0  0  0  0  0
   43.2630   12.9970   45.4340 C   0  0  0  0  0  0  0  0  0  0  0  0
   43.1580   13.9650   46.3020 O   0  0  0  0  0  0  0  0  0  0  0  0
   44.1760   14.7580   46.3210 C   0  0  0  0  0  0  0  0  0  0  0  0
   45.0600   14.2900   45.3780 C   0  0  0  0  0  0  0  0  0  0  0  0
   44.4350   15.8850   47.0900 C   0  0  0  0  0  0  0  0  0  0  0  0
   44.4790   13.1730   44.8170 C   0  0  0  0  0  3  0  0  0  0  0  0
   46.2430   14.9720   45.1990 C   0  0  0  0  0  3  0  0  0  0  0  0
   46.5520   16.0980   45.9350 C   0  0  0  0  0  3  0  0  0  0  0  0
   45.6230   16.5390   46.8840 C   0  0  0  0  0  3  0  0  0  0  0  0
   43.5520   16.3490   48.0320 O   0  0  0  0  0  0  0  0  0  0  0  0
   42.2570   16.8070   47.8090 C   0  0  0  0  0  1  0  0  0  0  0  0
   42.0410    7.2000   45.8000 C   0  0  0  0  0  2  0  0  0  0  0  0
   42.6930    7.0640   44.4460 C   0  0  0  0  0  2  0  0  0  0  0  0
   44.1690    6.8950   44.4690 C   0  0  0  0  0  2  0  0  0  0  0  0
   44.9130    8.0040   43.9590 N   0  0  0  0  0  4  0  0  0  0  0  0
   44.0170    8.9960   43.3570 C   0  0  0  0  0  1  0  0  0  0  0  0
   45.9060    7.6170   43.0040 C   0  0  0  0  0  1  0  0  0  0  0  0
   45.4110    8.5430   44.7240 H   0  0  0  0  0  0  0  0  0  0  0  0
  1  7  1  0  0  0  0
  1  2  1  0  0  0  0
  1 10  1  1  0  0  0
  2  3  1  0  0  0  0
  3  4  2  0  0  0  0
  5  3  1  0  0  0  0
  5  6  2  0  0  0  0
  7  5  1  0  0  0  0
  8 17  1  0  0  0  0
  8  7  2  0  0  0  0
  9  8  1  0  0  0  0
 10 16  1  0  0  0  0
 11 10  2  0  0  0  0
 11 12  1  0  0  0  0
 12 14  2  0  0  0  0
 13 12  1  0  0  0  0
 14 15  1  0  0  0  0
 16 15  2  0  0  0  0
 17 18  1  0  0  0  0
 18 19  1  0  0  0  0
 19 21  1  0  0  0  0
 20 19  2  0  0  0  0
 21 26  1  0  0  0  0
 22 20  1  0  0  0  0
 22 17  2  0  0  0  0
 23 20  1  0  0  0  0
 23 24  2  0  0  0  0
 24 25  1  0  0  0  0
 25 21  2  0  0  0  0
 27 26  1  0  0  0  0
 28  2  1  0  0  0  0
 29 30  1  0  0  0  0
 29 28  1  0  0  0  0
 31 30  1  0  0  0  0
 31 34  1  0  0  0  0
 32 31  1  0  0  0  0
 33 31  1  0  0  0  0
M  END
>  <Pose>
1

>  <Score>
-6.866

$$$$
