/Users/jonathanwahrer/Desktop/Msc/3_Semester/Drug_Design_Praktikum/waehrer_HTS_screening/HTS_experiment/out/docking_results/vina_output/2qfa/0200_docked.pdbqt
 OpenBabel03162219283D

 21 24  0  0  1  0  0  0  0  0999 V2000
   47.4150    6.4500   43.8300 C   0  0  1  0  0  3  0  0  0  0  0  0
   48.0690    6.4140   44.9860 N   0  0  0  0  0  0  0  0  0  0  0  0
   48.8800    5.4200   45.3870 C   0  0  0  0  0  0  0  0  0  0  0  0
   49.6320    5.1540   46.4690 N   0  0  0  0  0  2  0  0  0  0  0  0
   50.2440    4.0180   46.3500 O   0  0  0  0  0  0  0  0  0  0  0  0
   49.9170    3.5200   45.2100 N   0  0  0  0  0  0  0  0  0  0  0  0
   49.0730    4.3300   44.5500 C   0  0  0  0  0  0  0  0  0  0  0  0
   48.4320    4.3210   43.3710 N   0  0  0  0  0  0  0  0  0  0  0  0
   48.4550    3.4000   42.4110 N   0  0  0  0  0  0  0  0  0  0  0  0
   47.6550    3.8360   41.4260 N   0  0  0  0  0  0  0  0  0  0  0  0
   47.1540    5.0170   41.7950 N   0  0  0  0  0  0  0  0  0  0  0  0
   47.6290    5.3310   43.0030 C   0  0  0  0  0  0  0  0  0  0  0  0
   46.5520    7.4720   43.3680 N   0  0  0  0  0  0  0  0  0  0  0  0
   46.9570    8.3060   42.8540 H   0  0  0  0  0  0  0  0  0  0  0  0
   45.1520    7.4770   43.5370 C   0  0  0  0  0  0  0  0  0  0  0  0
   44.2940    8.5020   43.2400 C   0  0  0  0  0  3  0  0  0  0  0  0
   42.9210    8.4660   43.4220 C   0  0  0  0  0  0  0  0  0  0  0  0
   41.8120    9.9510   42.9760 Br  0  0  0  0  0  0  0  0  0  0  0  0
   42.3560    7.3290   43.9390 C   0  0  0  0  0  3  0  0  0  0  0  0
   43.1640    6.2600   44.2590 C   0  0  0  0  0  3  0  0  0  0  0  0
   44.5210    6.3300   44.0650 C   0  0  0  0  0  3  0  0  0  0  0  0
  1 13  1  1  0  0  0
  1  2  1  0  0  0  0
  2  3  2  0  0  0  0
  3  4  1  0  0  0  0
  5  4  1  0  0  0  0
  6  5  1  0  0  0  0
  7  6  2  0  0  0  0
  7  3  1  0  0  0  0
  8  7  1  0  0  0  0
  9  8  1  0  0  0  0
 10 11  1  0  0  0  0
 10  9  2  0  0  0  0
 11 12  2  0  0  0  0
 12  8  1  0  0  0  0
 12  1  1  0  0  0  0
 13 15  1  0  0  0  0
 14 13  1  0  0  0  0
 15 21  1  0  0  0  0
 16 17  1  0  0  0  0
 16 15  2  0  0  0  0
 17 19  2  0  0  0  0
 18 17  1  0  0  0  0
 19 20  1  0  0  0  0
 21 20  2  0  0  0  0
M  END
>  <Pose>
1

>  <Score>
-7.285

$$$$
