/Users/jonathanwahrer/Desktop/Msc/3_Semester/Drug_Design_Praktikum/waehrer_HTS_screening/HTS_experiment/out/docking_results/vina_output/2qfa/0201_docked.pdbqt
 OpenBabel03162219283D

 25 28  0  0  0  0  0  0  0  0999 V2000
   46.7350    4.6210   42.1590 C   0  0  0  0  0  0  0  0  0  0  0  0
   47.1260    5.0310   41.0380 O   0  0  0  0  0  0  0  0  0  0  0  0
   47.3240    3.4620   42.7040 N   0  0  0  0  0  0  0  0  0  0  0  0
   46.9860    3.1370   43.6370 H   0  0  0  0  0  0  0  0  0  0  0  0
   45.6870    5.3710   42.8400 C   0  0  0  0  0  0  0  0  0  0  0  0
   44.9540    4.9900   43.9140 N   0  0  0  0  0  0  0  0  0  0  0  0
   44.1130    5.9670   44.2110 N   0  0  0  0  0  0  0  0  0  0  0  0
   44.2600    6.9690   43.3840 N   0  0  0  0  0  0  0  0  0  0  0  0
   45.2300    6.6290   42.5190 C   0  0  0  0  0  3  0  0  0  0  0  0
   43.5630    8.2210   43.3380 C   0  0  0  0  0  0  0  0  0  0  0  0
   44.0550    9.3710   43.9060 C   0  0  0  0  0  3  0  0  0  0  0  0
   43.3370   10.5690   43.8340 C   0  0  0  0  0  0  0  0  0  0  0  0
   44.0170   12.1660   44.6210 Br  0  0  0  0  0  0  0  0  0  0  0  0
   42.1190   10.6240   43.1920 C   0  0  0  0  0  3  0  0  0  0  0  0
   41.6160    9.4780   42.6190 C   0  0  0  0  0  3  0  0  0  0  0  0
   42.3440    8.2860   42.6980 C   0  0  0  0  0  3  0  0  0  0  0  0
   48.3640    2.6930   42.0590 C   0  0  0  0  0  2  0  0  0  0  0  0
   49.6610    2.7950   42.8150 C   0  0  0  0  0  0  0  0  0  0  0  0
   49.8850    3.3650   44.0230 N   0  0  0  0  0  0  0  0  0  0  0  0
   51.1770    3.2420   44.3430 C   0  0  0  0  0  0  0  0  0  0  0  0
   49.1490    4.0650   45.0620 C   0  0  0  0  0  2  0  0  0  0  0  0
   51.7550    2.5850   43.3080 N   0  0  0  0  0  0  0  0  0  0  0  0
   51.4660    3.8660   45.6850 C   0  0  0  0  0  2  0  0  0  0  0  0
   50.8460    2.3170   42.3920 N   0  0  0  0  0  0  0  0  0  0  0  0
   50.2460    4.7450   45.8590 C   0  0  0  0  0  2  0  0  0  0  0  0
  1  3  1  0  0  0  0
  1  5  1  0  0  0  0
  2  1  2  0  0  0  0
  3  4  1  0  0  0  0
  5  6  1  0  0  0  0
  6  7  2  0  0  0  0
  8  7  1  0  0  0  0
  9  5  2  0  0  0  0
  9  8  1  0  0  0  0
 10  8  1  0  0  0  0
 10 11  1  0  0  0  0
 12 11  2  0  0  0  0
 12 13  1  0  0  0  0
 14 12  1  0  0  0  0
 15 16  1  0  0  0  0
 15 14  2  0  0  0  0
 16 10  2  0  0  0  0
 17  3  1  0  0  0  0
 17 18  1  0  0  0  0
 18 19  1  0  0  0  0
 19 20  1  0  0  0  0
 19 21  1  0  0  0  0
 20 23  1  0  0  0  0
 21 25  1  0  0  0  0
 22 20  2  0  0  0  0
 23 25  1  0  0  0  0
 24 18  2  0  0  0  0
 24 22  1  0  0  0  0
M  END
>  <Pose>
1

>  <Score>
-8.597

$$$$
