/Users/jonathanwahrer/Desktop/Msc/3_Semester/Drug_Design_Praktikum/waehrer_HTS_screening/HTS_experiment/out/docking_results/vina_output/2qfa/0205_docked.pdbqt
 OpenBabel03162219283D

 25 28  0  0  1  0  0  0  0  0999 V2000
   42.3580    9.8870   44.3400 N   0  0  0  0  0  0  0  0  0  0  0  0
   41.4590   10.5310   43.4140 C   0  0  0  0  0  0  0  0  0  0  0  0
   41.4030   10.2510   42.1840 O   0  0  0  0  0  0  0  0  0  0  0  0
   40.6590   11.5210   44.1320 C   0  0  2  0  0  3  0  0  0  0  0  0
   40.3380   12.6810   43.4840 O   0  0  0  0  0  0  0  0  0  0  0  0
   40.3530   13.6110   44.5220 N   0  0  0  0  0  0  0  0  0  0  0  0
   41.4290   13.2980   45.3740 C   0  0  0  0  0  0  0  0  0  0  0  0
   41.6620   11.9960   45.1580 C   0  0  0  0  0  0  0  0  0  0  0  0
   42.4760   10.8170   45.4310 C   0  0  0  0  0  0  0  0  0  0  0  0
   43.1700   10.6420   46.4540 O   0  0  0  0  0  0  0  0  0  0  0  0
   39.6940   14.3900   44.6430 H   0  0  0  0  0  0  0  0  0  0  0  0
   43.0050    8.6350   44.2360 C   0  0  0  0  0  0  0  0  0  0  0  0
   44.3300    8.5230   43.8190 C   0  0  0  0  0  3  0  0  0  0  0  0
   44.9970    7.3290   43.7050 C   0  0  0  0  0  0  0  0  0  0  0  0
   46.8100    7.2140   43.1260 Br  0  0  0  0  0  0  0  0  0  0  0  0
   44.3570    6.1450   44.0110 C   0  0  0  0  0  3  0  0  0  0  0  0
   43.0330    6.2380   44.4310 C   0  0  0  0  0  3  0  0  0  0  0  0
   42.3750    7.4390   44.5410 C   0  0  0  0  0  3  0  0  0  0  0  0
   42.1240   14.1460   46.3300 C   0  0  0  0  0  0  0  0  0  0  0  0
   43.4970   14.4100   46.3050 C   0  0  0  0  0  0  0  0  0  0  0  0
   43.7800   15.2340   47.2950 N   0  0  0  0  0  0  0  0  0  0  0  0
   44.4790   13.8430   45.3510 C   0  0  0  0  0  1  0  0  0  0  0  0
   42.6540   15.5060   47.9500 N   0  0  0  0  0  0  0  0  0  0  0  0
   45.0960   15.7670   47.6430 C   0  0  0  0  0  1  0  0  0  0  0  0
   41.6440   14.8630   47.3900 C   0  0  0  0  0  3  0  0  0  0  0  0
  1  9  1  0  0  0  0
  2  1  1  0  0  0  0
  3  2  2  0  0  0  0
  4  2  1  6  0  0  0
  4  8  1  0  0  0  0
  5  4  1  0  0  0  0
  5  6  1  0  0  0  0
  6 11  1  0  0  0  0
  6  7  1  0  0  0  0
  7 19  1  0  0  0  0
  8  7  2  0  0  0  0
  8  9  1  0  0  0  0
  9 10  2  0  0  0  0
 12  1  1  0  0  0  0
 12 18  1  0  0  0  0
 13 12  2  0  0  0  0
 14 13  1  0  0  0  0
 14 16  2  0  0  0  0
 15 14  1  0  0  0  0
 16 17  1  0  0  0  0
 17 18  2  0  0  0  0
 19 25  1  0  0  0  0
 20 19  2  0  0  0  0
 20 21  1  0  0  0  0
 21 24  1  0  0  0  0
 21 23  1  0  0  0  0
 22 20  1  0  0  0  0
 25 23  2  0  0  0  0
M  END
>  <Pose>
1

>  <Score>
-7.154

$$$$
