/Users/jonathanwahrer/Desktop/Msc/3_Semester/Drug_Design_Praktikum/waehrer_HTS_screening/HTS_experiment/out/docking_results/vina_output/2qfa/0219_docked.pdbqt
 OpenBabel03162219293D

 27 30  0  0  1  0  0  0  0  0999 V2000
   46.6680    4.6130   43.0410 N   0  0  0  0  0  0  0  0  0  0  0  0
   47.6110    4.0780   42.1220 C   0  0  0  0  0  0  0  0  0  0  0  0
   47.8210    4.7970   41.0830 O   0  0  0  0  0  0  0  0  0  0  0  0
   46.4610    4.0720   43.9070 H   0  0  0  0  0  0  0  0  0  0  0  0
   48.3270    2.7970   42.2900 C   0  0  0  0  0  2  0  0  0  0  0  0
   49.5030    2.8700   43.1130 N   0  0  0  0  0  0  0  0  0  0  0  0
   50.6900    2.1160   42.8150 C   0  0  0  0  0  0  0  0  0  0  0  0
   50.8010    1.1230   42.0540 O   0  0  0  0  0  0  0  0  0  0  0  0
   51.7930    2.7100   43.5700 C   0  0  1  0  0  3  0  0  0  0  0  0
   51.2080    3.8990   44.3580 C   0  0  2  0  0  3  0  0  0  0  0  0
   52.3150    1.8680   44.7020 C   0  0  1  0  0  3  0  0  0  0  0  0
   51.6640    3.7290   45.7640 C   0  0  2  0  0  3  0  0  0  0  0  0
   49.7440    3.6480   44.2930 C   0  0  0  0  0  0  0  0  0  0  0  0
   52.9890    2.9670   45.5480 C   0  0  0  0  0  2  0  0  0  0  0  0
   50.8780    2.6190   46.3570 C   0  0  0  0  0  2  0  0  0  0  0  0
   51.1670    1.5530   45.6190 C   0  0  0  0  0  2  0  0  0  0  0  0
   48.8690    4.0250   45.0920 O   0  0  0  0  0  0  0  0  0  0  0  0
   45.9960    5.8590   42.8250 C   0  0  0  0  0  2  0  0  0  0  0  0
   44.7330    5.9460   43.6970 C   0  0  0  0  0  2  0  0  0  0  0  0
   44.0710    7.0350   43.4800 O   0  0  0  0  0  0  0  0  0  0  0  0
   43.4080    8.1260   43.3590 C   0  0  0  0  0  0  0  0  0  0  0  0
   43.8900    9.3130   43.9400 C   0  0  0  0  0  3  0  0  0  0  0  0
   43.2350   10.5100   43.8500 C   0  0  0  0  0  0  0  0  0  0  0  0
   43.9200   12.1020   44.6510 Br  0  0  0  0  0  0  0  0  0  0  0  0
   42.0490   10.5930   43.1710 C   0  0  0  0  0  3  0  0  0  0  0  0
   41.5250    9.4610   42.5800 C   0  0  0  0  0  3  0  0  0  0  0  0
   42.1850    8.2610   42.6710 C   0  0  0  0  0  3  0  0  0  0  0  0
  1  4  1  0  0  0  0
  2  5  1  0  0  0  0
  2  1  1  0  0  0  0
  3  2  2  0  0  0  0
  5  6  1  0  0  0  0
  6 13  1  0  0  0  0
  7  6  1  0  0  0  0
  8  7  2  0  0  0  0
  9  7  1  1  0  0  0
  9 10  1  0  0  0  0
  9 11  1  0  0  0  0
 10 13  1  1  0  0  0
 10 12  1  0  0  0  0
 11 14  1  1  0  0  0
 11 16  1  0  0  0  0
 12 14  1  6  0  0  0
 12 15  1  0  0  0  0
 13 17  2  0  0  0  0
 16 15  1  0  0  0  0
 18  1  1  0  0  0  0
 18 19  1  0  0  0  0
 20 19  1  0  0  0  0
 21 20  1  0  0  0  0
 21 22  1  0  0  0  0
 23 22  2  0  0  0  0
 23 24  1  0  0  0  0
 25 23  1  0  0  0  0
 26 27  1  0  0  0  0
 26 25  2  0  0  0  0
 27 21  2  0  0  0  0
M  END
>  <Pose>
1

>  <Score>
-7.535

$$$$
