/Users/jonathanwahrer/Desktop/Msc/3_Semester/Drug_Design_Praktikum/waehrer_HTS_screening/HTS_experiment/out/docking_results/vina_output/2qfa/0226_docked.pdbqt
 OpenBabel03162219293D

 30 33  0  0  0  0  0  0  0  0999 V2000
   42.2460   11.1580   45.7570 N   0  0  0  0  0  0  0  0  0  0  0  0
   41.1990   11.8450   45.2720 C   0  0  0  0  0  0  0  0  0  0  0  0
   40.5290   12.4670   46.3090 C   0  0  0  0  0  0  0  0  0  0  0  0
   41.2090   12.1300   47.4120 N   0  0  0  0  0  0  0  0  0  0  0  0
   42.2530   11.3380   47.1080 C   0  0  0  0  0  0  0  0  0  0  0  0
   39.4420   13.2180   46.0570 N   0  0  0  0  0  0  0  0  0  0  0  0
   38.9910   13.3730   44.8000 C   0  0  0  0  0  0  0  0  0  0  0  0
   37.9810   14.0650   44.5200 O   0  0  0  0  0  0  0  0  0  0  0  0
   39.6420   12.7660   43.7690 N   0  0  0  0  0  0  0  0  0  0  0  0
   40.7330   12.0060   43.9700 C   0  0  0  0  0  0  0  0  0  0  0  0
   41.3120   11.4530   42.9790 O   0  0  0  0  0  0  0  0  0  0  0  0
   38.7180   13.8820   47.1220 C   0  0  0  0  0  1  0  0  0  0  0  0
   39.2590   12.9140   42.8060 H   0  0  0  0  0  0  0  0  0  0  0  0
   43.1980   10.3820   45.0120 C   0  0  0  0  0  2  0  0  0  0  0  0
   42.8110    8.9420   44.8850 C   0  0  0  0  0  0  0  0  0  0  0  0
   41.7190    8.5380   45.3160 O   0  0  0  0  0  0  0  0  0  0  0  0
   43.7090    7.9810   44.2480 C   0  0  0  0  0  0  0  0  0  0  0  0
   43.6130    6.6330   44.4940 C   0  0  0  0  0  3  0  0  0  0  0  0
   44.4670    5.7250   43.8910 C   0  0  0  0  0  3  0  0  0  0  0  0
   45.4600    6.1340   43.0130 C   0  0  0  0  0  0  0  0  0  0  0  0
   46.6120    4.8540   42.2060 Br  0  0  0  0  0  0  0  0  0  0  0  0
   45.5590    7.4850   42.7660 C   0  0  0  0  0  3  0  0  0  0  0  0
   44.7030    8.3760   43.3710 C   0  0  0  0  0  3  0  0  0  0  0  0
   43.2190   10.7700   47.9730 N   0  0  0  0  0  0  0  0  0  0  0  0
   44.4120   11.5000   48.2540 C   0  0  0  0  0  2  0  0  0  0  0  0
   45.2220   11.0540   49.4140 C   0  0  0  0  0  2  0  0  0  0  0  0
   45.0710    9.6790   49.7890 N   0  0  0  0  0  0  0  0  0  0  0  0
   43.6540    9.4070   49.9330 C   0  0  0  0  0  2  0  0  0  0  0  0
   45.7290    8.7630   48.9020 C   0  0  0  0  0  1  0  0  0  0  0  0
   42.9900    9.4840   48.5570 C   0  0  0  0  0  2  0  0  0  0  0  0
  1  5  1  0  0  0  0
  2  1  1  0  0  0  0
  2  3  2  0  0  0  0
  3  4  1  0  0  0  0
  5  4  2  0  0  0  0
  5 24  1  0  0  0  0
  6  3  1  0  0  0  0
  6 12  1  0  0  0  0
  7  6  1  0  0  0  0
  8  7  2  0  0  0  0
  9 10  1  0  0  0  0
  9  7  1  0  0  0  0
 10  2  1  0  0  0  0
 11 10  2  0  0  0  0
 13  9  1  0  0  0  0
 14  1  1  0  0  0  0
 15 14  1  0  0  0  0
 15 16  2  0  0  0  0
 17 18  1  0  0  0  0
 17 15  1  0  0  0  0
 19 18  2  0  0  0  0
 20 19  1  0  0  0  0
 21 20  1  0  0  0  0
 22 20  2  0  0  0  0
 22 23  1  0  0  0  0
 23 17  2  0  0  0  0
 24 25  1  0  0  0  0
 24 30  1  0  0  0  0
 25 26  1  0  0  0  0
 26 27  1  0  0  0  0
 27 28  1  0  0  0  0
 29 27  1  0  0  0  0
 30 28  1  0  0  0  0
M  END
>  <Pose>
1

>  <Score>
-6.678

$$$$
