/Users/jonathanwahrer/Desktop/Msc/3_Semester/Drug_Design_Praktikum/waehrer_HTS_screening/HTS_experiment/out/docking_results/vina_output/2qfa/0243_docked.pdbqt
 OpenBabel03162219303D

 30 33  0  0  1  0  0  0  0  0999 V2000
   40.9460   11.0000   45.5300 C   0  0  2  0  0  3  0  0  0  0  0  0
   41.2740    9.5950   45.9710 C   0  0  0  0  0  2  0  0  0  0  0  0
   42.1570    9.0940   44.9390 N   0  0  0  0  0  0  0  0  0  0  0  0
   42.0280    9.9030   43.7390 C   0  0  1  0  0  3  0  0  0  0  0  0
   41.1150   11.0410   44.0360 C   0  0  0  0  0  2  0  0  0  0  0  0
   43.4010   10.3240   43.3800 C   0  0  0  0  0  0  0  0  0  0  0  0
   43.6270   11.5280   43.1230 O   0  0  0  0  0  0  0  0  0  0  0  0
   44.4140    9.3360   43.3430 N   0  0  0  0  0  0  0  0  0  0  0  0
   44.3010    8.0470   43.9870 C   0  0  1  0  0  3  0  0  0  0  0  0
   43.0870    8.0220   44.8510 C   0  0  0  0  0  0  0  0  0  0  0  0
   42.8410    6.9880   45.5690 O   0  0  0  0  0  0  0  0  0  0  0  0
   45.2870    9.5860   42.8080 H   0  0  0  0  0  0  0  0  0  0  0  0
   41.8340   11.9780   46.1050 N   0  0  0  0  0  0  0  0  0  0  0  0
   41.6930   13.3370   45.8130 C   0  0  0  0  0  0  0  0  0  0  0  0
   40.7710   13.7440   45.0280 O   0  0  0  0  0  0  0  0  0  0  0  0
   42.5810   11.6510   46.7410 H   0  0  0  0  0  0  0  0  0  0  0  0
   42.5660   14.3810   46.3670 C   0  0  0  0  0  0  0  0  0  0  0  0
   42.0630   15.4330   47.1030 C   0  0  0  0  0  3  0  0  0  0  0  0
   42.8830   16.4130   47.6250 C   0  0  0  0  0  3  0  0  0  0  0  0
   44.2500   16.3950   47.4360 C   0  0  0  0  0  0  0  0  0  0  0  0
   45.4160   17.7220   48.1350 Br  0  0  0  0  0  0  0  0  0  0  0  0
   44.7550   15.3330   46.6940 C   0  0  0  0  0  3  0  0  0  0  0  0
   43.9290   14.3620   46.1800 C   0  0  0  0  0  3  0  0  0  0  0  0
   44.3120    6.9270   42.9750 C   0  0  0  0  0  2  0  0  0  0  0  0
   45.6190    6.2110   42.9680 C   0  0  0  0  0  0  0  0  0  0  0  0
   45.9010    5.2610   41.9850 C   0  0  0  0  0  3  0  0  0  0  0  0
   47.1260    4.6320   42.0280 C   0  0  0  0  0  3  0  0  0  0  0  0
   48.0790    4.9000   42.9940 C   0  0  0  0  0  3  0  0  0  0  0  0
   47.7550    5.8440   43.9410 C   0  0  0  0  0  3  0  0  0  0  0  0
   46.5470    6.5050   43.9500 C   0  0  0  0  0  3  0  0  0  0  0  0
  1  2  1  0  0  0  0
  1 13  1  1  0  0  0
  3  2  1  0  0  0  0
  4  5  1  1  0  0  0
  4  3  1  0  0  0  0
  5  1  1  0  0  0  0
  6  4  1  0  0  0  0
  7  6  2  0  0  0  0
  8  6  1  0  0  0  0
  8  9  1  0  0  0  0
  9 24  1  6  0  0  0
  9 10  1  0  0  0  0
 10  3  1  0  0  0  0
 10 11  2  0  0  0  0
 12  8  1  0  0  0  0
 13 16  1  0  0  0  0
 14 13  1  0  0  0  0
 14 17  1  0  0  0  0
 15 14  2  0  0  0  0
 17 18  1  0  0  0  0
 18 19  2  0  0  0  0
 20 19  1  0  0  0  0
 20 21  1  0  0  0  0
 22 20  2  0  0  0  0
 23 17  2  0  0  0  0
 23 22  1  0  0  0  0
 25 24  1  0  0  0  0
 25 30  1  0  0  0  0
 26 27  1  0  0  0  0
 26 25  2  0  0  0  0
 27 28  2  0  0  0  0
 28 29  1  0  0  0  0
 29 30  2  0  0  0  0
M  END
>  <Pose>
1

>  <Score>
-8.295

$$$$
