/Users/jonathanwahrer/Desktop/Msc/3_Semester/Drug_Design_Praktikum/waehrer_HTS_screening/HTS_experiment/out/docking_results/vina_output/2qfa/0257_docked.pdbqt
 OpenBabel03162219313D

 31 34  0  0  1  0  0  0  0  0999 V2000
   42.5550   11.6990   47.0530 C   0  0  2  0  0  3  0  0  0  0  0  0
   41.3690   10.9910   46.4750 C   0  0  2  0  0  3  0  0  0  0  0  0
   42.0260    9.9430   45.7030 N   0  0  0  0  0  0  0  0  0  0  0  0
   43.1180    9.5150   46.5410 C   0  0  0  0  0  0  0  0  0  0  0  0
   43.6390    8.3880   46.4950 O   0  0  0  0  0  0  0  0  0  0  0  0
   43.4760   10.6350   47.4240 C   0  0  0  0  0  0  0  0  0  0  0  0
   44.3740   10.6700   48.3070 O   0  0  0  0  0  0  0  0  0  0  0  0
   42.7310   12.9830   47.2310 C   0  0  2  0  0  3  0  0  0  0  0  0
   41.8360   13.6760   48.0700 O   0  0  0  0  0  1  0  0  0  0  0  0
   43.8290   13.6660   46.5710 C   0  0  0  0  0  0  0  0  0  0  0  0
   44.3630   14.8280   47.1430 C   0  0  0  0  0  3  0  0  0  0  0  0
   45.3860   15.5140   46.5240 C   0  0  0  0  0  3  0  0  0  0  0  0
   45.9320   15.1040   45.3270 C   0  0  0  0  0  0  0  0  0  0  0  0
   47.3460   16.0350   44.4530 Br  0  0  0  0  0  0  0  0  0  0  0  0
   45.4210   13.9620   44.7480 C   0  0  0  0  0  3  0  0  0  0  0  0
   44.3870   13.2690   45.3740 C   0  0  0  0  0  3  0  0  0  0  0  0
   40.5650   11.9120   45.6340 C   0  0  0  0  0  0  0  0  0  0  0  0
   39.3760   12.3190   46.1080 N   0  0  0  0  0  0  0  0  0  0  0  0
   38.5720   13.1550   45.4470 C   0  0  0  0  0  3  0  0  0  0  0  0
   38.9860   13.6170   44.2200 C   0  0  0  0  0  3  0  0  0  0  0  0
   40.1960   13.2260   43.6960 C   0  0  0  0  0  3  0  0  0  0  0  0
   40.9850   12.3670   44.4150 C   0  0  0  0  0  3  0  0  0  0  0  0
   41.6500    9.4520   44.4090 C   0  0  0  0  0  2  0  0  0  0  0  0
   42.8390    9.3560   43.4660 C   0  0  0  0  0  2  0  0  0  0  0  0
   42.9070    7.9170   42.9530 C   0  0  0  0  0  2  0  0  0  0  0  0
   44.1690    7.2880   43.2940 N   0  0  0  0  0  0  0  0  0  0  0  0
   44.3540    6.0970   43.9090 C   0  0  0  0  0  2  0  0  0  0  0  0
   45.6730    5.8750   44.0390 N   0  0  0  0  0  0  0  0  0  0  0  0
   46.3560    6.9050   43.5180 C   0  0  0  0  0  3  0  0  0  0  0  0
   46.1260    5.0260   44.4810 H   0  0  0  0  0  0  0  0  0  0  0  0
   45.3940    7.7800   43.0560 C   0  0  0  0  0  3  0  0  0  0  0  0
  1  8  1  1  0  0  0
  1  6  1  0  0  0  0
  2 17  1  6  0  0  0
  2  1  1  0  0  0  0
  3  2  1  0  0  0  0
  3  4  1  0  0  0  0
  4  6  1  0  0  0  0
  5  4  2  0  0  0  0
  6  7  2  0  0  0  0
  8  9  1  6  0  0  0
 10 11  1  0  0  0  0
 10  8  1  0  0  0  0
 12 11  2  0  0  0  0
 13 12  1  0  0  0  0
 14 13  1  0  0  0  0
 15 13  2  0  0  0  0
 15 16  1  0  0  0  0
 16 10  2  0  0  0  0
 17 18  1  0  0  0  0
 19 18  2  0  0  0  0
 20 19  1  0  0  0  0
 21 20  2  0  0  0  0
 21 22  1  0  0  0  0
 22 17  2  0  0  0  0
 23  3  1  0  0  0  0
 24 23  1  0  0  0  0
 25 26  1  0  0  0  0
 25 24  1  0  0  0  0
 26 27  1  0  0  0  0
 27 28  1  0  0  0  0
 28 30  1  0  0  0  0
 29 28  1  0  0  0  0
 31 26  1  0  0  0  0
 31 29  2  0  0  0  0
M  END
>  <Pose>
1

>  <Score>
-7.171

$$$$
