/Users/jonathanwahrer/Desktop/Msc/3_Semester/Drug_Design_Praktikum/waehrer_HTS_screening/HTS_experiment/out/docking_results/vina_output/2qfa/0263_docked.pdbqt
 OpenBabel03162219323D

 34 37  0  0  1  0  0  0  0  0999 V2000
   43.6070    8.5640   45.2440 C   0  0  0  0  0  0  0  0  0  0  0  0
   42.6640    9.3300   44.7620 C   0  0  0  0  0  0  0  0  0  0  0  0
   41.9010   10.4030   45.4950 C   0  0  2  0  0  3  0  0  0  0  0  0
   41.6280   11.3620   44.4800 N   0  0  0  0  0  0  0  0  0  0  0  0
   41.5310   10.6410   43.2280 C   0  0  0  0  0  0  0  0  0  0  0  0
   40.9850   11.0260   42.1670 O   0  0  0  0  0  0  0  0  0  0  0  0
   42.1880    9.3490   43.3980 C   0  0  0  0  0  0  0  0  0  0  0  0
   42.2970    8.4530   42.4950 O   0  0  0  0  0  0  0  0  0  0  0  0
   43.9820    8.7380   46.5950 O   0  0  0  0  0  1  0  0  0  0  0  0
   44.2560    7.5590   44.4170 C   0  0  0  0  0  0  0  0  0  0  0  0
   45.3280    8.0100   43.6490 C   0  0  0  0  0  3  0  0  0  0  0  0
   46.0420    7.1450   42.8680 C   0  0  0  0  0  3  0  0  0  0  0  0
   45.6840    5.8160   42.8520 C   0  0  0  0  0  0  0  0  0  0  0  0
   46.7100    4.6270   41.7420 Br  0  0  0  0  0  0  0  0  0  0  0  0
   44.6250    5.3640   43.6100 C   0  0  0  0  0  3  0  0  0  0  0  0
   43.9130    6.2480   44.3940 C   0  0  0  0  0  3  0  0  0  0  0  0
   42.6150   10.8480   46.6840 C   0  0  0  0  0  0  0  0  0  0  0  0
   43.7510   11.6120   46.7010 C   0  0  0  0  0  3  0  0  0  0  0  0
   44.3590   11.9980   47.8670 C   0  0  0  0  0  0  0  0  0  0  0  0
   43.8240   11.6130   49.0660 C   0  0  0  0  0  3  0  0  0  0  0  0
   42.6700   10.8360   49.1140 C   0  0  0  0  0  3  0  0  0  0  0  0
   42.0870   10.4680   47.9290 C   0  0  0  0  0  3  0  0  0  0  0  0
   45.5270   12.7850   47.8090 N   0  0  0  0  0  0  0  0  0  0  0  0
   46.6510   12.3450   48.1630 O   0  0  0  0  0  0  0  0  0  0  0  0
   45.4250   14.0770   47.3490 O   0  0  0  0  0  0  0  0  0  0  0  0
   41.4010   12.7950   44.4940 C   0  0  0  0  0  2  0  0  0  0  0  0
   39.9690   13.2210   44.4870 C   0  0  0  0  0  2  0  0  0  0  0  0
   39.2370   12.7610   45.6560 N   0  0  0  0  0  4  0  0  0  0  0  0
   37.8380   13.1960   45.5970 C   0  0  0  0  0  2  0  0  0  0  0  0
   37.1620   12.5130   46.7930 C   0  0  0  0  0  2  0  0  0  0  0  0
   37.7240   12.8820   47.9910 O   0  0  0  0  0  0  0  0  0  0  0  0
   39.1000   12.7260   48.0450 C   0  0  0  0  0  2  0  0  0  0  0  0
   39.7890   13.3450   46.8530 C   0  0  0  0  0  2  0  0  0  0  0  0
   39.2070   11.7440   45.7630 H   0  0  0  0  0  0  0  0  0  0  0  0
  1  9  1  0  0  0  0
  2  1  2  0  0  0  0
  2  3  1  0  0  0  0
  3 17  1  1  0  0  0
  4 26  1  0  0  0  0
  4  3  1  0  0  0  0
  5  7  1  0  0  0  0
  5  4  1  0  0  0  0
  6  5  2  0  0  0  0
  7  2  1  0  0  0  0
  8  7  2  0  0  0  0
 10  1  1  0  0  0  0
 11 10  2  0  0  0  0
 12 11  1  0  0  0  0
 13 12  2  0  0  0  0
 13 15  1  0  0  0  0
 14 13  1  0  0  0  0
 15 16  2  0  0  0  0
 16 10  1  0  0  0  0
 17 18  2  0  0  0  0
 17 22  1  0  0  0  0
 18 19  1  0  0  0  0
 19 20  2  0  0  0  0
 20 21  1  0  0  0  0
 22 21  2  0  0  0  0
 23 19  1  0  0  0  0
 23 24  2  0  0  0  0
 25 23  2  0  0  0  0
 27 26  1  0  0  0  0
 27 28  1  0  0  0  0
 28 34  1  0  0  0  0
 28 33  1  0  0  0  0
 29 28  1  0  0  0  0
 29 30  1  0  0  0  0
 30 31  1  0  0  0  0
 31 32  1  0  0  0  0
 33 32  1  0  0  0  0
M  END
>  <Pose>
1

>  <Score>
-6.864

$$$$
