/Users/jonathanwahrer/Desktop/Msc/3_Semester/Drug_Design_Praktikum/waehrer_HTS_screening/HTS_experiment/out/docking_results/vina_output/2qfa/0265_docked.pdbqt
 OpenBabel03162219323D

 35 38  0  0  1  0  0  0  0  0999 V2000
   40.0850   11.1500   45.0580 C   0  0  0  0  0  0  0  0  0  0  0  0
   40.9360   10.2470   45.4940 C   0  0  0  0  0  0  0  0  0  0  0  0
   42.3150    9.9920   44.9410 C   0  0  2  0  0  3  0  0  0  0  0  0
   42.8290    8.8800   45.6610 N   0  0  0  0  0  0  0  0  0  0  0  0
   41.9370    8.4910   46.7270 C   0  0  0  0  0  0  0  0  0  0  0  0
   42.0930    7.6140   47.5870 O   0  0  0  0  0  0  0  0  0  0  0  0
   40.7420    9.3600   46.6180 C   0  0  0  0  0  0  0  0  0  0  0  0
   39.7350    9.3130   47.3950 O   0  0  0  0  0  0  0  0  0  0  0  0
   40.5360   11.9430   43.9770 O   0  0  0  0  0  1  0  0  0  0  0  0
   43.0750   11.2430   45.2450 C   0  0  0  0  0  0  0  0  0  0  0  0
   43.9270   11.7230   44.3010 C   0  0  0  0  0  3  0  0  0  0  0  0
   44.6580   12.8710   44.5300 C   0  0  0  0  0  3  0  0  0  0  0  0
   44.5270   13.5370   45.7190 C   0  0  0  0  0  0  0  0  0  0  0  0
   43.6670   13.0520   46.6690 C   0  0  0  0  0  3  0  0  0  0  0  0
   42.9300   11.9000   46.4440 C   0  0  0  0  0  3  0  0  0  0  0  0
   45.3000   14.7550   45.9760 C   0  0  0  0  0  0  0  0  0  0  0  0
   44.7710   15.6990   46.6160 O   0  0  0  0  0  0  0  0  0  0  0  0
   46.5880   14.9270   45.5480 O   0  0  0  0  0  0  0  0  0  0  0  0
   46.9860   15.9940   44.7170 C   0  0  0  0  0  1  0  0  0  0  0  0
   44.0640    8.1760   45.4410 C   0  0  0  0  0  3  0  0  0  0  0  0
   43.9850    7.0330   44.4890 C   0  0  0  0  0  3  0  0  0  0  0  0
   45.2400    6.4440   44.1290 N   0  0  0  0  0  4  0  0  0  0  0  0
   46.1490    7.3540   43.4640 C   0  0  0  0  0  2  0  0  0  0  0  0
   47.4790    6.6400   43.3340 C   0  0  0  0  0  2  0  0  0  0  0  0
   47.2600    5.5870   42.4140 O   0  0  0  0  0  0  0  0  0  0  0  0
   46.4280    4.6770   43.0730 C   0  0  0  0  0  2  0  0  0  0  0  0
   45.0540    5.3150   43.1960 C   0  0  0  0  0  2  0  0  0  0  0  0
   45.7130    5.9880   44.9540 H   0  0  0  0  0  0  0  0  0  0  0  0
   38.7600   11.3540   45.6230 C   0  0  0  0  0  0  0  0  0  0  0  0
   38.5330   12.3940   46.5340 C   0  0  0  0  0  3  0  0  0  0  0  0
   37.2930   12.6570   47.0760 C   0  0  0  0  0  3  0  0  0  0  0  0
   36.2020   11.8880   46.7340 C   0  0  0  0  0  0  0  0  0  0  0  0
   34.4930   12.2720   47.5020 Br  0  0  0  0  0  0  0  0  0  0  0  0
   36.3980   10.8610   45.8420 C   0  0  0  0  0  3  0  0  0  0  0  0
   37.6600   10.5980   45.2940 C   0  0  0  0  0  3  0  0  0  0  0  0
  1  2  2  0  0  0  0
  1 29  1  0  0  0  0
  2  7  1  0  0  0  0
  3 10  1  1  0  0  0
  3  2  1  0  0  0  0
  3  4  1  0  0  0  0
  4  5  1  0  0  0  0
  5  6  2  0  0  0  0
  7  5  1  0  0  0  0
  7  8  2  0  0  0  0
  9  1  1  0  0  0  0
 10 15  1  0  0  0  0
 11 12  1  0  0  0  0
 11 10  2  0  0  0  0
 12 13  2  0  0  0  0
 13 16  1  0  0  0  0
 13 14  1  0  0  0  0
 15 14  2  0  0  0  0
 16 17  2  0  0  0  0
 18 16  1  0  0  0  0
 19 18  1  0  0  0  0
 20  4  1  0  0  0  0
 21 20  2  0  0  0  0
 22 21  1  0  0  0  0
 22 28  1  0  0  0  0
 23 22  1  0  0  0  0
 24 23  1  0  0  0  0
 25 26  1  0  0  0  0
 25 24  1  0  0  0  0
 26 27  1  0  0  0  0
 27 22  1  0  0  0  0
 29 30  1  0  0  0  0
 30 31  2  0  0  0  0
 32 31  1  0  0  0  0
 32 33  1  0  0  0  0
 34 32  2  0  0  0  0
 35 29  2  0  0  0  0
 35 34  1  0  0  0  0
M  END
>  <Pose>
1

>  <Score>
-7.488

$$$$
