/Users/jonathanwahrer/Desktop/Msc/3_Semester/Drug_Design_Praktikum/waehrer_HTS_screening/HTS_experiment/out/docking_results/vina_output/2qfa/0293_docked.pdbqt
 OpenBabel03162219333D

 27 30  0  0  0  0  0  0  0  0999 V2000
   46.6860    4.6270   42.5200 C   0  0  0  0  0  3  0  0  0  0  0  0
   47.8060    4.3480   43.1960 C   0  0  0  0  0  0  0  0  0  0  0  0
   48.2030    5.0320   44.3340 O   0  0  0  0  0  0  0  0  0  0  0  0
   49.4030    4.5390   44.8370 C   0  0  0  0  0  0  0  0  0  0  0  0
   49.8110    3.5200   44.0300 C   0  0  0  0  0  0  0  0  0  0  0  0
   50.9840    2.8490   44.3050 C   0  0  0  0  0  3  0  0  0  0  0  0
   51.7010    3.2500   45.4020 C   0  0  0  0  0  3  0  0  0  0  0  0
   51.2830    4.2970   46.2340 C   0  0  0  0  0  0  0  0  0  0  0  0
   50.1190    4.9770   45.9760 C   0  0  0  0  0  0  0  0  0  0  0  0
   52.0710    4.6430   47.3320 O   0  0  0  0  0  1  0  0  0  0  0  0
   48.8200    3.3560   42.9570 C   0  0  0  0  0  0  0  0  0  0  0  0
   48.8190    2.5300   42.0090 O   0  0  0  0  0  0  0  0  0  0  0  0
   45.8160    5.7040   42.9820 C   0  0  0  0  0  0  0  0  0  0  0  0
   44.7090    5.4240   43.7660 C   0  0  0  0  0  3  0  0  0  0  0  0
   43.8630    6.4200   44.2170 C   0  0  0  0  0  3  0  0  0  0  0  0
   44.0890    7.7400   43.9020 C   0  0  0  0  0  0  0  0  0  0  0  0
   42.9130    9.1250   44.5320 Br  0  0  0  0  0  0  0  0  0  0  0  0
   45.1860    8.0380   43.1210 C   0  0  0  0  0  3  0  0  0  0  0  0
   46.0370    7.0260   42.6690 C   0  0  0  0  0  3  0  0  0  0  0  0
   49.5570    6.0900   46.7510 C   0  0  0  0  0  2  0  0  0  0  0  0
   49.6510    6.0460   48.1580 N   0  0  0  0  0  4  0  0  0  0  0  0
   49.2000    7.2720   48.7820 C   0  0  0  0  0  2  0  0  0  0  0  0
   47.6980    7.2110   48.9920 C   0  0  0  0  0  2  0  0  0  0  0  0
   47.4540    6.4230   50.1060 O   0  0  0  0  0  0  0  0  0  0  0  0
   48.4130    5.4040   50.1290 C   0  0  0  0  0  2  0  0  0  0  0  0
   48.7740    4.9980   48.7100 C   0  0  0  0  0  2  0  0  0  0  0  0
   50.6030    5.7790   48.4810 H   0  0  0  0  0  0  0  0  0  0  0  0
  1 13  1  0  0  0  0
  1  2  2  0  0  0  0
  2  3  1  0  0  0  0
  3  4  1  0  0  0  0
  4  9  1  0  0  0  0
  5  6  1  0  0  0  0
  5  4  2  0  0  0  0
  6  7  2  0  0  0  0
  7  8  1  0  0  0  0
  8 10  1  0  0  0  0
  9  8  2  0  0  0  0
  9 20  1  0  0  0  0
 11  2  1  0  0  0  0
 11  5  1  0  0  0  0
 12 11  2  0  0  0  0
 13 14  1  0  0  0  0
 14 15  2  0  0  0  0
 16 15  1  0  0  0  0
 16 17  1  0  0  0  0
 18 16  2  0  0  0  0
 19 13  2  0  0  0  0
 19 18  1  0  0  0  0
 20 21  1  0  0  0  0
 21 27  1  0  0  0  0
 21 26  1  0  0  0  0
 21 22  1  0  0  0  0
 22 23  1  0  0  0  0
 23 24  1  0  0  0  0
 24 25  1  0  0  0  0
 26 25  1  0  0  0  0
M  END
>  <Pose>
1

>  <Score>
-7.154

$$$$
