/Users/jonathanwahrer/Desktop/Msc/3_Semester/Drug_Design_Praktikum/waehrer_HTS_screening/HTS_experiment/out/docking_results/vina_output/2qfa/0302_docked.pdbqt
 OpenBabel03162219343D

 29 33  0  0  1  0  0  0  0  0999 V2000
   43.7050    8.8760   44.0430 C   0  0  0  0  0  0  0  0  0  0  0  0
   43.6970    9.4970   45.2400 N   0  0  0  0  0  0  0  0  0  0  0  0
   42.8400   10.5470   45.2140 C   0  0  1  0  0  3  0  0  0  0  0  0
   42.2860   10.6090   43.9910 N   0  0  0  0  0  0  0  0  0  0  0  0
   42.8120    9.5910   43.2720 C   0  0  0  0  0  3  0  0  0  0  0  0
   41.4470   11.6620   44.0160 C   0  0  0  0  0  0  0  0  0  0  0  0
   41.4730   12.2610   45.2570 C   0  0  0  0  0  0  0  0  0  0  0  0
   40.6980   13.3760   45.5570 C   0  0  0  0  0  3  0  0  0  0  0  0
   39.8720   13.9080   44.5940 C   0  0  0  0  0  3  0  0  0  0  0  0
   39.8520   13.3020   43.3570 C   0  0  0  0  0  3  0  0  0  0  0  0
   40.6090   12.1970   43.0320 C   0  0  0  0  0  3  0  0  0  0  0  0
   42.3610   11.5350   45.9870 N   0  0  0  0  0  0  0  0  0  0  0  0
   44.2570    9.2300   46.0750 H   0  0  0  0  0  0  0  0  0  0  0  0
   42.6740   11.8500   47.3660 C   0  0  0  0  0  2  0  0  0  0  0  0
   44.1200   12.2660   47.5300 C   0  0  0  0  0  2  0  0  0  0  0  0
   44.2840   13.6480   47.1820 N   0  0  0  0  0  4  0  0  0  0  0  0
   44.7990   13.7710   45.8340 C   0  0  0  0  0  2  0  0  0  0  0  0
   45.9160   14.7800   45.7260 C   0  0  0  0  0  2  0  0  0  0  0  0
   45.4980   15.9790   46.3090 O   0  0  0  0  0  0  0  0  0  0  0  0
   45.1510   15.8230   47.6340 C   0  0  0  0  0  2  0  0  0  0  0  0
   45.1550   14.3760   48.0550 C   0  0  0  0  0  2  0  0  0  0  0  0
   43.3560   14.1410   47.1880 H   0  0  0  0  0  0  0  0  0  0  0  0
   44.4960    7.7070   43.6710 C   0  0  0  0  0  0  0  0  0  0  0  0
   44.1240    6.4330   44.0370 C   0  0  0  0  0  3  0  0  0  0  0  0
   44.8790    5.3180   43.6820 C   0  0  0  0  0  3  0  0  0  0  0  0
   46.0350    5.4680   42.9410 C   0  0  0  0  0  0  0  0  0  0  0  0
   47.0660    3.9510   42.4550 Br  0  0  0  0  0  0  0  0  0  0  0  0
   46.4190    6.7400   42.5670 C   0  0  0  0  0  3  0  0  0  0  0  0
   45.6500    7.8480   42.9340 C   0  0  0  0  0  3  0  0  0  0  0  0
  1  2  1  0  0  0  0
  2 13  1  0  0  0  0
  3  4  1  1  0  0  0
  3  2  1  0  0  0  0
  3 12  1  0  0  0  0
  4  6  1  0  0  0  0
  5  4  1  0  0  0  0
  5  1  2  0  0  0  0
  6  7  1  0  0  0  0
  7  8  2  0  0  0  0
  7 12  1  0  0  0  0
  9  8  1  0  0  0  0
 10  9  2  0  0  0  0
 11 10  1  0  0  0  0
 11  6  2  0  0  0  0
 12 14  1  0  0  0  0
 14 15  1  0  0  0  0
 16 22  1  0  0  0  0
 16 15  1  0  0  0  0
 16 21  1  0  0  0  0
 17 16  1  0  0  0  0
 18 17  1  0  0  0  0
 18 19  1  0  0  0  0
 19 20  1  0  0  0  0
 20 21  1  0  0  0  0
 23 24  1  0  0  0  0
 23  1  1  0  0  0  0
 25 24  2  0  0  0  0
 26 25  1  0  0  0  0
 27 26  1  0  0  0  0
 28 29  1  0  0  0  0
 28 26  2  0  0  0  0
 29 23  2  0  0  0  0
M  END
>  <Pose>
1

>  <Score>
-7.550

$$$$
