/Users/jonathanwahrer/Desktop/Msc/3_Semester/Drug_Design_Praktikum/waehrer_HTS_screening/HTS_experiment/out/docking_results/vina_output/2qfa/0305_docked.pdbqt
 OpenBabel03162219343D

 27 30  0  0  0  0  0  0  0  0999 V2000
   42.3860    9.1460   43.9150 C   0  0  0  0  0  0  0  0  0  0  0  0
   41.8160    9.8580   44.8780 N   0  0  0  0  0  0  0  0  0  0  0  0
   40.8200   10.6290   44.3780 C   0  0  0  0  0  0  0  0  0  0  0  0
   40.7720   10.3730   43.0580 N   0  0  0  0  0  0  0  0  0  0  0  0
   41.6810    9.5020   42.7620 N   0  0  0  0  0  0  0  0  0  0  0  0
   40.2230   11.3570   45.3310 N   0  0  0  0  0  0  0  0  0  0  0  0
   40.8520   11.0330   46.4660 C   0  0  0  0  0  0  0  0  0  0  0  0
   41.8570   10.0880   46.2200 C   0  0  0  0  0  0  0  0  0  0  0  0
   42.5860    9.5920   47.2070 N   0  0  0  0  0  0  0  0  0  0  0  0
   42.3290   10.0470   48.4720 C   0  0  0  0  0  0  0  0  0  0  0  0
   43.0000    9.6050   49.4350 O   0  0  0  0  0  0  0  0  0  0  0  0
   41.3820   10.9550   48.7380 N   0  0  0  0  0  0  0  0  0  0  0  0
   40.6260   11.4640   47.7520 C   0  0  0  0  0  0  0  0  0  0  0  0
   39.7260   12.3180   47.9630 O   0  0  0  0  0  0  0  0  0  0  0  0
   43.5580    8.5330   47.1190 C   0  0  0  0  0  1  0  0  0  0  0  0
   41.1880   11.3020   49.6990 H   0  0  0  0  0  0  0  0  0  0  0  0
   43.4630    8.1800   43.8100 C   0  0  0  0  0  0  0  0  0  0  0  0
   43.1600    6.8420   44.0730 C   0  0  0  0  0  3  0  0  0  0  0  0
   44.0530    5.8380   43.8630 C   0  0  0  0  0  3  0  0  0  0  0  0
   45.3090    6.1290   43.3720 C   0  0  0  0  0  0  0  0  0  0  0  0
   46.5500    4.7280   43.0810 Br  0  0  0  0  0  0  0  0  0  0  0  0
   45.6670    7.4280   43.0910 C   0  0  0  0  0  3  0  0  0  0  0  0
   44.7260    8.3990   43.3220 C   0  0  0  0  0  3  0  0  0  0  0  0
   39.1360   12.2950   45.1700 C   0  0  0  0  0  2  0  0  0  0  0  0
   39.5950   13.6310   44.6260 C   0  0  0  0  0  2  0  0  0  0  0  0
   39.5980   14.6170   45.6060 O   0  0  0  0  0  0  0  0  0  0  0  0
   40.9280   14.8680   45.9400 C   0  0  0  0  0  1  0  0  0  0  0  0
  1  2  1  0  0  0  0
  2  8  1  0  0  0  0
  3  2  1  0  0  0  0
  3  6  1  0  0  0  0
  4  3  2  0  0  0  0
  5  4  1  0  0  0  0
  5  1  2  0  0  0  0
  6  7  1  0  0  0  0
  7 13  1  0  0  0  0
  8  7  2  0  0  0  0
  8  9  1  0  0  0  0
  9 10  1  0  0  0  0
 10 12  1  0  0  0  0
 10 11  2  0  0  0  0
 12 16  1  0  0  0  0
 13 14  2  0  0  0  0
 13 12  1  0  0  0  0
 15  9  1  0  0  0  0
 17  1  1  0  0  0  0
 17 18  1  0  0  0  0
 19 18  2  0  0  0  0
 20 19  1  0  0  0  0
 21 20  1  0  0  0  0
 22 23  1  0  0  0  0
 22 20  2  0  0  0  0
 23 17  2  0  0  0  0
 24  6  1  0  0  0  0
 25 24  1  0  0  0  0
 25 26  1  0  0  0  0
 26 27  1  0  0  0  0
M  END
>  <Pose>
1

>  <Score>
-6.322

$$$$
