/Users/jonathanwahrer/Desktop/Msc/3_Semester/Drug_Design_Praktikum/waehrer_HTS_screening/HTS_experiment/out/docking_results/vina_output/2qfa/0309_docked.pdbqt
 OpenBabel03162219353D

 33 36  0  0  0  0  0  0  0  0999 V2000
   49.6920    4.7160   46.1320 C   0  0  0  0  0  0  0  0  0  0  0  0
   48.9450    5.8690   46.1440 C   0  0  0  0  0  0  0  0  0  0  0  0
   48.1360    6.2090   45.1590 O   0  0  0  0  0  0  0  0  0  0  0  0
   47.9930    5.4560   44.0990 C   0  0  0  0  0  0  0  0  0  0  0  0
   48.7010    4.3090   44.0270 C   0  0  0  0  0  0  0  0  0  0  0  0
   48.5690    3.4940   42.9250 C   0  0  0  0  0  3  0  0  0  0  0  0
   47.7130    3.8790   41.9250 C   0  0  0  0  0  3  0  0  0  0  0  0
   46.9790    5.0770   42.0100 C   0  0  0  0  0  0  0  0  0  0  0  0
   47.0940    5.9000   43.0910 C   0  0  0  0  0  0  0  0  0  0  0  0
   46.1680    5.3000   40.9110 O   0  0  0  0  0  1  0  0  0  0  0  0
   49.5680    3.8870   45.0160 C   0  0  0  0  0  0  0  0  0  0  0  0
   50.2150    2.8370   44.9480 O   0  0  0  0  0  0  0  0  0  0  0  0
   46.4290    7.1620   43.3110 C   0  0  0  0  0  2  0  0  0  0  0  0
   45.0310    7.3070   43.3350 N   0  0  0  0  0  4  0  0  0  0  0  0
   44.6250    8.6670   43.3140 C   0  0  0  0  0  2  0  0  0  0  0  0
   43.3350    9.0440   43.9280 C   0  0  0  0  0  2  0  0  0  0  0  0
   42.8410    8.0970   44.8320 N   0  0  0  0  0  0  0  0  0  0  0  0
   42.8890    6.7450   44.4800 C   0  0  0  0  0  2  0  0  0  0  0  0
   42.3170    8.4970   46.0690 C   0  0  0  0  0  1  0  0  0  0  0  0
   44.2660    6.3490   44.0470 C   0  0  0  0  0  2  0  0  0  0  0  0
   44.7770    7.0060   42.2680 H   0  0  0  0  0  0  0  0  0  0  0  0
   49.0630    6.7590   47.3100 C   0  0  0  0  0  0  0  0  0  0  0  0
   48.0640    6.8760   48.0640 O   0  0  0  0  0  0  0  0  0  0  0  0
   50.1890    7.4580   47.6170 O   0  0  0  0  0  0  0  0  0  0  0  0
   50.5500    7.6830   48.9580 C   0  0  0  0  0  2  0  0  0  0  0  0
   52.0490    7.7560   49.0580 C   0  0  0  0  0  1  0  0  0  0  0  0
   50.5380    4.3760   47.2450 C   0  0  0  0  0  0  0  0  0  0  0  0
   51.9210    4.5360   47.2290 C   0  0  0  0  0  3  0  0  0  0  0  0
   52.7320    4.2250   48.2980 C   0  0  0  0  0  3  0  0  0  0  0  0
   52.1690    3.7330   49.4390 C   0  0  0  0  0  0  0  0  0  0  0  0
   53.3090    3.3100   50.9150 Br  0  0  0  0  0  0  0  0  0  0  0  0
   50.8030    3.5550   49.5060 C   0  0  0  0  0  3  0  0  0  0  0  0
   49.9980    3.8800   48.4020 C   0  0  0  0  0  3  0  0  0  0  0  0
  1  2  2  0  0  0  0
  1 27  1  0  0  0  0
  2 22  1  0  0  0  0
  3  2  1  0  0  0  0
  4  3  1  0  0  0  0
  5  4  1  0  0  0  0
  5 11  1  0  0  0  0
  6  5  2  0  0  0  0
  7  8  2  0  0  0  0
  7  6  1  0  0  0  0
  8  9  1  0  0  0  0
  9 13  1  0  0  0  0
  9  4  2  0  0  0  0
 10  8  1  0  0  0  0
 11  1  1  0  0  0  0
 12 11  2  0  0  0  0
 13 14  1  0  0  0  0
 14 20  1  0  0  0  0
 15 14  1  0  0  0  0
 15 16  1  0  0  0  0
 16 17  1  0  0  0  0
 17 19  1  0  0  0  0
 18 17  1  0  0  0  0
 20 18  1  0  0  0  0
 21 14  1  0  0  0  0
 22 24  1  0  0  0  0
 22 23  2  0  0  0  0
 24 25  1  0  0  0  0
 25 26  1  0  0  0  0
 27 33  1  0  0  0  0
 28 27  2  0  0  0  0
 28 29  1  0  0  0  0
 29 30  2  0  0  0  0
 30 32  1  0  0  0  0
 30 31  1  0  0  0  0
 33 32  2  0  0  0  0
M  END
>  <Pose>
1

>  <Score>
-6.623

$$$$
