/Users/jonathanwahrer/Desktop/Msc/3_Semester/Drug_Design_Praktikum/waehrer_HTS_screening/HTS_experiment/out/docking_results/vina_output/2qfa/0324_docked.pdbqt
 OpenBabel03162219363D

 34 38  0  0  1  0  0  0  0  0999 V2000
   41.3640   12.3220   45.3670 C   0  0  0  0  0  0  0  0  0  0  0  0
   40.1860   13.0580   45.5940 C   0  0  0  0  0  3  0  0  0  0  0  0
   39.1120   12.2620   45.5540 N   0  0  0  0  0  0  0  0  0  0  0  0
   37.7610   12.2340   45.6650 C   0  0  0  0  0  0  0  0  0  0  0  0
   37.3880   10.9260   45.4760 C   0  0  0  0  0  0  0  0  0  0  0  0
   38.5170   10.1950   45.2560 N   0  0  0  0  0  0  0  0  0  0  0  0
   39.5660   11.0360   45.3080 C   0  0  1  0  0  3  0  0  0  0  0  0
   40.9420   11.0680   45.1920 N   0  0  0  0  0  0  0  0  0  0  0  0
   36.0450   10.6180   45.5390 C   0  0  0  0  0  3  0  0  0  0  0  0
   35.0840   11.5900   45.7850 C   0  0  0  0  0  3  0  0  0  0  0  0
   35.4580   12.8970   45.9730 C   0  0  0  0  0  3  0  0  0  0  0  0
   36.8210   13.2070   45.9090 C   0  0  0  0  0  3  0  0  0  0  0  0
   38.5300    9.1660   45.0810 H   0  0  0  0  0  0  0  0  0  0  0  0
   41.7290    9.8880   44.9030 C   0  0  0  0  0  2  0  0  0  0  0  0
   41.9240    9.6260   43.4280 C   0  0  0  0  0  2  0  0  0  0  0  0
   42.7430    8.3810   43.1970 C   0  0  0  0  0  2  0  0  0  0  0  0
   43.9440    8.2930   43.9810 N   0  0  0  0  0  0  0  0  0  0  0  0
   45.0420    8.2930   43.0270 C   0  0  0  0  0  2  0  0  0  0  0  0
   46.0890    7.2750   43.2840 C   0  0  0  0  0  2  0  0  0  0  0  0
   45.6200    5.9560   43.6090 N   0  0  0  0  0  4  0  0  0  0  0  0
   44.2630    5.9310   44.1120 C   0  0  0  0  0  2  0  0  0  0  0  0
   46.2140    5.6370   44.4380 H   0  0  0  0  0  0  0  0  0  0  0  0
   44.0220    7.2040   44.8970 C   0  0  0  0  0  2  0  0  0  0  0  0
   45.8920    5.0170   42.5680 C   0  0  0  0  0  2  0  0  0  0  0  0
   47.3250    4.6590   42.3650 C   0  0  0  0  0  2  0  0  0  0  0  0
   47.7270    4.6880   41.0310 O   0  0  0  0  0  0  0  0  0  0  0  0
   47.5480    5.5650   40.6510 H   0  0  0  0  0  0  0  0  0  0  0  0
   42.6950   12.9250   45.3160 C   0  0  0  0  0  0  0  0  0  0  0  0
   43.7310   12.5160   44.5390 C   0  0  0  0  0  3  0  0  0  0  0  0
   44.9710   13.1750   44.5110 C   0  0  0  0  0  3  0  0  0  0  0  0
   45.1960   14.2840   45.2850 C   0  0  0  0  0  0  0  0  0  0  0  0
   46.8880   15.1860   45.2480 Br  0  0  0  0  0  0  0  0  0  0  0  0
   44.1660   14.7110   46.0760 C   0  0  0  0  0  3  0  0  0  0  0  0
   42.9460   14.0540   46.0970 C   0  0  0  0  0  3  0  0  0  0  0  0
  1  2  2  0  0  0  0
  3  2  1  0  0  0  0
  3  4  1  0  0  0  0
  4 12  1  0  0  0  0
  5  9  1  0  0  0  0
  5  4  2  0  0  0  0
  6  7  1  0  0  0  0
  6  5  1  0  0  0  0
  7  8  1  6  0  0  0
  7  3  1  0  0  0  0
  8  1  1  0  0  0  0
  9 10  2  0  0  0  0
 10 11  1  0  0  0  0
 12 11  2  0  0  0  0
 13  6  1  0  0  0  0
 14  8  1  0  0  0  0
 15 14  1  0  0  0  0
 16 15  1  0  0  0  0
 16 17  1  0  0  0  0
 17 23  1  0  0  0  0
 18 19  1  0  0  0  0
 18 17  1  0  0  0  0
 19 20  1  0  0  0  0
 20 21  1  0  0  0  0
 20 22  1  0  0  0  0
 21 23  1  0  0  0  0
 24 20  1  0  0  0  0
 25 24  1  0  0  0  0
 26 25  1  0  0  0  0
 27 26  1  0  0  0  0
 28  1  1  0  0  0  0
 28 34  1  0  0  0  0
 29 28  2  0  0  0  0
 30 29  1  0  0  0  0
 30 31  2  0  0  0  0
 31 33  1  0  0  0  0
 32 31  1  0  0  0  0
 33 34  2  0  0  0  0
M  END
>  <Pose>
1

>  <Score>
-7.481

$$$$
