/Users/jonathanwahrer/Desktop/Msc/3_Semester/Drug_Design_Praktikum/waehrer_HTS_screening/HTS_experiment/out/docking_results/vina_output/2qfa/0346_docked.pdbqt
 OpenBabel03162219363D

 35 38  0  0  1  0  0  0  0  0999 V2000
   42.2780   11.7000   45.3910 C   0  0  2  0  0  3  0  0  0  0  0  0
   42.3870   10.2680   45.3140 N   0  0  0  0  0  0  0  0  0  0  0  0
   43.0990    9.7500   46.4210 C   0  0  0  0  0  0  0  0  0  0  0  0
   43.4000    8.5410   46.6660 O   0  0  0  0  0  0  0  0  0  0  0  0
   43.4710   10.8670   47.3180 C   0  0  0  0  0  0  0  0  0  0  0  0
   44.1110   10.7510   48.3870 O   0  0  0  0  0  0  0  0  0  0  0  0
   42.9450   12.0590   46.6860 C   0  0  1  0  0  3  0  0  0  0  0  0
   43.1000   13.2620   47.1910 C   0  0  1  0  0  3  0  0  0  0  0  0
   42.2110   13.6640   48.2100 O   0  0  0  0  0  1  0  0  0  0  0  0
   44.1050   14.2220   46.8090 C   0  0  0  0  0  0  0  0  0  0  0  0
   44.3820   15.3920   47.4250 C   0  0  0  0  0  3  0  0  0  0  0  0
   45.4000   16.2060   46.9740 C   0  0  0  0  0  0  0  0  0  0  0  0
   46.1900   15.8940   45.8880 C   0  0  0  0  0  0  0  0  0  0  0  0
   45.6700   17.4950   47.6930 C   0  0  0  0  0  1  0  0  0  0  0  0
   45.8860   14.6950   45.2760 C   0  0  0  0  0  3  0  0  0  0  0  0
   44.8840   13.8650   45.6980 C   0  0  0  0  0  3  0  0  0  0  0  0
   47.2140   16.7200   45.4390 O   0  0  0  0  0  0  0  0  0  0  0  0
   47.7300   16.5600   44.1250 C   0  0  0  0  0  1  0  0  0  0  0  0
   40.8960   12.1810   45.3270 C   0  0  0  0  0  0  0  0  0  0  0  0
   40.5190   13.1320   44.4040 C   0  0  0  0  0  3  0  0  0  0  0  0
   39.2010   13.5950   44.3420 C   0  0  0  0  0  3  0  0  0  0  0  0
   38.2450   13.1110   45.2070 C   0  0  0  0  0  0  0  0  0  0  0  0
   36.4440   13.7710   45.0950 Br  0  0  0  0  0  0  0  0  0  0  0  0
   38.6110   12.1670   46.1260 C   0  0  0  0  0  3  0  0  0  0  0  0
   39.9110   11.7230   46.1730 C   0  0  0  0  0  3  0  0  0  0  0  0
   41.8360    9.4810   44.2260 C   0  0  0  0  0  2  0  0  0  0  0  0
   42.8810    8.9580   43.2780 C   0  0  0  0  0  2  0  0  0  0  0  0
   42.9820    7.4650   43.3320 C   0  0  0  0  0  2  0  0  0  0  0  0
   44.3030    6.9760   43.0600 N   0  0  0  0  0  4  0  0  0  0  0  0
   44.6010    5.7260   43.7280 C   0  0  0  0  0  2  0  0  0  0  0  0
   45.9270    5.2220   43.1480 C   0  0  0  0  0  2  0  0  0  0  0  0
   46.5340    6.2060   42.3830 O   0  0  0  0  0  0  0  0  0  0  0  0
   46.6520    7.4010   43.1270 C   0  0  0  0  0  2  0  0  0  0  0  0
   45.2680    7.9950   43.3600 C   0  0  0  0  0  2  0  0  0  0  0  0
   44.3780    6.7740   42.0180 H   0  0  0  0  0  0  0  0  0  0  0  0
  1 19  1  1  0  0  0
  1  7  1  0  0  0  0
  2  1  1  0  0  0  0
  2  3  1  0  0  0  0
  3  4  2  0  0  0  0
  3  5  1  0  0  0  0
  5  6  2  0  0  0  0
  7  8  1  6  0  0  0
  7  5  1  0  0  0  0
  8  9  1  1  0  0  0
 10  8  1  0  0  0  0
 10 11  1  0  0  0  0
 12 11  2  0  0  0  0
 12 14  1  0  0  0  0
 13 12  1  0  0  0  0
 15 16  1  0  0  0  0
 15 13  2  0  0  0  0
 16 10  2  0  0  0  0
 17 13  1  0  0  0  0
 18 17  1  0  0  0  0
 19 25  1  0  0  0  0
 20 19  2  0  0  0  0
 21 20  1  0  0  0  0
 21 22  2  0  0  0  0
 22 24  1  0  0  0  0
 23 22  1  0  0  0  0
 24 25  2  0  0  0  0
 26  2  1  0  0  0  0
 27 28  1  0  0  0  0
 27 26  1  0  0  0  0
 29 28  1  0  0  0  0
 29 34  1  0  0  0  0
 29 30  1  0  0  0  0
 31 30  1  0  0  0  0
 32 33  1  0  0  0  0
 32 31  1  0  0  0  0
 33 34  1  0  0  0  0
 35 29  1  0  0  0  0
M  END
>  <Pose>
1

>  <Score>
-7.675

$$$$
