/Users/jonathanwahrer/Desktop/Msc/3_Semester/Drug_Design_Praktikum/waehrer_HTS_screening/HTS_experiment/out/docking_results/vina_output/2qfa/0347_docked.pdbqt
 OpenBabel03162219373D

 34 37  0  0  1  0  0  0  0  0999 V2000
   41.5410   10.3150   45.7710 C   0  0  2  0  0  3  0  0  0  0  0  0
   42.4940    9.2260   45.8440 N   0  0  0  0  0  0  0  0  0  0  0  0
   43.3580    9.5220   46.9430 C   0  0  0  0  0  0  0  0  0  0  0  0
   44.0100    8.6980   47.6320 O   0  0  0  0  0  0  0  0  0  0  0  0
   43.3260   10.9730   47.0960 C   0  0  0  0  0  0  0  0  0  0  0  0
   43.9240   11.7010   47.9270 O   0  0  0  0  0  0  0  0  0  0  0  0
   42.4310   11.4980   46.0700 C   0  0  0  0  0  0  0  0  0  0  0  0
   42.4120   12.7150   45.5840 C   0  0  0  0  0  0  0  0  0  0  0  0
   41.4090   12.9860   44.6360 O   0  0  0  0  0  1  0  0  0  0  0  0
   42.5750    8.0420   44.9730 C   0  0  0  0  0  2  0  0  0  0  0  0
   43.6060    8.2720   43.8570 C   0  0  0  0  0  2  0  0  0  0  0  0
   43.9720    6.9500   43.2450 C   0  0  0  0  0  2  0  0  0  0  0  0
   44.9770    6.3140   44.0620 N   0  0  0  0  0  4  0  0  0  0  0  0
   46.1160    7.1350   44.3320 C   0  0  0  0  0  2  0  0  0  0  0  0
   47.0010    7.3200   43.1480 C   0  0  0  0  0  2  0  0  0  0  0  0
   47.4080    6.1000   42.6380 O   0  0  0  0  0  0  0  0  0  0  0  0
   46.2650    5.4090   42.2310 C   0  0  0  0  0  2  0  0  0  0  0  0
   45.4600    5.0790   43.4720 C   0  0  0  0  0  2  0  0  0  0  0  0
   44.5350    6.0480   44.9730 H   0  0  0  0  0  0  0  0  0  0  0  0
   40.4900   10.1690   46.7680 C   0  0  0  0  0  0  0  0  0  0  0  0
   40.3860    9.0180   47.5110 C   0  0  0  0  0  3  0  0  0  0  0  0
   39.3750    8.8580   48.4620 C   0  0  0  0  0  3  0  0  0  0  0  0
   38.4580    9.8610   48.6730 C   0  0  0  0  0  0  0  0  0  0  0  0
   37.0790    9.6380   49.9710 Br  0  0  0  0  0  0  0  0  0  0  0  0
   38.5510   11.0140   47.9380 C   0  0  0  0  0  3  0  0  0  0  0  0
   39.5590   11.1550   47.0010 C   0  0  0  0  0  3  0  0  0  0  0  0
   43.3620   13.7520   45.9730 C   0  0  0  0  0  0  0  0  0  0  0  0
   44.6280   13.8760   45.4490 C   0  0  0  0  0  3  0  0  0  0  0  0
   45.5420   14.8430   45.8290 C   0  0  0  0  0  0  0  0  0  0  0  0
   45.1740   15.7430   46.7870 C   0  0  0  0  0  3  0  0  0  0  0  0
   43.9010   15.6560   47.3450 C   0  0  0  0  0  3  0  0  0  0  0  0
   43.0180   14.6780   46.9420 C   0  0  0  0  0  3  0  0  0  0  0  0
   46.7650   14.8190   45.1980 O   0  0  0  0  0  0  0  0  0  0  0  0
   47.3880   15.8480   44.5100 C   0  0  0  0  0  1  0  0  0  0  0  0
  1  2  1  0  0  0  0
  1  7  1  0  0  0  0
  1 20  1  1  0  0  0
  2  3  1  0  0  0  0
  3  5  1  0  0  0  0
  3  4  2  0  0  0  0
  5  6  2  0  0  0  0
  7  5  1  0  0  0  0
  8 27  1  0  0  0  0
  8  7  2  0  0  0  0
  9  8  1  0  0  0  0
 10  2  1  0  0  0  0
 11 10  1  0  0  0  0
 12 11  1  0  0  0  0
 12 13  1  0  0  0  0
 13 14  1  0  0  0  0
 13 19  1  0  0  0  0
 15 14  1  0  0  0  0
 16 15  1  0  0  0  0
 17 16  1  0  0  0  0
 17 18  1  0  0  0  0
 18 13  1  0  0  0  0
 20 26  2  0  0  0  0
 20 21  1  0  0  0  0
 21 22  2  0  0  0  0
 22 23  1  0  0  0  0
 23 24  1  0  0  0  0
 25 23  2  0  0  0  0
 26 25  1  0  0  0  0
 27 32  1  0  0  0  0
 28 29  1  0  0  0  0
 28 27  2  0  0  0  0
 29 30  2  0  0  0  0
 30 31  1  0  0  0  0
 32 31  2  0  0  0  0
 33 29  1  0  0  0  0
 34 33  1  0  0  0  0
M  END
>  <Pose>
1

>  <Score>
-7.615

$$$$
