/Users/jonathanwahrer/Desktop/Msc/3_Semester/Drug_Design_Praktikum/waehrer_HTS_screening/HTS_experiment/out/docking_results/vina_output/2qfa/0349_docked.pdbqt
 OpenBabel03162219373D

 32 35  0  0  1  0  0  0  0  0999 V2000
   41.2500   10.1720   45.2580 C   0  0  1  0  0  3  0  0  0  0  0  0
   41.4030   11.3510   44.5200 N   0  0  0  0  0  0  0  0  0  0  0  0
   41.3720   10.8850   43.1180 C   0  0  0  0  0  0  0  0  0  0  0  0
   40.9550   11.5240   42.1120 O   0  0  0  0  0  0  0  0  0  0  0  0
   41.9310    9.5310   43.1720 C   0  0  0  0  0  0  0  0  0  0  0  0
   42.1220    8.7210   42.2140 O   0  0  0  0  0  0  0  0  0  0  0  0
   42.2440    9.2850   44.5930 C   0  0  0  0  0  0  0  0  0  0  0  0
   43.1920    8.5210   45.0860 C   0  0  0  0  0  0  0  0  0  0  0  0
   43.4000    8.4540   46.4590 O   0  0  0  0  0  1  0  0  0  0  0  0
   41.5340   12.7790   44.7630 C   0  0  0  0  0  2  0  0  0  0  0  0
   40.2300   13.5320   44.7140 C   0  0  0  0  0  2  0  0  0  0  0  0
   39.2000   12.9560   45.5160 N   0  0  0  0  0  4  0  0  0  0  0  0
   37.9160   13.5390   45.1780 C   0  0  0  0  0  2  0  0  0  0  0  0
   36.8520   12.8770   46.0130 C   0  0  0  0  0  2  0  0  0  0  0  0
   37.0640   13.3060   47.3340 O   0  0  0  0  0  0  0  0  0  0  0  0
   38.2820   12.8160   47.7430 C   0  0  0  0  0  2  0  0  0  0  0  0
   39.4320   13.3420   46.9230 C   0  0  0  0  0  2  0  0  0  0  0  0
   39.1680   11.9280   45.4630 H   0  0  0  0  0  0  0  0  0  0  0  0
   41.0160   10.0300   46.6430 C   0  0  0  0  0  0  0  0  0  0  0  0
   39.9580    9.1970   47.0370 C   0  0  0  0  0  3  0  0  0  0  0  0
   39.6350    8.9960   48.3490 C   0  0  0  0  0  3  0  0  0  0  0  0
   40.3500    9.6140   49.3520 C   0  0  0  0  0  0  0  0  0  0  0  0
   39.9230    9.3520   51.2010 Br  0  0  0  0  0  0  0  0  0  0  0  0
   41.3870   10.4320   48.9720 C   0  0  0  0  0  3  0  0  0  0  0  0
   41.7120   10.6340   47.6300 C   0  0  0  0  0  3  0  0  0  0  0  0
   44.0640    7.7030   44.2580 C   0  0  0  0  0  0  0  0  0  0  0  0
   45.0350    8.1590   43.4220 C   0  0  0  0  0  3  0  0  0  0  0  0
   45.8310    7.2670   42.7180 C   0  0  0  0  0  3  0  0  0  0  0  0
   45.6490    5.9090   42.8560 C   0  0  0  0  0  0  0  0  0  0  0  0
   44.6790    5.4080   43.6910 C   0  0  0  0  0  3  0  0  0  0  0  0
   46.4870    4.9190   42.1150 C   0  0  0  0  0  1  0  0  0  0  0  0
   43.8950    6.3200   44.3850 C   0  0  0  0  0  3  0  0  0  0  0  0
  1 19  1  1  0  0  0
  2 10  1  0  0  0  0
  2  1  1  0  0  0  0
  3  5  1  0  0  0  0
  3  2  1  0  0  0  0
  4  3  2  0  0  0  0
  5  7  1  0  0  0  0
  6  5  2  0  0  0  0
  7  8  2  0  0  0  0
  7  1  1  0  0  0  0
  8  9  1  0  0  0  0
 11 10  1  0  0  0  0
 11 12  1  0  0  0  0
 12 17  1  0  0  0  0
 13 12  1  0  0  0  0
 13 14  1  0  0  0  0
 14 15  1  0  0  0  0
 15 16  1  0  0  0  0
 17 16  1  0  0  0  0
 18 12  1  0  0  0  0
 19 20  2  0  0  0  0
 19 25  1  0  0  0  0
 20 21  1  0  0  0  0
 21 22  2  0  0  0  0
 22 23  1  0  0  0  0
 24 22  1  0  0  0  0
 25 24  2  0  0  0  0
 26 32  1  0  0  0  0
 26  8  1  0  0  0  0
 27 26  2  0  0  0  0
 28 29  2  0  0  0  0
 28 27  1  0  0  0  0
 29 30  1  0  0  0  0
 30 32  2  0  0  0  0
 31 29  1  0  0  0  0
M  END
>  <Pose>
1

>  <Score>
-7.387

$$$$
