/Users/jonathanwahrer/Desktop/Msc/3_Semester/Drug_Design_Praktikum/waehrer_HTS_screening/HTS_experiment/out/docking_results/vina_output/2qfa/0351_docked.pdbqt
 OpenBabel03162219383D

 32 35  0  0  1  0  0  0  0  0999 V2000
   41.3820    9.7800   45.0880 C   0  0  1  0  0  3  0  0  0  0  0  0
   41.5480   10.9460   44.3000 N   0  0  0  0  0  0  0  0  0  0  0  0
   41.5970   10.4270   42.9360 C   0  0  0  0  0  0  0  0  0  0  0  0
   41.2400   11.0410   41.8940 O   0  0  0  0  0  0  0  0  0  0  0  0
   42.1380    9.0730   43.0450 C   0  0  0  0  0  0  0  0  0  0  0  0
   42.3640    8.2470   42.1240 O   0  0  0  0  0  0  0  0  0  0  0  0
   42.3790    8.8540   44.4730 C   0  0  0  0  0  0  0  0  0  0  0  0
   43.2840    8.0690   45.0290 C   0  0  0  0  0  0  0  0  0  0  0  0
   43.4220    8.0260   46.4070 O   0  0  0  0  0  1  0  0  0  0  0  0
   41.6120   12.3780   44.6050 C   0  0  0  0  0  2  0  0  0  0  0  0
   40.2770   13.0540   44.6820 C   0  0  0  0  0  2  0  0  0  0  0  0
   39.4670   12.5700   45.7770 N   0  0  0  0  0  4  0  0  0  0  0  0
   38.0580   12.6970   45.5300 C   0  0  0  0  0  2  0  0  0  0  0  0
   37.5630   14.1140   45.5380 C   0  0  0  0  0  2  0  0  0  0  0  0
   37.9460   14.7980   46.6930 O   0  0  0  0  0  0  0  0  0  0  0  0
   39.3490   14.7940   46.7030 C   0  0  0  0  0  2  0  0  0  0  0  0
   39.7820   13.3650   46.9500 C   0  0  0  0  0  2  0  0  0  0  0  0
   39.6690   11.5800   46.0170 H   0  0  0  0  0  0  0  0  0  0  0  0
   41.3240    9.8060   46.4990 C   0  0  0  0  0  0  0  0  0  0  0  0
   42.1910   10.5260   47.2710 C   0  0  0  0  0  3  0  0  0  0  0  0
   42.0790   10.5290   48.6690 C   0  0  0  0  0  3  0  0  0  0  0  0
   41.0980    9.8110   49.3140 C   0  0  0  0  0  0  0  0  0  0  0  0
   40.9040    9.7810   51.2060 Br  0  0  0  0  0  0  0  0  0  0  0  0
   40.2280    9.0870   48.5430 C   0  0  0  0  0  3  0  0  0  0  0  0
   40.3520    9.0960   47.1730 C   0  0  0  0  0  3  0  0  0  0  0  0
   44.1780    7.2060   44.2690 C   0  0  0  0  0  0  0  0  0  0  0  0
   45.2820    7.8610   43.7060 C   0  0  0  0  0  3  0  0  0  0  0  0
   46.2440    7.1860   42.9910 C   0  0  0  0  0  3  0  0  0  0  0  0
   46.1020    5.8120   42.8330 C   0  0  0  0  0  0  0  0  0  0  0  0
   45.0150    5.1750   43.3900 C   0  0  0  0  0  3  0  0  0  0  0  0
   47.3310    4.9630   41.9220 Cl  0  0  0  0  0  0  0  0  0  0  0  0
   44.0560    5.8610   44.1050 C   0  0  0  0  0  3  0  0  0  0  0  0
  1 19  1  1  0  0  0
  2 10  1  0  0  0  0
  2  1  1  0  0  0  0
  3  5  1  0  0  0  0
  3  2  1  0  0  0  0
  4  3  2  0  0  0  0
  5  7  1  0  0  0  0
  6  5  2  0  0  0  0
  7  8  2  0  0  0  0
  7  1  1  0  0  0  0
  8  9  1  0  0  0  0
 10 11  1  0  0  0  0
 11 12  1  0  0  0  0
 12 18  1  0  0  0  0
 12 17  1  0  0  0  0
 13 14  1  0  0  0  0
 13 12  1  0  0  0  0
 14 15  1  0  0  0  0
 15 16  1  0  0  0  0
 16 17  1  0  0  0  0
 19 25  2  0  0  0  0
 19 20  1  0  0  0  0
 20 21  2  0  0  0  0
 21 22  1  0  0  0  0
 22 23  1  0  0  0  0
 24 22  2  0  0  0  0
 25 24  1  0  0  0  0
 26  8  1  0  0  0  0
 27 26  2  0  0  0  0
 28 27  1  0  0  0  0
 29 28  2  0  0  0  0
 29 30  1  0  0  0  0
 30 32  2  0  0  0  0
 31 29  1  0  0  0  0
 32 26  1  0  0  0  0
M  END
>  <Pose>
1

>  <Score>
-7.127

$$$$
