/Users/jonathanwahrer/Desktop/Msc/3_Semester/Drug_Design_Praktikum/waehrer_HTS_screening/HTS_experiment/out/docking_results/vina_output/2qfa/0364_docked.pdbqt
 OpenBabel03162219403D

 32 35  0  0  1  0  0  0  0  0999 V2000
   42.2800   12.9070   46.2350 C   0  0  1  0  0  3  0  0  0  0  0  0
   41.1280   13.5470   45.6620 N   0  0  0  0  0  0  0  0  0  0  0  0
   40.6580   12.7170   44.6140 C   0  0  0  0  0  0  0  0  0  0  0  0
   39.7890   13.0390   43.7540 O   0  0  0  0  0  0  0  0  0  0  0  0
   41.3390   11.4220   44.6840 C   0  0  0  0  0  0  0  0  0  0  0  0
   41.1810   10.4310   43.9290 O   0  0  0  0  0  0  0  0  0  0  0  0
   42.2480   11.4890   45.8140 C   0  0  0  0  0  0  0  0  0  0  0  0
   42.8650   10.4600   46.3710 C   0  0  0  0  0  0  0  0  0  0  0  0
   43.6490   10.7210   47.5120 O   0  0  0  0  0  1  0  0  0  0  0  0
   43.5490   13.5740   45.8380 C   0  0  0  0  0  0  0  0  0  0  0  0
   44.2930   13.1710   44.7520 C   0  0  0  0  0  3  0  0  0  0  0  0
   45.4690   13.7640   44.3580 C   0  0  0  0  0  3  0  0  0  0  0  0
   45.9560   14.8250   45.0660 C   0  0  0  0  0  0  0  0  0  0  0  0
   47.5920   15.6370   44.5020 Br  0  0  0  0  0  0  0  0  0  0  0  0
   45.2490   15.2650   46.1590 C   0  0  0  0  0  3  0  0  0  0  0  0
   44.0750   14.6600   46.5400 C   0  0  0  0  0  3  0  0  0  0  0  0
   42.8220    9.0910   45.9200 C   0  0  0  0  0  0  0  0  0  0  0  0
   43.4440    8.4320   44.9350 N   0  0  0  0  0  0  0  0  0  0  0  0
   43.0360    7.1520   44.8810 C   0  0  0  0  0  0  0  0  0  0  0  0
   44.3810    8.8350   44.0500 C   0  0  0  0  0  3  0  0  0  0  0  0
   42.1300    6.9880   45.8600 N   0  0  0  0  0  0  0  0  0  0  0  0
   43.5270    6.2270   43.9660 C   0  0  0  0  0  3  0  0  0  0  0  0
   41.9750    8.1430   46.5100 C   0  0  0  0  0  0  0  0  0  0  0  0
   41.0560    8.3630   47.6620 C   0  0  0  0  0  1  0  0  0  0  0  0
   44.4760    6.6410   43.0720 C   0  0  0  0  0  3  0  0  0  0  0  0
   44.8980    7.9570   43.1260 C   0  0  0  0  0  3  0  0  0  0  0  0
   40.5330   14.8350   46.0820 C   0  0  0  0  0  2  0  0  0  0  0  0
   39.4130   14.5880   47.0700 C   0  0  0  0  0  2  0  0  0  0  0  0
   38.3950   13.7330   46.5690 N   0  0  0  0  0  4  0  0  0  0  0  0
   38.0960   12.7440   47.6050 C   0  0  0  0  0  1  0  0  0  0  0  0
   37.1790   14.3850   46.1940 C   0  0  0  0  0  1  0  0  0  0  0  0
   38.7220   13.1770   45.7290 H   0  0  0  0  0  0  0  0  0  0  0  0
  1 10  1  6  0  0  0
  2 27  1  0  0  0  0
  2  1  1  0  0  0  0
  3  5  1  0  0  0  0
  3  2  1  0  0  0  0
  4  3  2  0  0  0  0
  5  7  1  0  0  0  0
  6  5  2  0  0  0  0
  7  1  1  0  0  0  0
  7  8  2  0  0  0  0
  8  9  1  0  0  0  0
 10 16  1  0  0  0  0
 11 10  2  0  0  0  0
 12 11  1  0  0  0  0
 12 13  2  0  0  0  0
 13 15  1  0  0  0  0
 14 13  1  0  0  0  0
 15 16  2  0  0  0  0
 17  8  1  0  0  0  0
 17 23  2  0  0  0  0
 18 17  1  0  0  0  0
 19 18  1  0  0  0  0
 19 21  2  0  0  0  0
 20 18  1  0  0  0  0
 21 23  1  0  0  0  0
 22 19  1  0  0  0  0
 23 24  1  0  0  0  0
 25 26  1  0  0  0  0
 25 22  2  0  0  0  0
 26 20  2  0  0  0  0
 27 28  1  0  0  0  0
 29 28  1  0  0  0  0
 29 30  1  0  0  0  0
 31 29  1  0  0  0  0
 32 29  1  0  0  0  0
M  END
>  <Pose>
1

>  <Score>
-7.337

$$$$
