/Users/jonathanwahrer/Desktop/Msc/3_Semester/Drug_Design_Praktikum/waehrer_HTS_screening/HTS_experiment/out/docking_results/vina_output/2qfa/0381_docked.pdbqt
 OpenBabel03162219403D

 29 32  0  0  0  0  0  0  0  0999 V2000
   42.3860   11.6010   44.6850 N   0  0  0  0  0  0  0  0  0  0  0  0
   43.2750   12.5690   44.8880 N   0  0  0  0  0  0  0  0  0  0  0  0
   43.5080   13.0790   46.1310 C   0  0  0  0  0  0  0  0  0  0  0  0
   42.8230   12.5950   47.1790 N   0  0  0  0  0  0  0  0  0  0  0  0
   43.2000   13.2850   48.3930 C   0  0  0  0  0  3  0  0  0  0  0  0
   44.2440   14.2930   48.0150 C   0  0  0  0  0  3  0  0  0  0  0  0
   44.4200   14.0690   46.5930 N   0  0  0  0  0  0  0  0  0  0  0  0
   41.9150   11.6200   47.0370 C   0  0  0  0  0  0  0  0  0  0  0  0
   41.2760   11.1700   48.0170 O   0  0  0  0  0  0  0  0  0  0  0  0
   41.7200   11.1390   45.7580 C   0  0  0  0  0  0  0  0  0  0  0  0
   40.8760   10.2250   45.5750 O   0  0  0  0  0  0  0  0  0  0  0  0
   42.1480   11.0170   43.3550 C   0  0  0  0  0  2  0  0  0  0  0  0
   42.8210    9.7250   43.2280 C   0  0  0  0  0  0  0  0  0  0  0  0
   44.0910    9.3660   43.6980 N   0  0  0  0  0  0  0  0  0  0  0  0
   44.6370   10.1220   44.1990 H   0  0  0  0  0  0  0  0  0  0  0  0
   42.1150    8.8420   42.5970 O   0  0  0  0  0  0  0  0  0  0  0  0
   44.6890    8.1120   43.5560 C   0  0  0  0  0  0  0  0  0  0  0  0
   44.1680    6.8960   43.9220 C   0  0  0  0  0  3  0  0  0  0  0  0
   44.8400    5.6840   43.7110 C   0  0  0  0  0  3  0  0  0  0  0  0
   46.0740    5.6470   43.1170 C   0  0  0  0  0  0  0  0  0  0  0  0
   47.0020    4.0040   42.8180 Br  0  0  0  0  0  0  0  0  0  0  0  0
   46.6190    6.8590   42.7400 C   0  0  0  0  0  3  0  0  0  0  0  0
   45.9590    8.0370   42.9500 C   0  0  0  0  0  3  0  0  0  0  0  0
   45.3800   14.7650   45.8210 C   0  0  0  0  0  0  0  0  0  0  0  0
   45.8620   14.3190   44.6200 C   0  0  0  0  0  3  0  0  0  0  0  0
   46.8130   15.0160   43.8970 C   0  0  0  0  0  3  0  0  0  0  0  0
   47.3060   16.2090   44.3890 C   0  0  0  0  0  3  0  0  0  0  0  0
   46.8400   16.6700   45.5800 C   0  0  0  0  0  3  0  0  0  0  0  0
   45.8930   15.9690   46.2950 C   0  0  0  0  0  3  0  0  0  0  0  0
  1  2  1  0  0  0  0
  1 10  1  0  0  0  0
  2  3  2  0  0  0  0
  3  7  1  0  0  0  0
  3  4  1  0  0  0  0
  4  5  1  0  0  0  0
  6  5  2  0  0  0  0
  7  6  1  0  0  0  0
  8  4  1  0  0  0  0
  8  9  2  0  0  0  0
 10  8  1  0  0  0  0
 11 10  2  0  0  0  0
 12  1  1  0  0  0  0
 13 12  1  0  0  0  0
 13 14  1  0  0  0  0
 14 15  1  0  0  0  0
 16 13  2  0  0  0  0
 17 14  1  0  0  0  0
 17 18  1  0  0  0  0
 19 18  2  0  0  0  0
 20 19  1  0  0  0  0
 21 20  1  0  0  0  0
 22 23  1  0  0  0  0
 22 20  2  0  0  0  0
 23 17  2  0  0  0  0
 24 29  1  0  0  0  0
 24  7  1  0  0  0  0
 25 24  2  0  0  0  0
 26 27  2  0  0  0  0
 26 25  1  0  0  0  0
 27 28  1  0  0  0  0
 28 29  2  0  0  0  0
M  END
>  <Pose>
1

>  <Score>
-8.345

$$$$
