/Users/jonathanwahrer/Desktop/Msc/3_Semester/Drug_Design_Praktikum/waehrer_HTS_screening/HTS_experiment/out/docking_results/vina_output/2qfa/0382_docked.pdbqt
 OpenBabel03162219403D

 31 34  0  0  0  0  0  0  0  0999 V2000
   40.8840   10.8030   44.9920 N   0  0  0  0  0  0  0  0  0  0  0  0
   39.8500   10.8390   44.1510 N   0  0  0  0  0  0  0  0  0  0  0  0
   40.0420    9.9710   43.1850 N   0  0  0  0  0  0  0  0  0  0  0  0
   41.2270    9.3500   43.3960 C   0  0  0  0  0  0  0  0  0  0  0  0
   41.7340    9.8760   44.5170 C   0  0  0  0  0  0  0  0  0  0  0  0
   42.9350    9.2210   44.6960 C   0  0  0  0  0  0  0  0  0  0  0  0
   43.7040    9.4630   45.6730 O   0  0  0  0  0  0  0  0  0  0  0  0
   43.1680    8.3230   43.7270 N   0  0  0  0  0  0  0  0  0  0  0  0
   42.0880    8.4000   42.8980 C   0  0  0  0  0  0  0  0  0  0  0  0
   41.9670    7.6880   41.8650 O   0  0  0  0  0  0  0  0  0  0  0  0
   39.0350   11.4740   44.2810 H   0  0  0  0  0  0  0  0  0  0  0  0
   39.4200    9.7540   42.3670 H   0  0  0  0  0  0  0  0  0  0  0  0
   41.0090   11.6310   46.1750 C   0  0  0  0  0  2  0  0  0  0  0  0
   41.9540   12.7790   45.8630 C   0  0  0  0  0  0  0  0  0  0  0  0
   43.3400   12.5740   45.8970 N   0  0  0  0  0  0  0  0  0  0  0  0
   43.7030   11.6010   46.1500 H   0  0  0  0  0  0  0  0  0  0  0  0
   41.4750   13.8980   45.5810 O   0  0  0  0  0  0  0  0  0  0  0  0
   44.3310   13.5440   45.6230 C   0  0  0  0  0  0  0  0  0  0  0  0
   44.6740   14.5920   46.4490 C   0  0  0  0  0  3  0  0  0  0  0  0
   45.6750   15.5040   46.1440 C   0  0  0  0  0  3  0  0  0  0  0  0
   46.3820   15.3930   44.9740 C   0  0  0  0  0  0  0  0  0  0  0  0
   47.7660   16.6040   44.4940 Br  0  0  0  0  0  0  0  0  0  0  0  0
   46.0570   14.3530   44.1320 C   0  0  0  0  0  3  0  0  0  0  0  0
   45.0770   13.4620   44.4320 C   0  0  0  0  0  3  0  0  0  0  0  0
   44.2940    7.4490   43.5600 C   0  0  0  0  0  0  0  0  0  0  0  0
   44.1910    6.1010   43.8300 C   0  0  0  0  0  3  0  0  0  0  0  0
   45.2670    5.2520   43.6620 C   0  0  0  0  0  3  0  0  0  0  0  0
   46.4960    5.7040   43.2180 C   0  0  0  0  0  0  0  0  0  0  0  0
   46.6010    7.0520   42.9470 C   0  0  0  0  0  3  0  0  0  0  0  0
   47.6330    4.7610   43.0430 C   0  0  0  0  0  1  0  0  0  0  0  0
   45.5190    7.9000   43.1170 C   0  0  0  0  0  3  0  0  0  0  0  0
  1 13  1  0  0  0  0
  2 11  1  0  0  0  0
  2  1  1  0  0  0  0
  3  4  1  0  0  0  0
  3  2  1  0  0  0  0
  4  5  2  0  0  0  0
  5  6  1  0  0  0  0
  5  1  1  0  0  0  0
  6  7  2  0  0  0  0
  8  6  1  0  0  0  0
  9  4  1  0  0  0  0
  9  8  1  0  0  0  0
 10  9  2  0  0  0  0
 12  3  1  0  0  0  0
 14 15  1  0  0  0  0
 14 13  1  0  0  0  0
 15 16  1  0  0  0  0
 17 14  2  0  0  0  0
 18 15  1  0  0  0  0
 18 19  1  0  0  0  0
 20 19  2  0  0  0  0
 21 20  1  0  0  0  0
 22 21  1  0  0  0  0
 23 24  1  0  0  0  0
 23 21  2  0  0  0  0
 24 18  2  0  0  0  0
 25  8  1  0  0  0  0
 25 26  1  0  0  0  0
 27 26  2  0  0  0  0
 28 27  1  0  0  0  0
 29 31  1  0  0  0  0
 29 28  2  0  0  0  0
 30 28  1  0  0  0  0
 31 25  2  0  0  0  0
M  END
>  <Pose>
1

>  <Score>
-8.603

$$$$
