/Users/jonathanwahrer/Desktop/Msc/3_Semester/Drug_Design_Praktikum/waehrer_HTS_screening/HTS_experiment/out/docking_results/vina_output/2qfa/0395_docked.pdbqt
 OpenBabel03162219413D

 28 31  0  0  1  0  0  0  0  0999 V2000
   47.2540    5.9090   42.9660 N   0  0  0  0  0  0  0  0  0  0  0  0
   47.6830    7.1020   42.5910 N   0  0  0  0  0  0  0  0  0  0  0  0
   46.7370    8.0160   42.7140 N   0  0  0  0  0  0  0  0  0  0  0  0
   45.6140    7.4170   43.1940 C   0  0  0  0  0  0  0  0  0  0  0  0
   45.9750    6.0900   43.3400 C   0  0  0  0  0  0  0  0  0  0  0  0
   45.0410    5.2540   43.8060 N   0  0  0  0  0  0  0  0  0  0  0  0
   43.8100    5.6980   44.1140 C   0  0  0  0  0  3  0  0  0  0  0  0
   43.4480    6.9940   43.9730 N   0  0  0  0  0  0  0  0  0  0  0  0
   44.3530    7.8650   43.5100 C   0  0  0  0  0  0  0  0  0  0  0  0
   44.0220    9.0630   43.3780 O   0  0  0  0  0  0  0  0  0  0  0  0
   42.0950    7.3770   44.3310 C   0  0  0  0  0  2  0  0  0  0  0  0
   42.0940    8.1100   45.6490 C   0  0  0  0  0  0  0  0  0  0  0  0
   42.4930    7.5400   46.6990 O   0  0  0  0  0  0  0  0  0  0  0  0
   41.6460    9.4490   45.7330 N   0  0  0  0  0  0  0  0  0  0  0  0
   41.6400   10.1600   46.9900 C   0  0  0  0  0  2  0  0  0  0  0  0
   41.1800   10.1360   44.5520 C   0  0  0  0  0  2  0  0  0  0  0  0
   40.3060   10.8810   47.0820 C   0  0  2  0  0  3  0  0  0  0  0  0
   40.0470   11.6970   46.0110 O   0  0  0  0  0  0  0  0  0  0  0  0
   40.3920   11.7790   48.3200 C   0  0  0  0  0  1  0  0  0  0  0  0
   40.9260   11.5720   44.9630 C   0  0  2  0  0  3  0  0  0  0  0  0
   40.5420   12.3810   43.7590 C   0  0  0  0  0  1  0  0  0  0  0  0
   47.9750    4.6740   42.9780 C   0  0  0  0  0  0  0  0  0  0  0  0
   47.7020    3.7010   42.0400 C   0  0  0  0  0  3  0  0  0  0  0  0
   48.3970    2.5010   42.0460 C   0  0  0  0  0  3  0  0  0  0  0  0
   49.3790    2.2290   42.9760 C   0  0  0  0  0  0  0  0  0  0  0  0
   50.3250    0.5640   42.9630 Br  0  0  0  0  0  0  0  0  0  0  0  0
   49.6520    3.2020   43.9140 C   0  0  0  0  0  3  0  0  0  0  0  0
   48.9580    4.3950   43.9060 C   0  0  0  0  0  3  0  0  0  0  0  0
  1 22  1  0  0  0  0
  1  5  1  0  0  0  0
  2  3  2  0  0  0  0
  2  1  1  0  0  0  0
  3  4  1  0  0  0  0
  4  5  2  0  0  0  0
  4  9  1  0  0  0  0
  5  6  1  0  0  0  0
  6  7  2  0  0  0  0
  8  7  1  0  0  0  0
  8 11  1  0  0  0  0
  9  8  1  0  0  0  0
 10  9  2  0  0  0  0
 11 12  1  0  0  0  0
 12 14  1  0  0  0  0
 12 13  2  0  0  0  0
 14 15  1  0  0  0  0
 15 17  1  0  0  0  0
 16 20  1  0  0  0  0
 16 14  1  0  0  0  0
 17 19  1  1  0  0  0
 18 17  1  0  0  0  0
 20 21  1  6  0  0  0
 20 18  1  0  0  0  0
 22 28  1  0  0  0  0
 23 24  1  0  0  0  0
 23 22  2  0  0  0  0
 24 25  2  0  0  0  0
 25 27  1  0  0  0  0
 26 25  1  0  0  0  0
 28 27  2  0  0  0  0
M  END
>  <Pose>
1

>  <Score>
-8.008

$$$$
