/Users/jonathanwahrer/Desktop/Msc/3_Semester/Drug_Design_Praktikum/waehrer_HTS_screening/HTS_experiment/out/docking_results/vina_output/2qfa/0408_docked.pdbqt
 OpenBabel03162219423D

 31 34  0  0  0  0  0  0  0  0999 V2000
   42.9840    8.4650   44.0400 N   0  0  0  0  0  0  0  0  0  0  0  0
   42.7700    9.1660   45.1660 C   0  0  0  0  0  0  0  0  0  0  0  0
   43.5090    9.0890   46.1950 O   0  0  0  0  0  0  0  0  0  0  0  0
   41.6400    9.9750   45.0450 C   0  0  0  0  0  0  0  0  0  0  0  0
   41.1740    9.7500   43.8210 C   0  0  0  0  0  0  0  0  0  0  0  0
   40.0870   10.5380   43.7260 N   0  0  0  0  0  0  0  0  0  0  0  0
   39.9080   11.2110   44.8510 N   0  0  0  0  0  0  0  0  0  0  0  0
   40.8670   10.8690   45.6760 N   0  0  0  0  0  0  0  0  0  0  0  0
   41.9890    8.8270   43.1980 C   0  0  0  0  0  0  0  0  0  0  0  0
   41.8670    8.3700   42.0400 O   0  0  0  0  0  0  0  0  0  0  0  0
   39.5070   10.5650   42.8490 H   0  0  0  0  0  0  0  0  0  0  0  0
   39.1200   11.8840   44.9940 H   0  0  0  0  0  0  0  0  0  0  0  0
   41.0770   11.3470   47.0190 C   0  0  0  0  0  2  0  0  0  0  0  0
   42.3030   12.2080   47.1210 C   0  0  0  0  0  0  0  0  0  0  0  0
   43.0860   11.8850   48.0460 O   0  0  0  0  0  0  0  0  0  0  0  0
   42.5460   13.2770   46.2550 N   0  0  0  0  0  0  0  0  0  0  0  0
   41.7820   13.4290   45.5140 H   0  0  0  0  0  0  0  0  0  0  0  0
   43.6490   14.1390   46.2610 C   0  0  0  0  0  0  0  0  0  0  0  0
   44.6980   13.8440   45.3750 C   0  0  0  0  0  0  0  0  0  0  0  0
   45.7980   14.6630   45.3470 C   0  0  0  0  0  3  0  0  0  0  0  0
   44.6400   12.6750   44.4770 C   0  0  0  0  0  1  0  0  0  0  0  0
   45.9270   15.7740   46.1540 C   0  0  0  0  0  3  0  0  0  0  0  0
   44.9120   16.0660   47.0170 C   0  0  0  0  0  3  0  0  0  0  0  0
   43.8010   15.2500   47.0540 C   0  0  0  0  0  3  0  0  0  0  0  0
   44.0340    7.5370   43.7830 C   0  0  0  0  0  0  0  0  0  0  0  0
   45.2300    7.9640   43.2310 C   0  0  0  0  0  3  0  0  0  0  0  0
   46.2620    7.0810   42.9730 C   0  0  0  0  0  3  0  0  0  0  0  0
   46.1400    5.7380   43.2570 C   0  0  0  0  0  0  0  0  0  0  0  0
   47.5760    4.5150   42.8980 Br  0  0  0  0  0  0  0  0  0  0  0  0
   44.9550    5.3030   43.8060 C   0  0  0  0  0  3  0  0  0  0  0  0
   43.9330    6.1890   44.0600 C   0  0  0  0  0  3  0  0  0  0  0  0
  1  2  1  0  0  0  0
  2  3  2  0  0  0  0
  4  2  1  0  0  0  0
  4  8  1  0  0  0  0
  5  4  2  0  0  0  0
  6  5  1  0  0  0  0
  6  7  1  0  0  0  0
  7 12  1  0  0  0  0
  7  8  1  0  0  0  0
  8 13  1  0  0  0  0
  9  5  1  0  0  0  0
  9  1  1  0  0  0  0
 10  9  2  0  0  0  0
 11  6  1  0  0  0  0
 13 14  1  0  0  0  0
 14 15  2  0  0  0  0
 16 18  1  0  0  0  0
 16 14  1  0  0  0  0
 17 16  1  0  0  0  0
 18 24  1  0  0  0  0
 19 18  2  0  0  0  0
 20 19  1  0  0  0  0
 20 22  2  0  0  0  0
 21 19  1  0  0  0  0
 22 23  1  0  0  0  0
 23 24  2  0  0  0  0
 25  1  1  0  0  0  0
 25 31  1  0  0  0  0
 26 25  2  0  0  0  0
 27 26  1  0  0  0  0
 27 28  2  0  0  0  0
 28 30  1  0  0  0  0
 29 28  1  0  0  0  0
 30 31  2  0  0  0  0
M  END
>  <Pose>
1

>  <Score>
-8.151

$$$$
