/Users/jonathanwahrer/Desktop/Msc/3_Semester/Drug_Design_Praktikum/waehrer_HTS_screening/HTS_experiment/out/docking_results/vina_output/2qfa/0412_docked.pdbqt
 OpenBabel03162219433D

 34 37  0  0  0  0  0  0  0  0999 V2000
   43.0770    8.5280   44.0510 N   0  0  0  0  0  0  0  0  0  0  0  0
   42.8330    9.2490   45.1490 C   0  0  0  0  0  0  0  0  0  0  0  0
   43.5520    9.2120   46.2020 O   0  0  0  0  0  0  0  0  0  0  0  0
   41.7180   10.0470   45.0440 C   0  0  0  0  0  0  0  0  0  0  0  0
   41.2530    9.7980   43.8040 C   0  0  0  0  0  0  0  0  0  0  0  0
   40.1510   10.5740   43.6730 N   0  0  0  0  0  0  0  0  0  0  0  0
   39.9500   11.2680   44.7800 N   0  0  0  0  0  0  0  0  0  0  0  0
   40.9100   10.9480   45.6240 N   0  0  0  0  0  0  0  0  0  0  0  0
   42.0700    8.8760   43.1910 C   0  0  0  0  0  0  0  0  0  0  0  0
   41.9710    8.3890   42.0390 O   0  0  0  0  0  0  0  0  0  0  0  0
   39.5590   10.6000   42.8100 H   0  0  0  0  0  0  0  0  0  0  0  0
   39.1450   11.9390   44.9000 H   0  0  0  0  0  0  0  0  0  0  0  0
   41.0500   11.4910   46.9440 C   0  0  0  0  0  2  0  0  0  0  0  0
   42.2110   12.3640   47.1030 C   0  0  0  0  0  0  0  0  0  0  0  0
   43.1330   12.1260   47.9360 O   0  0  0  0  0  0  0  0  0  0  0  0
   42.2920   13.5190   46.2930 N   0  0  0  0  0  0  0  0  0  0  0  0
   41.5230   13.7430   45.5890 H   0  0  0  0  0  0  0  0  0  0  0  0
   43.4110   14.3780   46.4340 C   0  0  0  0  0  0  0  0  0  0  0  0
   43.2620   15.4460   47.2840 C   0  0  0  0  0  3  0  0  0  0  0  0
   44.3100   16.3580   47.4550 C   0  0  0  0  0  0  0  0  0  0  0  0
   45.4840   16.1840   46.7700 C   0  0  0  0  0  3  0  0  0  0  0  0
   45.6500   15.1060   45.9030 C   0  0  0  0  0  0  0  0  0  0  0  0
   44.5930   14.2200   45.7580 C   0  0  0  0  0  3  0  0  0  0  0  0
   44.0530   17.3840   48.3320 O   0  0  0  0  0  0  0  0  0  0  0  0
   42.7910   17.7710   48.7380 C   0  0  0  0  0  1  0  0  0  0  0  0
   46.8560   14.9980   45.2440 O   0  0  0  0  0  0  0  0  0  0  0  0
   47.2990   15.7660   44.1690 C   0  0  0  0  0  1  0  0  0  0  0  0
   44.1280    7.5980   43.7770 C   0  0  0  0  0  0  0  0  0  0  0  0
   43.9580    6.2550   44.0060 C   0  0  0  0  0  3  0  0  0  0  0  0
   44.9940    5.3480   43.7320 C   0  0  0  0  0  3  0  0  0  0  0  0
   46.1990    5.7790   43.2320 C   0  0  0  0  0  0  0  0  0  0  0  0
   47.6230    4.5350   42.8520 Br  0  0  0  0  0  0  0  0  0  0  0  0
   46.3670    7.1250   43.0040 C   0  0  0  0  0  3  0  0  0  0  0  0
   45.3460    8.0060   43.2760 C   0  0  0  0  0  3  0  0  0  0  0  0
  1  2  1  0  0  0  0
  2  3  2  0  0  0  0
  4  2  1  0  0  0  0
  4  8  1  0  0  0  0
  5  4  2  0  0  0  0
  6  5  1  0  0  0  0
  6  7  1  0  0  0  0
  7 12  1  0  0  0  0
  7  8  1  0  0  0  0
  8 13  1  0  0  0  0
  9  5  1  0  0  0  0
  9  1  1  0  0  0  0
 10  9  2  0  0  0  0
 11  6  1  0  0  0  0
 13 14  1  0  0  0  0
 14 15  2  0  0  0  0
 16 18  1  0  0  0  0
 16 14  1  0  0  0  0
 17 16  1  0  0  0  0
 18 19  1  0  0  0  0
 19 20  2  0  0  0  0
 20 24  1  0  0  0  0
 21 20  1  0  0  0  0
 22 21  2  0  0  0  0
 23 22  1  0  0  0  0
 23 18  2  0  0  0  0
 24 25  1  0  0  0  0
 26 22  1  0  0  0  0
 27 26  1  0  0  0  0
 28 29  1  0  0  0  0
 28  1  1  0  0  0  0
 30 29  2  0  0  0  0
 31 30  1  0  0  0  0
 32 31  1  0  0  0  0
 33 31  2  0  0  0  0
 33 34  1  0  0  0  0
 34 28  2  0  0  0  0
M  END
>  <Pose>
1

>  <Score>
-7.832

$$$$
