/Users/jonathanwahrer/Desktop/Msc/3_Semester/Drug_Design_Praktikum/waehrer_HTS_screening/HTS_experiment/out/docking_results/vina_output/2qfa/0414_docked.pdbqt
 OpenBabel03162219443D

 35 38  0  0  0  0  0  0  0  0999 V2000
   42.7340   10.8180   46.1230 N   0  0  0  0  0  0  0  0  0  0  0  0
   43.1930   10.1500   45.0350 C   0  0  0  0  0  0  0  0  0  0  0  0
   44.0040   10.6000   44.1660 O   0  0  0  0  0  0  0  0  0  0  0  0
   42.6410    8.8810   45.0020 C   0  0  0  0  0  0  0  0  0  0  0  0
   41.8570    8.8050   46.0750 C   0  0  0  0  0  0  0  0  0  0  0  0
   41.3020    7.5690   46.0660 N   0  0  0  0  0  0  0  0  0  0  0  0
   41.7640    6.9330   44.9940 N   0  0  0  0  0  0  0  0  0  0  0  0
   42.5890    7.7080   44.3160 N   0  0  0  0  0  0  0  0  0  0  0  0
   41.9040    9.9890   46.7720 C   0  0  0  0  0  0  0  0  0  0  0  0
   41.2940   10.2690   47.8270 O   0  0  0  0  0  0  0  0  0  0  0  0
   40.6380    7.1990   46.7770 H   0  0  0  0  0  0  0  0  0  0  0  0
   41.5080    5.9650   44.7340 H   0  0  0  0  0  0  0  0  0  0  0  0
   43.3220    7.4260   43.0880 C   0  0  0  0  0  2  0  0  0  0  0  0
   44.3500    6.3560   43.3620 C   0  0  0  0  0  0  0  0  0  0  0  0
   43.8930    5.4160   44.0590 O   0  0  0  0  0  0  0  0  0  0  0  0
   45.6410    6.4850   42.8530 N   0  0  0  0  0  0  0  0  0  0  0  0
   45.8240    7.3690   42.2800 H   0  0  0  0  0  0  0  0  0  0  0  0
   46.7210    5.5810   43.0140 C   0  0  0  0  0  0  0  0  0  0  0  0
   47.6790    5.6590   43.9960 C   0  0  0  0  0  3  0  0  0  0  0  0
   48.7190    4.7240   44.0880 C   0  0  0  0  0  3  0  0  0  0  0  0
   48.8260    3.6830   43.1970 C   0  0  0  0  0  0  0  0  0  0  0  0
   47.8730    3.5950   42.2120 C   0  0  0  0  0  3  0  0  0  0  0  0
   46.8490    4.5190   42.1230 C   0  0  0  0  0  3  0  0  0  0  0  0
   49.9250    2.7330   43.3310 C   0  0  0  0  0  0  0  0  0  0  0  0
   50.3520    2.4820   44.4860 O   0  0  0  0  0  0  0  0  0  0  0  0
   50.5270    2.0950   42.2830 O   0  0  0  0  0  0  0  0  0  0  0  0
   51.8630    1.6840   42.2200 C   0  0  0  0  0  2  0  0  0  0  0  0
   51.8470    0.1490   42.2060 C   0  0  0  0  0  1  0  0  0  0  0  0
   43.1110   12.1540   46.4480 C   0  0  0  0  0  0  0  0  0  0  0  0
   44.2250   12.3760   47.2440 C   0  0  0  0  0  3  0  0  0  0  0  0
   44.6130   13.6360   47.5740 C   0  0  0  0  0  3  0  0  0  0  0  0
   43.9240   14.7470   47.1350 C   0  0  0  0  0  0  0  0  0  0  0  0
   44.4320   16.5270   47.5710 Br  0  0  0  0  0  0  0  0  0  0  0  0
   42.8200   14.5120   46.3450 C   0  0  0  0  0  3  0  0  0  0  0  0
   42.4160   13.2490   46.0050 C   0  0  0  0  0  3  0  0  0  0  0  0
  1 29  1  0  0  0  0
  1  9  1  0  0  0  0
  2  1  1  0  0  0  0
  3  2  2  0  0  0  0
  4  2  1  0  0  0  0
  4  5  2  0  0  0  0
  5  9  1  0  0  0  0
  6  5  1  0  0  0  0
  6 11  1  0  0  0  0
  7  6  1  0  0  0  0
  8  7  1  0  0  0  0
  8  4  1  0  0  0  0
  9 10  2  0  0  0  0
 12  7  1  0  0  0  0
 13 14  1  0  0  0  0
 13  8  1  0  0  0  0
 14 15  2  0  0  0  0
 16 18  1  0  0  0  0
 16 14  1  0  0  0  0
 17 16  1  0  0  0  0
 18 19  1  0  0  0  0
 19 20  2  0  0  0  0
 21 24  1  0  0  0  0
 21 20  1  0  0  0  0
 22 21  2  0  0  0  0
 23 22  1  0  0  0  0
 23 18  2  0  0  0  0
 24 25  2  0  0  0  0
 26 24  1  0  0  0  0
 27 26  1  0  0  0  0
 28 27  1  0  0  0  0
 29 30  1  0  0  0  0
 30 31  2  0  0  0  0
 32 33  1  0  0  0  0
 32 31  1  0  0  0  0
 34 32  2  0  0  0  0
 35 34  1  0  0  0  0
 35 29  2  0  0  0  0
M  END
>  <Pose>
1

>  <Score>
-8.132

$$$$
