/Users/jonathanwahrer/Desktop/Msc/3_Semester/Drug_Design_Praktikum/waehrer_HTS_screening/HTS_experiment/out/docking_results/vina_output/2qfa/0416_docked.pdbqt
 OpenBabel03162219443D

 33 36  0  0  0  0  0  0  0  0999 V2000
   41.9820   13.2570   46.3080 N   0  0  0  0  0  0  0  0  0  0  0  0
   41.9750   11.9670   46.7490 C   0  0  0  0  0  0  0  0  0  0  0  0
   42.8440   11.4890   47.5160 O   0  0  0  0  0  0  0  0  0  0  0  0
   40.8960   11.2780   46.2380 C   0  0  0  0  0  0  0  0  0  0  0  0
   40.2380   12.1450   45.4820 C   0  0  0  0  0  0  0  0  0  0  0  0
   39.1770   11.4980   44.9670 N   0  0  0  0  0  0  0  0  0  0  0  0
   39.2010   10.2510   45.4130 N   0  0  0  0  0  0  0  0  0  0  0  0
   40.2470   10.0810   46.1990 N   0  0  0  0  0  0  0  0  0  0  0  0
   40.8990   13.3520   45.5240 C   0  0  0  0  0  0  0  0  0  0  0  0
   40.5650   14.4220   44.9240 O   0  0  0  0  0  0  0  0  0  0  0  0
   38.4490   11.8750   44.3350 H   0  0  0  0  0  0  0  0  0  0  0  0
   38.4810    9.5100   45.1700 H   0  0  0  0  0  0  0  0  0  0  0  0
   40.6590    8.8890   46.8810 C   0  0  0  0  0  2  0  0  0  0  0  0
   41.9510    8.3110   46.3520 C   0  0  0  0  0  0  0  0  0  0  0  0
   42.8400    8.1050   47.2060 O   0  0  0  0  0  0  0  0  0  0  0  0
   42.1310    8.0260   45.0000 N   0  0  0  0  0  0  0  0  0  0  0  0
   41.2880    8.2570   44.3660 H   0  0  0  0  0  0  0  0  0  0  0  0
   43.2410    7.4850   44.3290 C   0  0  0  0  0  0  0  0  0  0  0  0
   44.0810    8.3140   43.5860 C   0  0  0  0  0  3  0  0  0  0  0  0
   45.1620    7.8270   42.9030 C   0  0  0  0  0  3  0  0  0  0  0  0
   45.4570    6.4630   42.9300 C   0  0  0  0  0  0  0  0  0  0  0  0
   44.6120    5.6730   43.6710 C   0  0  0  0  0  3  0  0  0  0  0  0
   43.5250    6.1570   44.3610 C   0  0  0  0  0  3  0  0  0  0  0  0
   46.5500    6.0160   42.2260 O   0  0  0  0  0  0  0  0  0  0  0  0
   46.7660    4.7270   41.7500 C   0  0  0  0  0  2  0  0  0  0  0  0
   47.7840    3.9500   42.5120 C   0  0  0  0  0  1  0  0  0  0  0  0
   42.9310   14.2760   46.6070 C   0  0  0  0  0  0  0  0  0  0  0  0
   42.6740   15.3360   47.4530 C   0  0  0  0  0  3  0  0  0  0  0  0
   43.6230   16.3120   47.7140 C   0  0  0  0  0  3  0  0  0  0  0  0
   44.8760   16.2700   47.1400 C   0  0  0  0  0  0  0  0  0  0  0  0
   46.1970   17.6050   47.4820 Br  0  0  0  0  0  0  0  0  0  0  0  0
   45.1320   15.2010   46.2900 C   0  0  0  0  0  3  0  0  0  0  0  0
   44.1870   14.2300   46.0290 C   0  0  0  0  0  3  0  0  0  0  0  0
  1 27  1  0  0  0  0
  1  2  1  0  0  0  0
  2  3  2  0  0  0  0
  4  2  1  0  0  0  0
  5  9  1  0  0  0  0
  5  4  2  0  0  0  0
  6  7  1  0  0  0  0
  6  5  1  0  0  0  0
  7  8  1  0  0  0  0
  8  4  1  0  0  0  0
  8 13  1  0  0  0  0
  9  1  1  0  0  0  0
 10  9  2  0  0  0  0
 11  6  1  0  0  0  0
 12  7  1  0  0  0  0
 14 13  1  0  0  0  0
 14 15  2  0  0  0  0
 16 14  1  0  0  0  0
 17 16  1  0  0  0  0
 18 23  1  0  0  0  0
 18 16  1  0  0  0  0
 19 18  2  0  0  0  0
 20 21  2  0  0  0  0
 20 19  1  0  0  0  0
 21 22  1  0  0  0  0
 22 23  2  0  0  0  0
 24 21  1  0  0  0  0
 25 24  1  0  0  0  0
 25 26  1  0  0  0  0
 27 28  1  0  0  0  0
 28 29  2  0  0  0  0
 30 31  1  0  0  0  0
 30 29  1  0  0  0  0
 32 30  2  0  0  0  0
 33 32  1  0  0  0  0
 33 27  2  0  0  0  0
M  END
>  <Pose>
1

>  <Score>
-7.855

$$$$
