/Users/jonathanwahrer/Desktop/Msc/3_Semester/Drug_Design_Praktikum/waehrer_HTS_screening/HTS_experiment/out/docking_results/vina_output/2qfa/0421_docked.pdbqt
 OpenBabel03162219443D

 28 31  0  0  0  0  0  0  0  0999 V2000
   41.7600   11.9420   45.3930 N   0  0  0  0  0  0  0  0  0  0  0  0
   42.5180   10.8590   45.1100 C   0  0  0  0  0  0  0  0  0  0  0  0
   43.6530   10.5570   45.6000 O   0  0  0  0  0  0  0  0  0  0  0  0
   41.8960   10.0550   44.1720 C   0  0  0  0  0  0  0  0  0  0  0  0
   40.7470   10.6740   43.8930 C   0  0  0  0  0  0  0  0  0  0  0  0
   40.1350    9.8890   42.9740 N   0  0  0  0  0  0  0  0  0  0  0  0
   40.9100    8.8450   42.7300 N   0  0  0  0  0  0  0  0  0  0  0  0
   42.0110    8.9210   43.4590 N   0  0  0  0  0  0  0  0  0  0  0  0
   40.6550   11.8320   44.6360 C   0  0  0  0  0  0  0  0  0  0  0  0
   39.7250   12.6750   44.6470 O   0  0  0  0  0  0  0  0  0  0  0  0
   39.1980   10.0990   42.5420 H   0  0  0  0  0  0  0  0  0  0  0  0
   40.7220    8.0510   42.0640 H   0  0  0  0  0  0  0  0  0  0  0  0
   43.0940    7.9830   43.4780 C   0  0  0  0  0  0  0  0  0  0  0  0
   44.3190    8.3000   42.9280 C   0  0  0  0  0  3  0  0  0  0  0  0
   45.3880    7.4130   42.9320 C   0  0  0  0  0  3  0  0  0  0  0  0
   45.2470    6.1640   43.5000 C   0  0  0  0  0  0  0  0  0  0  0  0
   44.0240    5.8450   44.0500 C   0  0  0  0  0  3  0  0  0  0  0  0
   42.9590    6.7330   44.0450 C   0  0  0  0  0  3  0  0  0  0  0  0
   46.3250    5.2320   43.5190 N   0  0  0  0  0  0  0  0  0  0  0  0
   46.1410    4.0040   43.4310 O   0  0  0  0  0  0  0  0  0  0  0  0
   47.5980    5.6920   43.6380 O   0  0  0  0  0  0  0  0  0  0  0  0
   42.0930   12.9850   46.3180 C   0  0  0  0  0  0  0  0  0  0  0  0
   41.6050   13.0140   47.6080 C   0  0  0  0  0  3  0  0  0  0  0  0
   41.9460   14.0420   48.4830 C   0  0  0  0  0  3  0  0  0  0  0  0
   42.7850   15.0640   48.0870 C   0  0  0  0  0  0  0  0  0  0  0  0
   43.2660   16.4850   49.2760 Br  0  0  0  0  0  0  0  0  0  0  0  0
   43.2750   15.0370   46.7980 C   0  0  0  0  0  3  0  0  0  0  0  0
   42.9300   14.0130   45.9370 C   0  0  0  0  0  3  0  0  0  0  0  0
  1 22  1  0  0  0  0
  2  1  1  0  0  0  0
  2  3  2  0  0  0  0
  4  2  1  0  0  0  0
  5  4  2  0  0  0  0
  5  9  1  0  0  0  0
  6  5  1  0  0  0  0
  7  6  1  0  0  0  0
  7  8  1  0  0  0  0
  8 13  1  0  0  0  0
  8  4  1  0  0  0  0
  9 10  2  0  0  0  0
  9  1  1  0  0  0  0
 11  6  1  0  0  0  0
 12  7  1  0  0  0  0
 13 18  1  0  0  0  0
 14 15  1  0  0  0  0
 14 13  2  0  0  0  0
 15 16  2  0  0  0  0
 16 19  1  0  0  0  0
 16 17  1  0  0  0  0
 18 17  2  0  0  0  0
 19 21  2  0  0  0  0
 20 19  2  0  0  0  0
 22 23  1  0  0  0  0
 23 24  2  0  0  0  0
 25 24  1  0  0  0  0
 25 26  1  0  0  0  0
 27 25  2  0  0  0  0
 28 22  2  0  0  0  0
 28 27  1  0  0  0  0
M  END
>  <Pose>
1

>  <Score>
-8.164

$$$$
