/Users/jonathanwahrer/Desktop/Msc/3_Semester/Drug_Design_Praktikum/waehrer_HTS_screening/HTS_experiment/out/docking_results/vina_output/2qfa/0428_docked.pdbqt
 OpenBabel03162219453D

 28 31  0  0  1  0  0  0  0  0999 V2000
   42.8140    8.6360   44.2400 N   0  0  0  0  0  0  0  0  0  0  0  0
   41.8930    9.0870   43.2290 C   0  0  0  0  0  0  0  0  0  0  0  0
   41.9720    8.6150   42.0620 O   0  0  0  0  0  0  0  0  0  0  0  0
   40.9380   10.0500   43.6140 N   0  0  0  0  0  2  0  0  0  0  0  0
   40.8400   10.5370   44.7800 C   0  0  0  0  0  0  0  0  0  0  0  0
   41.6950   10.1950   45.9440 C   0  0  1  0  0  0  0  0  0  0  0  0
   42.2810   11.4570   46.4770 C   0  0  0  0  0  2  0  0  0  0  0  0
   42.5970   11.4880   47.8590 N   0  0  0  0  0  4  0  0  0  0  0  0
   42.5550   10.2500   48.5310 C   0  0  0  0  0  0  0  0  0  0  0  0
   41.6350    9.2660   48.1470 C   0  0  0  0  0  0  0  0  0  0  0  0
   41.6090    8.0720   48.8110 C   0  0  0  0  0  3  0  0  0  0  0  0
   42.4470    7.7610   49.8570 C   0  0  0  0  0  0  0  0  0  0  0  0
   43.3520    8.7330   50.2300 C   0  0  0  0  0  3  0  0  0  0  0  0
   43.4030    9.9570   49.5760 C   0  0  0  0  0  3  0  0  0  0  0  0
   42.3900    6.4530   50.5510 C   0  0  0  0  0  1  0  0  0  0  0  0
   40.7500    9.6420   47.0140 C   0  0  0  0  0  2  0  0  0  0  0  0
   41.8090   12.4950   48.5890 C   0  0  0  0  0  1  0  0  0  0  0  0
   42.7000    9.1860   45.5480 C   0  0  0  0  0  0  0  0  0  0  0  0
   43.5460    8.7450   46.3950 O   0  0  0  0  0  0  0  0  0  0  0  0
   39.8330   11.4960   45.0270 O   0  0  0  0  0  0  0  0  0  0  0  0
   43.5980   11.8380   47.9480 H   0  0  0  0  0  0  0  0  0  0  0  0
   43.8030    7.6660   43.9290 C   0  0  0  0  0  0  0  0  0  0  0  0
   44.9760    8.1030   43.3570 C   0  0  0  0  0  3  0  0  0  0  0  0
   45.9980    7.2240   43.0180 C   0  0  0  0  0  3  0  0  0  0  0  0
   45.8400    5.8850   43.2570 C   0  0  0  0  0  0  0  0  0  0  0  0
   47.2480    4.6870   42.7880 Br  0  0  0  0  0  0  0  0  0  0  0  0
   44.6690    5.4190   43.8320 C   0  0  0  0  0  3  0  0  0  0  0  0
   43.6650    6.3150   44.1610 C   0  0  0  0  0  3  0  0  0  0  0  0
  1 18  1  0  0  0  0
  2  4  1  0  0  0  0
  2  1  1  0  0  0  0
  3  2  2  0  0  0  0
  4  5  1  0  0  0  0
  5 20  2  0  0  0  0
  5  6  1  0  0  0  0
  6  7  1  1  0  0  0
  6 16  1  0  0  0  0
  7  8  1  0  0  0  0
  8 21  1  0  0  0  0
  8  9  1  0  0  0  0
  8 17  1  0  0  0  0
  9 14  1  0  0  0  0
 10  9  2  0  0  0  0
 10 11  1  0  0  0  0
 11 12  2  0  0  0  0
 12 13  1  0  0  0  0
 12 15  1  0  0  0  0
 14 13  2  0  0  0  0
 16 10  1  0  0  0  0
 18  6  1  0  0  0  0
 18 19  2  0  0  0  0
 22 28  1  0  0  0  0
 22  1  1  0  0  0  0
 23 22  2  0  0  0  0
 24 25  2  0  0  0  0
 24 23  1  0  0  0  0
 25 27  1  0  0  0  0
 26 25  1  0  0  0  0
 27 28  2  0  0  0  0
M  END
>  <Pose>
1

>  <Score>
-7.322

$$$$
