/Users/jonathanwahrer/Desktop/Msc/3_Semester/Drug_Design_Praktikum/waehrer_HTS_screening/HTS_experiment/out/docking_results/vina_output/2qfa/0439_docked.pdbqt
 OpenBabel03162219453D

 28 32  0  0  1  0  0  0  0  0999 V2000
   45.8640    5.7150   43.4570 N   0  0  0  0  0  0  0  0  0  0  0  0
   44.7050    5.4510   44.0510 N   0  0  0  0  0  0  0  0  0  0  0  0
   43.8950    6.5250   44.0000 C   0  0  0  0  0  0  0  0  0  0  0  0
   42.6670    6.6070   44.4950 C   0  0  0  0  0  1  0  0  0  0  0  0
   44.5550    7.5420   43.3400 C   0  0  0  0  0  0  0  0  0  0  0  0
   45.7860    6.9890   43.0180 C   0  0  0  0  0  0  0  0  0  0  0  0
   46.6880    7.6040   42.4050 O   0  0  0  0  0  0  0  0  0  0  0  0
   44.4590    4.5440   44.4930 H   0  0  0  0  0  0  0  0  0  0  0  0
   44.1250    8.7760   43.0680 C   0  0  0  0  0  2  0  0  0  0  0  0
   44.3430    9.7880   44.0440 N   0  0  0  0  0  0  0  0  0  0  0  0
   45.3170   10.0320   44.2770 H   0  0  0  0  0  0  0  0  0  0  0  0
   43.2610   10.4630   44.7000 C   0  0  1  0  0  0  0  0  0  0  0  0
   43.5390   11.9280   44.8150 C   0  0  0  0  0  2  0  0  0  0  0  0
   42.3790   12.5900   45.3950 N   0  0  1  0  0  0  0  0  0  0  0  0
   41.2460   12.3550   44.5080 C   0  0  0  0  0  2  0  0  0  0  0  0
   42.1300   12.0430   46.7050 C   0  0  0  0  0  2  0  0  0  0  0  0
   40.9080   10.9550   44.4310 N   0  0  2  0  0  0  0  0  0  0  0  0
   40.6910   10.4310   45.7750 C   0  0  0  0  0  2  0  0  0  0  0  0
   42.0070   10.2290   43.8500 C   0  0  0  0  0  2  0  0  0  0  0  0
   41.8460   10.6290   46.6210 N   0  0  1  0  0  0  0  0  0  0  0  0
   42.9870    9.9260   46.0850 C   0  0  0  0  0  2  0  0  0  0  0  0
   46.9810    4.8480   43.3010 C   0  0  0  0  0  0  0  0  0  0  0  0
   47.0080    3.9320   42.2700 C   0  0  0  0  0  3  0  0  0  0  0  0
   48.0860    3.0680   42.0880 C   0  0  0  0  0  3  0  0  0  0  0  0
   49.1490    3.1130   42.9390 C   0  0  0  0  0  0  0  0  0  0  0  0
   50.6610    1.9430   42.7340 Br  0  0  0  0  0  0  0  0  0  0  0  0
   49.1500    4.0220   43.9840 C   0  0  0  0  0  3  0  0  0  0  0  0
   48.0730    4.8650   44.1410 C   0  0  0  0  0  3  0  0  0  0  0  0
  1  2  1  0  0  0  0
  2  8  1  0  0  0  0
  3  2  1  0  0  0  0
  3  4  1  0  0  0  0
  5  3  2  0  0  0  0
  6  5  1  0  0  0  0
  6  1  1  0  0  0  0
  7  6  2  0  0  0  0
  9  5  1  0  0  0  0
  9 10  1  0  0  0  0
 10 11  1  0  0  0  0
 12 10  1  6  0  0  0
 12 13  1  0  0  0  0
 12 21  1  0  0  0  0
 13 14  1  0  0  0  0
 14 15  1  6  0  0  0
 14 16  1  0  0  0  0
 17 19  1  1  0  0  0
 17 15  1  0  0  0  0
 17 18  1  0  0  0  0
 19 12  1  0  0  0  0
 20 18  1  6  0  0  0
 20 16  1  0  0  0  0
 21 20  1  0  0  0  0
 22  1  1  0  0  0  0
 22 28  1  0  0  0  0
 23 22  2  0  0  0  0
 24 23  1  0  0  0  0
 24 25  2  0  0  0  0
 25 27  1  0  0  0  0
 26 25  1  0  0  0  0
 27 28  2  0  0  0  0
M  END
>  <Pose>
1

>  <Score>
-8.010

$$$$
