/Users/jonathanwahrer/Desktop/Msc/3_Semester/Drug_Design_Praktikum/waehrer_HTS_screening/HTS_experiment/out/docking_results/vina_output/2qfa/0444_docked.pdbqt
 OpenBabel03162219473D

 33 36  0  0  1  0  0  0  0  0999 V2000
   42.1810   12.8950   45.3660 N   0  0  0  0  0  0  0  0  0  0  0  0
   43.2840   13.6220   45.6550 C   0  0  0  0  0  0  0  0  0  0  0  0
   42.9510   14.5540   46.6110 C   0  0  0  0  0  0  0  0  0  0  0  0
   41.6720   14.3590   46.8570 N   0  0  0  0  0  0  0  0  0  0  0  0
   41.1520   13.3390   46.1040 C   0  0  0  0  0  0  0  0  0  0  0  0
   43.8300   15.4580   47.1350 N   0  0  0  0  0  0  0  0  0  0  0  0
   45.0850   15.4250   46.6830 C   0  0  0  0  0  0  0  0  0  0  0  0
   45.9110   16.2510   47.1570 O   0  0  0  0  0  0  0  0  0  0  0  0
   45.4380   14.5290   45.7520 N   0  0  0  0  0  0  0  0  0  0  0  0
   44.5900   13.6210   45.2150 C   0  0  0  0  0  0  0  0  0  0  0  0
   44.9460   12.8050   44.3530 O   0  0  0  0  0  0  0  0  0  0  0  0
   43.3810   16.4050   48.1560 C   0  0  0  0  0  1  0  0  0  0  0  0
   46.4270   14.5340   45.4250 H   0  0  0  0  0  0  0  0  0  0  0  0
   42.1170   11.7730   44.4540 C   0  0  0  0  0  2  0  0  0  0  0  0
   42.3000   10.4210   45.0780 C   0  0  1  0  0  3  0  0  0  0  0  0
   42.0770    9.2340   44.1950 C   0  0  0  0  0  2  0  0  0  0  0  0
   42.9710    8.2730   44.2960 O   0  0  0  0  0  0  0  0  0  0  0  0
   43.8800    7.4300   43.8710 C   0  0  0  0  0  0  0  0  0  0  0  0
   43.9180    6.0850   44.1800 C   0  0  0  0  0  3  0  0  0  0  0  0
   44.9030    5.2470   43.7040 C   0  0  0  0  0  3  0  0  0  0  0  0
   45.8800    5.7600   42.8950 C   0  0  0  0  0  0  0  0  0  0  0  0
   47.2350    4.5990   42.2410 Br  0  0  0  0  0  0  0  0  0  0  0  0
   45.8690    7.1000   42.5660 C   0  0  0  0  0  3  0  0  0  0  0  0
   44.9030    7.9280   43.0320 C   0  0  0  0  0  3  0  0  0  0  0  0
   43.5640   10.2760   45.6660 O   0  0  0  0  0  0  0  0  0  0  0  0
   43.5990   10.8440   46.5020 H   0  0  0  0  0  0  0  0  0  0  0  0
   39.7610   12.9620   46.1230 N   0  0  0  0  0  0  0  0  0  0  0  0
   39.3700   12.2220   47.3430 C   0  0  0  0  0  2  0  0  0  0  0  0
   37.9140   12.0860   47.5400 C   0  0  0  0  0  2  0  0  0  0  0  0
   37.1780   11.9430   46.3090 N   0  0  0  0  0  0  0  0  0  0  0  0
   37.3750   13.1600   45.5860 C   0  0  0  0  0  2  0  0  0  0  0  0
   37.5100   10.7500   45.6030 C   0  0  0  0  0  1  0  0  0  0  0  0
   38.8220   13.3060   45.1150 C   0  0  0  0  0  2  0  0  0  0  0  0
  1  2  1  0  0  0  0
  1  5  1  0  0  0  0
  2  3  2  0  0  0  0
  3  4  1  0  0  0  0
  3  6  1  0  0  0  0
  5 27  1  0  0  0  0
  5  4  2  0  0  0  0
  6 12  1  0  0  0  0
  7  6  1  0  0  0  0
  7  8  2  0  0  0  0
  9  7  1  0  0  0  0
 10  2  1  0  0  0  0
 10  9  1  0  0  0  0
 11 10  2  0  0  0  0
 13  9  1  0  0  0  0
 14 15  1  0  0  0  0
 14  1  1  0  0  0  0
 15 16  1  6  0  0  0
 15 25  1  0  0  0  0
 16 17  1  0  0  0  0
 18 19  1  0  0  0  0
 18 17  1  0  0  0  0
 20 19  2  0  0  0  0
 21 20  1  0  0  0  0
 22 21  1  0  0  0  0
 23 21  2  0  0  0  0
 23 24  1  0  0  0  0
 24 18  2  0  0  0  0
 25 26  1  0  0  0  0
 27 28  1  0  0  0  0
 28 29  1  0  0  0  0
 30 29  1  0  0  0  0
 31 30  1  0  0  0  0
 32 30  1  0  0  0  0
 33 31  1  0  0  0  0
 33 27  1  0  0  0  0
M  END
>  <Pose>
1

>  <Score>
-6.964

$$$$
