/Users/jonathanwahrer/Desktop/Msc/3_Semester/Drug_Design_Praktikum/waehrer_HTS_screening/HTS_experiment/out/docking_results/vina_output/2qfa/0455_docked.pdbqt
 OpenBabel03162219473D

 26 29  0  0  0  0  0  0  0  0999 V2000
   41.8840   11.9350   46.2010 N   0  0  0  0  0  0  0  0  0  0  0  0
   41.3450   10.7090   46.8460 C   0  0  0  0  0  2  0  0  0  0  0  0
   41.3550    9.6880   45.7130 C   0  0  0  0  0  2  0  0  0  0  0  0
   41.5870   10.2510   44.4340 N   0  0  0  0  0  0  0  0  0  0  0  0
   40.7600   11.3980   44.1630 C   0  0  0  0  0  2  0  0  0  0  0  0
   40.7760   12.3390   45.3330 C   0  0  0  0  0  2  0  0  0  0  0  0
   42.1310   12.9410   47.2140 C   0  0  0  0  0  2  0  0  0  0  0  0
   43.2910   13.7860   46.8340 C   0  0  0  0  0  0  0  0  0  0  0  0
   43.7160   14.8340   47.6470 C   0  0  0  0  0  0  0  0  0  0  0  0
   42.7270   15.1510   49.2500 Br  0  0  0  0  0  0  0  0  0  0  0  0
   44.8010   15.6200   47.3300 C   0  0  0  0  0  3  0  0  0  0  0  0
   45.5220   15.4040   46.1830 C   0  0  0  0  0  0  0  0  0  0  0  0
   45.1310   14.3840   45.3630 C   0  0  0  0  0  0  0  0  0  0  0  0
   46.6230   16.1730   45.8280 O   0  0  0  0  0  0  0  0  0  0  0  0
   44.0320   13.5900   45.6870 C   0  0  0  0  0  3  0  0  0  0  0  0
   45.8460   14.1490   44.1990 O   0  0  0  0  0  0  0  0  0  0  0  0
   46.7850   15.0490   43.6690 C   0  0  0  0  0  2  0  0  0  0  0  0
   47.4560   15.8370   44.7480 C   0  0  0  0  0  2  0  0  0  0  0  0
   42.9210   10.3270   43.9720 C   0  0  0  0  0  2  0  0  0  0  0  0
   43.4590    9.1300   43.3520 C   0  0  0  0  0  0  0  0  0  0  0  0
   42.7260    8.3530   42.7050 O   0  0  0  0  0  0  0  0  0  0  0  0
   44.8320    8.8090   43.4610 N   0  0  0  0  0  0  0  0  0  0  0  0
   45.5190    9.4190   43.9910 H   0  0  0  0  0  0  0  0  0  0  0  0
   45.4080    7.6160   42.8520 C   0  0  0  0  0  3  0  0  0  0  0  0
   45.3610    6.3220   43.5510 C   0  0  0  0  0  2  0  0  0  0  0  0
   46.6530    7.0800   43.5530 C   0  0  0  0  0  2  0  0  0  0  0  0
  1  2  1  0  0  0  0
  1  7  1  0  0  0  0
  3  2  1  0  0  0  0
  4  3  1  0  0  0  0
  5  4  1  0  0  0  0
  5  6  1  0  0  0  0
  6  1  1  0  0  0  0
  8  7  1  0  0  0  0
  8  9  1  0  0  0  0
  9 10  1  0  0  0  0
 11  9  2  0  0  0  0
 12 11  1  0  0  0  0
 13 15  1  0  0  0  0
 13 12  2  0  0  0  0
 14 12  1  0  0  0  0
 15  8  2  0  0  0  0
 16 13  1  0  0  0  0
 17 16  1  0  0  0  0
 17 18  1  0  0  0  0
 18 14  1  0  0  0  0
 19  4  1  0  0  0  0
 20 22  1  0  0  0  0
 20 19  1  0  0  0  0
 21 20  2  0  0  0  0
 22 23  1  0  0  0  0
 24 22  1  0  0  0  0
 24 25  1  0  0  0  0
 24 26  1  0  0  0  0
 25 26  1  0  0  0  0
M  END
>  <Pose>
1

>  <Score>
-6.773

$$$$
