/Users/jonathanwahrer/Desktop/Msc/3_Semester/Drug_Design_Praktikum/waehrer_HTS_screening/HTS_experiment/out/docking_results/vina_output/2qfa/0467_docked.pdbqt
 OpenBabel03162219473D

 28 31  0  0  1  0  0  0  0  0999 V2000
   43.5650    9.4300   43.8030 C   0  0  1  0  0  3  0  0  0  0  0  0
   44.6000    8.6670   43.4150 N   0  0  0  0  0  0  0  0  0  0  0  0
   44.8340    7.4290   43.9280 C   0  0  0  0  0  0  0  0  0  0  0  0
   43.9680    7.0080   44.8490 N   0  0  0  0  0  0  0  0  0  0  0  0
   42.9240    7.7140   45.2760 C   0  0  0  0  0  0  0  0  0  0  0  0
   42.7340    8.9510   44.7280 N   0  0  0  0  0  0  0  0  0  0  0  0
   43.4670   10.7070   43.2080 N   0  0  0  0  0  0  0  0  0  0  0  0
   42.8880   10.8140   42.3470 H   0  0  0  0  0  0  0  0  0  0  0  0
   44.1060   11.8190   43.7180 N   0  0  0  0  0  0  0  0  0  0  0  0
   43.8810   12.4250   44.8050 C   0  0  0  0  0  3  0  0  0  0  0  0
   44.6440   13.5900   45.2020 C   0  0  0  0  0  0  0  0  0  0  0  0
   44.3530   14.2970   46.3480 C   0  0  0  0  0  0  0  0  0  0  0  0
   42.9150   13.7310   47.4450 Br  0  0  0  0  0  0  0  0  0  0  0  0
   45.0970   15.4080   46.6970 C   0  0  0  0  0  3  0  0  0  0  0  0
   46.1640   15.8630   45.9190 C   0  0  0  0  0  0  0  0  0  0  0  0
   46.4660   15.1550   44.7590 C   0  0  0  0  0  0  0  0  0  0  0  0
   47.0590   16.9160   46.0160 O   0  0  0  0  0  0  0  0  0  0  0  0
   45.7090   14.0490   44.4310 C   0  0  0  0  0  3  0  0  0  0  0  0
   47.5390   15.7950   44.1800 O   0  0  0  0  0  0  0  0  0  0  0  0
   47.8240   17.0110   44.8430 C   0  0  0  0  0  2  0  0  0  0  0  0
   45.9280    6.6970   43.4610 N   0  0  0  0  0  0  0  0  0  0  0  0
   47.1880    6.6990   44.1650 C   0  0  0  0  0  2  0  0  0  0  0  0
   48.0660    5.5490   43.7160 C   0  0  0  0  0  2  0  0  0  0  0  0
   47.4150    4.4090   43.3740 O   0  0  0  0  0  0  0  0  0  0  0  0
   46.2300    4.4910   42.7130 C   0  0  0  0  0  2  0  0  0  0  0  0
   45.8380    5.8960   42.2670 C   0  0  0  0  0  2  0  0  0  0  0  0
   42.0420    7.2480   46.2350 O   0  0  0  0  0  0  0  0  0  0  0  0
   41.3210    8.1420   47.0410 C   0  0  0  0  0  1  0  0  0  0  0  0
  1  7  1  1  0  0  0
  1  6  1  0  0  0  0
  2  1  1  0  0  0  0
  2  3  2  0  0  0  0
  3  4  1  0  0  0  0
  4  5  2  0  0  0  0
  5 27  1  0  0  0  0
  6  5  2  0  0  0  0
  7  9  1  0  0  0  0
  8  7  1  0  0  0  0
  9 10  2  0  0  0  0
 10 11  1  0  0  0  0
 11 12  1  0  0  0  0
 12 14  2  0  0  0  0
 12 13  1  0  0  0  0
 15 17  1  0  0  0  0
 15 14  1  0  0  0  0
 16 15  2  0  0  0  0
 18 16  1  0  0  0  0
 18 11  2  0  0  0  0
 19 16  1  0  0  0  0
 19 20  1  0  0  0  0
 20 17  1  0  0  0  0
 21  3  1  0  0  0  0
 21 22  1  0  0  0  0
 23 22  1  0  0  0  0
 24 23  1  0  0  0  0
 25 24  1  0  0  0  0
 26 25  1  0  0  0  0
 26 21  1  0  0  0  0
 27 28  1  0  0  0  0
M  END
>  <Pose>
1

>  <Score>
-7.539

$$$$
