/Users/jonathanwahrer/Desktop/Msc/3_Semester/Drug_Design_Praktikum/waehrer_HTS_screening/HTS_experiment/out/docking_results/vina_output/2qfa/0471_docked.pdbqt
 OpenBabel03162219483D

 27 30  0  0  0  0  0  0  0  0999 V2000
   42.1780   10.7030   43.9870 C   0  0  0  0  0  0  0  0  0  0  0  0
   41.4210   11.0410   43.0310 O   0  0  0  0  0  0  0  0  0  0  0  0
   42.3610    9.3350   44.2720 N   0  0  0  0  0  0  0  0  0  0  0  0
   41.6770    8.3570   43.4640 C   0  0  0  0  0  2  0  0  0  0  0  0
   42.6160    7.3360   42.8570 C   0  0  0  0  0  2  0  0  0  0  0  0
   43.7120    7.1560   43.7350 N   0  0  0  0  0  0  0  0  0  0  0  0
   43.3610    7.3080   45.0920 C   0  0  0  0  0  2  0  0  0  0  0  0
   43.1950    8.8200   45.3310 C   0  0  0  0  0  2  0  0  0  0  0  0
   42.8310   11.7690   44.7560 C   0  0  0  0  0  0  0  0  0  0  0  0
   42.3690   12.0940   46.0100 C   0  0  0  0  0  3  0  0  0  0  0  0
   42.9510   13.0880   46.7680 C   0  0  0  0  0  0  0  0  0  0  0  0
   44.0320   13.7780   46.2500 C   0  0  0  0  0  0  0  0  0  0  0  0
   42.5150   13.3810   47.9300 O   0  0  0  0  0  0  0  0  0  0  0  0
   44.4480   13.4070   44.9860 C   0  0  0  0  0  0  0  0  0  0  0  0
   44.6310   14.7740   46.9820 C   0  0  0  0  0  3  0  0  0  0  0  0
   45.5320   14.1030   44.4710 C   0  0  0  0  0  3  0  0  0  0  0  0
   43.8560   12.4530   44.3110 O   0  0  0  0  0  0  0  0  0  0  0  0
   46.1560   15.1110   45.1870 C   0  0  0  0  0  0  0  0  0  0  0  0
   47.6440   16.0440   44.4430 Br  0  0  0  0  0  0  0  0  0  0  0  0
   45.7030   15.4470   46.4490 C   0  0  0  0  0  3  0  0  0  0  0  0
   44.9600    7.6560   43.3190 C   0  0  0  0  0  2  0  0  0  0  0  0
   45.8290    6.7020   42.6350 C   0  0  0  0  0  0  0  0  0  0  0  0
   45.6130    6.1890   41.4130 N   0  0  0  0  0  0  0  0  0  0  0  0
   46.5890    5.3930   41.1560 O   0  0  0  0  0  0  0  0  0  0  0  0
   47.4450    5.3510   42.1460 N   0  0  0  0  0  0  0  0  0  0  0  0
   46.9960    6.1770   43.1170 C   0  0  0  0  0  0  0  0  0  0  0  0
   47.6450    6.4500   44.4340 C   0  0  0  0  0  1  0  0  0  0  0  0
  1  3  1  0  0  0  0
  1  9  1  0  0  0  0
  2  1  2  0  0  0  0
  3  8  1  0  0  0  0
  4  3  1  0  0  0  0
  5  4  1  0  0  0  0
  5  6  1  0  0  0  0
  6  7  1  0  0  0  0
  7  8  1  0  0  0  0
  9 10  2  0  0  0  0
 10 11  1  0  0  0  0
 11 13  2  0  0  0  0
 12 11  1  0  0  0  0
 12 15  1  0  0  0  0
 14 12  2  0  0  0  0
 16 14  1  0  0  0  0
 16 18  2  0  0  0  0
 17  9  1  0  0  0  0
 17 14  1  0  0  0  0
 18 20  1  0  0  0  0
 19 18  1  0  0  0  0
 20 15  2  0  0  0  0
 21  6  1  0  0  0  0
 22 26  1  0  0  0  0
 22 21  1  0  0  0  0
 23 22  2  0  0  0  0
 24 23  1  0  0  0  0
 24 25  1  0  0  0  0
 25 26  2  0  0  0  0
 26 27  1  0  0  0  0
M  END
>  <Pose>
1

>  <Score>
-7.813

$$$$
