/Users/jonathanwahrer/Desktop/Msc/3_Semester/Drug_Design_Praktikum/waehrer_HTS_screening/HTS_experiment/out/docking_results/vina_output/2qfa/0473_docked.pdbqt
 OpenBabel03162219483D

 29 32  0  0  0  0  0  0  0  0999 V2000
   43.5960    8.1270   44.0900 C   0  0  0  0  0  2  0  0  0  0  0  0
   44.2250    6.9000   43.4920 C   0  0  0  0  0  2  0  0  0  0  0  0
   45.5450    7.2450   42.9090 C   0  0  0  0  0  2  0  0  0  0  0  0
   46.5400    6.2070   43.0720 N   0  0  0  0  0  0  0  0  0  0  0  0
   47.3840    6.1140   44.2100 C   0  0  0  0  0  0  0  0  0  0  0  0
   48.2530    4.9630   44.0380 C   0  0  0  0  0  0  0  0  0  0  0  0
   47.4150    6.8790   45.2270 O   0  0  0  0  0  0  0  0  0  0  0  0
   47.9290    4.3870   42.8260 C   0  0  0  0  0  0  0  0  0  0  0  0
   49.2450    4.4220   44.8300 C   0  0  0  0  0  3  0  0  0  0  0  0
   48.6340    3.2610   42.4410 C   0  0  0  0  0  3  0  0  0  0  0  0
   46.8470    5.1560   42.1910 C   0  0  0  0  0  0  0  0  0  0  0  0
   49.6250    2.7290   43.2410 C   0  0  0  0  0  0  0  0  0  0  0  0
   50.5550    1.1730   42.6470 Br  0  0  0  0  0  0  0  0  0  0  0  0
   49.9530    3.2990   44.4530 C   0  0  0  0  0  3  0  0  0  0  0  0
   46.3200    4.8950   41.0750 O   0  0  0  0  0  0  0  0  0  0  0  0
   42.5770    8.7720   43.2310 C   0  0  0  0  0  0  0  0  0  0  0  0
   41.7640    8.1320   42.5150 O   0  0  0  0  0  0  0  0  0  0  0  0
   42.4700   10.2080   43.1770 N   0  0  0  0  0  0  0  0  0  0  0  0
   41.4790   10.8470   42.3420 C   0  0  0  0  0  2  0  0  0  0  0  0
   43.3420   11.0750   43.9470 C   0  0  0  0  0  2  0  0  0  0  0  0
   40.7710   11.9750   43.0150 C   0  0  0  0  0  2  0  0  0  0  0  0
   41.2100   12.2320   44.3670 N   0  0  0  0  0  0  0  0  0  0  0  0
   42.5350   11.9650   44.8600 C   0  0  0  0  0  2  0  0  0  0  0  0
   40.2610   12.7920   45.2790 C   0  0  0  0  0  0  0  0  0  0  0  0
   39.4940   12.0050   46.0820 N   0  0  0  0  0  0  0  0  0  0  0  0
   38.6000   12.4860   46.9440 C   0  0  0  0  0  3  0  0  0  0  0  0
   38.4320   13.8590   47.0370 C   0  0  0  0  0  3  0  0  0  0  0  0
   39.1790   14.6720   46.2510 N   0  0  0  0  0  0  0  0  0  0  0  0
   40.0710   14.1500   45.3940 C   0  0  0  0  0  3  0  0  0  0  0  0
  2  1  1  0  0  0  0
  3  4  1  0  0  0  0
  3  2  1  0  0  0  0
  4  5  1  0  0  0  0
  5  7  2  0  0  0  0
  6  5  1  0  0  0  0
  6  9  1  0  0  0  0
  8  6  2  0  0  0  0
 10  8  1  0  0  0  0
 10 12  2  0  0  0  0
 11  8  1  0  0  0  0
 11  4  1  0  0  0  0
 12 14  1  0  0  0  0
 13 12  1  0  0  0  0
 14  9  2  0  0  0  0
 15 11  2  0  0  0  0
 16  1  1  0  0  0  0
 17 16  2  0  0  0  0
 18 16  1  0  0  0  0
 18 20  1  0  0  0  0
 19 21  1  0  0  0  0
 19 18  1  0  0  0  0
 20 23  1  0  0  0  0
 21 22  1  0  0  0  0
 22 23  1  0  0  0  0
 22 24  1  0  0  0  0
 24 29  2  0  0  0  0
 24 25  1  0  0  0  0
 25 26  2  0  0  0  0
 26 27  1  0  0  0  0
 28 27  2  0  0  0  0
 29 28  1  0  0  0  0
M  END
>  <Pose>
1

>  <Score>
-7.627

$$$$
