/Users/jonathanwahrer/Desktop/Msc/3_Semester/Drug_Design_Praktikum/waehrer_HTS_screening/HTS_experiment/out/docking_results/vina_output/2qfa/0484_docked.pdbqt
 OpenBabel03162219493D

 35 38  0  0  1  0  0  0  0  0999 V2000
   39.8130   13.6940   43.3720 Br  0  0  0  0  0  0  0  0  0  0  0  0
   40.5890   11.9770   43.6810 C   0  0  0  0  0  0  0  0  0  0  0  0
   40.6340   11.4120   44.9640 C   0  0  0  0  0  3  0  0  0  0  0  0
   41.2040   10.1750   45.0650 C   0  0  0  0  0  0  0  0  0  0  0  0
   41.7270    9.4740   43.9990 C   0  0  0  0  0  0  0  0  0  0  0  0
   41.6870   10.0330   42.7430 C   0  0  0  0  0  3  0  0  0  0  0  0
   41.1030   11.3010   42.5970 C   0  0  0  0  0  3  0  0  0  0  0  0
   42.2550    8.2150   44.3990 N   0  0  0  0  0  0  0  0  0  0  0  0
   42.0500    8.1320   45.8330 C   0  0  0  0  0  0  0  0  0  0  0  0
   42.3710    7.1610   46.5500 O   0  0  0  0  0  0  0  0  0  0  0  0
   41.4090    9.3670   46.2270 C   0  0  1  0  0  3  0  0  0  0  0  0
   41.1820    9.8050   47.4050 N   0  0  0  0  0  2  0  0  0  0  0  0
   41.6170   10.2830   48.3760 N   0  0  0  0  0  0  0  0  0  0  0  0
   42.1600   10.8500   49.5510 C   0  0  0  0  0  0  0  0  0  0  0  0
   42.7160    9.4350   48.3830 H   0  0  0  0  0  0  0  0  0  0  0  0
   43.2040   10.6750   50.1380 O   0  0  0  0  0  0  0  0  0  0  0  0
   41.1540   11.8670   50.1360 C   0  0  0  0  0  2  0  0  0  0  0  0
   40.9830   12.8340   49.0770 O   0  0  0  0  0  0  0  0  0  0  0  0
   42.1960   13.2530   48.4610 N   0  0  0  0  0  0  0  0  0  0  0  0
   42.2350   13.5980   47.2340 C   0  0  0  0  0  3  0  0  0  0  0  0
   43.4820   14.0040   46.6280 C   0  0  0  0  0  0  0  0  0  0  0  0
   44.2480   15.0490   47.0260 C   0  0  0  0  0  3  0  0  0  0  0  0
   45.3990   15.3230   46.2450 C   0  0  0  0  0  3  0  0  0  0  0  0
   45.8160   14.6570   45.1700 C   0  0  0  0  0  0  0  0  0  0  0  0
   45.0210   13.6200   44.8150 C   0  0  0  0  0  3  0  0  0  0  0  0
   43.8910   13.2140   45.4170 C   0  0  0  0  0  3  0  0  0  0  0  0
   46.9820   15.0350   44.4960 O   0  0  0  0  0  0  0  0  0  0  0  0
   47.3720   16.4030   44.4310 C   0  0  0  0  0  1  0  0  0  0  0  0
   42.8430    7.1200   43.6450 C   0  0  0  0  0  2  0  0  0  0  0  0
   44.1310    6.8420   44.0540 N   0  0  0  0  0  0  0  0  0  0  0  0
   44.4790    5.4920   43.8690 C   0  0  0  0  0  2  0  0  0  0  0  0
   45.8810    5.4020   43.2610 C   0  0  0  0  0  2  0  0  0  0  0  0
   45.7990    6.2620   42.1310 O   0  0  0  0  0  0  0  0  0  0  0  0
   45.8510    7.5930   42.5650 C   0  0  0  0  0  2  0  0  0  0  0  0
   45.1040    7.8360   43.8390 C   0  0  0  0  0  2  0  0  0  0  0  0
  1  2  1  0  0  0  0
  2  3  1  0  0  0  0
  3  4  2  0  0  0  0
  4 11  1  0  0  0  0
  5  8  1  0  0  0  0
  5  4  1  0  0  0  0
  6  5  2  0  0  0  0
  7  6  1  0  0  0  0
  7  2  2  0  0  0  0
  8  9  1  0  0  0  0
  9 11  1  0  0  0  0
  9 10  2  0  0  0  0
 11 12  1  1  0  0  0
 12 13  1  0  0  0  0
 13 15  1  0  0  0  0
 13 14  1  0  0  0  0
 14 17  1  0  0  0  0
 14 16  2  0  0  0  0
 18 17  1  0  0  0  0
 19 18  1  0  0  0  0
 20 19  2  0  0  0  0
 21 22  1  0  0  0  0
 21 20  1  0  0  0  0
 23 22  2  0  0  0  0
 24 23  1  0  0  0  0
 25 24  2  0  0  0  0
 25 26  1  0  0  0  0
 26 21  2  0  0  0  0
 27 24  1  0  0  0  0
 28 27  1  0  0  0  0
 29 30  1  0  0  0  0
 29  8  1  0  0  0  0
 31 30  1  0  0  0  0
 32 31  1  0  0  0  0
 33 34  1  0  0  0  0
 33 32  1  0  0  0  0
 34 35  1  0  0  0  0
 35 30  1  0  0  0  0
M  END
>  <Pose>
1

>  <Score>
-7.406

$$$$
