/Users/jonathanwahrer/Desktop/Msc/3_Semester/Drug_Design_Praktikum/waehrer_HTS_screening/HTS_experiment/out/docking_results/vina_output/2qfa/0504_docked.pdbqt
 OpenBabel03162219513D

 29 32  0  0  1  0  0  0  0  0999 V2000
   44.9390   14.6120   46.8720 Br  0  0  0  0  0  0  0  0  0  0  0  0
   43.1530   14.1010   46.4730 C   0  0  0  0  0  0  0  0  0  0  0  0
   42.7640   12.7920   46.3220 C   0  0  0  0  0  3  0  0  0  0  0  0
   41.4320   12.4990   46.0290 C   0  0  0  0  0  0  0  0  0  0  0  0
   40.4790   13.4500   45.8820 C   0  0  0  0  0  0  0  0  0  0  0  0
   40.8750   14.7810   46.0370 C   0  0  0  0  0  3  0  0  0  0  0  0
   42.1850   15.0890   46.3260 C   0  0  0  0  0  3  0  0  0  0  0  0
   39.2110   12.8950   45.5900 N   0  0  0  0  0  0  0  0  0  0  0  0
   39.3610   11.4950   45.5450 C   0  0  0  0  0  0  0  0  0  0  0  0
   38.4480   10.6560   45.3100 O   0  0  0  0  0  0  0  0  0  0  0  0
   40.7860   11.1630   45.8230 C   0  0  1  0  0  0  0  0  0  0  0  0
   41.3990   10.4880   44.6520 C   0  0  0  0  0  0  0  0  0  0  0  0
   42.0120    9.3630   44.7430 C   0  0  0  0  0  0  0  0  0  0  0  0
   42.1620    8.6490   46.0020 N   0  0  0  0  0  0  0  0  0  0  0  0
   41.5840    9.2810   47.1250 C   0  0  0  0  0  0  0  0  0  0  0  0
   40.9560   10.4230   47.0540 C   0  0  0  0  0  0  0  0  0  0  0  0
   40.4100   10.9530   48.2980 C   0  0  0  0  0  0  0  0  0  0  0  0
   39.9690   11.3910   49.2750 N   0  0  0  0  0  0  0  0  0  0  0  0
   42.5030    8.9710   43.3860 C   0  0  0  0  0  0  0  0  0  0  0  0
   42.1000    9.9870   42.5440 O   0  0  0  0  0  0  0  0  0  0  0  0
   41.4230   10.9520   43.2260 C   0  0  0  0  0  0  0  0  0  0  0  0
   40.8990   12.0300   42.8130 O   0  0  0  0  0  0  0  0  0  0  0  0
   41.9450    7.6130   43.0060 C   0  0  0  0  0  1  0  0  0  0  0  0
   44.0190    8.9120   43.3600 C   0  0  0  0  0  1  0  0  0  0  0  0
   37.9460   13.6110   45.3650 C   0  0  0  0  0  1  0  0  0  0  0  0
   42.6660    7.7460   46.0190 H   0  0  0  0  0  0  0  0  0  0  0  0
   41.7030    8.6130   48.4110 N   0  0  0  0  0  0  0  0  0  0  0  0
   41.3950    7.6200   48.4550 H   0  0  0  0  0  0  0  0  0  0  0  0
   42.0720    9.1000   49.2390 H   0  0  0  0  0  0  0  0  0  0  0  0
  2  1  1  0  0  0  0
  3  2  2  0  0  0  0
  4  3  1  0  0  0  0
  5  4  2  0  0  0  0
  5  6  1  0  0  0  0
  6  7  2  0  0  0  0
  7  2  1  0  0  0  0
  8  5  1  0  0  0  0
  9  8  1  0  0  0  0
  9 11  1  0  0  0  0
 10  9  2  0  0  0  0
 11 12  1  6  0  0  0
 11  4  1  0  0  0  0
 11 16  1  0  0  0  0
 12 13  2  0  0  0  0
 13 14  1  0  0  0  0
 14 26  1  0  0  0  0
 14 15  1  0  0  0  0
 15 27  1  0  0  0  0
 16 15  2  0  0  0  0
 16 17  1  0  0  0  0
 17 18  3  0  0  0  0
 19 13  1  0  0  0  0
 20 21  1  0  0  0  0
 20 19  1  0  0  0  0
 21 12  1  0  0  0  0
 22 21  2  0  0  0  0
 23 19  1  0  0  0  0
 24 19  1  0  0  0  0
 25  8  1  0  0  0  0
 27 28  1  0  0  0  0
 27 29  1  0  0  0  0
M  END
>  <Pose>
1

>  <Score>
-7.000

$$$$
