/Users/jonathanwahrer/Desktop/Msc/3_Semester/Drug_Design_Praktikum/waehrer_HTS_screening/HTS_experiment/out/docking_results/vina_output/2qfa/0526_docked.pdbqt
 OpenBabel03162219513D

 31 34  0  0  0  0  0  0  0  0999 V2000
   44.2150    9.0140   43.2540 N   0  0  0  0  0  0  0  0  0  0  0  0
   44.2000    7.7850   43.9390 C   0  0  0  0  0  0  0  0  0  0  0  0
   43.9370    7.7960   45.1940 O   0  0  0  0  0  0  0  0  0  0  0  0
   44.4420    9.0230   42.2220 H   0  0  0  0  0  0  0  0  0  0  0  0
   44.4440    6.4510   43.3830 C   0  0  0  0  0  2  0  0  0  0  0  0
   45.6260    5.7780   43.8420 N   0  0  0  0  0  0  0  0  0  0  0  0
   46.5500    5.1880   42.9330 C   0  0  0  0  0  0  0  0  0  0  0  0
   46.2490    5.2960   41.6810 O   0  0  0  0  0  0  0  0  0  0  0  0
   45.8470    5.6770   44.8440 H   0  0  0  0  0  0  0  0  0  0  0  0
   47.7550    4.4970   43.2750 C   0  0  0  0  0  0  0  0  0  0  0  0
   48.3440    3.4880   42.5270 C   0  0  0  0  0  3  0  0  0  0  0  0
   49.4920    2.8800   42.9040 C   0  0  0  0  0  0  0  0  0  0  0  0
   50.1410    3.2390   44.0680 C   0  0  0  0  0  0  0  0  0  0  0  0
   50.3220    1.8380   42.3440 O   0  0  0  0  0  0  0  0  0  0  0  0
   49.5970    4.2210   44.8360 C   0  0  0  0  0  3  0  0  0  0  0  0
   51.2970    2.4520   44.1950 O   0  0  0  0  0  0  0  0  0  0  0  0
   48.4100    4.8650   44.4600 C   0  0  0  0  0  3  0  0  0  0  0  0
   51.6620    2.2280   42.8120 C   0  0  0  0  0  2  0  0  0  0  0  0
   43.9450   10.1640   43.9060 N   0  0  0  0  0  0  0  0  0  0  0  0
   43.0530   10.9060   44.1750 C   0  0  0  0  0  0  0  0  0  0  0  0
   43.0150   12.1600   44.9380 C   0  0  0  0  0  0  0  0  0  0  0  0
   41.6580   10.6130   43.7320 C   0  0  0  0  0  0  0  0  0  0  0  0
   44.0240   12.8640   45.5580 C   0  0  0  0  0  3  0  0  0  0  0  0
   41.7230   12.5800   44.9490 C   0  0  0  0  0  0  0  0  0  0  0  0
   43.7760   14.0330   46.2200 C   0  0  0  0  0  0  0  0  0  0  0  0
   45.1550   15.0180   47.0750 Br  0  0  0  0  0  0  0  0  0  0  0  0
   42.4610   14.4810   46.2430 C   0  0  0  0  0  3  0  0  0  0  0  0
   41.4590   13.7760   45.6250 C   0  0  0  0  0  3  0  0  0  0  0  0
   40.8770   11.6950   44.2480 N   0  0  0  0  0  0  0  0  0  0  0  0
   39.8430   11.7800   44.1000 H   0  0  0  0  0  0  0  0  0  0  0  0
   41.3330    9.6280   43.0660 O   0  0  0  0  0  0  0  0  0  0  0  0
  1 19  1  0  0  0  0
  1  2  1  0  0  0  0
  2  3  2  0  0  0  0
  4  1  1  0  0  0  0
  5  6  1  0  0  0  0
  5  2  1  0  0  0  0
  6  9  1  0  0  0  0
  7 10  1  0  0  0  0
  7  6  1  0  0  0  0
  8  7  2  0  0  0  0
 10 17  1  0  0  0  0
 11 12  1  0  0  0  0
 11 10  2  0  0  0  0
 12 13  2  0  0  0  0
 13 16  1  0  0  0  0
 13 15  1  0  0  0  0
 14 18  1  0  0  0  0
 14 12  1  0  0  0  0
 17 15  2  0  0  0  0
 18 16  1  0  0  0  0
 19 20  2  0  0  0  0
 20 21  1  0  0  0  0
 21 24  2  0  0  0  0
 21 23  1  0  0  0  0
 22 20  1  0  0  0  0
 22 29  1  0  0  0  0
 23 25  2  0  0  0  0
 24 28  1  0  0  0  0
 25 27  1  0  0  0  0
 25 26  1  0  0  0  0
 28 27  2  0  0  0  0
 29 24  1  0  0  0  0
 30 29  1  0  0  0  0
 31 22  2  0  0  0  0
M  END
>  <Pose>
1

>  <Score>
-8.615

$$$$
