/Users/jonathanwahrer/Desktop/Msc/3_Semester/Drug_Design_Praktikum/waehrer_HTS_screening/HTS_experiment/out/docking_results/vina_output/2qfa/0550_docked.pdbqt
 OpenBabel03162219513D

 30 35  0  0  1  0  0  0  0  0999 V2000
   38.7650   11.0980   51.1840 Br  0  0  0  0  0  0  0  0  0  0  0  0
   38.7340   10.9540   49.2820 C   0  0  0  0  0  0  0  0  0  0  0  0
   39.8570   11.2100   48.5030 C   0  0  0  0  0  3  0  0  0  0  0  0
   39.8270   11.1050   47.1390 C   0  0  0  0  0  0  0  0  0  0  0  0
   38.6250   10.7300   46.5570 C   0  0  0  0  0  0  0  0  0  0  0  0
   37.5080   10.4760   47.3230 C   0  0  0  0  0  3  0  0  0  0  0  0
   37.5490   10.5850   48.6930 C   0  0  0  0  0  3  0  0  0  0  0  0
   38.7670   10.6640   45.1350 N   0  0  0  0  0  0  0  0  0  0  0  0
   40.0940   11.0050   44.7970 C   0  0  0  0  0  0  0  0  0  0  0  0
   40.5340   11.0350   43.6390 O   0  0  0  0  0  0  0  0  0  0  0  0
   40.7970   11.2990   46.0640 C   0  0  1  0  0  0  0  0  0  0  0  0
   41.3510   12.6150   45.9460 N   0  0  2  0  0  0  0  0  0  0  0  0
   42.5120   12.4340   45.0760 C   0  0  2  0  0  3  0  0  0  0  0  0
   43.0460   11.0700   45.3660 C   0  0  1  0  0  3  0  0  0  0  0  0
   42.0260   10.4460   46.2540 C   0  0  2  0  0  3  0  0  0  0  0  0
   41.8740    9.0830   45.7540 C   0  0  0  0  0  0  0  0  0  0  0  0
   41.2220    8.1630   46.2960 O   0  0  0  0  0  0  0  0  0  0  0  0
   42.5810    8.9480   44.5460 N   0  0  0  0  0  0  0  0  0  0  0  0
   43.1220   10.2140   44.1390 C   0  0  0  0  0  0  0  0  0  0  0  0
   43.5650   10.5610   43.0160 O   0  0  0  0  0  0  0  0  0  0  0  0
   43.5350   13.4560   45.5480 C   0  0  0  0  0  2  0  0  0  0  0  0
   42.8720   14.2220   46.6740 C   0  0  0  0  0  2  0  0  0  0  0  0
   41.8810   13.1630   47.1770 C   0  0  0  0  0  2  0  0  0  0  0  0
   37.9870   10.4010   44.4640 H   0  0  0  0  0  0  0  0  0  0  0  0
   42.7560    7.7390   43.8050 C   0  0  0  0  0  2  0  0  0  0  0  0
   44.1380    7.1960   43.7920 C   0  0  2  0  0  3  0  0  0  0  0  0
   44.8300    7.4460   42.6130 O   0  0  0  0  0  0  0  0  0  0  0  0
   45.9690    6.6610   42.7280 C   0  0  0  0  0  2  0  0  0  0  0  0
   45.5900    5.3860   43.4140 C   0  0  0  0  0  2  0  0  0  0  0  0
   44.2600    5.7380   44.0790 C   0  0  0  0  0  2  0  0  0  0  0  0
  2  1  1  0  0  0  0
  3  2  2  0  0  0  0
  4  3  1  0  0  0  0
  5  4  2  0  0  0  0
  5  6  1  0  0  0  0
  6  7  2  0  0  0  0
  7  2  1  0  0  0  0
  8  5  1  0  0  0  0
  9  8  1  0  0  0  0
 10  9  2  0  0  0  0
 11  9  1  6  0  0  0
 11 15  1  0  0  0  0
 11  4  1  0  0  0  0
 12 11  1  0  0  0  0
 12 23  1  1  0  0  0
 13 14  1  0  0  0  0
 13 21  1  1  0  0  0
 13 12  1  0  0  0  0
 14 19  1  6  0  0  0
 14 15  1  0  0  0  0
 15 16  1  6  0  0  0
 16 17  2  0  0  0  0
 18 16  1  0  0  0  0
 19 18  1  0  0  0  0
 20 19  2  0  0  0  0
 21 22  1  0  0  0  0
 22 23  1  0  0  0  0
 24  8  1  0  0  0  0
 25 18  1  0  0  0  0
 26 25  1  6  0  0  0
 26 30  1  0  0  0  0
 27 28  1  0  0  0  0
 27 26  1  0  0  0  0
 28 29  1  0  0  0  0
 29 30  1  0  0  0  0
M  END
>  <Pose>
1

>  <Score>
-7.659

$$$$
