/Users/jonathanwahrer/Desktop/Msc/3_Semester/Drug_Design_Praktikum/waehrer_HTS_screening/HTS_experiment/out/docking_results/vina_output/2qfa/0556_docked.pdbqt
 OpenBabel03162219523D

 30 33  0  0  1  0  0  0  0  0999 V2000
   39.1290    8.7830   49.2450 Br  0  0  0  0  0  0  0  0  0  0  0  0
   40.7040    9.5360   48.4760 C   0  0  0  0  0  0  0  0  0  0  0  0
   40.6750    9.8110   47.1310 C   0  0  0  0  0  3  0  0  0  0  0  0
   41.8050   10.3650   46.5210 C   0  0  0  0  0  0  0  0  0  0  0  0
   42.9070   10.6180   47.2720 C   0  0  0  0  0  0  0  0  0  0  0  0
   42.9570   10.3440   48.6520 C   0  0  0  0  0  3  0  0  0  0  0  0
   41.8320    9.8000   49.2240 C   0  0  0  0  0  3  0  0  0  0  0  0
   43.9400   11.1690   46.4770 N   0  0  0  0  0  0  0  0  0  0  0  0
   43.4610   11.2620   45.1690 C   0  0  0  0  0  0  0  0  0  0  0  0
   44.0970   11.7050   44.1350 O   0  0  0  0  0  0  0  0  0  0  0  0
   42.0550   10.7570   45.1430 C   0  0  2  0  0  0  0  0  0  0  0  0
   41.2560   11.8310   44.6130 C   0  0  0  0  0  0  0  0  0  0  0  0
   40.6590   11.7330   43.4120 C   0  0  0  0  0  0  0  0  0  0  0  0
   39.9830   12.9110   43.2060 N   0  0  0  0  0  0  0  0  0  0  0  0
   40.1710   13.6890   44.2510 N   0  0  0  0  0  0  0  0  0  0  0  0
   40.9440   13.0930   45.1590 C   0  0  0  0  0  0  0  0  0  0  0  0
   41.4020   13.6150   46.4790 C   0  0  0  0  0  1  0  0  0  0  0  0
   40.7610   10.5980   42.5880 O   0  0  0  0  0  0  0  0  0  0  0  0
   41.5280    9.5500   43.0810 C   0  0  0  0  0  0  0  0  0  0  0  0
   42.1280    9.5890   44.2320 C   0  0  0  0  0  0  0  0  0  0  0  0
   44.9110   11.4670   46.7810 H   0  0  0  0  0  0  0  0  0  0  0  0
   39.4170   13.1470   42.3600 H   0  0  0  0  0  0  0  0  0  0  0  0
   42.9270    8.4080   44.6690 C   0  0  0  0  0  0  0  0  0  0  0  0
   42.3500    7.5280   45.3320 O   0  0  0  0  0  0  0  0  0  0  0  0
   44.2540    8.2500   44.3740 O   0  0  0  0  0  0  0  0  0  0  0  0
   44.8780    7.0150   44.1160 C   0  0  0  0  0  2  0  0  0  0  0  0
   45.0960    6.9250   42.6020 C   0  0  0  0  0  1  0  0  0  0  0  0
   41.6800    8.3490   42.2920 N   0  0  0  0  0  0  0  0  0  0  0  0
   41.9780    8.4480   41.3180 H   0  0  0  0  0  0  0  0  0  0  0  0
   41.4900    7.4430   42.7200 H   0  0  0  0  0  0  0  0  0  0  0  0
  2  7  1  0  0  0  0
  2  1  1  0  0  0  0
  3  2  2  0  0  0  0
  4  3  1  0  0  0  0
  4  5  2  0  0  0  0
  5  6  1  0  0  0  0
  6  7  2  0  0  0  0
  8 21  1  0  0  0  0
  8  5  1  0  0  0  0
  9  8  1  0  0  0  0
 10  9  2  0  0  0  0
 11 20  1  6  0  0  0
 11  9  1  0  0  0  0
 11  4  1  0  0  0  0
 12 11  1  0  0  0  0
 12 16  1  0  0  0  0
 13 12  2  0  0  0  0
 14 13  1  0  0  0  0
 14 15  1  0  0  0  0
 15 16  2  0  0  0  0
 16 17  1  0  0  0  0
 18 19  1  0  0  0  0
 18 13  1  0  0  0  0
 19 20  2  0  0  0  0
 20 23  1  0  0  0  0
 22 14  1  0  0  0  0
 23 24  2  0  0  0  0
 25 23  1  0  0  0  0
 26 25  1  0  0  0  0
 27 26  1  0  0  0  0
 28 30  1  0  0  0  0
 28 19  1  0  0  0  0
 29 28  1  0  0  0  0
M  END
>  <Pose>
1

>  <Score>
-7.208

$$$$
