/Users/jonathanwahrer/Desktop/Msc/3_Semester/Drug_Design_Praktikum/waehrer_HTS_screening/HTS_experiment/out/docking_results/vina_output/2qfa/0559_docked.pdbqt
 OpenBabel03162219523D

 32 35  0  0  1  0  0  0  0  0999 V2000
   43.1190   16.1250   48.5240 Br  0  0  0  0  0  0  0  0  0  0  0  0
   43.6510   14.9320   47.1170 C   0  0  0  0  0  0  0  0  0  0  0  0
   42.8680   13.8570   46.7390 C   0  0  0  0  0  3  0  0  0  0  0  0
   43.2430   12.9940   45.7290 C   0  0  0  0  0  0  0  0  0  0  0  0
   44.4470   13.2600   45.1110 C   0  0  0  0  0  0  0  0  0  0  0  0
   45.2380   14.3400   45.4890 C   0  0  0  0  0  3  0  0  0  0  0  0
   44.8450   15.1770   46.4880 C   0  0  0  0  0  3  0  0  0  0  0  0
   44.6760   12.2650   44.1000 N   0  0  0  0  0  0  0  0  0  0  0  0
   43.5890   11.3580   44.0890 C   0  0  0  0  0  0  0  0  0  0  0  0
   43.5030   10.3720   43.3200 O   0  0  0  0  0  0  0  0  0  0  0  0
   42.6240   11.7940   45.1200 C   0  0  1  0  0  0  0  0  0  0  0  0
   42.3840   10.7500   46.0800 N   0  0  0  0  0  0  0  0  0  0  0  0
   41.4230    9.8890   45.4230 C   0  0  2  0  0  3  0  0  0  0  0  0
   40.4600   10.8540   44.7850 C   0  0  2  0  0  3  0  0  0  0  0  0
   41.3110   12.0630   44.4770 C   0  0  1  0  0  3  0  0  0  0  0  0
   40.5640   13.2110   45.0110 C   0  0  0  0  0  0  0  0  0  0  0  0
   40.8480   14.4270   44.8660 O   0  0  0  0  0  0  0  0  0  0  0  0
   39.4150   12.7420   45.7530 N   0  0  0  0  0  0  0  0  0  0  0  0
   39.4090   11.3240   45.7140 C   0  0  0  0  0  0  0  0  0  0  0  0
   38.6240   10.6060   46.3770 O   0  0  0  0  0  0  0  0  0  0  0  0
   45.5260   12.2550   43.4960 H   0  0  0  0  0  0  0  0  0  0  0  0
   41.9390   11.1600   46.9170 H   0  0  0  0  0  0  0  0  0  0  0  0
   40.7800    8.9630   46.4200 C   0  0  0  0  0  2  0  0  0  0  0  0
   41.6410    7.8000   46.6930 C   0  0  0  0  0  0  0  0  0  0  0  0
   42.4300    7.8480   47.6760 O   0  0  0  0  0  0  0  0  0  0  0  0
   41.6520    6.6080   45.9260 N   0  0  0  0  0  0  0  0  0  0  0  0
   41.6930    6.5610   44.8970 H   0  0  0  0  0  0  0  0  0  0  0  0
   41.6160    5.6990   46.4590 H   0  0  0  0  0  0  0  0  0  0  0  0
   38.4320   13.5560   46.4240 C   0  0  0  0  0  0  0  0  0  0  0  0
   39.0570   14.7490   47.1060 C   0  0  0  0  0  1  0  0  0  0  0  0
   37.4000   14.0320   45.3970 C   0  0  0  0  0  1  0  0  0  0  0  0
   37.7100   12.7600   47.4900 C   0  0  0  0  0  1  0  0  0  0  0  0
  2  1  1  0  0  0  0
  3  2  1  0  0  0  0
  4  3  2  0  0  0  0
  5  6  2  0  0  0  0
  5  4  1  0  0  0  0
  6  7  1  0  0  0  0
  7  2  2  0  0  0  0
  8  5  1  0  0  0  0
  9  8  1  0  0  0  0
 10  9  2  0  0  0  0
 11  9  1  6  0  0  0
 11  4  1  0  0  0  0
 11 12  1  0  0  0  0
 12 22  1  0  0  0  0
 13 12  1  0  0  0  0
 13 23  1  1  0  0  0
 14 13  1  0  0  0  0
 14 19  1  1  0  0  0
 15 14  1  0  0  0  0
 15 16  1  1  0  0  0
 15 11  1  0  0  0  0
 16 18  1  0  0  0  0
 17 16  2  0  0  0  0
 18 29  1  0  0  0  0
 19 18  1  0  0  0  0
 19 20  2  0  0  0  0
 21  8  1  0  0  0  0
 23 24  1  0  0  0  0
 24 25  2  0  0  0  0
 26 28  1  0  0  0  0
 26 24  1  0  0  0  0
 27 26  1  0  0  0  0
 29 30  1  0  0  0  0
 29 32  1  0  0  0  0
 31 29  1  0  0  0  0
M  END
>  <Pose>
1

>  <Score>
-6.830

$$$$
