/Users/jonathanwahrer/Desktop/Msc/3_Semester/Drug_Design_Praktikum/waehrer_HTS_screening/HTS_experiment/out/docking_results/vina_output/2qfa/0566_docked.pdbqt
 OpenBabel03162219523D

 30 33  0  0  1  0  0  0  0  0999 V2000
   36.3450   11.3510   46.9540 Br  0  0  0  0  0  0  0  0  0  0  0  0
   37.8850   10.4510   47.6320 C   0  0  0  0  0  0  0  0  0  0  0  0
   39.0560   10.4280   46.9180 C   0  0  0  0  0  3  0  0  0  0  0  0
   40.1970    9.7680   47.4080 C   0  0  0  0  0  0  0  0  0  0  0  0
   40.1790    9.1250   48.6140 C   0  0  0  0  0  0  0  0  0  0  0  0
   38.9820    9.1480   49.3440 C   0  0  0  0  0  3  0  0  0  0  0  0
   37.8780    9.8000   48.8460 C   0  0  0  0  0  3  0  0  0  0  0  0
   41.4410    8.5360   48.8940 N   0  0  0  0  0  0  0  0  0  0  0  0
   42.2930    8.8260   47.8040 C   0  0  0  0  0  0  0  0  0  0  0  0
   43.5040    8.4270   47.7660 O   0  0  0  0  0  0  0  0  0  0  0  0
   41.5500    9.6080   46.8310 C   0  0  2  0  0  0  0  0  0  0  0  0
   42.1640   10.8840   46.5210 N   0  0  0  0  0  0  0  0  0  0  0  0
   43.0660   10.6290   45.4130 C   0  0  1  0  0  3  0  0  0  0  0  0
   42.2520    9.7020   44.5560 C   0  0  2  0  0  3  0  0  0  0  0  0
   41.4930    8.8530   45.5190 C   0  0  1  0  0  3  0  0  0  0  0  0
   42.2040    7.5660   45.5650 C   0  0  0  0  0  0  0  0  0  0  0  0
   42.1110    6.6330   46.4290 O   0  0  0  0  0  0  0  0  0  0  0  0
   43.0800    7.4670   44.4490 N   0  0  0  0  0  0  0  0  0  0  0  0
   43.0880    8.7310   43.8170 C   0  0  0  0  0  0  0  0  0  0  0  0
   43.7130    9.0360   42.7560 O   0  0  0  0  0  0  0  0  0  0  0  0
   41.6470    7.9920   49.7710 H   0  0  0  0  0  0  0  0  0  0  0  0
   42.6370   11.3120   47.3380 H   0  0  0  0  0  0  0  0  0  0  0  0
   43.3970   11.9230   44.7390 C   0  0  1  0  0  3  0  0  0  0  0  0
   43.6840   12.9880   45.7690 C   0  0  0  0  0  1  0  0  0  0  0  0
   44.5740   11.7330   44.0030 O   0  0  0  0  0  0  0  0  0  0  0  0
   45.1970   12.4940   44.1290 H   0  0  0  0  0  0  0  0  0  0  0  0
   43.8270    6.2970   44.0320 C   0  0  0  0  0  2  0  0  0  0  0  0
   45.3020    6.5340   44.0210 C   0  0  0  0  0  2  0  0  0  0  0  0
   45.7990    6.1720   42.6160 C   0  0  0  0  0  2  0  0  0  0  0  0
   46.5060    4.8450   42.6340 C   0  0  0  0  0  1  0  0  0  0  0  0
  1  2  1  0  0  0  0
  2  7  1  0  0  0  0
  3  4  1  0  0  0  0
  3  2  2  0  0  0  0
  4  5  2  0  0  0  0
  5  8  1  0  0  0  0
  5  6  1  0  0  0  0
  7  6  2  0  0  0  0
  8 21  1  0  0  0  0
  9  8  1  0  0  0  0
 10  9  2  0  0  0  0
 11  4  1  1  0  0  0
 11  9  1  0  0  0  0
 12 11  1  0  0  0  0
 12 22  1  0  0  0  0
 13 23  1  6  0  0  0
 13 12  1  0  0  0  0
 14 19  1  1  0  0  0
 14 13  1  0  0  0  0
 14 15  1  0  0  0  0
 15 16  1  1  0  0  0
 15 11  1  0  0  0  0
 16 17  2  0  0  0  0
 18 16  1  0  0  0  0
 19 18  1  0  0  0  0
 20 19  2  0  0  0  0
 23 24  1  1  0  0  0
 25 26  1  0  0  0  0
 25 23  1  0  0  0  0
 27 18  1  0  0  0  0
 28 27  1  0  0  0  0
 29 30  1  0  0  0  0
 29 28  1  0  0  0  0
M  END
>  <Pose>
1

>  <Score>
-6.683

$$$$
