/Users/jonathanwahrer/Desktop/Msc/3_Semester/Drug_Design_Praktikum/waehrer_HTS_screening/HTS_experiment/out/docking_results/vina_output/2qfa/0571_docked.pdbqt
 OpenBabel03162219523D

 34 38  0  0  1  0  0  0  0  0999 V2000
   37.1910   11.9670   45.5730 Br  0  0  0  0  0  0  0  0  0  0  0  0
   38.1700   10.8540   46.7780 C   0  0  0  0  0  0  0  0  0  0  0  0
   39.3690   10.2670   46.4380 C   0  0  0  0  0  3  0  0  0  0  0  0
   40.0800    9.4450   47.3240 C   0  0  0  0  0  0  0  0  0  0  0  0
   39.5350    9.2400   48.5680 C   0  0  0  0  0  0  0  0  0  0  0  0
   38.3290    9.8290   48.9180 C   0  0  0  0  0  3  0  0  0  0  0  0
   37.6380   10.6340   48.0390 C   0  0  0  0  0  3  0  0  0  0  0  0
   40.3510    8.3840   49.3440 N   0  0  0  0  0  0  0  0  0  0  0  0
   41.4640    8.0290   48.5540 C   0  0  0  0  0  0  0  0  0  0  0  0
   42.3790    7.2660   48.9720 O   0  0  0  0  0  0  0  0  0  0  0  0
   41.3320    8.6930   47.2400 C   0  0  1  0  0  0  0  0  0  0  0  0
   41.2730    7.6950   46.1670 N   0  0  0  0  0  0  0  0  0  0  0  0
   41.9090    8.3140   45.0260 C   0  0  1  0  0  3  0  0  0  0  0  0
   42.8580    9.3330   45.5240 C   0  0  2  0  0  3  0  0  0  0  0  0
   42.5680    9.4780   47.0060 C   0  0  1  0  0  3  0  0  0  0  0  0
   42.5230   10.9140   47.2570 C   0  0  0  0  0  0  0  0  0  0  0  0
   42.1870   11.4740   48.3300 O   0  0  0  0  0  0  0  0  0  0  0  0
   42.9270   11.6380   46.0760 N   0  0  0  0  0  0  0  0  0  0  0  0
   42.6800   10.7030   45.0040 C   0  0  0  0  0  0  0  0  0  0  0  0
   42.3720   11.0210   43.8460 O   0  0  0  0  0  0  0  0  0  0  0  0
   40.1590    8.0700   50.3350 H   0  0  0  0  0  0  0  0  0  0  0  0
   40.2860    7.4230   45.9520 H   0  0  0  0  0  0  0  0  0  0  0  0
   42.5470    7.2630   44.1480 C   0  0  2  0  0  3  0  0  0  0  0  0
   43.3000    7.8640   42.9870 C   0  0  0  0  0  1  0  0  0  0  0  0
   41.5950    6.3460   43.7440 O   0  0  0  0  0  0  0  0  0  0  0  0
   41.1760    5.8850   44.4960 H   0  0  0  0  0  0  0  0  0  0  0  0
   43.4760   12.9510   45.9620 C   0  0  0  0  0  2  0  0  0  0  0  0
   44.6720   13.0920   45.0660 C   0  0  0  0  0  2  0  0  0  0  0  0
   45.4390   14.3370   45.2440 C   0  0  0  0  0  0  0  0  0  0  0  0
   46.3690   14.7080   44.2800 C   0  0  0  0  0  3  0  0  0  0  0  0
   47.0620   15.8630   44.4180 C   0  0  0  0  0  3  0  0  0  0  0  0
   46.8890   16.7020   45.4810 C   0  0  0  0  0  3  0  0  0  0  0  0
   45.9590   16.3230   46.4370 C   0  0  0  0  0  3  0  0  0  0  0  0
   45.2490   15.1630   46.3200 C   0  0  0  0  0  3  0  0  0  0  0  0
  1  2  1  0  0  0  0
  2  7  1  0  0  0  0
  3  2  2  0  0  0  0
  3  4  1  0  0  0  0
  4  5  2  0  0  0  0
  5  6  1  0  0  0  0
  5  8  1  0  0  0  0
  7  6  2  0  0  0  0
  8 21  1  0  0  0  0
  9 10  2  0  0  0  0
  9  8  1  0  0  0  0
 11  4  1  6  0  0  0
 11  9  1  0  0  0  0
 12 11  1  0  0  0  0
 13 23  1  1  0  0  0
 13 14  1  0  0  0  0
 13 12  1  0  0  0  0
 14 19  1  6  0  0  0
 14 15  1  0  0  0  0
 15 11  1  0  0  0  0
 15 16  1  6  0  0  0
 16 17  2  0  0  0  0
 18 16  1  0  0  0  0
 19 18  1  0  0  0  0
 20 19  2  0  0  0  0
 22 12  1  0  0  0  0
 23 24  1  6  0  0  0
 25 23  1  0  0  0  0
 25 26  1  0  0  0  0
 27 18  1  0  0  0  0
 28 29  1  0  0  0  0
 28 27  1  0  0  0  0
 29 34  1  0  0  0  0
 30 31  1  0  0  0  0
 30 29  2  0  0  0  0
 31 32  2  0  0  0  0
 32 33  1  0  0  0  0
 34 33  2  0  0  0  0
M  END
>  <Pose>
1

>  <Score>
-8.286

$$$$
