/Users/jonathanwahrer/Desktop/Msc/3_Semester/Drug_Design_Praktikum/waehrer_HTS_screening/HTS_experiment/out/docking_results/vina_output/2qfa/0588_docked.pdbqt
 OpenBabel03162219533D

 24 27  0  0  1  0  0  0  0  0999 V2000
   45.4340    6.5210   42.3110 Br  0  0  0  0  0  0  0  0  0  0  0  0
   44.2200    7.4000   43.4880 C   0  0  0  0  0  0  0  0  0  0  0  0
   44.0140    8.7390   43.3250 C   0  0  0  0  0  3  0  0  0  0  0  0
   43.1370    9.4030   44.1670 C   0  0  0  0  0  0  0  0  0  0  0  0
   42.4710    8.7120   45.1710 C   0  0  0  0  0  0  0  0  0  0  0  0
   42.6690    7.3570   45.3490 C   0  0  0  0  0  3  0  0  0  0  0  0
   43.5490    6.7400   44.4890 C   0  0  0  0  0  3  0  0  0  0  0  0
   41.5560    9.2810   46.0860 N   0  0  0  0  0  0  0  0  0  0  0  0
   40.6410    8.5280   46.7070 N   0  0  0  0  0  0  0  0  0  0  0  0
   39.9650    9.3420   47.4710 N   0  0  0  0  0  0  0  0  0  0  0  0
   40.4230   10.5770   47.3510 N   0  0  0  0  0  0  0  0  0  0  0  0
   41.4540   10.5460   46.4560 C   0  0  0  0  0  0  0  0  0  0  0  0
   42.2120   11.7900   46.0810 C   0  0  2  0  0  0  0  0  0  0  0  0
   42.4680   11.8250   44.6430 N   0  0  0  0  0  0  0  0  0  0  0  0
   43.0620   10.8270   43.8210 C   0  0  0  0  0  0  0  0  0  0  0  0
   43.5590   11.1860   42.7170 O   0  0  0  0  0  0  0  0  0  0  0  0
   43.5570   11.6730   46.7440 C   0  0  0  0  0  2  0  0  0  0  0  0
   44.1840   13.0240   46.8560 C   0  0  0  0  0  0  0  0  0  0  0  0
   43.3810   13.7780   47.6710 O   0  0  0  0  0  0  0  0  0  0  0  0
   42.1390   14.0660   47.1740 C   0  0  0  0  0  3  0  0  0  0  0  0
   41.4270   12.9850   46.4820 C   0  0  0  0  0  3  0  0  0  0  0  0
   45.5390   12.8960   47.5640 C   0  0  0  0  0  1  0  0  0  0  0  0
   44.4640   13.6680   45.5250 C   0  0  0  0  0  1  0  0  0  0  0  0
   42.1780   12.7070   44.1230 H   0  0  0  0  0  0  0  0  0  0  0  0
  1  2  1  0  0  0  0
  2  7  1  0  0  0  0
  3  2  2  0  0  0  0
  3  4  1  0  0  0  0
  4  5  2  0  0  0  0
  5  6  1  0  0  0  0
  5  8  1  0  0  0  0
  7  6  2  0  0  0  0
  8 12  1  0  0  0  0
  8  9  1  0  0  0  0
  9 10  2  0  0  0  0
 11 10  1  0  0  0  0
 12 11  2  0  0  0  0
 13 12  1  0  0  0  0
 13 21  1  1  0  0  0
 13 17  1  0  0  0  0
 14 13  1  0  0  0  0
 15  4  1  0  0  0  0
 15 14  1  0  0  0  0
 16 15  2  0  0  0  0
 17 18  1  0  0  0  0
 18 22  1  0  0  0  0
 18 19  1  0  0  0  0
 20 19  1  0  0  0  0
 21 20  2  0  0  0  0
 23 18  1  0  0  0  0
 24 14  1  0  0  0  0
M  END
>  <Pose>
1

>  <Score>
-6.633

$$$$
