/Users/jonathanwahrer/Desktop/Msc/3_Semester/Drug_Design_Praktikum/waehrer_HTS_screening/HTS_experiment/out/docking_results/vina_output/2qfa/0616_docked.pdbqt
 OpenBabel03162219543D

 28 31  0  0  0  0  0  0  0  0999 V2000
   45.8650    7.1040   42.8910 C   0  0  0  0  0  0  0  0  0  0  0  0
   46.1770    8.0080   42.0250 O   0  0  0  0  0  0  0  0  0  0  0  0
   44.5850    7.2070   43.4370 N   0  0  0  0  0  0  0  0  0  0  0  0
   44.0050    6.3390   44.4260 C   0  0  0  0  0  2  0  0  0  0  0  0
   42.5970    6.7880   44.8370 C   0  0  0  0  0  2  0  0  0  0  0  0
   42.6310    8.2150   45.1210 N   0  0  0  0  0  0  0  0  0  0  0  0
   43.3580    9.1170   44.2270 C   0  0  0  0  0  2  0  0  0  0  0  0
   43.6840    8.2970   42.9750 C   0  0  0  0  0  2  0  0  0  0  0  0
   41.9760    8.7520   46.2510 C   0  0  0  0  0  0  0  0  0  0  0  0
   41.3690    7.9470   46.9970 O   0  0  0  0  0  0  0  0  0  0  0  0
   46.8480    6.0890   43.2130 C   0  0  0  0  0  0  0  0  0  0  0  0
   47.6710    5.9370   44.2540 N   0  0  0  0  0  0  0  0  0  0  0  0
   48.4400    4.8130   44.1170 C   0  0  0  0  0  0  0  0  0  0  0  0
   47.7630    6.5430   45.0820 H   0  0  0  0  0  0  0  0  0  0  0  0
   48.1050    4.2030   42.9380 C   0  0  0  0  0  0  0  0  0  0  0  0
   49.4170    4.2450   44.9120 C   0  0  0  0  0  3  0  0  0  0  0  0
   48.7520    3.0240   42.5590 C   0  0  0  0  0  3  0  0  0  0  0  0
   47.1300    4.9780   42.3780 C   0  0  0  0  0  3  0  0  0  0  0  0
   49.7230    2.4550   43.3420 C   0  0  0  0  0  0  0  0  0  0  0  0
   50.6180    0.8370   42.8310 Br  0  0  0  0  0  0  0  0  0  0  0  0
   50.0540    3.0740   44.5270 C   0  0  0  0  0  3  0  0  0  0  0  0
   42.0340   10.1840   46.4970 C   0  0  0  0  0  2  0  0  0  0  0  0
   40.7600   10.8660   46.4470 N   0  0  0  0  0  0  0  0  0  0  0  0
   40.1740   10.6820   45.1180 C   0  0  0  0  0  2  0  0  0  0  0  0
   40.4570   11.8510   44.2400 C   0  0  0  0  0  2  0  0  0  0  0  0
   41.7200   12.3740   44.5070 O   0  0  0  0  0  0  0  0  0  0  0  0
   41.7570   12.9950   45.7570 C   0  0  0  0  0  2  0  0  0  0  0  0
   40.8650   12.2830   46.7470 C   0  0  0  0  0  2  0  0  0  0  0  0
  1 11  1  0  0  0  0
  1  3  1  0  0  0  0
  2  1  2  0  0  0  0
  3  4  1  0  0  0  0
  4  5  1  0  0  0  0
  5  6  1  0  0  0  0
  6  9  1  0  0  0  0
  7  6  1  0  0  0  0
  8  3  1  0  0  0  0
  8  7  1  0  0  0  0
  9 22  1  0  0  0  0
  9 10  2  0  0  0  0
 11 12  1  0  0  0  0
 12 14  1  0  0  0  0
 13 12  1  0  0  0  0
 13 16  1  0  0  0  0
 15 13  2  0  0  0  0
 17 15  1  0  0  0  0
 17 19  2  0  0  0  0
 18 15  1  0  0  0  0
 18 11  2  0  0  0  0
 19 21  1  0  0  0  0
 20 19  1  0  0  0  0
 21 16  2  0  0  0  0
 23 22  1  0  0  0  0
 23 28  1  0  0  0  0
 24 23  1  0  0  0  0
 25 26  1  0  0  0  0
 25 24  1  0  0  0  0
 26 27  1  0  0  0  0
 27 28  1  0  0  0  0
M  END
>  <Pose>
1

>  <Score>
-7.701

$$$$
