/Users/jonathanwahrer/Desktop/Msc/3_Semester/Drug_Design_Praktikum/waehrer_HTS_screening/HTS_experiment/out/docking_results/vina_output/2qfa/0617_docked.pdbqt
 OpenBabel03162219543D

 25 28  0  0  0  0  0  0  0  0999 V2000
   52.2480    1.5760   45.9330 Br  0  0  0  0  0  0  0  0  0  0  0  0
   50.9590    2.0310   44.6090 C   0  0  0  0  0  0  0  0  0  0  0  0
   50.1820    3.1650   44.7220 C   0  0  0  0  0  3  0  0  0  0  0  0
   49.2430    3.5090   43.7710 C   0  0  0  0  0  0  0  0  0  0  0  0
   49.0910    2.6770   42.6780 C   0  0  0  0  0  0  0  0  0  0  0  0
   48.1280    3.2420   41.9280 N   0  0  0  0  0  0  0  0  0  0  0  0
   47.6720    4.3850   42.4990 C   0  0  0  0  0  0  0  0  0  0  0  0
   48.3710    4.5710   43.6730 C   0  0  0  0  0  0  0  0  0  0  0  0
   48.0880    5.6540   44.4230 N   0  0  0  0  0  0  0  0  0  0  0  0
   47.1510    6.5500   44.0590 C   0  0  0  0  0  3  0  0  0  0  0  0
   46.4570    6.3950   42.9230 N   0  0  0  0  0  0  0  0  0  0  0  0
   46.7230    5.3230   42.1620 C   0  0  0  0  0  0  0  0  0  0  0  0
   46.0820    5.1610   41.0940 O   0  0  0  0  0  0  0  0  0  0  0  0
   49.8750    1.5430   42.5770 C   0  0  0  0  0  3  0  0  0  0  0  0
   50.8160    1.1910   43.5240 C   0  0  0  0  0  3  0  0  0  0  0  0
   47.7630    2.8740   41.0290 H   0  0  0  0  0  0  0  0  0  0  0  0
   45.4290    7.3710   42.5200 C   0  0  0  0  0  2  0  0  0  0  0  0
   44.2750    7.3170   43.4440 C   0  0  0  0  0  2  0  0  0  0  0  0
   43.9280    8.5230   44.1060 N   0  0  0  0  0  0  0  0  0  0  0  0
   43.5570    8.3860   45.4720 C   0  0  0  0  0  2  0  0  0  0  0  0
   42.0720    8.3110   45.6850 C   0  0  0  0  0  2  0  0  0  0  0  0
   41.3370    9.1720   44.7830 N   0  0  0  0  0  0  0  0  0  0  0  0
   42.2040   10.1740   44.1880 C   0  0  0  0  0  2  0  0  0  0  0  0
   40.8300    8.6320   44.0450 H   0  0  0  0  0  0  0  0  0  0  0  0
   43.1800    9.4290   43.3110 C   0  0  0  0  0  2  0  0  0  0  0  0
  2  3  1  0  0  0  0
  2  1  1  0  0  0  0
  4  3  2  0  0  0  0
  5  4  1  0  0  0  0
  6  7  1  0  0  0  0
  6  5  1  0  0  0  0
  7  8  2  0  0  0  0
  8  4  1  0  0  0  0
  8  9  1  0  0  0  0
 10  9  2  0  0  0  0
 11 10  1  0  0  0  0
 12  7  1  0  0  0  0
 12 11  1  0  0  0  0
 13 12  2  0  0  0  0
 14  5  2  0  0  0  0
 14 15  1  0  0  0  0
 15  2  2  0  0  0  0
 16  6  1  0  0  0  0
 17 11  1  0  0  0  0
 17 18  1  0  0  0  0
 18 19  1  0  0  0  0
 19 20  1  0  0  0  0
 20 21  1  0  0  0  0
 22 21  1  0  0  0  0
 23 22  1  0  0  0  0
 24 22  1  0  0  0  0
 25 19  1  0  0  0  0
 25 23  1  0  0  0  0
M  END
>  <Pose>
1

>  <Score>
-7.048

$$$$
