/Users/jonathanwahrer/Desktop/Msc/3_Semester/Drug_Design_Praktikum/waehrer_HTS_screening/HTS_experiment/out/docking_results/vina_output/2qfa/0626_docked.pdbqt
 OpenBabel03162219553D

 32 35  0  0  0  0  0  0  0  0999 V2000
   42.7700   11.0620   43.9810 N   0  0  0  0  0  0  0  0  0  0  0  0
   42.6310    9.7430   44.4310 C   0  0  0  0  0  0  0  0  0  0  0  0
   42.7090    9.4810   45.6590 O   0  0  0  0  0  0  0  0  0  0  0  0
   42.6710   11.1860   42.9280 H   0  0  0  0  0  0  0  0  0  0  0  0
   42.3930    8.5970   43.5470 C   0  0  0  0  0  2  0  0  0  0  0  0
   43.4550    7.7010   43.3170 N   0  0  0  0  0  0  0  0  0  0  0  0
   44.7800    8.2050   43.3530 C   0  0  0  0  0  2  0  0  0  0  0  0
   45.7700    7.2780   42.6460 C   0  0  0  0  0  2  0  0  0  0  0  0
   45.6410    6.0000   43.2050 N   0  0  0  0  0  0  0  0  0  0  0  0
   44.6060    5.7660   44.1340 C   0  0  0  0  0  2  0  0  0  0  0  0
   43.2750    6.3840   43.8260 C   0  0  0  0  0  2  0  0  0  0  0  0
   46.2010    4.9440   42.4920 C   0  0  0  0  0  2  0  0  0  0  0  0
   47.4670    4.3750   42.9570 C   0  0  0  0  0  0  0  0  0  0  0  0
   48.1300    3.7120   42.0680 O   0  0  0  0  0  0  0  0  0  0  0  0
   48.0330    4.4610   44.2240 N   0  0  0  0  0  0  0  0  0  0  0  0
   47.5530    4.9890   44.9810 H   0  0  0  0  0  0  0  0  0  0  0  0
   49.3120    3.8490   44.5740 C   0  0  0  0  0  3  0  0  0  0  0  0
   50.3270    4.5980   45.3310 C   0  0  0  0  0  2  0  0  0  0  0  0
   49.5470    3.4990   46.0270 C   0  0  0  0  0  2  0  0  0  0  0  0
   43.0020   12.2170   44.7600 C   0  0  0  0  0  0  0  0  0  0  0  0
   41.9180   12.9480   45.2190 C   0  0  0  0  0  0  0  0  0  0  0  0
   40.1660   12.3380   44.7300 Br  0  0  0  0  0  0  0  0  0  0  0  0
   42.0350   14.0800   45.9940 C   0  0  0  0  0  3  0  0  0  0  0  0
   43.2720   14.5520   46.3560 C   0  0  0  0  0  0  0  0  0  0  0  0
   43.7390   15.5880   47.0780 N   0  0  0  0  0  0  0  0  0  0  0  0
   44.3550   13.8460   45.9130 C   0  0  0  0  0  0  0  0  0  0  0  0
   45.0850   15.5690   47.1120 C   0  0  0  0  0  0  0  0  0  0  0  0
   45.4400   14.4910   46.3900 N   0  0  0  0  0  0  0  0  0  0  0  0
   46.4350   14.1800   46.2120 H   0  0  0  0  0  0  0  0  0  0  0  0
   44.2410   12.6930   45.1240 C   0  0  0  0  0  3  0  0  0  0  0  0
   45.9250   16.4890   47.7690 O   0  0  0  0  0  0  0  0  0  0  0  0
   45.7160   16.6350   48.7650 H   0  0  0  0  0  0  0  0  0  0  0  0
  1  2  1  0  0  0  0
  1 20  1  0  0  0  0
  2  3  2  0  0  0  0
  4  1  1  0  0  0  0
  5  2  1  0  0  0  0
  6  7  1  0  0  0  0
  6  5  1  0  0  0  0
  6 11  1  0  0  0  0
  8  9  1  0  0  0  0
  8  7  1  0  0  0  0
  9 10  1  0  0  0  0
 11 10  1  0  0  0  0
 12 13  1  0  0  0  0
 12  9  1  0  0  0  0
 13 15  1  0  0  0  0
 14 13  2  0  0  0  0
 15 17  1  0  0  0  0
 15 16  1  0  0  0  0
 17 18  1  0  0  0  0
 17 19  1  0  0  0  0
 18 19  1  0  0  0  0
 20 30  2  0  0  0  0
 20 21  1  0  0  0  0
 21 23  2  0  0  0  0
 22 21  1  0  0  0  0
 23 24  1  0  0  0  0
 24 25  1  0  0  0  0
 25 27  2  0  0  0  0
 26 24  2  0  0  0  0
 26 28  1  0  0  0  0
 27 31  1  0  0  0  0
 28 27  1  0  0  0  0
 29 28  1  0  0  0  0
 30 26  1  0  0  0  0
 31 32  1  0  0  0  0
M  END
>  <Pose>
1

>  <Score>
-7.357

$$$$
