/Users/jonathanwahrer/Desktop/Msc/3_Semester/Drug_Design_Praktikum/waehrer_HTS_screening/HTS_experiment/out/docking_results/vina_output/2qfa/0648_docked.pdbqt
 OpenBabel03162219563D

 32 35  0  0  0  0  0  0  0  0999 V2000
   42.7980    8.7880   45.8610 C   0  0  0  0  0  0  0  0  0  0  0  0
   42.9630    8.2510   47.0150 O   0  0  0  0  0  0  0  0  0  0  0  0
   42.7250    7.9530   44.7770 N   0  0  0  0  0  0  0  0  0  0  0  0
   42.5600    8.3590   43.4160 C   0  0  0  0  0  2  0  0  0  0  0  0
   43.8460    8.1370   42.6900 C   0  0  0  0  0  2  0  0  0  0  0  0
   44.6220    7.0630   43.2940 N   0  0  0  0  0  0  0  0  0  0  0  0
   44.0500    6.0470   44.1130 C   0  0  0  0  0  2  0  0  0  0  0  0
   42.8330    6.4870   44.9200 C   0  0  0  0  0  2  0  0  0  0  0  0
   46.0320    7.1600   43.0370 C   0  0  0  0  0  0  0  0  0  0  0  0
   46.4370    8.2160   42.3920 O   0  0  0  0  0  0  0  0  0  0  0  0
   47.0000    6.1990   43.4340 C   0  0  0  0  0  0  0  0  0  0  0  0
   47.2160    5.0110   42.7460 N   0  0  0  0  0  0  0  0  0  0  0  0
   48.1070    4.3040   43.3620 N   0  0  0  0  0  0  0  0  0  0  0  0
   46.5560    4.6180   41.5240 C   0  0  0  0  0  1  0  0  0  0  0  0
   48.5410    4.9200   44.4570 C   0  0  0  0  0  0  0  0  0  0  0  0
   47.8280    6.1350   44.5000 C   0  0  0  0  0  3  0  0  0  0  0  0
   49.5430    4.5000   45.4200 C   0  0  0  0  0  0  0  0  0  0  0  0
   49.5560    5.1280   46.5380 O   0  0  0  0  0  0  0  0  0  0  0  0
   50.4730    3.4900   45.2280 N   0  0  0  0  0  0  0  0  0  0  0  0
   51.3970    3.1850   46.3250 C   0  0  0  0  0  2  0  0  0  0  0  0
   50.6160    2.7300   44.0260 C   0  0  0  0  0  2  0  0  0  0  0  0
   52.7850    3.2520   45.7250 C   0  0  0  0  0  2  0  0  0  0  0  0
   52.8490    2.1800   44.8160 O   0  0  0  0  0  0  0  0  0  0  0  0
   52.0820    2.4540   43.7180 C   0  0  0  0  0  2  0  0  0  0  0  0
   42.7110   10.2260   45.8500 C   0  0  0  0  0  0  0  0  0  0  0  0
   41.5690   11.0140   46.0250 C   0  0  0  0  0  0  0  0  0  0  0  0
   39.8060   10.3070   46.3270 Br  0  0  0  0  0  0  0  0  0  0  0  0
   41.9260   12.3320   45.9430 C   0  0  0  0  0  3  0  0  0  0  0  0
   43.2450   12.3690   45.7250 N   0  0  0  0  0  0  0  0  0  0  0  0
   43.7030   11.1470   45.6710 N   0  0  0  0  0  0  0  0  0  0  0  0
   43.9650   13.6290   45.5780 C   0  0  0  0  0  2  0  0  0  0  0  0
   43.3480   14.7520   46.3680 C   0  0  0  0  0  1  0  0  0  0  0  0
  1  2  2  0  0  0  0
  3  8  1  0  0  0  0
  3  1  1  0  0  0  0
  4  3  1  0  0  0  0
  5  6  1  0  0  0  0
  5  4  1  0  0  0  0
  6  7  1  0  0  0  0
  7  8  1  0  0  0  0
  9  6  1  0  0  0  0
  9 11  1  0  0  0  0
 10  9  2  0  0  0  0
 11 16  2  0  0  0  0
 12 13  1  0  0  0  0
 12 11  1  0  0  0  0
 13 15  2  0  0  0  0
 14 12  1  0  0  0  0
 15 16  1  0  0  0  0
 15 17  1  0  0  0  0
 17 18  2  0  0  0  0
 19 17  1  0  0  0  0
 19 20  1  0  0  0  0
 21 19  1  0  0  0  0
 22 20  1  0  0  0  0
 23 22  1  0  0  0  0
 24 21  1  0  0  0  0
 24 23  1  0  0  0  0
 25  1  1  0  0  0  0
 25 26  1  0  0  0  0
 26 27  1  0  0  0  0
 28 26  2  0  0  0  0
 29 28  1  0  0  0  0
 30 29  1  0  0  0  0
 30 25  2  0  0  0  0
 31 29  1  0  0  0  0
 31 32  1  0  0  0  0
M  END
>  <Pose>
1

>  <Score>
-7.363

$$$$
