/Users/jonathanwahrer/Desktop/Msc/3_Semester/Drug_Design_Praktikum/waehrer_HTS_screening/HTS_experiment/out/docking_results/vina_output/2qfa/0662_docked.pdbqt
 OpenBabel03162219563D

 25 29  0  0  0  0  0  0  0  0999 V2000
   44.0470   12.8580   45.3600 C   0  0  0  0  0  0  0  0  0  0  0  0
   43.8950   13.5980   46.4690 N   0  0  0  0  0  0  0  0  0  0  0  0
   44.7310   14.6370   46.4470 N   0  0  0  0  0  0  0  0  0  0  0  0
   45.4430   14.5620   45.2850 C   0  0  0  0  0  0  0  0  0  0  0  0
   45.0040   13.4640   44.6390 N   0  0  0  0  0  0  0  0  0  0  0  0
   46.3830   15.5370   45.0290 C   0  0  0  0  0  0  0  0  0  0  0  0
   46.6300   16.5830   45.9010 C   0  0  0  0  0  0  0  0  0  0  0  0
   47.5920   17.3680   45.3870 N   0  0  0  0  0  0  0  0  0  0  0  0
   47.9460   16.8410   44.2260 N   0  0  0  0  0  0  0  0  0  0  0  0
   47.2320   15.7240   43.9720 C   0  0  0  0  0  3  0  0  0  0  0  0
   45.9060   16.6150   47.0310 N   0  0  0  0  0  0  0  0  0  0  0  0
   44.9900   15.6630   47.2770 C   0  0  0  0  0  3  0  0  0  0  0  0
   48.0000   18.2330   45.8000 H   0  0  0  0  0  0  0  0  0  0  0  0
   43.3090   11.6410   45.0240 C   0  0  0  0  0  0  0  0  0  0  0  0
   43.4850   10.8280   43.9690 N   0  0  0  0  0  0  0  0  0  0  0  0
   42.6270    9.8220   43.9950 N   0  0  0  0  0  0  0  0  0  0  0  0
   41.8470    9.9410   45.0830 C   0  0  0  0  0  3  0  0  0  0  0  0
   42.2690   11.0910   45.7420 C   0  0  0  0  0  3  0  0  0  0  0  0
   42.5450    8.7530   42.9970 C   0  0  0  0  0  2  0  0  0  0  0  0
   43.4620    7.6740   43.3000 N   0  0  0  0  0  0  0  0  0  0  0  0
   44.7600    7.6160   42.9570 C   0  0  0  0  0  3  0  0  0  0  0  0
   45.2780    6.4280   43.4320 C   0  0  0  0  0  0  0  0  0  0  0  0
   47.0570    5.8150   43.2410 Br  0  0  0  0  0  0  0  0  0  0  0  0
   44.2450    5.7790   44.0700 C   0  0  0  0  0  3  0  0  0  0  0  0
   43.1570    6.5750   43.9660 N   0  0  0  0  0  0  0  0  0  0  0  0
  1  2  2  0  0  0  0
  3  2  1  0  0  0  0
  3 12  1  0  0  0  0
  4  3  1  0  0  0  0
  5  4  2  0  0  0  0
  5  1  1  0  0  0  0
  6  4  1  0  0  0  0
  6  7  2  0  0  0  0
  7 11  1  0  0  0  0
  8 13  1  0  0  0  0
  8  7  1  0  0  0  0
  9  8  1  0  0  0  0
 10  9  2  0  0  0  0
 10  6  1  0  0  0  0
 11 12  2  0  0  0  0
 14  1  1  0  0  0  0
 14 18  1  0  0  0  0
 15 16  1  0  0  0  0
 15 14  2  0  0  0  0
 16 17  1  0  0  0  0
 17 18  2  0  0  0  0
 19 20  1  0  0  0  0
 19 16  1  0  0  0  0
 20 25  1  0  0  0  0
 21 20  1  0  0  0  0
 21 22  2  0  0  0  0
 22 24  1  0  0  0  0
 23 22  1  0  0  0  0
 25 24  2  0  0  0  0
M  END
>  <Pose>
1

>  <Score>
-7.648

$$$$
