/Users/jonathanwahrer/Desktop/Msc/3_Semester/Drug_Design_Praktikum/waehrer_HTS_screening/HTS_experiment/out/docking_results/vina_output/2qfa/0663_docked.pdbqt
 OpenBabel03162219563D

 28 31  0  0  1  0  0  0  0  0999 V2000
   42.3500    8.9800   43.7030 C   0  0  0  0  0  0  0  0  0  0  0  0
   41.9460    9.4860   42.5810 O   0  0  0  0  0  0  0  0  0  0  0  0
   41.7520    9.4930   44.8420 N   0  0  0  0  0  0  0  0  0  0  0  0
   41.8990    9.1490   46.2300 C   0  0  0  0  0  2  0  0  0  0  0  0
   42.8210   10.1820   46.8490 C   0  0  0  0  0  2  0  0  0  0  0  0
   42.5480   11.5530   46.2650 C   0  0  1  0  0  0  0  0  0  0  0  0
   42.6630   12.5080   47.3450 N   0  0  0  0  0  0  0  0  0  0  0  0
   44.0330   12.8560   47.4750 C   0  0  0  0  0  0  0  0  0  0  0  0
   44.6200   13.3700   48.4820 O   0  0  0  0  0  0  0  0  0  0  0  0
   44.6620   12.5170   46.2290 N   0  0  0  0  0  0  0  0  0  0  0  0
   43.6430   11.9650   45.3680 C   0  0  0  0  0  0  0  0  0  0  0  0
   43.7400   11.8870   44.1250 O   0  0  0  0  0  0  0  0  0  0  0  0
   41.1870   11.6820   45.6600 C   0  0  0  0  0  2  0  0  0  0  0  0
   40.8130   10.6430   44.6580 C   0  0  0  0  0  2  0  0  0  0  0  0
   41.9080   12.8970   47.9430 H   0  0  0  0  0  0  0  0  0  0  0  0
   45.6610   12.6260   45.9460 H   0  0  0  0  0  0  0  0  0  0  0  0
   43.3640    7.9600   43.5640 C   0  0  0  0  0  0  0  0  0  0  0  0
   44.6040    8.2950   42.9810 C   0  0  0  0  0  3  0  0  0  0  0  0
   45.6280    7.3950   42.8500 C   0  0  0  0  0  3  0  0  0  0  0  0
   45.5130    6.0960   43.2830 C   0  0  0  0  0  0  0  0  0  0  0  0
   44.3200    5.7450   43.8530 C   0  0  0  0  0  3  0  0  0  0  0  0
   43.2630    6.6580   43.9940 C   0  0  0  0  0  3  0  0  0  0  0  0
   46.5920    5.1840   43.1340 N   0  0  0  0  0  0  0  0  0  0  0  0
   47.6510    4.9980   43.9420 C   0  0  0  0  0  3  0  0  0  0  0  0
   48.4570    4.0110   43.4190 C   0  0  0  0  0  0  0  0  0  0  0  0
   50.1030    3.3350   44.1540 Br  0  0  0  0  0  0  0  0  0  0  0  0
   47.8360    3.6090   42.2570 C   0  0  0  0  0  3  0  0  0  0  0  0
   46.7290    4.3400   42.1340 N   0  0  0  0  0  0  0  0  0  0  0  0
  1  3  1  0  0  0  0
  2  1  2  0  0  0  0
  3  4  1  0  0  0  0
  4  5  1  0  0  0  0
  6 13  1  6  0  0  0
  6  5  1  0  0  0  0
  6  7  1  0  0  0  0
  7  8  1  0  0  0  0
  7 15  1  0  0  0  0
  8  9  2  0  0  0  0
 10  8  1  0  0  0  0
 11 10  1  0  0  0  0
 11  6  1  0  0  0  0
 12 11  2  0  0  0  0
 14  3  1  0  0  0  0
 14 13  1  0  0  0  0
 16 10  1  0  0  0  0
 17  1  1  0  0  0  0
 17 22  1  0  0  0  0
 18 17  2  0  0  0  0
 19 18  1  0  0  0  0
 19 20  2  0  0  0  0
 20 21  1  0  0  0  0
 21 22  2  0  0  0  0
 23 20  1  0  0  0  0
 23 24  1  0  0  0  0
 25 24  2  0  0  0  0
 25 26  1  0  0  0  0
 27 25  1  0  0  0  0
 28 27  2  0  0  0  0
 28 23  1  0  0  0  0
M  END
>  <Pose>
1

>  <Score>
-7.898

$$$$
