/Users/jonathanwahrer/Desktop/Msc/3_Semester/Drug_Design_Praktikum/waehrer_HTS_screening/HTS_experiment/out/docking_results/vina_output/2qfa/0670_docked.pdbqt
 OpenBabel03162219573D

 23 27  0  0  1  0  0  0  0  0999 V2000
   47.2320    4.3230   42.9410 C   0  0  0  0  0  2  0  0  0  0  0  0
   46.4900    5.6000   43.1790 C   0  0  1  0  0  3  0  0  0  0  0  0
   45.7290    6.1530   41.9900 C   0  0  2  0  0  3  0  0  0  0  0  0
   44.7860    6.6320   42.9580 N   0  0  0  0  0  0  0  0  0  0  0  0
   45.0660    5.4330   43.6960 C   0  0  2  0  0  3  0  0  0  0  0  0
   43.9700    7.7600   43.1020 C   0  0  0  0  0  0  0  0  0  0  0  0
   44.3830    8.9250   43.6440 N   0  0  0  0  0  0  0  0  0  0  0  0
   43.6280   10.0060   43.7890 C   0  0  0  0  0  3  0  0  0  0  0  0
   42.3180    9.9800   43.3660 C   0  0  0  0  0  0  0  0  0  0  0  0
   41.2030   11.5220   43.5610 Br  0  0  0  0  0  0  0  0  0  0  0  0
   41.8590    8.8070   42.8060 C   0  0  0  0  0  3  0  0  0  0  0  0
   42.6700    7.7410   42.6830 N   0  0  0  0  0  0  0  0  0  0  0  0
   48.3860    4.3130   43.8010 N   0  0  0  0  0  0  0  0  0  0  0  0
   48.4430    5.1540   44.9120 N   0  0  0  0  0  0  0  0  0  0  0  0
   49.5600    5.1800   45.7900 C   0  0  0  0  0  0  0  0  0  0  0  0
   47.6060    5.7850   45.0800 H   0  0  0  0  0  0  0  0  0  0  0  0
   49.5640    5.9940   46.8280 C   0  0  0  0  0  0  0  0  0  0  0  0
   50.6990    4.3140   45.5510 C   0  0  0  0  0  3  0  0  0  0  0  0
   49.0230    7.0280   47.7330 C   0  0  0  0  0  2  0  0  0  0  0  0
   50.3370    6.4830   48.0360 C   0  0  0  0  0  2  0  0  0  0  0  0
   50.6660    3.5080   44.5020 C   0  0  0  0  0  3  0  0  0  0  0  0
   49.5090    3.4730   43.5840 C   0  0  0  0  0  0  0  0  0  0  0  0
   49.5030    2.6970   42.5920 O   0  0  0  0  0  0  0  0  0  0  0  0
  1 13  1  0  0  0  0
  2  1  1  6  0  0  0
  2  5  1  0  0  0  0
  3  4  1  1  0  0  0
  3  2  1  0  0  0  0
  3  5  1  0  0  0  0
  4  6  1  0  0  0  0
  5  4  1  1  0  0  0
  6  7  2  0  0  0  0
  7  8  1  0  0  0  0
  9 10  1  0  0  0  0
  9  8  2  0  0  0  0
 11  9  1  0  0  0  0
 12 11  2  0  0  0  0
 12  6  1  0  0  0  0
 13 14  1  0  0  0  0
 14 16  1  0  0  0  0
 14 15  1  0  0  0  0
 15 17  2  0  0  0  0
 17 19  1  0  0  0  0
 17 20  1  0  0  0  0
 18 15  1  0  0  0  0
 19 20  1  0  0  0  0
 21 18  2  0  0  0  0
 22 13  1  0  0  0  0
 22 21  1  0  0  0  0
 23 22  2  0  0  0  0
M  END
>  <Pose>
1

>  <Score>
-7.169

$$$$
