/Users/jonathanwahrer/Desktop/Msc/3_Semester/Drug_Design_Praktikum/waehrer_HTS_screening/HTS_experiment/out/docking_results/vina_output/2qfa/0677_docked.pdbqt
 OpenBabel03162219573D

 29 32  0  0  0  0  0  0  0  0999 V2000
   44.2920   13.5320   45.4500 C   0  0  0  0  0  0  0  0  0  0  0  0
   45.4230   14.3620   45.1220 C   0  0  0  0  0  0  0  0  0  0  0  0
   45.8530   15.2880   46.0010 C   0  0  0  0  0  0  0  0  0  0  0  0
   45.2170   15.4630   47.2430 C   0  0  0  0  0  0  0  0  0  0  0  0
   44.1360   14.6810   47.5710 C   0  0  0  0  0  0  0  0  0  0  0  0
   43.6760   13.7150   46.6620 C   0  0  0  0  0  0  0  0  0  0  0  0
   42.4520   12.9270   46.9600 C   0  0  0  0  0  2  0  0  0  0  0  0
   41.5800   13.5410   48.0500 C   0  0  0  0  0  2  0  0  0  0  0  0
   42.3640   13.9570   49.1900 N   0  0  0  0  0  0  0  0  0  0  0  0
   43.4700   14.8100   48.8640 C   0  0  0  0  0  0  0  0  0  0  0  0
   43.8100   15.6380   49.7340 O   0  0  0  0  0  0  0  0  0  0  0  0
   42.0570   13.5460   50.5440 C   0  0  0  0  0  1  0  0  0  0  0  0
   46.9530   15.9340   45.4150 O   0  0  0  0  0  0  0  0  0  0  0  0
   47.3650   15.2300   44.2630 C   0  0  0  0  0  2  0  0  0  0  0  0
   46.2410   14.4170   43.9900 O   0  0  0  0  0  0  0  0  0  0  0  0
   43.9980   12.5980   44.3850 C   0  0  0  0  0  2  0  0  0  0  0  0
   44.3500   11.2460   44.3660 N   0  0  0  0  0  0  0  0  0  0  0  0
   43.2300   10.2980   44.1960 C   0  0  0  0  0  0  0  0  0  0  0  0
   42.0800   10.7550   44.0820 O   0  0  0  0  0  0  0  0  0  0  0  0
   45.2540   10.7520   44.4100 H   0  0  0  0  0  0  0  0  0  0  0  0
   43.4660    8.8740   44.1640 C   0  0  0  0  0  0  0  0  0  0  0  0
   42.7040    8.0700   45.0030 C   0  0  0  0  0  3  0  0  0  0  0  0
   42.8660    6.7390   45.0370 N   0  0  0  0  0  0  0  0  0  0  0  0
   43.7760    6.1650   44.2520 C   0  0  0  0  0  3  0  0  0  0  0  0
   44.5490    6.9030   43.4120 C   0  0  0  0  0  0  0  0  0  0  0  0
   45.8480    6.0600   42.2950 Br  0  0  0  0  0  0  0  0  0  0  0  0
   44.4090    8.2890   43.3500 C   0  0  0  0  0  3  0  0  0  0  0  0
   45.7070   16.4080   48.0650 O   0  0  0  0  0  0  0  0  0  0  0  0
   45.5900   17.3620   48.0850 H   0  0  0  0  0  0  0  0  0  0  0  0
  1  6  1  0  0  0  0
  2  1  2  0  0  0  0
  2  3  1  0  0  0  0
  3  4  2  0  0  0  0
  4  5  1  0  0  0  0
  4 28  1  0  0  0  0
  5 10  1  0  0  0  0
  6  7  1  0  0  0  0
  6  5  2  0  0  0  0
  7  8  1  0  0  0  0
  8  9  1  0  0  0  0
  9 12  1  0  0  0  0
 10  9  1  0  0  0  0
 10 11  2  0  0  0  0
 13  3  1  0  0  0  0
 14 13  1  0  0  0  0
 15 14  1  0  0  0  0
 15  2  1  0  0  0  0
 16  1  1  0  0  0  0
 17 16  1  0  0  0  0
 17 20  1  0  0  0  0
 18 17  1  0  0  0  0
 19 18  2  0  0  0  0
 21 18  1  0  0  0  0
 21 22  1  0  0  0  0
 22 23  2  0  0  0  0
 24 23  1  0  0  0  0
 25 24  2  0  0  0  0
 26 25  1  0  0  0  0
 27 25  1  0  0  0  0
 27 21  2  0  0  0  0
 28 29  1  0  0  0  0
M  END
>  <Pose>
1

>  <Score>
-7.286

$$$$
