/Users/jonathanwahrer/Desktop/Msc/3_Semester/Drug_Design_Praktikum/waehrer_HTS_screening/HTS_experiment/out/docking_results/vina_output/2qfa/0683_docked.pdbqt
 OpenBabel03162219573D

 10 10  0  0  0  0  0  0  0  0999 V2000
   43.5460   10.6960   43.7230 Br  0  0  0  0  0  0  0  0  0  0  0  0
   43.5990    8.8250   43.9790 C   0  0  0  0  0  0  0  0  0  0  0  0
   42.7260    8.2280   44.8740 C   0  0  0  0  0  3  0  0  0  0  0  0
   42.8030    6.8970   45.0210 N   0  0  0  0  0  0  0  0  0  0  0  0
   43.6690    6.1180   44.3550 C   0  0  0  0  0  3  0  0  0  0  0  0
   44.5300    6.7170   43.4700 C   0  0  0  0  0  0  0  0  0  0  0  0
   44.5160    8.0860   43.2610 C   0  0  0  0  0  3  0  0  0  0  0  0
   45.4830    5.9070   42.7300 C   0  0  0  0  0  0  0  0  0  0  0  0
   46.0110    6.3450   41.6690 O   0  0  0  0  0  0  0  0  0  0  0  0
   45.8380    4.6400   43.1580 O   0  0  0  0  0  1  0  0  0  0  0  0
  1  2  1  0  0  0  0
  2  3  1  0  0  0  0
  3  4  2  0  0  0  0
  5  4  1  0  0  0  0
  6  5  2  0  0  0  0
  7  6  1  0  0  0  0
  7  2  2  0  0  0  0
  8 10  1  0  0  0  0
  8  6  1  0  0  0  0
  9  8  2  0  0  0  0
M  END
>  <Pose>
1

>  <Score>
-4.829

$$$$
