/Users/jonathanwahrer/Desktop/Msc/3_Semester/Drug_Design_Praktikum/waehrer_HTS_screening/HTS_experiment/out/docking_results/vina_output/2qfa/0684_docked.pdbqt
 OpenBabel03162219573D

 10 10  0  0  0  0  0  0  0  0999 V2000
   43.4680   10.7480   43.6770 Br  0  0  0  0  0  0  0  0  0  0  0  0
   43.5420    8.8680   43.9770 C   0  0  0  0  0  0  0  0  0  0  0  0
   42.7030    8.2350   44.8690 C   0  0  0  0  0  3  0  0  0  0  0  0
   42.7500    6.9090   45.0860 N   0  0  0  0  0  0  0  0  0  0  0  0
   43.6460    6.1760   44.4080 C   0  0  0  0  0  3  0  0  0  0  0  0
   44.5190    6.7330   43.5010 C   0  0  0  0  0  0  0  0  0  0  0  0
   44.4500    8.0860   43.2990 C   0  0  0  0  0  3  0  0  0  0  0  0
   45.4870    5.9230   42.7710 C   0  0  0  0  0  0  0  0  0  0  0  0
   46.0510    6.3960   41.7550 O   0  0  0  0  0  0  0  0  0  0  0  0
   45.7550    4.6430   43.2340 O   0  0  0  0  0  1  0  0  0  0  0  0
  1  2  1  0  0  0  0
  2  3  1  0  0  0  0
  3  4  2  0  0  0  0
  5  4  1  0  0  0  0
  6  5  2  0  0  0  0
  7  6  1  0  0  0  0
  7  2  2  0  0  0  0
  8 10  1  0  0  0  0
  8  6  1  0  0  0  0
  9  8  2  0  0  0  0
M  END
>  <Pose>
1

>  <Score>
-4.846

$$$$
