/Users/jonathanwahrer/Desktop/Msc/3_Semester/Drug_Design_Praktikum/waehrer_HTS_screening/HTS_experiment/out/docking_results/vina_output/2qfa/0695_docked.pdbqt
 OpenBabel03162219583D

 22 25  0  0  0  0  0  0  0  0999 V2000
   43.1260   10.6700   43.3270 C   0  0  0  0  0  2  0  0  0  0  0  0
   43.1650   11.8010   44.2890 C   0  0  0  0  0  0  0  0  0  0  0  0
   44.3290   12.3650   44.7570 C   0  0  0  0  0  3  0  0  0  0  0  0
   44.3370   13.4270   45.6640 C   0  0  0  0  0  0  0  0  0  0  0  0
   43.1570   13.9540   46.1280 C   0  0  0  0  0  0  0  0  0  0  0  0
   45.3590   14.1550   46.2740 O   0  0  0  0  0  0  0  0  0  0  0  0
   41.9840   13.3960   45.6650 C   0  0  0  0  0  0  0  0  0  0  0  0
   43.4740   14.9920   47.0120 O   0  0  0  0  0  0  0  0  0  0  0  0
   40.3340   14.1340   46.3150 Br  0  0  0  0  0  0  0  0  0  0  0  0
   41.9700   12.3460   44.7690 C   0  0  0  0  0  3  0  0  0  0  0  0
   44.8010   15.4180   46.6700 C   0  0  0  0  0  2  0  0  0  0  0  0
   44.3160    9.8690   43.4820 N   0  0  0  0  0  0  0  0  0  0  0  0
   45.2640   10.2780   43.4250 H   0  0  0  0  0  0  0  0  0  0  0  0
   44.1630    8.4570   43.7210 C   0  0  0  0  0  0  0  0  0  0  0  0
   43.0580    7.9690   44.3010 N   0  0  0  0  0  0  0  0  0  0  0  0
   42.9240    6.6490   44.5210 C   0  0  0  0  0  3  0  0  0  0  0  0
   43.9220    5.7510   44.1560 C   0  0  0  0  0  3  0  0  0  0  0  0
   45.0180    6.2430   43.5800 N   0  0  0  0  0  0  0  0  0  0  0  0
   45.1570    7.5760   43.3570 C   0  0  0  0  0  0  0  0  0  0  0  0
   46.1470    5.6790   43.1150 C   0  0  0  0  0  3  0  0  0  0  0  0
   46.3500    7.7690   42.7710 N   0  0  0  0  0  0  0  0  0  0  0  0
   46.9660    6.6090   42.6170 N   0  0  0  0  0  0  0  0  0  0  0  0
  1 12  1  0  0  0  0
  1  2  1  0  0  0  0
  2  3  2  0  0  0  0
  2 10  1  0  0  0  0
  3  4  1  0  0  0  0
  4  5  2  0  0  0  0
  4  6  1  0  0  0  0
  5  8  1  0  0  0  0
  6 11  1  0  0  0  0
  7  5  1  0  0  0  0
  7  9  1  0  0  0  0
 10  7  2  0  0  0  0
 11  8  1  0  0  0  0
 12 14  1  0  0  0  0
 13 12  1  0  0  0  0
 14 15  2  0  0  0  0
 15 16  1  0  0  0  0
 17 16  2  0  0  0  0
 18 17  1  0  0  0  0
 19 18  1  0  0  0  0
 19 14  1  0  0  0  0
 20 18  1  0  0  0  0
 21 19  2  0  0  0  0
 22 21  1  0  0  0  0
 22 20  2  0  0  0  0
M  END
>  <Pose>
1

>  <Score>
-6.867

$$$$
