/Users/jonathanwahrer/Desktop/Msc/3_Semester/Drug_Design_Praktikum/waehrer_HTS_screening/HTS_experiment/out/docking_results/vina_output/2qfa/0706_docked.pdbqt
 OpenBabel03162219593D

 30 33  0  0  0  0  0  0  0  0999 V2000
   41.1030    9.7460   49.5130 C   0  0  0  0  0  2  0  0  0  0  0  0
   42.5050    9.4950   49.5350 N   0  0  0  0  0  0  0  0  0  0  0  0
   43.0350    8.3260   49.9410 C   0  0  0  0  0  0  0  0  0  0  0  0
   42.0800    6.7670   50.5560 Br  0  0  0  0  0  0  0  0  0  0  0  0
   44.3700    8.4510   49.8370 N   0  0  0  0  0  0  0  0  0  0  0  0
   44.6850    9.6690   49.3770 C   0  0  0  0  0  0  0  0  0  0  0  0
   43.4910   10.3350   49.1840 C   0  0  0  0  0  0  0  0  0  0  0  0
   45.8380   10.3100   49.0960 N   0  0  0  0  0  0  0  0  0  0  0  0
   43.5750   11.6280   48.7120 C   0  0  0  0  0  0  0  0  0  0  0  0
   44.7300   12.2580   48.4350 N   0  0  0  0  0  0  0  0  0  0  0  0
   42.5080   12.2490   48.5330 O   0  0  0  0  0  0  0  0  0  0  0  0
   45.8740   11.5790   48.6340 C   0  0  0  0  0  0  0  0  0  0  0  0
   44.7950   13.6190   47.9390 C   0  0  0  0  0  1  0  0  0  0  0  0
   46.9800   12.1450   48.3810 O   0  0  0  0  0  0  0  0  0  0  0  0
   47.0860    9.6030   49.3010 C   0  0  0  0  0  1  0  0  0  0  0  0
   40.3260    9.1700   48.3860 C   0  0  0  0  0  2  0  0  0  0  0  0
   40.4860    9.7680   47.1030 N   0  0  0  0  0  0  0  0  0  0  0  0
   41.2060    9.2490   46.0770 C   0  0  0  0  0  0  0  0  0  0  0  0
   41.1420   10.1000   45.0020 C   0  0  0  0  0  0  0  0  0  0  0  0
   41.9540    8.0910   45.9090 C   0  0  0  0  0  0  0  0  0  0  0  0
   40.3740   11.1240   45.4090 N   0  0  0  0  0  0  0  0  0  0  0  0
   41.7660    9.8530   43.8190 N   0  0  0  0  0  0  0  0  0  0  0  0
   39.9780   10.9260   46.6740 C   0  0  0  0  0  0  0  0  0  0  0  0
   38.8700   12.0820   47.7480 Br  0  0  0  0  0  0  0  0  0  0  0  0
   42.4710    8.7110   43.7330 C   0  0  0  0  0  0  0  0  0  0  0  0
   41.6760   10.7790   42.6980 C   0  0  0  0  0  1  0  0  0  0  0  0
   43.0540    8.4700   42.6410 O   0  0  0  0  0  0  0  0  0  0  0  0
   42.5690    7.8410   44.7540 N   0  0  0  0  0  0  0  0  0  0  0  0
   43.3410    6.6250   44.6100 C   0  0  0  0  0  1  0  0  0  0  0  0
   42.0060    7.3180   46.9030 O   0  0  0  0  0  0  0  0  0  0  0  0
  1  2  1  0  0  0  0
  2  3  1  0  0  0  0
  3  4  1  0  0  0  0
  5  3  2  0  0  0  0
  6  5  1  0  0  0  0
  7  6  2  0  0  0  0
  7  2  1  0  0  0  0
  8 15  1  0  0  0  0
  8  6  1  0  0  0  0
  9  7  1  0  0  0  0
 10 12  1  0  0  0  0
 10  9  1  0  0  0  0
 11  9  2  0  0  0  0
 12  8  1  0  0  0  0
 13 10  1  0  0  0  0
 14 12  2  0  0  0  0
 16  1  1  0  0  0  0
 17 16  1  0  0  0  0
 18 17  1  0  0  0  0
 19 21  1  0  0  0  0
 19 18  2  0  0  0  0
 20 18  1  0  0  0  0
 20 30  2  0  0  0  0
 21 23  2  0  0  0  0
 22 19  1  0  0  0  0
 23 17  1  0  0  0  0
 23 24  1  0  0  0  0
 25 22  1  0  0  0  0
 25 28  1  0  0  0  0
 26 22  1  0  0  0  0
 27 25  2  0  0  0  0
 28 20  1  0  0  0  0
 29 28  1  0  0  0  0
M  END
>  <Pose>
1

>  <Score>
-5.627

$$$$
