/Users/jonathanwahrer/Desktop/Msc/3_Semester/Drug_Design_Praktikum/waehrer_HTS_screening/HTS_experiment/out/docking_results/vina_output/2qfa/0708_docked.pdbqt
 OpenBabel03162210163D

 31 34  0  0  0  0  0  0  0  0999 V2000
   41.8950   13.5980   46.6970 C   0  0  0  0  0  2  0  0  0  0  0  0
   40.9040   12.4720   46.6350 C   0  0  0  0  0  2  0  0  0  0  0  0
   41.1350   11.5460   45.5460 N   0  0  0  0  0  0  0  0  0  0  0  0
   40.7440   11.7490   44.2510 C   0  0  0  0  0  0  0  0  0  0  0  0
   39.8390   13.3240   43.6810 Br  0  0  0  0  0  0  0  0  0  0  0  0
   41.0910   10.7000   43.4910 N   0  0  0  0  0  0  0  0  0  0  0  0
   41.7150    9.7870   44.2660 C   0  0  0  0  0  0  0  0  0  0  0  0
   41.7290   10.3360   45.5380 C   0  0  0  0  0  0  0  0  0  0  0  0
   42.2310    8.5850   43.9550 N   0  0  0  0  0  0  0  0  0  0  0  0
   42.3010    9.6040   46.5330 C   0  0  0  0  0  0  0  0  0  0  0  0
   42.8230    8.3860   46.2150 N   0  0  0  0  0  0  0  0  0  0  0  0
   42.3390   10.0480   47.6990 O   0  0  0  0  0  0  0  0  0  0  0  0
   42.7890    7.8920   44.9640 C   0  0  0  0  0  0  0  0  0  0  0  0
   43.2510    7.8620   47.0080 H   0  0  0  0  0  0  0  0  0  0  0  0
   43.2940    6.7440   44.7200 O   0  0  0  0  0  0  0  0  0  0  0  0
   42.2130    8.0200   42.6230 C   0  0  0  0  0  1  0  0  0  0  0  0
   43.2220   13.2310   47.2980 C   0  0  0  0  0  2  0  0  0  0  0  0
   44.1030   14.3910   47.3050 N   0  0  0  0  0  0  0  0  0  0  0  0
   45.0000   14.7690   46.3660 C   0  0  0  0  0  0  0  0  0  0  0  0
   45.6340   15.9270   46.7510 C   0  0  0  0  0  0  0  0  0  0  0  0
   45.3560   14.2150   45.1640 C   0  0  0  0  0  0  0  0  0  0  0  0
   45.1050   16.2480   47.9470 N   0  0  0  0  0  0  0  0  0  0  0  0
   46.5800   16.5410   46.0160 N   0  0  0  0  0  0  0  0  0  0  0  0
   44.1840   15.3170   48.2730 C   0  0  0  0  0  0  0  0  0  0  0  0
   43.1190   15.2690   49.8580 Br  0  0  0  0  0  0  0  0  0  0  0  0
   46.9010   15.9570   44.8350 C   0  0  0  0  0  0  0  0  0  0  0  0
   47.2270   17.7710   46.4660 C   0  0  0  0  0  1  0  0  0  0  0  0
   47.7910   16.5330   44.1380 O   0  0  0  0  0  0  0  0  0  0  0  0
   46.3030   14.8210   44.4190 N   0  0  0  0  0  0  0  0  0  0  0  0
   46.5890   14.4190   43.5040 H   0  0  0  0  0  0  0  0  0  0  0  0
   44.7820   13.1580   44.8070 O   0  0  0  0  0  0  0  0  0  0  0  0
  1 17  1  0  0  0  0
  2  1  1  0  0  0  0
  3  2  1  0  0  0  0
  4  3  1  0  0  0  0
  5  4  1  0  0  0  0
  6  4  2  0  0  0  0
  6  7  1  0  0  0  0
  7  8  2  0  0  0  0
  8  3  1  0  0  0  0
  8 10  1  0  0  0  0
  9  7  1  0  0  0  0
  9 13  1  0  0  0  0
 10 12  2  0  0  0  0
 11 10  1  0  0  0  0
 11 14  1  0  0  0  0
 13 11  1  0  0  0  0
 15 13  2  0  0  0  0
 16  9  1  0  0  0  0
 17 18  1  0  0  0  0
 18 24  1  0  0  0  0
 19 20  2  0  0  0  0
 19 18  1  0  0  0  0
 20 22  1  0  0  0  0
 21 19  1  0  0  0  0
 22 24  2  0  0  0  0
 23 27  1  0  0  0  0
 23 20  1  0  0  0  0
 24 25  1  0  0  0  0
 26 23  1  0  0  0  0
 28 26  2  0  0  0  0
 29 26  1  0  0  0  0
 29 21  1  0  0  0  0
 30 29  1  0  0  0  0
 31 21  2  0  0  0  0
M  END
>  <Pose>
1

>  <Score>
-6.558

$$$$
