/Users/jonathanwahrer/Desktop/Msc/3_Semester/Drug_Design_Praktikum/waehrer_HTS_screening/HTS_experiment/out/docking_results/vina_output/2qfa/0709_docked.pdbqt
 OpenBabel03162219593D

 30 33  0  0  0  0  0  0  0  0999 V2000
   41.4520   11.4710   46.2760 C   0  0  0  0  0  2  0  0  0  0  0  0
   41.8070   10.1250   45.9790 N   0  0  0  0  0  0  0  0  0  0  0  0
   41.2780    9.0290   46.5730 C   0  0  0  0  0  0  0  0  0  0  0  0
   39.9270    9.1260   47.9190 Br  0  0  0  0  0  0  0  0  0  0  0  0
   41.8520    7.9280   46.0630 N   0  0  0  0  0  0  0  0  0  0  0  0
   42.7660    8.2760   45.1290 C   0  0  0  0  0  0  0  0  0  0  0  0
   42.7210    9.6670   45.0920 C   0  0  0  0  0  0  0  0  0  0  0  0
   43.6070    7.5870   44.3370 N   0  0  0  0  0  0  0  0  0  0  0  0
   43.5820   10.2730   44.2090 C   0  0  0  0  0  0  0  0  0  0  0  0
   44.4300    9.5730   43.4120 N   0  0  0  0  0  0  0  0  0  0  0  0
   43.5560   11.5380   44.1680 O   0  0  0  0  0  0  0  0  0  0  0  0
   44.4290    8.2300   43.4890 C   0  0  0  0  0  0  0  0  0  0  0  0
   45.0590   10.0910   42.7620 H   0  0  0  0  0  0  0  0  0  0  0  0
   45.2270    7.5860   42.7360 O   0  0  0  0  0  0  0  0  0  0  0  0
   43.6590    6.1430   44.3690 C   0  0  0  0  0  1  0  0  0  0  0  0
   40.5390   12.1560   45.3220 C   0  0  0  0  0  2  0  0  0  0  0  0
   39.4920   12.9580   45.8490 N   0  0  0  0  0  0  0  0  0  0  0  0
   38.2050   12.6180   46.0270 C   0  0  0  0  0  0  0  0  0  0  0  0
   37.5240   13.6950   46.5550 C   0  0  0  0  0  0  0  0  0  0  0  0
   37.4620   11.4690   45.8070 C   0  0  0  0  0  0  0  0  0  0  0  0
   38.4540   14.6630   46.6800 N   0  0  0  0  0  0  0  0  0  0  0  0
   36.2230   13.5990   46.8270 N   0  0  0  0  0  0  0  0  0  0  0  0
   39.6460   14.2500   46.2640 C   0  0  0  0  0  0  0  0  0  0  0  0
   41.2920   15.2510   46.2370 Br  0  0  0  0  0  0  0  0  0  0  0  0
   35.5620   12.4630   46.5910 C   0  0  0  0  0  0  0  0  0  0  0  0
   35.4970   14.7190   47.3800 C   0  0  0  0  0  1  0  0  0  0  0  0
   34.3170   12.3420   46.8390 O   0  0  0  0  0  0  0  0  0  0  0  0
   36.1540   11.3700   46.0780 N   0  0  0  0  0  0  0  0  0  0  0  0
   35.6040   10.4900   45.9050 H   0  0  0  0  0  0  0  0  0  0  0  0
   38.0210   10.4560   45.3320 O   0  0  0  0  0  0  0  0  0  0  0  0
  2  1  1  0  0  0  0
  2  3  1  0  0  0  0
  3  4  1  0  0  0  0
  5  3  2  0  0  0  0
  6  5  1  0  0  0  0
  7  6  2  0  0  0  0
  7  2  1  0  0  0  0
  8 15  1  0  0  0  0
  8  6  1  0  0  0  0
  9  7  1  0  0  0  0
 10 12  1  0  0  0  0
 10  9  1  0  0  0  0
 11  9  2  0  0  0  0
 12  8  1  0  0  0  0
 13 10  1  0  0  0  0
 14 12  2  0  0  0  0
 16 17  1  0  0  0  0
 16  1  1  0  0  0  0
 17 18  1  0  0  0  0
 17 23  1  0  0  0  0
 18 19  2  0  0  0  0
 19 21  1  0  0  0  0
 19 22  1  0  0  0  0
 20 18  1  0  0  0  0
 20 28  1  0  0  0  0
 22 26  1  0  0  0  0
 23 21  2  0  0  0  0
 24 23  1  0  0  0  0
 25 22  1  0  0  0  0
 25 27  2  0  0  0  0
 28 25  1  0  0  0  0
 29 28  1  0  0  0  0
 30 20  2  0  0  0  0
M  END
>  <Pose>
1

>  <Score>
-6.440

$$$$
