/Users/jonathanwahrer/Desktop/Msc/3_Semester/Drug_Design_Praktikum/waehrer_HTS_screening/HTS_experiment/out/docking_results/vina_output/2qfa/0716_docked.pdbqt
 OpenBabel03162220003D

 31 35  0  0  1  0  0  0  0  0999 V2000
   42.9510    8.7310   43.7330 C   0  0  1  0  0  0  0  0  0  0  0  0
   42.1370    8.7720   45.0070 C   0  0  0  0  0  2  0  0  0  0  0  0
   41.5480   10.1420   45.1780 C   0  0  2  0  0  0  0  0  0  0  0  0
   40.5430   10.3210   44.0310 C   0  0  0  0  0  2  0  0  0  0  0  0
   41.2770   10.1790   42.7210 C   0  0  2  0  0  3  0  0  0  0  0  0
   41.9770    8.8520   42.5810 C   0  0  0  0  0  2  0  0  0  0  0  0
   42.2620   11.2980   42.6020 C   0  0  0  0  0  2  0  0  0  0  0  0
   43.2560   11.1870   43.7360 C   0  0  2  0  0  3  0  0  0  0  0  0
   43.9300    9.8590   43.6360 C   0  0  0  0  0  2  0  0  0  0  0  0
   42.5340   11.2560   45.0640 C   0  0  0  0  0  2  0  0  0  0  0  0
   40.8270   10.2650   46.4630 C   0  0  0  0  0  0  0  0  0  0  0  0
   41.2400   11.1140   47.2930 O   0  0  0  0  0  0  0  0  0  0  0  0
   39.6970    9.4460   46.7510 N   0  0  0  0  0  0  0  0  0  0  0  0
   39.4190    8.7700   46.0160 H   0  0  0  0  0  0  0  0  0  0  0  0
   38.9450    9.4930   47.9540 C   0  0  0  0  0  0  0  0  0  0  0  0
   37.8770   10.3180   48.1670 C   0  0  0  0  0  0  0  0  0  0  0  0
   37.4280   10.0750   49.4210 N   0  0  0  0  0  0  0  0  0  0  0  0
   38.1790    9.1420   49.9670 N   0  0  0  0  0  0  0  0  0  0  0  0
   36.3100   10.7050   50.1020 C   0  0  0  0  0  1  0  0  0  0  0  0
   39.1250    8.7540   49.1060 C   0  0  0  0  0  3  0  0  0  0  0  0
   37.2480   11.3030   47.3100 C   0  0  0  0  0  0  0  0  0  0  0  0
   36.2540   11.0080   46.6000 O   0  0  0  0  0  0  0  0  0  0  0  0
   37.6920   12.6490   47.2070 N   0  0  0  0  0  0  0  0  0  0  0  0
   37.1530   13.3890   47.7430 H   0  0  0  0  0  0  0  0  0  0  0  0
   38.5050   12.9670   46.6450 H   0  0  0  0  0  0  0  0  0  0  0  0
   43.6920    7.4720   43.6750 N   0  0  0  0  0  0  0  0  0  0  0  0
   44.7840    7.2100   42.9670 N   0  0  0  0  0  0  0  0  0  0  0  0
   45.1870    5.9420   43.1660 C   0  0  0  0  0  0  0  0  0  0  0  0
   46.7000    5.0570   42.3880 Br  0  0  0  0  0  0  0  0  0  0  0  0
   44.3120    5.3860   44.0350 N   0  0  0  0  0  0  0  0  0  0  0  0
   43.4100    6.3330   44.3340 C   0  0  0  0  0  3  0  0  0  0  0  0
  1  6  1  6  0  0  0
  1  2  1  0  0  0  0
  2  3  1  0  0  0  0
  3 11  1  1  0  0  0
  4  3  1  0  0  0  0
  5  6  1  1  0  0  0
  5  4  1  0  0  0  0
  7  5  1  0  0  0  0
  8  7  1  6  0  0  0
  8 10  1  0  0  0  0
  9  1  1  0  0  0  0
  9  8  1  0  0  0  0
 10  3  1  0  0  0  0
 11 13  1  0  0  0  0
 11 12  2  0  0  0  0
 13 15  1  0  0  0  0
 14 13  1  0  0  0  0
 15 16  2  0  0  0  0
 15 20  1  0  0  0  0
 16 17  1  0  0  0  0
 17 18  1  0  0  0  0
 17 19  1  0  0  0  0
 20 18  2  0  0  0  0
 21 16  1  0  0  0  0
 22 21  2  0  0  0  0
 23 21  1  0  0  0  0
 23 24  1  0  0  0  0
 25 23  1  0  0  0  0
 26  1  1  0  0  0  0
 26 31  1  0  0  0  0
 27 28  2  0  0  0  0
 27 26  1  0  0  0  0
 28 30  1  0  0  0  0
 29 28  1  0  0  0  0
 30 31  2  0  0  0  0
M  END
>  <Pose>
1

>  <Score>
-7.368

$$$$
