/Users/jonathanwahrer/Desktop/Msc/3_Semester/Drug_Design_Praktikum/waehrer_HTS_screening/HTS_experiment/out/docking_results/vina_output/2qfa/0723_docked.pdbqt
 OpenBabel03162220003D

 23 26  0  0  1  0  0  0  0  0999 V2000
   40.6610   11.3870   45.5790 N   0  0  0  0  0  0  0  0  0  0  0  0
   41.1590   12.6780   45.2230 C   0  0  1  0  0  3  0  0  0  0  0  0
   40.2870   13.7880   45.6670 C   0  0  0  0  0  2  0  0  0  0  0  0
   39.0540   13.4590   46.1620 O   0  0  0  0  0  0  0  0  0  0  0  0
   38.4720   12.3830   45.5000 C   0  0  0  0  0  2  0  0  0  0  0  0
   39.2580   11.1220   45.6640 C   0  0  0  0  0  2  0  0  0  0  0  0
   41.5370   10.2820   45.8510 C   0  0  0  0  0  0  0  0  0  0  0  0
   41.7590    9.9230   47.1530 N   0  0  0  0  0  0  0  0  0  0  0  0
   42.5270    8.8630   47.4620 C   0  0  0  0  0  3  0  0  0  0  0  0
   43.0990    8.1240   46.4950 N   0  0  0  0  0  0  0  0  0  0  0  0
   42.9280    8.4150   45.2010 C   0  0  0  0  0  0  0  0  0  0  0  0
   43.4060    7.8380   44.0840 N   0  0  0  0  0  0  0  0  0  0  0  0
   42.1280    9.5200   44.8820 C   0  0  0  0  0  0  0  0  0  0  0  0
   42.9370    8.5410   43.0790 N   0  0  0  0  0  0  0  0  0  0  0  0
   44.2670    6.6740   43.9860 C   0  0  0  0  0  1  0  0  0  0  0  0
   42.1640    9.5640   43.5090 C   0  0  0  0  0  0  0  0  0  0  0  0
   41.2950   10.8790   42.4440 Br  0  0  0  0  0  0  0  0  0  0  0  0
   42.5770   12.8450   45.6140 C   0  0  0  0  0  0  0  0  0  0  0  0
   43.0230   13.1590   46.8310 N   0  0  0  0  0  0  0  0  0  0  0  0
   44.3830   13.2090   46.7410 C   0  0  0  0  0  0  0  0  0  0  0  0
   44.6920   12.9200   45.4640 N   0  0  0  0  0  0  0  0  0  0  0  0
   45.3430   13.5180   47.8260 C   0  0  0  0  0  1  0  0  0  0  0  0
   43.5890   12.7060   44.8080 O   0  0  0  0  0  0  0  0  0  0  0  0
  1  6  1  0  0  0  0
  1  7  1  0  0  0  0
  2  1  1  0  0  0  0
  2 18  1  1  0  0  0
  2  3  1  0  0  0  0
  3  4  1  0  0  0  0
  5  6  1  0  0  0  0
  5  4  1  0  0  0  0
  7  8  1  0  0  0  0
  8  9  2  0  0  0  0
 10  9  1  0  0  0  0
 11 10  2  0  0  0  0
 12 11  1  0  0  0  0
 13 11  1  0  0  0  0
 13  7  2  0  0  0  0
 14 16  2  0  0  0  0
 14 12  1  0  0  0  0
 15 12  1  0  0  0  0
 16 13  1  0  0  0  0
 17 16  1  0  0  0  0
 18 19  2  0  0  0  0
 20 19  1  0  0  0  0
 20 22  1  0  0  0  0
 21 20  2  0  0  0  0
 23 21  1  0  0  0  0
 23 18  1  0  0  0  0
M  END
>  <Pose>
1

>  <Score>
-5.727

$$$$
