/Users/jonathanwahrer/Desktop/Msc/3_Semester/Drug_Design_Praktikum/waehrer_HTS_screening/HTS_experiment/out/docking_results/vina_output/2qfa/0727_docked.pdbqt
 OpenBabel03162220003D

 21 24  0  0  0  0  0  0  0  0999 V2000
   38.9170   12.7980   45.2030 Br  0  0  0  0  0  0  0  0  0  0  0  0
   40.3370   13.9330   45.7650 C   0  0  0  0  0  0  0  0  0  0  0  0
   40.2010   15.1830   46.2960 N   0  0  0  0  0  0  0  0  0  0  0  0
   41.3930   15.6500   46.5840 N   0  0  0  0  0  0  0  0  0  0  0  0
   42.3300   14.7440   46.2590 C   0  0  0  0  0  0  0  0  0  0  0  0
   43.6690   14.7150   46.3560 N   0  0  0  0  0  0  0  0  0  0  0  0
   44.3800   13.6620   45.9620 C   0  0  0  0  0  3  0  0  0  0  0  0
   43.7610   12.6000   45.4560 N   0  0  0  0  0  0  0  0  0  0  0  0
   42.3960   12.5240   45.3120 C   0  0  0  0  0  0  0  0  0  0  0  0
   41.6790   13.6190   45.7250 C   0  0  0  0  0  0  0  0  0  0  0  0
   41.7390   16.9520   47.1720 C   0  0  0  0  0  1  0  0  0  0  0  0
   41.7950   11.4030   44.7380 N   0  0  0  0  0  0  0  0  0  0  0  0
   41.7390   11.2340   43.3030 C   0  0  0  0  0  2  0  0  0  0  0  0
   42.7330   10.1110   42.9370 C   0  0  0  0  0  2  0  0  0  0  0  0
   42.6940    9.0660   43.9830 C   0  0  0  0  0  0  0  0  0  0  0  0
   43.3190    7.8670   43.9560 N   0  0  0  0  0  0  0  0  0  0  0  0
   42.0200    9.1190   45.1660 C   0  0  0  0  0  0  0  0  0  0  0  0
   43.0230    7.2240   45.0980 C   0  0  0  0  0  3  0  0  0  0  0  0
   44.1620    7.3230   42.9220 C   0  0  0  0  0  1  0  0  0  0  0  0
   42.2260    7.9750   45.8550 N   0  0  0  0  0  0  0  0  0  0  0  0
   41.2240   10.3240   45.5020 C   0  0  0  0  0  2  0  0  0  0  0  0
  1  2  1  0  0  0  0
  2  3  2  0  0  0  0
  3  4  1  0  0  0  0
  4 11  1  0  0  0  0
  5  6  1  0  0  0  0
  5  4  1  0  0  0  0
  7  6  2  0  0  0  0
  8  7  1  0  0  0  0
  9  8  2  0  0  0  0
  9 10  1  0  0  0  0
 10  2  1  0  0  0  0
 10  5  2  0  0  0  0
 12  9  1  0  0  0  0
 12 21  1  0  0  0  0
 13 12  1  0  0  0  0
 14 13  1  0  0  0  0
 14 15  1  0  0  0  0
 15 17  2  0  0  0  0
 16 15  1  0  0  0  0
 16 18  1  0  0  0  0
 17 21  1  0  0  0  0
 17 20  1  0  0  0  0
 18 20  2  0  0  0  0
 19 16  1  0  0  0  0
M  END
>  <Pose>
1

>  <Score>
-5.701

$$$$
