/Users/jonathanwahrer/Desktop/Msc/3_Semester/Drug_Design_Praktikum/waehrer_HTS_screening/HTS_experiment/out/docking_results/vina_output/2qfa/0729_docked.pdbqt
 OpenBabel03162220003D

 27 30  0  0  1  0  0  0  0  0999 V2000
   42.0610   11.2990   44.6630 N   0  0  0  0  0  0  0  0  0  0  0  0
   41.2080   10.3420   45.3090 C   0  0  0  0  0  2  0  0  0  0  0  0
   41.9680    9.0150   45.2310 C   0  0  0  0  0  2  0  0  0  0  0  0
   42.9840    9.0570   44.1730 N   0  0  0  0  0  0  0  0  0  0  0  0
   42.4200    9.6910   42.9790 C   0  0  0  0  0  2  0  0  0  0  0  0
   42.1930   11.1690   43.2320 C   0  0  0  0  0  2  0  0  0  0  0  0
   42.7490   12.2790   45.3870 C   0  0  0  0  0  0  0  0  0  0  0  0
   44.0150   12.0750   45.8200 N   0  0  0  0  0  0  0  0  0  0  0  0
   44.6820   12.9720   46.5370 C   0  0  0  0  0  3  0  0  0  0  0  0
   44.0890   14.1260   46.8520 N   0  0  0  0  0  0  0  0  0  0  0  0
   42.8340   14.4210   46.4680 C   0  0  0  0  0  0  0  0  0  0  0  0
   42.0440   15.4960   46.6500 N   0  0  0  0  0  0  0  0  0  0  0  0
   42.1340   13.4820   45.7160 C   0  0  0  0  0  0  0  0  0  0  0  0
   40.9110   15.2540   46.0470 N   0  0  0  0  0  0  0  0  0  0  0  0
   42.4680   16.6710   47.3980 C   0  0  0  0  0  1  0  0  0  0  0  0
   40.9050   14.0450   45.4600 C   0  0  0  0  0  0  0  0  0  0  0  0
   39.5240   13.2320   44.4470 Br  0  0  0  0  0  0  0  0  0  0  0  0
   43.2970    7.6740   43.8500 C   0  0  2  0  0  3  0  0  0  0  0  0
   42.3970    6.7880   44.7560 C   0  0  0  0  0  1  0  0  0  0  0  0
   44.7060    7.3620   44.1470 C   0  0  0  0  0  0  0  0  0  0  0  0
   45.0440    7.6170   45.3770 O   0  0  0  0  0  0  0  0  0  0  0  0
   45.6920    6.8480   43.2890 N   0  0  0  0  0  0  0  0  0  0  0  0
   45.5860    6.5230   41.8990 C   0  0  0  0  0  2  0  0  0  0  0  0
   47.0310    6.6140   43.8770 C   0  0  0  0  0  2  0  0  0  0  0  0
   46.2010    5.1910   41.5210 C   0  0  0  0  0  2  0  0  0  0  0  0
   47.4270    4.8360   42.2900 C   0  0  0  0  0  2  0  0  0  0  0  0
   47.2860    5.1330   43.7680 C   0  0  0  0  0  2  0  0  0  0  0  0
  1  2  1  0  0  0  0
  1  7  1  0  0  0  0
  3  2  1  0  0  0  0
  4  3  1  0  0  0  0
  5  6  1  0  0  0  0
  5  4  1  0  0  0  0
  6  1  1  0  0  0  0
  7 13  2  0  0  0  0
  7  8  1  0  0  0  0
  8  9  2  0  0  0  0
  9 10  1  0  0  0  0
 11 12  1  0  0  0  0
 11 10  2  0  0  0  0
 12 15  1  0  0  0  0
 13 11  1  0  0  0  0
 14 12  1  0  0  0  0
 16 13  1  0  0  0  0
 16 14  2  0  0  0  0
 17 16  1  0  0  0  0
 18 20  1  0  0  0  0
 18  4  1  0  0  0  0
 18 19  1  1  0  0  0
 20 21  2  0  0  0  0
 22 24  1  0  0  0  0
 22 20  1  0  0  0  0
 23 22  1  0  0  0  0
 25 23  1  0  0  0  0
 25 26  1  0  0  0  0
 26 27  1  0  0  0  0
 27 24  1  0  0  0  0
M  END
>  <Pose>
1

>  <Score>
-7.159

$$$$
