/Users/jonathanwahrer/Desktop/Msc/3_Semester/Drug_Design_Praktikum/waehrer_HTS_screening/HTS_experiment/out/docking_results/vina_output/2qfa/0737_docked.pdbqt
 OpenBabel03162220003D

 21 24  0  0  1  0  0  0  0  0999 V2000
   48.0840    5.1160   43.9860 C   0  0  1  0  0  3  0  0  0  0  0  0
   48.8150    5.4790   45.0150 C   0  0  0  0  0  3  0  0  0  0  0  0
   50.0240    4.7370   45.4050 C   0  0  0  0  0  0  0  0  0  0  0  0
   50.7690    5.0910   46.4380 C   0  0  0  0  0  1  0  0  0  0  0  0
   50.3350    3.6140   44.5950 N   0  0  0  0  0  0  0  0  0  0  0  0
   49.5240    3.2330   43.4750 C   0  0  0  0  0  0  0  0  0  0  0  0
   48.4280    3.9900   43.2030 N   0  0  0  0  0  0  0  0  0  0  0  0
   47.8590    3.4280   42.1300 N   0  0  0  0  0  0  0  0  0  0  0  0
   48.5530    2.3550   41.7220 C   0  0  0  0  0  3  0  0  0  0  0  0
   49.5900    2.2430   42.5680 N   0  0  0  0  0  0  0  0  0  0  0  0
   51.1800    3.0470   44.8200 H   0  0  0  0  0  0  0  0  0  0  0  0
   46.9360    5.8620   43.6570 N   0  0  2  0  0  0  0  0  0  0  0  0
   45.6580    5.1960   43.7120 C   0  0  0  0  0  2  0  0  0  0  0  0
   44.5650    6.1880   43.9370 C   0  0  0  0  0  0  0  0  0  0  0  0
   44.6760    7.4360   43.4860 N   0  0  0  0  0  0  0  0  0  0  0  0
   43.3610    6.0940   44.5600 N   0  0  0  0  0  0  0  0  0  0  0  0
   43.5770    8.1270   43.8080 C   0  0  0  0  0  0  0  0  0  0  0  0
   45.8510    7.8810   42.7650 C   0  0  0  0  0  2  0  0  0  0  0  0
   43.1740    9.9620   43.4250 Br  0  0  0  0  0  0  0  0  0  0  0  0
   42.7310    7.2810   44.4950 C   0  0  0  0  0  3  0  0  0  0  0  0
   47.1080    7.2470   43.2830 C   0  0  0  0  0  2  0  0  0  0  0  0
  1  2  1  1  0  0  0
  2  3  2  0  0  0  0
  3  4  1  0  0  0  0
  5 11  1  0  0  0  0
  5  3  1  0  0  0  0
  6  5  1  0  0  0  0
  7  6  1  0  0  0  0
  7  1  1  0  0  0  0
  8  7  1  0  0  0  0
  9  8  2  0  0  0  0
  9 10  1  0  0  0  0
 10  6  2  0  0  0  0
 12 21  1  6  0  0  0
 12 13  1  0  0  0  0
 12  1  1  0  0  0  0
 13 14  1  0  0  0  0
 14 16  2  0  0  0  0
 15 17  1  0  0  0  0
 15 14  1  0  0  0  0
 17 20  2  0  0  0  0
 18 21  1  0  0  0  0
 18 15  1  0  0  0  0
 19 17  1  0  0  0  0
 20 16  1  0  0  0  0
M  END
>  <Pose>
1

>  <Score>
-6.521

$$$$
