/Users/jonathanwahrer/Desktop/Msc/3_Semester/Drug_Design_Praktikum/waehrer_HTS_screening/HTS_experiment/out/docking_results/vina_output/2qfa/0754_docked.pdbqt
 OpenBabel03162220013D

 27 30  0  0  0  0  0  0  0  0999 V2000
   42.6390    8.9870   43.9970 C   0  0  0  0  0  0  0  0  0  0  0  0
   42.2640    9.5330   42.9500 O   0  0  0  0  0  0  0  0  0  0  0  0
   42.1730    9.4650   45.2460 N   0  0  0  0  0  0  0  0  0  0  0  0
   41.2580   10.5870   45.2930 C   0  0  0  0  0  2  0  0  0  0  0  0
   41.8280   11.7560   46.0580 C   0  0  0  0  0  2  0  0  0  0  0  0
   42.7390   11.1880   47.0660 N   0  0  0  0  0  0  0  0  0  0  0  0
   42.3450    9.9470   47.6380 C   0  0  0  0  0  2  0  0  0  0  0  0
   42.5520    8.9000   46.5280 C   0  0  0  0  0  2  0  0  0  0  0  0
   43.9070   11.9320   47.3610 C   0  0  0  0  0  0  0  0  0  0  0  0
   44.1580   13.1310   46.7660 N   0  0  0  0  0  0  0  0  0  0  0  0
   45.2630   13.8450   47.0350 C   0  0  0  0  0  0  0  0  0  0  0  0
   46.1700   13.3810   47.9210 N   0  0  0  0  0  0  0  0  0  0  0  0
   46.0070   12.2080   48.5580 C   0  0  0  0  0  0  0  0  0  0  0  0
   44.8420   11.4880   48.2520 C   0  0  0  0  0  3  0  0  0  0  0  0
   46.9930   11.6780   49.5370 C   0  0  0  0  0  1  0  0  0  0  0  0
   45.4770   15.0880   46.3900 N   0  0  0  0  0  0  0  0  0  0  0  0
   45.0090   16.3460   46.9190 C   0  0  0  0  0  2  0  0  0  0  0  0
   46.1420   17.3260   46.9930 C   0  0  0  0  0  2  0  0  0  0  0  0
   47.2880   16.8870   46.3320 O   0  0  0  0  0  0  0  0  0  0  0  0
   46.9730   16.4120   45.0620 C   0  0  0  0  0  2  0  0  0  0  0  0
   46.2000   15.1180   45.1360 C   0  0  0  0  0  2  0  0  0  0  0  0
   43.5680    7.8460   43.9070 C   0  0  0  0  0  0  0  0  0  0  0  0
   44.8440    7.8630   43.6660 O   0  0  0  0  0  0  0  0  0  0  0  0
   45.3490    6.6820   43.6580 C   0  0  0  0  0  0  0  0  0  0  0  0
   47.1880    6.1720   43.3490 Br  0  0  0  0  0  0  0  0  0  0  0  0
   44.3430    5.7820   43.9130 C   0  0  0  0  0  3  0  0  0  0  0  0
   43.2040    6.5290   44.0720 C   0  0  0  0  0  3  0  0  0  0  0  0
  1  3  1  0  0  0  0
  2  1  2  0  0  0  0
  3  4  1  0  0  0  0
  3  8  1  0  0  0  0
  4  5  1  0  0  0  0
  5  6  1  0  0  0  0
  6  9  1  0  0  0  0
  6  7  1  0  0  0  0
  8  7  1  0  0  0  0
  9 14  2  0  0  0  0
 10 11  2  0  0  0  0
 10  9  1  0  0  0  0
 11 12  1  0  0  0  0
 12 13  2  0  0  0  0
 13 15  1  0  0  0  0
 14 13  1  0  0  0  0
 16 17  1  0  0  0  0
 16 11  1  0  0  0  0
 17 18  1  0  0  0  0
 19 18  1  0  0  0  0
 20 21  1  0  0  0  0
 20 19  1  0  0  0  0
 21 16  1  0  0  0  0
 22  1  1  0  0  0  0
 22 27  2  0  0  0  0
 23 22  1  0  0  0  0
 24 23  1  0  0  0  0
 24 26  2  0  0  0  0
 25 24  1  0  0  0  0
 26 27  1  0  0  0  0
M  END
>  <Pose>
1

>  <Score>
-7.316

$$$$
