/Users/jonathanwahrer/Desktop/Msc/3_Semester/Drug_Design_Praktikum/waehrer_HTS_screening/HTS_experiment/out/docking_results/vina_output/2qfa/0769_docked.pdbqt
 OpenBabel03162220023D

 26 29  0  0  0  0  0  0  0  0999 V2000
   43.9690    7.3040   44.2750 C   0  0  0  0  0  0  0  0  0  0  0  0
   43.4050    6.5270   45.1810 O   0  0  0  0  0  0  0  0  0  0  0  0
   43.4750    8.5980   44.2090 N   0  0  0  0  0  0  0  0  0  0  0  0
   42.3830    8.9980   45.1330 C   0  0  0  0  0  2  0  0  0  0  0  0
   42.8300   10.2110   45.9130 C   0  0  0  0  0  2  0  0  0  0  0  0
   43.1660   11.2510   45.0230 N   0  0  0  0  0  0  0  0  0  0  0  0
   43.0190   10.8640   43.6610 C   0  0  0  0  0  2  0  0  0  0  0  0
   43.8940    9.6290   43.3390 C   0  0  0  0  0  2  0  0  0  0  0  0
   45.0070    6.6150   43.5340 C   0  0  0  0  0  0  0  0  0  0  0  0
   46.0900    6.0190   44.1220 C   0  0  0  0  0  3  0  0  0  0  0  0
   47.0400    5.3760   43.3220 C   0  0  0  0  0  0  0  0  0  0  0  0
   48.5530    4.5360   44.0660 Br  0  0  0  0  0  0  0  0  0  0  0  0
   46.8560    5.3610   41.9610 C   0  0  0  0  0  0  0  0  0  0  0  0
   45.8270    5.9310   41.4420 O   0  0  0  0  0  0  0  0  0  0  0  0
   47.6810    4.7950   41.1970 O   0  0  0  0  0  0  0  0  0  0  0  0
   44.9210    6.5380   42.1410 C   0  0  0  0  0  3  0  0  0  0  0  0
   42.5880   12.5280   45.2940 C   0  0  0  0  0  2  0  0  0  0  0  0
   43.5310   13.5770   45.7210 C   0  0  0  0  0  0  0  0  0  0  0  0
   43.2660   14.5250   46.6540 C   0  0  0  0  0  3  0  0  0  0  0  0
   44.2100   15.4650   46.9830 C   0  0  0  0  0  0  0  0  0  0  0  0
   45.4300   15.4460   46.3630 C   0  0  0  0  0  0  0  0  0  0  0  0
   44.2370   16.5430   47.8820 O   0  0  0  0  0  0  0  0  0  0  0  0
   45.7220   14.4930   45.4120 C   0  0  0  0  0  3  0  0  0  0  0  0
   46.2140   16.4780   46.8480 O   0  0  0  0  0  0  0  0  0  0  0  0
   44.7700   13.5760   45.1070 C   0  0  0  0  0  3  0  0  0  0  0  0
   45.3280   17.3660   47.5150 C   0  0  0  0  0  2  0  0  0  0  0  0
  1  2  2  0  0  0  0
  3  1  1  0  0  0  0
  3  4  1  0  0  0  0
  4  5  1  0  0  0  0
  6 17  1  0  0  0  0
  6  5  1  0  0  0  0
  7  6  1  0  0  0  0
  8  7  1  0  0  0  0
  8  3  1  0  0  0  0
  9 10  1  0  0  0  0
  9  1  1  0  0  0  0
 11 12  1  0  0  0  0
 11 10  2  0  0  0  0
 13 11  1  0  0  0  0
 14 13  1  0  0  0  0
 14 16  1  0  0  0  0
 15 13  2  0  0  0  0
 16  9  2  0  0  0  0
 17 18  1  0  0  0  0
 18 19  1  0  0  0  0
 19 20  2  0  0  0  0
 20 22  1  0  0  0  0
 21 24  1  0  0  0  0
 21 20  1  0  0  0  0
 23 21  2  0  0  0  0
 24 26  1  0  0  0  0
 25 23  1  0  0  0  0
 25 18  2  0  0  0  0
 26 22  1  0  0  0  0
M  END
>  <Pose>
1

>  <Score>
-8.147

$$$$
