/Users/jonathanwahrer/Desktop/Msc/3_Semester/Drug_Design_Praktikum/waehrer_HTS_screening/HTS_experiment/out/docking_results/vina_output/2qfa/0776_docked.pdbqt
 OpenBabel03162220023D

 38 41  0  0  1  0  0  0  0  0999 V2000
   41.0350   14.2300   46.6480 C   0  0  2  0  0  3  0  0  0  0  0  0
   40.0160   13.3110   47.3340 C   0  0  1  0  0  0  0  0  0  0  0  0
   40.7230   12.1200   47.8830 C   0  0  0  0  0  2  0  0  0  0  0  0
   41.3310   11.3480   46.7340 C   0  0  1  0  0  0  0  0  0  0  0  0
   41.4620   12.1110   45.5890 O   0  0  0  0  0  0  0  0  0  0  0  0
   41.9520   13.3880   45.8240 C   0  0  0  0  0  2  0  0  0  0  0  0
   42.6040   10.7500   47.2130 C   0  0  0  0  0  2  0  0  0  0  0  0
   43.2150    9.9300   46.0660 C   0  0  0  0  0  2  0  0  0  0  0  0
   42.3570    8.8160   45.8260 N   0  0  0  0  0  0  0  0  0  0  0  0
   41.0490    8.8680   46.5600 C   0  0  0  0  0  2  0  0  0  0  0  0
   40.3960   10.2020   46.4090 C   0  0  0  0  0  2  0  0  0  0  0  0
   42.6210    7.7390   45.0020 C   0  0  0  0  0  0  0  0  0  0  0  0
   41.6790    6.8200   44.9600 O   0  0  0  0  0  0  0  0  0  0  0  0
   39.2050   14.0590   48.3420 C   0  0  0  0  0  1  0  0  0  0  0  0
   39.1500   12.8690   46.3310 O   0  0  0  0  0  0  0  0  0  0  0  0
   38.3910   12.3390   46.6840 H   0  0  0  0  0  0  0  0  0  0  0  0
   41.6670   15.1250   47.5630 N   0  0  0  0  0  0  0  0  0  0  0  0
   42.5660   14.7510   48.4910 C   0  0  0  0  0  3  0  0  0  0  0  0
   43.1560   15.6360   49.3570 C   0  0  0  0  0  0  0  0  0  0  0  0
   44.4120   14.9650   50.6200 Br  0  0  0  0  0  0  0  0  0  0  0  0
   42.8300   16.9680   49.2920 C   0  0  0  0  0  0  0  0  0  0  0  0
   41.9320   17.3420   48.3650 N   0  0  0  0  0  0  0  0  0  0  0  0
   43.3740   17.7710   50.0890 O   0  0  0  0  0  0  0  0  0  0  0  0
   41.3810   16.4620   47.5440 C   0  0  0  0  0  0  0  0  0  0  0  0
   41.6940   18.3550   48.3280 H   0  0  0  0  0  0  0  0  0  0  0  0
   40.5430   16.8930   46.6990 O   0  0  0  0  0  0  0  0  0  0  0  0
   43.7430    7.4470   44.1830 C   0  0  0  0  0  0  0  0  0  0  0  0
   44.2600    6.1400   44.1310 C   0  0  0  0  0  3  0  0  0  0  0  0
   45.3130    5.7330   43.3760 C   0  0  0  0  0  0  0  0  0  0  0  0
   45.9310    6.7170   42.5770 C   0  0  0  0  0  3  0  0  0  0  0  0
   45.4520    7.9820   42.6100 C   0  0  0  0  0  3  0  0  0  0  0  0
   44.3600    8.3720   43.4040 C   0  0  0  0  0  3  0  0  0  0  0  0
   45.7870    4.4550   43.3560 O   0  0  0  0  0  0  0  0  0  0  0  0
   47.0480    3.9460   43.4490 C   0  0  0  0  0  2  0  0  0  0  0  0
   47.6640    3.6690   42.1200 C   0  0  0  0  0  2  0  0  0  0  0  0
   47.6840    2.2250   41.8820 N   0  0  0  0  0  0  0  0  0  0  0  0
   46.8360    1.7600   42.2370 H   0  0  0  0  0  0  0  0  0  0  0  0
   48.5700    1.7880   42.1530 H   0  0  0  0  0  0  0  0  0  0  0  0
  1  6  1  1  0  0  0
  1  2  1  0  0  0  0
  1 17  1  0  0  0  0
  2  3  1  0  0  0  0
  2 14  1  1  0  0  0
  4 11  1  6  0  0  0
  4  7  1  0  0  0  0
  4  3  1  0  0  0  0
  5  6  1  0  0  0  0
  5  4  1  0  0  0  0
  8  7  1  0  0  0  0
  9  8  1  0  0  0  0
  9 10  1  0  0  0  0
 11 10  1  0  0  0  0
 12  9  1  0  0  0  0
 13 12  2  0  0  0  0
 15 16  1  0  0  0  0
 15  2  1  0  0  0  0
 17 18  1  0  0  0  0
 18 19  2  0  0  0  0
 19 20  1  0  0  0  0
 21 19  1  0  0  0  0
 21 23  2  0  0  0  0
 22 21  1  0  0  0  0
 24 17  1  0  0  0  0
 24 22  1  0  0  0  0
 25 22  1  0  0  0  0
 26 24  2  0  0  0  0
 27 12  1  0  0  0  0
 28 27  1  0  0  0  0
 29 28  2  0  0  0  0
 30 31  2  0  0  0  0
 30 29  1  0  0  0  0
 31 32  1  0  0  0  0
 32 27  2  0  0  0  0
 33 29  1  0  0  0  0
 33 34  1  0  0  0  0
 35 34  1  0  0  0  0
 36 35  1  0  0  0  0
 36 38  1  0  0  0  0
 36 37  1  0  0  0  0
M  END
>  <Pose>
1

>  <Score>
-6.446

$$$$
