/Users/jonathanwahrer/Desktop/Msc/3_Semester/Drug_Design_Praktikum/waehrer_HTS_screening/HTS_experiment/out/docking_results/vina_output/2qfa/0783_docked.pdbqt
 OpenBabel03162220033D

 39 42  0  0  1  0  0  0  0  0999 V2000
   39.1390   13.4390   46.1770 C   0  0  1  0  0  3  0  0  0  0  0  0
   39.2920   11.9800   46.3420 C   0  0  2  0  0  0  0  0  0  0  0  0
   40.7200   11.4710   46.1100 C   0  0  0  0  0  2  0  0  0  0  0  0
   41.2300   11.9190   44.7630 C   0  0  2  0  0  0  0  0  0  0  0  0
   40.5470   13.0250   44.2970 O   0  0  0  0  0  0  0  0  0  0  0  0
   40.2010   13.9440   45.2390 C   0  0  0  0  0  2  0  0  0  0  0  0
   41.1030   10.7400   43.8140 C   0  0  0  0  0  2  0  0  0  0  0  0
   42.4040    9.9890   43.7280 C   0  0  0  0  0  2  0  0  0  0  0  0
   42.9880    9.9240   45.0440 N   0  0  0  0  0  0  0  0  0  0  0  0
   43.4650   11.1870   45.5880 C   0  0  0  0  0  2  0  0  0  0  0  0
   42.6850   12.2930   44.9150 C   0  0  0  0  0  2  0  0  0  0  0  0
   43.0970    8.7100   45.7270 C   0  0  0  0  0  0  0  0  0  0  0  0
   43.6300    8.7820   46.8940 O   0  0  0  0  0  0  0  0  0  0  0  0
   38.3250   11.1370   45.5770 C   0  0  0  0  0  1  0  0  0  0  0  0
   39.0540   11.6910   47.7100 O   0  0  0  0  0  0  0  0  0  0  0  0
   39.8450   11.2910   48.1410 H   0  0  0  0  0  0  0  0  0  0  0  0
   37.8190   13.8640   45.7550 N   0  0  0  0  0  0  0  0  0  0  0  0
   37.5530   13.9940   44.4590 C   0  0  0  0  0  3  0  0  0  0  0  0
   36.3120   14.4020   44.0280 C   0  0  0  0  0  0  0  0  0  0  0  0
   35.9500   14.5820   42.1500 Br  0  0  0  0  0  0  0  0  0  0  0  0
   35.3420   14.6760   44.9690 C   0  0  0  0  0  0  0  0  0  0  0  0
   35.6700   14.5270   46.2650 N   0  0  0  0  0  0  0  0  0  0  0  0
   34.1840   15.0550   44.6220 O   0  0  0  0  0  0  0  0  0  0  0  0
   36.8870   14.1280   46.6670 C   0  0  0  0  0  0  0  0  0  0  0  0
   34.9240   14.7380   46.9960 H   0  0  0  0  0  0  0  0  0  0  0  0
   37.1030   14.0160   47.9190 O   0  0  0  0  0  0  0  0  0  0  0  0
   42.6960    7.3720   45.3070 C   0  0  1  0  0  3  0  0  0  0  0  0
   41.3320    7.0500   45.7320 N   0  0  0  0  0  0  0  0  0  0  0  0
   41.1240    7.4600   46.6680 H   0  0  0  0  0  0  0  0  0  0  0  0
   41.2580    6.0090   45.8450 H   0  0  0  0  0  0  0  0  0  0  0  0
   42.7330    7.1240   43.8160 C   0  0  0  0  0  2  0  0  0  0  0  0
   44.1570    6.7350   43.4970 C   0  0  0  0  0  0  0  0  0  0  0  0
   45.0260    7.6600   42.9810 C   0  0  0  0  0  3  0  0  0  0  0  0
   46.3300    7.2590   42.7010 C   0  0  0  0  0  3  0  0  0  0  0  0
   46.7570    5.9710   42.9300 C   0  0  0  0  0  0  0  0  0  0  0  0
   45.8520    5.0680   43.4510 C   0  0  0  0  0  3  0  0  0  0  0  0
   44.5530    5.4350   43.7380 C   0  0  0  0  0  3  0  0  0  0  0  0
   48.0630    5.6300   42.6330 O   0  0  0  0  0  0  0  0  0  0  0  0
   48.4710    4.7150   42.8270 H   0  0  0  0  0  0  0  0  0  0  0  0
  1  6  1  6  0  0  0
  1  2  1  0  0  0  0
  2 14  1  6  0  0  0
  2 15  1  0  0  0  0
  3  2  1  0  0  0  0
  4  7  1  6  0  0  0
  4 11  1  0  0  0  0
  4  3  1  0  0  0  0
  5  4  1  0  0  0  0
  5  6  1  0  0  0  0
  8  7  1  0  0  0  0
  8  9  1  0  0  0  0
  9 10  1  0  0  0  0
  9 12  1  0  0  0  0
 11 10  1  0  0  0  0
 12 13  2  0  0  0  0
 15 16  1  0  0  0  0
 17  1  1  0  0  0  0
 17 24  1  0  0  0  0
 18 17  1  0  0  0  0
 19 18  2  0  0  0  0
 19 21  1  0  0  0  0
 20 19  1  0  0  0  0
 21 22  1  0  0  0  0
 22 24  1  0  0  0  0
 22 25  1  0  0  0  0
 23 21  2  0  0  0  0
 24 26  2  0  0  0  0
 27 31  1  6  0  0  0
 27 12  1  0  0  0  0
 27 28  1  0  0  0  0
 28 30  1  0  0  0  0
 28 29  1  0  0  0  0
 32 37  1  0  0  0  0
 32 31  1  0  0  0  0
 33 32  2  0  0  0  0
 34 35  2  0  0  0  0
 34 33  1  0  0  0  0
 35 36  1  0  0  0  0
 36 37  2  0  0  0  0
 38 39  1  0  0  0  0
 38 35  1  0  0  0  0
M  END
>  <Pose>
1

>  <Score>
-7.734

$$$$
