/Users/jonathanwahrer/Desktop/Msc/3_Semester/Drug_Design_Praktikum/waehrer_HTS_screening/HTS_experiment/out/docking_results/vina_output/2qfa/0790_docked.pdbqt
 OpenBabel03162220043D

 25 28  0  0  0  0  0  0  0  0999 V2000
   42.1830   11.8410   46.3330 C   0  0  0  0  0  0  0  0  0  0  0  0
   40.9450   12.0630   46.4660 O   0  0  0  0  0  0  0  0  0  0  0  0
   43.1010   12.1930   47.3550 N   0  0  0  0  0  0  0  0  0  0  0  0
   44.5230   11.8990   47.1190 C   0  0  0  0  0  2  0  0  0  0  0  0
   45.2590   12.9220   47.9840 C   0  0  0  0  0  2  0  0  0  0  0  0
   44.5060   14.1360   47.8810 N   0  0  0  0  0  0  0  0  0  0  0  0
   43.3550   14.1700   48.8310 C   0  0  0  0  0  2  0  0  0  0  0  0
   42.6690   12.8220   48.5950 C   0  0  0  0  0  2  0  0  0  0  0  0
   44.6930   15.2000   47.0130 C   0  0  0  0  0  0  0  0  0  0  0  0
   43.8950   16.2180   47.1460 O   0  0  0  0  0  0  0  0  0  0  0  0
   42.6300   11.2180   45.1120 C   0  0  0  0  0  0  0  0  0  0  0  0
   42.7300   11.7530   43.8490 C   0  0  0  0  0  3  0  0  0  0  0  0
   43.1950   10.8180   43.0050 N   0  0  0  0  0  0  0  0  0  0  0  0
   43.3960    9.6960   43.7000 N   0  0  0  0  0  0  0  0  0  0  0  0
   43.8410    8.5000   43.3360 C   0  0  0  0  0  3  0  0  0  0  0  0
   43.0630    9.9020   44.9860 C   0  0  0  0  0  0  0  0  0  0  0  0
   43.9620    7.4910   44.2390 C   0  0  0  0  0  0  0  0  0  0  0  0
   44.6020    5.7780   43.7090 Br  0  0  0  0  0  0  0  0  0  0  0  0
   43.6220    7.7060   45.5470 C   0  0  0  0  0  3  0  0  0  0  0  0
   43.1770    8.9170   45.8900 N   0  0  0  0  0  0  0  0  0  0  0  0
   45.6650   15.3690   45.9450 C   0  0  0  0  0  0  0  0  0  0  0  0
   46.5790   16.3480   45.8980 O   0  0  0  0  0  0  0  0  0  0  0  0
   47.3160   16.2710   44.8430 C   0  0  0  0  0  3  0  0  0  0  0  0
   46.9240   15.1920   44.0900 C   0  0  0  0  0  3  0  0  0  0  0  0
   45.8770   14.6330   44.8050 C   0  0  0  0  0  3  0  0  0  0  0  0
  1  2  2  0  0  0  0
  1  3  1  0  0  0  0
  3  8  1  0  0  0  0
  4  3  1  0  0  0  0
  4  5  1  0  0  0  0
  6  5  1  0  0  0  0
  6  7  1  0  0  0  0
  8  7  1  0  0  0  0
  9 10  2  0  0  0  0
  9  6  1  0  0  0  0
 11  1  1  0  0  0  0
 12 11  1  0  0  0  0
 13 14  1  0  0  0  0
 13 12  2  0  0  0  0
 14 16  1  0  0  0  0
 15 14  1  0  0  0  0
 15 17  2  0  0  0  0
 16 11  2  0  0  0  0
 16 20  1  0  0  0  0
 17 19  1  0  0  0  0
 18 17  1  0  0  0  0
 19 20  2  0  0  0  0
 21  9  1  0  0  0  0
 22 21  1  0  0  0  0
 23 22  1  0  0  0  0
 24 25  1  0  0  0  0
 24 23  2  0  0  0  0
 25 21  2  0  0  0  0
M  END
>  <Pose>
1

>  <Score>
-6.322

$$$$
