/Users/jonathanwahrer/Desktop/Msc/3_Semester/Drug_Design_Praktikum/waehrer_HTS_screening/HTS_experiment/out/docking_results/vina_output/2qfa/0797_docked.pdbqt
 OpenBabel03162220043D

 28 31  0  0  0  0  0  0  0  0999 V2000
   45.4280    5.2020   43.1990 O   0  0  0  0  0  0  0  0  0  0  0  0
   46.5200    5.0440   42.3330 C   0  0  0  0  0  2  0  0  0  0  0  0
   47.7050    4.4170   42.9740 C   0  0  0  0  0  0  0  0  0  0  0  0
   48.3240    3.3440   42.4280 N   0  0  0  0  0  0  0  0  0  0  0  0
   49.3990    2.7600   42.9860 C   0  0  0  0  0  0  0  0  0  0  0  0
   49.9410    3.2030   44.1350 N   0  0  0  0  0  0  0  0  0  0  0  0
   50.0140    1.6540   42.3930 C   0  0  0  0  0  3  0  0  0  0  0  0
   51.0210    2.6040   44.6810 C   0  0  0  0  0  3  0  0  0  0  0  0
   49.3570    4.2710   44.7160 C   0  0  0  0  0  0  0  0  0  0  0  0
   51.6480    1.5130   44.1210 C   0  0  0  0  0  0  0  0  0  0  0  0
   53.1800    0.7000   44.9410 Br  0  0  0  0  0  0  0  0  0  0  0  0
   51.1160    1.0360   42.9420 C   0  0  0  0  0  3  0  0  0  0  0  0
   48.2430    4.8870   44.1530 C   0  0  0  0  0  3  0  0  0  0  0  0
   49.8490    4.6860   45.7770 O   0  0  0  0  0  0  0  0  0  0  0  0
   44.9310    6.4060   43.6530 C   0  0  0  0  0  0  0  0  0  0  0  0
   45.5980    7.4480   43.4900 O   0  0  0  0  0  0  0  0  0  0  0  0
   43.6120    6.4220   44.3250 C   0  0  0  0  0  2  0  0  0  0  0  0
   43.0200    7.7280   44.2670 N   0  0  0  0  0  0  0  0  0  0  0  0
   42.3330    8.2830   43.1670 C   0  0  0  0  0  0  0  0  0  0  0  0
   42.0960    7.7800   42.0380 O   0  0  0  0  0  0  0  0  0  0  0  0
   41.8910    9.6440   43.5380 C   0  0  0  0  0  0  0  0  0  0  0  0
   42.3060    9.8790   44.8200 C   0  0  0  0  0  0  0  0  0  0  0  0
   41.1870   10.6040   42.8300 C   0  0  0  0  0  3  0  0  0  0  0  0
   42.0470   11.0610   45.4520 C   0  0  0  0  0  3  0  0  0  0  0  0
   43.0160    8.6900   45.2960 C   0  0  0  0  0  0  0  0  0  0  0  0
   41.3500   12.0300   44.7710 C   0  0  0  0  0  3  0  0  0  0  0  0
   40.9300   11.7930   43.4760 C   0  0  0  0  0  3  0  0  0  0  0  0
   43.5310    8.5790   46.4510 O   0  0  0  0  0  0  0  0  0  0  0  0
  1 15  1  0  0  0  0
  2  3  1  0  0  0  0
  2  1  1  0  0  0  0
  3 13  2  0  0  0  0
  4  3  1  0  0  0  0
  4  5  2  0  0  0  0
  5  6  1  0  0  0  0
  6  8  1  0  0  0  0
  6  9  1  0  0  0  0
  7 12  2  0  0  0  0
  7  5  1  0  0  0  0
  9 14  2  0  0  0  0
 10  8  2  0  0  0  0
 10 11  1  0  0  0  0
 12 10  1  0  0  0  0
 13  9  1  0  0  0  0
 15 17  1  0  0  0  0
 16 15  2  0  0  0  0
 18 17  1  0  0  0  0
 18 25  1  0  0  0  0
 19 21  1  0  0  0  0
 19 18  1  0  0  0  0
 20 19  2  0  0  0  0
 21 22  1  0  0  0  0
 22 25  1  0  0  0  0
 22 24  2  0  0  0  0
 23 27  1  0  0  0  0
 23 21  2  0  0  0  0
 25 28  2  0  0  0  0
 26 24  1  0  0  0  0
 27 26  2  0  0  0  0
M  END
>  <Pose>
1

>  <Score>
-8.119

$$$$
