/Users/jonathanwahrer/Desktop/Msc/3_Semester/Drug_Design_Praktikum/waehrer_HTS_screening/HTS_experiment/out/docking_results/vina_output/2qfa/0800_docked.pdbqt
 OpenBabel03162220053D

 29 32  0  0  1  0  0  0  0  0999 V2000
   43.8520    6.6830   44.4350 C   0  0  0  0  0  0  0  0  0  0  0  0
   43.6430    5.4710   44.1680 O   0  0  0  0  0  0  0  0  0  0  0  0
   45.0840    7.2120   44.1360 O   0  0  0  0  0  0  0  0  0  0  0  0
   45.7420    6.9820   42.9040 C   0  0  0  0  0  2  0  0  0  0  0  0
   46.7750    5.9350   43.1050 C   0  0  0  0  0  0  0  0  0  0  0  0
   47.6370    5.9830   44.1370 N   0  0  0  0  0  0  0  0  0  0  0  0
   48.5830    5.0330   44.3300 C   0  0  1  0  0  3  0  0  0  0  0  0
   48.6980    3.9900   43.4830 N   0  0  0  0  0  0  0  0  0  0  0  0
   49.4440    5.1300   45.4060 C   0  0  0  0  0  3  0  0  0  0  0  0
   49.6290    3.0370   43.6570 C   0  0  0  0  0  3  0  0  0  0  0  0
   47.8540    3.8980   42.4310 C   0  0  0  0  0  0  0  0  0  0  0  0
   50.4910    3.1280   44.7280 C   0  0  0  0  0  0  0  0  0  0  0  0
   51.8140    1.7710   44.9700 Br  0  0  0  0  0  0  0  0  0  0  0  0
   50.4160    4.1800   45.6270 C   0  0  0  0  0  3  0  0  0  0  0  0
   46.8770    4.8780   42.2310 C   0  0  0  0  0  2  0  0  0  0  0  0
   47.9540    2.9400   41.6470 O   0  0  0  0  0  0  0  0  0  0  0  0
   42.7370    7.4440   45.0570 C   0  0  0  0  0  2  0  0  0  0  0  0
   42.5820    8.7520   44.4920 N   0  0  0  0  0  0  0  0  0  0  0  0
   42.2100    9.0580   43.1480 C   0  0  0  0  0  0  0  0  0  0  0  0
   41.9610    8.2010   42.2520 O   0  0  0  0  0  0  0  0  0  0  0  0
   42.1740   10.4740   43.0120 N   0  0  0  0  0  0  0  0  0  0  0  0
   42.6780   11.0710   44.2230 C   0  0  0  0  0  0  0  0  0  0  0  0
   41.8340   10.9620   42.1660 H   0  0  0  0  0  0  0  0  0  0  0  0
   44.0350   11.7000   44.0460 C   0  0  0  0  0  2  0  0  0  0  0  0
   41.8470   12.2000   44.7300 C   0  0  0  0  0  2  0  0  0  0  0  0
   42.7770    9.9820   45.1930 C   0  0  0  0  0  0  0  0  0  0  0  0
   44.1310   12.6390   45.2070 C   0  0  0  0  0  2  0  0  0  0  0  0
   42.7520   12.8210   45.7720 C   0  0  0  0  0  2  0  0  0  0  0  0
   42.9920   10.0520   46.4260 O   0  0  0  0  0  0  0  0  0  0  0  0
  1 17  1  0  0  0  0
  2  1  2  0  0  0  0
  3  1  1  0  0  0  0
  4  5  1  0  0  0  0
  4  3  1  0  0  0  0
  5  6  2  0  0  0  0
  6  7  1  0  0  0  0
  7  9  1  6  0  0  0
  8 10  1  0  0  0  0
  8  7  1  0  0  0  0
  9 14  2  0  0  0  0
 10 12  2  0  0  0  0
 11  8  1  0  0  0  0
 12 13  1  0  0  0  0
 12 14  1  0  0  0  0
 15 11  1  0  0  0  0
 15  5  1  0  0  0  0
 16 11  2  0  0  0  0
 18 17  1  0  0  0  0
 18 26  1  0  0  0  0
 19 18  1  0  0  0  0
 20 19  2  0  0  0  0
 21 19  1  0  0  0  0
 21 22  1  0  0  0  0
 22 25  1  0  0  0  0
 22 26  1  0  0  0  0
 23 21  1  0  0  0  0
 24 22  1  0  0  0  0
 24 27  1  0  0  0  0
 25 28  1  0  0  0  0
 26 29  2  0  0  0  0
 27 28  1  0  0  0  0
M  END
>  <Pose>
1

>  <Score>
-7.973

$$$$
