/Users/jonathanwahrer/Desktop/Msc/3_Semester/Drug_Design_Praktikum/waehrer_HTS_screening/HTS_experiment/out/docking_results/vina_output/2qfa/0803_docked.pdbqt
 OpenBabel03162220053D

 31 34  0  0  0  0  0  0  0  0999 V2000
   40.4510    9.9350   46.2170 Br  0  0  0  0  0  0  0  0  0  0  0  0
   42.0650    9.4390   45.3470 C   0  0  0  0  0  0  0  0  0  0  0  0
   42.4550    8.1560   45.1790 C   0  0  0  0  0  2  0  0  0  0  0  0
   43.5440    7.7970   44.4930 N   0  0  0  0  0  0  0  0  0  0  0  0
   44.2900    8.7540   43.9420 C   0  0  0  0  0  0  0  0  0  0  0  0
   45.4090    8.4120   43.2440 N   0  0  0  0  0  0  0  0  0  0  0  0
   45.8060    7.1580   43.0810 C   0  0  0  0  0  0  0  0  0  0  0  0
   45.0530    6.1510   43.6400 C   0  0  0  0  0  0  0  0  0  0  0  0
   45.4180    4.8250   43.5110 C   0  0  0  0  0  3  0  0  0  0  0  0
   46.5610    4.4330   42.8130 C   0  0  0  0  0  3  0  0  0  0  0  0
   47.3070    5.4500   42.2580 C   0  0  0  0  0  3  0  0  0  0  0  0
   46.9450    6.7800   42.3840 C   0  0  0  0  0  3  0  0  0  0  0  0
   43.9140    6.5200   44.3460 C   0  0  0  0  0  0  0  0  0  0  0  0
   43.2210    5.6140   44.8600 O   0  0  0  0  0  0  0  0  0  0  0  0
   43.9210   10.0470   44.0970 N   0  0  0  0  0  0  0  0  0  0  0  0
   42.8590   10.4810   44.7620 C   0  0  0  0  0  0  0  0  0  0  0  0
   44.6010   10.7150   43.6080 H   0  0  0  0  0  0  0  0  0  0  0  0
   42.4870   11.7560   45.0470 N   0  0  0  0  0  0  0  0  0  0  0  0
   42.6570   11.5570   46.3890 H   0  0  0  0  0  0  0  0  0  0  0  0
   42.1200   13.0130   45.3290 C   0  0  0  0  0  0  0  0  0  0  0  0
   43.0140   13.8590   45.9990 C   0  0  0  0  0  0  0  0  0  0  0  0
   42.5970   15.0460   46.5060 C   0  0  0  0  0  3  0  0  0  0  0  0
   41.2900   15.4440   46.3650 C   0  0  0  0  0  3  0  0  0  0  0  0
   40.3640   14.6620   45.7100 C   0  0  0  0  0  3  0  0  0  0  0  0
   40.8100   13.4620   45.2080 C   0  0  0  0  0  3  0  0  0  0  0  0
   44.4530   13.5760   46.0540 C   0  0  0  0  0  0  0  0  0  0  0  0
   44.8800   12.9160   47.0350 O   0  0  0  0  0  0  0  0  0  0  0  0
   45.3760   13.9740   45.1310 O   0  0  0  0  0  0  0  0  0  0  0  0
   46.1870   15.1210   45.3010 C   0  0  0  0  0  2  0  0  0  0  0  0
   47.1320   15.2830   44.1080 C   0  0  0  0  0  2  0  0  0  0  0  0
   47.7100   16.6780   44.1360 C   0  0  0  0  0  1  0  0  0  0  0  0
  2  1  1  0  0  0  0
  3  2  1  0  0  0  0
  4  3  1  0  0  0  0
  5 15  1  0  0  0  0
  5  4  1  0  0  0  0
  6  5  2  0  0  0  0
  7  6  1  0  0  0  0
  7  8  1  0  0  0  0
  8 13  1  0  0  0  0
  9  8  2  0  0  0  0
 10  9  1  0  0  0  0
 11 12  1  0  0  0  0
 11 10  2  0  0  0  0
 12  7  2  0  0  0  0
 13  4  1  0  0  0  0
 13 14  2  0  0  0  0
 15 16  1  0  0  0  0
 16 18  1  0  0  0  0
 16  2  2  0  0  0  0
 17 15  1  0  0  0  0
 18 20  1  0  0  0  0
 18 19  1  0  0  0  0
 20 21  1  0  0  0  0
 21 26  1  0  0  0  0
 21 22  2  0  0  0  0
 23 22  1  0  0  0  0
 24 23  2  0  0  0  0
 25 20  2  0  0  0  0
 25 24  1  0  0  0  0
 26 27  2  0  0  0  0
 28 29  1  0  0  0  0
 28 26  1  0  0  0  0
 30 31  1  0  0  0  0
 30 29  1  0  0  0  0
M  END
>  <Pose>
1

>  <Score>
-7.542

$$$$
