/Users/jonathanwahrer/Desktop/Msc/3_Semester/Drug_Design_Praktikum/waehrer_HTS_screening/HTS_experiment/out/docking_results/vina_output/2qfa/0827_docked.pdbqt
 OpenBabel03162220063D

 29 32  0  0  1  0  0  0  0  0999 V2000
   40.7130   12.3830   44.8220 C   0  0  2  0  0  0  0  0  0  0  0  0
   42.0850   11.9440   44.5790 N   0  0  0  0  0  4  0  0  0  0  0  0
   42.9630   12.8320   45.1500 C   0  0  0  0  0  0  0  0  0  0  0  0
   44.2410   13.0120   44.9230 C   0  0  0  0  0  3  0  0  0  0  0  0
   45.2790   13.9270   45.4800 C   0  0  0  0  0  2  0  0  0  0  0  0
   44.7400   14.9830   46.3930 C   0  0  0  0  0  2  0  0  0  0  0  0
   43.9810   14.3830   47.5530 C   0  0  0  0  0  2  0  0  0  0  0  0
   42.4970   14.3650   47.2470 C   0  0  0  0  0  2  0  0  0  0  0  0
   42.1950   13.6890   46.0260 N   0  0  0  0  0  0  0  0  0  0  0  0
   40.8700   13.8230   45.4060 C   0  0  0  0  0  2  0  0  0  0  0  0
   42.1580   12.2460   43.4830 H   0  0  0  0  0  0  0  0  0  0  0  0
   42.2810   10.5900   44.4960 C   0  0  0  0  0  0  0  0  0  0  0  0
   42.8700    9.8130   45.4470 C   0  0  0  0  0  3  0  0  0  0  0  0
   43.2010    8.4630   45.2340 C   0  0  0  0  0  3  0  0  0  0  0  0
   42.9370    7.8580   44.0340 C   0  0  0  0  0  0  0  0  0  0  0  0
   42.3350    8.6420   43.0610 C   0  0  0  0  0  3  0  0  0  0  0  0
   42.0130    9.9660   43.2740 C   0  0  0  0  0  3  0  0  0  0  0  0
   43.2660    6.5330   43.8020 O   0  0  0  0  0  0  0  0  0  0  0  0
   44.5640    5.9980   43.8520 C   0  0  0  0  0  2  0  0  0  0  0  0
   45.3200    6.6330   42.6690 C   0  0  0  0  0  1  0  0  0  0  0  0
   40.1160   11.6390   45.9670 C   0  0  0  0  0  0  0  0  0  0  0  0
   40.5260   11.8240   47.2670 C   0  0  0  0  0  3  0  0  0  0  0  0
   39.9400   11.1190   48.2970 C   0  0  0  0  0  3  0  0  0  0  0  0
   38.9290   10.2140   48.0360 C   0  0  0  0  0  0  0  0  0  0  0  0
   38.1490    9.2520   49.4690 Br  0  0  0  0  0  0  0  0  0  0  0  0
   38.5090   10.0190   46.7450 C   0  0  0  0  0  3  0  0  0  0  0  0
   39.1180   10.7460   45.7140 C   0  0  0  0  0  3  0  0  0  0  0  0
   39.9740   12.4820   43.7070 O   0  0  0  0  0  0  0  0  0  0  0  0
   40.2160   11.9950   42.9060 H   0  0  0  0  0  0  0  0  0  0  0  0
  1 28  1  6  0  0  0
  1 10  1  0  0  0  0
  1 21  1  0  0  0  0
  2  1  1  0  0  0  0
  2  3  1  0  0  0  0
  3  9  1  0  0  0  0
  4  3  2  0  0  0  0
  4  5  1  0  0  0  0
  5  6  1  0  0  0  0
  6  7  1  0  0  0  0
  8  7  1  0  0  0  0
  9  8  1  0  0  0  0
 10  9  1  0  0  0  0
 11  2  1  0  0  0  0
 12  2  1  0  0  0  0
 12 13  1  0  0  0  0
 14 13  2  0  0  0  0
 15 14  1  0  0  0  0
 16 17  1  0  0  0  0
 16 15  2  0  0  0  0
 17 12  2  0  0  0  0
 18 19  1  0  0  0  0
 18 15  1  0  0  0  0
 20 19  1  0  0  0  0
 21 22  1  0  0  0  0
 22 23  2  0  0  0  0
 24 23  1  0  0  0  0
 24 25  1  0  0  0  0
 26 24  2  0  0  0  0
 27 21  2  0  0  0  0
 27 26  1  0  0  0  0
 29 28  1  0  0  0  0
M  END
>  <Pose>
1

>  <Score>
-6.926

$$$$
