/Users/jonathanwahrer/Desktop/Msc/3_Semester/Drug_Design_Praktikum/waehrer_HTS_screening/HTS_experiment/out/docking_results/vina_output/2qfa/0835_docked.pdbqt
 OpenBabel03162220063D

 27 30  0  0  1  0  0  0  0  0999 V2000
   42.7650    8.3620   45.0460 C   0  0  2  0  0  0  0  0  0  0  0  0
   42.3100    9.4990   44.2760 N   0  0  0  0  0  0  0  0  0  0  0  0
   42.1280    9.8450   42.8820 C   0  0  0  0  0  2  0  0  0  0  0  0
   40.9290   10.7460   42.6680 C   0  0  0  0  0  2  0  0  0  0  0  0
   41.1170   11.9780   43.4880 C   0  0  0  0  0  2  0  0  0  0  0  0
   41.4410   11.6550   44.8930 C   0  0  0  0  0  3  0  0  0  0  0  0
   41.9980   10.4940   45.2500 C   0  0  0  0  0  0  0  0  0  0  0  0
   42.3760   10.0770   46.5420 N   0  0  0  0  0  4  0  0  0  0  0  0
   43.3650    9.0180   46.2560 C   0  0  0  0  0  2  0  0  0  0  0  0
   42.9800   10.8220   47.0240 H   0  0  0  0  0  0  0  0  0  0  0  0
   43.7450    7.5180   44.3200 C   0  0  0  0  0  0  0  0  0  0  0  0
   44.7590    8.1100   43.5980 C   0  0  0  0  0  3  0  0  0  0  0  0
   45.7160    7.3730   42.9020 C   0  0  0  0  0  3  0  0  0  0  0  0
   45.6470    5.9980   42.9360 C   0  0  0  0  0  0  0  0  0  0  0  0
   46.9530    4.9690   41.9760 Br  0  0  0  0  0  0  0  0  0  0  0  0
   44.6370    5.3920   43.6530 C   0  0  0  0  0  3  0  0  0  0  0  0
   43.6960    6.1370   44.3380 C   0  0  0  0  0  3  0  0  0  0  0  0
   41.7190    7.5480   45.4720 O   0  0  0  0  0  0  0  0  0  0  0  0
   41.2180    7.2860   44.6630 H   0  0  0  0  0  0  0  0  0  0  0  0
   41.3690    9.6110   47.3800 C   0  0  0  0  0  0  0  0  0  0  0  0
   41.5990    8.8360   48.4900 C   0  0  0  0  0  0  0  0  0  0  0  0
   40.5370    8.3850   49.2770 C   0  0  0  0  0  3  0  0  0  0  0  0
   39.2420    8.7070   48.9610 C   0  0  0  0  0  3  0  0  0  0  0  0
   39.0010    9.4860   47.8500 C   0  0  0  0  0  3  0  0  0  0  0  0
   40.0490    9.9250   47.0810 C   0  0  0  0  0  3  0  0  0  0  0  0
   42.8700    8.4670   48.8820 O   0  0  0  0  0  0  0  0  0  0  0  0
   43.4460    8.9800   50.0370 C   0  0  0  0  0  1  0  0  0  0  0  0
  1 18  1  1  0  0  0
  1  9  1  0  0  0  0
  2  1  1  0  0  0  0
  2  7  1  0  0  0  0
  3  2  1  0  0  0  0
  4  3  1  0  0  0  0
  4  5  1  0  0  0  0
  5  6  1  0  0  0  0
  6  7  2  0  0  0  0
  7  8  1  0  0  0  0
  8 10  1  0  0  0  0
  8 20  1  0  0  0  0
  9  8  1  0  0  0  0
 11 17  1  0  0  0  0
 11  1  1  0  0  0  0
 12 11  2  0  0  0  0
 13 14  2  0  0  0  0
 13 12  1  0  0  0  0
 14 16  1  0  0  0  0
 15 14  1  0  0  0  0
 16 17  2  0  0  0  0
 19 18  1  0  0  0  0
 20 21  1  0  0  0  0
 21 26  1  0  0  0  0
 21 22  2  0  0  0  0
 23 22  1  0  0  0  0
 24 23  2  0  0  0  0
 25 20  2  0  0  0  0
 25 24  1  0  0  0  0
 26 27  1  0  0  0  0
M  END
>  <Pose>
1

>  <Score>
-7.334

$$$$
