/Users/jonathanwahrer/Desktop/Msc/3_Semester/Drug_Design_Praktikum/waehrer_HTS_screening/HTS_experiment/out/docking_results/vina_output/2qfa/0847_docked.pdbqt
 OpenBabel03162220073D

 31 34  0  0  1  0  0  0  0  0999 V2000
   43.5750    8.7270   44.1340 C   0  0  0  0  0  0  0  0  0  0  0  0
   42.7240    9.7650   44.1020 N   0  0  0  0  0  0  0  0  0  0  0  0
   42.0250    9.7650   45.2530 C   0  0  1  0  0  3  0  0  0  0  0  0
   42.4530    8.7040   46.0140 N   0  0  0  0  0  0  0  0  0  0  0  0
   43.3900    8.1020   45.3030 N   0  0  0  0  0  0  0  0  0  0  0  0
   40.9760   10.6450   45.7770 C   0  0  0  0  0  2  0  0  0  0  0  0
   40.0520   11.2230   44.7380 C   0  0  0  0  0  2  0  0  0  0  0  0
   40.7440   12.0830   43.7310 C   0  0  0  0  0  2  0  0  0  0  0  0
   41.2800   11.1650   42.6570 C   0  0  0  0  0  2  0  0  0  0  0  0
   42.6600   10.6540   42.9900 C   0  0  0  0  0  2  0  0  0  0  0  0
   42.0500    8.3260   47.3100 C   0  0  0  0  0  3  0  0  0  0  0  0
   42.7920    8.8300   48.4350 C   0  0  0  0  0  0  0  0  0  0  0  0
   42.3350    8.3650   49.5980 O   0  0  0  0  0  1  0  0  0  0  0  0
   43.9100    9.7180   48.5880 C   0  0  0  0  0  0  0  0  0  0  0  0
   45.0710    9.2970   49.2710 C   0  0  0  0  0  3  0  0  0  0  0  0
   46.1630   10.1040   49.4510 C   0  0  0  0  0  3  0  0  0  0  0  0
   46.1780   11.3870   48.9640 C   0  0  0  0  0  0  0  0  0  0  0  0
   45.0720   11.8350   48.2950 C   0  0  0  0  0  3  0  0  0  0  0  0
   43.9570   10.9950   48.1180 C   0  0  0  0  0  3  0  0  0  0  0  0
   47.2900   12.2060   49.1470 O   0  0  0  0  0  0  0  0  0  0  0  0
   47.9300   12.3450   50.3910 C   0  0  0  0  0  1  0  0  0  0  0  0
   44.5740    8.2730   43.1130 C   0  0  0  0  0  2  0  0  0  0  0  0
   45.8050    7.7990   43.7100 N   0  0  0  0  0  0  0  0  0  0  0  0
   46.2980    8.3570   44.4420 H   0  0  0  0  0  0  0  0  0  0  0  0
   46.4170    6.5570   43.3400 C   0  0  0  0  0  0  0  0  0  0  0  0
   45.9550    5.8480   42.2530 C   0  0  0  0  0  3  0  0  0  0  0  0
   46.5450    4.6640   41.9000 C   0  0  0  0  0  3  0  0  0  0  0  0
   47.6160    4.1690   42.6380 C   0  0  0  0  0  0  0  0  0  0  0  0
   48.4370    2.5260   42.1480 Br  0  0  0  0  0  0  0  0  0  0  0  0
   48.0950    4.8660   43.7330 C   0  0  0  0  0  3  0  0  0  0  0  0
   47.4790    6.0520   44.0600 C   0  0  0  0  0  3  0  0  0  0  0  0
  1  5  2  0  0  0  0
  2  1  1  0  0  0  0
  2  3  1  0  0  0  0
  3  6  1  1  0  0  0
  3  4  1  0  0  0  0
  4 11  1  0  0  0  0
  5  4  1  0  0  0  0
  7  6  1  0  0  0  0
  8  7  1  0  0  0  0
  9 10  1  0  0  0  0
  9  8  1  0  0  0  0
 10  2  1  0  0  0  0
 11 12  2  0  0  0  0
 12 14  1  0  0  0  0
 12 13  1  0  0  0  0
 14 15  1  0  0  0  0
 15 16  2  0  0  0  0
 17 20  1  0  0  0  0
 17 16  1  0  0  0  0
 18 17  2  0  0  0  0
 19 18  1  0  0  0  0
 19 14  2  0  0  0  0
 20 21  1  0  0  0  0
 22 23  1  0  0  0  0
 22  1  1  0  0  0  0
 23 24  1  0  0  0  0
 25 23  1  0  0  0  0
 25 31  1  0  0  0  0
 26 25  2  0  0  0  0
 27 26  1  0  0  0  0
 27 28  2  0  0  0  0
 28 30  1  0  0  0  0
 29 28  1  0  0  0  0
 30 31  2  0  0  0  0
M  END
>  <Pose>
1

>  <Score>
-7.321

$$$$
