/Users/jonathanwahrer/Desktop/Msc/3_Semester/Drug_Design_Praktikum/waehrer_HTS_screening/HTS_experiment/out/docking_results/vina_output/2qfa/0860_docked.pdbqt
 OpenBabel03162220073D

 29 32  0  0  1  0  0  0  0  0999 V2000
   36.1740   11.1160   45.5760 Br  0  0  0  0  0  0  0  0  0  0  0  0
   37.9270   10.8060   46.2840 C   0  0  0  0  0  0  0  0  0  0  0  0
   39.0150   10.5990   45.4590 C   0  0  0  0  0  3  0  0  0  0  0  0
   40.2720   10.3770   45.9730 C   0  0  0  0  0  0  0  0  0  0  0  0
   40.3910   10.3700   47.3470 C   0  0  0  0  0  0  0  0  0  0  0  0
   39.3070   10.5760   48.1770 C   0  0  0  0  0  3  0  0  0  0  0  0
   38.0500   10.7980   47.6580 C   0  0  0  0  0  0  0  0  0  0  0  0
   36.8870   11.0200   48.5640 C   0  0  0  0  0  1  0  0  0  0  0  0
   41.6730   10.1430   47.8430 O   0  0  0  0  0  0  0  0  0  0  0  0
   42.7220    9.6340   47.0890 C   0  0  0  0  0  2  0  0  0  0  0  0
   42.7190   10.0100   45.6450 C   0  0  2  0  0  0  0  0  0  0  0  0
   41.3740   10.1660   45.0280 C   0  0  2  0  0  3  0  0  0  0  0  0
   43.3730    8.8960   44.9510 N   0  0  0  0  0  4  0  0  0  0  0  0
   43.9360    9.2650   43.6980 C   0  0  0  0  0  2  0  0  0  0  0  0
   44.8800    8.1200   43.2980 C   0  0  0  0  0  2  0  0  0  0  0  0
   44.0810    7.0050   43.1140 O   0  0  0  0  0  0  0  0  0  0  0  0
   43.3940    6.6260   44.2610 C   0  0  0  0  0  2  0  0  0  0  0  0
   42.5060    7.7710   44.7710 C   0  0  0  0  0  2  0  0  0  0  0  0
   44.1500    8.5970   45.5830 H   0  0  0  0  0  0  0  0  0  0  0  0
   43.5540   11.2400   45.3590 C   0  0  0  0  0  2  0  0  0  0  0  0
   43.4580   12.2530   46.3650 N   0  0  0  0  0  4  0  0  0  0  0  0
   44.6380   12.3230   47.2070 C   0  0  0  0  0  2  0  0  0  0  0  0
   45.0830   13.7590   47.4370 C   0  0  0  0  0  2  0  0  0  0  0  0
   45.4670   14.3860   46.2630 O   0  0  0  0  0  0  0  0  0  0  0  0
   44.7020   13.9550   45.1840 C   0  0  0  0  0  2  0  0  0  0  0  0
   43.3410   13.5790   45.7350 C   0  0  0  0  0  2  0  0  0  0  0  0
   42.6440   12.1770   46.9940 H   0  0  0  0  0  0  0  0  0  0  0  0
   41.3550   11.2600   44.1300 O   0  0  0  0  0  0  0  0  0  0  0  0
   40.5450   11.2740   43.5800 H   0  0  0  0  0  0  0  0  0  0  0  0
  1  2  1  0  0  0  0
  2  7  1  0  0  0  0
  3  4  1  0  0  0  0
  3  2  2  0  0  0  0
  4  5  2  0  0  0  0
  5  9  1  0  0  0  0
  5  6  1  0  0  0  0
  7  6  2  0  0  0  0
  7  8  1  0  0  0  0
 10  9  1  0  0  0  0
 11 20  1  6  0  0  0
 11 10  1  0  0  0  0
 12 28  1  6  0  0  0
 12 11  1  0  0  0  0
 12  4  1  0  0  0  0
 13 19  1  0  0  0  0
 13 11  1  0  0  0  0
 14 13  1  0  0  0  0
 15 14  1  0  0  0  0
 16 15  1  0  0  0  0
 16 17  1  0  0  0  0
 17 18  1  0  0  0  0
 18 13  1  0  0  0  0
 20 21  1  0  0  0  0
 21 27  1  0  0  0  0
 21 22  1  0  0  0  0
 22 23  1  0  0  0  0
 24 23  1  0  0  0  0
 25 26  1  0  0  0  0
 25 24  1  0  0  0  0
 26 21  1  0  0  0  0
 29 28  1  0  0  0  0
M  END
>  <Pose>
1

>  <Score>
-5.655

$$$$
