/Users/jonathanwahrer/Desktop/Msc/3_Semester/Drug_Design_Praktikum/waehrer_HTS_screening/HTS_experiment/out/docking_results/vina_output/2qfa/0862_docked.pdbqt
 OpenBabel03162220083D

 30 33  0  0  0  0  0  0  0  0999 V2000
   37.7600   12.8670   45.8140 Br  0  0  0  0  0  0  0  0  0  0  0  0
   38.3680   11.3800   46.8050 C   0  0  0  0  0  0  0  0  0  0  0  0
   39.5020   10.7380   46.3700 C   0  0  0  0  0  0  0  0  0  0  0  0
   40.0490    9.6220   47.0250 C   0  0  0  0  0  0  0  0  0  0  0  0
   39.4090    9.1400   48.1730 C   0  0  0  0  0  3  0  0  0  0  0  0
   38.2740    9.7930   48.5970 C   0  0  0  0  0  0  0  0  0  0  0  0
   37.7510   10.8910   47.9370 C   0  0  0  0  0  0  0  0  0  0  0  0
   36.5090   11.5820   48.4240 C   0  0  0  0  0  1  0  0  0  0  0  0
   37.4040    9.1370   50.1610 Br  0  0  0  0  0  0  0  0  0  0  0  0
   41.2460    8.9800   46.5150 C   0  0  0  0  0  0  0  0  0  0  0  0
   41.3370    7.7410   46.7040 O   0  0  0  0  0  0  0  0  0  0  0  0
   42.2330    9.8350   45.8290 C   0  0  0  0  0  0  0  0  0  0  0  0
   41.2980   10.4670   44.7010 C   0  0  0  0  0  2  0  0  0  0  0  0
   40.2140   11.1250   45.2500 O   0  0  0  0  0  0  0  0  0  0  0  0
   43.3040    9.1690   45.1150 C   0  0  0  0  0  2  0  0  0  0  0  0
   43.2550    8.0090   44.3590 N   0  0  0  0  0  4  0  0  0  0  0  0
   43.7330    6.7660   44.8250 C   0  0  0  0  0  2  0  0  0  0  0  0
   44.2090    5.8370   43.7160 C   0  0  0  0  0  2  0  0  0  0  0  0
   45.4180    6.3760   43.0190 C   0  0  0  0  0  2  0  0  0  0  0  0
   45.3130    7.8700   42.9850 C   0  0  0  0  0  2  0  0  0  0  0  0
   43.8750    8.2680   43.0400 C   0  0  0  0  0  2  0  0  0  0  0  0
   42.2250    7.8020   44.0180 H   0  0  0  0  0  0  0  0  0  0  0  0
   42.6480   10.9430   46.7200 C   0  0  0  0  0  2  0  0  0  0  0  0
   43.0050   12.1950   46.1980 N   0  0  0  0  0  4  0  0  0  0  0  0
   42.3430   13.2330   47.0000 C   0  0  0  0  0  2  0  0  0  0  0  0
   42.4240   14.5960   46.3450 C   0  0  0  0  0  2  0  0  0  0  0  0
   43.9170   14.9630   46.3400 C   0  0  0  0  0  2  0  0  0  0  0  0
   44.5620   13.8850   45.5000 C   0  0  0  0  0  2  0  0  0  0  0  0
   44.4120   12.5550   46.2580 C   0  0  0  0  0  2  0  0  0  0  0  0
   42.7210   12.4250   45.2230 H   0  0  0  0  0  0  0  0  0  0  0  0
  1  2  1  0  0  0  0
  2  7  1  0  0  0  0
  3  2  2  0  0  0  0
  3  4  1  0  0  0  0
  4  5  2  0  0  0  0
  5  6  1  0  0  0  0
  6  9  1  0  0  0  0
  7  8  1  0  0  0  0
  7  6  2  0  0  0  0
 10 11  2  0  0  0  0
 10  4  1  0  0  0  0
 12 10  1  0  0  0  0
 12 23  1  0  0  0  0
 13 14  1  0  0  0  0
 13 12  1  0  0  0  0
 14  3  1  0  0  0  0
 15 12  1  0  0  0  0
 16 17  1  0  0  0  0
 16 15  1  0  0  0  0
 18 17  1  0  0  0  0
 19 18  1  0  0  0  0
 20 19  1  0  0  0  0
 20 21  1  0  0  0  0
 21 16  1  0  0  0  0
 22 16  1  0  0  0  0
 24 29  1  0  0  0  0
 24 23  1  0  0  0  0
 24 25  1  0  0  0  0
 26 25  1  0  0  0  0
 27 26  1  0  0  0  0
 28 29  1  0  0  0  0
 28 27  1  0  0  0  0
 30 24  1  0  0  0  0
M  END
>  <Pose>
1

>  <Score>
-6.374

$$$$
