/Users/jonathanwahrer/Desktop/Msc/3_Semester/Drug_Design_Praktikum/waehrer_HTS_screening/HTS_experiment/out/docking_results/vina_output/2qfa/0865_docked.pdbqt
 OpenBabel03162220083D

 30 33  0  0  0  0  0  0  0  0999 V2000
   48.3630    3.6530   42.9580 C   0  0  0  0  0  0  0  0  0  0  0  0
   49.1160    2.6230   42.5160 N   0  0  0  0  0  4  0  0  0  0  0  0
   50.2660    2.2390   43.1250 C   0  0  0  0  0  0  0  0  0  0  0  0
   50.6300    2.9380   44.2020 N   0  0  0  0  0  0  0  0  0  0  0  0
   49.9310    3.9740   44.6980 C   0  0  0  0  0  0  0  0  0  0  0  0
   48.8000    4.3050   44.0490 N   0  0  0  0  0  2  0  0  0  0  0  0
   47.1750    3.9990   42.2740 N   0  0  0  0  0  0  0  0  0  0  0  0
   47.0470    3.6920   41.2950 H   0  0  0  0  0  0  0  0  0  0  0  0
   46.1860    4.7440   42.9010 N   0  0  0  0  0  0  0  0  0  0  0  0
   45.8540    5.9340   42.5480 C   0  0  0  0  0  3  0  0  0  0  0  0
   44.8040    6.6550   43.2550 C   0  0  0  0  0  0  0  0  0  0  0  0
   44.6400    8.0250   43.1340 C   0  0  0  0  0  3  0  0  0  0  0  0
   43.6450    8.7040   43.8050 C   0  0  0  0  0  0  0  0  0  0  0  0
   42.7670    8.0340   44.6330 C   0  0  0  0  0  0  0  0  0  0  0  0
   43.4410   10.5940   43.6190 Br  0  0  0  0  0  0  0  0  0  0  0  0
   41.7770    8.6840   45.3040 F   0  0  0  0  0  0  0  0  0  0  0  0
   42.9190    6.6730   44.7620 C   0  0  0  0  0  3  0  0  0  0  0  0
   43.9230    5.9950   44.0840 C   0  0  0  0  0  3  0  0  0  0  0  0
   51.0210    1.1450   42.6170 N   0  0  0  0  0  0  0  0  0  0  0  0
   50.7120   -0.2420   42.8740 C   0  0  0  0  0  2  0  0  0  0  0  0
   52.0130   -0.8100   43.4380 C   0  0  0  0  0  2  0  0  0  0  0  0
   52.9450   -0.8190   42.4680 O   0  0  0  0  0  0  0  0  0  0  0  0
   53.1250    0.2570   41.6930 C   0  0  0  0  0  2  0  0  0  0  0  0
   52.1780    1.3870   41.7870 C   0  0  0  0  0  2  0  0  0  0  0  0
   50.3820    4.6720   45.8500 N   0  0  0  0  0  0  0  0  0  0  0  0
   51.7580    5.1260   45.9010 C   0  0  0  0  0  2  0  0  0  0  0  0
   52.0180    5.8000   47.2300 C   0  0  0  0  0  2  0  0  0  0  0  0
   51.0860    6.7350   47.5800 O   0  0  0  0  0  0  0  0  0  0  0  0
   49.7760    6.4220   47.3370 C   0  0  0  0  0  2  0  0  0  0  0  0
   49.5540    4.9610   46.9840 C   0  0  0  0  0  2  0  0  0  0  0  0
  1  6  1  0  0  0  0
  2  1  2  0  0  0  0
  2  3  2  0  0  0  0
  3  4  1  0  0  0  0
  4  5  2  0  0  0  0
  5 25  1  0  0  0  0
  6  5  1  0  0  0  0
  7  9  1  0  0  0  0
  7  1  1  0  0  0  0
  8  7  1  0  0  0  0
 10  9  2  0  0  0  0
 10 11  1  0  0  0  0
 11 18  1  0  0  0  0
 12 11  2  0  0  0  0
 12 13  1  0  0  0  0
 13 14  2  0  0  0  0
 14 17  1  0  0  0  0
 14 16  1  0  0  0  0
 15 13  1  0  0  0  0
 18 17  2  0  0  0  0
 19 20  1  0  0  0  0
 19  3  1  0  0  0  0
 20 21  1  0  0  0  0
 22 21  1  0  0  0  0
 23 24  1  0  0  0  0
 23 22  1  0  0  0  0
 24 19  1  0  0  0  0
 25 26  1  0  0  0  0
 25 30  1  0  0  0  0
 26 27  1  0  0  0  0
 27 28  1  0  0  0  0
 29 28  1  0  0  0  0
 30 29  1  0  0  0  0
M  END
>  <Pose>
1

>  <Score>
-7.880

$$$$
