/Users/jonathanwahrer/Desktop/Msc/3_Semester/Drug_Design_Praktikum/waehrer_HTS_screening/HTS_experiment/out/docking_results/vina_output/2qfa/0872_docked.pdbqt
 OpenBabel03162220083D

 32 35  0  0  0  0  0  0  0  0999 V2000
   41.3260   12.4080   45.4480 N   0  0  0  0  0  0  0  0  0  0  0  0
   40.3250   12.8130   44.6870 N   0  0  0  0  0  0  0  0  0  0  0  0
   40.2400   11.9340   43.7040 N   0  0  0  0  0  0  0  0  0  0  0  0
   41.1770   10.9720   43.8290 C   0  0  0  0  0  0  0  0  0  0  0  0
   41.8610   11.2840   44.9420 C   0  0  0  0  0  0  0  0  0  0  0  0
   42.8110   10.2960   45.0540 C   0  0  0  0  0  0  0  0  0  0  0  0
   43.6650   10.2250   45.9780 O   0  0  0  0  0  0  0  0  0  0  0  0
   42.7230    9.4000   44.0500 N   0  0  0  0  0  0  0  0  0  0  0  0
   41.7040    9.8160   43.2800 C   0  0  0  0  0  0  0  0  0  0  0  0
   41.3030    9.2420   42.2340 O   0  0  0  0  0  0  0  0  0  0  0  0
   39.7080   13.6640   44.8240 H   0  0  0  0  0  0  0  0  0  0  0  0
   39.5190   12.0100   42.9380 H   0  0  0  0  0  0  0  0  0  0  0  0
   41.7450   13.1020   46.6460 C   0  0  0  0  0  2  0  0  0  0  0  0
   42.7720   14.1520   46.2740 C   0  0  0  0  0  0  0  0  0  0  0  0
   44.0670   13.7540   45.9520 N   0  0  0  0  0  0  0  0  0  0  0  0
   44.2520   12.6940   45.9870 H   0  0  0  0  0  0  0  0  0  0  0  0
   42.3910   15.3270   46.2810 O   0  0  0  0  0  0  0  0  0  0  0  0
   45.1120   14.6190   45.5920 C   0  0  0  0  0  0  0  0  0  0  0  0
   45.7930   14.3800   44.3870 C   0  0  0  0  0  0  0  0  0  0  0  0
   45.3920   13.3170   43.6370 F   0  0  0  0  0  0  0  0  0  0  0  0
   46.8210   15.2010   43.9990 C   0  0  0  0  0  3  0  0  0  0  0  0
   47.2050   16.2700   44.7800 C   0  0  0  0  0  0  0  0  0  0  0  0
   46.5640   16.5380   45.9670 C   0  0  0  0  0  3  0  0  0  0  0  0
   48.2250   17.0560   44.3610 F   0  0  0  0  0  0  0  0  0  0  0  0
   45.5090   15.6800   46.3440 C   0  0  0  0  0  3  0  0  0  0  0  0
   43.5690    8.2490   43.8770 C   0  0  0  0  0  0  0  0  0  0  0  0
   44.7970    8.3630   43.2560 C   0  0  0  0  0  3  0  0  0  0  0  0
   45.6400    7.2870   43.0680 C   0  0  0  0  0  3  0  0  0  0  0  0
   45.2080    6.0600   43.5310 C   0  0  0  0  0  0  0  0  0  0  0  0
   43.9870    5.8860   44.1620 C   0  0  0  0  0  3  0  0  0  0  0  0
   46.3980    4.5770   43.2590 Br  0  0  0  0  0  0  0  0  0  0  0  0
   43.1910    7.0030   44.3170 C   0  0  0  0  0  3  0  0  0  0  0  0
  1 13  1  0  0  0  0
  2 11  1  0  0  0  0
  2  1  1  0  0  0  0
  3  4  1  0  0  0  0
  3  2  1  0  0  0  0
  4  5  2  0  0  0  0
  5  6  1  0  0  0  0
  5  1  1  0  0  0  0
  6  7  2  0  0  0  0
  8  6  1  0  0  0  0
  9  4  1  0  0  0  0
  9  8  1  0  0  0  0
 10  9  2  0  0  0  0
 12  3  1  0  0  0  0
 14 17  2  0  0  0  0
 14 13  1  0  0  0  0
 15 16  1  0  0  0  0
 15 14  1  0  0  0  0
 18 15  1  0  0  0  0
 18 25  1  0  0  0  0
 19 18  2  0  0  0  0
 20 19  1  0  0  0  0
 21 19  1  0  0  0  0
 21 22  2  0  0  0  0
 22 23  1  0  0  0  0
 23 25  2  0  0  0  0
 24 22  1  0  0  0  0
 26  8  1  0  0  0  0
 26 32  1  0  0  0  0
 27 26  2  0  0  0  0
 28 27  1  0  0  0  0
 28 29  2  0  0  0  0
 29 30  1  0  0  0  0
 30 32  2  0  0  0  0
 31 29  1  0  0  0  0
M  END
>  <Pose>
1

>  <Score>
-8.838

$$$$
