/Users/jonathanwahrer/Desktop/Msc/3_Semester/Drug_Design_Praktikum/waehrer_HTS_screening/HTS_experiment/out/docking_results/vina_output/2qfa/0873_docked.pdbqt
 OpenBabel03162220093D

 32 35  0  0  1  0  0  0  0  0999 V2000
   40.9840   11.3780   45.3110 C   0  0  2  0  0  3  0  0  0  0  0  0
   40.2350   10.8070   46.4190 N   0  0  0  0  0  0  0  0  0  0  0  0
   41.2960   10.2600   47.2310 C   0  0  0  0  0  0  0  0  0  0  0  0
   41.3410   10.1310   48.4830 O   0  0  0  0  0  0  0  0  0  0  0  0
   42.4110    9.8390   46.3360 C   0  0  0  0  0  0  0  0  0  0  0  0
   43.5060    9.3270   46.5620 O   0  0  0  0  0  0  0  0  0  0  0  0
   41.8750   10.1970   44.9900 C   0  0  0  0  0  0  0  0  0  0  0  0
   42.1470    9.6090   43.8510 C   0  0  0  0  0  0  0  0  0  0  0  0
   41.5520   10.0940   42.6680 O   0  0  0  0  0  1  0  0  0  0  0  0
   38.8780   10.7260   46.7510 C   0  0  0  0  0  2  0  0  0  0  0  0
   37.8850   10.2410   45.7570 C   0  0  0  0  0  2  0  0  0  0  0  0
   37.0760   11.2750   45.1770 N   0  0  0  0  0  4  0  0  0  0  0  0
   37.1610   12.4580   46.0090 C   0  0  0  0  0  2  0  0  0  0  0  0
   36.4160   13.6170   45.3720 C   0  0  0  0  0  2  0  0  0  0  0  0
   35.0910   13.2640   45.2030 O   0  0  0  0  0  0  0  0  0  0  0  0
   34.9880   12.1050   44.4390 C   0  0  0  0  0  2  0  0  0  0  0  0
   35.6410   10.9280   45.1790 C   0  0  0  0  0  2  0  0  0  0  0  0
   37.2730   11.4580   44.1710 H   0  0  0  0  0  0  0  0  0  0  0  0
   41.8480   12.5150   45.6730 C   0  0  0  0  0  0  0  0  0  0  0  0
   41.3970   13.6030   46.3900 C   0  0  0  0  0  0  0  0  0  0  0  0
   40.1500   13.6860   46.8290 F   0  0  0  0  0  0  0  0  0  0  0  0
   42.2410   14.6770   46.6890 C   0  0  0  0  0  3  0  0  0  0  0  0
   43.5360   14.6870   46.2850 C   0  0  0  0  0  3  0  0  0  0  0  0
   44.0190   13.6280   45.5730 C   0  0  0  0  0  3  0  0  0  0  0  0
   43.1640   12.5750   45.2870 C   0  0  0  0  0  3  0  0  0  0  0  0
   43.0430    8.4660   43.7690 C   0  0  0  0  0  0  0  0  0  0  0  0
   44.3370    8.6610   43.3360 C   0  0  0  0  0  3  0  0  0  0  0  0
   45.2340    7.6130   43.2080 C   0  0  0  0  0  3  0  0  0  0  0  0
   44.8390    6.3310   43.5210 C   0  0  0  0  0  0  0  0  0  0  0  0
   43.5660    6.1150   43.9500 C   0  0  0  0  0  3  0  0  0  0  0  0
   46.0670    4.8530   43.3530 Br  0  0  0  0  0  0  0  0  0  0  0  0
   42.6630    7.1860   44.0750 C   0  0  0  0  0  3  0  0  0  0  0  0
  1 19  1  1  0  0  0
  1  2  1  0  0  0  0
  2 10  1  0  0  0  0
  2  3  1  0  0  0  0
  3  4  2  0  0  0  0
  5  6  2  0  0  0  0
  5  3  1  0  0  0  0
  7  1  1  0  0  0  0
  7  5  1  0  0  0  0
  8  7  2  0  0  0  0
  9  8  1  0  0  0  0
 11 10  1  0  0  0  0
 12 17  1  0  0  0  0
 12 11  1  0  0  0  0
 12 13  1  0  0  0  0
 14 13  1  0  0  0  0
 15 14  1  0  0  0  0
 16 17  1  0  0  0  0
 16 15  1  0  0  0  0
 18 12  1  0  0  0  0
 19 20  1  0  0  0  0
 20 22  2  0  0  0  0
 20 21  1  0  0  0  0
 23 22  1  0  0  0  0
 24 23  2  0  0  0  0
 25 24  1  0  0  0  0
 25 19  2  0  0  0  0
 26  8  1  0  0  0  0
 26 32  1  0  0  0  0
 27 26  2  0  0  0  0
 28 27  1  0  0  0  0
 28 29  2  0  0  0  0
 29 30  1  0  0  0  0
 30 32  2  0  0  0  0
 31 29  1  0  0  0  0
M  END
>  <Pose>
1

>  <Score>
-7.413

$$$$
