/Users/jonathanwahrer/Desktop/Msc/3_Semester/Drug_Design_Praktikum/waehrer_HTS_screening/HTS_experiment/out/docking_results/vina_output/2qfa/0906_docked.pdbqt
 OpenBabel03162220103D

 27 30  0  0  1  0  0  0  0  0999 V2000
   42.3580   11.5900   45.9290 C   0  0  1  0  0  3  0  0  0  0  0  0
   42.1650   11.0190   47.1120 N   0  0  0  0  0  0  0  0  0  0  0  0
   42.1070    9.6970   47.3450 C   0  0  0  0  0  0  0  0  0  0  0  0
   41.9290    8.8730   48.3850 N   0  0  0  0  0  2  0  0  0  0  0  0
   41.9690    7.6320   47.9930 O   0  0  0  0  0  0  0  0  0  0  0  0
   42.1680    7.5880   46.7070 N   0  0  0  0  0  0  0  0  0  0  0  0
   42.2630    8.8440   46.2460 C   0  0  0  0  0  0  0  0  0  0  0  0
   42.4570    9.3580   45.0450 N   0  0  0  0  0  0  0  0  0  0  0  0
   42.5070   10.6800   44.8640 C   0  0  0  0  0  0  0  0  0  0  0  0
   42.7110   10.8750   43.5710 N   0  0  0  0  0  0  0  0  0  0  0  0
   42.7890    9.6870   42.9480 N   0  0  0  0  0  0  0  0  0  0  0  0
   42.6310    8.7130   43.8570 C   0  0  0  0  0  0  0  0  0  0  0  0
   42.4210   12.9750   45.6720 N   0  0  0  0  0  0  0  0  0  0  0  0
   41.5500   13.4370   45.2300 H   0  0  0  0  0  0  0  0  0  0  0  0
   43.4900   13.8600   45.9210 C   0  0  0  0  0  0  0  0  0  0  0  0
   43.2910   14.9290   46.8220 C   0  0  0  0  0  0  0  0  0  0  0  0
   41.4180   15.1550   47.7700 I   0  0  0  0  0  0  0  0  0  0  0  0
   44.3070   15.8150   47.0830 C   0  0  0  0  0  3  0  0  0  0  0  0
   45.5420   15.6600   46.4560 C   0  0  0  0  0  3  0  0  0  0  0  0
   45.7050   14.6170   45.5890 C   0  0  0  0  0  3  0  0  0  0  0  0
   44.6950   13.6950   45.3010 C   0  0  0  0  0  3  0  0  0  0  0  0
   42.6410    7.2380   43.6710 C   0  0  0  0  0  2  0  0  0  0  0  0
   43.9670    6.6260   43.9270 C   0  0  0  0  0  0  0  0  0  0  0  0
   44.1360    5.3970   44.0640 O   0  0  0  0  0  0  0  0  0  0  0  0
   45.0590    7.4440   44.0200 O   0  0  0  0  0  0  0  0  0  0  0  0
   46.0750    7.5320   43.0870 C   0  0  0  0  0  2  0  0  0  0  0  0
   47.3210    6.7960   43.3990 C   0  0  0  0  0  1  0  0  0  0  0  0
  1 13  1  6  0  0  0
  1  2  1  0  0  0  0
  2  3  2  0  0  0  0
  3  4  1  0  0  0  0
  5  4  1  0  0  0  0
  6  5  1  0  0  0  0
  7  6  2  0  0  0  0
  7  3  1  0  0  0  0
  8  7  1  0  0  0  0
  9  8  1  0  0  0  0
  9  1  1  0  0  0  0
 10  9  2  0  0  0  0
 11 10  1  0  0  0  0
 11 12  2  0  0  0  0
 12  8  1  0  0  0  0
 13 15  1  0  0  0  0
 14 13  1  0  0  0  0
 15 16  1  0  0  0  0
 16 18  2  0  0  0  0
 16 17  1  0  0  0  0
 19 18  1  0  0  0  0
 20 19  2  0  0  0  0
 21 20  1  0  0  0  0
 21 15  2  0  0  0  0
 22 12  1  0  0  0  0
 22 23  1  0  0  0  0
 23 25  1  0  0  0  0
 23 24  2  0  0  0  0
 26 27  1  0  0  0  0
 26 25  1  0  0  0  0
M  END
>  <Pose>
1

>  <Score>
-6.774

$$$$
