/Users/jonathanwahrer/Desktop/Msc/3_Semester/Drug_Design_Praktikum/waehrer_HTS_screening/HTS_experiment/out/docking_results/vina_output/2qfa/0908_docked.pdbqt
 OpenBabel03162220103D

 25 28  0  0  0  0  0  0  0  0999 V2000
   41.8230   11.8660   45.3830 N   0  0  0  0  0  0  0  0  0  0  0  0
   42.5460   10.7660   45.1090 C   0  0  0  0  0  0  0  0  0  0  0  0
   43.6440   10.4570   45.6630 O   0  0  0  0  0  0  0  0  0  0  0  0
   41.9440    9.9960   44.1350 C   0  0  0  0  0  0  0  0  0  0  0  0
   40.8340   10.6390   43.8120 C   0  0  0  0  0  0  0  0  0  0  0  0
   40.2540    9.8730   42.8580 N   0  0  0  0  0  0  0  0  0  0  0  0
   40.9880    8.8030   42.6130 N   0  0  0  0  0  0  0  0  0  0  0  0
   42.0380    8.8590   43.3910 N   0  0  0  0  0  0  0  0  0  0  0  0
   40.7490   11.7930   44.5750 C   0  0  0  0  0  0  0  0  0  0  0  0
   39.7960   12.6350   44.5040 O   0  0  0  0  0  0  0  0  0  0  0  0
   39.3560   10.0780   42.3720 H   0  0  0  0  0  0  0  0  0  0  0  0
   40.7740    8.0520   41.9260 H   0  0  0  0  0  0  0  0  0  0  0  0
   42.0990   12.9080   46.3210 C   0  0  0  0  0  0  0  0  0  0  0  0
   41.6520   12.8430   47.6250 C   0  0  0  0  0  0  0  0  0  0  0  0
   40.5380   11.1330   48.1860 I   0  0  0  0  0  0  0  0  0  0  0  0
   41.9070   13.8370   48.5480 C   0  0  0  0  0  3  0  0  0  0  0  0
   42.6330   14.9560   48.1940 C   0  0  0  0  0  3  0  0  0  0  0  0
   43.0840   15.0320   46.8930 C   0  0  0  0  0  3  0  0  0  0  0  0
   42.8250   14.0290   45.9750 C   0  0  0  0  0  3  0  0  0  0  0  0
   43.1130    7.9340   43.4900 C   0  0  0  0  0  0  0  0  0  0  0  0
   42.9570    6.6880   44.0540 C   0  0  0  0  0  3  0  0  0  0  0  0
   44.0240    5.8090   44.1350 C   0  0  0  0  0  3  0  0  0  0  0  0
   45.2770    6.1380   43.6600 C   0  0  0  0  0  3  0  0  0  0  0  0
   45.4350    7.3860   43.0950 C   0  0  0  0  0  3  0  0  0  0  0  0
   44.3820    8.2640   43.0110 C   0  0  0  0  0  3  0  0  0  0  0  0
  1 13  1  0  0  0  0
  2  1  1  0  0  0  0
  2  3  2  0  0  0  0
  4  2  1  0  0  0  0
  5  4  2  0  0  0  0
  5  9  1  0  0  0  0
  6  5  1  0  0  0  0
  7  6  1  0  0  0  0
  7  8  1  0  0  0  0
  8 20  1  0  0  0  0
  8  4  1  0  0  0  0
  9  1  1  0  0  0  0
 10  9  2  0  0  0  0
 11  6  1  0  0  0  0
 12  7  1  0  0  0  0
 13 14  1  0  0  0  0
 14 15  1  0  0  0  0
 14 16  2  0  0  0  0
 17 16  1  0  0  0  0
 18 17  2  0  0  0  0
 19 13  2  0  0  0  0
 19 18  1  0  0  0  0
 20 21  1  0  0  0  0
 21 22  2  0  0  0  0
 23 22  1  0  0  0  0
 24 23  2  0  0  0  0
 25 24  1  0  0  0  0
 25 20  2  0  0  0  0
M  END
>  <Pose>
1

>  <Score>
-7.476

$$$$
