/Users/jonathanwahrer/Desktop/Msc/3_Semester/Drug_Design_Praktikum/waehrer_HTS_screening/HTS_experiment/out/docking_results/vina_output/2qfa/0920_docked.pdbqt
 OpenBabel03162220103D

 24 27  0  0  1  0  0  0  0  0999 V2000
   40.5610   11.1920   44.2710 N   0  0  0  0  0  0  0  0  0  0  0  0
   41.1990   10.2490   44.8930 C   0  0  1  0  0  3  0  0  0  0  0  0
   41.3210    9.4840   46.5170 S   0  0  0  0  0  0  0  0  0  0  0  0
   42.5620    8.3170   46.0070 C   0  0  0  0  0  3  0  0  0  0  0  0
   42.8300    8.5130   44.7350 C   0  0  0  0  0  0  0  0  0  0  0  0
   42.1090    9.5520   44.0970 N   0  0  0  0  0  0  0  0  0  0  0  0
   42.0230   10.1590   42.7440 C   0  0  0  0  0  3  0  0  0  0  0  0
   41.0430   11.2660   42.9200 C   0  0  0  0  0  3  0  0  0  0  0  0
   39.5840   12.0410   44.8430 C   0  0  0  0  0  2  0  0  0  0  0  0
   39.9360   13.1050   45.7450 C   0  0  2  0  0  3  0  0  0  0  0  0
   38.9120   13.5530   46.4220 O   0  0  0  0  0  1  0  0  0  0  0  0
   41.1730   13.7710   46.0510 C   0  0  0  0  0  0  0  0  0  0  0  0
   42.3870   13.2720   45.6900 C   0  0  0  0  0  3  0  0  0  0  0  0
   43.5470   13.9230   46.0120 C   0  0  0  0  0  3  0  0  0  0  0  0
   43.5680   15.1120   46.7160 C   0  0  0  0  0  0  0  0  0  0  0  0
   45.3040   16.1390   47.2310 I   0  0  0  0  0  0  0  0  0  0  0  0
   42.3200   15.6170   47.0820 C   0  0  0  0  0  3  0  0  0  0  0  0
   41.1730   14.9700   46.7620 C   0  0  0  0  0  3  0  0  0  0  0  0
   43.8590    7.6390   44.0970 C   0  0  0  0  0  0  0  0  0  0  0  0
   44.8730    8.1450   43.3270 C   0  0  0  0  0  3  0  0  0  0  0  0
   45.8470    7.3170   42.7340 C   0  0  0  0  0  3  0  0  0  0  0  0
   45.8010    5.9550   42.9190 C   0  0  0  0  0  3  0  0  0  0  0  0
   44.7880    5.4430   43.6890 C   0  0  0  0  0  3  0  0  0  0  0  0
   43.8320    6.2670   44.2700 C   0  0  0  0  0  3  0  0  0  0  0  0
  1  9  1  0  0  0  0
  1  2  1  0  0  0  0
  2  3  1  6  0  0  0
  4  3  1  0  0  0  0
  5  4  2  0  0  0  0
  6  5  1  0  0  0  0
  6  2  1  0  0  0  0
  7  8  2  0  0  0  0
  7  6  1  0  0  0  0
  8  1  1  0  0  0  0
  9 10  1  0  0  0  0
 10 12  1  0  0  0  0
 10 11  1  6  0  0  0
 12 18  1  0  0  0  0
 13 14  1  0  0  0  0
 13 12  2  0  0  0  0
 14 15  2  0  0  0  0
 15 17  1  0  0  0  0
 15 16  1  0  0  0  0
 18 17  2  0  0  0  0
 19 24  1  0  0  0  0
 19  5  1  0  0  0  0
 20 19  2  0  0  0  0
 21 22  2  0  0  0  0
 21 20  1  0  0  0  0
 22 23  1  0  0  0  0
 23 24  2  0  0  0  0
M  END
>  <Pose>
1

>  <Score>
-7.172

$$$$
