/Users/jonathanwahrer/Desktop/Msc/3_Semester/Drug_Design_Praktikum/waehrer_HTS_screening/HTS_experiment/out/docking_results/vina_output/2qfa/0937_docked.pdbqt
 OpenBabel03162220113D

 26 29  0  0  1  0  0  0  0  0999 V2000
   40.7550   12.0050   44.8570 N   0  0  0  0  0  0  0  0  0  0  0  0
   41.3780   11.5950   43.6510 C   0  0  0  0  0  0  0  0  0  0  0  0
   40.9040   11.8230   42.5080 O   0  0  0  0  0  0  0  0  0  0  0  0
   42.6460   10.8780   43.9610 C   0  0  1  0  0  3  0  0  0  0  0  0
   43.0520   11.5350   45.2700 C   0  0  0  0  0  2  0  0  0  0  0  0
   41.7860   12.0350   45.8420 C   0  0  0  0  0  0  0  0  0  0  0  0
   41.6050   12.4400   47.0270 O   0  0  0  0  0  0  0  0  0  0  0  0
   42.3630    9.5080   44.0790 N   0  0  1  0  0  0  0  0  0  0  0  0
   42.2870    8.6840   42.9560 C   0  0  0  0  0  2  0  0  0  0  0  0
   42.6200    7.2440   43.4270 C   0  0  0  0  0  2  0  0  0  0  0  0
   43.8440    7.3010   44.2120 N   0  0  0  0  0  0  0  0  0  0  0  0
   43.8080    8.1210   45.3980 C   0  0  0  0  0  2  0  0  0  0  0  0
   42.5120    8.9260   45.3510 C   0  0  0  0  0  2  0  0  0  0  0  0
   44.9990    6.5930   43.8200 C   0  0  0  0  0  0  0  0  0  0  0  0
   46.1940    7.2310   43.6920 N   0  0  0  0  0  0  0  0  0  0  0  0
   47.3200    6.6160   43.3360 C   0  0  0  0  0  3  0  0  0  0  0  0
   47.3160    5.2530   43.0710 C   0  0  0  0  0  3  0  0  0  0  0  0
   46.0970    4.6100   43.2020 C   0  0  0  0  0  3  0  0  0  0  0  0
   44.9880    5.2690   43.5650 N   0  0  0  0  0  0  0  0  0  0  0  0
   39.3700   12.3310   45.0790 C   0  0  0  0  0  0  0  0  0  0  0  0
   38.5160   11.3700   45.5750 C   0  0  0  0  0  3  0  0  0  0  0  0
   37.1800   11.6350   45.8030 C   0  0  0  0  0  3  0  0  0  0  0  0
   36.6510   12.8810   45.5380 C   0  0  0  0  0  0  0  0  0  0  0  0
   34.6140   13.3290   45.8710 I   0  0  0  0  0  0  0  0  0  0  0  0
   37.4900   13.8540   45.0400 C   0  0  0  0  0  3  0  0  0  0  0  0
   38.8230   13.5660   44.8210 C   0  0  0  0  0  3  0  0  0  0  0  0
  1 20  1  0  0  0  0
  1  6  1  0  0  0  0
  2  4  1  0  0  0  0
  2  1  1  0  0  0  0
  3  2  2  0  0  0  0
  4  8  1  0  0  0  0
  4  5  1  1  0  0  0
  5  6  1  0  0  0  0
  6  7  2  0  0  0  0
  8  9  1  6  0  0  0
  8 13  1  0  0  0  0
  9 10  1  0  0  0  0
 10 11  1  0  0  0  0
 11 12  1  0  0  0  0
 13 12  1  0  0  0  0
 14 11  1  0  0  0  0
 15 14  2  0  0  0  0
 16 15  1  0  0  0  0
 17 18  1  0  0  0  0
 17 16  2  0  0  0  0
 18 19  2  0  0  0  0
 19 14  1  0  0  0  0
 20 21  1  0  0  0  0
 21 22  2  0  0  0  0
 23 22  1  0  0  0  0
 23 24  1  0  0  0  0
 25 23  2  0  0  0  0
 26 25  1  0  0  0  0
 26 20  2  0  0  0  0
M  END
>  <Pose>
1

>  <Score>
-7.073

$$$$
