/Users/jonathanwahrer/Desktop/Msc/3_Semester/Drug_Design_Praktikum/waehrer_HTS_screening/HTS_experiment/out/docking_results/vina_output/2qfa/0950_docked.pdbqt
 OpenBabel03162220113D

 26 29  0  0  0  0  0  0  0  0999 V2000
   46.6420    6.7380   43.9120 C   0  0  0  0  0  0  0  0  0  0  0  0
   46.7330    5.9750   42.7440 C   0  0  0  0  0  0  0  0  0  0  0  0
   46.0500    6.0310   41.5880 N   0  0  0  0  0  0  0  0  0  0  0  0
   46.5030    5.1040   40.7960 O   0  0  0  0  0  0  0  0  0  0  0  0
   47.4530    4.4390   41.3780 N   0  0  0  0  0  0  0  0  0  0  0  0
   47.6350    4.9520   42.6100 C   0  0  0  0  0  0  0  0  0  0  0  0
   48.4880    4.6500   43.6500 C   0  0  0  0  0  0  0  0  0  0  0  0
   48.3900    5.4050   44.7910 C   0  0  0  0  0  3  0  0  0  0  0  0
   47.4710    6.4520   44.9380 C   0  0  0  0  0  3  0  0  0  0  0  0
   45.6740    7.7690   43.9380 N   0  0  0  0  0  0  0  0  0  0  0  0
   44.3490    7.6670   44.3410 C   0  0  0  0  0  0  0  0  0  0  0  0
   43.8900    6.5410   44.7410 O   0  0  0  0  0  0  0  0  0  0  0  0
   45.9690    8.7400   43.6040 H   0  0  0  0  0  0  0  0  0  0  0  0
   43.3830    8.7800   44.3500 C   0  0  0  0  0  0  0  0  0  0  0  0
   42.8190    9.4880   45.3540 C   0  0  0  0  0  0  0  0  0  0  0  0
   43.0570    9.2430   47.4100 I   0  0  0  0  0  0  0  0  0  0  0  0
   41.9940   10.4500   44.7700 C   0  0  0  0  0  3  0  0  0  0  0  0
   42.0640   10.3160   43.4450 N   0  0  0  0  0  0  0  0  0  0  0  0
   42.8810    9.3320   43.1930 N   0  0  0  0  0  0  0  0  0  0  0  0
   41.3350   11.1490   42.4780 C   0  0  0  0  0  1  0  0  0  0  0  0
   49.4140    3.5880   43.4920 N   0  0  0  0  0  0  0  0  0  0  0  0
   49.2030    2.5670   42.4860 C   0  0  0  0  0  2  0  0  0  0  0  0
   50.3620    1.6340   42.4910 C   0  0  0  0  0  2  0  0  0  0  0  0
   51.5940    2.2580   42.4610 O   0  0  0  0  0  0  0  0  0  0  0  0
   51.8180    3.1430   43.4670 C   0  0  0  0  0  2  0  0  0  0  0  0
   50.6050    3.4540   44.3070 C   0  0  0  0  0  2  0  0  0  0  0  0
  1 10  1  0  0  0  0
  1  9  2  0  0  0  0
  2  1  1  0  0  0  0
  3  2  2  0  0  0  0
  4  5  1  0  0  0  0
  4  3  1  0  0  0  0
  5  6  2  0  0  0  0
  6  2  1  0  0  0  0
  6  7  1  0  0  0  0
  7  8  2  0  0  0  0
  8  9  1  0  0  0  0
 10 11  1  0  0  0  0
 11 14  1  0  0  0  0
 11 12  2  0  0  0  0
 13 10  1  0  0  0  0
 14 15  1  0  0  0  0
 15 16  1  0  0  0  0
 17 15  2  0  0  0  0
 18 17  1  0  0  0  0
 19 18  1  0  0  0  0
 19 14  2  0  0  0  0
 20 18  1  0  0  0  0
 21  7  1  0  0  0  0
 21 26  1  0  0  0  0
 22 23  1  0  0  0  0
 22 21  1  0  0  0  0
 24 23  1  0  0  0  0
 24 25  1  0  0  0  0
 25 26  1  0  0  0  0
M  END
>  <Pose>
1

>  <Score>
-7.933

$$$$
