/Users/jonathanwahrer/Desktop/Msc/3_Semester/Drug_Design_Praktikum/waehrer_HTS_screening/HTS_experiment/out/docking_results/vina_output/2qfa/0969_docked.pdbqt
 OpenBabel03162220123D

 31 34  0  0  1  0  0  0  0  0999 V2000
   37.2490   15.2210   48.7870 Br  0  0  0  0  0  0  0  0  0  0  0  0
   37.8010   13.8970   47.5390 C   0  0  0  0  0  0  0  0  0  0  0  0
   39.1020   13.8020   47.0520 C   0  0  0  0  0  0  0  0  0  0  0  0
   39.4540   12.8180   46.1420 C   0  0  0  0  0  0  0  0  0  0  0  0
   38.5100   11.9130   45.7030 C   0  0  0  0  0  2  0  0  0  0  0  0
   37.2300   12.0000   46.1760 C   0  0  0  0  0  0  0  0  0  0  0  0
   36.8890   12.9760   47.0770 C   0  0  0  0  0  0  0  0  0  0  0  0
   35.5530   13.0010   47.5200 O   0  0  0  0  0  1  0  0  0  0  0  0
   35.9680   10.7070   45.5260 Br  0  0  0  0  0  0  0  0  0  0  0  0
   40.7340   12.7020   45.6440 C   0  0  0  0  0  0  0  0  0  0  0  0
   41.6710   13.6100   46.0890 C   0  0  0  0  0  0  0  0  0  0  0  0
   41.2100   14.6170   47.0520 C   0  0  0  0  0  0  0  0  0  0  0  0
   42.1700   15.5300   47.4910 C   0  0  1  0  0  3  0  0  0  0  0  0
   43.4640   15.4630   47.0300 C   0  0  0  0  0  0  0  0  0  0  0  0
   44.2950   16.3060   47.4550 O   0  0  0  0  0  0  0  0  0  0  0  0
   43.8700   14.4960   46.1170 C   0  0  0  0  0  0  0  0  0  0  0  0
   42.9840   13.5720   45.6460 C   0  0  0  0  0  3  0  0  0  0  0  0
   45.6890   14.4760   45.5300 Br  0  0  0  0  0  0  0  0  0  0  0  0
   41.6360   16.8790   48.7520 Br  0  0  0  0  0  0  0  0  0  0  0  0
   39.9740   14.6740   47.4870 O   0  0  0  0  0  0  0  0  0  0  0  0
   41.1010   11.6670   44.6760 C   0  0  0  0  0  0  0  0  0  0  0  0
   40.8790   11.8550   43.3250 C   0  0  0  0  0  0  0  0  0  0  0  0
   41.2110   10.8940   42.3940 C   0  0  0  0  0  3  0  0  0  0  0  0
   40.1490   13.3710   42.7830 Cl  0  0  0  0  0  0  0  0  0  0  0  0
   41.7800    9.7170   42.8360 C   0  0  0  0  0  3  0  0  0  0  0  0
   42.0170    9.4910   44.1570 C   0  0  0  0  0  0  0  0  0  0  0  0
   41.6780   10.4620   45.0730 C   0  0  0  0  0  0  0  0  0  0  0  0
   42.7470    7.9660   44.6320 Cl  0  0  0  0  0  0  0  0  0  0  0  0
   41.9210   10.2280   46.4760 C   0  0  0  0  0  0  0  0  0  0  0  0
   43.0440   10.4380   47.0110 O   0  0  0  0  0  0  0  0  0  0  0  0
   40.9010    9.7540   47.2980 O   0  0  0  0  0  1  0  0  0  0  0  0
  2  1  1  0  0  0  0
  3 20  1  0  0  0  0
  3  2  2  0  0  0  0
  4  3  1  0  0  0  0
  5  4  1  0  0  0  0
  5  6  1  0  0  0  0
  6  7  2  0  0  0  0
  7  8  1  0  0  0  0
  7  2  1  0  0  0  0
  9  6  1  0  0  0  0
 10 11  1  0  0  0  0
 10  4  2  0  0  0  0
 11 12  2  0  0  0  0
 12 20  1  0  0  0  0
 12 13  1  0  0  0  0
 13 19  1  6  0  0  0
 14 15  2  0  0  0  0
 14 13  1  0  0  0  0
 16 14  1  0  0  0  0
 17 11  1  0  0  0  0
 17 16  2  0  0  0  0
 18 16  1  0  0  0  0
 21 27  1  0  0  0  0
 21 10  1  0  0  0  0
 22 21  2  0  0  0  0
 23 25  2  0  0  0  0
 23 22  1  0  0  0  0
 24 22  1  0  0  0  0
 25 26  1  0  0  0  0
 26 28  1  0  0  0  0
 26 27  2  0  0  0  0
 27 29  1  0  0  0  0
 29 30  2  0  0  0  0
 29 31  1  0  0  0  0
M  END
>  <Pose>
1

>  <Score>
-6.834

$$$$
