/Users/jonathanwahrer/Desktop/Msc/3_Semester/Drug_Design_Praktikum/waehrer_HTS_screening/HTS_experiment/out/docking_results/vina_output/2qfa/0971_docked.pdbqt
 OpenBabel03162220123D

 29 33  0  0  1  0  0  0  0  0999 V2000
   40.9800   13.9700   51.1220 Br  0  0  0  0  0  0  0  0  0  0  0  0
   40.8890   12.7290   49.6760 C   0  0  0  0  0  0  0  0  0  0  0  0
   41.7450   12.8320   48.5650 C   0  0  0  0  0  0  0  0  0  0  0  0
   41.7120   11.9660   47.5120 C   0  0  0  0  0  0  0  0  0  0  0  0
   40.7750   10.9320   47.5570 C   0  0  0  0  0  3  0  0  0  0  0  0
   39.9440   10.8320   48.6340 C   0  0  0  0  0  0  0  0  0  0  0  0
   39.9740   11.7040   49.7030 C   0  0  0  0  0  0  0  0  0  0  0  0
   39.0870   11.5390   50.7800 O   0  0  0  0  0  1  0  0  0  0  0  0
   38.6610    9.4210   48.7040 Br  0  0  0  0  0  0  0  0  0  0  0  0
   42.6130   12.0990   46.3750 C   0  0  1  0  0  0  0  0  0  0  0  0
   43.4210   10.9240   46.3560 O   0  0  0  0  0  0  0  0  0  0  0  0
   43.2620   10.2080   45.2010 C   0  0  0  0  0  0  0  0  0  0  0  0
   43.8480    9.1380   44.9200 O   0  0  0  0  0  0  0  0  0  0  0  0
   42.2970   10.9440   44.4060 C   0  0  0  0  0  0  0  0  0  0  0  0
   41.8870   12.0770   45.0720 C   0  0  0  0  0  0  0  0  0  0  0  0
   40.9810   12.8830   44.4660 C   0  0  0  0  0  3  0  0  0  0  0  0
   40.4960   12.5590   43.2170 C   0  0  0  0  0  3  0  0  0  0  0  0
   40.9040   11.4250   42.5470 C   0  0  0  0  0  3  0  0  0  0  0  0
   41.8200   10.6000   43.1450 C   0  0  0  0  0  3  0  0  0  0  0  0
   43.5300   13.2290   46.4790 C   0  0  0  0  0  0  0  0  0  0  0  0
   43.5160   14.0640   47.5620 C   0  0  0  0  0  0  0  0  0  0  0  0
   44.4100   15.1510   47.6460 C   0  0  0  0  0  0  0  0  0  0  0  0
   45.2990   15.3580   46.6180 C   0  0  0  0  0  0  0  0  0  0  0  0
   45.3200   14.5150   45.5160 C   0  0  0  0  0  0  0  0  0  0  0  0
   44.4500   13.4640   45.4410 C   0  0  0  0  0  3  0  0  0  0  0  0
   46.5470   14.7890   44.0840 Br  0  0  0  0  0  0  0  0  0  0  0  0
   46.1730   16.4300   46.7130 O   0  0  0  0  0  1  0  0  0  0  0  0
   44.3590   16.2970   49.1770 Br  0  0  0  0  0  0  0  0  0  0  0  0
   42.6410   13.9030   48.6270 O   0  0  0  0  0  0  0  0  0  0  0  0
  2  7  1  0  0  0  0
  2  1  1  0  0  0  0
  3 29  1  0  0  0  0
  3  2  2  0  0  0  0
  4  5  2  0  0  0  0
  4  3  1  0  0  0  0
  5  6  1  0  0  0  0
  6  9  1  0  0  0  0
  6  7  2  0  0  0  0
  7  8  1  0  0  0  0
 10 15  1  6  0  0  0
 10 20  1  0  0  0  0
 10  4  1  0  0  0  0
 11 10  1  0  0  0  0
 12 11  1  0  0  0  0
 13 12  2  0  0  0  0
 14 15  1  0  0  0  0
 14 12  1  0  0  0  0
 16 15  2  0  0  0  0
 17 16  1  0  0  0  0
 18 19  1  0  0  0  0
 18 17  2  0  0  0  0
 19 14  2  0  0  0  0
 20 21  1  0  0  0  0
 21 22  2  0  0  0  0
 21 29  1  0  0  0  0
 22 28  1  0  0  0  0
 23 27  1  0  0  0  0
 23 22  1  0  0  0  0
 24 23  2  0  0  0  0
 25 24  1  0  0  0  0
 25 20  2  0  0  0  0
 26 24  1  0  0  0  0
M  END
>  <Pose>
1

>  <Score>
-6.990

$$$$
