/Users/jonathanwahrer/Desktop/Msc/3_Semester/Drug_Design_Praktikum/waehrer_HTS_screening/HTS_experiment/out/docking_results/vina_output/2qfa/0978_docked.pdbqt
 OpenBabel03162220123D

 33 37  0  0  1  0  0  0  0  0999 V2000
   37.2370   15.4690   48.9640 I   0  0  0  0  0  0  0  0  0  0  0  0
   37.6060   14.0140   47.4780 C   0  0  0  0  0  0  0  0  0  0  0  0
   38.9110   13.9040   47.0070 C   0  0  0  0  0  0  0  0  0  0  0  0
   39.1780   12.9780   46.0520 C   0  0  0  0  0  0  0  0  0  0  0  0
   38.1400   12.1730   45.5760 C   0  0  0  0  0  3  0  0  0  0  0  0
   36.8460   12.2750   46.0360 C   0  0  0  0  0  0  0  0  0  0  0  0
   36.5820   13.2190   47.0080 C   0  0  0  0  0  0  0  0  0  0  0  0
   35.2850   13.3390   47.4860 O   0  0  0  0  0  1  0  0  0  0  0  0
   35.3060   11.0280   45.2810 I   0  0  0  0  0  0  0  0  0  0  0  0
   40.5020   12.7800   45.4920 C   0  0  2  0  0  0  0  0  0  0  0  0
   40.5070   12.9950   44.0730 O   0  0  0  0  0  0  0  0  0  0  0  0
   40.9430   11.8940   43.3850 C   0  0  0  0  0  0  0  0  0  0  0  0
   41.0770   11.7210   42.1390 O   0  0  0  0  0  0  0  0  0  0  0  0
   41.2470   10.8820   44.3860 C   0  0  0  0  0  0  0  0  0  0  0  0
   40.9900   11.3970   45.6200 C   0  0  0  0  0  0  0  0  0  0  0  0
   41.2000   10.6270   46.7640 C   0  0  0  0  0  0  0  0  0  0  0  0
   41.6700    9.3340   46.6740 C   0  0  0  0  0  0  0  0  0  0  0  0
   41.9310    8.8090   45.4120 C   0  0  0  0  0  0  0  0  0  0  0  0
   41.7270    9.5640   44.2850 C   0  0  0  0  0  0  0  0  0  0  0  0
   42.0550    8.9000   42.7300 Cl  0  0  0  0  0  0  0  0  0  0  0  0
   42.5270    7.1830   45.2300 Cl  0  0  0  0  0  0  0  0  0  0  0  0
   41.9220    8.3970   48.1290 Cl  0  0  0  0  0  0  0  0  0  0  0  0
   40.8540   11.3450   48.3020 Cl  0  0  0  0  0  0  0  0  0  0  0  0
   41.5050   13.7030   46.0890 C   0  0  0  0  0  0  0  0  0  0  0  0
   41.2030   14.6160   47.0410 C   0  0  0  0  0  0  0  0  0  0  0  0
   42.2390   15.4190   47.5140 C   0  0  0  0  0  0  0  0  0  0  0  0
   43.5330   15.3170   47.0560 C   0  0  0  0  0  0  0  0  0  0  0  0
   43.8040   14.3750   46.0840 C   0  0  0  0  0  0  0  0  0  0  0  0
   42.8090   13.5690   45.5950 C   0  0  0  0  0  3  0  0  0  0  0  0
   45.7740   14.1950   45.3610 I   0  0  0  0  0  0  0  0  0  0  0  0
   44.5520   16.1070   47.5210 O   0  0  0  0  0  1  0  0  0  0  0  0
   41.7840   16.8380   48.9920 I   0  0  0  0  0  0  0  0  0  0  0  0
   39.9140   14.7460   47.5260 O   0  0  0  0  0  0  0  0  0  0  0  0
  2  1  1  0  0  0  0
  3  2  2  0  0  0  0
  3 33  1  0  0  0  0
  4  3  1  0  0  0  0
  5  6  1  0  0  0  0
  5  4  2  0  0  0  0
  6  7  2  0  0  0  0
  7  2  1  0  0  0  0
  7  8  1  0  0  0  0
  9  6  1  0  0  0  0
 10 11  1  6  0  0  0
 10 15  1  0  0  0  0
 10  4  1  0  0  0  0
 10 24  1  0  0  0  0
 12 11  1  0  0  0  0
 12 14  1  0  0  0  0
 13 12  2  0  0  0  0
 14 15  1  0  0  0  0
 15 16  2  0  0  0  0
 16 23  1  0  0  0  0
 17 16  1  0  0  0  0
 17 22  1  0  0  0  0
 18 17  2  0  0  0  0
 19 14  2  0  0  0  0
 19 18  1  0  0  0  0
 20 19  1  0  0  0  0
 21 18  1  0  0  0  0
 24 25  1  0  0  0  0
 25 26  2  0  0  0  0
 25 33  1  0  0  0  0
 26 32  1  0  0  0  0
 27 26  1  0  0  0  0
 27 31  1  0  0  0  0
 28 27  2  0  0  0  0
 29 28  1  0  0  0  0
 29 24  2  0  0  0  0
 30 28  1  0  0  0  0
M  END
>  <Pose>
1

>  <Score>
-7.188

$$$$
