/Users/jonathanwahrer/Desktop/Msc/3_Semester/Drug_Design_Praktikum/waehrer_HTS_screening/HTS_experiment/out/docking_results/vina_output/2qfa/0980_docked.pdbqt
 OpenBabel03162220123D

 27 30  0  0  1  0  0  0  0  0999 V2000
   42.5550   16.2120   47.4520 I   0  0  0  0  0  0  0  0  0  0  0  0
   43.0120   14.4540   46.3850 C   0  0  0  0  0  0  0  0  0  0  0  0
   42.0760   13.4680   46.1400 C   0  0  0  0  0  0  0  0  0  0  0  0
   42.3710   12.3160   45.4430 C   0  0  0  0  0  0  0  0  0  0  0  0
   43.6650   12.1650   44.9790 C   0  0  0  0  0  2  0  0  0  0  0  0
   44.6120   13.1490   45.2200 C   0  0  0  0  0  3  0  0  0  0  0  0
   44.3060   14.3060   45.9250 C   0  0  0  0  0  0  0  0  0  0  0  0
   45.2950   15.2630   46.1380 O   0  0  0  0  0  1  0  0  0  0  0  0
   41.4500   11.3210   45.1880 C   0  0  0  0  0  0  0  0  0  0  0  0
   40.1690   11.5420   45.6850 C   0  0  0  0  0  0  0  0  0  0  0  0
   39.8960   12.7740   46.4190 C   0  0  0  0  0  0  0  0  0  0  0  0
   38.6080   12.9360   46.8850 C   0  0  1  0  0  3  0  0  0  0  0  0
   37.6140   12.0020   46.6840 C   0  0  0  0  0  0  0  0  0  0  0  0
   36.4370   12.1690   47.1210 O   0  0  0  0  0  0  0  0  0  0  0  0
   37.8720   10.8360   45.9900 C   0  0  0  0  0  3  0  0  0  0  0  0
   39.1520   10.6440   45.5100 C   0  0  0  0  0  3  0  0  0  0  0  0
   38.1190   14.6790   47.9530 I   0  0  0  0  0  0  0  0  0  0  0  0
   40.8610   13.6440   46.5930 O   0  0  0  0  0  0  0  0  0  0  0  0
   41.7580   10.1010   44.4500 C   0  0  0  0  0  0  0  0  0  0  0  0
   42.2100    8.9940   45.1620 C   0  0  0  0  0  0  0  0  0  0  0  0
   42.5110    7.8260   44.5130 C   0  0  0  0  0  3  0  0  0  0  0  0
   42.3670    7.7500   43.1450 C   0  0  0  0  0  3  0  0  0  0  0  0
   41.9210    8.8310   42.4180 C   0  0  0  0  0  3  0  0  0  0  0  0
   41.6230    9.9950   43.0910 C   0  0  0  0  0  3  0  0  0  0  0  0
   42.3670    9.0620   46.6120 C   0  0  0  0  0  0  0  0  0  0  0  0
   43.4250    9.4380   47.1630 O   0  0  0  0  0  0  0  0  0  0  0  0
   41.3230    8.7020   47.4520 O   0  0  0  0  0  1  0  0  0  0  0  0
  2  1  1  0  0  0  0
  3  2  2  0  0  0  0
  3 18  1  0  0  0  0
  4  3  1  0  0  0  0
  5  6  1  0  0  0  0
  5  4  1  0  0  0  0
  6  7  2  0  0  0  0
  7  8  1  0  0  0  0
  7  2  1  0  0  0  0
  9  4  2  0  0  0  0
  9 10  1  0  0  0  0
 10 11  2  0  0  0  0
 11 18  1  0  0  0  0
 11 12  1  0  0  0  0
 12 17  1  1  0  0  0
 13 12  1  0  0  0  0
 13 14  2  0  0  0  0
 15 13  1  0  0  0  0
 16 10  1  0  0  0  0
 16 15  2  0  0  0  0
 19 20  1  0  0  0  0
 19  9  1  0  0  0  0
 20 25  1  0  0  0  0
 21 20  2  0  0  0  0
 22 21  1  0  0  0  0
 23 24  1  0  0  0  0
 23 22  2  0  0  0  0
 24 19  2  0  0  0  0
 25 26  2  0  0  0  0
 25 27  1  0  0  0  0
M  END
>  <Pose>
1

>  <Score>
-6.833

$$$$
