/Users/jonathanwahrer/Desktop/Msc/3_Semester/Drug_Design_Praktikum/waehrer_HTS_screening/HTS_experiment/out/docking_results/vina_output/2qfa/0985_docked.pdbqt
 OpenBabel03162220133D

 28 31  0  0  1  0  0  0  0  0999 V2000
   42.7950   12.7380   45.5140 N   0  0  0  0  0  0  0  0  0  0  0  0
   41.5200   13.1350   45.6050 C   0  0  0  0  0  0  0  0  0  0  0  0
   40.3510   12.5090   45.2960 N   0  0  0  0  0  0  0  0  0  0  0  0
   39.1570   13.0730   45.4580 C   0  0  0  0  0  0  0  0  0  0  0  0
   39.1000   14.3240   45.9510 N   0  0  0  0  0  0  0  0  0  0  0  0
   40.2200   15.0010   46.2780 C   0  0  0  0  0  0  0  0  0  0  0  0
   41.4590   14.4180   46.1110 C   0  0  0  0  0  0  0  0  0  0  0  0
   42.7300   14.7900   46.3240 N   0  0  0  0  0  0  0  0  0  0  0  0
   43.5380   13.7660   45.9600 C   0  0  0  0  0  0  0  0  0  0  0  0
   45.4510   13.7540   46.0540 Br  0  0  0  0  0  0  0  0  0  0  0  0
   43.1900   11.4420   45.0190 C   0  0  2  0  0  3  0  0  0  0  0  0
   42.4140   11.0350   43.9350 O   0  0  0  0  0  0  0  0  0  0  0  0
   42.8980    9.7680   43.7170 C   0  0  1  0  0  3  0  0  0  0  0  0
   42.7530    9.1370   45.1070 C   0  0  1  0  0  3  0  0  0  0  0  0
   42.1250    8.9480   42.7540 C   0  0  0  0  0  2  0  0  0  0  0  0
   43.8220    8.2540   45.2370 O   0  0  0  0  0  0  0  0  0  0  0  0
   42.8820   10.3340   46.0240 C   0  0  1  0  0  3  0  0  0  0  0  0
   44.0020    7.4940   43.7190 P   0  0  2  0  0  0  0  0  0  0  0  0
   45.2680    7.9530   43.0300 O   0  0  0  0  0  0  0  0  0  0  0  0
   42.6420    7.6480   42.7690 O   0  0  0  0  0  0  0  0  0  0  0  0
   44.2280    5.8320   44.0610 O   0  0  0  0  0  1  0  0  0  0  0  0
   43.8640   10.1910   46.9720 O   0  0  0  0  0  0  0  0  0  0  0  0
   44.1330   11.0970   47.3260 H   0  0  0  0  0  0  0  0  0  0  0  0
   37.9610   12.3770   45.1190 N   0  0  0  0  0  0  0  0  0  0  0  0
   37.7260   12.3210   44.1050 H   0  0  0  0  0  0  0  0  0  0  0  0
   37.3380   11.9400   45.8440 H   0  0  0  0  0  0  0  0  0  0  0  0
   40.1660   16.2940   46.7890 O   0  0  0  0  0  0  0  0  0  0  0  0
   39.4900   16.4480   47.5520 H   0  0  0  0  0  0  0  0  0  0  0  0
  1  2  1  0  0  0  0
  1  9  1  0  0  0  0
  2  7  2  0  0  0  0
  3  4  2  0  0  0  0
  3  2  1  0  0  0  0
  4  5  1  0  0  0  0
  5  6  2  0  0  0  0
  6 27  1  0  0  0  0
  7  6  1  0  0  0  0
  7  8  1  0  0  0  0
  9 10  1  0  0  0  0
  9  8  2  0  0  0  0
 11  1  1  1  0  0  0
 11 17  1  0  0  0  0
 12 11  1  0  0  0  0
 13 15  1  6  0  0  0
 13 12  1  0  0  0  0
 13 14  1  0  0  0  0
 14 16  1  1  0  0  0
 14 17  1  0  0  0  0
 15 20  1  0  0  0  0
 17 22  1  1  0  0  0
 18 19  2  6  0  0  0
 18 21  1  0  0  0  0
 18 16  1  0  0  0  0
 20 18  1  0  0  0  0
 22 23  1  0  0  0  0
 24  4  1  0  0  0  0
 24 26  1  0  0  0  0
 25 24  1  0  0  0  0
 27 28  1  0  0  0  0
M  END
>  <Pose>
1

>  <Score>
-6.497

$$$$
