/Users/jonathanwahrer/Desktop/Msc/3_Semester/Drug_Design_Praktikum/waehrer_HTS_screening/HTS_experiment/out/docking_results/vina_output/2qfa/0993_docked.pdbqt
 OpenBabel03162220133D

 26 29  0  0  1  0  0  0  0  0999 V2000
   43.8900    9.0410   50.0900 P   0  0  2  0  0  0  0  0  0  0  0  0
   43.8130   10.7160   50.5740 S   0  0  0  0  0  1  0  0  0  0  0  0
   44.3030    8.9390   48.4360 O   0  0  0  0  0  0  0  0  0  0  0  0
   43.2000    9.3450   47.7260 C   0  0  2  0  0  3  0  0  0  0  0  0
   42.0480    8.3730   48.0130 C   0  0  2  0  0  3  0  0  0  0  0  0
   41.1770    8.7140   46.9800 O   0  0  0  0  0  0  0  0  0  0  0  0
   41.9430    8.7430   45.8400 C   0  0  2  0  0  3  0  0  0  0  0  0
   43.3460    9.1350   46.2300 C   0  0  2  0  0  3  0  0  0  0  0  0
   41.4660    8.6060   49.3730 C   0  0  0  0  0  2  0  0  0  0  0  0
   42.4210    8.2790   50.3180 O   0  0  0  0  0  0  0  0  0  0  0  0
   45.0990    8.3010   50.9730 O   0  0  0  0  0  0  0  0  0  0  0  0
   41.4750    9.7130   44.8680 N   0  0  0  0  0  0  0  0  0  0  0  0
   40.9240   10.9090   45.1930 C   0  0  0  0  0  0  0  0  0  0  0  0
   40.6690   11.4980   46.3900 N   0  0  0  0  0  0  0  0  0  0  0  0
   40.5950   11.5730   44.0290 C   0  0  0  0  0  0  0  0  0  0  0  0
   40.1020   12.7190   46.4590 C   0  0  0  0  0  3  0  0  0  0  0  0
   39.7770   13.3750   45.3180 N   0  0  0  0  0  0  0  0  0  0  0  0
   40.0130   12.8250   44.1130 C   0  0  0  0  0  0  0  0  0  0  0  0
   40.9480   10.7800   43.0010 N   0  0  0  0  0  0  0  0  0  0  0  0
   41.4810    9.6540   43.5260 C   0  0  0  0  0  0  0  0  0  0  0  0
   42.1690    8.1410   42.5650 Br  0  0  0  0  0  0  0  0  0  0  0  0
   39.6650   13.5310   42.9180 N   0  0  0  0  0  0  0  0  0  0  0  0
   39.5720   12.9810   42.0200 H   0  0  0  0  0  0  0  0  0  0  0  0
   39.5030   14.5570   42.9020 H   0  0  0  0  0  0  0  0  0  0  0  0
   44.1500    8.0000   46.0640 O   0  0  0  0  0  0  0  0  0  0  0  0
   44.8090    8.0970   45.3510 H   0  0  0  0  0  0  0  0  0  0  0  0
  1 10  1  0  0  0  0
  1  2  1  1  0  0  0
  1 11  2  0  0  0  0
  3  1  1  0  0  0  0
  4  5  1  0  0  0  0
  4  3  1  1  0  0  0
  5  9  1  1  0  0  0
  6  5  1  0  0  0  0
  7 12  1  6  0  0  0
  7  8  1  0  0  0  0
  7  6  1  0  0  0  0
  8 25  1  1  0  0  0
  8  4  1  0  0  0  0
  9 10  1  0  0  0  0
 12 13  1  0  0  0  0
 13 14  1  0  0  0  0
 14 16  2  0  0  0  0
 15 18  1  0  0  0  0
 15 13  2  0  0  0  0
 17 16  1  0  0  0  0
 18 17  2  0  0  0  0
 19 20  2  0  0  0  0
 19 15  1  0  0  0  0
 20 12  1  0  0  0  0
 21 20  1  0  0  0  0
 22 18  1  0  0  0  0
 23 22  1  0  0  0  0
 24 22  1  0  0  0  0
 26 25  1  0  0  0  0
M  END
>  <Pose>
1

>  <Score>
-5.712

$$$$
