/Users/jonathanwahrer/Desktop/Msc/3_Semester/Drug_Design_Praktikum/waehrer_HTS_screening/HTS_experiment/out/docking_results/vina_output/2qfa/0999_docked.pdbqt
 OpenBabel03162220143D

 35 39  0  0  1  0  0  0  0  0999 V2000
   41.1100    9.1160   45.8200 N   0  0  0  0  0  0  0  0  0  0  0  0
   42.0770    8.1080   46.0570 C   0  0  0  0  0  0  0  0  0  0  0  0
   42.0950    7.5540   47.1890 O   0  0  0  0  0  0  0  0  0  0  0  0
   41.1140    9.5640   44.8690 H   0  0  0  0  0  0  0  0  0  0  0  0
   40.1980    9.4690   46.8590 C   0  0  1  0  0  3  0  0  0  0  0  0
   40.4610   10.6820   47.6470 C   0  0  1  0  0  0  0  0  0  0  0  0
   42.1180   11.1120   48.1770 S   0  0  0  0  0  0  0  0  0  0  0  0
   40.1710   11.4050   46.4500 N   0  0  0  0  0  0  0  0  0  0  0  0
   41.9190   12.9310   48.1280 C   0  0  0  0  0  2  0  0  0  0  0  0
   41.5980   13.2720   46.6660 C   0  0  0  0  0  0  0  0  0  0  0  0
   40.8040   12.5720   45.9180 C   0  0  0  0  0  0  0  0  0  0  0  0
   39.1710   10.4180   46.2630 C   0  0  1  0  0  0  0  0  0  0  0  0
   38.0220   10.2150   45.8560 O   0  0  0  0  0  1  0  0  0  0  0  0
   42.3080   14.4600   46.2690 C   0  0  0  0  0  2  0  0  0  0  0  0
   43.6450   14.6180   46.4220 O   0  0  0  0  0  0  0  0  0  0  0  0
   44.5910   14.0580   45.5560 C   0  0  0  0  0  0  0  0  0  0  0  0
   44.3040   12.9650   45.0330 O   0  0  0  0  0  0  0  0  0  0  0  0
   45.8540   14.8020   45.3330 C   0  0  0  0  0  1  0  0  0  0  0  0
   40.4790   12.8960   44.4980 C   0  0  0  0  0  0  0  0  0  0  0  0
   40.9200   12.3480   43.5110 O   0  0  0  0  0  0  0  0  0  0  0  0
   39.5690   13.9380   44.2380 O   0  0  0  0  0  1  0  0  0  0  0  0
   43.0430    7.6980   45.0330 C   0  0  0  0  0  0  0  0  0  0  0  0
   44.2890    7.3650   45.1620 O   0  0  0  0  0  0  0  0  0  0  0  0
   44.8380    7.0580   44.0320 C   0  0  0  0  0  0  0  0  0  0  0  0
   43.8590    7.2000   43.0420 C   0  0  0  0  0  3  0  0  0  0  0  0
   42.7270    7.6070   43.6960 C   0  0  0  0  0  3  0  0  0  0  0  0
   46.2580    6.6220   43.7700 C   0  0  0  0  0  2  0  0  0  0  0  0
   46.2890    5.3580   43.1600 O   0  0  0  0  0  0  0  0  0  0  0  0
   47.3550    4.5060   43.1260 C   0  0  0  0  0  0  0  0  0  0  0  0
   48.4130    4.5280   44.0310 C   0  0  0  0  0  3  0  0  0  0  0  0
   49.4380    3.6190   43.9050 C   0  0  0  0  0  3  0  0  0  0  0  0
   49.4860    2.6640   42.9160 C   0  0  0  0  0  0  0  0  0  0  0  0
   48.4380    2.6340   42.0110 C   0  0  0  0  0  3  0  0  0  0  0  0
   50.9340    1.4290   42.7910 Br  0  0  0  0  0  0  0  0  0  0  0  0
   47.4000    3.5490   42.1330 C   0  0  0  0  0  3  0  0  0  0  0  0
  1  2  1  0  0  0  0
  2  3  2  0  0  0  0
  4  1  1  0  0  0  0
  5  1  1  6  0  0  0
  5  6  1  0  0  0  0
  6  7  1  1  0  0  0
  8  6  1  0  0  0  0
  9  7  1  0  0  0  0
 10  9  1  0  0  0  0
 11  8  1  0  0  0  0
 11 10  2  0  0  0  0
 12 13  1  6  0  0  0
 12  8  1  0  0  0  0
 12  5  1  0  0  0  0
 12  6  1  0  0  0  0
 14 15  1  0  0  0  0
 14 10  1  0  0  0  0
 16 15  1  0  0  0  0
 17 16  2  0  0  0  0
 18 16  1  0  0  0  0
 19 11  1  0  0  0  0
 20 19  2  0  0  0  0
 21 19  1  0  0  0  0
 22 23  1  0  0  0  0
 22  2  1  0  0  0  0
 24 23  1  0  0  0  0
 25 26  1  0  0  0  0
 25 24  2  0  0  0  0
 26 22  2  0  0  0  0
 27 24  1  0  0  0  0
 28 27  1  0  0  0  0
 29 28  1  0  0  0  0
 29 30  1  0  0  0  0
 31 30  2  0  0  0  0
 32 31  1  0  0  0  0
 33 35  1  0  0  0  0
 33 32  2  0  0  0  0
 34 32  1  0  0  0  0
 35 29  2  0  0  0  0
M  END
>  <Pose>
1

>  <Score>
-7.500

$$$$
