/Users/jonathanwahrer/Desktop/Msc/3_Semester/Drug_Design_Praktikum/waehrer_HTS_screening/HTS_experiment/out/docking_results/vina_output/2qfa/1008_docked.pdbqt
 OpenBabel03162220143D

 29 32  0  0  1  0  0  0  0  0999 V2000
   41.6650   11.0770   45.9170 C   0  0  0  0  0  0  0  0  0  0  0  0
   42.1610   10.5280   46.9310 O   0  0  0  0  0  0  0  0  0  0  0  0
   42.2250   10.8310   44.6280 N   0  0  0  0  0  0  0  0  0  0  0  0
   43.3660    9.9540   44.4760 C   0  0  0  0  0  2  0  0  0  0  0  0
   43.2760    9.0720   43.2700 C   0  0  2  0  0  3  0  0  0  0  0  0
   41.8170    9.1040   42.8060 C   0  0  0  0  0  2  0  0  0  0  0  0
   41.5890   10.5060   42.2830 C   0  0  0  0  0  2  0  0  0  0  0  0
   41.6690   11.4510   43.4540 C   0  0  0  0  0  2  0  0  0  0  0  0
   40.5220   11.9540   46.0750 C   0  0  0  0  0  0  0  0  0  0  0  0
   39.2220   11.4630   46.0220 C   0  0  0  0  0  3  0  0  0  0  0  0
   38.1280   12.2840   46.1720 C   0  0  0  0  0  0  0  0  0  0  0  0
   38.3030   13.6410   46.3810 C   0  0  0  0  0  3  0  0  0  0  0  0
   39.5840   14.1440   46.4360 C   0  0  0  0  0  3  0  0  0  0  0  0
   40.6880   13.3060   46.2830 C   0  0  0  0  0  0  0  0  0  0  0  0
   42.4280   14.0510   46.3670 Br  0  0  0  0  0  0  0  0  0  0  0  0
   36.5280   11.6070   46.0960 S   0  0  0  0  0  0  0  0  0  0  0  0
   35.5700   12.6740   45.6080 O   0  0  0  0  0  0  0  0  0  0  0  0
   36.0750   11.1500   47.4600 O   0  0  0  0  0  0  0  0  0  0  0  0
   36.4770   10.3250   44.9580 N   0  0  0  0  0  0  0  0  0  0  0  0
   37.3870   10.2210   44.4480 H   0  0  0  0  0  0  0  0  0  0  0  0
   35.6960   10.4780   44.2730 H   0  0  0  0  0  0  0  0  0  0  0  0
   43.7190    7.6660   43.5330 C   0  0  0  0  0  0  0  0  0  0  0  0
   44.9650    7.1610   43.3380 N   0  0  0  0  0  0  0  0  0  0  0  0
   45.0010    5.8700   43.6800 C   0  0  0  0  0  0  0  0  0  0  0  0
   46.2690    7.5960   42.8700 C   0  0  0  0  0  2  0  0  0  0  0  0
   43.7320    5.5820   44.0970 N   0  0  0  0  0  0  0  0  0  0  0  0
   46.3520    5.2690   43.4820 C   0  0  0  0  0  2  0  0  0  0  0  0
   42.9720    6.6560   44.0070 N   0  0  0  0  0  0  0  0  0  0  0  0
   47.2060    6.4840   43.2920 C   0  0  0  0  0  2  0  0  0  0  0  0
  1  9  1  0  0  0  0
  1  2  2  0  0  0  0
  3  1  1  0  0  0  0
  4  3  1  0  0  0  0
  5 22  1  1  0  0  0
  5  4  1  0  0  0  0
  6  5  1  0  0  0  0
  7  6  1  0  0  0  0
  7  8  1  0  0  0  0
  8  3  1  0  0  0  0
  9 14  1  0  0  0  0
 10  9  2  0  0  0  0
 10 11  1  0  0  0  0
 11 12  2  0  0  0  0
 12 13  1  0  0  0  0
 14 15  1  0  0  0  0
 14 13  2  0  0  0  0
 16 11  1  0  0  0  0
 16 18  2  0  0  0  0
 17 16  2  0  0  0  0
 19 16  1  0  0  0  0
 20 19  1  0  0  0  0
 21 19  1  0  0  0  0
 22 28  2  0  0  0  0
 23 22  1  0  0  0  0
 23 24  1  0  0  0  0
 24 26  2  0  0  0  0
 25 29  1  0  0  0  0
 25 23  1  0  0  0  0
 27 24  1  0  0  0  0
 28 26  1  0  0  0  0
 29 27  1  0  0  0  0
M  END
>  <Pose>
1

>  <Score>
-7.507

$$$$
