/Users/jonathanwahrer/Desktop/Msc/3_Semester/Drug_Design_Praktikum/waehrer_HTS_screening/HTS_experiment/out/docking_results/vina_output/2qfa/1027_docked.pdbqt
 OpenBabel03162220153D

 32 35  0  0  0  0  0  0  0  0999 V2000
   41.2510   12.8030   46.7290 N   0  0  0  0  0  0  0  0  0  0  0  0
   40.3820   11.7460   46.9840 C   0  0  0  0  0  2  0  0  0  0  0  0
   40.1370   10.8310   45.8470 C   0  0  0  0  0  0  0  0  0  0  0  0
   39.8190    9.6330   46.0380 O   0  0  0  0  0  0  0  0  0  0  0  0
   40.2830   11.3900   44.5460 N   0  0  0  0  0  0  0  0  0  0  0  0
   40.3650   12.8030   44.4670 C   0  0  0  0  0  0  0  0  0  0  0  0
   39.9910   13.3620   43.3980 O   0  0  0  0  0  0  0  0  0  0  0  0
   40.8680   13.6230   45.5890 C   0  0  0  0  0  2  0  0  0  0  0  0
   42.9110   12.6330   46.8940 S   0  0  0  0  0  0  0  0  0  0  0  0
   43.4750   12.2650   45.5210 O   0  0  0  0  0  0  0  0  0  0  0  0
   43.2390   11.4400   47.7600 O   0  0  0  0  0  0  0  0  0  0  0  0
   43.8000   14.0340   47.4260 C   0  0  0  0  0  0  0  0  0  0  0  0
   44.6530   14.6660   46.5120 C   0  0  0  0  0  3  0  0  0  0  0  0
   45.4570   15.7380   46.8280 C   0  0  0  0  0  0  0  0  0  0  0  0
   45.4500   16.2480   48.1080 C   0  0  0  0  0  0  0  0  0  0  0  0
   46.3800   16.5040   46.0520 N   0  0  0  0  0  0  0  0  0  0  0  0
   44.6180   15.6430   49.0170 C   0  0  0  0  0  3  0  0  0  0  0  0
   46.3830   17.3960   48.2160 C   0  0  0  0  0  2  0  0  0  0  0  0
   43.7990   14.5500   48.6890 C   0  0  0  0  0  0  0  0  0  0  0  0
   42.6050   13.8540   50.0190 Br  0  0  0  0  0  0  0  0  0  0  0  0
   46.5820   17.7710   46.7470 C   0  0  0  0  0  2  0  0  0  0  0  0
   47.0100   16.1430   44.8480 C   0  0  0  0  0  0  0  0  0  0  0  0
   47.7920   16.9890   44.2900 O   0  0  0  0  0  0  0  0  0  0  0  0
   46.8570   14.8480   44.1430 C   0  0  0  0  0  1  0  0  0  0  0  0
   40.3360   10.5320   43.3810 C   0  0  0  0  0  2  0  0  0  0  0  0
   41.6680   10.4650   42.7170 C   0  0  0  0  0  2  0  0  0  0  0  0
   42.4860    9.2980   43.0410 C   0  0  0  0  0  0  0  0  0  0  0  0
   41.9820    8.0280   43.0350 C   0  0  0  0  0  3  0  0  0  0  0  0
   42.8010    6.9810   43.3520 C   0  0  0  0  0  3  0  0  0  0  0  0
   44.1380    7.1670   43.6830 C   0  0  0  0  0  3  0  0  0  0  0  0
   44.6200    8.4470   43.6820 C   0  0  0  0  0  3  0  0  0  0  0  0
   43.8240    9.5220   43.3680 C   0  0  0  0  0  3  0  0  0  0  0  0
  1  9  1  0  0  0  0
  1  2  1  0  0  0  0
  3  4  2  0  0  0  0
  3  2  1  0  0  0  0
  5  3  1  0  0  0  0
  6  5  1  0  0  0  0
  6  8  1  0  0  0  0
  7  6  2  0  0  0  0
  8  1  1  0  0  0  0
  9 12  1  0  0  0  0
  9 11  2  0  0  0  0
 10  9  2  0  0  0  0
 12 19  1  0  0  0  0
 13 14  1  0  0  0  0
 13 12  2  0  0  0  0
 14 15  2  0  0  0  0
 15 18  1  0  0  0  0
 15 17  1  0  0  0  0
 16 21  1  0  0  0  0
 16 14  1  0  0  0  0
 19 17  2  0  0  0  0
 19 20  1  0  0  0  0
 21 18  1  0  0  0  0
 22 16  1  0  0  0  0
 23 22  2  0  0  0  0
 24 22  1  0  0  0  0
 25  5  1  0  0  0  0
 26 27  1  0  0  0  0
 26 25  1  0  0  0  0
 27 32  1  0  0  0  0
 28 27  2  0  0  0  0
 28 29  1  0  0  0  0
 29 30  2  0  0  0  0
 31 30  1  0  0  0  0
 32 31  2  0  0  0  0
M  END
>  <Pose>
1

>  <Score>
-7.473

$$$$
