/Users/jonathanwahrer/Desktop/Msc/3_Semester/Drug_Design_Praktikum/waehrer_HTS_screening/HTS_experiment/out/docking_results/vina_output/2qfa/1028_docked.pdbqt
 OpenBabel03162220163D

 25 28  0  0  1  0  0  0  0  0999 V2000
   43.4730    8.8780   43.1320 N   0  0  0  0  0  0  0  0  0  0  0  0
   44.7460    8.5570   43.6700 C   0  0  0  0  0  2  0  0  0  0  0  0
   44.4340    7.1120   43.6340 C   0  0  1  0  0  3  0  0  0  0  0  0
   43.2060    7.5050   42.8890 C   0  0  0  0  0  2  0  0  0  0  0  0
   45.3220    6.2770   42.8480 N   0  0  0  0  0  0  0  0  0  0  0  0
   45.7220    6.4500   41.6150 N   0  0  0  0  0  0  0  0  0  0  0  0
   46.5420    5.4550   41.2480 N   0  0  0  0  0  0  0  0  0  0  0  0
   46.6780    4.6060   42.2810 C   0  0  0  0  0  0  0  0  0  0  0  0
   45.8940    5.1450   43.2910 C   0  0  0  0  0  3  0  0  0  0  0  0
   47.4950    3.3480   42.3400 C   0  0  0  0  0  2  0  0  0  0  0  0
   48.5990    3.5800   43.2530 N   0  0  0  0  0  0  0  0  0  0  0  0
   48.5980    4.5030   44.3480 C   0  0  0  0  0  2  0  0  0  0  0  0
   49.9200    4.3290   45.0390 C   0  0  0  0  0  2  0  0  0  0  0  0
   50.5860    3.1110   44.4860 C   0  0  0  0  0  2  0  0  0  0  0  0
   49.8550    2.9120   43.1860 C   0  0  0  0  0  0  0  0  0  0  0  0
   50.3180    2.2570   42.2350 O   0  0  0  0  0  0  0  0  0  0  0  0
   42.3400    9.6800   44.0920 S   0  0  0  0  0  0  0  0  0  0  0  0
   41.9960    8.8110   45.2680 O   0  0  0  0  0  0  0  0  0  0  0  0
   41.0460    9.9310   43.3540 O   0  0  0  0  0  0  0  0  0  0  0  0
   42.9210   11.2100   44.7440 C   0  0  0  0  0  0  0  0  0  0  0  0
   42.1770   12.2000   45.9290 S   0  0  0  0  0  0  0  0  0  0  0  0
   43.3310   13.4570   46.0010 C   0  0  0  0  0  0  0  0  0  0  0  0
   44.2710   13.0580   45.0860 C   0  0  0  0  0  3  0  0  0  0  0  0
   43.3420   15.0500   47.0850 Br  0  0  0  0  0  0  0  0  0  0  0  0
   44.0550   11.9070   44.4470 C   0  0  0  0  0  3  0  0  0  0  0  0
  1  2  1  0  0  0  0
  1 17  1  0  0  0  0
  3  5  1  6  0  0  0
  3  2  1  0  0  0  0
  4  1  1  0  0  0  0
  4  3  1  0  0  0  0
  5  9  1  0  0  0  0
  6  5  1  0  0  0  0
  7  6  2  0  0  0  0
  7  8  1  0  0  0  0
  8 10  1  0  0  0  0
  8  9  2  0  0  0  0
 10 11  1  0  0  0  0
 11 12  1  0  0  0  0
 12 13  1  0  0  0  0
 14 13  1  0  0  0  0
 15 11  1  0  0  0  0
 15 14  1  0  0  0  0
 16 15  2  0  0  0  0
 17 20  1  0  0  0  0
 17 18  2  0  0  0  0
 19 17  2  0  0  0  0
 20 21  1  0  0  0  0
 21 22  1  0  0  0  0
 22 24  1  0  0  0  0
 23 22  2  0  0  0  0
 25 20  2  0  0  0  0
 25 23  1  0  0  0  0
M  END
>  <Pose>
1

>  <Score>
-7.500

$$$$
