/Users/jonathanwahrer/Desktop/Msc/3_Semester/Drug_Design_Praktikum/waehrer_HTS_screening/HTS_experiment/out/docking_results/vina_output/2qfa/1037_docked.pdbqt
 OpenBabel03162220163D

 31 34  0  0  0  0  0  0  0  0999 V2000
   41.8930   10.6110   45.1730 N   0  0  0  0  0  0  0  0  0  0  0  0
   42.7130   10.1930   46.2580 C   0  0  0  0  0  3  0  0  0  0  0  0
   43.7070   11.1210   46.7830 C   0  0  0  0  0  3  0  0  0  0  0  0
   43.6120   12.5180   46.4070 N   0  0  0  0  0  0  0  0  0  0  0  0
   42.7490   12.9320   45.3430 C   0  0  0  0  0  2  0  0  0  0  0  0
   41.5630   11.9910   45.1720 C   0  0  0  0  0  2  0  0  0  0  0  0
   44.3660   13.4430   47.1310 C   0  0  0  0  0  0  0  0  0  0  0  0
   44.9880   12.8400   48.1670 O   0  0  0  0  0  0  0  0  0  0  0  0
   42.2570    9.9480   43.6580 S   0  0  0  0  0  0  0  0  0  0  0  0
   43.1960   10.8680   42.9270 O   0  0  0  0  0  0  0  0  0  0  0  0
   41.0050    9.8570   42.8030 O   0  0  0  0  0  0  0  0  0  0  0  0
   43.0550    8.3910   43.7240 C   0  0  0  0  0  0  0  0  0  0  0  0
   44.1920    8.1560   42.9520 C   0  0  0  0  0  3  0  0  0  0  0  0
   44.8560    6.9490   42.9510 C   0  0  0  0  0  0  0  0  0  0  0  0
   44.4160    5.9020   43.7290 C   0  0  0  0  0  0  0  0  0  0  0  0
   46.0200    6.7250   42.1370 N   0  0  0  0  0  0  0  0  0  0  0  0
   43.2930    6.1260   44.4950 C   0  0  0  0  0  3  0  0  0  0  0  0
   45.0870    4.6620   43.7330 O   0  0  0  0  0  0  0  0  0  0  0  0
   42.6180    7.3410   44.5010 C   0  0  0  0  0  3  0  0  0  0  0  0
   46.4840    4.6130   43.3960 C   0  0  0  0  0  2  0  0  0  0  0  0
   46.6370    5.4510   42.1780 C   0  0  0  0  0  0  0  0  0  0  0  0
   47.2920    5.0720   41.1800 O   0  0  0  0  0  0  0  0  0  0  0  0
   46.3420    7.5140   41.5590 H   0  0  0  0  0  0  0  0  0  0  0  0
   44.6110   14.8500   47.0080 C   0  0  0  0  0  2  0  0  0  0  0  0
   45.6000   15.3750   46.0690 C   0  0  0  0  0  0  0  0  0  0  0  0
   46.2060   16.5910   46.2710 C   0  0  0  0  0  0  0  0  0  0  0  0
   47.1530   17.0770   45.3710 C   0  0  0  0  0  3  0  0  0  0  0  0
   45.7540   17.6570   47.7990 Br  0  0  0  0  0  0  0  0  0  0  0  0
   47.4820   16.3330   44.2760 C   0  0  0  0  0  3  0  0  0  0  0  0
   46.8720   15.0950   44.0660 C   0  0  0  0  0  3  0  0  0  0  0  0
   45.9490   14.6250   44.9450 C   0  0  0  0  0  3  0  0  0  0  0  0
  1  2  1  0  0  0  0
  2  3  2  0  0  0  0
  4  3  1  0  0  0  0
  4  7  1  0  0  0  0
  5  4  1  0  0  0  0
  6  1  1  0  0  0  0
  6  5  1  0  0  0  0
  7  8  2  0  0  0  0
  9 12  1  0  0  0  0
  9  1  1  0  0  0  0
 10  9  2  0  0  0  0
 11  9  2  0  0  0  0
 12 19  1  0  0  0  0
 13 12  2  0  0  0  0
 14 13  1  0  0  0  0
 14 15  2  0  0  0  0
 15 18  1  0  0  0  0
 15 17  1  0  0  0  0
 16 21  1  0  0  0  0
 16 14  1  0  0  0  0
 17 19  2  0  0  0  0
 20 18  1  0  0  0  0
 21 20  1  0  0  0  0
 22 21  2  0  0  0  0
 23 16  1  0  0  0  0
 24  7  1  0  0  0  0
 25 26  1  0  0  0  0
 25 24  1  0  0  0  0
 26 28  1  0  0  0  0
 27 26  2  0  0  0  0
 29 27  1  0  0  0  0
 30 29  2  0  0  0  0
 30 31  1  0  0  0  0
 31 25  2  0  0  0  0
M  END
>  <Pose>
1

>  <Score>
-9.322

$$$$
