/Users/jonathanwahrer/Desktop/Msc/3_Semester/Drug_Design_Praktikum/waehrer_HTS_screening/HTS_experiment/out/docking_results/vina_output/2qfa/1040_docked.pdbqt
 OpenBabel03162220163D

 34 38  0  0  0  0  0  0  0  0999 V2000
   41.3790   10.8470   48.7100 S   0  0  0  0  0  0  0  0  0  0  0  0
   41.7330   10.0880   49.9300 O   0  0  0  0  0  0  0  0  0  0  0  0
   40.1770   11.7070   49.1170 O   0  0  0  0  0  0  0  0  0  0  0  0
   40.7890    9.8630   47.4270 N   0  0  0  0  0  0  0  0  0  0  0  0
   41.7300    8.9160   46.9380 C   0  0  0  0  0  2  0  0  0  0  0  0
   42.6370    9.4490   45.8360 C   0  0  0  0  0  2  0  0  0  0  0  0
   41.8300   10.0360   44.8200 N   0  0  0  0  0  0  0  0  0  0  0  0
   41.0040   11.1710   45.3450 C   0  0  0  0  0  2  0  0  0  0  0  0
   41.6850    9.7450   43.4780 C   0  0  0  0  0  0  0  0  0  0  0  0
   40.1250   10.5960   46.4040 C   0  0  0  0  0  2  0  0  0  0  0  0
   40.8270   10.5120   42.8350 O   0  0  0  0  0  0  0  0  0  0  0  0
   42.3040    8.7520   42.6500 C   0  0  0  0  0  2  0  0  0  0  0  0
   43.2690    7.8720   43.2030 N   0  0  0  0  0  0  0  0  0  0  0  0
   43.0540    6.7230   43.8410 N   0  0  0  0  0  0  0  0  0  0  0  0
   44.2120    6.1450   44.1860 C   0  0  0  0  0  3  0  0  0  0  0  0
   45.2020    6.9840   43.7380 C   0  0  0  0  0  0  0  0  0  0  0  0
   44.6140    8.0520   43.1290 C   0  0  0  0  0  3  0  0  0  0  0  0
   47.0950    6.7050   43.9320 Br  0  0  0  0  0  0  0  0  0  0  0  0
   42.5870   11.9720   48.1700 C   0  0  0  0  0  0  0  0  0  0  0  0
   42.2520   13.1990   47.5810 C   0  0  0  0  0  0  0  0  0  0  0  0
   43.2180   14.0870   47.1520 C   0  0  0  0  0  0  0  0  0  0  0  0
   40.9890   13.7270   47.3310 O   0  0  0  0  0  0  0  0  0  0  0  0
   44.5610   13.8010   47.2880 C   0  0  0  0  0  0  0  0  0  0  0  0
   42.5690   15.1830   46.6270 O   0  0  0  0  0  0  0  0  0  0  0  0
   44.8950   12.6040   47.8610 C   0  0  0  0  0  0  0  0  0  0  0  0
   43.9110   11.7190   48.2890 C   0  0  0  0  0  0  0  0  0  0  0  0
   46.2890   12.1540   48.0790 C   0  0  0  0  0  2  0  0  0  0  0  0
   44.4240   10.4690   48.8740 C   0  0  0  0  0  2  0  0  0  0  0  0
   45.4960   10.7540   49.9030 C   0  0  0  0  0  2  0  0  0  0  0  0
   46.3910   11.7480   49.4440 N   0  0  0  0  0  0  0  0  0  0  0  0
   46.7440   12.7700   50.3660 C   0  0  0  0  0  1  0  0  0  0  0  0
   41.1930   14.9270   46.6010 C   0  0  0  0  0  2  0  0  0  0  0  0
   45.5530   14.7030   46.8520 O   0  0  0  0  0  0  0  0  0  0  0  0
   45.8300   14.7900   45.4470 C   0  0  0  0  0  1  0  0  0  0  0  0
  1  3  2  0  0  0  0
  1  2  2  0  0  0  0
  4  1  1  0  0  0  0
  5  4  1  0  0  0  0
  6  5  1  0  0  0  0
  7  8  1  0  0  0  0
  7  6  1  0  0  0  0
  8 10  1  0  0  0  0
  9  7  1  0  0  0  0
 10  4  1  0  0  0  0
 11  9  2  0  0  0  0
 12 13  1  0  0  0  0
 12  9  1  0  0  0  0
 13 14  1  0  0  0  0
 14 15  2  0  0  0  0
 16 18  1  0  0  0  0
 16 15  1  0  0  0  0
 17 13  1  0  0  0  0
 17 16  2  0  0  0  0
 19 26  1  0  0  0  0
 19  1  1  0  0  0  0
 20 19  2  0  0  0  0
 21 23  2  0  0  0  0
 21 20  1  0  0  0  0
 22 20  1  0  0  0  0
 23 25  1  0  0  0  0
 24 21  1  0  0  0  0
 25 27  1  0  0  0  0
 25 26  2  0  0  0  0
 26 28  1  0  0  0  0
 27 30  1  0  0  0  0
 28 29  1  0  0  0  0
 30 29  1  0  0  0  0
 30 31  1  0  0  0  0
 32 24  1  0  0  0  0
 32 22  1  0  0  0  0
 33 23  1  0  0  0  0
 34 33  1  0  0  0  0
M  END
>  <Pose>
1

>  <Score>
-6.490

$$$$
