/Users/jonathanwahrer/Desktop/Msc/3_Semester/Drug_Design_Praktikum/waehrer_HTS_screening/HTS_experiment/out/docking_results/vina_output/2qfa/1042_docked.pdbqt
 OpenBabel03162220173D

 31 34  0  0  0  0  0  0  0  0999 V2000
   43.8300    7.7230   44.3020 N   0  0  0  0  0  0  0  0  0  0  0  0
   44.8090    8.2850   43.5000 C   0  0  0  0  0  2  0  0  0  0  0  0
   45.2940    7.2020   42.4990 C   0  0  0  0  0  2  0  0  0  0  0  0
   45.6520    6.0090   43.2150 N   0  0  0  0  0  0  0  0  0  0  0  0
   44.6180    5.3960   44.0170 C   0  0  0  0  0  2  0  0  0  0  0  0
   43.4520    6.3600   44.0440 C   0  0  0  0  0  2  0  0  0  0  0  0
   46.9330    5.4260   43.1710 C   0  0  0  0  0  0  0  0  0  0  0  0
   47.8240    5.9620   42.4740 O   0  0  0  0  0  0  0  0  0  0  0  0
   47.2350    4.2080   43.9250 C   0  0  0  0  0  2  0  0  0  0  0  0
   48.6770    4.0570   44.1010 N   0  0  0  0  0  0  0  0  0  0  0  0
   49.5440    4.6830   45.0240 C   0  0  0  0  0  0  0  0  0  0  0  0
   49.1860    5.5310   45.9050 O   0  0  0  0  0  0  0  0  0  0  0  0
   50.8560    4.1910   44.7790 N   0  0  0  0  0  0  0  0  0  0  0  0
   50.7140    2.9510   44.0620 C   0  0  0  0  0  0  0  0  0  0  0  0
   51.7160    4.7030   45.0980 H   0  0  0  0  0  0  0  0  0  0  0  0
   50.6410    1.7480   44.9450 C   0  0  0  0  0  2  0  0  0  0  0  0
   51.8960    2.6720   43.1630 C   0  0  0  0  0  2  0  0  0  0  0  0
   49.4720    3.1740   43.2840 C   0  0  0  0  0  0  0  0  0  0  0  0
   50.8980    0.6140   43.9450 C   0  0  0  0  0  2  0  0  0  0  0  0
   51.9210    1.1880   43.0040 C   0  0  0  0  0  2  0  0  0  0  0  0
   49.1880    2.6940   42.1630 O   0  0  0  0  0  0  0  0  0  0  0  0
   42.8420    8.5940   45.3070 S   0  0  0  0  0  0  0  0  0  0  0  0
   41.7600    7.6500   45.8510 O   0  0  0  0  0  0  0  0  0  0  0  0
   43.5690    9.0480   46.5760 O   0  0  0  0  0  0  0  0  0  0  0  0
   41.9790    9.9450   44.6420 C   0  0  0  0  0  0  0  0  0  0  0  0
   41.2260   10.8520   45.3390 C   0  0  0  0  0  0  0  0  0  0  0  0
   40.5250   11.8800   44.6990 C   0  0  0  0  0  3  0  0  0  0  0  0
   41.1840   10.7580   47.2340 Br  0  0  0  0  0  0  0  0  0  0  0  0
   40.5560   12.0330   43.3490 C   0  0  0  0  0  3  0  0  0  0  0  0
   41.3010   11.1440   42.6220 C   0  0  0  0  0  3  0  0  0  0  0  0
   41.9900   10.1320   43.2470 C   0  0  0  0  0  3  0  0  0  0  0  0
  1 22  1  0  0  0  0
  2  1  1  0  0  0  0
  3  4  1  0  0  0  0
  3  2  1  0  0  0  0
  4  5  1  0  0  0  0
  5  6  1  0  0  0  0
  6  1  1  0  0  0  0
  7  4  1  0  0  0  0
  7  9  1  0  0  0  0
  8  7  2  0  0  0  0
  9 10  1  0  0  0  0
 10 11  1  0  0  0  0
 11 12  2  0  0  0  0
 13 11  1  0  0  0  0
 13 15  1  0  0  0  0
 14 13  1  0  0  0  0
 14 16  1  0  0  0  0
 17 14  1  0  0  0  0
 18 14  1  0  0  0  0
 18 10  1  0  0  0  0
 19 16  1  0  0  0  0
 20 17  1  0  0  0  0
 20 19  1  0  0  0  0
 21 18  2  0  0  0  0
 22 23  2  0  0  0  0
 22 24  2  0  0  0  0
 25 22  1  0  0  0  0
 25 26  1  0  0  0  0
 26 28  1  0  0  0  0
 27 26  2  0  0  0  0
 29 27  1  0  0  0  0
 30 31  1  0  0  0  0
 30 29  2  0  0  0  0
 31 25  2  0  0  0  0
M  END
>  <Pose>
1

>  <Score>
-8.229

$$$$
