/Users/jonathanwahrer/Desktop/Msc/3_Semester/Drug_Design_Praktikum/waehrer_HTS_screening/HTS_experiment/out/docking_results/vina_output/2qfa/1043_docked.pdbqt
 OpenBabel03162220173D

 31 34  0  0  0  0  0  0  0  0999 V2000
   43.0390   12.2270   47.2340 N   0  0  0  0  0  0  0  0  0  0  0  0
   42.1330   11.5370   48.1280 C   0  0  0  0  0  2  0  0  0  0  0  0
   41.1100   10.7390   47.3590 C   0  0  0  0  0  2  0  0  0  0  0  0
   41.8550    9.8990   46.3990 N   0  0  0  0  0  0  0  0  0  0  0  0
   42.7240   10.6070   45.5120 C   0  0  0  0  0  2  0  0  0  0  0  0
   42.6290   12.1060   45.8800 C   0  0  0  0  0  2  0  0  0  0  0  0
   41.6960    8.5060   46.3960 C   0  0  0  0  0  0  0  0  0  0  0  0
   40.8570    8.0500   47.3040 O   0  0  0  0  0  0  0  0  0  0  0  0
   42.2700    7.4570   45.5920 C   0  0  0  0  0  2  0  0  0  0  0  0
   43.1970    7.7680   44.5500 N   0  0  0  0  0  0  0  0  0  0  0  0
   42.9080    8.3630   43.2590 C   0  0  0  0  0  0  0  0  0  0  0  0
   41.7430    8.7020   42.9110 O   0  0  0  0  0  0  0  0  0  0  0  0
   44.1290    8.4650   42.5460 N   0  0  0  0  0  0  0  0  0  0  0  0
   45.0560    7.5770   43.1620 C   0  0  0  0  0  0  0  0  0  0  0  0
   44.2490    9.1080   41.7160 H   0  0  0  0  0  0  0  0  0  0  0  0
   45.1070    6.2160   42.5100 C   0  0  0  0  0  2  0  0  0  0  0  0
   46.4960    8.0400   43.0210 C   0  0  0  0  0  2  0  0  0  0  0  0
   44.6200    7.5310   44.5560 C   0  0  0  0  0  0  0  0  0  0  0  0
   46.3620    5.6320   43.1300 C   0  0  0  0  0  2  0  0  0  0  0  0
   47.2540    6.8070   43.4510 C   0  0  0  0  0  2  0  0  0  0  0  0
   45.3140    7.3280   45.5850 O   0  0  0  0  0  0  0  0  0  0  0  0
   43.3900   13.8210   47.7330 S   0  0  0  0  0  0  0  0  0  0  0  0
   43.8350   13.7460   49.1820 O   0  0  0  0  0  0  0  0  0  0  0  0
   42.1180   14.6320   47.7370 O   0  0  0  0  0  0  0  0  0  0  0  0
   44.6010   14.6000   46.7440 C   0  0  0  0  0  0  0  0  0  0  0  0
   45.0770   14.0320   45.5790 C   0  0  0  0  0  3  0  0  0  0  0  0
   46.0420   14.6600   44.8000 C   0  0  0  0  0  3  0  0  0  0  0  0
   46.5560   15.8760   45.1670 C   0  0  0  0  0  0  0  0  0  0  0  0
   46.0890   16.4550   46.3280 C   0  0  0  0  0  3  0  0  0  0  0  0
   47.8920   16.7530   44.0910 Br  0  0  0  0  0  0  0  0  0  0  0  0
   45.1260   15.8240   47.1010 C   0  0  0  0  0  3  0  0  0  0  0  0
  1 22  1  0  0  0  0
  1  2  1  0  0  0  0
  3  2  1  0  0  0  0
  4  3  1  0  0  0  0
  5  6  1  0  0  0  0
  5  4  1  0  0  0  0
  6  1  1  0  0  0  0
  7  4  1  0  0  0  0
  7  8  2  0  0  0  0
  9  7  1  0  0  0  0
 10 18  1  0  0  0  0
 10  9  1  0  0  0  0
 11 10  1  0  0  0  0
 12 11  2  0  0  0  0
 13 14  1  0  0  0  0
 13 11  1  0  0  0  0
 14 18  1  0  0  0  0
 15 13  1  0  0  0  0
 16 19  1  0  0  0  0
 16 14  1  0  0  0  0
 17 14  1  0  0  0  0
 17 20  1  0  0  0  0
 18 21  2  0  0  0  0
 19 20  1  0  0  0  0
 22 24  2  0  0  0  0
 22 23  2  0  0  0  0
 25 31  1  0  0  0  0
 25 22  1  0  0  0  0
 26 25  2  0  0  0  0
 27 28  2  0  0  0  0
 27 26  1  0  0  0  0
 28 29  1  0  0  0  0
 29 31  2  0  0  0  0
 30 28  1  0  0  0  0
M  END
>  <Pose>
1

>  <Score>
-7.225

$$$$
