/Users/jonathanwahrer/Desktop/Msc/3_Semester/Drug_Design_Praktikum/waehrer_HTS_screening/HTS_experiment/out/docking_results/vina_output/2qfa/1044_docked.pdbqt
 OpenBabel03162220173D

 30 33  0  0  0  0  0  0  0  0999 V2000
   41.5500   11.0300   45.3370 N   0  0  0  0  0  0  0  0  0  0  0  0
   42.6570   11.1040   46.1840 C   0  0  0  0  0  2  0  0  0  0  0  0
   42.3900   11.0690   47.6470 C   0  0  0  0  0  2  0  0  0  0  0  0
   41.1840   10.4010   48.0200 N   0  0  0  0  0  0  0  0  0  0  0  0
   40.3530    9.8230   46.9860 C   0  0  0  0  0  2  0  0  0  0  0  0
   40.2650   10.8820   45.8890 C   0  0  0  0  0  2  0  0  0  0  0  0
   40.7660   10.2820   49.3670 C   0  0  0  0  0  0  0  0  0  0  0  0
   41.4650   10.7740   50.3110 O   0  0  0  0  0  0  0  0  0  0  0  0
   41.7940   10.4290   43.7750 S   0  0  0  0  0  0  0  0  0  0  0  0
   40.5680   10.3410   42.9530 O   0  0  0  0  0  0  0  0  0  0  0  0
   42.7420   11.3810   43.0580 O   0  0  0  0  0  0  0  0  0  0  0  0
   42.6380    8.8860   43.8420 C   0  0  0  0  0  0  0  0  0  0  0  0
   43.8910    8.7270   43.2870 C   0  0  0  0  0  3  0  0  0  0  0  0
   44.5790    7.5310   43.3240 C   0  0  0  0  0  0  0  0  0  0  0  0
   44.0220    6.4250   43.9310 C   0  0  0  0  0  0  0  0  0  0  0  0
   45.8700    7.3620   42.7520 N   0  0  0  0  0  0  0  0  0  0  0  0
   42.7620    6.5810   44.4900 C   0  0  0  0  0  3  0  0  0  0  0  0
   44.6910    5.2040   43.9830 O   0  0  0  0  0  0  0  0  0  0  0  0
   42.0810    7.7790   44.4500 C   0  0  0  0  0  3  0  0  0  0  0  0
   45.8500    4.9000   43.2290 C   0  0  0  0  0  2  0  0  0  0  0  0
   46.5700    6.1240   42.7950 C   0  0  0  0  0  0  0  0  0  0  0  0
   47.7810    5.9980   42.4820 O   0  0  0  0  0  0  0  0  0  0  0  0
   46.3050    8.1880   42.2900 H   0  0  0  0  0  0  0  0  0  0  0  0
   39.5390    9.6050   49.7650 C   0  0  0  0  0  0  0  0  0  0  0  0
   38.3200   10.2540   49.8180 C   0  0  0  0  0  0  0  0  0  0  0  0
   37.1550    9.6250   50.1910 C   0  0  0  0  0  3  0  0  0  0  0  0
   38.3050   12.1030   49.3420 Br  0  0  0  0  0  0  0  0  0  0  0  0
   37.2200    8.2810   50.5270 C   0  0  0  0  0  3  0  0  0  0  0  0
   38.4050    7.5840   50.4920 C   0  0  0  0  0  3  0  0  0  0  0  0
   39.5440    8.2600   50.1120 C   0  0  0  0  0  3  0  0  0  0  0  0
  1  6  1  0  0  0  0
  1  2  1  0  0  0  0
  2  3  1  0  0  0  0
  3  4  1  0  0  0  0
  4  7  1  0  0  0  0
  5  4  1  0  0  0  0
  6  5  1  0  0  0  0
  7 24  1  0  0  0  0
  7  8  2  0  0  0  0
  9 12  1  0  0  0  0
  9  1  1  0  0  0  0
 10  9  2  0  0  0  0
 11  9  2  0  0  0  0
 12 19  1  0  0  0  0
 13 14  1  0  0  0  0
 13 12  2  0  0  0  0
 14 15  2  0  0  0  0
 15 18  1  0  0  0  0
 15 17  1  0  0  0  0
 16 21  1  0  0  0  0
 16 14  1  0  0  0  0
 19 17  2  0  0  0  0
 20 18  1  0  0  0  0
 21 20  1  0  0  0  0
 22 21  2  0  0  0  0
 23 16  1  0  0  0  0
 24 25  2  0  0  0  0
 24 30  1  0  0  0  0
 25 26  1  0  0  0  0
 26 28  2  0  0  0  0
 27 25  1  0  0  0  0
 29 28  1  0  0  0  0
 30 29  2  0  0  0  0
M  END
>  <Pose>
1

>  <Score>
-6.991

$$$$
