/Users/jonathanwahrer/Desktop/Msc/3_Semester/Drug_Design_Praktikum/waehrer_HTS_screening/HTS_experiment/out/docking_results/vina_output/2qfa/1061_docked.pdbqt
 OpenBabel03162220183D

 30 34  0  0  1  0  0  0  0  0999 V2000
   41.9510   14.7730   48.3000 N   0  0  0  0  0  0  0  0  0  0  0  0
   41.4650   15.4820   47.1450 C   0  0  0  0  0  2  0  0  0  0  0  0
   40.6850   14.5750   46.2210 C   0  0  0  0  0  2  0  0  0  0  0  0
   41.5070   13.3930   45.8570 N   0  0  0  0  0  0  0  0  0  0  0  0
   41.7460   12.6350   47.0770 C   0  0  0  0  0  2  0  0  0  0  0  0
   41.4600   13.4300   48.3390 C   0  0  0  0  0  2  0  0  0  0  0  0
   40.6440   12.6340   44.9780 C   0  0  0  0  0  2  0  0  0  0  0  0
   40.4120   11.2180   45.2950 C   0  0  0  0  0  2  0  0  0  0  0  0
   41.3620   10.2370   44.8930 N   0  0  0  0  0  0  0  0  0  0  0  0
   42.1620   10.1450   43.7190 C   0  0  0  0  0  0  0  0  0  0  0  0
   41.8890   10.6550   42.6230 O   0  0  0  0  0  0  0  0  0  0  0  0
   43.3690    9.3400   44.0260 C   0  0  1  0  0  3  0  0  0  0  0  0
   42.8100    8.4080   45.1260 C   0  0  2  0  0  3  0  0  0  0  0  0
   43.6210    8.3550   42.9420 C   0  0  2  0  0  3  0  0  0  0  0  0
   42.4820    7.1360   44.4400 C   0  0  1  0  0  3  0  0  0  0  0  0
   41.6980    9.1180   45.7430 C   0  0  0  0  0  0  0  0  0  0  0  0
   42.2850    7.5930   42.9850 C   0  0  0  0  0  2  0  0  0  0  0  0
   43.7980    6.4180   44.2240 C   0  0  0  0  0  2  0  0  0  0  0  0
   44.5130    7.2950   43.5200 C   0  0  0  0  0  2  0  0  0  0  0  0
   41.1510    8.7880   46.8240 O   0  0  0  0  0  0  0  0  0  0  0  0
   43.5530   15.0360   48.7290 S   0  0  0  0  0  0  0  0  0  0  0  0
   43.5760   16.0970   49.8220 O   0  0  0  0  0  0  0  0  0  0  0  0
   44.0550   13.7750   49.4350 O   0  0  0  0  0  0  0  0  0  0  0  0
   44.6620   15.3910   47.4680 C   0  0  0  0  0  0  0  0  0  0  0  0
   44.9390   14.4640   46.4920 C   0  0  0  0  0  3  0  0  0  0  0  0
   45.8300   14.7890   45.4850 C   0  0  0  0  0  3  0  0  0  0  0  0
   46.4620   16.0180   45.4200 C   0  0  0  0  0  0  0  0  0  0  0  0
   46.1810   16.9450   46.4020 C   0  0  0  0  0  3  0  0  0  0  0  0
   47.6930   16.4670   44.0350 Br  0  0  0  0  0  0  0  0  0  0  0  0
   45.2850   16.6170   47.4130 C   0  0  0  0  0  3  0  0  0  0  0  0
  1  6  1  0  0  0  0
  1 21  1  0  0  0  0
  2  1  1  0  0  0  0
  3  2  1  0  0  0  0
  4  3  1  0  0  0  0
  4  5  1  0  0  0  0
  5  6  1  0  0  0  0
  7  8  1  0  0  0  0
  7  4  1  0  0  0  0
  9  8  1  0  0  0  0
  9 16  1  0  0  0  0
 10  9  1  0  0  0  0
 11 10  2  0  0  0  0
 12 10  1  6  0  0  0
 12 13  1  0  0  0  0
 13 16  1  6  0  0  0
 14 17  1  1  0  0  0
 14 19  1  0  0  0  0
 14 12  1  0  0  0  0
 15 17  1  6  0  0  0
 15 13  1  0  0  0  0
 16 20  2  0  0  0  0
 18 15  1  0  0  0  0
 19 18  1  0  0  0  0
 21 23  2  0  0  0  0
 21 22  2  0  0  0  0
 24 21  1  0  0  0  0
 25 24  2  0  0  0  0
 26 25  1  0  0  0  0
 27 26  2  0  0  0  0
 27 28  1  0  0  0  0
 28 30  2  0  0  0  0
 29 27  1  0  0  0  0
 30 24  1  0  0  0  0
M  END
>  <Pose>
1

>  <Score>
-7.387

$$$$
