/Users/jonathanwahrer/Desktop/Msc/3_Semester/Drug_Design_Praktikum/waehrer_HTS_screening/HTS_experiment/out/docking_results/vina_output/2qfa/1073_docked.pdbqt
 OpenBabel03162220193D

 28 31  0  0  0  0  0  0  0  0999 V2000
   43.1190   13.2030   48.1080 N   0  0  0  0  0  0  0  0  0  0  0  0
   41.7990   12.7750   47.8800 C   0  0  0  0  0  2  0  0  0  0  0  0
   41.7020   11.3330   47.4630 C   0  0  0  0  0  2  0  0  0  0  0  0
   42.9040   10.7940   46.9350 N   0  0  0  0  0  0  0  0  0  0  0  0
   43.9770   10.9230   47.8550 C   0  0  0  0  0  2  0  0  0  0  0  0
   44.0710   12.2450   48.5220 C   0  0  0  0  0  2  0  0  0  0  0  0
   43.1250   11.1920   45.5950 C   0  0  0  0  0  2  0  0  0  0  0  0
   42.8480   10.2340   44.5790 N   0  0  0  0  0  0  0  0  0  0  0  0
   43.5690    9.1370   44.4730 N   0  0  0  0  0  0  0  0  0  0  0  0
   43.3780    8.1880   43.5440 C   0  0  0  0  0  0  0  0  0  0  0  0
   42.3530    8.3950   42.6500 C   0  0  0  0  0  3  0  0  0  0  0  0
   41.5630    9.5230   42.7080 C   0  0  0  0  0  3  0  0  0  0  0  0
   41.8460   10.4410   43.7100 C   0  0  0  0  0  0  0  0  0  0  0  0
   41.1090   11.4870   43.7610 O   0  0  0  0  0  0  0  0  0  0  0  0
   44.1800    7.0050   43.4540 N   0  0  0  0  0  0  0  0  0  0  0  0
   44.0320    5.8450   44.1020 C   0  0  0  0  0  3  0  0  0  0  0  0
   45.0120    5.0090   43.7140 N   0  0  0  0  0  0  0  0  0  0  0  0
   45.7950    5.6310   42.8140 C   0  0  0  0  0  3  0  0  0  0  0  0
   45.2570    6.8910   42.6600 C   0  0  0  0  0  3  0  0  0  0  0  0
   43.3890   14.7890   48.5230 S   0  0  0  0  0  0  0  0  0  0  0  0
   42.1650   15.6330   48.4100 O   0  0  0  0  0  0  0  0  0  0  0  0
   43.9130   14.8860   49.9200 O   0  0  0  0  0  0  0  0  0  0  0  0
   44.6050   15.4780   47.4270 C   0  0  0  0  0  0  0  0  0  0  0  0
   45.2770   14.8100   46.0100 S   0  0  0  0  0  0  0  0  0  0  0  0
   46.3280   16.0810   45.5820 C   0  0  0  0  0  0  0  0  0  0  0  0
   46.1230   17.0070   46.5750 C   0  0  0  0  0  3  0  0  0  0  0  0
   47.5180   16.2120   44.0870 Br  0  0  0  0  0  0  0  0  0  0  0  0
   45.2310   16.6890   47.5250 C   0  0  0  0  0  3  0  0  0  0  0  0
  1  6  1  0  0  0  0
  1 20  1  0  0  0  0
  2  1  1  0  0  0  0
  3  2  1  0  0  0  0
  4  3  1  0  0  0  0
  4  5  1  0  0  0  0
  5  6  1  0  0  0  0
  7  4  1  0  0  0  0
  8  7  1  0  0  0  0
  9  8  1  0  0  0  0
 10  9  2  0  0  0  0
 11 12  2  0  0  0  0
 11 10  1  0  0  0  0
 12 13  1  0  0  0  0
 13 14  2  0  0  0  0
 13  8  1  0  0  0  0
 15 10  1  0  0  0  0
 15 16  1  0  0  0  0
 17 16  2  0  0  0  0
 18 17  1  0  0  0  0
 19 18  2  0  0  0  0
 19 15  1  0  0  0  0
 20 22  2  0  0  0  0
 21 20  2  0  0  0  0
 23 28  2  0  0  0  0
 23 20  1  0  0  0  0
 24 23  1  0  0  0  0
 25 24  1  0  0  0  0
 25 26  2  0  0  0  0
 26 28  1  0  0  0  0
 27 25  1  0  0  0  0
M  END
>  <Pose>
1

>  <Score>
-6.997

$$$$
