/Users/jonathanwahrer/Desktop/Msc/3_Semester/Drug_Design_Praktikum/waehrer_HTS_screening/HTS_experiment/out/docking_results/vina_output/2qfa/1076_docked.pdbqt
 OpenBabel03162220193D

 29 32  0  0  0  0  0  0  0  0999 V2000
   42.9910    9.5170   44.0990 N   0  0  0  0  0  0  0  0  0  0  0  0
   42.7990    8.7290   45.2760 C   0  0  0  0  0  2  0  0  0  0  0  0
   43.9220    7.6780   45.2650 C   0  0  0  0  0  2  0  0  0  0  0  0
   44.2900    7.3270   43.9620 N   0  0  0  0  0  0  0  0  0  0  0  0
   43.2490    7.3800   42.9710 C   0  0  0  0  0  2  0  0  0  0  0  0
   42.4880    8.6860   42.9910 C   0  0  0  0  0  2  0  0  0  0  0  0
   45.5890    7.5530   43.4860 C   0  0  0  0  0  2  0  0  0  0  0  0
   46.4930    6.4500   43.4200 N   0  0  0  0  0  0  0  0  0  0  0  0
   47.4100    6.1910   44.4700 N   0  0  0  0  0  0  0  0  0  0  0  0
   48.1290    5.0260   44.0760 C   0  0  0  0  0  0  0  0  0  0  0  0
   47.5340    6.7420   45.3520 H   0  0  0  0  0  0  0  0  0  0  0  0
   49.0840    4.4800   44.8190 C   0  0  0  0  0  3  0  0  0  0  0  0
   47.6870    4.5530   42.8130 N   0  0  0  0  0  0  0  0  0  0  0  0
   49.9690    3.3040   44.6630 C   0  0  0  0  0  2  0  0  0  0  0  0
   50.2030    2.9940   43.2030 C   0  0  0  0  0  2  0  0  0  0  0  0
   48.9000    2.4140   42.6820 C   0  0  0  0  0  2  0  0  0  0  0  0
   48.0690    3.4480   41.9870 C   0  0  0  0  0  2  0  0  0  0  0  0
   46.6620    5.4590   42.4170 C   0  0  0  0  0  0  0  0  0  0  0  0
   46.0290    5.3590   41.3360 O   0  0  0  0  0  0  0  0  0  0  0  0
   42.0840   10.9680   44.0760 S   0  0  0  0  0  0  0  0  0  0  0  0
   40.7270   10.7970   44.7070 O   0  0  0  0  0  0  0  0  0  0  0  0
   41.8370   11.3190   42.6270 O   0  0  0  0  0  0  0  0  0  0  0  0
   42.8820   12.3020   44.8160 C   0  0  0  0  0  0  0  0  0  0  0  0
   42.3060   13.2360   45.6260 C   0  0  0  0  0  3  0  0  0  0  0  0
   43.0430   14.2760   46.1730 C   0  0  0  0  0  0  0  0  0  0  0  0
   44.3770   14.4100   45.9250 C   0  0  0  0  0  3  0  0  0  0  0  0
   42.2090   15.5800   47.3120 Br  0  0  0  0  0  0  0  0  0  0  0  0
   44.9900   13.4750   45.1050 C   0  0  0  0  0  3  0  0  0  0  0  0
   44.2510   12.4510   44.5690 C   0  0  0  0  0  3  0  0  0  0  0  0
  1  2  1  0  0  0  0
  3  2  1  0  0  0  0
  4  3  1  0  0  0  0
  5  6  1  0  0  0  0
  5  4  1  0  0  0  0
  6  1  1  0  0  0  0
  7  4  1  0  0  0  0
  8  7  1  0  0  0  0
  8  9  1  0  0  0  0
  9 11  1  0  0  0  0
 10  9  1  0  0  0  0
 10 12  2  0  0  0  0
 13 10  1  0  0  0  0
 14 12  1  0  0  0  0
 15 14  1  0  0  0  0
 16 15  1  0  0  0  0
 17 16  1  0  0  0  0
 17 13  1  0  0  0  0
 18 13  1  0  0  0  0
 18  8  1  0  0  0  0
 19 18  2  0  0  0  0
 20  1  1  0  0  0  0
 20 21  2  0  0  0  0
 20 23  1  0  0  0  0
 22 20  2  0  0  0  0
 23 24  1  0  0  0  0
 24 25  2  0  0  0  0
 25 27  1  0  0  0  0
 26 25  1  0  0  0  0
 28 26  2  0  0  0  0
 29 23  2  0  0  0  0
 29 28  1  0  0  0  0
M  END
>  <Pose>
1

>  <Score>
-8.164

$$$$
