/Users/jonathanwahrer/Desktop/Msc/3_Semester/Drug_Design_Praktikum/waehrer_HTS_screening/HTS_experiment/out/docking_results/vina_output/2qfa/1081_docked.pdbqt
 OpenBabel03162220193D

 27 30  0  0  0  0  0  0  0  0999 V2000
   43.1890   10.3430   44.0990 N   0  0  0  0  0  0  0  0  0  0  0  0
   43.4820   11.4630   44.9100 C   0  0  0  0  0  2  0  0  0  0  0  0
   42.4080   12.4860   45.0680 C   0  0  0  0  0  2  0  0  0  0  0  0
   41.1870   12.1860   44.3610 N   0  0  0  0  0  0  0  0  0  0  0  0
   41.2530   11.5150   43.1030 C   0  0  0  0  0  3  0  0  0  0  0  0
   42.3610   10.5310   42.9690 C   0  0  0  0  0  3  0  0  0  0  0  0
   39.9550   12.5950   44.9720 C   0  0  0  0  0  0  0  0  0  0  0  0
   39.4640   12.1390   46.1360 N   0  0  0  0  0  0  0  0  0  0  0  0
   38.3000   12.7780   46.3040 N   0  0  0  0  0  0  0  0  0  0  0  0
   38.0880   13.5880   45.2900 N   0  0  0  0  0  0  0  0  0  0  0  0
   39.0920   13.5040   44.4430 N   0  0  0  0  0  0  0  0  0  0  0  0
   40.0660   11.1880   47.0040 C   0  0  0  0  0  0  0  0  0  0  0  0
   41.0910   11.5420   47.8510 C   0  0  0  0  0  3  0  0  0  0  0  0
   41.6610   10.5860   48.6910 C   0  0  0  0  0  3  0  0  0  0  0  0
   41.2180    9.2810   48.6940 C   0  0  0  0  0  3  0  0  0  0  0  0
   40.1750    8.9210   47.8320 C   0  0  0  0  0  3  0  0  0  0  0  0
   39.6170    9.8920   46.9980 C   0  0  0  0  0  3  0  0  0  0  0  0
   43.0210    8.8440   44.8830 S   0  0  0  0  0  0  0  0  0  0  0  0
   41.6400    8.3260   44.9510 O   0  0  0  0  0  0  0  0  0  0  0  0
   43.4840    9.0200   46.3240 O   0  0  0  0  0  0  0  0  0  0  0  0
   44.0800    7.6710   44.1510 C   0  0  0  0  0  0  0  0  0  0  0  0
   43.9280    6.3180   44.3220 C   0  0  0  0  0  3  0  0  0  0  0  0
   44.7820    5.3890   43.7270 C   0  0  0  0  0  3  0  0  0  0  0  0
   45.8260    5.8700   42.9300 C   0  0  0  0  0  0  0  0  0  0  0  0
   45.9880    7.2260   42.7520 C   0  0  0  0  0  3  0  0  0  0  0  0
   47.0340    4.6520   42.0810 Br  0  0  0  0  0  0  0  0  0  0  0  0
   45.1300    8.1040   43.3530 C   0  0  0  0  0  3  0  0  0  0  0  0
  1 18  1  0  0  0  0
  1  2  1  0  0  0  0
  2  3  1  0  0  0  0
  4  7  1  0  0  0  0
  4  3  1  0  0  0  0
  5  4  1  0  0  0  0
  6  5  2  0  0  0  0
  6  1  1  0  0  0  0
  7  8  1  0  0  0  0
  8  9  1  0  0  0  0
  8 12  1  0  0  0  0
 10  9  2  0  0  0  0
 11  7  2  0  0  0  0
 11 10  1  0  0  0  0
 12 13  1  0  0  0  0
 13 14  2  0  0  0  0
 14 15  1  0  0  0  0
 16 15  2  0  0  0  0
 17 12  2  0  0  0  0
 17 16  1  0  0  0  0
 18 19  2  0  0  0  0
 18 20  2  0  0  0  0
 21 22  1  0  0  0  0
 21 18  1  0  0  0  0
 23 22  2  0  0  0  0
 24 23  1  0  0  0  0
 25 24  2  0  0  0  0
 25 27  1  0  0  0  0
 26 24  1  0  0  0  0
 27 21  2  0  0  0  0
M  END
>  <Pose>
1

>  <Score>
-6.733

$$$$
