/Users/jonathanwahrer/Desktop/Msc/3_Semester/Drug_Design_Praktikum/waehrer_HTS_screening/HTS_experiment/out/docking_results/vina_output/2qfa/1084_docked.pdbqt
 OpenBabel03162220203D

 29 32  0  0  0  0  0  0  0  0999 V2000
   43.0390    9.6550   44.5280 N   0  0  0  0  0  0  0  0  0  0  0  0
   42.9780    9.7500   45.9480 C   0  0  0  0  0  2  0  0  0  0  0  0
   42.4950   11.0960   46.4420 C   0  0  0  0  0  2  0  0  0  0  0  0
   42.8210   12.0670   45.4380 N   0  0  0  0  0  0  0  0  0  0  0  0
   42.2210   11.9420   44.1420 C   0  0  0  0  0  2  0  0  0  0  0  0
   42.0720   10.4730   43.8360 C   0  0  0  0  0  2  0  0  0  0  0  0
   43.7090   13.1150   45.7310 C   0  0  0  0  0  0  0  0  0  0  0  0
   43.6430   13.8250   46.8700 N   0  0  0  0  0  0  0  0  0  0  0  0
   44.4470   14.8200   47.2020 C   0  0  0  0  0  0  0  0  0  0  0  0
   45.4450   15.1640   46.3060 C   0  0  0  0  0  3  0  0  0  0  0  0
   45.5540   14.4640   45.1250 C   0  0  0  0  0  0  0  0  0  0  0  0
   44.6920   13.4650   44.8660 N   0  0  0  0  0  0  0  0  0  0  0  0
   46.6130   14.8040   44.1370 C   0  0  0  0  0  1  0  0  0  0  0  0
   44.2720   15.4910   48.4360 N   0  0  0  0  0  0  0  0  0  0  0  0
   43.3730   15.0340   49.4760 C   0  0  0  0  0  2  0  0  0  0  0  0
   43.8910   15.6360   50.7820 C   0  0  0  0  0  2  0  0  0  0  0  0
   45.2820   15.5150   50.7630 O   0  0  0  0  0  0  0  0  0  0  0  0
   45.8940   16.4100   49.9160 C   0  0  0  0  0  2  0  0  0  0  0  0
   45.0230   16.6990   48.6880 C   0  0  0  0  0  2  0  0  0  0  0  0
   42.7250    8.0130   44.0850 S   0  0  0  0  0  0  0  0  0  0  0  0
   42.0250    7.3420   45.2550 O   0  0  0  0  0  0  0  0  0  0  0  0
   41.7880    7.9930   42.9120 O   0  0  0  0  0  0  0  0  0  0  0  0
   44.1980    7.1490   43.7490 C   0  0  0  0  0  0  0  0  0  0  0  0
   44.2180    5.7720   43.9280 C   0  0  0  0  0  3  0  0  0  0  0  0
   45.3470    5.0230   43.6820 C   0  0  0  0  0  3  0  0  0  0  0  0
   46.4940    5.6430   43.2490 C   0  0  0  0  0  0  0  0  0  0  0  0
   46.5150    7.0120   43.0600 C   0  0  0  0  0  3  0  0  0  0  0  0
   48.0480    4.5920   42.9140 Br  0  0  0  0  0  0  0  0  0  0  0  0
   45.3570    7.7410   43.3160 C   0  0  0  0  0  3  0  0  0  0  0  0
  1  2  1  0  0  0  0
  2  3  1  0  0  0  0
  4  7  1  0  0  0  0
  4  3  1  0  0  0  0
  5  4  1  0  0  0  0
  6  5  1  0  0  0  0
  6  1  1  0  0  0  0
  7  8  2  0  0  0  0
  8  9  1  0  0  0  0
  9 14  1  0  0  0  0
 10  9  2  0  0  0  0
 11 10  1  0  0  0  0
 12 11  2  0  0  0  0
 12  7  1  0  0  0  0
 13 11  1  0  0  0  0
 14 19  1  0  0  0  0
 14 15  1  0  0  0  0
 15 16  1  0  0  0  0
 17 16  1  0  0  0  0
 18 17  1  0  0  0  0
 19 18  1  0  0  0  0
 20  1  1  0  0  0  0
 20 21  2  0  0  0  0
 22 20  2  0  0  0  0
 23 24  1  0  0  0  0
 23 20  1  0  0  0  0
 25 24  2  0  0  0  0
 26 25  1  0  0  0  0
 27 26  2  0  0  0  0
 27 29  1  0  0  0  0
 28 26  1  0  0  0  0
 29 23  2  0  0  0  0
M  END
>  <Pose>
1

>  <Score>
-6.925

$$$$
