/Users/jonathanwahrer/Desktop/Msc/3_Semester/Drug_Design_Praktikum/waehrer_HTS_screening/HTS_experiment/out/docking_results/vina_output/2qfa/1089_docked.pdbqt
 OpenBabel03162220203D

 25 28  0  0  0  0  0  0  0  0999 V2000
   43.0670   10.2220   43.3420 N   0  0  0  0  0  0  0  0  0  0  0  0
   43.5090   11.0670   44.3830 C   0  0  0  0  0  2  0  0  0  0  0  0
   42.4350   11.8320   45.1150 C   0  0  0  0  0  2  0  0  0  0  0  0
   41.1320   11.6330   44.5630 N   0  0  0  0  0  0  0  0  0  0  0  0
   40.8980   11.3180   43.1650 C   0  0  0  0  0  2  0  0  0  0  0  0
   42.1480   10.8540   42.4780 C   0  0  0  0  0  2  0  0  0  0  0  0
   39.9850   11.7360   45.3960 C   0  0  0  0  0  0  0  0  0  0  0  0
   39.1740   12.8300   45.2920 N   0  0  0  0  0  0  0  0  0  0  0  0
   38.0880   12.9420   46.0580 C   0  0  0  0  0  3  0  0  0  0  0  0
   37.7480   12.0100   46.9460 N   0  0  0  0  0  0  0  0  0  0  0  0
   38.5250   10.9360   47.0630 C   0  0  0  0  0  0  0  0  0  0  0  0
   38.4370    9.8630   47.8540 N   0  0  0  0  0  0  0  0  0  0  0  0
   39.6770   10.7500   46.2960 C   0  0  0  0  0  0  0  0  0  0  0  0
   39.4940    9.0440   47.5890 C   0  0  0  0  0  3  0  0  0  0  0  0
   40.2510    9.5880   46.6360 N   0  0  0  0  0  0  0  0  0  0  0  0
   41.1180    9.1690   46.2500 H   0  0  0  0  0  0  0  0  0  0  0  0
   42.9200    8.5820   43.6240 S   0  0  0  0  0  0  0  0  0  0  0  0
   41.9760    7.9930   42.5810 O   0  0  0  0  0  0  0  0  0  0  0  0
   42.3340    8.2560   44.9490 O   0  0  0  0  0  0  0  0  0  0  0  0
   44.4190    7.6630   43.4590 C   0  0  0  0  0  0  0  0  0  0  0  0
   44.7020    6.0010   43.7110 S   0  0  0  0  0  0  0  0  0  0  0  0
   46.3630    5.9400   43.3460 C   0  0  0  0  0  0  0  0  0  0  0  0
   46.6570    7.2450   43.0300 C   0  0  0  0  0  3  0  0  0  0  0  0
   47.5480    4.4430   43.3610 Br  0  0  0  0  0  0  0  0  0  0  0  0
   45.6510    8.1250   43.0910 C   0  0  0  0  0  3  0  0  0  0  0  0
  1 17  1  0  0  0  0
  1  2  1  0  0  0  0
  2  3  1  0  0  0  0
  4  3  1  0  0  0  0
  4  7  1  0  0  0  0
  5  4  1  0  0  0  0
  6  5  1  0  0  0  0
  6  1  1  0  0  0  0
  7 13  2  0  0  0  0
  8  7  1  0  0  0  0
  8  9  2  0  0  0  0
  9 10  1  0  0  0  0
 10 11  2  0  0  0  0
 11 12  1  0  0  0  0
 13 15  1  0  0  0  0
 13 11  1  0  0  0  0
 14 12  2  0  0  0  0
 15 14  1  0  0  0  0
 16 15  1  0  0  0  0
 17 19  2  0  0  0  0
 18 17  2  0  0  0  0
 20 17  1  0  0  0  0
 20 21  1  0  0  0  0
 22 24  1  0  0  0  0
 22 21  1  0  0  0  0
 23 25  1  0  0  0  0
 23 22  2  0  0  0  0
 25 20  2  0  0  0  0
M  END
>  <Pose>
1

>  <Score>
-6.396

$$$$
