/Users/jonathanwahrer/Desktop/Msc/3_Semester/Drug_Design_Praktikum/waehrer_HTS_screening/HTS_experiment/out/docking_results/vina_output/2qfa/1100_docked.pdbqt
 OpenBabel03162220203D

 26 29  0  0  1  0  0  0  0  0999 V2000
   43.1570    9.9690   44.6200 N   0  0  0  0  0  0  0  0  0  0  0  0
   42.4980   11.0050   43.8980 C   0  0  0  0  0  2  0  0  0  0  0  0
   42.0510   12.1500   44.7830 C   0  0  0  0  0  2  0  0  0  0  0  0
   43.0360   12.2950   45.8240 N   0  0  2  0  0  0  0  0  0  0  0  0
   43.1270   11.2040   46.7600 C   0  0  0  0  0  2  0  0  0  0  0  0
   42.9350    9.9260   46.0260 C   0  0  0  0  0  2  0  0  0  0  0  0
   43.8770   13.4260   45.9470 C   0  0  1  0  0  3  0  0  0  0  0  0
   44.8960   13.6470   45.1160 C   0  0  0  0  0  3  0  0  0  0  0  0
   45.7800   14.7950   45.2090 C   0  0  0  0  0  0  0  0  0  0  0  0
   46.7770   14.9640   44.3570 C   0  0  0  0  0  1  0  0  0  0  0  0
   45.5580   15.7390   46.2350 N   0  0  0  0  0  0  0  0  0  0  0  0
   44.4520   15.4690   47.1100 C   0  0  0  0  0  0  0  0  0  0  0  0
   46.1260   16.5840   46.3860 H   0  0  0  0  0  0  0  0  0  0  0  0
   43.6630   14.3910   46.9810 N   0  0  0  0  0  0  0  0  0  0  0  0
   43.9680   16.1530   48.1760 N   0  0  0  0  0  0  0  0  0  0  0  0
   42.7290   14.4180   47.9360 N   0  0  0  0  0  0  0  0  0  0  0  0
   42.9040   15.5140   48.6940 C   0  0  0  0  0  3  0  0  0  0  0  0
   42.9010    8.4690   43.8660 S   0  0  0  0  0  0  0  0  0  0  0  0
   42.0730    8.5780   42.6120 O   0  0  0  0  0  0  0  0  0  0  0  0
   42.1000    7.5990   44.8240 O   0  0  0  0  0  0  0  0  0  0  0  0
   44.4040    7.6020   43.5570 C   0  0  0  0  0  0  0  0  0  0  0  0
   44.6640    5.9320   43.7250 S   0  0  0  0  0  0  0  0  0  0  0  0
   46.3000    5.8570   43.2620 C   0  0  0  0  0  0  0  0  0  0  0  0
   46.6080    7.1620   42.9820 C   0  0  0  0  0  3  0  0  0  0  0  0
   47.4750    4.3290   43.1440 Br  0  0  0  0  0  0  0  0  0  0  0  0
   45.6150    8.0710   43.1370 C   0  0  0  0  0  3  0  0  0  0  0  0
  1  6  1  0  0  0  0
  2  1  1  0  0  0  0
  2  3  1  0  0  0  0
  4  3  1  1  0  0  0
  4  7  1  0  0  0  0
  4  5  1  0  0  0  0
  6  5  1  0  0  0  0
  7  8  1  6  0  0  0
  7 14  1  0  0  0  0
  8  9  2  0  0  0  0
  9 11  1  0  0  0  0
 10  9  1  0  0  0  0
 11 13  1  0  0  0  0
 11 12  1  0  0  0  0
 12 15  2  0  0  0  0
 14 12  1  0  0  0  0
 14 16  1  0  0  0  0
 15 17  1  0  0  0  0
 16 17  2  0  0  0  0
 18  1  1  0  0  0  0
 18 20  2  0  0  0  0
 19 18  2  0  0  0  0
 21 22  1  0  0  0  0
 21 18  1  0  0  0  0
 23 22  1  0  0  0  0
 24 26  1  0  0  0  0
 24 23  2  0  0  0  0
 25 23  1  0  0  0  0
 26 21  2  0  0  0  0
M  END
>  <Pose>
1

>  <Score>
-6.949

$$$$
