/Users/jonathanwahrer/Desktop/Msc/3_Semester/Drug_Design_Praktikum/waehrer_HTS_screening/HTS_experiment/out/docking_results/vina_output/2qfa/1101_docked.pdbqt
 OpenBabel03162220203D

 26 29  0  0  0  0  0  0  0  0999 V2000
   42.4960    9.3120   44.4460 N   0  0  0  0  0  0  0  0  0  0  0  0
   41.4400   10.0060   45.0820 C   0  0  0  0  0  2  0  0  0  0  0  0
   41.8080   11.2700   45.7750 C   0  0  0  0  0  2  0  0  0  0  0  0
   42.7620   12.0610   44.9810 N   0  0  0  0  0  0  0  0  0  0  0  0
   42.9730   11.5750   43.6340 C   0  0  0  0  0  2  0  0  0  0  0  0
   43.4500   10.1410   43.7630 C   0  0  0  0  0  2  0  0  0  0  0  0
   43.2130    8.0660   45.3550 S   0  0  0  0  0  0  0  0  0  0  0  0
   42.0980    7.1300   45.8030 O   0  0  0  0  0  0  0  0  0  0  0  0
   43.8290    8.6080   46.6110 O   0  0  0  0  0  0  0  0  0  0  0  0
   44.3330    7.0950   44.4370 C   0  0  0  0  0  0  0  0  0  0  0  0
   44.0820    5.7580   44.1580 C   0  0  0  0  0  3  0  0  0  0  0  0
   44.9680    4.9920   43.4330 C   0  0  0  0  0  3  0  0  0  0  0  0
   46.1360    5.5790   42.9750 C   0  0  0  0  0  0  0  0  0  0  0  0
   46.4300    6.9060   43.2260 C   0  0  0  0  0  3  0  0  0  0  0  0
   47.3560    4.4990   41.9680 Br  0  0  0  0  0  0  0  0  0  0  0  0
   45.5190    7.6350   43.9540 C   0  0  0  0  0  3  0  0  0  0  0  0
   43.3970   13.1980   45.5320 C   0  0  0  0  0  0  0  0  0  0  0  0
   44.6870   13.5080   45.1180 C   0  0  0  0  0  3  0  0  0  0  0  0
   45.3030   14.6310   45.6680 C   0  0  0  0  0  0  0  0  0  0  0  0
   44.6880   15.3940   46.5620 N   0  0  0  0  0  0  0  0  0  0  0  0
   46.5280   15.1300   45.4320 N   0  0  0  0  0  0  0  0  0  0  0  0
   45.5310   16.3840   46.8960 C   0  0  0  0  0  0  0  0  0  0  0  0
   43.4780   15.1140   46.9590 N   0  0  0  0  0  0  0  0  0  0  0  0
   46.6630   16.2060   46.1880 N   0  0  0  0  0  0  0  0  0  0  0  0
   45.2690   17.4890   47.8740 C   0  0  0  0  0  1  0  0  0  0  0  0
   42.8320   14.0310   46.4540 C   0  0  0  0  0  3  0  0  0  0  0  0
  1  2  1  0  0  0  0
  1  7  1  0  0  0  0
  2  3  1  0  0  0  0
  4 17  1  0  0  0  0
  4  3  1  0  0  0  0
  5  6  1  0  0  0  0
  5  4  1  0  0  0  0
  6  1  1  0  0  0  0
  7  8  2  0  0  0  0
  7  9  2  0  0  0  0
 10  7  1  0  0  0  0
 11 10  1  0  0  0  0
 12 11  2  0  0  0  0
 13 14  2  0  0  0  0
 13 12  1  0  0  0  0
 14 16  1  0  0  0  0
 15 13  1  0  0  0  0
 16 10  2  0  0  0  0
 17 26  1  0  0  0  0
 18 17  2  0  0  0  0
 18 19  1  0  0  0  0
 19 20  1  0  0  0  0
 20 22  1  0  0  0  0
 20 23  1  0  0  0  0
 21 19  2  0  0  0  0
 21 24  1  0  0  0  0
 22 25  1  0  0  0  0
 24 22  2  0  0  0  0
 26 23  2  0  0  0  0
M  END
>  <Pose>
1

>  <Score>
-7.902

$$$$
