/Users/jonathanwahrer/Desktop/Msc/3_Semester/Drug_Design_Praktikum/waehrer_HTS_screening/HTS_experiment/out/docking_results/vina_output/2qfa/1105_docked.pdbqt
 OpenBabel03162220213D

 33 36  0  0  1  0  0  0  0  0999 V2000
   40.6930   12.9740   46.0130 N   0  0  0  0  0  0  0  0  0  0  0  0
   40.1090   14.2730   45.9740 C   0  0  0  0  0  2  0  0  0  0  0  0
   38.6410   14.3180   46.3340 C   0  0  0  0  0  2  0  0  0  0  0  0
   38.3740   13.5130   47.5280 N   0  0  0  0  0  0  0  0  0  0  0  0
   38.9910   12.2060   47.4790 C   0  0  0  0  0  0  0  0  0  0  0  0
   38.9160   11.4010   48.4110 O   0  0  0  0  0  0  0  0  0  0  0  0
   39.7140   11.9660   46.1860 C   0  0  2  0  0  3  0  0  0  0  0  0
   37.8170   13.8080   48.3290 H   0  0  0  0  0  0  0  0  0  0  0  0
   40.1350   10.5600   46.0150 C   0  0  0  0  0  2  0  0  0  0  0  0
   40.8320   10.4050   44.7150 C   0  0  0  0  0  0  0  0  0  0  0  0
   40.4470   11.1520   43.7770 O   0  0  0  0  0  0  0  0  0  0  0  0
   41.8860    9.4590   44.5310 N   0  0  0  0  0  0  0  0  0  0  0  0
   42.3160    8.6120   45.6100 C   0  0  0  0  0  2  0  0  0  0  0  0
   42.5190    9.3640   43.2420 C   0  0  0  0  0  2  0  0  0  0  0  0
   42.8530    7.2860   45.1720 C   0  0  0  0  0  2  0  0  0  0  0  0
   43.5100    7.3140   43.8760 N   0  0  0  0  0  0  0  0  0  0  0  0
   42.7210    7.9250   42.8160 C   0  0  0  0  0  2  0  0  0  0  0  0
   44.7830    6.8000   43.5980 C   0  0  0  0  0  0  0  0  0  0  0  0
   45.8230    7.6680   43.3450 C   0  0  0  0  0  3  0  0  0  0  0  0
   47.0780    7.1560   43.0560 C   0  0  0  0  0  3  0  0  0  0  0  0
   47.3380    5.8090   43.0090 C   0  0  0  0  0  3  0  0  0  0  0  0
   46.2970    4.9460   43.2620 C   0  0  0  0  0  3  0  0  0  0  0  0
   45.0370    5.4510   43.5520 C   0  0  0  0  0  3  0  0  0  0  0  0
   41.9910   12.9520   47.1090 S   0  0  0  0  0  0  0  0  0  0  0  0
   42.3340   11.5910   47.6270 O   0  0  0  0  0  0  0  0  0  0  0  0
   41.6760   13.8020   48.3340 O   0  0  0  0  0  0  0  0  0  0  0  0
   43.4410   13.6520   46.4120 C   0  0  0  0  0  0  0  0  0  0  0  0
   44.0670   14.7670   46.9560 C   0  0  0  0  0  3  0  0  0  0  0  0
   45.1940   15.3310   46.4280 C   0  0  0  0  0  3  0  0  0  0  0  0
   45.7670   14.7980   45.3030 C   0  0  0  0  0  0  0  0  0  0  0  0
   45.1650   13.6740   44.7270 C   0  0  0  0  0  3  0  0  0  0  0  0
   47.3370   15.5380   44.5220 Br  0  0  0  0  0  0  0  0  0  0  0  0
   44.0310   13.1320   45.2840 C   0  0  0  0  0  3  0  0  0  0  0  0
  1  7  1  0  0  0  0
  1 24  1  0  0  0  0
  2  1  1  0  0  0  0
  2  3  1  0  0  0  0
  3  4  1  0  0  0  0
  4  8  1  0  0  0  0
  5  4  1  0  0  0  0
  5  6  2  0  0  0  0
  7  9  1  1  0  0  0
  7  5  1  0  0  0  0
 10  9  1  0  0  0  0
 11 10  2  0  0  0  0
 12 10  1  0  0  0  0
 12 13  1  0  0  0  0
 14 12  1  0  0  0  0
 15 13  1  0  0  0  0
 16 15  1  0  0  0  0
 17 14  1  0  0  0  0
 17 16  1  0  0  0  0
 18 16  1  0  0  0  0
 19 18  2  0  0  0  0
 20 19  1  0  0  0  0
 21 20  2  0  0  0  0
 21 22  1  0  0  0  0
 22 23  2  0  0  0  0
 23 18  1  0  0  0  0
 24 25  2  0  0  0  0
 24 26  2  0  0  0  0
 27 28  1  0  0  0  0
 27 24  1  0  0  0  0
 29 28  2  0  0  0  0
 30 29  1  0  0  0  0
 31 33  1  0  0  0  0
 31 30  2  0  0  0  0
 32 30  1  0  0  0  0
 33 27  2  0  0  0  0
M  END
>  <Pose>
1

>  <Score>
-8.069

$$$$
