/Users/jonathanwahrer/Desktop/Msc/3_Semester/Drug_Design_Praktikum/waehrer_HTS_screening/HTS_experiment/out/docking_results/vina_output/2qfa/1130_docked.pdbqt
 OpenBabel03162220223D

 29 32  0  0  0  0  0  0  0  0999 V2000
   42.6440   10.5680   43.8840 C   0  0  0  0  0  0  0  0  0  0  0  0
   43.9160   10.9870   43.9920 N   0  0  0  0  0  0  0  0  0  0  0  0
   44.2780   12.0800   44.6440 N   0  0  0  0  0  2  0  0  0  0  0  0
   43.3600   12.8590   45.2550 C   0  0  0  0  0  0  0  0  0  0  0  0
   42.0460   12.4490   45.1570 C   0  0  0  0  0  0  0  0  0  0  0  0
   41.3270   13.3680   45.8320 N   0  0  0  0  0  0  0  0  0  0  0  0
   42.1200   14.3240   46.3440 C   0  0  0  0  0  0  0  0  0  0  0  0
   43.4200   14.0290   45.9930 C   0  0  0  0  0  0  0  0  0  0  0  0
   44.4950   14.8220   46.3660 C   0  0  0  0  0  3  0  0  0  0  0  0
   44.2110   15.9470   47.1190 C   0  0  0  0  0  0  0  0  0  0  0  0
   42.9180   16.2660   47.4830 C   0  0  0  0  0  3  0  0  0  0  0  0
   41.8680   15.4660   47.1030 C   0  0  0  0  0  3  0  0  0  0  0  0
   45.6940   17.0410   47.6330 Br  0  0  0  0  0  0  0  0  0  0  0  0
   39.8850   13.3010   45.9680 C   0  0  0  0  0  1  0  0  0  0  0  0
   41.6980   11.3160   44.4770 N   0  0  0  0  0  2  0  0  0  0  0  0
   42.2270    9.0640   42.9770 S   0  0  0  0  0  0  0  0  0  0  0  0
   42.3210    7.6680   44.1300 C   0  0  0  0  0  2  0  0  0  0  0  0
   43.5550    6.8880   43.8280 C   0  0  0  0  0  0  0  0  0  0  0  0
   43.8250    5.8200   44.4640 O   0  0  0  0  0  0  0  0  0  0  0  0
   44.4650    7.3020   42.8330 N   0  0  0  0  0  0  0  0  0  0  0  0
   44.2580    8.1750   42.3030 H   0  0  0  0  0  0  0  0  0  0  0  0
   45.6360    6.5590   42.5460 C   0  0  0  0  0  0  0  0  0  0  0  0
   45.9240    5.8610   41.4350 N   0  0  0  0  0  0  0  0  0  0  0  0
   47.1010    5.3080   41.5370 O   0  0  0  0  0  0  0  0  0  0  0  0
   47.5850    5.6320   42.6880 N   0  0  0  0  0  0  0  0  0  0  0  0
   46.7390    6.4070   43.3780 C   0  0  0  0  0  0  0  0  0  0  0  0
   46.9510    6.9380   44.6690 N   0  0  0  0  0  0  0  0  0  0  0  0
   46.4380    6.5350   45.4750 H   0  0  0  0  0  0  0  0  0  0  0  0
   47.6050    7.7260   44.8520 H   0  0  0  0  0  0  0  0  0  0  0  0
  1  2  2  0  0  0  0
  1 15  1  0  0  0  0
  2  3  1  0  0  0  0
  3  4  1  0  0  0  0
  4  8  1  0  0  0  0
  5  4  2  0  0  0  0
  5  6  1  0  0  0  0
  6 14  1  0  0  0  0
  6  7  1  0  0  0  0
  7 12  1  0  0  0  0
  8  7  2  0  0  0  0
  8  9  1  0  0  0  0
  9 10  2  0  0  0  0
 10 11  1  0  0  0  0
 10 13  1  0  0  0  0
 12 11  2  0  0  0  0
 15  5  1  0  0  0  0
 16  1  1  0  0  0  0
 16 17  1  0  0  0  0
 18 17  1  0  0  0  0
 18 19  2  0  0  0  0
 20 18  1  0  0  0  0
 21 20  1  0  0  0  0
 22 20  1  0  0  0  0
 22 26  1  0  0  0  0
 23 24  1  0  0  0  0
 23 22  2  0  0  0  0
 24 25  1  0  0  0  0
 25 26  2  0  0  0  0
 26 27  1  0  0  0  0
 27 29  1  0  0  0  0
 27 28  1  0  0  0  0
M  END
>  <Pose>
1

>  <Score>
-7.986

$$$$
