/Users/jonathanwahrer/Desktop/Msc/3_Semester/Drug_Design_Praktikum/waehrer_HTS_screening/HTS_experiment/out/docking_results/vina_output/2qfa/1133_docked.pdbqt
 OpenBabel03162220233D

 35 38  0  0  1  0  0  0  0  0999 V2000
   42.3480   12.4700   46.3030 C   0  0  0  0  0  0  0  0  0  0  0  0
   41.8020   11.2910   46.0020 N   0  0  0  0  0  0  0  0  0  0  0  0
   40.4760   11.5130   45.8030 C   0  0  0  0  0  0  0  0  0  0  0  0
   39.3780   10.7840   45.5520 N   0  0  0  0  0  0  0  0  0  0  0  0
   38.1290   11.2520   45.4630 C   0  0  0  0  0  0  0  0  0  0  0  0
   37.9380   12.6170   45.6340 N   0  0  0  0  0  0  0  0  0  0  0  0
   38.9520   13.4080   45.8840 C   0  0  0  0  0  0  0  0  0  0  0  0
   40.2320   12.9020   45.9800 C   0  0  0  0  0  0  0  0  0  0  0  0
   41.4110   13.4300   46.2870 N   0  0  0  0  0  0  0  0  0  0  0  0
   42.3960   10.0020   45.8470 C   0  0  2  0  0  3  0  0  0  0  0  0
   42.2480    9.4540   44.5540 O   0  0  0  0  0  0  0  0  0  0  0  0
   42.7620    8.1600   44.8020 C   0  0  1  0  0  3  0  0  0  0  0  0
   41.7590    7.7490   45.9110 C   0  0  2  0  0  3  0  0  0  0  0  0
   41.9890    8.9540   46.8320 C   0  0  1  0  0  3  0  0  0  0  0  0
   42.6790    7.2810   43.6130 C   0  0  0  0  0  2  0  0  0  0  0  0
   41.5290    6.4840   43.6660 O   0  0  0  0  0  0  0  0  0  0  0  0
   41.3490    6.2920   44.6370 H   0  0  0  0  0  0  0  0  0  0  0  0
   42.0830    6.5550   46.4970 O   0  0  0  0  0  0  0  0  0  0  0  0
   41.7530    5.8050   45.9480 H   0  0  0  0  0  0  0  0  0  0  0  0
   43.0650    8.6070   47.6890 O   0  0  0  0  0  0  0  0  0  0  0  0
   43.5980    7.9730   47.1590 H   0  0  0  0  0  0  0  0  0  0  0  0
   44.0610   12.7560   46.7650 S   0  0  0  0  0  0  0  0  0  0  0  0
   44.3500   14.5510   47.0850 C   0  0  0  0  0  2  0  0  0  0  0  0
   45.4110   15.0510   46.1810 C   0  0  0  0  0  0  0  0  0  0  0  0
   46.0660   16.2470   46.3430 C   0  0  0  0  0  0  0  0  0  0  0  0
   46.9310   16.7280   45.4220 C   0  0  0  0  0  3  0  0  0  0  0  0
   45.7860   17.1280   48.0170 Br  0  0  0  0  0  0  0  0  0  0  0  0
   47.2120   16.0280   44.2540 C   0  0  0  0  0  3  0  0  0  0  0  0
   46.5580   14.8040   44.0550 C   0  0  0  0  0  3  0  0  0  0  0  0
   45.6740   14.3260   45.0030 C   0  0  0  0  0  3  0  0  0  0  0  0
   36.9600   10.4480   45.2430 N   0  0  0  0  0  0  0  0  0  0  0  0
   36.0220   10.7770   45.0230 H   0  0  0  0  0  0  0  0  0  0  0  0
   37.0780    9.3820   45.3600 H   0  0  0  0  0  0  0  0  0  0  0  0
   38.8200   14.7640   46.0510 O   0  0  0  0  0  0  0  0  0  0  0  0
   38.6990   15.2110   46.9530 H   0  0  0  0  0  0  0  0  0  0  0  0
  1 22  1  0  0  0  0
  2  1  1  0  0  0  0
  3  8  2  0  0  0  0
  3  2  1  0  0  0  0
  4  3  1  0  0  0  0
  5  4  2  0  0  0  0
  5  6  1  0  0  0  0
  6  7  2  0  0  0  0
  7  8  1  0  0  0  0
  7 34  1  0  0  0  0
  8  9  1  0  0  0  0
  9  1  2  0  0  0  0
 10  2  1  6  0  0  0
 10 14  1  0  0  0  0
 11 12  1  0  0  0  0
 11 10  1  0  0  0  0
 12 15  1  6  0  0  0
 12 13  1  0  0  0  0
 13 18  1  1  0  0  0
 13 14  1  0  0  0  0
 14 20  1  1  0  0  0
 15 16  1  0  0  0  0
 16 17  1  0  0  0  0
 19 18  1  0  0  0  0
 21 20  1  0  0  0  0
 22 23  1  0  0  0  0
 24 25  1  0  0  0  0
 24 23  1  0  0  0  0
 25 27  1  0  0  0  0
 26 25  2  0  0  0  0
 28 26  1  0  0  0  0
 29 28  2  0  0  0  0
 29 30  1  0  0  0  0
 30 24  2  0  0  0  0
 31 33  1  0  0  0  0
 31  5  1  0  0  0  0
 32 31  1  0  0  0  0
 34 35  1  0  0  0  0
M  END
>  <Pose>
1

>  <Score>
-7.027

$$$$
