/Users/jonathanwahrer/Desktop/Msc/3_Semester/Drug_Design_Praktikum/waehrer_HTS_screening/HTS_experiment/out/docking_results/vina_output/2qfa/1192_docked.pdbqt
 OpenBabel03162220263D

 27 30  0  0  1  0  0  0  0  0999 V2000
   41.5040   10.9500   42.9900 S   0  0  0  0  0  0  0  0  0  0  0  0
   41.1290   11.6470   44.5150 C   0  0  0  0  0  0  0  0  0  0  0  0
   41.3590   10.6110   45.3790 C   0  0  0  0  0  0  0  0  0  0  0  0
   41.7730    9.4470   44.8550 C   0  0  0  0  0  0  0  0  0  0  0  0
   41.9340    9.3870   43.4970 C   0  0  0  0  0  0  0  0  0  0  0  0
   42.3980    8.0770   42.9310 C   0  0  0  0  0  2  0  0  0  0  0  0
   43.6310    7.7030   43.6210 N   0  0  0  0  0  4  0  0  0  0  0  0
   43.5010    7.6880   45.0450 C   0  0  0  0  0  2  0  0  0  0  0  0
   42.1160    8.1190   45.5140 C   0  0  0  0  0  2  0  0  0  0  0  0
   44.6050    8.7390   43.2780 C   0  0  0  0  0  1  0  0  0  0  0  0
   41.1050   10.9390   46.8090 C   0  0  0  0  0  0  0  0  0  0  0  0
   41.2800   10.0690   47.7130 O   0  0  0  0  0  0  0  0  0  0  0  0
   40.6640   12.2460   47.1420 N   0  0  0  0  0  0  0  0  0  0  0  0
   40.8540   13.4040   46.3180 C   0  0  2  0  0  3  0  0  0  0  0  0
   40.6800   12.9550   44.9460 N   0  0  0  0  0  0  0  0  0  0  0  0
   44.0090    6.8190   43.2220 H   0  0  0  0  0  0  0  0  0  0  0  0
   40.1610   12.3550   48.0680 H   0  0  0  0  0  0  0  0  0  0  0  0
   40.2310   13.5490   44.2200 H   0  0  0  0  0  0  0  0  0  0  0  0
   42.2000   14.0060   46.4750 C   0  0  0  0  0  0  0  0  0  0  0  0
   43.2080   13.7870   45.5580 C   0  0  0  0  0  3  0  0  0  0  0  0
   44.4630   14.3380   45.6860 C   0  0  0  0  0  0  0  0  0  0  0  0
   44.7490   15.1450   46.7690 C   0  0  0  0  0  0  0  0  0  0  0  0
   45.8390   14.0310   44.4190 Br  0  0  0  0  0  0  0  0  0  0  0  0
   43.7610   15.3770   47.6950 C   0  0  0  0  0  0  0  0  0  0  0  0
   46.0120   15.7030   46.9040 O   0  0  0  0  0  1  0  0  0  0  0  0
   42.5040   14.8200   47.5590 C   0  0  0  0  0  3  0  0  0  0  0  0
   44.2040   16.5060   49.1850 Br  0  0  0  0  0  0  0  0  0  0  0  0
  1  5  1  0  0  0  0
  1  2  1  0  0  0  0
  2 15  1  0  0  0  0
  2  3  2  0  0  0  0
  3 11  1  0  0  0  0
  4  3  1  0  0  0  0
  4  9  1  0  0  0  0
  5  4  2  0  0  0  0
  6  5  1  0  0  0  0
  6  7  1  0  0  0  0
  7  8  1  0  0  0  0
  8  9  1  0  0  0  0
 10  7  1  0  0  0  0
 11 13  1  0  0  0  0
 11 12  2  0  0  0  0
 13 17  1  0  0  0  0
 14 19  1  6  0  0  0
 14 13  1  0  0  0  0
 15 14  1  0  0  0  0
 16  7  1  0  0  0  0
 18 15  1  0  0  0  0
 19 26  1  0  0  0  0
 20 21  1  0  0  0  0
 20 19  2  0  0  0  0
 21 22  2  0  0  0  0
 22 25  1  0  0  0  0
 22 24  1  0  0  0  0
 23 21  1  0  0  0  0
 24 27  1  0  0  0  0
 26 24  2  0  0  0  0
M  END
>  <Pose>
1

>  <Score>
-6.050

$$$$
