/Users/jonathanwahrer/Desktop/Msc/3_Semester/Drug_Design_Praktikum/waehrer_HTS_screening/HTS_experiment/out/docking_results/vina_output/2qfa/1193_docked.pdbqt
 OpenBabel03162220263D

 29 32  0  0  1  0  0  0  0  0999 V2000
   41.0710    9.1000   46.9220 S   0  0  0  0  0  0  0  0  0  0  0  0
   40.9040   10.6470   46.2190 C   0  0  0  0  0  0  0  0  0  0  0  0
   41.6070   10.5320   45.0520 C   0  0  0  0  0  0  0  0  0  0  0  0
   42.1890    9.3320   44.7990 C   0  0  0  0  0  0  0  0  0  0  0  0
   42.0190    8.3460   45.7380 C   0  0  0  0  0  0  0  0  0  0  0  0
   42.6100    6.9850   45.5760 C   0  0  0  0  0  2  0  0  0  0  0  0
   42.7140    6.5510   44.2250 N   0  0  0  0  0  4  0  0  0  0  0  0
   42.5520    7.5480   43.2230 C   0  0  0  0  0  2  0  0  0  0  0  0
   43.0270    8.9210   43.5820 C   0  0  0  0  0  2  0  0  0  0  0  0
   43.9270    5.7690   44.0180 C   0  0  0  0  0  1  0  0  0  0  0  0
   41.6080   11.7790   44.2280 C   0  0  0  0  0  0  0  0  0  0  0  0
   42.2310   11.7980   43.1170 O   0  0  0  0  0  0  0  0  0  0  0  0
   40.9200   12.9260   44.6880 N   0  0  0  0  0  0  0  0  0  0  0  0
   40.7240   13.1540   46.1020 C   0  0  1  0  0  3  0  0  0  0  0  0
   40.2350   11.8740   46.6150 N   0  0  0  0  0  0  0  0  0  0  0  0
   41.9250    5.8470   44.0760 H   0  0  0  0  0  0  0  0  0  0  0  0
   40.5470   13.6190   44.0010 H   0  0  0  0  0  0  0  0  0  0  0  0
   39.4290   11.7670   47.2530 H   0  0  0  0  0  0  0  0  0  0  0  0
   42.0550   13.4580   46.6890 C   0  0  0  0  0  0  0  0  0  0  0  0
   42.3710   13.0500   47.9670 C   0  0  0  0  0  3  0  0  0  0  0  0
   43.6000   13.3220   48.5300 C   0  0  0  0  0  0  0  0  0  0  0  0
   44.5450   14.0260   47.7960 C   0  0  0  0  0  0  0  0  0  0  0  0
   44.0510   12.7630   50.2950 Br  0  0  0  0  0  0  0  0  0  0  0  0
   44.2560   14.4480   46.5160 C   0  0  0  0  0  0  0  0  0  0  0  0
   45.7930   14.3140   48.3440 O   0  0  0  0  0  1  0  0  0  0  0  0
   43.0360   14.1630   45.9890 C   0  0  0  0  0  3  0  0  0  0  0  0
   45.2320   15.1440   45.8270 O   0  0  0  0  0  0  0  0  0  0  0  0
   46.0290   14.6400   44.8030 C   0  0  0  0  0  2  0  0  0  0  0  0
   47.1730   15.5760   44.4780 C   0  0  0  0  0  1  0  0  0  0  0  0
  2 15  1  0  0  0  0
  2  1  1  0  0  0  0
  3  2  2  0  0  0  0
  4  3  1  0  0  0  0
  4  5  2  0  0  0  0
  5  1  1  0  0  0  0
  6  5  1  0  0  0  0
  7  6  1  0  0  0  0
  8  9  1  0  0  0  0
  8  7  1  0  0  0  0
  9  4  1  0  0  0  0
 10  7  1  0  0  0  0
 11 13  1  0  0  0  0
 11  3  1  0  0  0  0
 12 11  2  0  0  0  0
 13 14  1  0  0  0  0
 14 15  1  0  0  0  0
 14 19  1  1  0  0  0
 15 18  1  0  0  0  0
 16  7  1  0  0  0  0
 17 13  1  0  0  0  0
 19 20  1  0  0  0  0
 20 21  2  0  0  0  0
 21 23  1  0  0  0  0
 22 25  1  0  0  0  0
 22 21  1  0  0  0  0
 24 22  2  0  0  0  0
 26 24  1  0  0  0  0
 26 19  2  0  0  0  0
 27 24  1  0  0  0  0
 28 27  1  0  0  0  0
 29 28  1  0  0  0  0
M  END
>  <Pose>
1

>  <Score>
-6.210

$$$$
