/Users/jonathanwahrer/Desktop/Msc/3_Semester/Drug_Design_Praktikum/waehrer_HTS_screening/HTS_experiment/out/docking_results/vina_output/2qfa/1211_docked.pdbqt
 OpenBabel03162220263D

 26 29  0  0  1  0  0  0  0  0999 V2000
   42.8350    9.1490   47.5470 S   0  0  0  0  0  0  0  0  0  0  0  0
   41.4050    9.1870   48.6980 C   0  0  0  0  0  2  0  0  0  0  0  0
   40.1850    9.0180   47.7900 C   0  0  0  0  0  2  0  0  0  0  0  0
   40.0780   10.2670   46.9210 C   0  0  0  0  0  2  0  0  0  0  0  0
   40.9540   10.0780   45.7910 N   0  0  1  0  0  0  0  0  0  0  0  0
   42.1600    9.6010   45.9540 C   0  0  2  0  0  3  0  0  0  0  0  0
   42.7700    9.5150   44.6380 N   0  0  0  0  0  0  0  0  0  0  0  0
   42.2300   10.6940   43.9970 C   0  0  2  0  0  0  0  0  0  0  0  0
   40.7460   10.3150   44.3590 C   0  0  0  0  0  2  0  0  0  0  0  0
   42.4120   10.7780   42.6530 O   0  0  0  0  0  0  0  0  0  0  0  0
   42.5800    9.8510   42.2970 H   0  0  0  0  0  0  0  0  0  0  0  0
   42.5960   11.8870   44.7690 C   0  0  0  0  0  0  0  0  0  0  0  0
   41.6830   12.8640   45.1260 C   0  0  0  0  0  3  0  0  0  0  0  0
   42.1150   13.9940   45.8370 C   0  0  0  0  0  3  0  0  0  0  0  0
   43.3990   14.1760   46.1910 C   0  0  0  0  0  0  0  0  0  0  0  0
   44.3550   13.1980   45.8450 C   0  0  0  0  0  3  0  0  0  0  0  0
   43.8880   12.0990   45.1450 C   0  0  0  0  0  3  0  0  0  0  0  0
   43.8760   15.3040   46.9070 O   0  0  0  0  0  0  0  0  0  0  0  0
   45.2430   15.6550   46.8560 C   0  0  0  0  0  1  0  0  0  0  0  0
   43.5950    8.4810   44.1510 C   0  0  0  0  0  0  0  0  0  0  0  0
   43.2600    7.1510   44.5040 C   0  0  0  0  0  3  0  0  0  0  0  0
   44.0410    6.0750   44.1170 C   0  0  0  0  0  3  0  0  0  0  0  0
   45.1750    6.2560   43.3740 C   0  0  0  0  0  0  0  0  0  0  0  0
   45.5270    7.5400   43.0150 C   0  0  0  0  0  3  0  0  0  0  0  0
   46.2940    4.8060   42.8350 Br  0  0  0  0  0  0  0  0  0  0  0  0
   44.7270    8.6300   43.4100 C   0  0  0  0  0  3  0  0  0  0  0  0
  1  2  1  0  0  0  0
  3  2  1  0  0  0  0
  4  3  1  0  0  0  0
  5  9  1  6  0  0  0
  5  6  1  0  0  0  0
  5  4  1  0  0  0  0
  6  1  1  6  0  0  0
  7  6  1  0  0  0  0
  8 10  1  6  0  0  0
  8  9  1  0  0  0  0
  8  7  1  0  0  0  0
  8 12  1  0  0  0  0
 11 10  1  0  0  0  0
 12 13  2  0  0  0  0
 12 17  1  0  0  0  0
 13 14  1  0  0  0  0
 14 15  2  0  0  0  0
 15 18  1  0  0  0  0
 16 15  1  0  0  0  0
 17 16  2  0  0  0  0
 19 18  1  0  0  0  0
 20 21  1  0  0  0  0
 20  7  1  0  0  0  0
 22 21  2  0  0  0  0
 23 22  1  0  0  0  0
 24 23  2  0  0  0  0
 24 26  1  0  0  0  0
 25 23  1  0  0  0  0
 26 20  2  0  0  0  0
M  END
>  <Pose>
1

>  <Score>
-7.197

$$$$
