/Users/jonathanwahrer/Desktop/Msc/3_Semester/Drug_Design_Praktikum/waehrer_HTS_screening/HTS_experiment/out/docking_results/vina_output/2qfa/1217_docked.pdbqt
 OpenBabel03162220273D

 28 31  0  0  1  0  0  0  0  0999 V2000
   41.2370   11.1040   48.6280 S   0  0  0  0  0  0  0  0  0  0  0  0
   39.8360   10.0990   49.0530 C   0  0  0  0  0  2  0  0  0  0  0  0
   39.4810    9.2010   47.8840 C   0  0  0  0  0  2  0  0  0  0  0  0
   39.1280   10.0590   46.6820 C   0  0  0  0  0  2  0  0  0  0  0  0
   40.3310   10.6200   46.1070 N   0  0  2  0  0  0  0  0  0  0  0  0
   40.8720   10.5630   44.7890 C   0  0  2  0  0  0  0  0  0  0  0  0
   41.5260   11.9350   44.7230 C   0  0  0  0  0  2  0  0  0  0  0  0
   42.0120   12.1280   46.0710 N   0  0  0  0  0  0  0  0  0  0  0  0
   41.2820   11.4060   46.8470 C   0  0  2  0  0  3  0  0  0  0  0  0
   43.1120   12.9250   46.4870 C   0  0  0  0  0  0  0  0  0  0  0  0
   42.9580   14.3030   46.4120 C   0  0  0  0  0  0  0  0  0  0  0  0
   44.0050   15.1530   46.7800 C   0  0  0  0  0  3  0  0  0  0  0  0
   45.2030   14.6160   47.2170 C   0  0  0  0  0  3  0  0  0  0  0  0
   45.3900   13.2570   47.3030 C   0  0  0  0  0  0  0  0  0  0  0  0
   44.2970   12.4560   46.9190 C   0  0  0  0  0  3  0  0  0  0  0  0
   41.7640   14.8340   45.9740 O   0  0  0  0  0  0  0  0  0  0  0  0
   40.8310   15.5120   46.7820 C   0  0  0  0  0  1  0  0  0  0  0  0
   46.5620   12.6580   47.7320 O   0  0  0  0  0  0  0  0  0  0  0  0
   46.6970   11.8190   48.8430 C   0  0  0  0  0  1  0  0  0  0  0  0
   39.8510   10.4520   43.8510 O   0  0  0  0  0  0  0  0  0  0  0  0
   39.7040   11.3160   43.4040 H   0  0  0  0  0  0  0  0  0  0  0  0
   41.9310    9.5570   44.5740 C   0  0  0  0  0  0  0  0  0  0  0  0
   42.0860    8.3930   45.2590 C   0  0  0  0  0  3  0  0  0  0  0  0
   43.1500    7.5280   44.9960 C   0  0  0  0  0  3  0  0  0  0  0  0
   44.0890    7.8220   44.0300 C   0  0  0  0  0  0  0  0  0  0  0  0
   43.9430    8.9860   43.3390 C   0  0  0  0  0  3  0  0  0  0  0  0
   45.5490    6.6270   43.6860 Br  0  0  0  0  0  0  0  0  0  0  0  0
   42.9010    9.8330   43.5960 C   0  0  0  0  0  3  0  0  0  0  0  0
  1  2  1  0  0  0  0
  3  2  1  0  0  0  0
  4  3  1  0  0  0  0
  5  4  1  1  0  0  0
  5  9  1  0  0  0  0
  6 20  1  6  0  0  0
  6  5  1  0  0  0  0
  7  6  1  0  0  0  0
  7  8  1  0  0  0  0
  8 10  1  0  0  0  0
  8  9  1  0  0  0  0
  9  1  1  6  0  0  0
 10 15  1  0  0  0  0
 11 10  2  0  0  0  0
 11 12  1  0  0  0  0
 12 13  2  0  0  0  0
 13 14  1  0  0  0  0
 14 18  1  0  0  0  0
 15 14  2  0  0  0  0
 16 11  1  0  0  0  0
 16 17  1  0  0  0  0
 18 19  1  0  0  0  0
 21 20  1  0  0  0  0
 22  6  1  0  0  0  0
 22 23  1  0  0  0  0
 24 23  2  0  0  0  0
 25 24  1  0  0  0  0
 26 28  1  0  0  0  0
 26 25  2  0  0  0  0
 27 25  1  0  0  0  0
 28 22  2  0  0  0  0
M  END
>  <Pose>
1

>  <Score>
-6.400

$$$$
