/Users/jonathanwahrer/Desktop/Msc/3_Semester/Drug_Design_Praktikum/waehrer_HTS_screening/HTS_experiment/out/docking_results/vina_output/2qfa/1219_docked.pdbqt
 OpenBabel03162220273D

 27 30  0  0  1  0  0  0  0  0999 V2000
   40.6940   13.1260   44.6100 S   0  0  0  0  0  0  0  0  0  0  0  0
   39.0870   13.2030   45.5040 C   0  0  0  0  0  2  0  0  0  0  0  0
   39.0420   12.0910   46.5380 C   0  0  0  0  0  2  0  0  0  0  0  0
   39.5180   10.7870   45.9530 C   0  0  0  0  0  2  0  0  0  0  0  0
   40.9460   10.7490   45.9480 N   0  0  2  0  0  0  0  0  0  0  0  0
   41.9800    9.7790   46.2570 C   0  0  1  0  0  0  0  0  0  0  0  0
   43.1460   10.6480   46.6930 C   0  0  0  0  0  2  0  0  0  0  0  0
   42.8780   11.8910   45.9420 N   0  0  0  0  0  0  0  0  0  0  0  0
   41.6670   11.9270   45.5510 C   0  0  1  0  0  3  0  0  0  0  0  0
   41.5920    8.8910   47.2410 O   0  0  0  0  0  0  0  0  0  0  0  0
   41.7630    7.9550   47.0610 H   0  0  0  0  0  0  0  0  0  0  0  0
   42.4020    9.0250   45.0530 C   0  0  0  0  0  0  0  0  0  0  0  0
   43.4700    8.1520   45.1290 C   0  0  0  0  0  3  0  0  0  0  0  0
   43.8320    7.4640   43.9710 C   0  0  0  0  0  0  0  0  0  0  0  0
   43.1560    7.6440   42.8020 C   0  0  0  0  0  3  0  0  0  0  0  0
   42.0850    8.5140   42.7110 C   0  0  0  0  0  3  0  0  0  0  0  0
   41.7270    9.2010   43.8770 C   0  0  0  0  0  3  0  0  0  0  0  0
   44.9260    6.5650   44.0400 N   0  0  0  0  0  0  0  0  0  0  0  0
   46.0880    6.9600   44.2550 O   0  0  0  0  0  0  0  0  0  0  0  0
   44.7510    5.2210   43.8710 O   0  0  0  0  0  0  0  0  0  0  0  0
   43.8480   12.9100   45.7130 C   0  0  0  0  0  0  0  0  0  0  0  0
   44.1190   13.9650   46.5330 C   0  0  0  0  0  3  0  0  0  0  0  0
   45.0930   14.9140   46.2560 C   0  0  0  0  0  3  0  0  0  0  0  0
   45.8380   14.8080   45.0990 C   0  0  0  0  0  0  0  0  0  0  0  0
   45.5890   13.7450   44.2380 C   0  0  0  0  0  3  0  0  0  0  0  0
   47.1990   16.0670   44.6260 Br  0  0  0  0  0  0  0  0  0  0  0  0
   44.6080   12.8080   44.5370 C   0  0  0  0  0  3  0  0  0  0  0  0
  1  2  1  0  0  0  0
  2  3  1  0  0  0  0
  4  3  1  0  0  0  0
  5  4  1  1  0  0  0
  5  6  1  0  0  0  0
  6  7  1  0  0  0  0
  6 10  1  1  0  0  0
  8  7  1  0  0  0  0
  9  1  1  6  0  0  0
  9  8  1  0  0  0  0
  9  5  1  0  0  0  0
 11 10  1  0  0  0  0
 12 13  1  0  0  0  0
 12  6  1  0  0  0  0
 14 18  1  0  0  0  0
 14 13  2  0  0  0  0
 15 14  1  0  0  0  0
 16 15  2  0  0  0  0
 16 17  1  0  0  0  0
 17 12  2  0  0  0  0
 18 19  2  0  0  0  0
 20 18  2  0  0  0  0
 21  8  1  0  0  0  0
 21 22  1  0  0  0  0
 23 22  2  0  0  0  0
 24 23  1  0  0  0  0
 25 27  1  0  0  0  0
 25 24  2  0  0  0  0
 26 24  1  0  0  0  0
 27 21  2  0  0  0  0
M  END
>  <Pose>
1

>  <Score>
-7.593

$$$$
