/Users/jonathanwahrer/Desktop/Msc/3_Semester/Drug_Design_Praktikum/waehrer_HTS_screening/HTS_experiment/out/docking_results/vina_output/2qfa/1220_docked.pdbqt
 OpenBabel03162220273D

 27 30  0  0  1  0  0  0  0  0999 V2000
   40.8270   11.9200   45.1140 S   0  0  0  0  0  0  0  0  0  0  0  0
   40.6170   11.9120   43.2880 C   0  0  0  0  0  2  0  0  0  0  0  0
   41.5670   11.0310   42.5920 C   0  0  0  0  0  2  0  0  0  0  0  0
   42.7070   10.4600   43.3320 C   0  0  0  0  0  2  0  0  0  0  0  0
   42.4590    9.8410   44.5690 N   0  0  1  0  0  0  0  0  0  0  0  0
   43.0930    8.7880   45.3030 C   0  0  2  0  0  0  0  0  0  0  0  0
   41.8950    8.1600   45.9810 C   0  0  0  0  0  2  0  0  0  0  0  0
   41.0580    9.3140   46.2300 N   0  0  0  0  0  0  0  0  0  0  0  0
   41.3690   10.2330   45.4430 C   0  0  1  0  0  3  0  0  0  0  0  0
   43.8740    9.3430   46.3200 O   0  0  0  0  0  0  0  0  0  0  0  0
   44.8050    9.3320   46.0450 H   0  0  0  0  0  0  0  0  0  0  0  0
   43.8530    7.8040   44.5090 C   0  0  0  0  0  0  0  0  0  0  0  0
   44.8920    8.2890   43.7210 C   0  0  0  0  0  3  0  0  0  0  0  0
   45.6610    7.4490   42.9470 C   0  0  0  0  0  3  0  0  0  0  0  0
   45.4400    6.0830   42.9150 C   0  0  0  0  0  0  0  0  0  0  0  0
   44.4110    5.5960   43.6980 C   0  0  0  0  0  3  0  0  0  0  0  0
   43.6310    6.4520   44.4830 C   0  0  0  0  0  3  0  0  0  0  0  0
   46.2460    5.2400   42.1140 N   0  0  0  0  0  0  0  0  0  0  0  0
   46.9780    4.3560   42.5730 O   0  0  0  0  0  0  0  0  0  0  0  0
   46.2210    5.3970   40.7510 O   0  0  0  0  0  0  0  0  0  0  0  0
   40.0450    9.3910   47.2400 C   0  0  0  0  0  0  0  0  0  0  0  0
   40.2680    8.7500   48.4500 C   0  0  0  0  0  3  0  0  0  0  0  0
   39.3190    8.7630   49.4700 C   0  0  0  0  0  3  0  0  0  0  0  0
   38.1190    9.4180   49.3030 C   0  0  0  0  0  0  0  0  0  0  0  0
   37.8840   10.0570   48.1100 C   0  0  0  0  0  3  0  0  0  0  0  0
   36.8060    9.4180   50.7090 Br  0  0  0  0  0  0  0  0  0  0  0  0
   38.8560   10.0260   47.1020 C   0  0  0  0  0  3  0  0  0  0  0  0
  2  1  1  0  0  0  0
  3  2  1  0  0  0  0
  3  4  1  0  0  0  0
  5  4  1  1  0  0  0
  5  6  1  0  0  0  0
  5  9  1  0  0  0  0
  6  7  1  0  0  0  0
  6 10  1  1  0  0  0
  7  8  1  0  0  0  0
  8 21  1  0  0  0  0
  9  1  1  1  0  0  0
  9  8  1  0  0  0  0
 11 10  1  0  0  0  0
 12  6  1  0  0  0  0
 13 12  2  0  0  0  0
 14 13  1  0  0  0  0
 15 14  2  0  0  0  0
 15 16  1  0  0  0  0
 16 17  2  0  0  0  0
 17 12  1  0  0  0  0
 18 19  2  0  0  0  0
 18 15  1  0  0  0  0
 20 18  2  0  0  0  0
 21 22  1  0  0  0  0
 22 23  2  0  0  0  0
 24 23  1  0  0  0  0
 24 26  1  0  0  0  0
 25 24  2  0  0  0  0
 27 21  2  0  0  0  0
 27 25  1  0  0  0  0
M  END
>  <Pose>
1

>  <Score>
-8.127

$$$$
