/Users/jonathanwahrer/Desktop/Msc/3_Semester/Drug_Design_Praktikum/waehrer_HTS_screening/HTS_experiment/out/docking_results/vina_output/2qfa/1222_docked.pdbqt
 OpenBabel03162220273D

 24 27  0  0  1  0  0  0  0  0999 V2000
   41.8900    8.9620   47.4130 S   0  0  0  0  0  0  0  0  0  0  0  0
   40.1730    8.6710   48.0320 C   0  0  0  0  0  2  0  0  0  0  0  0
   39.1970    9.5550   47.2990 C   0  0  0  0  0  2  0  0  0  0  0  0
   39.8000   10.8510   46.8030 C   0  0  0  0  0  2  0  0  0  0  0  0
   40.6850   10.7010   45.7150 N   0  0  1  0  0  0  0  0  0  0  0  0
   41.0790   11.3730   44.4640 C   0  0  1  0  0  0  0  0  0  0  0  0
   41.3100   10.1350   43.6310 C   0  0  0  0  0  2  0  0  0  0  0  0
   42.0070    9.2770   44.5780 N   0  0  0  0  0  0  0  0  0  0  0  0
   41.5800    9.5550   45.7170 C   0  0  1  0  0  3  0  0  0  0  0  0
   40.0870   12.1350   43.9280 O   0  0  0  0  0  0  0  0  0  0  0  0
   39.2440   12.1790   44.4440 H   0  0  0  0  0  0  0  0  0  0  0  0
   42.3770   12.1050   44.6440 C   0  0  0  0  0  0  0  0  0  0  0  0
   43.4730   11.8980   43.8300 C   0  0  0  0  0  3  0  0  0  0  0  0
   44.6350   12.6230   44.0600 C   0  0  0  0  0  3  0  0  0  0  0  0
   44.7470   13.5570   45.0820 C   0  0  0  0  0  3  0  0  0  0  0  0
   43.6650   13.7680   45.8920 C   0  0  0  0  0  3  0  0  0  0  0  0
   42.4980   13.0400   45.6650 C   0  0  0  0  0  3  0  0  0  0  0  0
   43.0480    8.3340   44.2430 C   0  0  0  0  0  0  0  0  0  0  0  0
   44.2390    8.6500   43.6720 C   0  0  0  0  0  3  0  0  0  0  0  0
   45.1960    7.7050   43.3230 C   0  0  0  0  0  3  0  0  0  0  0  0
   44.9490    6.3780   43.5560 C   0  0  0  0  0  0  0  0  0  0  0  0
   43.7400    6.0510   44.1380 C   0  0  0  0  0  3  0  0  0  0  0  0
   46.2090    5.0010   43.1040 Br  0  0  0  0  0  0  0  0  0  0  0  0
   42.8000    6.9830   44.4800 C   0  0  0  0  0  3  0  0  0  0  0  0
  1  2  1  0  0  0  0
  3  2  1  0  0  0  0
  4  3  1  0  0  0  0
  5  9  1  0  0  0  0
  5  4  1  1  0  0  0
  6 10  1  6  0  0  0
  6 12  1  0  0  0  0
  6  5  1  0  0  0  0
  7  6  1  0  0  0  0
  7  8  1  0  0  0  0
  8  9  1  0  0  0  0
  9  1  1  1  0  0  0
 10 11  1  0  0  0  0
 12 17  1  0  0  0  0
 13 14  1  0  0  0  0
 13 12  2  0  0  0  0
 14 15  2  0  0  0  0
 15 16  1  0  0  0  0
 17 16  2  0  0  0  0
 18 24  1  0  0  0  0
 18  8  1  0  0  0  0
 19 18  2  0  0  0  0
 20 21  2  0  0  0  0
 20 19  1  0  0  0  0
 21 22  1  0  0  0  0
 22 24  2  0  0  0  0
 23 21  1  0  0  0  0
M  END
>  <Pose>
1

>  <Score>
-7.284

$$$$
