/Users/jonathanwahrer/Desktop/Msc/3_Semester/Drug_Design_Praktikum/waehrer_HTS_screening/HTS_experiment/out/docking_results/vina_output/2qfa/1224_docked.pdbqt
 OpenBabel03162220273D

 26 29  0  0  1  0  0  0  0  0999 V2000
   41.8660    8.6700   47.2260 S   0  0  0  0  0  0  0  0  0  0  0  0
   40.1990    8.7840   47.9960 C   0  0  0  0  0  2  0  0  0  0  0  0
   39.7430   10.2150   47.7510 C   0  0  0  0  0  2  0  0  0  0  0  0
   39.4470   10.4690   46.3060 C   0  0  0  0  0  2  0  0  0  0  0  0
   40.5750   10.3610   45.4330 N   0  0  2  0  0  0  0  0  0  0  0  0
   41.0790   11.1040   44.2730 C   0  0  1  0  0  0  0  0  0  0  0  0
   41.4970    9.8790   43.4380 C   0  0  0  0  0  2  0  0  0  0  0  0
   42.1220    9.0430   44.4470 N   0  0  0  0  0  0  0  0  0  0  0  0
   41.5820    9.3220   45.5640 C   0  0  1  0  0  3  0  0  0  0  0  0
   40.0480   11.7880   43.6730 O   0  0  0  0  0  0  0  0  0  0  0  0
   39.2050   11.7410   44.1830 H   0  0  0  0  0  0  0  0  0  0  0  0
   42.2630   11.9220   44.5880 C   0  0  0  0  0  0  0  0  0  0  0  0
   43.5090   11.7820   44.0190 C   0  0  0  0  0  3  0  0  0  0  0  0
   44.5580   12.6120   44.3790 C   0  0  0  0  0  3  0  0  0  0  0  0
   44.3720   13.5910   45.3120 C   0  0  0  0  0  0  0  0  0  0  0  0
   43.1320   13.7440   45.8910 C   0  0  0  0  0  3  0  0  0  0  0  0
   45.7850   14.7740   45.8560 Br  0  0  0  0  0  0  0  0  0  0  0  0
   42.1010   12.9160   45.5260 C   0  0  0  0  0  3  0  0  0  0  0  0
   43.1670    8.0940   44.1350 C   0  0  0  0  0  0  0  0  0  0  0  0
   42.9830    6.7440   44.4200 C   0  0  0  0  0  3  0  0  0  0  0  0
   43.9600    5.8160   44.1370 C   0  0  0  0  0  3  0  0  0  0  0  0
   45.1650    6.1600   43.5620 C   0  0  0  0  0  0  0  0  0  0  0  0
   45.3550    7.4910   43.2780 C   0  0  0  0  0  3  0  0  0  0  0  0
   44.3560    8.4340   43.5680 C   0  0  0  0  0  3  0  0  0  0  0  0
   46.1270    5.1940   43.2890 O   0  0  0  0  0  0  0  0  0  0  0  0
   46.5970    4.8520   42.0160 C   0  0  0  0  0  1  0  0  0  0  0  0
  1  2  1  0  0  0  0
  3  2  1  0  0  0  0
  4  3  1  0  0  0  0
  5  9  1  0  0  0  0
  5  4  1  6  0  0  0
  6 10  1  6  0  0  0
  6 12  1  0  0  0  0
  6  5  1  0  0  0  0
  7  6  1  0  0  0  0
  7  8  1  0  0  0  0
  8  9  1  0  0  0  0
  9  1  1  1  0  0  0
 10 11  1  0  0  0  0
 12 18  1  0  0  0  0
 13 14  1  0  0  0  0
 13 12  2  0  0  0  0
 14 15  2  0  0  0  0
 15 17  1  0  0  0  0
 15 16  1  0  0  0  0
 18 16  2  0  0  0  0
 19 20  1  0  0  0  0
 19  8  1  0  0  0  0
 21 20  2  0  0  0  0
 22 21  1  0  0  0  0
 23 22  2  0  0  0  0
 23 24  1  0  0  0  0
 24 19  2  0  0  0  0
 25 22  1  0  0  0  0
 26 25  1  0  0  0  0
M  END
>  <Pose>
1

>  <Score>
-7.911

$$$$
