/Users/jonathanwahrer/Desktop/Msc/3_Semester/Drug_Design_Praktikum/waehrer_HTS_screening/HTS_experiment/out/docking_results/vina_output/2qfa/1226_docked.pdbqt
 OpenBabel03162220283D

 24 27  0  0  1  0  0  0  0  0999 V2000
   42.3880   10.4590   48.2640 S   0  0  0  0  0  0  0  0  0  0  0  0
   41.1480    9.2730   48.8550 C   0  0  0  0  0  2  0  0  0  0  0  0
   40.3730    8.8130   47.6160 C   0  0  0  0  0  2  0  0  0  0  0  0
   41.3460    8.0370   46.7140 C   0  0  0  0  0  2  0  0  0  0  0  0
   42.0780    9.0160   45.9020 N   0  0  1  0  0  0  0  0  0  0  0  0
   42.4550    9.0570   44.5480 C   0  0  2  0  0  0  0  0  0  0  0  0
   42.8680   10.5050   44.3040 C   0  0  0  0  0  2  0  0  0  0  0  0
   42.9210   11.0820   45.6120 N   0  0  0  0  0  0  0  0  0  0  0  0
   42.5150   10.2410   46.4740 C   0  0  1  0  0  3  0  0  0  0  0  0
   41.3150    8.8510   43.7390 O   0  0  0  0  0  0  0  0  0  0  0  0
   41.6170    8.2930   42.9760 H   0  0  0  0  0  0  0  0  0  0  0  0
   43.5220    8.1760   44.0780 C   0  0  0  0  0  0  0  0  0  0  0  0
   43.3970    6.8270   44.4030 C   0  0  0  0  0  3  0  0  0  0  0  0
   44.2990    5.8560   44.0090 C   0  0  0  0  0  3  0  0  0  0  0  0
   45.3880    6.2040   43.2590 C   0  0  0  0  0  0  0  0  0  0  0  0
   45.5310    7.5400   42.9260 C   0  0  0  0  0  3  0  0  0  0  0  0
   46.6780    4.8980   42.6660 Br  0  0  0  0  0  0  0  0  0  0  0  0
   44.6140    8.5070   43.3280 C   0  0  0  0  0  3  0  0  0  0  0  0
   43.3340   12.4400   45.8330 C   0  0  0  0  0  0  0  0  0  0  0  0
   42.3910   13.3870   46.0720 C   0  0  0  0  0  3  0  0  0  0  0  0
   42.8200   14.6880   46.3130 C   0  0  0  0  0  3  0  0  0  0  0  0
   44.1490   15.0470   46.3200 C   0  0  0  0  0  3  0  0  0  0  0  0
   45.0700   14.0510   46.0700 C   0  0  0  0  0  3  0  0  0  0  0  0
   44.6820   12.7560   45.8280 C   0  0  0  0  0  3  0  0  0  0  0  0
  1  2  1  0  0  0  0
  3  2  1  0  0  0  0
  4  3  1  0  0  0  0
  5  9  1  0  0  0  0
  5  4  1  6  0  0  0
  6 10  1  6  0  0  0
  6  5  1  0  0  0  0
  7  6  1  0  0  0  0
  7  8  1  0  0  0  0
  8 19  1  0  0  0  0
  8  9  1  0  0  0  0
  9  1  1  6  0  0  0
 11 10  1  0  0  0  0
 12 13  1  0  0  0  0
 12  6  1  0  0  0  0
 14 13  2  0  0  0  0
 15 14  1  0  0  0  0
 16 15  2  0  0  0  0
 16 18  1  0  0  0  0
 17 15  1  0  0  0  0
 18 12  2  0  0  0  0
 19 20  1  0  0  0  0
 20 21  2  0  0  0  0
 21 22  1  0  0  0  0
 23 22  2  0  0  0  0
 24 19  2  0  0  0  0
 24 23  1  0  0  0  0
M  END
>  <Pose>
1

>  <Score>
-7.333

$$$$
