/Users/jonathanwahrer/Desktop/Msc/3_Semester/Drug_Design_Praktikum/waehrer_HTS_screening/HTS_experiment/out/docking_results/vina_output/2qfa/1231_docked.pdbqt
 OpenBabel03162220283D

 37 40  0  0  0  0  0  0  0  0999 V2000
   49.0960    3.8790   43.5640 C   0  0  0  0  0  0  0  0  0  0  0  0
   49.5240    2.8140   42.8750 N   0  0  0  0  0  0  0  0  0  0  0  0
   48.5610    2.5570   41.9720 N   0  0  0  0  0  0  0  0  0  0  0  0
   47.5920    3.3940   42.0740 N   0  0  0  0  0  0  0  0  0  0  0  0
   47.8490    4.2980   43.0870 C   0  0  0  0  0  0  0  0  0  0  0  0
   46.9640    5.3750   43.4470 C   0  0  0  0  0  0  0  0  0  0  0  0
   47.4810    6.5610   43.4870 O   0  0  0  0  0  0  0  0  0  0  0  0
   45.6090    5.3170   43.7620 N   0  0  0  0  0  0  0  0  0  0  0  0
   44.9900    4.4900   43.8040 H   0  0  0  0  0  0  0  0  0  0  0  0
   44.9000    6.5240   44.0930 N   0  0  0  0  0  0  0  0  0  0  0  0
   43.6280    6.5670   44.1370 C   0  0  0  0  0  3  0  0  0  0  0  0
   42.8720    7.7670   44.4680 C   0  0  0  0  0  0  0  0  0  0  0  0
   42.5320    8.6960   43.5100 C   0  0  0  0  0  3  0  0  0  0  0  0
   41.8120    9.8340   43.8070 C   0  0  0  0  0  0  0  0  0  0  0  0
   41.3990   10.0910   45.0890 C   0  0  0  0  0  0  0  0  0  0  0  0
   41.3630   11.0940   42.4420 Br  0  0  0  0  0  0  0  0  0  0  0  0
   41.7280    9.1650   46.0910 C   0  0  0  0  0  0  0  0  0  0  0  0
   40.6760   11.2410   45.3650 O   0  0  0  0  0  1  0  0  0  0  0  0
   42.4490    8.0370   45.7630 C   0  0  0  0  0  3  0  0  0  0  0  0
   41.2840    9.4830   47.3540 O   0  0  0  0  0  0  0  0  0  0  0  0
   40.1940    8.8920   48.0150 C   0  0  0  0  0  1  0  0  0  0  0  0
   49.8000    4.5730   44.6530 C   0  0  0  0  0  2  0  0  0  0  0  0
   49.4830    4.0160   46.3140 S   0  0  0  0  0  0  0  0  0  0  0  0
   49.6260    5.3270   47.5220 C   0  0  0  0  0  0  0  0  0  0  0  0
   48.8800    5.2200   49.1480 S   0  0  0  0  0  0  0  0  0  0  0  0
   49.2550    6.9320   49.6340 C   0  0  0  0  0  2  0  0  0  0  0  0
   50.1930    7.3080   48.5320 C   0  0  0  0  0  2  0  0  0  0  0  0
   50.1970    6.4250   47.4800 N   0  0  0  0  0  0  0  0  0  0  0  0
   50.7230    2.0450   42.9450 C   0  0  0  0  0  0  0  0  0  0  0  0
   51.7640    2.0370   42.0880 N   0  0  0  0  0  0  0  0  0  0  0  0
   52.6950    1.2440   42.4660 O   0  0  0  0  0  0  0  0  0  0  0  0
   52.3240    0.6930   43.5790 N   0  0  0  0  0  0  0  0  0  0  0  0
   51.0890    1.1570   43.9340 C   0  0  0  0  0  0  0  0  0  0  0  0
   50.3600    0.8070   45.0930 N   0  0  0  0  0  4  0  0  0  0  0  0
   49.5350    1.4580   45.1670 H   0  0  0  0  0  0  0  0  0  0  0  0
   50.9090    0.8230   45.9700 H   0  0  0  0  0  0  0  0  0  0  0  0
   49.9550   -0.1600   44.9610 H   0  0  0  0  0  0  0  0  0  0  0  0
  1 22  1  0  0  0  0
  2 29  1  0  0  0  0
  2  1  1  0  0  0  0
  3  4  2  0  0  0  0
  3  2  1  0  0  0  0
  4  5  1  0  0  0  0
  5  6  1  0  0  0  0
  5  1  2  0  0  0  0
  6  7  2  0  0  0  0
  6  8  1  0  0  0  0
  8  9  1  0  0  0  0
  8 10  1  0  0  0  0
 10 11  2  0  0  0  0
 11 12  1  0  0  0  0
 12 19  1  0  0  0  0
 13 14  1  0  0  0  0
 13 12  2  0  0  0  0
 14 15  2  0  0  0  0
 15 18  1  0  0  0  0
 15 17  1  0  0  0  0
 16 14  1  0  0  0  0
 17 20  1  0  0  0  0
 19 17  2  0  0  0  0
 20 21  1  0  0  0  0
 22 23  1  0  0  0  0
 23 24  1  0  0  0  0
 24 25  1  0  0  0  0
 25 26  1  0  0  0  0
 27 26  1  0  0  0  0
 28 24  2  0  0  0  0
 28 27  1  0  0  0  0
 29 33  1  0  0  0  0
 30 31  1  0  0  0  0
 30 29  2  0  0  0  0
 31 32  1  0  0  0  0
 32 33  2  0  0  0  0
 33 34  1  0  0  0  0
 34 35  1  0  0  0  0
 34 36  1  0  0  0  0
 37 34  1  0  0  0  0
M  END
>  <Pose>
1

>  <Score>
-7.266

$$$$
