/Users/jonathanwahrer/Desktop/Msc/3_Semester/Drug_Design_Praktikum/waehrer_HTS_screening/HTS_experiment/out/docking_results/vina_output/2qfa/1236_docked.pdbqt
 OpenBabel03162220283D

 30 34  0  0  1  0  0  0  0  0999 V2000
   42.8870   12.9290   45.6630 C   0  0  2  0  0  3  0  0  0  0  0  0
   44.3490   12.7650   45.8940 C   0  0  1  0  0  3  0  0  0  0  0  0
   45.0370   13.8950   45.2120 C   0  0  0  0  0  0  0  0  0  0  0  0
   45.0400   15.1680   45.8880 N   0  0  0  0  0  0  0  0  0  0  0  0
   45.5820   13.7120   44.0950 O   0  0  0  0  0  0  0  0  0  0  0  0
   44.8750   15.2780   47.1370 C   0  0  0  0  0  0  0  0  0  0  0  0
   44.8280   16.6750   48.2420 S   0  0  0  0  0  0  0  0  0  0  0  0
   44.7030   14.1420   47.9550 N   0  0  0  0  0  0  0  0  0  0  0  0
   45.2440   15.6700   49.7460 C   0  0  0  0  0  2  0  0  0  0  0  0
   44.5010   14.4210   49.3490 C   0  0  0  0  0  2  0  0  0  0  0  0
   44.7230   12.8350   47.3250 C   0  0  0  0  0  0  0  0  0  0  0  0
   45.0560   11.8510   48.0290 O   0  0  0  0  0  0  0  0  0  0  0  0
   42.0600   12.8710   46.9240 C   0  0  2  0  0  3  0  0  0  0  0  0
   41.3650   11.5910   47.1350 C   0  0  0  0  0  0  0  0  0  0  0  0
   42.0200   10.5710   47.5500 O   0  0  0  0  0  0  0  0  0  0  0  0
   39.9440   11.4790   46.8750 N   0  0  0  0  0  0  0  0  0  0  0  0
   39.1790   10.2650   46.8050 C   0  0  0  0  0  2  0  0  0  0  0  0
   39.1990   12.6650   46.6910 C   0  0  0  0  0  0  0  0  0  0  0  0
   38.0240   10.4160   45.8460 C   0  0  0  0  0  2  0  0  0  0  0  0
   37.5220   12.1230   46.3660 S   0  0  0  0  0  0  0  0  0  0  0  0
   39.7220   13.8280   46.7460 N   0  0  0  0  0  0  0  0  0  0  0  0
   41.1220   14.0190   47.0010 C   0  0  0  0  0  0  0  0  0  0  0  0
   41.5140   15.1780   47.2880 O   0  0  0  0  0  0  0  0  0  0  0  0
   42.4430   11.9400   44.6570 C   0  0  0  0  0  0  0  0  0  0  0  0
   43.1360   10.7500   44.4730 C   0  0  0  0  0  3  0  0  0  0  0  0
   42.7290    9.8190   43.5400 C   0  0  0  0  0  0  0  0  0  0  0  0
   41.6150   10.0520   42.7640 C   0  0  0  0  0  3  0  0  0  0  0  0
   43.6750    8.1820   43.2810 Br  0  0  0  0  0  0  0  0  0  0  0  0
   40.9380   11.2190   42.9460 C   0  0  0  0  0  3  0  0  0  0  0  0
   41.3330   12.1600   43.8750 C   0  0  0  0  0  3  0  0  0  0  0  0
  1 24  1  6  0  0  0
  2  1  1  1  0  0  0
  2 11  1  0  0  0  0
  3  4  1  0  0  0  0
  3  2  1  0  0  0  0
  4  6  2  0  0  0  0
  5  3  2  0  0  0  0
  6  8  1  0  0  0  0
  6  7  1  0  0  0  0
  7  9  1  0  0  0  0
  8 10  1  0  0  0  0
 10  9  1  0  0  0  0
 11  8  1  0  0  0  0
 11 12  2  0  0  0  0
 13  1  1  6  0  0  0
 13 22  1  0  0  0  0
 13 14  1  0  0  0  0
 14 15  2  0  0  0  0
 16 14  1  0  0  0  0
 17 16  1  0  0  0  0
 18 21  2  0  0  0  0
 18 16  1  0  0  0  0
 19 20  1  0  0  0  0
 19 17  1  0  0  0  0
 20 18  1  0  0  0  0
 21 22  1  0  0  0  0
 22 23  2  0  0  0  0
 25 24  1  0  0  0  0
 26 25  2  0  0  0  0
 27 29  2  0  0  0  0
 27 26  1  0  0  0  0
 28 26  1  0  0  0  0
 29 30  1  0  0  0  0
 30 24  2  0  0  0  0
M  END
>  <Pose>
1

>  <Score>
-6.361

$$$$
