/Users/jonathanwahrer/Desktop/Msc/3_Semester/Drug_Design_Praktikum/waehrer_HTS_screening/HTS_experiment/out/docking_results/vina_output/2qfa/1248_docked.pdbqt
 OpenBabel03162220293D

 21 24  0  0  0  0  0  0  0  0999 V2000
   50.4990    3.4220   44.4220 S   0  0  0  0  0  0  0  0  0  0  0  0
   49.1620    3.4990   43.3470 C   0  0  0  0  0  0  0  0  0  0  0  0
   48.4370    4.4680   43.9040 N   0  0  0  0  0  0  0  0  0  0  0  0
   47.3410    4.5800   43.0800 C   0  0  0  0  0  0  0  0  0  0  0  0
   47.4400    3.6990   42.0860 N   0  0  0  0  0  0  0  0  0  0  0  0
   48.5560    3.0110   42.2170 N   0  0  0  0  0  0  0  0  0  0  0  0
   48.8630    5.0280   44.9630 N   0  0  0  0  0  0  0  0  0  0  0  0
   50.0040    4.6630   45.5130 C   0  0  0  0  0  0  0  0  0  0  0  0
   50.6780    5.1630   46.7160 C   0  0  0  0  0  0  0  0  0  0  0  0
   51.6510    6.0800   46.7650 N   0  0  0  0  0  0  0  0  0  0  0  0
   52.0110    6.2730   48.0450 N   0  0  0  0  0  0  0  0  0  0  0  0
   51.2630    5.4730   48.8310 C   0  0  0  0  0  3  0  0  0  0  0  0
   52.7530    6.9400   48.3590 H   0  0  0  0  0  0  0  0  0  0  0  0
   50.4120    4.7640   47.9790 C   0  0  0  0  0  0  0  0  0  0  0  0
   49.1490    3.4970   48.5750 Br  0  0  0  0  0  0  0  0  0  0  0  0
   46.2160    5.5220   43.2540 C   0  0  0  0  0  0  0  0  0  0  0  0
   45.0250    5.1050   43.7230 N   0  0  0  0  0  0  0  0  0  0  0  0
   44.0040    5.9770   43.8760 C   0  0  0  0  0  3  0  0  0  0  0  0
   44.1680    7.2970   43.5580 C   0  0  0  0  0  3  0  0  0  0  0  0
   45.3540    7.6960   43.0960 N   0  0  0  0  0  0  0  0  0  0  0  0
   46.3910    6.8460   42.9320 C   0  0  0  0  0  3  0  0  0  0  0  0
  1  8  1  0  0  0  0
  2  3  1  0  0  0  0
  2  1  1  0  0  0  0
  3  7  1  0  0  0  0
  4 16  1  0  0  0  0
  4  3  1  0  0  0  0
  5  6  1  0  0  0  0
  5  4  2  0  0  0  0
  6  2  2  0  0  0  0
  7  8  2  0  0  0  0
  8  9  1  0  0  0  0
  9 10  2  0  0  0  0
  9 14  1  0  0  0  0
 10 11  1  0  0  0  0
 11 13  1  0  0  0  0
 11 12  1  0  0  0  0
 14 15  1  0  0  0  0
 14 12  2  0  0  0  0
 16 17  1  0  0  0  0
 17 18  2  0  0  0  0
 19 18  1  0  0  0  0
 20 19  2  0  0  0  0
 21 20  1  0  0  0  0
 21 16  2  0  0  0  0
M  END
>  <Pose>
1

>  <Score>
-6.112

$$$$
