/Users/jonathanwahrer/Desktop/Msc/3_Semester/Drug_Design_Praktikum/waehrer_HTS_screening/HTS_experiment/out/docking_results/vina_output/2qfa/1255_docked.pdbqt
 OpenBabel03162220293D

 34 38  0  0  1  0  0  0  0  0999 V2000
   40.3110   11.7910   46.3970 C   0  0  1  0  0  3  0  0  0  0  0  0
   41.0220   12.7390   45.4730 C   0  0  2  0  0  3  0  0  0  0  0  0
   40.3870   12.6230   44.0880 C   0  0  0  0  0  0  0  0  0  0  0  0
   40.5480   11.3520   43.4170 N   0  0  0  0  0  0  0  0  0  0  0  0
   39.7880   13.6000   43.6410 O   0  0  0  0  0  0  0  0  0  0  0  0
   41.5950   10.6320   43.6560 C   0  0  0  0  0  0  0  0  0  0  0  0
   42.0960    9.0430   43.0130 S   0  0  0  0  0  0  0  0  0  0  0  0
   42.6190   11.0250   44.5450 N   0  0  0  0  0  0  0  0  0  0  0  0
   43.6250    8.9610   43.9330 C   0  0  0  0  0  0  0  0  0  0  0  0
   43.6670   10.1560   44.6830 N   0  0  0  0  0  0  0  0  0  0  0  0
   44.5090    7.9680   43.8940 C   0  0  0  0  0  2  0  0  0  0  0  0
   44.5200   10.3390   45.3210 H   0  0  0  0  0  0  0  0  0  0  0  0
   42.4310   12.3170   45.1930 C   0  0  0  0  0  0  0  0  0  0  0  0
   43.4370   13.0230   45.4870 O   0  0  0  0  0  0  0  0  0  0  0  0
   40.4530   12.0190   47.8480 C   0  0  2  0  0  3  0  0  0  0  0  0
   41.6430   12.7130   48.3180 C   0  0  0  0  0  0  0  0  0  0  0  0
   41.5770   13.9470   48.6430 O   0  0  0  0  0  0  0  0  0  0  0  0
   42.9220   12.0370   48.4340 N   0  0  0  0  0  0  0  0  0  0  0  0
   44.1640   12.5870   48.4170 N   0  0  0  0  0  0  0  0  0  0  0  0
   42.8450   10.6380   48.5880 C   0  0  0  0  0  0  0  0  0  0  0  0
   45.2670   11.7080   48.5570 C   0  0  0  0  0  0  0  0  0  0  0  0
   44.3740   13.6390   48.3100 H   0  0  0  0  0  0  0  0  0  0  0  0
   46.5540   11.9750   48.5800 C   0  0  0  0  0  2  0  0  0  0  0  0
   44.5350   10.0800   48.7030 S   0  0  0  0  0  0  0  0  0  0  0  0
   41.7420    9.9790   48.6270 N   0  0  0  0  0  0  0  0  0  0  0  0
   40.4770   10.6520   48.5100 C   0  0  0  0  0  0  0  0  0  0  0  0
   39.3990   10.1930   48.9140 O   0  0  0  0  0  0  0  0  0  0  0  0
   38.8700   11.6600   46.0380 C   0  0  0  0  0  0  0  0  0  0  0  0
   38.0140   12.7330   46.1210 C   0  0  0  0  0  3  0  0  0  0  0  0
   36.6830   12.6180   45.7910 C   0  0  0  0  0  3  0  0  0  0  0  0
   36.1910   11.4030   45.3690 C   0  0  0  0  0  0  0  0  0  0  0  0
   37.0270   10.2880   45.2710 C   0  0  0  0  0  3  0  0  0  0  0  0
   34.3460   11.2100   44.9030 Br  0  0  0  0  0  0  0  0  0  0  0  0
   38.3550   10.4460   45.6100 C   0  0  0  0  0  3  0  0  0  0  0  0
  1 28  1  6  0  0  0
  2  1  1  1  0  0  0
  3  2  1  0  0  0  0
  4  6  2  0  0  0  0
  4  3  1  0  0  0  0
  5  3  2  0  0  0  0
  6  8  1  0  0  0  0
  7  6  1  0  0  0  0
  7  9  1  0  0  0  0
  8 10  1  0  0  0  0
  8 13  1  0  0  0  0
  9 10  1  0  0  0  0
 10 12  1  0  0  0  0
 11  9  2  0  0  0  0
 13  2  1  0  0  0  0
 13 14  2  0  0  0  0
 15  1  1  6  0  0  0
 15 16  1  0  0  0  0
 15 26  1  0  0  0  0
 16 18  1  0  0  0  0
 16 17  2  0  0  0  0
 18 20  1  0  0  0  0
 19 18  1  0  0  0  0
 19 21  1  0  0  0  0
 20 25  2  0  0  0  0
 20 24  1  0  0  0  0
 21 23  2  0  0  0  0
 21 24  1  0  0  0  0
 22 19  1  0  0  0  0
 26 25  1  0  0  0  0
 26 27  2  0  0  0  0
 28 29  1  0  0  0  0
 30 29  2  0  0  0  0
 31 30  1  0  0  0  0
 32 31  2  0  0  0  0
 32 34  1  0  0  0  0
 33 31  1  0  0  0  0
 34 28  2  0  0  0  0
M  END
>  <Pose>
1

>  <Score>
-6.281

$$$$
