/Users/jonathanwahrer/Desktop/Msc/3_Semester/Drug_Design_Praktikum/waehrer_HTS_screening/HTS_experiment/out/docking_results/vina_output/2qfa/1256_docked.pdbqt
 OpenBabel03162220303D

 30 33  0  0  0  0  0  0  0  0999 V2000
   45.3450   12.4610   49.5420 S   0  0  0  0  0  0  0  0  0  0  0  0
   45.2560   13.3390   48.0740 C   0  0  0  0  0  0  0  0  0  0  0  0
   45.7030   14.5670   47.6660 N   0  0  0  0  0  0  0  0  0  0  0  0
   45.5100   14.9940   46.4080 C   0  0  0  0  0  0  0  0  0  0  0  0
   45.8820   16.0900   45.9490 O   0  0  0  0  0  0  0  0  0  0  0  0
   44.8420   14.1140   45.5890 C   0  0  0  0  0  3  0  0  0  0  0  0
   44.3920   12.8890   45.9880 C   0  0  0  0  0  0  0  0  0  0  0  0
   44.6060   12.4810   47.2810 N   0  0  0  0  0  0  0  0  0  0  0  0
   44.2640   11.3550   47.7760 N   0  0  0  0  0  0  0  0  0  0  0  0
   44.5280   11.0340   49.0110 C   0  0  0  0  0  0  0  0  0  0  0  0
   43.7080   12.0590   44.9980 C   0  0  0  0  0  0  0  0  0  0  0  0
   42.4810   12.3120   44.7060 O   0  0  0  0  0  0  0  0  0  0  0  0
   44.2920   10.9700   44.3200 N   0  0  0  0  0  0  0  0  0  0  0  0
   45.2710   10.6790   44.5070 H   0  0  0  0  0  0  0  0  0  0  0  0
   43.5120   10.2230   43.3410 C   0  0  0  0  0  2  0  0  0  0  0  0
   43.5930    8.7660   43.6070 C   0  0  0  0  0  0  0  0  0  0  0  0
   42.6690    8.1820   44.4590 C   0  0  0  0  0  0  0  0  0  0  0  0
   42.7610    6.8430   44.7440 C   0  0  0  0  0  3  0  0  0  0  0  0
   43.7440    6.0490   44.2120 C   0  0  0  0  0  3  0  0  0  0  0  0
   44.6690    6.6230   43.3600 C   0  0  0  0  0  0  0  0  0  0  0  0
   44.5720    7.9750   43.0740 C   0  0  0  0  0  3  0  0  0  0  0  0
   46.0650    5.5870   42.5720 Br  0  0  0  0  0  0  0  0  0  0  0  0
   41.6870    8.9900   44.9890 O   0  0  0  0  0  0  0  0  0  0  0  0
   41.6500    9.1690   46.4040 C   0  0  0  0  0  1  0  0  0  0  0  0
   44.2470    9.8170   49.7410 N   0  0  0  0  0  0  0  0  0  0  0  0
   45.2990    8.9910   50.1940 C   0  0  0  0  0  2  0  0  0  0  0  0
   44.7450    7.7440   50.8420 C   0  0  0  0  0  2  0  0  0  0  0  0
   43.6440    7.2880   50.1130 O   0  0  0  0  0  0  0  0  0  0  0  0
   42.5460    8.1330   50.3170 C   0  0  0  0  0  2  0  0  0  0  0  0
   42.8640    9.5490   49.9460 C   0  0  0  0  0  2  0  0  0  0  0  0
  2  1  1  0  0  0  0
  3  2  2  0  0  0  0
  4  3  1  0  0  0  0
  5  4  2  0  0  0  0
  6  7  2  0  0  0  0
  6  4  1  0  0  0  0
  7  8  1  0  0  0  0
  8  9  1  0  0  0  0
  8  2  1  0  0  0  0
  9 10  2  0  0  0  0
 10  1  1  0  0  0  0
 10 25  1  0  0  0  0
 11  7  1  0  0  0  0
 12 11  2  0  0  0  0
 13 14  1  0  0  0  0
 13 11  1  0  0  0  0
 15 16  1  0  0  0  0
 15 13  1  0  0  0  0
 16 17  1  0  0  0  0
 17 18  2  0  0  0  0
 17 23  1  0  0  0  0
 19 18  1  0  0  0  0
 20 19  2  0  0  0  0
 21 20  1  0  0  0  0
 21 16  2  0  0  0  0
 22 20  1  0  0  0  0
 23 24  1  0  0  0  0
 25 30  1  0  0  0  0
 25 26  1  0  0  0  0
 26 27  1  0  0  0  0
 28 29  1  0  0  0  0
 28 27  1  0  0  0  0
 30 29  1  0  0  0  0
M  END
>  <Pose>
1

>  <Score>
-6.828

$$$$
