/Users/jonathanwahrer/Desktop/Msc/3_Semester/Drug_Design_Praktikum/waehrer_HTS_screening/HTS_experiment/out/docking_results/vina_output/2qfa/1265_docked.pdbqt
 OpenBabel03162220303D

 24 27  0  0  1  0  0  0  0  0999 V2000
   42.1600    9.5880   46.6430 S   0  0  0  0  0  0  0  0  0  0  0  0
   41.5990    9.9770   44.9910 C   0  0  1  0  0  3  0  0  0  0  0  0
   40.7640   10.7220   44.3420 N   0  0  0  0  0  0  0  0  0  0  0  0
   40.8500   10.5100   42.9460 C   0  0  0  0  0  3  0  0  0  0  0  0
   41.9130    9.4730   42.7860 C   0  0  0  0  0  3  0  0  0  0  0  0
   42.3810    9.1570   44.1570 N   0  0  0  0  0  0  0  0  0  0  0  0
   43.3110    8.3290   44.7950 C   0  0  0  0  0  0  0  0  0  0  0  0
   43.3710    8.3870   46.1060 C   0  0  0  0  0  3  0  0  0  0  0  0
   39.8730   11.6650   45.0410 C   0  0  0  0  0  2  0  0  0  0  0  0
   40.2640   13.0240   44.6140 C   0  0  0  0  0  0  0  0  0  0  0  0
   39.7530   13.5610   43.6110 O   0  0  0  0  0  0  0  0  0  0  0  0
   41.2650   13.7650   45.3670 C   0  0  0  0  0  0  0  0  0  0  0  0
   42.5850   13.3170   45.4430 C   0  0  0  0  0  3  0  0  0  0  0  0
   43.5540   13.9970   46.1570 C   0  0  0  0  0  3  0  0  0  0  0  0
   43.1790   15.1460   46.8010 C   0  0  0  0  0  0  0  0  0  0  0  0
   41.8850   15.6310   46.7560 C   0  0  0  0  0  3  0  0  0  0  0  0
   44.5310   16.0820   47.7880 Br  0  0  0  0  0  0  0  0  0  0  0  0
   40.9250   14.9270   46.0280 C   0  0  0  0  0  3  0  0  0  0  0  0
   44.2460    7.3970   44.0830 C   0  0  0  0  0  0  0  0  0  0  0  0
   45.2510    7.8690   43.2700 C   0  0  0  0  0  3  0  0  0  0  0  0
   46.1340    7.0580   42.5900 C   0  0  0  0  0  3  0  0  0  0  0  0
   46.0390    5.6900   42.7030 C   0  0  0  0  0  3  0  0  0  0  0  0
   45.0480    5.1960   43.5040 C   0  0  0  0  0  3  0  0  0  0  0  0
   44.1510    6.0340   44.1940 C   0  0  0  0  0  3  0  0  0  0  0  0
  2  1  1  6  0  0  0
  3  2  1  0  0  0  0
  3  9  1  0  0  0  0
  4  3  1  0  0  0  0
  5  4  2  0  0  0  0
  5  6  1  0  0  0  0
  6  7  1  0  0  0  0
  6  2  1  0  0  0  0
  7  8  2  0  0  0  0
  8  1  1  0  0  0  0
 10  9  1  0  0  0  0
 10 12  1  0  0  0  0
 11 10  2  0  0  0  0
 12 13  2  0  0  0  0
 12 18  1  0  0  0  0
 13 14  1  0  0  0  0
 14 15  2  0  0  0  0
 15 17  1  0  0  0  0
 16 15  1  0  0  0  0
 18 16  2  0  0  0  0
 19 24  1  0  0  0  0
 19  7  1  0  0  0  0
 20 19  2  0  0  0  0
 21 22  2  0  0  0  0
 21 20  1  0  0  0  0
 22 23  1  0  0  0  0
 23 24  2  0  0  0  0
M  END
>  <Pose>
1

>  <Score>
-7.091

$$$$
