/Users/jonathanwahrer/Desktop/Msc/3_Semester/Drug_Design_Praktikum/waehrer_HTS_screening/HTS_experiment/out/docking_results/vina_output/2qfa/1266_docked.pdbqt
 OpenBabel03162220303D

 28 31  0  0  1  0  0  0  0  0999 V2000
   40.9360   12.1970   45.3230 C   0  0  2  0  0  3  0  0  0  0  0  0
   40.6570   11.7660   46.6880 N   0  0  0  0  0  0  0  0  0  0  0  0
   40.5750   10.4110   46.9710 C   0  0  0  0  0  2  0  0  0  0  0  0
   41.3130    9.4230   46.0930 C   0  0  0  0  0  2  0  0  0  0  0  0
   41.5060    9.8700   44.7830 N   0  0  0  0  0  0  0  0  0  0  0  0
   40.8720   11.0880   44.3770 C   0  0  0  0  0  2  0  0  0  0  0  0
   42.2850    9.2320   43.7840 C   0  0  0  0  0  0  0  0  0  0  0  0
   42.1490    9.8100   42.6130 O   0  0  0  0  0  0  0  0  0  0  0  0
   41.2440   12.2970   47.3630 H   0  0  0  0  0  0  0  0  0  0  0  0
   43.1690    8.1230   43.7990 C   0  0  0  0  0  0  0  0  0  0  0  0
   42.7910    7.0040   44.5800 C   0  0  0  0  0  3  0  0  0  0  0  0
   43.4920    5.8710   44.5470 N   0  0  0  0  0  0  0  0  0  0  0  0
   44.5770    5.7360   43.7820 C   0  0  0  0  0  0  0  0  0  0  0  0
   44.9910    6.7830   43.0040 C   0  0  0  0  0  0  0  0  0  0  0  0
   45.3020    4.5400   43.7640 O   0  0  0  0  0  0  0  0  0  0  0  0
   44.2870    7.9850   43.0110 C   0  0  0  0  0  3  0  0  0  0  0  0
   46.1320    6.6390   42.1540 N   0  0  0  0  0  0  0  0  0  0  0  0
   46.8180    5.3860   42.1400 C   0  0  0  0  0  0  0  0  0  0  0  0
   46.4630    7.4080   41.5520 H   0  0  0  0  0  0  0  0  0  0  0  0
   47.5150    4.9740   41.1900 O   0  0  0  0  0  0  0  0  0  0  0  0
   46.6790    4.5210   43.3530 C   0  0  0  0  0  2  0  0  0  0  0  0
   42.2860   12.8580   45.4080 C   0  0  0  0  0  0  0  0  0  0  0  0
   42.3510   14.1260   46.0080 C   0  0  0  0  0  0  0  0  0  0  0  0
   40.8130   14.8880   46.4610 Cl  0  0  0  0  0  0  0  0  0  0  0  0
   43.5380   14.7850   46.2480 C   0  0  0  0  0  3  0  0  0  0  0  0
   44.7350   14.1770   45.8840 C   0  0  0  0  0  3  0  0  0  0  0  0
   44.6670   12.9270   45.2940 C   0  0  0  0  0  3  0  0  0  0  0  0
   43.4690   12.2760   45.0580 C   0  0  0  0  0  3  0  0  0  0  0  0
  1 22  1  1  0  0  0
  1  2  1  0  0  0  0
  2  3  1  0  0  0  0
  2  9  1  0  0  0  0
  4  3  1  0  0  0  0
  5  4  1  0  0  0  0
  6  5  1  0  0  0  0
  6  1  1  0  0  0  0
  7 10  1  0  0  0  0
  7  5  1  0  0  0  0
  8  7  2  0  0  0  0
 10 11  2  0  0  0  0
 12 11  1  0  0  0  0
 13 12  2  0  0  0  0
 14 16  2  0  0  0  0
 14 13  1  0  0  0  0
 15 13  1  0  0  0  0
 16 10  1  0  0  0  0
 17 14  1  0  0  0  0
 18 17  1  0  0  0  0
 18 21  1  0  0  0  0
 19 17  1  0  0  0  0
 20 18  2  0  0  0  0
 21 15  1  0  0  0  0
 22 23  1  0  0  0  0
 23 25  2  0  0  0  0
 23 24  1  0  0  0  0
 26 25  1  0  0  0  0
 27 26  2  0  0  0  0
 28 27  1  0  0  0  0
 28 22  2  0  0  0  0
M  END
>  <Pose>
1

>  <Score>
-8.957

$$$$
