/Users/jonathanwahrer/Desktop/Msc/3_Semester/Drug_Design_Praktikum/waehrer_HTS_screening/HTS_experiment/out/docking_results/vina_output/2qfa/1271_docked.pdbqt
 OpenBabel03162220303D

 35 38  0  0  0  0  0  0  0  0999 V2000
   42.8320    8.0780   43.8760 C   0  0  0  0  0  0  0  0  0  0  0  0
   42.1510    8.2850   42.7410 N   0  0  0  0  0  0  0  0  0  0  0  0
   41.5230    9.4230   42.8850 N   0  0  0  0  0  0  0  0  0  0  0  0
   41.7810    9.9500   44.0790 N   0  0  0  0  0  0  0  0  0  0  0  0
   42.5970    9.1520   44.7480 C   0  0  0  0  0  0  0  0  0  0  0  0
   43.6770    6.9230   44.1200 C   0  0  0  0  0  0  0  0  0  0  0  0
   44.9490    6.7680   43.5190 N   0  0  0  0  0  0  0  0  0  0  0  0
   45.3500    7.4830   42.8550 H   0  0  0  0  0  0  0  0  0  0  0  0
   43.2600    6.0330   44.8960 O   0  0  0  0  0  0  0  0  0  0  0  0
   45.7560    5.6570   43.7670 N   0  0  0  0  0  0  0  0  0  0  0  0
   45.8650    5.1880   44.6820 H   0  0  0  0  0  0  0  0  0  0  0  0
   46.5050    5.1040   42.6640 C   0  0  0  0  0  0  0  0  0  0  0  0
   46.0810    5.3270   41.4460 C   0  0  0  0  0  2  0  0  0  0  0  0
   47.6830    4.3120   42.9570 C   0  0  0  0  0  0  0  0  0  0  0  0
   48.4870    4.6330   44.0500 C   0  0  0  0  0  3  0  0  0  0  0  0
   49.5970    3.8820   44.3480 C   0  0  0  0  0  0  0  0  0  0  0  0
   50.7030    4.3110   45.8350 Br  0  0  0  0  0  0  0  0  0  0  0  0
   49.9600    2.7870   43.5820 C   0  0  0  0  0  3  0  0  0  0  0  0
   49.1830    2.4640   42.5120 C   0  0  0  0  0  3  0  0  0  0  0  0
   48.0550    3.2300   42.2150 C   0  0  0  0  0  3  0  0  0  0  0  0
   43.1600    9.2070   46.0790 C   0  0  0  0  0  2  0  0  0  0  0  0
   42.5640    8.3270   47.0660 N   0  0  0  0  0  0  0  0  0  0  0  0
   42.8660    8.7870   48.4180 C   0  0  0  0  0  2  0  0  0  0  0  0
   42.6140   10.2700   48.5790 C   0  0  0  0  0  2  0  0  0  0  0  0
   41.1730   10.5910   48.2220 C   0  0  0  0  0  2  0  0  0  0  0  0
   40.4230    9.3460   47.8450 C   0  0  0  0  0  2  0  0  0  0  0  0
   41.1090    8.3900   46.9550 C   0  0  0  0  0  2  0  0  0  0  0  0
   41.2220   11.1670   44.5350 C   0  0  0  0  0  0  0  0  0  0  0  0
   41.9660   12.2880   44.7550 N   0  0  0  0  0  0  0  0  0  0  0  0
   41.1620   13.2160   45.1680 O   0  0  0  0  0  0  0  0  0  0  0  0
   39.9510   12.7920   45.2380 N   0  0  0  0  0  0  0  0  0  0  0  0
   39.9410   11.5100   44.8510 C   0  0  0  0  0  0  0  0  0  0  0  0
   38.8340   10.6510   44.7720 N   0  0  0  0  0  0  0  0  0  0  0  0
   38.7720    9.7790   44.2020 H   0  0  0  0  0  0  0  0  0  0  0  0
   37.9810   10.8850   45.3240 H   0  0  0  0  0  0  0  0  0  0  0  0
  1  6  1  0  0  0  0
  1  5  2  0  0  0  0
  2  3  2  0  0  0  0
  2  1  1  0  0  0  0
  3  4  1  0  0  0  0
  4 28  1  0  0  0  0
  4  5  1  0  0  0  0
  5 21  1  0  0  0  0
  6  9  2  0  0  0  0
  7 10  1  0  0  0  0
  7  6  1  0  0  0  0
  8  7  1  0  0  0  0
 10 11  1  0  0  0  0
 12 14  1  0  0  0  0
 12 10  1  0  0  0  0
 13 12  2  0  0  0  0
 14 15  1  0  0  0  0
 15 16  2  0  0  0  0
 16 17  1  0  0  0  0
 18 16  1  0  0  0  0
 19 18  2  0  0  0  0
 20 19  1  0  0  0  0
 20 14  2  0  0  0  0
 21 22  1  0  0  0  0
 22 23  1  0  0  0  0
 23 24  1  0  0  0  0
 25 24  1  0  0  0  0
 26 25  1  0  0  0  0
 27 22  1  0  0  0  0
 27 26  1  0  0  0  0
 28 29  2  0  0  0  0
 28 32  1  0  0  0  0
 29 30  1  0  0  0  0
 30 31  1  0  0  0  0
 32 31  2  0  0  0  0
 33 32  1  0  0  0  0
 33 35  1  0  0  0  0
 34 33  1  0  0  0  0
M  END
>  <Pose>
1

>  <Score>
-7.636

$$$$
