/Users/jonathanwahrer/Desktop/Msc/3_Semester/Drug_Design_Praktikum/waehrer_HTS_screening/HTS_experiment/out/docking_results/vina_output/2qfa/1299_docked.pdbqt
 OpenBabel03162220333D

 36 39  0  0  0  0  0  0  0  0999 V2000
   41.2790    9.2230   46.9950 C   0  0  0  0  0  0  0  0  0  0  0  0
   41.1870    9.1530   48.3620 N   0  0  0  0  0  0  0  0  0  0  0  0
   40.2770   10.0430   48.7010 N   0  0  0  0  0  0  0  0  0  0  0  0
   39.7960   10.6560   47.6710 N   0  0  0  0  0  0  0  0  0  0  0  0
   40.4000   10.1720   46.5480 C   0  0  0  0  0  0  0  0  0  0  0  0
   42.2060    8.3620   46.2720 C   0  0  0  0  0  0  0  0  0  0  0  0
   43.5780    8.6030   46.0380 N   0  0  0  0  0  0  0  0  0  0  0  0
   44.1190    9.4370   46.3560 H   0  0  0  0  0  0  0  0  0  0  0  0
   41.7800    7.2520   45.7710 O   0  0  0  0  0  0  0  0  0  0  0  0
   44.2850    7.5990   45.2930 N   0  0  0  0  0  0  0  0  0  0  0  0
   44.9580    7.8910   44.2490 C   0  0  0  0  0  3  0  0  0  0  0  0
   45.6820    6.8630   43.4870 C   0  0  0  0  0  0  0  0  0  0  0  0
   45.3370    6.5610   42.2070 C   0  0  0  0  0  3  0  0  0  0  0  0
   46.0180    5.5940   41.4910 C   0  0  0  0  0  0  0  0  0  0  0  0
   47.0670    4.9060   42.0490 C   0  0  0  0  0  0  0  0  0  0  0  0
   45.5210    5.1760   39.6810 Br  0  0  0  0  0  0  0  0  0  0  0  0
   47.4200    5.2090   43.3480 C   0  0  0  0  0  0  0  0  0  0  0  0
   48.8760    4.2580   44.1350 Br  0  0  0  0  0  0  0  0  0  0  0  0
   46.7330    6.1760   44.0540 C   0  0  0  0  0  3  0  0  0  0  0  0
   47.7270    3.9430   41.3000 O   0  0  0  0  0  0  0  0  0  0  0  0
   48.0740    4.1070   40.3710 H   0  0  0  0  0  0  0  0  0  0  0  0
   41.9190    8.3050   49.2230 C   0  0  0  0  0  0  0  0  0  0  0  0
   43.2600    8.1560   49.3580 N   0  0  0  0  0  0  0  0  0  0  0  0
   43.4940    7.2730   50.2610 O   0  0  0  0  0  0  0  0  0  0  0  0
   42.4060    6.7910   50.7720 N   0  0  0  0  0  0  0  0  0  0  0  0
   41.3800    7.4200   50.1390 C   0  0  0  0  0  0  0  0  0  0  0  0
   40.0090    7.1790   50.4060 N   0  0  0  0  0  0  0  0  0  0  0  0
   39.4440    7.9560   50.7950 H   0  0  0  0  0  0  0  0  0  0  0  0
   39.5360    6.2720   50.2340 H   0  0  0  0  0  0  0  0  0  0  0  0
   40.1830   10.5740   45.1590 C   0  0  0  0  0  2  0  0  0  0  0  0
   40.7550   11.8680   44.8180 N   0  0  0  0  0  0  0  0  0  0  0  0
   42.1570   11.9180   45.2160 C   0  0  0  0  0  2  0  0  0  0  0  0
   43.0690   11.4760   44.1070 C   0  0  0  0  0  2  0  0  0  0  0  0
   42.4610   10.6710   43.1620 O   0  0  0  0  0  0  0  0  0  0  0  0
   41.3690   11.2470   42.5310 C   0  0  0  0  0  2  0  0  0  0  0  0
   40.6190   12.2000   43.4220 C   0  0  0  0  0  2  0  0  0  0  0  0
  1  2  1  0  0  0  0
  2  3  1  0  0  0  0
  2 22  1  0  0  0  0
  4  3  2  0  0  0  0
  5  1  2  0  0  0  0
  5  4  1  0  0  0  0
  6  1  1  0  0  0  0
  7  6  1  0  0  0  0
  7  8  1  0  0  0  0
  9  6  2  0  0  0  0
 10  7  1  0  0  0  0
 11 10  2  0  0  0  0
 12 19  1  0  0  0  0
 12 11  1  0  0  0  0
 13 12  2  0  0  0  0
 14 15  2  0  0  0  0
 14 13  1  0  0  0  0
 15 17  1  0  0  0  0
 16 14  1  0  0  0  0
 17 19  2  0  0  0  0
 17 18  1  0  0  0  0
 20 15  1  0  0  0  0
 21 20  1  0  0  0  0
 22 23  2  0  0  0  0
 22 26  1  0  0  0  0
 23 24  1  0  0  0  0
 24 25  1  0  0  0  0
 26 27  1  0  0  0  0
 26 25  2  0  0  0  0
 27 28  1  0  0  0  0
 29 27  1  0  0  0  0
 30  5  1  0  0  0  0
 31 30  1  0  0  0  0
 31 32  1  0  0  0  0
 33 32  1  0  0  0  0
 34 33  1  0  0  0  0
 35 34  1  0  0  0  0
 35 36  1  0  0  0  0
 36 31  1  0  0  0  0
M  END
>  <Pose>
1

>  <Score>
-5.709

$$$$
