/Users/jonathanwahrer/Desktop/Msc/3_Semester/Drug_Design_Praktikum/waehrer_HTS_screening/HTS_experiment/out/docking_results/vina_output/2qfa/1300_docked.pdbqt
 OpenBabel03162220333D

 22 25  0  0  1  0  0  0  0  0999 V2000
   42.8270   11.5900   45.5690 N   0  0  0  0  0  0  0  0  0  0  0  0
   42.9340   10.2980   46.1370 C   0  0  0  0  0  0  0  0  0  0  0  0
   43.5090   10.0000   47.2050 O   0  0  0  0  0  0  0  0  0  0  0  0
   42.2580    9.3000   45.2820 C   0  0  2  0  0  3  0  0  0  0  0  0
   43.3250    8.6910   44.3980 C   0  0  2  0  0  3  0  0  0  0  0  0
   43.5340    9.7670   43.4940 O   0  0  0  0  0  0  0  0  0  0  0  0
   42.2050    9.8100   42.9960 C   0  0  2  0  0  3  0  0  0  0  0  0
   41.4600   10.1150   44.2680 C   0  0  2  0  0  3  0  0  0  0  0  0
   41.7410   11.5190   44.6410 C   0  0  0  0  0  0  0  0  0  0  0  0
   41.1080   12.5320   44.1990 O   0  0  0  0  0  0  0  0  0  0  0  0
   42.0500    8.4010   42.5770 C   0  0  0  0  0  2  0  0  0  0  0  0
   42.7290    7.6920   43.4760 C   0  0  0  0  0  2  0  0  0  0  0  0
   43.5790   12.7710   45.7990 C   0  0  0  0  0  0  0  0  0  0  0  0
   43.2530   13.6510   46.8050 C   0  0  0  0  0  0  0  0  0  0  0  0
   41.7410   13.1960   47.8890 Br  0  0  0  0  0  0  0  0  0  0  0  0
   43.9710   14.8200   47.0480 C   0  0  0  0  0  3  0  0  0  0  0  0
   45.0630   15.1480   46.2680 C   0  0  0  0  0  0  0  0  0  0  0  0
   45.3920   14.2630   45.2550 C   0  0  0  0  0  3  0  0  0  0  0  0
   44.6840   13.1090   45.0150 C   0  0  0  0  0  3  0  0  0  0  0  0
   45.8130   16.3350   46.4910 N   0  0  0  0  0  0  0  0  0  0  0  0
   46.9290   16.4360   45.9510 O   0  0  0  0  0  0  0  0  0  0  0  0
   45.3880   17.3820   47.2620 O   0  0  0  0  0  0  0  0  0  0  0  0
  1 13  1  0  0  0  0
  1  2  1  0  0  0  0
  2  3  2  0  0  0  0
  4  2  1  1  0  0  0
  5 12  1  6  0  0  0
  5  4  1  0  0  0  0
  6  5  1  0  0  0  0
  7 11  1  1  0  0  0
  7  6  1  0  0  0  0
  7  8  1  0  0  0  0
  8  9  1  1  0  0  0
  8  4  1  0  0  0  0
  9  1  1  0  0  0  0
 10  9  2  0  0  0  0
 11 12  1  0  0  0  0
 13 14  1  0  0  0  0
 14 16  2  0  0  0  0
 14 15  1  0  0  0  0
 17 20  1  0  0  0  0
 17 16  1  0  0  0  0
 18 17  2  0  0  0  0
 19 18  1  0  0  0  0
 19 13  2  0  0  0  0
 20 22  2  0  0  0  0
 21 20  2  0  0  0  0
M  END
>  <Pose>
1

>  <Score>
-6.794

$$$$
