/Users/jonathanwahrer/Desktop/Msc/3_Semester/Drug_Design_Praktikum/waehrer_HTS_screening/HTS_experiment/out/docking_results/vina_output/2qfa/1314_docked.pdbqt
 OpenBabel03162220343D

 32 35  0  0  0  0  0  0  0  0999 V2000
   42.9340    9.1180   43.6080 C   0  0  0  0  0  0  0  0  0  0  0  0
   42.0570    8.9940   42.6600 N   0  0  0  0  0  0  0  0  0  0  0  0
   41.0760    9.8020   42.8710 N   0  0  0  0  0  0  0  0  0  0  0  0
   41.2510   10.5480   44.0290 N   0  0  0  0  0  0  0  0  0  0  0  0
   42.4060   10.1490   44.5140 C   0  0  0  0  0  0  0  0  0  0  0  0
   44.0310    8.3170   43.9730 C   0  0  0  0  0  0  0  0  0  0  0  0
   45.3880    8.4070   43.2390 N   0  0  0  0  0  0  0  0  0  0  0  0
   45.4230    9.1160   42.5110 H   0  0  0  0  0  0  0  0  0  0  0  0
   44.0310    7.4820   44.8710 O   0  0  0  0  0  0  0  0  0  0  0  0
   46.0950    7.4690   43.7760 N   0  0  0  0  0  2  0  0  0  0  0  0
   47.1230    6.8770   44.1450 C   0  0  0  0  0  2  0  0  0  0  0  0
   47.1780    5.4850   43.4670 C   0  0  0  0  0  0  0  0  0  0  0  0
   48.2080    4.6610   43.8510 C   0  0  0  0  0  0  0  0  0  0  0  0
   49.2420    5.0950   45.3700 Br  0  0  0  0  0  0  0  0  0  0  0  0
   48.4910    3.5510   43.0490 C   0  0  0  0  0  3  0  0  0  0  0  0
   47.7280    3.2840   41.9080 C   0  0  0  0  0  3  0  0  0  0  0  0
   46.7020    4.1010   41.5700 C   0  0  0  0  0  3  0  0  0  0  0  0
   46.4370    5.2450   42.3840 C   0  0  0  0  0  3  0  0  0  0  0  0
   43.3220   10.5700   45.5710 C   0  0  0  0  0  2  0  0  0  0  0  0
   43.3940   11.7030   46.2780 N   0  0  0  0  0  0  0  0  0  0  0  0
   44.3780   11.5680   47.3430 C   0  0  0  0  0  2  0  0  0  0  0  0
   43.2910   13.0290   45.9680 C   0  0  0  0  0  2  0  0  0  0  0  0
   45.2220   12.8070   47.3160 C   0  0  0  0  0  2  0  0  0  0  0  0
   44.7070   13.6330   46.1420 C   0  0  0  0  0  2  0  0  0  0  0  0
   40.2210   11.4150   44.3890 C   0  0  0  0  0  0  0  0  0  0  0  0
   40.2030   12.7430   43.9620 N   0  0  0  0  0  0  0  0  0  0  0  0
   39.2230   13.3310   44.5240 O   0  0  0  0  0  0  0  0  0  0  0  0
   38.5710   12.5460   45.2830 N   0  0  0  0  0  0  0  0  0  0  0  0
   39.1800   11.3280   45.2190 C   0  0  0  0  0  0  0  0  0  0  0  0
   38.6840   10.2270   45.9890 N   0  0  0  0  0  0  0  0  0  0  0  0
   39.1460   10.0390   46.8900 H   0  0  0  0  0  0  0  0  0  0  0  0
   37.9490    9.6240   45.6250 H   0  0  0  0  0  0  0  0  0  0  0  0
  1  6  1  0  0  0  0
  1  5  2  0  0  0  0
  2  3  2  0  0  0  0
  2  1  1  0  0  0  0
  3  4  1  0  0  0  0
  4 25  1  0  0  0  0
  4  5  1  0  0  0  0
  5 19  1  0  0  0  0
  6  9  2  0  0  0  0
  7 10  1  0  0  0  0
  7  6  1  0  0  0  0
  8  7  1  0  0  0  0
 10 11  1  0  0  0  0
 12 13  1  0  0  0  0
 12 11  1  0  0  0  0
 13 14  1  0  0  0  0
 15 13  2  0  0  0  0
 16 15  1  0  0  0  0
 17 16  2  0  0  0  0
 17 18  1  0  0  0  0
 18 12  2  0  0  0  0
 19 20  1  0  0  0  0
 20 21  1  0  0  0  0
 22 24  1  0  0  0  0
 22 20  1  0  0  0  0
 23 21  1  0  0  0  0
 24 23  1  0  0  0  0
 25 29  1  0  0  0  0
 26 25  2  0  0  0  0
 26 27  1  0  0  0  0
 27 28  1  0  0  0  0
 29 28  2  0  0  0  0
 29 30  1  0  0  0  0
 30 31  1  0  0  0  0
 32 30  1  0  0  0  0
M  END
>  <Pose>
1

>  <Score>
-7.065

$$$$
