/Users/jonathanwahrer/Desktop/Msc/3_Semester/Drug_Design_Praktikum/waehrer_HTS_screening/HTS_experiment/out/docking_results/vina_output/2qfa/1325_docked.pdbqt
 OpenBabel03162220353D

 31 34  0  0  1  0  0  0  0  0999 V2000
   40.7780   10.1680   45.1110 C   0  0  1  0  0  3  0  0  0  0  0  0
   41.0330   11.3370   44.3220 N   0  0  0  0  0  0  0  0  0  0  0  0
   41.4240   10.7950   43.0260 C   0  0  0  0  0  0  0  0  0  0  0  0
   41.3120   11.3710   41.9210 O   0  0  0  0  0  0  0  0  0  0  0  0
   41.9670    9.4680   43.2530 C   0  0  0  0  0  0  0  0  0  0  0  0
   42.4230    8.6380   42.4120 O   0  0  0  0  0  0  0  0  0  0  0  0
   41.8830    9.2540   44.7010 C   0  0  0  0  0  0  0  0  0  0  0  0
   42.6030    8.4170   45.3960 C   0  0  0  0  0  0  0  0  0  0  0  0
   42.3500    8.3010   46.7680 O   0  0  0  0  0  1  0  0  0  0  0  0
   40.6000   10.3110   46.5340 C   0  0  0  0  0  0  0  0  0  0  0  0
   39.5420    9.6070   47.1370 C   0  0  0  0  0  3  0  0  0  0  0  0
   39.2860    9.6520   48.4840 C   0  0  0  0  0  3  0  0  0  0  0  0
   40.0720   10.4050   49.3200 C   0  0  0  0  0  0  0  0  0  0  0  0
   39.7450   10.4920   51.2060 Br  0  0  0  0  0  0  0  0  0  0  0  0
   41.1090   11.0970   48.7370 C   0  0  0  0  0  3  0  0  0  0  0  0
   41.3660   11.0510   47.3800 C   0  0  0  0  0  3  0  0  0  0  0  0
   43.6690    7.6080   44.7720 C   0  0  0  0  0  0  0  0  0  0  0  0
   44.8800    8.0470   44.4490 O   0  0  0  0  0  0  0  0  0  0  0  0
   45.6060    7.1020   43.9100 C   0  0  0  0  0  0  0  0  0  0  0  0
   44.8740    5.9350   43.8460 C   0  0  0  0  0  0  0  0  0  0  0  0
   46.9120    7.0580   43.4130 C   0  0  0  0  0  3  0  0  0  0  0  0
   43.6540    6.2860   44.3980 C   0  0  0  0  0  3  0  0  0  0  0  0
   45.4240    4.7890   43.3160 C   0  0  0  0  0  3  0  0  0  0  0  0
   46.7100    4.7350   42.8240 C   0  0  0  0  0  3  0  0  0  0  0  0
   47.4470    5.9040   42.8850 C   0  0  0  0  0  3  0  0  0  0  0  0
   40.9050   12.7540   44.5790 C   0  0  0  0  0  2  0  0  0  0  0  0
   39.6210   13.4030   44.2750 C   0  0  0  0  0  2  0  0  0  0  0  0
   38.7300   13.6560   45.3770 N   0  0  0  0  0  4  0  0  0  0  0  0
   37.7960   12.5860   45.5890 C   0  0  0  0  0  1  0  0  0  0  0  0
   39.3640   14.1470   46.5670 C   0  0  0  0  0  1  0  0  0  0  0  0
   38.1210   14.4730   45.0270 H   0  0  0  0  0  0  0  0  0  0  0  0
  1 10  1  1  0  0  0
  2 26  1  0  0  0  0
  2  1  1  0  0  0  0
  3  5  1  0  0  0  0
  3  2  1  0  0  0  0
  4  3  2  0  0  0  0
  5  7  1  0  0  0  0
  6  5  2  0  0  0  0
  7  1  1  0  0  0  0
  7  8  2  0  0  0  0
  8  9  1  0  0  0  0
 10 11  2  0  0  0  0
 10 16  1  0  0  0  0
 11 12  1  0  0  0  0
 12 13  2  0  0  0  0
 13 14  1  0  0  0  0
 15 13  1  0  0  0  0
 16 15  2  0  0  0  0
 17  8  1  0  0  0  0
 18 17  1  0  0  0  0
 19 18  1  0  0  0  0
 20 19  1  0  0  0  0
 20 22  1  0  0  0  0
 21 19  2  0  0  0  0
 22 17  2  0  0  0  0
 23 20  2  0  0  0  0
 24 25  2  0  0  0  0
 24 23  1  0  0  0  0
 25 21  1  0  0  0  0
 27 26  1  0  0  0  0
 27 28  1  0  0  0  0
 28 29  1  0  0  0  0
 28 30  1  0  0  0  0
 31 28  1  0  0  0  0
M  END
>  <Pose>
1

>  <Score>
-7.102

$$$$
