/Users/jonathanwahrer/Desktop/Msc/3_Semester/Drug_Design_Praktikum/waehrer_HTS_screening/HTS_experiment/out/docking_results/vina_output/2qfa/1329_docked.pdbqt
 OpenBabel03162220353D

 28 31  0  0  0  0  0  0  0  0999 V2000
   42.4730    9.2150   42.7970 C   0  0  0  0  0  3  0  0  0  0  0  0
   42.1300   10.1860   43.6450 C   0  0  0  0  0  0  0  0  0  0  0  0
   42.4240   10.2590   45.0050 O   0  0  0  0  0  0  0  0  0  0  0  0
   41.9160   11.4060   45.5500 C   0  0  0  0  0  0  0  0  0  0  0  0
   41.2570   12.1500   44.5770 C   0  0  0  0  0  0  0  0  0  0  0  0
   40.6810   13.3540   44.9510 C   0  0  0  0  0  3  0  0  0  0  0  0
   40.7690   13.7890   46.2530 C   0  0  0  0  0  3  0  0  0  0  0  0
   41.4380   13.0140   47.2040 C   0  0  0  0  0  0  0  0  0  0  0  0
   42.0150   11.8200   46.8620 C   0  0  0  0  0  0  0  0  0  0  0  0
   41.4710   13.5390   48.4860 O   0  0  0  0  0  1  0  0  0  0  0  0
   41.3710   11.3910   43.3200 C   0  0  0  0  0  0  0  0  0  0  0  0
   40.8870   11.7540   42.2160 O   0  0  0  0  0  0  0  0  0  0  0  0
   42.6350   11.0080   47.9110 C   0  0  0  0  0  2  0  0  0  0  0  0
   44.0010   10.6760   47.7280 N   0  0  0  0  0  4  0  0  0  0  0  0
   44.3160    9.5500   48.5920 C   0  0  0  0  0  2  0  0  0  0  0  0
   45.6610    9.5970   49.2310 C   0  0  0  0  0  2  0  0  0  0  0  0
   45.9900   10.8230   49.8690 N   0  0  0  0  0  0  0  0  0  0  0  0
   45.1070   11.8770   49.4900 C   0  0  0  0  0  2  0  0  0  0  0  0
   47.3770   11.1520   49.6170 C   0  0  0  0  0  1  0  0  0  0  0  0
   44.8410   11.8120   48.0240 C   0  0  0  0  0  2  0  0  0  0  0  0
   44.2330   10.4230   46.7200 H   0  0  0  0  0  0  0  0  0  0  0  0
   43.2390    8.0680   43.2430 C   0  0  0  0  0  0  0  0  0  0  0  0
   44.6100    8.0380   43.1200 C   0  0  0  0  0  3  0  0  0  0  0  0
   45.3320    6.9240   43.5400 C   0  0  0  0  0  0  0  0  0  0  0  0
   47.2340    6.8790   43.3600 Br  0  0  0  0  0  0  0  0  0  0  0  0
   44.6670    5.8380   44.0870 C   0  0  0  0  0  3  0  0  0  0  0  0
   43.2960    5.9060   44.1920 C   0  0  0  0  0  3  0  0  0  0  0  0
   42.5670    6.9980   43.7830 C   0  0  0  0  0  3  0  0  0  0  0  0
  1 22  1  0  0  0  0
  1  2  2  0  0  0  0
  2  3  1  0  0  0  0
  3  4  1  0  0  0  0
  4  9  1  0  0  0  0
  5  6  1  0  0  0  0
  5  4  2  0  0  0  0
  6  7  2  0  0  0  0
  7  8  1  0  0  0  0
  8 10  1  0  0  0  0
  9  8  2  0  0  0  0
  9 13  1  0  0  0  0
 11  2  1  0  0  0  0
 11  5  1  0  0  0  0
 12 11  2  0  0  0  0
 14 13  1  0  0  0  0
 14 20  1  0  0  0  0
 14 15  1  0  0  0  0
 15 16  1  0  0  0  0
 16 17  1  0  0  0  0
 18 17  1  0  0  0  0
 19 17  1  0  0  0  0
 20 18  1  0  0  0  0
 21 14  1  0  0  0  0
 22 28  1  0  0  0  0
 23 22  2  0  0  0  0
 23 24  1  0  0  0  0
 24 26  2  0  0  0  0
 25 24  1  0  0  0  0
 26 27  1  0  0  0  0
 28 27  2  0  0  0  0
M  END
>  <Pose>
1

>  <Score>
-6.869

$$$$
