/Users/jonathanwahrer/Desktop/Msc/3_Semester/Drug_Design_Praktikum/waehrer_HTS_screening/HTS_experiment/out/docking_results/vina_output/2qfa/1341_docked.pdbqt
 OpenBabel03162220363D

 28 31  0  0  0  0  0  0  0  0999 V2000
   43.2210   12.8980   45.7660 C   0  0  0  0  0  0  0  0  0  0  0  0
   41.8940   13.1630   45.7640 N   0  0  0  0  0  0  0  0  0  0  0  0
   41.2300   12.0360   46.0930 C   0  0  0  0  0  0  0  0  0  0  0  0
   42.1000   11.0270   46.3130 N   0  0  0  0  0  0  0  0  0  0  0  0
   43.3230   11.5680   46.1100 C   0  0  0  0  0  3  0  0  0  0  0  0
   39.7680   12.2980   46.1000 C   0  0  0  0  0  3  0  0  0  0  0  0
   39.5960   13.7070   45.6450 C   0  0  0  0  0  3  0  0  0  0  0  0
   40.9710   14.2500   45.5230 C   0  0  0  0  0  3  0  0  0  0  0  0
   41.8150    9.6570   46.6880 C   0  0  0  0  0  2  0  0  0  0  0  0
   42.8780    8.7550   46.1600 C   0  0  0  0  0  0  0  0  0  0  0  0
   43.7490    8.3700   46.9420 O   0  0  0  0  0  0  0  0  0  0  0  0
   42.8240    8.4020   44.8100 N   0  0  0  0  0  0  0  0  0  0  0  0
   42.0400    8.7690   44.1730 H   0  0  0  0  0  0  0  0  0  0  0  0
   43.7530    7.5490   44.1590 C   0  0  0  0  0  0  0  0  0  0  0  0
   44.7210    8.1200   43.3220 C   0  0  0  0  0  3  0  0  0  0  0  0
   45.6140    7.3320   42.6680 C   0  0  0  0  0  3  0  0  0  0  0  0
   45.5950    5.9540   42.8090 C   0  0  0  0  0  0  0  0  0  0  0  0
   44.6470    5.4070   43.6260 C   0  0  0  0  0  3  0  0  0  0  0  0
   43.7130    6.1930   44.3130 C   0  0  0  0  0  3  0  0  0  0  0  0
   46.5810    5.1140   42.0850 C   0  0  0  0  0  2  0  0  0  0  0  0
   47.6550    4.6720   43.0840 C   0  0  0  0  0  1  0  0  0  0  0  0
   44.3530   13.7770   45.4770 C   0  0  0  0  0  0  0  0  0  0  0  0
   45.1300   13.5870   44.3520 C   0  0  0  0  0  3  0  0  0  0  0  0
   46.2070   14.4030   44.0560 C   0  0  0  0  0  3  0  0  0  0  0  0
   46.5550   15.4520   44.8790 C   0  0  0  0  0  0  0  0  0  0  0  0
   47.9220   16.4950   44.5090 Cl  0  0  0  0  0  0  0  0  0  0  0  0
   45.7880   15.6540   46.0070 C   0  0  0  0  0  3  0  0  0  0  0  0
   44.6990   14.8260   46.3030 C   0  0  0  0  0  3  0  0  0  0  0  0
  1  5  2  0  0  0  0
  2  1  1  0  0  0  0
  2  3  1  0  0  0  0
  3  6  2  0  0  0  0
  3  4  1  0  0  0  0
  4  9  1  0  0  0  0
  5  4  1  0  0  0  0
  7  6  1  0  0  0  0
  8  7  2  0  0  0  0
  8  2  1  0  0  0  0
 10  9  1  0  0  0  0
 10 11  2  0  0  0  0
 12 10  1  0  0  0  0
 13 12  1  0  0  0  0
 14 19  1  0  0  0  0
 14 12  1  0  0  0  0
 15 14  2  0  0  0  0
 16 17  2  0  0  0  0
 16 15  1  0  0  0  0
 17 18  1  0  0  0  0
 18 19  2  0  0  0  0
 20 17  1  0  0  0  0
 20 21  1  0  0  0  0
 22  1  1  0  0  0  0
 22 28  1  0  0  0  0
 23 22  2  0  0  0  0
 24 23  1  0  0  0  0
 24 25  2  0  0  0  0
 25 27  1  0  0  0  0
 26 25  1  0  0  0  0
 27 28  2  0  0  0  0
M  END
>  <Pose>
1

>  <Score>
-8.059

$$$$
