/Users/jonathanwahrer/Desktop/Msc/3_Semester/Drug_Design_Praktikum/waehrer_HTS_screening/HTS_experiment/out/docking_results/vina_output/2qfa/1355_docked.pdbqt
 OpenBabel03162220373D

 27 30  0  0  1  0  0  0  0  0999 V2000
   47.7400    5.9280   44.1850 N   0  0  0  0  0  0  0  0  0  0  0  0
   48.3170    4.6620   43.9810 C   0  0  0  0  0  0  0  0  0  0  0  0
   48.1480    4.0770   42.8890 O   0  0  0  0  0  0  0  0  0  0  0  0
   47.8850    6.4100   45.0940 H   0  0  0  0  0  0  0  0  0  0  0  0
   46.9510    6.5730   43.1520 C   0  0  0  0  0  2  0  0  0  0  0  0
   45.7200    7.2020   43.7530 C   0  0  0  0  0  0  0  0  0  0  0  0
   45.0900    6.8520   44.8450 O   0  0  0  0  0  0  0  0  0  0  0  0
   44.0580    7.6450   45.0410 N   0  0  0  0  0  0  0  0  0  0  0  0
   43.9970    8.5490   44.0500 C   0  0  0  0  0  0  0  0  0  0  0  0
   45.0420    8.2600   43.2540 N   0  0  0  0  0  0  0  0  0  0  0  0
   43.0120    9.6120   43.8760 C   0  0  0  0  0  0  0  0  0  0  0  0
   41.9130    9.4720   43.0550 C   0  0  0  0  0  0  0  0  0  0  0  0
   41.7180    7.9590   42.2050 Cl  0  0  0  0  0  0  0  0  0  0  0  0
   40.9710   10.4830   42.8860 C   0  0  0  0  0  3  0  0  0  0  0  0
   41.1150   11.6750   43.5490 C   0  0  0  0  0  3  0  0  0  0  0  0
   42.2240   11.8360   44.3880 C   0  0  0  0  0  3  0  0  0  0  0  0
   43.1350   10.8140   44.5300 C   0  0  0  0  0  3  0  0  0  0  0  0
   49.1120    4.0270   45.0430 C   0  0  1  0  0  3  0  0  0  0  0  0
   49.9680    2.8900   44.5140 C   0  0  0  0  0  2  0  0  0  0  0  0
   50.9060    2.3830   45.5570 C   0  0  0  0  0  2  0  0  0  0  0  0
   52.2510    3.0320   45.5670 C   0  0  0  0  0  2  0  0  0  0  0  0
   52.2050    4.4670   45.0520 C   0  0  0  0  0  2  0  0  0  0  0  0
   51.2240    5.1760   45.8410 N   0  0  0  0  0  0  0  0  0  0  0  0
   51.5250    6.1240   46.6870 N   0  0  0  0  0  0  0  0  0  0  0  0
   49.8980    4.9840   45.8350 C   0  0  0  0  0  0  0  0  0  0  0  0
   50.4200    6.5610   47.2390 N   0  0  0  0  0  0  0  0  0  0  0  0
   49.4200    5.8710   46.7250 N   0  0  0  0  0  0  0  0  0  0  0  0
  1  4  1  0  0  0  0
  2  1  1  0  0  0  0
  3  2  2  0  0  0  0
  5  6  1  0  0  0  0
  5  1  1  0  0  0  0
  6  7  1  0  0  0  0
  7  8  1  0  0  0  0
  9  8  2  0  0  0  0
 10  6  2  0  0  0  0
 10  9  1  0  0  0  0
 11  9  1  0  0  0  0
 11 17  1  0  0  0  0
 12 11  2  0  0  0  0
 13 12  1  0  0  0  0
 14 12  1  0  0  0  0
 14 15  2  0  0  0  0
 15 16  1  0  0  0  0
 16 17  2  0  0  0  0
 18  2  1  6  0  0  0
 18 25  1  0  0  0  0
 19 18  1  0  0  0  0
 19 20  1  0  0  0  0
 20 21  1  0  0  0  0
 22 21  1  0  0  0  0
 22 23  1  0  0  0  0
 23 24  1  0  0  0  0
 24 26  2  0  0  0  0
 25 23  1  0  0  0  0
 25 27  2  0  0  0  0
 27 26  1  0  0  0  0
M  END
>  <Pose>
1

>  <Score>
-8.112

$$$$
