/Users/jonathanwahrer/Desktop/Msc/3_Semester/Drug_Design_Praktikum/waehrer_HTS_screening/HTS_experiment/out/docking_results/vina_output/2qfa/1360_docked.pdbqt
 OpenBabel03162220383D

 34 37  0  0  1  0  0  0  0  0999 V2000
   43.2490   10.8850   44.1920 C   0  0  1  0  0  3  0  0  0  0  0  0
   43.4890   11.8600   45.2240 N   0  0  0  0  0  0  0  0  0  0  0  0
   42.5750   11.3880   46.2890 C   0  0  2  0  0  3  0  0  0  0  0  0
   42.8450   12.1720   47.4320 N   0  0  0  0  0  0  0  0  0  0  0  0
   43.7890   13.1790   47.0560 C   0  0  0  0  0  0  0  0  0  0  0  0
   44.1590   12.9710   45.7260 C   0  0  0  0  0  0  0  0  0  0  0  0
   45.0670   13.8340   45.1480 C   0  0  0  0  0  0  0  0  0  0  0  0
   45.3850   13.6260   43.9480 O   0  0  0  0  0  0  0  0  0  0  0  0
   45.5700   14.8440   45.8660 N   0  0  0  0  0  0  0  0  0  0  0  0
   45.2020   15.0170   47.1240 C   0  0  0  0  0  0  0  0  0  0  0  0
   45.7000   15.9820   47.7660 O   0  0  0  0  0  0  0  0  0  0  0  0
   44.3060   14.1960   47.7530 N   0  0  0  0  0  0  0  0  0  0  0  0
   43.9860   14.4960   49.1300 C   0  0  0  0  0  1  0  0  0  0  0  0
   46.5330   15.7370   45.2120 C   0  0  0  0  0  1  0  0  0  0  0  0
   42.2790   12.0520   48.7500 C   0  0  0  0  0  1  0  0  0  0  0  0
   42.7450    9.9280   46.3020 C   0  0  1  0  0  3  0  0  0  0  0  0
   43.5270    9.6190   45.0180 C   0  0  1  0  0  3  0  0  0  0  0  0
   41.8700   10.8790   43.7590 C   0  0  2  0  0  3  0  0  0  0  0  0
   41.6550   10.1410   42.7070 O   0  0  0  0  0  1  0  0  0  0  0  0
   40.7050   11.5480   44.2930 C   0  0  0  0  0  0  0  0  0  0  0  0
   39.7530   10.9050   45.0480 C   0  0  0  0  0  3  0  0  0  0  0  0
   38.6580   11.6050   45.4920 C   0  0  0  0  0  3  0  0  0  0  0  0
   38.4840   12.9490   45.2010 C   0  0  0  0  0  0  0  0  0  0  0  0
   36.9540   13.8940   45.8310 Br  0  0  0  0  0  0  0  0  0  0  0  0
   39.4460   13.5900   44.4410 C   0  0  0  0  0  3  0  0  0  0  0  0
   40.5450   12.9020   43.9890 C   0  0  0  0  0  3  0  0  0  0  0  0
   43.0550    8.3980   44.3730 C   0  0  0  0  0  0  0  0  0  0  0  0
   42.0630    7.7630   44.8610 O   0  0  0  0  0  0  0  0  0  0  0  0
   43.6450    7.8970   43.2440 O   0  0  0  0  0  0  0  0  0  0  0  0
   45.0490    7.6490   43.1420 C   0  0  0  0  0  1  0  0  0  0  0  0
   43.3670    9.2990   47.4600 C   0  0  0  0  0  0  0  0  0  0  0  0
   44.5340    9.6250   47.8000 O   0  0  0  0  0  0  0  0  0  0  0  0
   42.7120    8.3450   48.2090 O   0  0  0  0  0  0  0  0  0  0  0  0
   41.3220    8.4150   48.4370 C   0  0  0  0  0  1  0  0  0  0  0  0
  1 18  1  1  0  0  0
  1 17  1  0  0  0  0
  1  2  1  0  0  0  0
  2  6  1  0  0  0  0
  3  2  1  6  0  0  0
  3 16  1  0  0  0  0
  3  4  1  0  0  0  0
  4 15  1  0  0  0  0
  5  4  1  0  0  0  0
  5 12  1  0  0  0  0
  6  5  2  0  0  0  0
  7  6  1  0  0  0  0
  7  9  1  0  0  0  0
  8  7  2  0  0  0  0
  9 10  1  0  0  0  0
 10 12  1  0  0  0  0
 10 11  2  0  0  0  0
 12 13  1  0  0  0  0
 14  9  1  0  0  0  0
 16 31  1  1  0  0  0
 17 27  1  6  0  0  0
 17 16  1  0  0  0  0
 18 19  1  6  0  0  0
 18 20  1  0  0  0  0
 20 21  1  0  0  0  0
 21 22  2  0  0  0  0
 23 22  1  0  0  0  0
 23 24  1  0  0  0  0
 25 23  2  0  0  0  0
 26 20  2  0  0  0  0
 26 25  1  0  0  0  0
 27 28  2  0  0  0  0
 29 27  1  0  0  0  0
 30 29  1  0  0  0  0
 31 32  2  0  0  0  0
 31 33  1  0  0  0  0
 33 34  1  0  0  0  0
M  END
>  <Pose>
1

>  <Score>
-6.358

$$$$
