/Users/jonathanwahrer/Desktop/Msc/3_Semester/Drug_Design_Praktikum/waehrer_HTS_screening/HTS_experiment/out/docking_results/vina_output/2qfa/1372_docked.pdbqt
 OpenBabel03162220383D

 31 34  0  0  1  0  0  0  0  0999 V2000
   42.7810    8.6150   43.7150 C   0  0  0  0  0  0  0  0  0  0  0  0
   42.1750    7.5760   43.3820 O   0  0  0  0  0  0  0  0  0  0  0  0
   42.2900    9.8680   43.3310 N   0  0  0  0  0  0  0  0  0  0  0  0
   40.9990   10.2580   42.8750 C   0  0  0  0  0  2  0  0  0  0  0  0
   40.8470   11.7070   43.3610 C   0  0  0  0  0  2  0  0  0  0  0  0
   41.6160   11.9610   44.6340 C   0  0  1  0  0  0  0  0  0  0  0  0
   41.4700   13.3230   45.0710 N   0  0  0  0  0  0  0  0  0  0  0  0
   42.3230   13.5040   46.2540 C   0  0  0  0  0  2  0  0  0  0  0  0
   41.8270   12.7100   47.4230 C   0  0  0  0  0  2  0  0  0  0  0  0
   41.1880   11.4370   47.0220 C   0  0  0  0  0  0  0  0  0  0  0  0
   40.6440   10.4690   47.7660 N   0  0  0  0  0  0  0  0  0  0  0  0
   40.1910    9.5010   46.9460 C   0  0  0  0  0  3  0  0  0  0  0  0
   40.4640    9.8820   45.6900 N   0  0  0  0  0  0  0  0  0  0  0  0
   41.0800   11.0740   45.6730 C   0  0  0  0  0  0  0  0  0  0  0  0
   43.1310   11.7770   44.4510 C   0  0  0  0  0  2  0  0  0  0  0  0
   43.2660   11.0020   43.2110 C   0  0  0  0  0  2  0  0  0  0  0  0
   41.8640   13.9640   44.3410 H   0  0  0  0  0  0  0  0  0  0  0  0
   40.5440   10.3970   48.8030 H   0  0  0  0  0  0  0  0  0  0  0  0
   44.0200    8.4640   44.5380 C   0  0  1  0  0  3  0  0  0  0  0  0
   43.5500    8.2450   46.0000 C   0  0  0  0  0  1  0  0  0  0  0  0
   44.7730    7.2680   44.2470 N   0  0  0  0  0  0  0  0  0  0  0  0
   45.8370    7.3290   43.2600 C   0  0  0  0  0  0  0  0  0  0  0  0
   46.1420    8.3880   42.6990 O   0  0  0  0  0  0  0  0  0  0  0  0
   44.5660    6.3950   44.7290 H   0  0  0  0  0  0  0  0  0  0  0  0
   46.5120    6.0540   42.9650 C   0  0  0  0  0  0  0  0  0  0  0  0
   47.5300    5.6360   43.8380 C   0  0  0  0  0  3  0  0  0  0  0  0
   48.2420    4.4760   43.6590 C   0  0  0  0  0  0  0  0  0  0  0  0
   49.6170    3.9820   44.9210 Br  0  0  0  0  0  0  0  0  0  0  0  0
   47.9460    3.6860   42.5740 C   0  0  0  0  0  3  0  0  0  0  0  0
   46.9470    4.0840   41.7010 C   0  0  0  0  0  3  0  0  0  0  0  0
   46.2340    5.2620   41.8920 C   0  0  0  0  0  3  0  0  0  0  0  0
  1 19  1  0  0  0  0
  2  1  2  0  0  0  0
  3  1  1  0  0  0  0
  4  3  1  0  0  0  0
  4  5  1  0  0  0  0
  6  5  1  6  0  0  0
  6  7  1  0  0  0  0
  6 14  1  0  0  0  0
  7  8  1  0  0  0  0
  8  9  1  0  0  0  0
 10  9  1  0  0  0  0
 10 11  1  0  0  0  0
 11 18  1  0  0  0  0
 12 11  1  0  0  0  0
 13 12  2  0  0  0  0
 14 13  1  0  0  0  0
 14 10  2  0  0  0  0
 15  6  1  0  0  0  0
 16  3  1  0  0  0  0
 16 15  1  0  0  0  0
 17  7  1  0  0  0  0
 19 20  1  1  0  0  0
 21 19  1  0  0  0  0
 21 24  1  0  0  0  0
 22 21  1  0  0  0  0
 23 22  2  0  0  0  0
 25 22  1  0  0  0  0
 25 26  1  0  0  0  0
 27 26  2  0  0  0  0
 27 28  1  0  0  0  0
 29 27  1  0  0  0  0
 30 31  1  0  0  0  0
 30 29  2  0  0  0  0
 31 25  2  0  0  0  0
M  END
>  <Pose>
1

>  <Score>
-7.692

$$$$
