/Users/jonathanwahrer/Desktop/Msc/3_Semester/Drug_Design_Praktikum/waehrer_HTS_screening/HTS_experiment/out/docking_results/vina_output/2qfa/1386_docked.pdbqt
 OpenBabel03162220393D

 33 36  0  0  1  0  0  0  0  0999 V2000
   45.2350    6.9340   42.8200 C   0  0  0  0  0  0  0  0  0  0  0  0
   45.8930    7.7810   42.1740 O   0  0  0  0  0  0  0  0  0  0  0  0
   43.9480    7.3130   43.3550 N   0  0  0  0  0  0  0  0  0  0  0  0
   43.4670    8.6480   43.1280 C   0  0  0  0  0  2  0  0  0  0  0  0
   43.4490    9.3520   44.4690 C   0  0  2  0  0  3  0  0  0  0  0  0
   43.1630    8.4480   45.6130 C   0  0  2  0  0  0  0  0  0  0  0  0
   42.5020    7.1640   45.2670 C   0  0  0  0  0  2  0  0  0  0  0  0
   43.1020    6.4330   44.1120 C   0  0  0  0  0  2  0  0  0  0  0  0
   42.2260    9.2030   46.5660 C   0  0  0  0  0  1  0  0  0  0  0  0
   45.7210    5.5700   43.0560 C   0  0  0  0  0  2  0  0  0  0  0  0
   46.5850    4.9590   42.0370 C   0  0  0  0  0  2  0  0  0  0  0  0
   47.7420    4.1630   42.5180 C   0  0  0  0  0  0  0  0  0  0  0  0
   48.1850    2.9990   41.9240 N   0  0  0  0  0  0  0  0  0  0  0  0
   49.2060    2.5000   42.6360 C   0  0  0  0  0  0  0  0  0  0  0  0
   50.0080    1.3780   42.5000 C   0  0  0  0  0  3  0  0  0  0  0  0
   49.4410    3.3320   43.7050 C   0  0  0  0  0  0  0  0  0  0  0  0
   51.0070    1.1080   43.4050 C   0  0  0  0  0  0  0  0  0  0  0  0
   52.0040   -0.3390   43.1850 Cl  0  0  0  0  0  0  0  0  0  0  0  0
   51.2300    1.9550   44.4730 C   0  0  0  0  0  3  0  0  0  0  0  0
   50.4410    3.0700   44.6180 C   0  0  0  0  0  3  0  0  0  0  0  0
   48.5170    4.3300   43.5840 N   0  0  0  0  0  0  0  0  0  0  0  0
   48.4350    5.3840   44.5790 C   0  0  0  0  0  1  0  0  0  0  0  0
   42.5400   10.4680   44.3700 N   0  0  0  0  0  0  0  0  0  0  0  0
   41.3380   10.3130   43.7810 C   0  0  0  0  0  3  0  0  0  0  0  0
   40.4390   11.3500   43.6650 C   0  0  0  0  0  3  0  0  0  0  0  0
   40.7900   12.5810   44.1700 C   0  0  0  0  0  0  0  0  0  0  0  0
   40.0020   13.5810   44.0940 O   0  0  0  0  0  0  0  0  0  0  0  0
   41.9930   12.7050   44.7510 N   0  0  0  0  0  0  0  0  0  0  0  0
   42.8460   11.6850   44.8510 C   0  0  0  0  0  0  0  0  0  0  0  0
   42.3050   13.6390   45.1540 H   0  0  0  0  0  0  0  0  0  0  0  0
   43.9690   11.8550   45.4080 O   0  0  0  0  0  0  0  0  0  0  0  0
   44.3050    8.1550   46.3750 O   0  0  0  0  0  0  0  0  0  0  0  0
   44.9690    8.8990   46.2310 H   0  0  0  0  0  0  0  0  0  0  0  0
  1 10  1  0  0  0  0
  1  3  1  0  0  0  0
  2  1  2  0  0  0  0
  3  8  1  0  0  0  0
  4  3  1  0  0  0  0
  5  4  1  6  0  0  0
  5  6  1  0  0  0  0
  6 32  1  0  0  0  0
  6  9  1  1  0  0  0
  7  6  1  0  0  0  0
  8  7  1  0  0  0  0
 11 12  1  0  0  0  0
 11 10  1  0  0  0  0
 12 21  1  0  0  0  0
 13 12  2  0  0  0  0
 13 14  1  0  0  0  0
 14 16  1  0  0  0  0
 15 14  2  0  0  0  0
 15 17  1  0  0  0  0
 16 20  2  0  0  0  0
 17 19  2  0  0  0  0
 18 17  1  0  0  0  0
 19 20  1  0  0  0  0
 21 16  1  0  0  0  0
 21 22  1  0  0  0  0
 23  5  1  0  0  0  0
 23 29  1  0  0  0  0
 24 23  1  0  0  0  0
 25 24  2  0  0  0  0
 25 26  1  0  0  0  0
 26 28  1  0  0  0  0
 27 26  2  0  0  0  0
 28 29  1  0  0  0  0
 28 30  1  0  0  0  0
 29 31  2  0  0  0  0
 33 32  1  0  0  0  0
M  END
>  <Pose>
1

>  <Score>
-8.860

$$$$
