/Users/jonathanwahrer/Desktop/Msc/3_Semester/Drug_Design_Praktikum/waehrer_HTS_screening/HTS_experiment/out/docking_results/vina_output/2qfa/1405_docked.pdbqt
 OpenBabel03162220393D

 27 30  0  0  1  0  0  0  0  0999 V2000
   46.3510   14.7890   44.5010 Br  0  0  0  0  0  0  0  0  0  0  0  0
   44.7560   14.2110   45.4150 C   0  0  0  0  0  0  0  0  0  0  0  0
   44.1840   12.9970   45.1390 C   0  0  0  0  0  3  0  0  0  0  0  0
   43.0420   12.6040   45.8060 C   0  0  0  0  0  0  0  0  0  0  0  0
   42.5210   13.4640   46.7340 C   0  0  0  0  0  0  0  0  0  0  0  0
   43.1110   14.7120   47.0180 C   0  0  0  0  0  3  0  0  0  0  0  0
   44.2450   15.0860   46.3460 C   0  0  0  0  0  3  0  0  0  0  0  0
   41.3500   12.9210   47.3350 N   0  0  0  0  0  0  0  0  0  0  0  0
   41.1160   11.6640   46.7640 C   0  0  0  0  0  0  0  0  0  0  0  0
   40.1530   10.8930   47.0630 O   0  0  0  0  0  0  0  0  0  0  0  0
   42.1930   11.3890   45.7480 C   0  0  2  0  0  0  0  0  0  0  0  0
   42.8790   10.1880   46.2080 C   0  0  0  0  0  0  0  0  0  0  0  0
   42.8640    9.0420   45.4760 C   0  0  0  0  0  0  0  0  0  0  0  0
   43.5890    8.1210   46.1760 N   0  0  0  0  0  0  0  0  0  0  0  0
   44.0410    8.6520   47.2930 N   0  0  0  0  0  0  0  0  0  0  0  0
   43.6300    9.9170   47.3560 C   0  0  0  0  0  0  0  0  0  0  0  0
   43.8770   10.9410   48.4190 C   0  0  0  0  0  1  0  0  0  0  0  0
   42.2000    8.9360   44.2480 O   0  0  0  0  0  0  0  0  0  0  0  0
   41.5460   10.0840   43.8130 C   0  0  0  0  0  0  0  0  0  0  0  0
   41.5250   11.2130   44.4720 C   0  0  0  0  0  0  0  0  0  0  0  0
   40.7820   12.3270   43.8590 C   0  0  0  0  0  0  0  0  0  0  0  0
   40.1980   13.2240   43.3910 N   0  0  0  0  0  0  0  0  0  0  0  0
   40.5220   13.5570   48.3710 C   0  0  0  0  0  1  0  0  0  0  0  0
   44.6280    8.2020   48.0420 H   0  0  0  0  0  0  0  0  0  0  0  0
   40.8380   10.0350   42.5430 N   0  0  0  0  0  0  0  0  0  0  0  0
   39.8190    9.8420   42.6210 H   0  0  0  0  0  0  0  0  0  0  0  0
   41.2910   10.1740   41.6410 H   0  0  0  0  0  0  0  0  0  0  0  0
  1  2  1  0  0  0  0
  2  7  1  0  0  0  0
  3  2  2  0  0  0  0
  3  4  1  0  0  0  0
  4  5  2  0  0  0  0
  5  6  1  0  0  0  0
  5  8  1  0  0  0  0
  7  6  2  0  0  0  0
  8 23  1  0  0  0  0
  9 10  2  0  0  0  0
  9  8  1  0  0  0  0
 11 20  1  6  0  0  0
 11  4  1  0  0  0  0
 11 12  1  0  0  0  0
 11  9  1  0  0  0  0
 12 16  2  0  0  0  0
 13 14  2  0  0  0  0
 13 12  1  0  0  0  0
 14 15  1  0  0  0  0
 15 16  1  0  0  0  0
 15 24  1  0  0  0  0
 16 17  1  0  0  0  0
 18 13  1  0  0  0  0
 19 18  1  0  0  0  0
 19 20  2  0  0  0  0
 21 20  1  0  0  0  0
 22 21  3  0  0  0  0
 25 26  1  0  0  0  0
 25 19  1  0  0  0  0
 27 25  1  0  0  0  0
M  END
>  <Pose>
1

>  <Score>
-6.542

$$$$
