/Users/jonathanwahrer/Desktop/Msc/3_Semester/Drug_Design_Praktikum/waehrer_HTS_screening/HTS_experiment/out/docking_results/vina_output/2qfa/1415_docked.pdbqt
 OpenBabel03162220403D

 32 35  0  0  1  0  0  0  0  0999 V2000
   38.6340   10.3300   50.2080 Br  0  0  0  0  0  0  0  0  0  0  0  0
   38.4860   10.5710   48.3120 C   0  0  0  0  0  0  0  0  0  0  0  0
   39.5910   10.4030   47.5130 C   0  0  0  0  0  0  0  0  0  0  0  0
   39.5260   10.5710   46.1200 C   0  0  0  0  0  0  0  0  0  0  0  0
   38.2970   10.9120   45.5990 C   0  0  0  0  0  3  0  0  0  0  0  0
   37.1730   11.0880   46.3780 C   0  0  0  0  0  0  0  0  0  0  0  0
   37.2620   10.9170   47.7410 C   0  0  0  0  0  0  0  0  0  0  0  0
   36.1100   11.0840   48.6640 C   0  0  0  0  0  1  0  0  0  0  0  0
   35.4830   11.5600   45.6290 Br  0  0  0  0  0  0  0  0  0  0  0  0
   40.7160   10.3860   45.3150 C   0  0  0  0  0  0  0  0  0  0  0  0
   40.6460   10.4290   44.0830 O   0  0  0  0  0  0  0  0  0  0  0  0
   42.0100   10.1470   45.9800 C   0  0  1  0  0  0  0  0  0  0  0  0
   41.7250    9.3630   47.2420 C   0  0  0  0  0  2  0  0  0  0  0  0
   40.8160   10.0570   48.0760 O   0  0  0  0  0  0  0  0  0  0  0  0
   43.0130    9.4500   45.1110 C   0  0  0  0  0  2  0  0  0  0  0  0
   43.2270    8.0820   45.3840 N   0  0  0  0  0  4  0  0  0  0  0  0
   42.3920    7.2770   44.5430 C   0  0  0  0  0  2  0  0  0  0  0  0
   42.7780    7.2500   43.1070 C   0  0  2  0  0  3  0  0  0  0  0  0
   44.0770    7.8630   42.7540 C   0  0  0  0  0  2  0  0  0  0  0  0
   41.6870    7.9870   42.3210 C   0  0  0  0  0  1  0  0  0  0  0  0
   45.0780    7.9700   43.8370 C   0  0  0  0  0  2  0  0  0  0  0  0
   44.5730    7.6120   45.2040 C   0  0  0  0  0  2  0  0  0  0  0  0
   42.9620    7.8680   46.3790 H   0  0  0  0  0  0  0  0  0  0  0  0
   42.5300   11.5110   46.3820 C   0  0  0  0  0  2  0  0  0  0  0  0
   42.5660   12.4800   45.3400 N   0  0  0  0  0  4  0  0  0  0  0  0
   43.9190   13.0140   45.1910 C   0  0  0  0  0  2  0  0  0  0  0  0
   44.0830   14.3580   45.8380 C   0  0  1  0  0  3  0  0  0  0  0  0
   43.3740   14.3680   47.1730 C   0  0  0  0  0  2  0  0  0  0  0  0
   45.5770   14.5290   46.1430 C   0  0  0  0  0  1  0  0  0  0  0  0
   41.9040   14.2590   46.9100 C   0  0  0  0  0  2  0  0  0  0  0  0
   41.7010   13.6190   45.5590 C   0  0  0  0  0  2  0  0  0  0  0  0
   42.3220   12.0550   44.4420 H   0  0  0  0  0  0  0  0  0  0  0  0
  2  1  1  0  0  0  0
  3 14  1  0  0  0  0
  3  2  2  0  0  0  0
  4  3  1  0  0  0  0
  5  4  2  0  0  0  0
  5  6  1  0  0  0  0
  6  7  2  0  0  0  0
  7  2  1  0  0  0  0
  7  8  1  0  0  0  0
  9  6  1  0  0  0  0
 10 12  1  0  0  0  0
 10  4  1  0  0  0  0
 11 10  2  0  0  0  0
 12 15  1  6  0  0  0
 12 24  1  0  0  0  0
 12 13  1  0  0  0  0
 13 14  1  0  0  0  0
 15 16  1  0  0  0  0
 16 23  1  0  0  0  0
 17 16  1  0  0  0  0
 18 20  1  6  0  0  0
 18 17  1  0  0  0  0
 19 18  1  0  0  0  0
 19 21  1  0  0  0  0
 21 22  1  0  0  0  0
 22 16  1  0  0  0  0
 25 31  1  0  0  0  0
 25 24  1  0  0  0  0
 26 25  1  0  0  0  0
 26 27  1  0  0  0  0
 27 29  1  1  0  0  0
 27 28  1  0  0  0  0
 30 28  1  0  0  0  0
 31 30  1  0  0  0  0
 32 25  1  0  0  0  0
M  END
>  <Pose>
1

>  <Score>
-6.235

$$$$
