/Users/jonathanwahrer/Desktop/Msc/3_Semester/Drug_Design_Praktikum/waehrer_HTS_screening/HTS_experiment/out/docking_results/vina_output/2qfa/1428_docked.pdbqt
 OpenBabel03162220403D

 37 40  0  0  1  0  0  0  0  0999 V2000
   43.6790   11.1030   49.5150 Cl  0  0  0  0  0  0  0  0  0  0  0  0
   42.9930    9.8760   48.4550 C   0  0  0  0  0  0  0  0  0  0  0  0
   43.4280    9.7010   47.1690 C   0  0  0  0  0  3  0  0  0  0  0  0
   42.8570    8.7270   46.3820 C   0  0  0  0  0  0  0  0  0  0  0  0
   41.8600    7.9570   46.9230 C   0  0  0  0  0  0  0  0  0  0  0  0
   41.4190    8.1380   48.2360 C   0  0  0  0  0  3  0  0  0  0  0  0
   41.9920    9.1070   49.0060 C   0  0  0  0  0  3  0  0  0  0  0  0
   41.3720    6.9840   46.0070 N   0  0  0  0  0  0  0  0  0  0  0  0
   42.1060    7.1560   44.8270 C   0  0  0  0  0  0  0  0  0  0  0  0
   41.9170    6.4190   43.8040 O   0  0  0  0  0  0  0  0  0  0  0  0
   43.0590    8.2630   44.9890 C   0  0  2  0  0  0  0  0  0  0  0  0
   44.3800    7.7420   44.7750 N   0  0  0  0  0  0  0  0  0  0  0  0
   44.9040    8.2890   43.5620 C   0  0  2  0  0  3  0  0  0  0  0  0
   43.7670    8.9330   42.8360 C   0  0  0  0  0  2  0  0  0  0  0  0
   42.8280    9.2810   43.9570 C   0  0  2  0  0  3  0  0  0  0  0  0
   40.6110    6.2730   46.1760 H   0  0  0  0  0  0  0  0  0  0  0  0
   44.9850    7.8950   45.6080 H   0  0  0  0  0  0  0  0  0  0  0  0
   42.9460   10.6970   44.3890 C   0  0  0  0  0  0  0  0  0  0  0  0
   44.0590   11.2420   44.1890 O   0  0  0  0  0  0  0  0  0  0  0  0
   41.9070   11.4180   44.9880 N   0  0  0  0  0  0  0  0  0  0  0  0
   41.0010   10.8670   45.1020 H   0  0  0  0  0  0  0  0  0  0  0  0
   41.9000   12.7400   45.4360 C   0  0  0  0  0  0  0  0  0  0  0  0
   40.7130   13.4570   45.4160 C   0  0  0  0  0  0  0  0  0  0  0  0
   40.6330   14.7660   45.8460 C   0  0  0  0  0  3  0  0  0  0  0  0
   41.7390   15.4270   46.3170 C   0  0  0  0  0  3  0  0  0  0  0  0
   42.9230   14.7470   46.3470 C   0  0  0  0  0  0  0  0  0  0  0  0
   42.9890   13.4260   45.9120 C   0  0  0  0  0  3  0  0  0  0  0  0
   39.5530   12.8590   44.9540 O   0  0  0  0  0  0  0  0  0  0  0  0
   38.4030   12.6820   45.7240 C   0  0  0  0  0  1  0  0  0  0  0  0
   44.0610   15.3770   46.8160 O   0  0  0  0  0  0  0  0  0  0  0  0
   45.3630   15.0320   46.3780 C   0  0  0  0  0  1  0  0  0  0  0  0
   45.5940    7.2300   42.7180 C   0  0  0  0  0  2  0  0  0  0  0  0
   45.9180    6.0280   43.4980 C   0  0  0  0  0  0  0  0  0  0  0  0
   45.0760    5.1280   43.6430 O   0  0  0  0  0  0  0  0  0  0  0  0
   47.1910    5.8970   44.0850 N   0  0  0  0  0  0  0  0  0  0  0  0
   47.7010    4.9970   43.9590 H   0  0  0  0  0  0  0  0  0  0  0  0
   47.6660    6.6470   44.6440 H   0  0  0  0  0  0  0  0  0  0  0  0
  2  7  1  0  0  0  0
  2  1  1  0  0  0  0
  3  2  2  0  0  0  0
  4  5  2  0  0  0  0
  4  3  1  0  0  0  0
  5  6  1  0  0  0  0
  6  7  2  0  0  0  0
  8 16  1  0  0  0  0
  8  5  1  0  0  0  0
  9  8  1  0  0  0  0
 10  9  2  0  0  0  0
 11  9  1  6  0  0  0
 11  4  1  0  0  0  0
 12 11  1  0  0  0  0
 12 17  1  0  0  0  0
 13 32  1  6  0  0  0
 13 12  1  0  0  0  0
 14 13  1  0  0  0  0
 14 15  1  0  0  0  0
 15 18  1  1  0  0  0
 15 11  1  0  0  0  0
 18 20  1  0  0  0  0
 19 18  2  0  0  0  0
 20 21  1  0  0  0  0
 20 22  1  0  0  0  0
 22 27  1  0  0  0  0
 23 22  2  0  0  0  0
 23 24  1  0  0  0  0
 24 25  2  0  0  0  0
 25 26  1  0  0  0  0
 26 30  1  0  0  0  0
 27 26  2  0  0  0  0
 28 23  1  0  0  0  0
 28 29  1  0  0  0  0
 31 30  1  0  0  0  0
 32 33  1  0  0  0  0
 33 34  2  0  0  0  0
 33 35  1  0  0  0  0
 35 37  1  0  0  0  0
 36 35  1  0  0  0  0
M  END
>  <Pose>
1

>  <Score>
-7.318

$$$$
