/Users/jonathanwahrer/Desktop/Msc/3_Semester/Drug_Design_Praktikum/waehrer_HTS_screening/HTS_experiment/out/docking_results/vina_output/2qfa/1434_docked.pdbqt
 OpenBabel03162220413D

 28 31  0  0  1  0  0  0  0  0999 V2000
   40.8390   11.2070   44.8190 C   0  0  0  0  0  0  0  0  0  0  0  0
   39.6880   10.5840   45.0460 O   0  0  0  0  0  0  0  0  0  0  0  0
   41.5520   10.7160   43.7360 N   0  0  0  0  0  0  0  0  0  0  0  0
   42.8060   11.1570   43.2390 C   0  0  0  0  0  2  0  0  0  0  0  0
   43.8830   10.1170   43.5500 C   0  0  0  0  0  2  0  0  0  0  0  0
   43.2700    8.7270   43.5240 C   0  0  1  0  0  0  0  0  0  0  0  0
   44.3070    7.8530   43.0020 N   0  0  0  0  0  0  0  0  0  0  0  0
   45.0640    7.3960   44.1420 C   0  0  0  0  0  0  0  0  0  0  0  0
   46.2150    6.8940   44.1110 O   0  0  0  0  0  0  0  0  0  0  0  0
   44.2540    7.6260   45.3110 N   0  0  0  0  0  0  0  0  0  0  0  0
   43.0290    8.2110   44.8870 C   0  0  0  0  0  0  0  0  0  0  0  0
   41.9770    8.2580   45.5670 O   0  0  0  0  0  0  0  0  0  0  0  0
   42.0790    8.6370   42.6240 C   0  0  0  0  0  2  0  0  0  0  0  0
   40.9750    9.5820   42.9730 C   0  0  0  0  0  2  0  0  0  0  0  0
   44.4810    7.5970   42.0080 H   0  0  0  0  0  0  0  0  0  0  0  0
   44.5210    7.4040   46.2800 H   0  0  0  0  0  0  0  0  0  0  0  0
   41.0760   12.2660   45.7790 C   0  0  0  0  0  2  0  0  0  0  0  0
   42.1510   12.1590   46.7030 N   0  0  0  0  0  0  0  0  0  0  0  0
   43.3150   12.8640   46.5790 C   0  0  0  0  0  0  0  0  0  0  0  0
   44.1380   12.5590   47.6320 C   0  0  0  0  0  0  0  0  0  0  0  0
   43.7490   13.7720   45.6120 C   0  0  0  0  0  3  0  0  0  0  0  0
   43.4640   11.6520   48.4120 C   0  0  0  0  0  0  0  0  0  0  0  0
   45.3870   13.1530   47.7260 C   0  0  0  0  0  3  0  0  0  0  0  0
   44.1930   10.9110   50.0160 Br  0  0  0  0  0  0  0  0  0  0  0  0
   42.2490   11.4180   47.8310 C   0  0  0  0  0  0  0  0  0  0  0  0
   41.2010   10.5060   48.3440 C   0  0  0  0  0  1  0  0  0  0  0  0
   45.8060   14.0480   46.7690 C   0  0  0  0  0  3  0  0  0  0  0  0
   45.0010   14.3650   45.7110 C   0  0  0  0  0  3  0  0  0  0  0  0
  1  2  2  0  0  0  0
  1 17  1  0  0  0  0
  3  1  1  0  0  0  0
  4  5  1  0  0  0  0
  4  3  1  0  0  0  0
  6 13  1  6  0  0  0
  6  5  1  0  0  0  0
  6 11  1  0  0  0  0
  7  6  1  0  0  0  0
  7  8  1  0  0  0  0
  8 10  1  0  0  0  0
  9  8  2  0  0  0  0
 10 16  1  0  0  0  0
 11 10  1  0  0  0  0
 11 12  2  0  0  0  0
 13 14  1  0  0  0  0
 14  3  1  0  0  0  0
 15  7  1  0  0  0  0
 17 18  1  0  0  0  0
 18 25  1  0  0  0  0
 19 18  1  0  0  0  0
 19 20  1  0  0  0  0
 20 23  2  0  0  0  0
 20 22  1  0  0  0  0
 21 28  1  0  0  0  0
 21 19  2  0  0  0  0
 22 24  1  0  0  0  0
 25 26  1  0  0  0  0
 25 22  2  0  0  0  0
 27 23  1  0  0  0  0
 28 27  2  0  0  0  0
M  END
>  <Pose>
1

>  <Score>
-6.495

$$$$
