/Users/jonathanwahrer/Desktop/Msc/3_Semester/Drug_Design_Praktikum/waehrer_HTS_screening/HTS_experiment/out/docking_results/vina_output/2qfa/1436_docked.pdbqt
 OpenBabel03162220423D

 33 36  0  0  0  0  0  0  0  0999 V2000
   40.5800   14.7370   48.3040 O   0  0  0  0  0  0  0  0  0  0  0  0
   41.5640   14.9050   47.3870 C   0  0  0  0  0  2  0  0  0  0  0  0
   41.4260   14.4610   45.9900 C   0  0  0  0  0  2  0  0  0  0  0  0
   42.2730   13.4150   45.5240 N   0  0  0  0  0  0  0  0  0  0  0  0
   43.5790   13.2050   45.6760 C   0  0  0  0  0  0  0  0  0  0  0  0
   44.8430   14.3460   46.5450 Br  0  0  0  0  0  0  0  0  0  0  0  0
   43.9670   12.0520   45.0840 N   0  0  0  0  0  0  0  0  0  0  0  0
   42.8770   11.5270   44.5430 C   0  0  0  0  0  0  0  0  0  0  0  0
   41.8080   12.3570   44.8020 C   0  0  0  0  0  0  0  0  0  0  0  0
   42.6690   10.3890   43.8240 N   0  0  0  0  0  0  0  0  0  0  0  0
   40.5350   12.0690   44.3520 C   0  0  0  0  0  0  0  0  0  0  0  0
   40.3930   10.9160   43.6380 N   0  0  0  0  0  0  0  0  0  0  0  0
   39.5490   12.8140   44.5740 O   0  0  0  0  0  0  0  0  0  0  0  0
   41.4400   10.1140   43.3910 C   0  0  0  0  0  0  0  0  0  0  0  0
   39.4360   10.6880   43.2920 H   0  0  0  0  0  0  0  0  0  0  0  0
   41.2790    9.0490   42.7260 O   0  0  0  0  0  0  0  0  0  0  0  0
   43.7660    9.4890   43.5310 C   0  0  0  0  0  1  0  0  0  0  0  0
   39.6590   13.7880   47.8910 C   0  0  0  0  0  2  0  0  0  0  0  0
   39.7200   12.6090   48.8170 C   0  0  0  0  0  2  0  0  0  0  0  0
   39.9460   11.3850   48.1150 N   0  0  0  0  0  0  0  0  0  0  0  0
   41.1330   10.7920   47.9350 C   0  0  0  0  0  0  0  0  0  0  0  0
   40.9260    9.6570   47.2140 C   0  0  0  0  0  0  0  0  0  0  0  0
   42.4110   11.1260   48.3370 C   0  0  0  0  0  0  0  0  0  0  0  0
   39.6190    9.5880   46.9720 N   0  0  0  0  0  0  0  0  0  0  0  0
   41.9620    8.8640   46.8930 N   0  0  0  0  0  0  0  0  0  0  0  0
   38.9800   10.6380   47.5130 C   0  0  0  0  0  0  0  0  0  0  0  0
   37.1300   11.0680   47.4920 Br  0  0  0  0  0  0  0  0  0  0  0  0
   43.1860    9.2050   47.2910 C   0  0  0  0  0  0  0  0  0  0  0  0
   41.7610    7.6530   46.1260 C   0  0  0  0  0  1  0  0  0  0  0  0
   44.1480    8.4520   46.9830 O   0  0  0  0  0  0  0  0  0  0  0  0
   43.4090   10.3070   47.9960 N   0  0  0  0  0  0  0  0  0  0  0  0
   44.3760   10.5570   48.2980 H   0  0  0  0  0  0  0  0  0  0  0  0
   42.6670   12.1730   49.0140 O   0  0  0  0  0  0  0  0  0  0  0  0
  2  1  1  0  0  0  0
  3  2  1  0  0  0  0
  4  5  1  0  0  0  0
  4  3  1  0  0  0  0
  5  6  1  0  0  0  0
  7  5  2  0  0  0  0
  8  9  2  0  0  0  0
  8  7  1  0  0  0  0
  9  4  1  0  0  0  0
 10  8  1  0  0  0  0
 11 13  2  0  0  0  0
 11  9  1  0  0  0  0
 12 11  1  0  0  0  0
 14 12  1  0  0  0  0
 14 10  1  0  0  0  0
 15 12  1  0  0  0  0
 16 14  2  0  0  0  0
 17 10  1  0  0  0  0
 18  1  1  0  0  0  0
 18 19  1  0  0  0  0
 20 19  1  0  0  0  0
 21 20  1  0  0  0  0
 21 23  1  0  0  0  0
 22 21  2  0  0  0  0
 23 33  2  0  0  0  0
 24 22  1  0  0  0  0
 24 26  2  0  0  0  0
 25 22  1  0  0  0  0
 25 28  1  0  0  0  0
 26 20  1  0  0  0  0
 27 26  1  0  0  0  0
 28 31  1  0  0  0  0
 29 25  1  0  0  0  0
 30 28  2  0  0  0  0
 31 32  1  0  0  0  0
 31 23  1  0  0  0  0
M  END
>  <Pose>
1

>  <Score>
-5.262

$$$$
