/Users/jonathanwahrer/Desktop/Msc/3_Semester/Drug_Design_Praktikum/waehrer_HTS_screening/HTS_experiment/out/docking_results/vina_output/2qfa/1444_docked.pdbqt
 OpenBabel03162220423D

 33 36  0  0  0  0  0  0  0  0999 V2000
   43.9950    9.6520   43.7720 N   0  0  0  0  0  0  0  0  0  0  0  0
   43.6040   10.8070   44.3700 C   0  0  0  0  0  0  0  0  0  0  0  0
   44.3250   11.8330   43.8060 O   0  0  0  0  0  0  0  0  0  0  0  0
   44.7740    9.8320   42.9810 H   0  0  0  0  0  0  0  0  0  0  0  0
   42.7010   11.3340   45.3800 C   0  0  0  0  0  2  0  0  0  0  0  0
   41.7040   12.2960   45.1830 N   0  0  0  0  0  0  0  0  0  0  0  0
   40.6920   12.1990   44.0980 C   0  0  0  0  0  2  0  0  0  0  0  0
   40.0720   13.5790   44.0330 C   0  0  0  0  0  2  0  0  0  0  0  0
   39.3520   13.8460   45.3290 C   0  0  0  0  0  2  0  0  0  0  0  0
   40.3660   13.9910   46.4440 C   0  0  0  0  0  2  0  0  0  0  0  0
   41.6930   13.4800   45.9940 C   0  0  0  0  0  0  0  0  0  0  0  0
   42.8050   14.1680   46.2620 C   0  0  0  0  0  0  0  0  0  0  0  0
   42.7740   15.3450   47.0870 N   0  0  0  0  0  0  0  0  0  0  0  0
   44.1220   14.0340   45.8360 N   0  0  0  0  0  0  0  0  0  0  0  0
   44.0640   15.9040   47.1500 N   0  0  0  0  0  0  0  0  0  0  0  0
   41.9990   15.8020   47.6050 H   0  0  0  0  0  0  0  0  0  0  0  0
   44.9250   15.1000   46.3750 C   0  0  0  0  0  0  0  0  0  0  0  0
   44.3700   16.7630   47.6710 H   0  0  0  0  0  0  0  0  0  0  0  0
   46.1510   15.2270   46.1560 O   0  0  0  0  0  0  0  0  0  0  0  0
   44.4860   13.3010   45.2060 H   0  0  0  0  0  0  0  0  0  0  0  0
   43.7800    8.2860   43.9110 C   0  0  0  0  0  0  0  0  0  0  0  0
   44.6790    7.2870   43.6630 N   0  0  0  0  0  0  0  0  0  0  0  0
   44.1150    6.1260   43.9730 N   0  0  0  0  0  0  0  0  0  0  0  0
   42.8820    6.2940   44.4170 C   0  0  0  0  0  3  0  0  0  0  0  0
   42.6430    7.6760   44.3880 C   0  0  0  0  0  3  0  0  0  0  0  0
   45.9920    7.4820   43.1520 C   0  0  0  0  0  2  0  0  0  0  0  0
   46.8560    6.2900   43.2210 C   0  0  0  0  0  0  0  0  0  0  0  0
   46.8750    5.3090   42.2730 C   0  0  0  0  0  0  0  0  0  0  0  0
   45.8310    5.4310   40.8760 Cl  0  0  0  0  0  0  0  0  0  0  0  0
   47.7040    4.2180   42.3900 C   0  0  0  0  0  3  0  0  0  0  0  0
   48.5430    4.0770   43.4720 C   0  0  0  0  0  3  0  0  0  0  0  0
   48.5320    5.0620   44.4370 C   0  0  0  0  0  3  0  0  0  0  0  0
   47.6990    6.1430   44.3000 C   0  0  0  0  0  3  0  0  0  0  0  0
  1 21  1  0  0  0  0
  1  2  1  0  0  0  0
  2  5  1  0  0  0  0
  3  2  2  0  0  0  0
  4  1  1  0  0  0  0
  6  5  1  0  0  0  0
  6 11  1  0  0  0  0
  7  6  1  0  0  0  0
  8  7  1  0  0  0  0
  8  9  1  0  0  0  0
  9 10  1  0  0  0  0
 11 12  2  0  0  0  0
 11 10  1  0  0  0  0
 12 13  1  0  0  0  0
 13 15  1  0  0  0  0
 13 16  1  0  0  0  0
 14 12  1  0  0  0  0
 14 17  1  0  0  0  0
 15 18  1  0  0  0  0
 17 15  1  0  0  0  0
 19 17  2  0  0  0  0
 20 14  1  0  0  0  0
 21 25  2  0  0  0  0
 22 21  1  0  0  0  0
 22 23  1  0  0  0  0
 23 24  2  0  0  0  0
 25 24  1  0  0  0  0
 26 27  1  0  0  0  0
 26 22  1  0  0  0  0
 27 33  1  0  0  0  0
 28 30  1  0  0  0  0
 28 27  2  0  0  0  0
 29 28  1  0  0  0  0
 30 31  2  0  0  0  0
 31 32  1  0  0  0  0
 33 32  2  0  0  0  0
M  END
>  <Pose>
1

>  <Score>
-7.817

$$$$
