/Users/jonathanwahrer/Desktop/Msc/3_Semester/Drug_Design_Praktikum/waehrer_HTS_screening/HTS_experiment/out/docking_results/vina_output/2qfa/1471_docked.pdbqt
 OpenBabel03162220433D

 31 34  0  0  0  0  0  0  0  0999 V2000
   42.1290   11.1970   46.5160 C   0  0  0  0  0  0  0  0  0  0  0  0
   42.4380   10.9070   45.2160 C   0  0  0  0  0  2  0  0  0  0  0  0
   41.5210   10.5300   44.2730 N   0  0  0  0  0  0  0  0  0  0  0  0
   40.2520   10.4420   44.6570 C   0  0  0  0  0  3  0  0  0  0  0  0
   39.8450   10.7120   45.9370 C   0  0  0  0  0  0  0  0  0  0  0  0
   40.8300   11.1120   46.9250 C   0  0  0  0  0  0  0  0  0  0  0  0
   40.1500   11.3080   48.0700 N   0  0  0  0  0  2  0  0  0  0  0  0
   38.8640   11.0700   47.8780 N   0  0  0  0  0  0  0  0  0  0  0  0
   38.6360   10.7080   46.6090 C   0  0  0  0  0  0  0  0  0  0  0  0
   37.5420   10.4030   46.0440 O   0  0  0  0  0  0  0  0  0  0  0  0
   38.0800   11.1380   48.5850 H   0  0  0  0  0  0  0  0  0  0  0  0
   43.1660   11.5920   47.4550 C   0  0  0  0  0  0  0  0  0  0  0  0
   43.3060   12.9230   47.9070 N   0  0  0  0  0  0  0  0  0  0  0  0
   44.3200   13.3450   48.8350 C   0  0  0  0  0  2  0  0  0  0  0  0
   42.3890   13.9210   47.4210 C   0  0  0  0  0  2  0  0  0  0  0  0
   44.8950   14.6490   48.3420 C   0  0  0  0  0  2  0  0  0  0  0  0
   44.5660   14.9340   46.9700 N   0  0  0  0  0  0  0  0  0  0  0  0
   43.1950   14.8030   46.4570 C   0  0  0  0  0  2  0  0  0  0  0  0
   43.9470   10.6780   47.8530 O   0  0  0  0  0  0  0  0  0  0  0  0
   45.5470   15.3530   46.0510 C   0  0  0  0  0  0  0  0  0  0  0  0
   46.2010   16.5580   46.1810 C   0  0  0  0  0  0  0  0  0  0  0  0
   45.8040   17.6180   47.5370 Cl  0  0  0  0  0  0  0  0  0  0  0  0
   47.1590   16.9580   45.2730 C   0  0  0  0  0  3  0  0  0  0  0  0
   47.4700   16.1370   44.2180 C   0  0  0  0  0  3  0  0  0  0  0  0
   46.8300   14.9050   44.0500 C   0  0  0  0  0  3  0  0  0  0  0  0
   45.8740   14.5510   44.9910 C   0  0  0  0  0  3  0  0  0  0  0  0
   41.9660   10.2080   42.9250 C   0  0  0  0  0  2  0  0  0  0  0  0
   42.0730    8.7850   42.6040 C   0  0  0  0  0  2  0  0  0  0  0  0
   43.0720    7.8810   43.1770 C   0  0  0  0  0  2  0  0  0  0  0  0
   44.3240    8.2810   43.4520 O   0  0  0  0  0  0  0  0  0  0  0  0
   45.4170    7.6720   42.9870 C   0  0  0  0  0  1  0  0  0  0  0  0
  1  6  2  0  0  0  0
  1 12  1  0  0  0  0
  2  1  1  0  0  0  0
  3  4  1  0  0  0  0
  3  2  1  0  0  0  0
  4  5  2  0  0  0  0
  5  9  1  0  0  0  0
  5  6  1  0  0  0  0
  6  7  1  0  0  0  0
  8  7  1  0  0  0  0
  8 11  1  0  0  0  0
  9  8  1  0  0  0  0
 10  9  2  0  0  0  0
 12 19  2  0  0  0  0
 12 13  1  0  0  0  0
 13 14  1  0  0  0  0
 15 13  1  0  0  0  0
 16 14  1  0  0  0  0
 17 16  1  0  0  0  0
 18 17  1  0  0  0  0
 18 15  1  0  0  0  0
 20 21  1  0  0  0  0
 20 17  1  0  0  0  0
 21 22  1  0  0  0  0
 23 21  2  0  0  0  0
 24 23  1  0  0  0  0
 25 24  2  0  0  0  0
 25 26  1  0  0  0  0
 26 20  2  0  0  0  0
 27  3  1  0  0  0  0
 28 27  1  0  0  0  0
 28 29  1  0  0  0  0
 29 30  1  0  0  0  0
 31 30  1  0  0  0  0
M  END
>  <Pose>
1

>  <Score>
-6.672

$$$$
