/Users/jonathanwahrer/Desktop/Msc/3_Semester/Drug_Design_Praktikum/waehrer_HTS_screening/HTS_experiment/out/docking_results/vina_output/2qfa/1486_docked.pdbqt
 OpenBabel03162220453D

 31 34  0  0  1  0  0  0  0  0999 V2000
   42.5600   10.4440   46.5700 N   0  0  0  0  0  0  0  0  0  0  0  0
   43.0730    9.2520   46.3690 N   0  0  0  0  0  0  0  0  0  0  0  0
   43.2240    9.0190   45.0570 C   0  0  0  0  0  0  0  0  0  0  0  0
   42.7870   10.1110   44.4130 N   0  0  0  0  0  0  0  0  0  0  0  0
   42.3730   10.9970   45.3670 C   0  0  2  0  0  3  0  0  0  0  0  0
   41.8190   12.3270   45.1230 C   0  0  0  0  0  2  0  0  0  0  0  0
   40.5780   12.3020   44.2620 C   0  0  0  0  0  2  0  0  0  0  0  0
   40.8980   11.9830   42.8180 C   0  0  0  0  0  2  0  0  0  0  0  0
   41.3040   10.5580   42.6050 C   0  0  0  0  0  2  0  0  0  0  0  0
   42.7580   10.3100   42.9780 C   0  0  0  0  0  2  0  0  0  0  0  0
   43.7610    7.8130   44.4110 C   0  0  0  0  0  2  0  0  0  0  0  0
   45.1530    7.9300   44.0970 N   0  0  0  0  0  0  0  0  0  0  0  0
   45.6630    8.7960   44.3230 H   0  0  0  0  0  0  0  0  0  0  0  0
   45.8970    6.8890   43.4730 C   0  0  0  0  0  0  0  0  0  0  0  0
   47.0650    6.3960   44.0090 C   0  0  0  0  0  3  0  0  0  0  0  0
   47.7710    5.3900   43.4010 C   0  0  0  0  0  3  0  0  0  0  0  0
   47.3130    4.8580   42.2360 C   0  0  0  0  0  0  0  0  0  0  0  0
   46.1450    5.3490   41.6960 C   0  0  0  0  0  3  0  0  0  0  0  0
   45.4260    6.3600   42.3000 C   0  0  0  0  0  3  0  0  0  0  0  0
   48.0000    3.8490   41.6040 O   0  0  0  0  0  0  0  0  0  0  0  0
   47.8480    2.4930   41.9410 C   0  0  0  0  0  1  0  0  0  0  0  0
   42.2550   11.0460   47.8340 C   0  0  0  0  0  2  0  0  0  0  0  0
   40.9180   10.6310   48.3360 C   0  0  0  0  0  0  0  0  0  0  0  0
   40.8760    9.9890   49.4190 O   0  0  0  0  0  0  0  0  0  0  0  0
   39.6850   10.9320   47.6410 C   0  0  0  0  0  0  0  0  0  0  0  0
   39.0300    9.9920   46.8790 C   0  0  0  0  0  3  0  0  0  0  0  0
   37.8450   10.2950   46.2160 C   0  0  0  0  0  3  0  0  0  0  0  0
   37.2990   11.5640   46.3140 C   0  0  0  0  0  0  0  0  0  0  0  0
   35.6600   11.9740   45.3940 Br  0  0  0  0  0  0  0  0  0  0  0  0
   37.9460   12.5090   47.0740 C   0  0  0  0  0  3  0  0  0  0  0  0
   39.1140   12.1820   47.7170 C   0  0  0  0  0  3  0  0  0  0  0  0
  1 22  1  0  0  0  0
  2  1  1  0  0  0  0
  3  2  2  0  0  0  0
  4  3  1  0  0  0  0
  4  5  1  0  0  0  0
  5  6  1  1  0  0  0
  5  1  1  0  0  0  0
  7  6  1  0  0  0  0
  8  7  1  0  0  0  0
  9  8  1  0  0  0  0
  9 10  1  0  0  0  0
 10  4  1  0  0  0  0
 11  3  1  0  0  0  0
 12 13  1  0  0  0  0
 12 11  1  0  0  0  0
 14 15  1  0  0  0  0
 14 12  1  0  0  0  0
 16 15  2  0  0  0  0
 17 16  1  0  0  0  0
 18 17  2  0  0  0  0
 18 19  1  0  0  0  0
 19 14  2  0  0  0  0
 20 21  1  0  0  0  0
 20 17  1  0  0  0  0
 22 23  1  0  0  0  0
 23 24  2  0  0  0  0
 25 31  1  0  0  0  0
 25 23  1  0  0  0  0
 26 25  2  0  0  0  0
 27 28  2  0  0  0  0
 27 26  1  0  0  0  0
 28 30  1  0  0  0  0
 29 28  1  0  0  0  0
 30 31  2  0  0  0  0
M  END
>  <Pose>
1

>  <Score>
-7.320

$$$$
