/Users/jonathanwahrer/Desktop/Msc/3_Semester/Drug_Design_Praktikum/waehrer_HTS_screening/HTS_experiment/out/docking_results/vina_output/2qfa/1491_docked.pdbqt
 OpenBabel03162220453D

 34 38  0  0  0  0  0  0  0  0999 V2000
   46.1710    4.3790   41.1530 F   0  0  0  0  0  0  0  0  0  0  0  0
   46.9450    4.5480   42.2400 C   0  0  0  0  0  0  0  0  0  0  0  0
   48.0760    3.7370   42.2650 C   0  0  0  0  0  3  0  0  0  0  0  0
   48.9650    3.8080   43.3150 C   0  0  0  0  0  0  0  0  0  0  0  0
   48.7000    4.7000   44.3270 C   0  0  0  0  0  0  0  0  0  0  0  0
   47.5640    5.5030   44.2830 C   0  0  0  0  0  3  0  0  0  0  0  0
   46.6730    5.4410   43.2460 C   0  0  0  0  0  0  0  0  0  0  0  0
   49.5840    4.7540   45.3430 N   0  0  0  0  0  0  0  0  0  0  0  0
   50.6830    3.9800   45.3900 C   0  0  0  0  0  3  0  0  0  0  0  0
   50.9770    3.0770   44.3920 C   0  0  0  0  0  0  0  0  0  0  0  0
   50.1020    2.9890   43.3350 C   0  0  0  0  0  0  0  0  0  0  0  0
   50.3100    2.1880   42.3940 O   0  0  0  0  0  0  0  0  0  0  0  0
   45.5410    6.2550   43.2430 N   0  0  0  0  0  4  0  0  0  0  0  0
   45.7680    7.6400   43.5690 C   0  0  0  0  0  2  0  0  0  0  0  0
   44.4590    8.4440   43.3810 C   0  0  0  0  0  2  0  0  0  0  0  0
   43.5530    7.9140   44.3210 N   0  0  0  0  0  0  0  0  0  0  0  0
   43.1630    6.5030   43.9320 C   0  0  0  0  0  2  0  0  0  0  0  0
   43.0290    8.3830   45.4780 C   0  0  0  0  0  0  0  0  0  0  0  0
   44.4610    5.7630   44.0340 C   0  0  0  0  0  2  0  0  0  0  0  0
   42.1380    7.6070   46.0470 O   0  0  0  0  0  0  0  0  0  0  0  0
   45.1830    6.2620   42.2380 H   0  0  0  0  0  0  0  0  0  0  0  0
   43.2740    9.5960   46.2070 C   0  0  0  0  0  0  0  0  0  0  0  0
   43.1610   10.8420   45.6810 C   0  0  0  0  0  3  0  0  0  0  0  0
   43.3540   11.9900   46.4400 C   0  0  0  0  0  0  0  0  0  0  0  0
   43.6730   11.8680   47.7680 C   0  0  0  0  0  3  0  0  0  0  0  0
   43.1930   13.5900   45.7120 Cl  0  0  0  0  0  0  0  0  0  0  0  0
   43.8020   10.6370   48.3470 C   0  0  0  0  0  3  0  0  0  0  0  0
   43.6050    9.5310   47.5770 C   0  0  0  0  0  3  0  0  0  0  0  0
   49.2840    5.7110   46.4140 C   0  0  0  0  0  3  0  0  0  0  0  0
   50.2950    6.0670   47.4150 C   0  0  0  0  0  2  0  0  0  0  0  0
   49.3080    5.0750   47.8440 C   0  0  0  0  0  2  0  0  0  0  0  0
   52.1870    2.2360   44.4590 C   0  0  0  0  0  0  0  0  0  0  0  0
   52.2580    1.1250   43.9090 O   0  0  0  0  0  0  0  0  0  0  0  0
   53.2700    2.7160   45.1600 O   0  0  0  0  0  1  0  0  0  0  0  0
  1  2  1  0  0  0  0
  2  3  2  0  0  0  0
  2  7  1  0  0  0  0
  3  4  1  0  0  0  0
  4 11  1  0  0  0  0
  4  5  2  0  0  0  0
  5  8  1  0  0  0  0
  6  5  1  0  0  0  0
  7  6  2  0  0  0  0
  8  9  1  0  0  0  0
  8 29  1  0  0  0  0
 10 32  1  0  0  0  0
 10  9  2  0  0  0  0
 11 10  1  0  0  0  0
 12 11  2  0  0  0  0
 13  7  1  0  0  0  0
 13 14  1  0  0  0  0
 13 19  1  0  0  0  0
 15 14  1  0  0  0  0
 15 16  1  0  0  0  0
 16 18  1  0  0  0  0
 17 19  1  0  0  0  0
 17 16  1  0  0  0  0
 18 20  2  0  0  0  0
 18 22  1  0  0  0  0
 21 13  1  0  0  0  0
 22 28  1  0  0  0  0
 23 22  2  0  0  0  0
 23 24  1  0  0  0  0
 24 25  2  0  0  0  0
 25 27  1  0  0  0  0
 26 24  1  0  0  0  0
 28 27  2  0  0  0  0
 29 30  1  0  0  0  0
 29 31  1  0  0  0  0
 30 31  1  0  0  0  0
 32 34  1  0  0  0  0
 33 32  2  0  0  0  0
M  END
>  <Pose>
1

>  <Score>
-7.773

$$$$
