/Users/jonathanwahrer/Desktop/Msc/3_Semester/Drug_Design_Praktikum/waehrer_HTS_screening/HTS_experiment/out/docking_results/vina_output/2qfa/1506_docked.pdbqt
 OpenBabel03162220463D

 32 35  0  0  1  0  0  0  0  0999 V2000
   44.2260    8.2820   44.1510 N   0  0  0  0  0  0  0  0  0  0  0  0
   42.9390    8.7710   43.7230 C   0  0  0  0  0  0  0  0  0  0  0  0
   42.4450    8.3320   42.6730 O   0  0  0  0  0  0  0  0  0  0  0  0
   44.5550    8.6630   45.0340 H   0  0  0  0  0  0  0  0  0  0  0  0
   42.1950    9.7850   44.5070 C   0  0  2  0  0  3  0  0  0  0  0  0
   42.1760   11.0710   43.7110 C   0  0  0  0  0  2  0  0  0  0  0  0
   43.5780   11.6370   43.7430 C   0  0  0  0  0  2  0  0  0  0  0  0
   43.7860   12.0920   45.1150 N   0  0  0  0  0  0  0  0  0  0  0  0
   43.2150   11.3670   46.2000 C   0  0  0  0  0  2  0  0  0  0  0  0
   42.7350   10.0000   45.8720 C   0  0  0  0  0  2  0  0  0  0  0  0
   44.5630   13.2570   45.3050 C   0  0  0  0  0  0  0  0  0  0  0  0
   45.4440   13.7070   44.3910 N   0  0  0  0  0  0  0  0  0  0  0  0
   46.1790   14.7910   44.5540 N   0  0  0  0  0  0  0  0  0  0  0  0
   47.0830   15.3760   43.7750 N   0  0  0  0  0  0  0  0  0  0  0  0
   46.1080   15.5450   45.6570 C   0  0  0  0  0  0  0  0  0  0  0  0
   47.5620   16.4450   44.3530 N   0  0  0  0  0  0  0  0  0  0  0  0
   46.9730   16.5730   45.5220 N   0  0  0  0  0  0  0  0  0  0  0  0
   45.2210   15.1350   46.6360 C   0  0  0  0  0  3  0  0  0  0  0  0
   44.4520   14.0010   46.4670 C   0  0  0  0  0  3  0  0  0  0  0  0
   44.8520    7.3170   43.3360 C   0  0  0  0  0  2  0  0  0  0  0  0
   44.7750    5.8770   43.6310 C   0  0  0  0  0  2  0  0  0  0  0  0
   45.9740    5.1310   43.6860 N   0  0  0  0  0  0  0  0  0  0  0  0
   46.8640    4.7470   42.6940 C   0  0  0  0  0  0  0  0  0  0  0  0
   46.6960    5.0640   41.4970 O   0  0  0  0  0  0  0  0  0  0  0  0
   46.2890    4.7630   44.6870 H   0  0  0  0  0  0  0  0  0  0  0  0
   48.0730    3.9380   42.9770 C   0  0  0  0  0  0  0  0  0  0  0  0
   48.8700    4.2560   44.0560 C   0  0  0  0  0  3  0  0  0  0  0  0
   49.9950    3.5290   44.3630 C   0  0  0  0  0  3  0  0  0  0  0  0
   50.3420    2.4470   43.5700 C   0  0  0  0  0  0  0  0  0  0  0  0
   51.7790    1.5120   43.9520 Cl  0  0  0  0  0  0  0  0  0  0  0  0
   49.5720    2.1030   42.4910 C   0  0  0  0  0  3  0  0  0  0  0  0
   48.4350    2.8640   42.2080 C   0  0  0  0  0  3  0  0  0  0  0  0
  1  4  1  0  0  0  0
  2  1  1  0  0  0  0
  3  2  2  0  0  0  0
  5  2  1  6  0  0  0
  5 10  1  0  0  0  0
  6  7  1  0  0  0  0
  6  5  1  0  0  0  0
  7  8  1  0  0  0  0
  8 11  1  0  0  0  0
  8  9  1  0  0  0  0
 10  9  1  0  0  0  0
 11 19  1  0  0  0  0
 12 13  1  0  0  0  0
 12 11  2  0  0  0  0
 13 15  1  0  0  0  0
 14 16  2  0  0  0  0
 14 13  1  0  0  0  0
 15 18  1  0  0  0  0
 16 17  1  0  0  0  0
 17 15  2  0  0  0  0
 19 18  2  0  0  0  0
 20 21  1  0  0  0  0
 20  1  1  0  0  0  0
 21 22  1  0  0  0  0
 22 25  1  0  0  0  0
 23 26  1  0  0  0  0
 23 22  1  0  0  0  0
 24 23  2  0  0  0  0
 26 27  1  0  0  0  0
 27 28  2  0  0  0  0
 29 30  1  0  0  0  0
 29 28  1  0  0  0  0
 31 29  2  0  0  0  0
 32 31  1  0  0  0  0
 32 26  2  0  0  0  0
M  END
>  <Pose>
1

>  <Score>
-8.841

$$$$
