/Users/jonathanwahrer/Desktop/Msc/3_Semester/Drug_Design_Praktikum/waehrer_HTS_screening/HTS_experiment/out/docking_results/vina_output/2qfa/1521_docked.pdbqt
 OpenBabel03162220473D

 24 27  0  0  1  0  0  0  0  0999 V2000
   42.8740   15.1360   46.5030 Cl  0  0  0  0  0  0  0  0  0  0  0  0
   43.1160   13.4380   46.8570 C   0  0  0  0  0  0  0  0  0  0  0  0
   42.6240   12.4910   45.9930 C   0  0  0  0  0  0  0  0  0  0  0  0
   41.9400   12.5330   44.8370 N   0  0  0  0  0  0  0  0  0  0  0  0
   41.6870   11.2970   44.3670 C   0  0  0  0  0  0  0  0  0  0  0  0
   42.2450   10.4320   45.2850 C   0  0  0  0  0  0  0  0  0  0  0  0
   42.8310   11.1570   46.3000 C   0  0  0  0  0  0  0  0  0  0  0  0
   43.5170   10.8260   47.4510 C   0  0  0  0  0  3  0  0  0  0  0  0
   44.0190   11.7530   48.3310 C   0  0  0  0  0  3  0  0  0  0  0  0
   43.8080   13.0920   48.0180 C   0  0  0  0  0  3  0  0  0  0  0  0
   42.0960    8.9880   44.9800 C   0  0  0  0  0  2  0  0  0  0  0  0
   42.5570    8.8490   43.6170 N   0  0  0  0  0  0  0  0  0  0  0  0
   41.7430    9.4730   42.6490 C   0  0  0  0  0  2  0  0  0  0  0  0
   41.0110   10.6710   43.2110 C   0  0  0  0  0  2  0  0  0  0  0  0
   41.6200   13.4020   44.3240 H   0  0  0  0  0  0  0  0  0  0  0  0
   43.1480    7.6150   43.3140 C   0  0  0  0  0  2  0  0  0  0  0  0
   44.6440    7.6450   43.3780 C   0  0  1  0  0  0  0  0  0  0  0  0
   45.2050    6.9140   44.5480 C   0  0  0  0  0  2  0  0  0  0  0  0
   46.1230    5.9160   44.1160 N   0  0  0  0  0  0  0  0  0  0  0  0
   46.1620    5.8990   42.6900 C   0  0  0  0  0  3  0  0  0  0  0  0
   47.0750    6.0020   44.5440 H   0  0  0  0  0  0  0  0  0  0  0  0
   45.1890    6.9090   42.1840 C   0  0  0  0  0  3  0  0  0  0  0  0
   45.1260    8.9580   43.2950 O   0  0  0  0  0  0  0  0  0  0  0  0
   44.6480    9.3740   42.5300 H   0  0  0  0  0  0  0  0  0  0  0  0
  1  2  1  0  0  0  0
  2 10  1  0  0  0  0
  3  7  1  0  0  0  0
  3  2  2  0  0  0  0
  4  3  1  0  0  0  0
  5  4  1  0  0  0  0
  5  6  2  0  0  0  0
  6  7  1  0  0  0  0
  7  8  2  0  0  0  0
  8  9  1  0  0  0  0
 10  9  2  0  0  0  0
 11  6  1  0  0  0  0
 12 11  1  0  0  0  0
 13 14  1  0  0  0  0
 13 12  1  0  0  0  0
 14  5  1  0  0  0  0
 15  4  1  0  0  0  0
 16 12  1  0  0  0  0
 17 16  1  1  0  0  0
 17 18  1  0  0  0  0
 19 21  1  0  0  0  0
 19 18  1  0  0  0  0
 20 19  1  0  0  0  0
 22 20  2  0  0  0  0
 22 17  1  0  0  0  0
 23 17  1  0  0  0  0
 24 23  1  0  0  0  0
M  END
>  <Pose>
1

>  <Score>
-6.196

$$$$
