/Users/jonathanwahrer/Desktop/Msc/3_Semester/Drug_Design_Praktikum/waehrer_HTS_screening/HTS_experiment/out/docking_results/vina_output/2qfa/1523_docked.pdbqt
 OpenBabel03162220473D

 25 28  0  0  0  0  0  0  0  0999 V2000
   43.3370    7.7090   44.5470 C   0  0  0  0  0  0  0  0  0  0  0  0
   42.8250    6.9220   45.4180 O   0  0  0  0  0  0  0  0  0  0  0  0
   42.8490    9.0080   44.3910 N   0  0  0  0  0  0  0  0  0  0  0  0
   41.7600    9.4620   45.2110 C   0  0  0  0  0  2  0  0  0  0  0  0
   42.2700   10.5460   46.1200 C   0  0  0  0  0  2  0  0  0  0  0  0
   43.0840   11.4570   45.3680 N   0  0  0  0  0  0  0  0  0  0  0  0
   42.9430   11.3740   43.9010 C   0  0  0  0  0  2  0  0  0  0  0  0
   43.3520    9.9800   43.4460 C   0  0  0  0  0  2  0  0  0  0  0  0
   43.9900   12.3990   45.8560 C   0  0  0  0  0  0  0  0  0  0  0  0
   44.5700   13.1230   44.9490 O   0  0  0  0  0  0  0  0  0  0  0  0
   44.4480    7.1320   43.7560 C   0  0  0  0  0  0  0  0  0  0  0  0
   44.8780    7.5180   42.5460 N   0  0  0  0  0  0  0  0  0  0  0  0
   45.8860    6.7580   42.1810 N   0  0  0  0  0  0  0  0  0  0  0  0
   46.1540    5.8510   43.1270 N   0  0  0  0  0  0  0  0  0  0  0  0
   45.2630    6.0820   44.1060 C   0  0  0  0  0  3  0  0  0  0  0  0
   47.1740    4.8690   43.0760 C   0  0  0  0  0  0  0  0  0  0  0  0
   48.1900    4.8680   44.0000 C   0  0  0  0  0  3  0  0  0  0  0  0
   49.1900    3.8870   43.9340 C   0  0  0  0  0  0  0  0  0  0  0  0
   50.6080    3.8720   45.2080 Br  0  0  0  0  0  0  0  0  0  0  0  0
   49.1680    2.9270   42.9570 C   0  0  0  0  0  3  0  0  0  0  0  0
   48.1560    2.9190   42.0280 C   0  0  0  0  0  3  0  0  0  0  0  0
   47.1610    3.9030   42.1040 C   0  0  0  0  0  3  0  0  0  0  0  0
   44.3930   12.7040   47.2240 C   0  0  0  0  0  3  0  0  0  0  0  0
   45.7570   12.5670   47.7350 C   0  0  0  0  0  2  0  0  0  0  0  0
   45.1010   13.9410   47.6340 C   0  0  0  0  0  2  0  0  0  0  0  0
  1  2  2  0  0  0  0
  3  1  1  0  0  0  0
  3  4  1  0  0  0  0
  4  5  1  0  0  0  0
  6  9  1  0  0  0  0
  6  5  1  0  0  0  0
  7  6  1  0  0  0  0
  8  7  1  0  0  0  0
  8  3  1  0  0  0  0
  9 23  1  0  0  0  0
 10  9  2  0  0  0  0
 11 15  2  0  0  0  0
 11  1  1  0  0  0  0
 12 11  1  0  0  0  0
 13 12  2  0  0  0  0
 13 14  1  0  0  0  0
 14 15  1  0  0  0  0
 16 14  1  0  0  0  0
 16 17  1  0  0  0  0
 18 17  2  0  0  0  0
 18 19  1  0  0  0  0
 20 18  1  0  0  0  0
 21 22  1  0  0  0  0
 21 20  2  0  0  0  0
 22 16  2  0  0  0  0
 23 25  1  0  0  0  0
 23 24  1  0  0  0  0
 25 24  1  0  0  0  0
M  END
>  <Pose>
1

>  <Score>
-7.278

$$$$
