/Users/jonathanwahrer/Desktop/Msc/3_Semester/Drug_Design_Praktikum/waehrer_HTS_screening/HTS_experiment/out/docking_results/vina_output/2qfa/1525_docked.pdbqt
 OpenBabel03162220473D

 26 29  0  0  1  0  0  0  0  0999 V2000
   41.8310   12.2290   44.5630 N   0  0  0  0  0  0  0  0  0  0  0  0
   42.8790   11.2680   44.5510 C   0  0  0  0  0  0  0  0  0  0  0  0
   43.9090   11.3600   45.2620 O   0  0  0  0  0  0  0  0  0  0  0  0
   42.4980   10.2380   43.5920 C   0  0  2  0  0  3  0  0  0  0  0  0
   41.6550   10.9980   42.5900 C   0  0  0  0  0  2  0  0  0  0  0  0
   41.0980   12.1430   43.3340 C   0  0  0  0  0  0  0  0  0  0  0  0
   40.1640   12.9100   42.9780 O   0  0  0  0  0  0  0  0  0  0  0  0
   41.8480    9.1020   44.1100 N   0  0  2  0  0  0  0  0  0  0  0  0
   42.0380    8.7920   45.4690 C   0  0  0  0  0  2  0  0  0  0  0  0
   43.1410    7.7300   45.5800 C   0  0  0  0  0  2  0  0  0  0  0  0
   43.3470    7.0990   44.2860 N   0  0  0  0  0  0  0  0  0  0  0  0
   42.2520    6.8550   43.3680 C   0  0  0  0  0  2  0  0  0  0  0  0
   41.3890    8.0900   43.2670 C   0  0  0  0  0  2  0  0  0  0  0  0
   44.6580    6.7080   43.8570 C   0  0  0  0  0  0  0  0  0  0  0  0
   45.6260    7.6270   43.6540 N   0  0  0  0  0  0  0  0  0  0  0  0
   46.8610    7.2510   43.2680 C   0  0  0  0  0  3  0  0  0  0  0  0
   47.1830    5.9140   43.0640 C   0  0  0  0  0  3  0  0  0  0  0  0
   46.1870    4.9780   43.2750 C   0  0  0  0  0  3  0  0  0  0  0  0
   44.9750    5.4160   43.6600 N   0  0  0  0  0  0  0  0  0  0  0  0
   41.5700   13.1190   45.6480 C   0  0  0  0  0  0  0  0  0  0  0  0
   40.5320   12.9430   46.5390 C   0  0  0  0  0  3  0  0  0  0  0  0
   40.3210   13.8380   47.5840 C   0  0  0  0  0  0  0  0  0  0  0  0
   38.8910   13.6040   48.8180 Br  0  0  0  0  0  0  0  0  0  0  0  0
   41.1490   14.9270   47.7540 C   0  0  0  0  0  3  0  0  0  0  0  0
   42.1880   15.1210   46.8780 C   0  0  0  0  0  3  0  0  0  0  0  0
   42.3800   14.2300   45.8580 C   0  0  0  0  0  3  0  0  0  0  0  0
  1 20  1  0  0  0  0
  2  1  1  0  0  0  0
  2  3  2  0  0  0  0
  4  5  1  6  0  0  0
  4  8  1  0  0  0  0
  4  2  1  0  0  0  0
  5  6  1  0  0  0  0
  6  1  1  0  0  0  0
  7  6  2  0  0  0  0
  8 13  1  6  0  0  0
  8  9  1  0  0  0  0
  9 10  1  0  0  0  0
 11 10  1  0  0  0  0
 12 11  1  0  0  0  0
 13 12  1  0  0  0  0
 14 11  1  0  0  0  0
 15 14  2  0  0  0  0
 16 15  1  0  0  0  0
 17 16  2  0  0  0  0
 17 18  1  0  0  0  0
 18 19  2  0  0  0  0
 19 14  1  0  0  0  0
 20 26  2  0  0  0  0
 20 21  1  0  0  0  0
 21 22  2  0  0  0  0
 22 24  1  0  0  0  0
 22 23  1  0  0  0  0
 25 24  2  0  0  0  0
 26 25  1  0  0  0  0
M  END
>  <Pose>
1

>  <Score>
-6.146

$$$$
