/Users/jonathanwahrer/Desktop/Msc/3_Semester/Drug_Design_Praktikum/waehrer_HTS_screening/HTS_experiment/out/docking_results/vina_output/2qfa/1531_docked.pdbqt
 OpenBabel03162220483D

 27 30  0  0  0  0  0  0  0  0999 V2000
   42.4510   11.0430   45.8880 N   0  0  0  0  0  0  0  0  0  0  0  0
   41.8710   11.1860   44.6550 C   0  0  0  0  0  0  0  0  0  0  0  0
   42.3230   10.1760   43.9080 N   0  0  0  0  0  0  0  0  0  0  0  0
   43.1680    9.3820   44.5860 C   0  0  0  0  0  0  0  0  0  0  0  0
   43.2470    9.9390   45.8490 C   0  0  0  0  0  3  0  0  0  0  0  0
   41.7570   10.2460   42.5650 C   0  0  0  0  0  3  0  0  0  0  0  0
   40.9590   11.5170   42.5390 C   0  0  0  0  0  3  0  0  0  0  0  0
   40.9350   12.0700   43.9180 C   0  0  0  0  0  3  0  0  0  0  0  0
   42.2250   11.8700   47.0240 C   0  0  0  0  0  3  0  0  0  0  0  0
   42.9680   13.0910   47.2310 C   0  0  0  0  0  0  0  0  0  0  0  0
   42.6330   13.7510   48.3220 O   0  0  0  0  0  1  0  0  0  0  0  0
   44.0080   13.7210   46.4630 C   0  0  0  0  0  0  0  0  0  0  0  0
   44.5530   13.2680   45.3010 C   0  0  0  0  0  3  0  0  0  0  0  0
   45.5670   13.9290   44.5930 C   0  0  0  0  0  3  0  0  0  0  0  0
   46.0690   15.1130   45.0750 C   0  0  0  0  0  0  0  0  0  0  0  0
   45.5460   15.6070   46.2480 C   0  0  0  0  0  0  0  0  0  0  0  0
   47.3340   15.9420   44.1970 Cl  0  0  0  0  0  0  0  0  0  0  0  0
   46.1690   17.1090   46.8740 Cl  0  0  0  0  0  0  0  0  0  0  0  0
   44.5650   14.9450   46.9110 C   0  0  0  0  0  3  0  0  0  0  0  0
   43.8760    8.1830   44.1380 C   0  0  0  0  0  0  0  0  0  0  0  0
   44.9850    8.1860   43.3310 C   0  0  0  0  0  3  0  0  0  0  0  0
   45.6110    6.9920   42.9440 C   0  0  0  0  0  3  0  0  0  0  0  0
   45.1470    5.7620   43.3530 C   0  0  0  0  0  0  0  0  0  0  0  0
   44.0330    5.7480   44.1630 C   0  0  0  0  0  3  0  0  0  0  0  0
   43.4190    6.9240   44.5430 C   0  0  0  0  0  3  0  0  0  0  0  0
   45.7570    4.5730   42.9780 O   0  0  0  0  0  0  0  0  0  0  0  0
   46.8390    4.5770   42.0640 C   0  0  0  0  0  1  0  0  0  0  0  0
  1  9  1  0  0  0  0
  2  1  1  0  0  0  0
  3  4  1  0  0  0  0
  3  2  1  0  0  0  0
  4  5  2  0  0  0  0
  5  1  1  0  0  0  0
  6  3  1  0  0  0  0
  7  6  2  0  0  0  0
  7  8  1  0  0  0  0
  8  2  2  0  0  0  0
  9 10  2  0  0  0  0
 10 11  1  0  0  0  0
 12 19  1  0  0  0  0
 12 10  1  0  0  0  0
 13 12  2  0  0  0  0
 14 15  2  0  0  0  0
 14 13  1  0  0  0  0
 15 16  1  0  0  0  0
 16 18  1  0  0  0  0
 16 19  2  0  0  0  0
 17 15  1  0  0  0  0
 20 25  1  0  0  0  0
 20  4  1  0  0  0  0
 21 20  2  0  0  0  0
 22 21  1  0  0  0  0
 22 23  2  0  0  0  0
 23 24  1  0  0  0  0
 24 25  2  0  0  0  0
 26 23  1  0  0  0  0
 27 26  1  0  0  0  0
M  END
>  <Pose>
1

>  <Score>
-8.459

$$$$
