/Users/jonathanwahrer/Desktop/Msc/3_Semester/Drug_Design_Praktikum/waehrer_HTS_screening/HTS_experiment/out/docking_results/vina_output/2qfa/1536_docked.pdbqt
 OpenBabel03162220483D

 31 34  0  0  1  0  0  0  0  0999 V2000
   44.2800    7.4470   44.3130 S   0  0  0  0  0  0  0  0  0  0  0  0
   45.1070    7.6540   45.5870 O   0  0  0  0  0  0  0  0  0  0  0  0
   43.4860    6.1740   44.6180 O   0  0  0  0  0  0  0  0  0  0  0  0
   45.3190    7.1690   43.0580 N   0  0  0  0  0  0  0  0  0  0  0  0
   45.2580    6.0650   42.2160 C   0  0  0  0  0  2  0  0  0  0  0  0
   46.0850    4.8800   42.6000 C   0  0  0  0  0  2  0  0  0  0  0  0
   47.2210    5.3400   43.5100 C   0  0  2  0  0  3  0  0  0  0  0  0
   47.7000    6.6460   42.8560 C   0  0  0  0  0  2  0  0  0  0  0  0
   46.6670    7.6880   43.2550 C   0  0  0  0  0  2  0  0  0  0  0  0
   48.2870    4.3560   43.6020 C   0  0  0  0  0  0  0  0  0  0  0  0
   48.4810    3.5600   42.6470 O   0  0  0  0  0  0  0  0  0  0  0  0
   49.1100    4.2710   44.7300 N   0  0  0  0  0  0  0  0  0  0  0  0
   50.2190    3.3160   44.8390 C   0  0  0  0  0  2  0  0  0  0  0  0
   48.8970    5.1130   45.8730 C   0  0  0  0  0  2  0  0  0  0  0  0
   50.7140    3.4000   46.2670 C   0  0  0  0  0  2  0  0  0  0  0  0
   51.2210    4.7290   46.5480 N   0  0  0  0  0  0  0  0  0  0  0  0
   50.1920    5.7380   46.3620 C   0  0  0  0  0  2  0  0  0  0  0  0
   51.7750    4.8030   47.8830 C   0  0  0  0  0  1  0  0  0  0  0  0
   43.2080    8.8140   44.2280 C   0  0  0  0  0  0  0  0  0  0  0  0
   43.3860    9.8820   45.1240 C   0  0  0  0  0  3  0  0  0  0  0  0
   42.5520   10.9690   45.1510 C   0  0  0  0  0  0  0  0  0  0  0  0
   41.5050   11.0360   44.2840 C   0  0  0  0  0  0  0  0  0  0  0  0
   42.7620   12.0150   46.0600 O   0  0  0  0  0  0  0  0  0  0  0  0
   41.2820   10.0240   43.3860 C   0  0  0  0  0  3  0  0  0  0  0  0
   40.6380   12.1820   44.3310 N   0  0  0  0  0  0  0  0  0  0  0  0
   42.1470    8.9290   43.3780 C   0  0  0  0  0  0  0  0  0  0  0  0
   41.8610    7.7010   42.1560 Cl  0  0  0  0  0  0  0  0  0  0  0  0
   40.8900   13.2110   45.2730 C   0  0  0  0  0  0  0  0  0  0  0  0
   39.8360   12.2430   43.6720 H   0  0  0  0  0  0  0  0  0  0  0  0
   40.4340   14.3640   45.1230 O   0  0  0  0  0  0  0  0  0  0  0  0
   41.7220   12.8680   46.4560 C   0  0  0  0  0  2  0  0  0  0  0  0
  1  3  2  0  0  0  0
  1  2  2  0  0  0  0
  4  9  1  0  0  0  0
  4  1  1  0  0  0  0
  5  6  1  0  0  0  0
  5  4  1  0  0  0  0
  6  7  1  0  0  0  0
  7 10  1  6  0  0  0
  8  9  1  0  0  0  0
  8  7  1  0  0  0  0
 10 12  1  0  0  0  0
 11 10  2  0  0  0  0
 12 13  1  0  0  0  0
 12 14  1  0  0  0  0
 13 15  1  0  0  0  0
 14 17  1  0  0  0  0
 15 16  1  0  0  0  0
 16 18  1  0  0  0  0
 17 16  1  0  0  0  0
 19  1  1  0  0  0  0
 19 20  1  0  0  0  0
 20 21  2  0  0  0  0
 21 23  1  0  0  0  0
 22 25  1  0  0  0  0
 22 21  1  0  0  0  0
 23 31  1  0  0  0  0
 24 22  2  0  0  0  0
 25 28  1  0  0  0  0
 26 24  1  0  0  0  0
 26 19  2  0  0  0  0
 27 26  1  0  0  0  0
 28 31  1  0  0  0  0
 29 25  1  0  0  0  0
 30 28  2  0  0  0  0
M  END
>  <Pose>
1

>  <Score>
-7.185

$$$$
