/Users/jonathanwahrer/Desktop/Msc/3_Semester/Drug_Design_Praktikum/waehrer_HTS_screening/HTS_experiment/out/docking_results/vina_output/2qfa/1539_docked.pdbqt
 OpenBabel03162220493D

 34 37  0  0  1  0  0  0  0  0999 V2000
   41.2800   10.9120   45.2850 C   0  0  2  0  0  3  0  0  0  0  0  0
   40.6000   10.4090   46.4860 N   0  0  0  0  0  0  0  0  0  0  0  0
   41.6300    9.8360   47.2780 C   0  0  0  0  0  0  0  0  0  0  0  0
   41.6420    9.7220   48.5150 O   0  0  0  0  0  0  0  0  0  0  0  0
   42.6700    9.4090   46.3470 C   0  0  0  0  0  0  0  0  0  0  0  0
   43.7850    8.8480   46.5630 O   0  0  0  0  0  0  0  0  0  0  0  0
   42.1870    9.7620   45.0040 C   0  0  0  0  0  0  0  0  0  0  0  0
   42.5290    9.1870   43.8680 C   0  0  0  0  0  0  0  0  0  0  0  0
   41.9930    9.6930   42.6810 O   0  0  0  0  0  1  0  0  0  0  0  0
   42.0520   12.1000   45.7250 C   0  0  0  0  0  0  0  0  0  0  0  0
   43.2690   12.4190   45.1620 C   0  0  0  0  0  3  0  0  0  0  0  0
   44.0070   13.5170   45.5520 C   0  0  0  0  0  3  0  0  0  0  0  0
   43.5420   14.3580   46.5460 C   0  0  0  0  0  0  0  0  0  0  0  0
   44.4700   15.7670   47.0580 Cl  0  0  0  0  0  0  0  0  0  0  0  0
   42.3320   14.0590   47.1210 C   0  0  0  0  0  3  0  0  0  0  0  0
   41.5980   12.9630   46.7300 C   0  0  0  0  0  3  0  0  0  0  0  0
   43.4350    8.0500   43.7960 C   0  0  0  0  0  0  0  0  0  0  0  0
   44.7840    8.1970   43.5190 C   0  0  0  0  0  3  0  0  0  0  0  0
   45.6330    7.1140   43.4250 C   0  0  0  0  0  0  0  0  0  0  0  0
   45.1590    5.8220   43.6070 C   0  0  0  0  0  0  0  0  0  0  0  0
   47.0680    7.3190   43.1280 C   0  0  0  0  0  1  0  0  0  0  0  0
   43.8200    5.6630   43.8820 C   0  0  0  0  0  3  0  0  0  0  0  0
   42.9690    6.7680   43.9740 C   0  0  0  0  0  3  0  0  0  0  0  0
   46.0030    4.7190   43.5160 O   0  0  0  0  0  0  0  0  0  0  0  0
   46.4660    4.3180   42.2570 C   0  0  0  0  0  1  0  0  0  0  0  0
   39.1710   10.4920   46.7900 C   0  0  0  0  0  2  0  0  0  0  0  0
   38.5590   11.3920   45.7420 C   0  0  0  0  0  2  0  0  0  0  0  0
   37.4080   12.1040   46.2290 N   0  0  0  0  0  4  0  0  0  0  0  0
   36.6400   12.6330   45.1500 C   0  0  0  0  0  2  0  0  0  0  0  0
   36.9010   14.0590   44.7950 C   0  0  0  0  0  2  0  0  0  0  0  0
   37.2550   14.8660   45.8420 O   0  0  0  0  0  0  0  0  0  0  0  0
   38.3150   14.3670   46.5870 C   0  0  0  0  0  2  0  0  0  0  0  0
   37.8460   13.0720   47.1950 C   0  0  0  0  0  2  0  0  0  0  0  0
   36.8110   11.3760   46.7150 H   0  0  0  0  0  0  0  0  0  0  0  0
  1 10  1  1  0  0  0
  1  2  1  0  0  0  0
  2 26  1  0  0  0  0
  2  3  1  0  0  0  0
  3  4  2  0  0  0  0
  5  6  2  0  0  0  0
  5  3  1  0  0  0  0
  7  1  1  0  0  0  0
  7  5  1  0  0  0  0
  8  7  2  0  0  0  0
  9  8  1  0  0  0  0
 10 16  1  0  0  0  0
 11 12  1  0  0  0  0
 11 10  2  0  0  0  0
 12 13  2  0  0  0  0
 13 14  1  0  0  0  0
 13 15  1  0  0  0  0
 16 15  2  0  0  0  0
 17  8  1  0  0  0  0
 17 23  1  0  0  0  0
 18 17  2  0  0  0  0
 19 18  1  0  0  0  0
 19 20  2  0  0  0  0
 20 22  1  0  0  0  0
 21 19  1  0  0  0  0
 22 23  2  0  0  0  0
 24 20  1  0  0  0  0
 25 24  1  0  0  0  0
 27 28  1  0  0  0  0
 27 26  1  0  0  0  0
 28 34  1  0  0  0  0
 28 33  1  0  0  0  0
 29 28  1  0  0  0  0
 30 29  1  0  0  0  0
 30 31  1  0  0  0  0
 31 32  1  0  0  0  0
 32 33  1  0  0  0  0
M  END
>  <Pose>
1

>  <Score>
-7.479

$$$$
