/Users/jonathanwahrer/Desktop/Msc/3_Semester/Drug_Design_Praktikum/waehrer_HTS_screening/HTS_experiment/out/docking_results/vina_output/2qfa/1553_docked.pdbqt
 OpenBabel03162220493D

 29 32  0  0  1  0  0  0  0  0999 V2000
   41.5570    8.8530   45.6620 C   0  0  1  0  0  3  0  0  0  0  0  0
   41.1190    9.9910   44.9460 N   0  0  0  0  0  4  0  0  0  0  0  0
   41.4780   10.0640   43.5600 C   0  0  2  0  0  3  0  0  0  0  0  0
   43.0020    9.9060   43.4290 C   0  0  0  0  0  2  0  0  0  0  0  0
   43.2550    8.5320   43.9020 C   0  0  0  0  0  0  0  0  0  0  0  0
   44.1200    7.5490   43.4490 C   0  0  0  0  0  0  0  0  0  0  0  0
   43.9290    6.4560   44.2650 C   0  0  0  0  0  0  0  0  0  0  0  0
   42.9910    6.7390   45.1820 N   0  0  0  0  0  0  0  0  0  0  0  0
   42.5690    8.0270   44.9620 C   0  0  0  0  0  0  0  0  0  0  0  0
   44.6840    5.3250   44.0140 C   0  0  0  0  0  3  0  0  0  0  0  0
   45.5830    5.3410   42.9770 C   0  0  0  0  0  3  0  0  0  0  0  0
   45.7720    6.4360   42.1630 C   0  0  0  0  0  3  0  0  0  0  0  0
   45.0180    7.5820   42.4040 C   0  0  0  0  0  3  0  0  0  0  0  0
   40.0500   10.0060   44.9890 H   0  0  0  0  0  0  0  0  0  0  0  0
   41.4040   10.9070   45.3740 H   0  0  0  0  0  0  0  0  0  0  0  0
   42.6110    6.1290   45.9510 H   0  0  0  0  0  0  0  0  0  0  0  0
   42.1860    9.2970   46.9590 C   0  0  0  0  0  0  0  0  0  0  0  0
   42.2180    8.4770   48.0730 C   0  0  0  0  0  0  0  0  0  0  0  0
   42.8150    8.9100   49.2610 C   0  0  0  0  0  0  0  0  0  0  0  0
   42.8450    7.7660   50.7940 Br  0  0  0  0  0  0  0  0  0  0  0  0
   43.3800   10.1520   49.3550 C   0  0  0  0  0  3  0  0  0  0  0  0
   43.3510   10.9690   48.2490 C   0  0  0  0  0  0  0  0  0  0  0  0
   42.7610   10.5470   47.0640 C   0  0  0  0  0  3  0  0  0  0  0  0
   44.1350   12.7260   48.3400 Br  0  0  0  0  0  0  0  0  0  0  0  0
   41.6810    7.2170   48.0900 O   0  0  0  0  0  0  0  0  0  0  0  0
   42.1310    6.3880   48.3660 H   0  0  0  0  0  0  0  0  0  0  0  0
   41.0330   11.3550   42.9950 C   0  0  0  0  0  0  0  0  0  0  0  0
   41.2610   11.6000   41.7820 O   0  0  0  0  0  0  0  0  0  0  0  0
   40.3780   12.2660   43.8060 O   0  0  0  0  0  1  0  0  0  0  0  0
  1 17  1  1  0  0  0
  2 14  1  0  0  0  0
  2 15  1  0  0  0  0
  2  1  1  0  0  0  0
  3 27  1  1  0  0  0
  3  2  1  0  0  0  0
  4  3  1  0  0  0  0
  4  5  1  0  0  0  0
  5  9  2  0  0  0  0
  6  5  1  0  0  0  0
  6  7  1  0  0  0  0
  7  8  1  0  0  0  0
  8 16  1  0  0  0  0
  9  8  1  0  0  0  0
  9  1  1  0  0  0  0
 10  7  2  0  0  0  0
 11 10  1  0  0  0  0
 12 13  1  0  0  0  0
 12 11  2  0  0  0  0
 13  6  2  0  0  0  0
 17 23  2  0  0  0  0
 17 18  1  0  0  0  0
 18 25  1  0  0  0  0
 18 19  2  0  0  0  0
 19 21  1  0  0  0  0
 19 20  1  0  0  0  0
 22 24  1  0  0  0  0
 22 21  2  0  0  0  0
 23 22  1  0  0  0  0
 25 26  1  0  0  0  0
 27 29  1  0  0  0  0
 28 27  2  0  0  0  0
M  END
>  <Pose>
1

>  <Score>
-6.783

$$$$
