/Users/jonathanwahrer/Desktop/Msc/3_Semester/Drug_Design_Praktikum/waehrer_HTS_screening/HTS_experiment/out/docking_results/vina_output/2qfa/1571_docked.pdbqt
 OpenBabel03162220503D

 28 31  0  0  1  0  0  0  0  0999 V2000
   45.2310    6.8870   44.2590 O   0  0  0  0  0  0  0  0  0  0  0  0
   46.1700    6.8840   43.2200 C   0  0  0  0  0  2  0  0  0  0  0  0
   47.1760    5.8040   43.3570 C   0  0  0  0  0  0  0  0  0  0  0  0
   48.0730    5.7560   44.3620 N   0  0  0  0  0  0  0  0  0  0  0  0
   48.9690    4.7720   44.4610 C   0  0  0  0  0  0  0  0  0  0  0  0
   49.0510    3.7500   43.5720 N   0  0  0  0  0  0  0  0  0  0  0  0
   49.8630    4.7940   45.5300 C   0  0  0  0  0  3  0  0  0  0  0  0
   49.9690    2.7840   43.7170 C   0  0  0  0  0  3  0  0  0  0  0  0
   48.1600    3.7690   42.5470 C   0  0  0  0  0  0  0  0  0  0  0  0
   50.8680    2.7720   44.7570 C   0  0  0  0  0  0  0  0  0  0  0  0
   52.1710    1.3620   44.9270 Br  0  0  0  0  0  0  0  0  0  0  0  0
   50.8030    3.7950   45.6680 C   0  0  0  0  0  3  0  0  0  0  0  0
   47.2290    4.7820   42.4330 C   0  0  0  0  0  3  0  0  0  0  0  0
   48.2420    2.8150   41.7240 O   0  0  0  0  0  0  0  0  0  0  0  0
   44.0310    6.2140   44.2550 C   0  0  0  0  0  0  0  0  0  0  0  0
   44.0520    5.0510   43.7590 O   0  0  0  0  0  0  0  0  0  0  0  0
   42.7760    6.8010   44.7950 C   0  0  0  0  0  2  0  0  0  0  0  0
   42.7670    8.2590   44.6670 N   0  0  0  0  0  0  0  0  0  0  0  0
   42.5120    9.0220   43.4900 C   0  0  0  0  0  0  0  0  0  0  0  0
   42.0750    8.5800   42.3980 O   0  0  0  0  0  0  0  0  0  0  0  0
   42.8540   10.4330   43.7810 C   0  0  2  0  0  3  0  0  0  0  0  0
   42.5250   10.4960   45.2550 C   0  0  1  0  0  3  0  0  0  0  0  0
   42.1570   11.4250   42.9430 C   0  0  0  0  0  2  0  0  0  0  0  0
   41.0340   10.5680   45.5230 C   0  0  0  0  0  2  0  0  0  0  0  0
   43.0260    9.1790   45.7130 C   0  0  0  0  0  0  0  0  0  0  0  0
   40.2170   10.7460   44.2710 C   0  0  0  0  0  2  0  0  0  0  0  0
   40.7960   11.8200   43.3940 C   0  0  0  0  0  2  0  0  0  0  0  0
   43.5830    8.9030   46.8210 O   0  0  0  0  0  0  0  0  0  0  0  0
  2  3  1  0  0  0  0
  2  1  1  0  0  0  0
  3  4  1  0  0  0  0
  4  5  2  0  0  0  0
  5  7  1  0  0  0  0
  6  8  1  0  0  0  0
  6  5  1  0  0  0  0
  7 12  2  0  0  0  0
  8 10  2  0  0  0  0
  9  6  1  0  0  0  0
 10 11  1  0  0  0  0
 10 12  1  0  0  0  0
 13  9  1  0  0  0  0
 13  3  2  0  0  0  0
 14  9  2  0  0  0  0
 15  1  1  0  0  0  0
 15 17  1  0  0  0  0
 16 15  2  0  0  0  0
 18 17  1  0  0  0  0
 18 25  1  0  0  0  0
 19 21  1  0  0  0  0
 19 18  1  0  0  0  0
 20 19  2  0  0  0  0
 21 23  1  6  0  0  0
 21 22  1  0  0  0  0
 22 24  1  6  0  0  0
 22 25  1  0  0  0  0
 23 27  1  0  0  0  0
 25 28  2  0  0  0  0
 26 24  1  0  0  0  0
 27 26  1  0  0  0  0
M  END
>  <Pose>
1

>  <Score>
-7.759

$$$$
