/Users/jonathanwahrer/Desktop/Msc/3_Semester/Drug_Design_Praktikum/waehrer_HTS_screening/HTS_experiment/out/docking_results/vina_output/2qfa/1576_docked.pdbqt
 OpenBabel03162220503D

 30 33  0  0  0  0  0  0  0  0999 V2000
   44.8300   15.8030   47.4970 N   0  0  0  0  0  0  0  0  0  0  0  0
   43.5120   16.3910   47.6000 C   0  0  0  0  0  2  0  0  0  0  0  0
   42.8790   15.9330   48.9120 C   0  0  0  0  0  2  0  0  0  0  0  0
   43.1850   14.5280   49.1300 N   0  0  0  0  0  0  0  0  0  0  0  0
   44.5710   14.1240   49.1700 C   0  0  0  0  0  2  0  0  0  0  0  0
   45.4140   15.3040   48.7520 C   0  0  0  0  0  2  0  0  0  0  0  0
   42.1590   13.5590   49.3040 C   0  0  0  0  0  0  0  0  0  0  0  0
   40.9510   13.9500   49.2680 O   0  0  0  0  0  0  0  0  0  0  0  0
   42.4070   12.1290   49.5250 C   0  0  0  0  0  2  0  0  0  0  0  0
   41.8340   11.2720   48.4890 N   0  0  0  0  0  0  0  0  0  0  0  0
   41.8060   11.4440   47.1820 N   0  0  0  0  0  0  0  0  0  0  0  0
   41.1940   10.4470   46.5400 C   0  0  0  0  0  0  0  0  0  0  0  0
   40.7910    9.5510   47.5130 C   0  0  0  0  0  3  0  0  0  0  0  0
   41.2010   10.0880   48.7130 C   0  0  0  0  0  0  0  0  0  0  0  0
   40.9810    9.4650   50.0350 C   0  0  0  0  0  1  0  0  0  0  0  0
   40.9910   10.3250   45.0850 C   0  0  0  0  0  0  0  0  0  0  0  0
   39.9300   10.7240   44.5640 O   0  0  0  0  0  0  0  0  0  0  0  0
   42.0150    9.7530   44.2990 N   0  0  0  0  0  0  0  0  0  0  0  0
   43.2600    9.2730   44.8290 C   0  0  0  0  0  2  0  0  0  0  0  0
   41.8260    9.6270   42.8510 C   0  0  0  0  0  2  0  0  0  0  0  0
   43.9980    8.6060   43.6610 C   0  0  0  0  0  2  0  0  0  0  0  0
   43.2040    7.6640   43.0450 O   0  0  0  0  0  0  0  0  0  0  0  0
   42.0560    8.1750   42.4860 C   0  0  0  0  0  2  0  0  0  0  0  0
   45.5780   15.6700   46.3260 C   0  0  0  0  0  0  0  0  0  0  0  0
   45.4370   14.6430   45.4180 C   0  0  0  0  0  0  0  0  0  0  0  0
   44.2630   13.4150   45.7260 Cl  0  0  0  0  0  0  0  0  0  0  0  0
   46.1970   14.5490   44.2680 C   0  0  0  0  0  3  0  0  0  0  0  0
   47.1320   15.4990   43.9970 C   0  0  0  0  0  3  0  0  0  0  0  0
   47.3070   16.5390   44.8710 C   0  0  0  0  0  3  0  0  0  0  0  0
   46.5440   16.6260   46.0180 C   0  0  0  0  0  3  0  0  0  0  0  0
  1  2  1  0  0  0  0
  1  6  1  0  0  0  0
  2  3  1  0  0  0  0
  3  4  1  0  0  0  0
  4  5  1  0  0  0  0
  4  7  1  0  0  0  0
  6  5  1  0  0  0  0
  7  9  1  0  0  0  0
  8  7  2  0  0  0  0
 10 14  1  0  0  0  0
 10  9  1  0  0  0  0
 11 10  1  0  0  0  0
 12 11  2  0  0  0  0
 12 13  1  0  0  0  0
 13 14  2  0  0  0  0
 14 15  1  0  0  0  0
 16 12  1  0  0  0  0
 17 16  2  0  0  0  0
 18 19  1  0  0  0  0
 18 16  1  0  0  0  0
 20 18  1  0  0  0  0
 21 19  1  0  0  0  0
 22 21  1  0  0  0  0
 23 20  1  0  0  0  0
 23 22  1  0  0  0  0
 24  1  1  0  0  0  0
 25 26  1  0  0  0  0
 25 24  2  0  0  0  0
 27 25  1  0  0  0  0
 28 27  2  0  0  0  0
 28 29  1  0  0  0  0
 29 30  2  0  0  0  0
 30 24  1  0  0  0  0
M  END
>  <Pose>
1

>  <Score>
-6.536

$$$$
