/Users/jonathanwahrer/Desktop/Msc/3_Semester/Drug_Design_Praktikum/waehrer_HTS_screening/HTS_experiment/out/docking_results/vina_output/2qfa/1581_docked.pdbqt
 OpenBabel03162220503D

 27 30  0  0  1  0  0  0  0  0999 V2000
   45.6230    6.3770   42.7360 N   0  0  0  0  0  0  0  0  0  0  0  0
   46.4950    7.2420   43.4140 C   0  0  0  0  0  2  0  0  0  0  0  0
   47.5790    6.5880   44.2040 C   0  0  0  0  0  2  0  0  0  0  0  0
   47.9550    5.2940   43.6530 N   0  0  0  0  0  0  0  0  0  0  0  0
   48.9310    4.5040   44.0990 N   0  0  0  0  0  0  0  0  0  0  0  0
   48.9830    3.4010   43.3470 C   0  0  0  0  0  0  0  0  0  0  0  0
   47.9980    3.5160   42.3980 C   0  0  0  0  0  3  0  0  0  0  0  0
   47.3410    4.7340   42.6000 C   0  0  0  0  0  0  0  0  0  0  0  0
   46.2120    5.3940   41.8980 C   0  0  0  0  0  2  0  0  0  0  0  0
   44.3910    6.0620   43.3300 C   0  0  0  0  0  2  0  0  0  0  0  0
   43.5800    7.1950   43.7960 C   0  0  0  0  0  0  0  0  0  0  0  0
   43.0160    8.1070   42.9840 N   0  0  0  0  0  0  0  0  0  0  0  0
   42.2800    9.1340   43.4480 C   0  0  0  0  0  0  0  0  0  0  0  0
   42.0520    9.3260   44.7570 N   0  0  0  0  0  0  0  0  0  0  0  0
   41.7490   10.0120   42.4980 C   0  0  0  0  0  3  0  0  0  0  0  0
   41.3080   10.3640   45.2160 C   0  0  0  0  0  3  0  0  0  0  0  0
   42.5930    8.4430   45.6200 C   0  0  0  0  0  0  0  0  0  0  0  0
   40.7830   11.2320   44.2850 C   0  0  0  0  0  0  0  0  0  0  0  0
   39.8180   12.5770   44.8750 Cl  0  0  0  0  0  0  0  0  0  0  0  0
   40.9920   11.0720   42.9310 C   0  0  0  0  0  3  0  0  0  0  0  0
   43.3460    7.3920   45.1460 C   0  0  0  0  0  3  0  0  0  0  0  0
   42.4030    8.5840   46.8680 O   0  0  0  0  0  0  0  0  0  0  0  0
   49.9380    2.2620   43.5160 C   0  0  1  0  0  3  0  0  0  0  0  0
   49.5490    1.2450   42.6290 O   0  0  0  0  0  0  0  0  0  0  0  0
   50.3280    0.6570   42.4040 H   0  0  0  0  0  0  0  0  0  0  0  0
   51.3370    2.6840   43.0740 C   0  0  0  0  0  2  0  0  0  0  0  0
   51.8980    1.6020   42.1640 C   0  0  0  0  0  1  0  0  0  0  0  0
  1 10  1  0  0  0  0
  1  2  1  0  0  0  0
  2  3  1  0  0  0  0
  4  5  1  0  0  0  0
  4  3  1  0  0  0  0
  6 23  1  0  0  0  0
  6  5  2  0  0  0  0
  7  8  2  0  0  0  0
  7  6  1  0  0  0  0
  8  4  1  0  0  0  0
  9  8  1  0  0  0  0
  9  1  1  0  0  0  0
 10 11  1  0  0  0  0
 11 21  2  0  0  0  0
 12 13  2  0  0  0  0
 12 11  1  0  0  0  0
 13 14  1  0  0  0  0
 14 16  1  0  0  0  0
 14 17  1  0  0  0  0
 15 20  2  0  0  0  0
 15 13  1  0  0  0  0
 17 22  2  0  0  0  0
 18 19  1  0  0  0  0
 18 16  2  0  0  0  0
 20 18  1  0  0  0  0
 21 17  1  0  0  0  0
 23 26  1  6  0  0  0
 24 23  1  0  0  0  0
 25 24  1  0  0  0  0
 27 26  1  0  0  0  0
M  END
>  <Pose>
1

>  <Score>
-7.453

$$$$
