/Users/jonathanwahrer/Desktop/Msc/3_Semester/Drug_Design_Praktikum/waehrer_HTS_screening/HTS_experiment/out/docking_results/vina_output/2qfa/1586_docked.pdbqt
 OpenBabel03162220503D

 29 32  0  0  1  0  0  0  0  0999 V2000
   41.9400   13.2790   45.5230 C   0  0  0  0  0  0  0  0  0  0  0  0
   40.8410   13.9330   45.1800 O   0  0  0  0  0  0  0  0  0  0  0  0
   41.9090   11.8900   45.3160 N   0  0  0  0  0  0  0  0  0  0  0  0
   42.9650   10.9990   45.6400 C   0  0  0  0  0  2  0  0  0  0  0  0
   42.4650    9.5540   45.4750 C   0  0  1  0  0  3  0  0  0  0  0  0
   42.0410    9.4470   44.1030 N   0  0  0  0  0  0  0  0  0  0  0  0
   40.9880   10.3050   43.6720 C   0  0  0  0  0  2  0  0  0  0  0  0
   40.6850   11.3670   44.7090 C   0  0  0  0  0  2  0  0  0  0  0  0
   42.6490    8.5310   43.2280 C   0  0  0  0  0  0  0  0  0  0  0  0
   42.0380    8.1840   42.2010 O   0  0  0  0  0  0  0  0  0  0  0  0
   43.9920    8.0120   43.5580 C   0  0  1  0  0  3  0  0  0  0  0  0
   43.9600    7.6240   44.9380 N   0  0  0  0  0  0  0  0  0  0  0  0
   43.4630    8.5630   45.8740 C   0  0  0  0  0  0  0  0  0  0  0  0
   43.8630    8.5750   47.0810 O   0  0  0  0  0  0  0  0  0  0  0  0
   44.2890    6.6840   45.2690 H   0  0  0  0  0  0  0  0  0  0  0  0
   42.9540   14.1500   46.0500 C   0  0  0  0  0  0  0  0  0  0  0  0
   44.3000   14.1250   45.7810 C   0  0  0  0  0  3  0  0  0  0  0  0
   45.2320   14.9870   46.3610 C   0  0  0  0  0  3  0  0  0  0  0  0
   44.8140   15.9230   47.2510 C   0  0  0  0  0  0  0  0  0  0  0  0
   45.9640   17.0350   48.0100 Cl  0  0  0  0  0  0  0  0  0  0  0  0
   43.4820   16.0020   47.5630 C   0  0  0  0  0  3  0  0  0  0  0  0
   42.5800   15.1390   46.9760 C   0  0  0  0  0  3  0  0  0  0  0  0
   44.4860    6.9750   42.6230 C   0  0  0  0  0  2  0  0  0  0  0  0
   45.7180    6.3650   43.1500 C   0  0  0  0  0  0  0  0  0  0  0  0
   46.7770    6.9640   43.6990 N   0  0  0  0  0  0  0  0  0  0  0  0
   47.6970    6.0180   44.0500 C   0  0  0  0  0  3  0  0  0  0  0  0
   47.2200    4.8160   43.7210 N   0  0  0  0  0  0  0  0  0  0  0  0
   46.0150    5.0020   43.1710 C   0  0  0  0  0  3  0  0  0  0  0  0
   47.6860    3.9160   43.8610 H   0  0  0  0  0  0  0  0  0  0  0  0
  1 16  1  0  0  0  0
  2  1  2  0  0  0  0
  3  1  1  0  0  0  0
  3  4  1  0  0  0  0
  5  4  1  6  0  0  0
  5 13  1  0  0  0  0
  6  5  1  0  0  0  0
  7  6  1  0  0  0  0
  7  8  1  0  0  0  0
  8  3  1  0  0  0  0
  9 11  1  0  0  0  0
  9  6  1  0  0  0  0
 10  9  2  0  0  0  0
 11 23  1  6  0  0  0
 11 12  1  0  0  0  0
 12 15  1  0  0  0  0
 12 13  1  0  0  0  0
 13 14  2  0  0  0  0
 16 22  1  0  0  0  0
 17 16  2  0  0  0  0
 17 18  1  0  0  0  0
 18 19  2  0  0  0  0
 19 21  1  0  0  0  0
 19 20  1  0  0  0  0
 22 21  2  0  0  0  0
 23 24  1  0  0  0  0
 24 28  2  0  0  0  0
 24 25  1  0  0  0  0
 25 26  2  0  0  0  0
 27 29  1  0  0  0  0
 27 26  1  0  0  0  0
 28 27  1  0  0  0  0
M  END
>  <Pose>
1

>  <Score>
-8.203

$$$$
