/Users/jonathanwahrer/Desktop/Msc/3_Semester/Drug_Design_Praktikum/waehrer_HTS_screening/HTS_experiment/out/docking_results/vina_output/2qfa/1599_docked.pdbqt
 OpenBabel03162220513D

 30 33  0  0  1  0  0  0  0  0999 V2000
   40.3850   12.7950   45.6750 C   0  0  0  0  0  0  0  0  0  0  0  0
   41.1870   13.6410   46.2050 O   0  0  0  0  0  0  0  0  0  0  0  0
   39.3620   12.1920   46.4190 N   0  0  0  0  0  0  0  0  0  0  0  0
   38.4530   11.2420   45.8630 C   0  0  0  0  0  2  0  0  0  0  0  0
   38.0710   10.1640   46.8370 C   0  0  0  0  0  2  0  0  0  0  0  0
   39.0470    9.9620   47.9760 C   0  0  1  0  0  0  0  0  0  0  0  0
   38.3220    9.1070   48.9060 N   0  0  0  0  0  0  0  0  0  0  0  0
   39.0720    8.5790   49.9810 C   0  0  0  0  0  2  0  0  0  0  0  0
   40.5520    8.5850   49.8660 C   0  0  0  0  0  2  0  0  0  0  0  0
   40.9970    8.5340   48.4380 C   0  0  0  0  0  0  0  0  0  0  0  0
   42.0280    7.9300   47.8490 N   0  0  0  0  0  0  0  0  0  0  0  0
   41.9300    8.2310   46.5370 C   0  0  0  0  0  3  0  0  0  0  0  0
   40.8510    9.0130   46.3150 N   0  0  0  0  0  0  0  0  0  0  0  0
   40.2420    9.2180   47.5190 C   0  0  0  0  0  0  0  0  0  0  0  0
   39.4660   11.2410   48.6550 C   0  0  0  0  0  2  0  0  0  0  0  0
   39.1720   12.4840   47.8350 C   0  0  0  0  0  2  0  0  0  0  0  0
   37.5270    9.7210   49.2460 H   0  0  0  0  0  0  0  0  0  0  0  0
   40.5530    9.3830   45.3970 H   0  0  0  0  0  0  0  0  0  0  0  0
   40.6430   12.5190   44.2160 C   0  0  0  0  0  2  0  0  0  0  0  0
   41.8880   11.9410   44.0190 N   0  0  0  0  0  0  0  0  0  0  0  0
   43.0760   11.3900   43.8320 C   0  0  0  0  0  0  0  0  0  0  0  0
   44.2310   11.9410   43.8930 O   0  0  0  0  0  0  0  0  0  0  0  0
   42.4790   13.1710   44.2490 H   0  0  0  0  0  0  0  0  0  0  0  0
   43.1350    9.9230   43.4980 C   0  0  0  0  0  0  0  0  0  0  0  0
   44.2710    9.1870   43.7090 C   0  0  0  0  0  3  0  0  0  0  0  0
   44.3230    7.8440   43.3680 C   0  0  0  0  0  0  0  0  0  0  0  0
   45.9060    6.8660   43.6820 Br  0  0  0  0  0  0  0  0  0  0  0  0
   43.2000    7.2850   42.8110 C   0  0  0  0  0  3  0  0  0  0  0  0
   42.0550    8.0320   42.6010 C   0  0  0  0  0  3  0  0  0  0  0  0
   42.0100    9.3850   42.9490 C   0  0  0  0  0  3  0  0  0  0  0  0
  1  2  2  0  0  0  0
  1  3  1  0  0  0  0
  3 16  1  0  0  0  0
  4  3  1  0  0  0  0
  4  5  1  0  0  0  0
  6  5  1  6  0  0  0
  6 15  1  0  0  0  0
  6  7  1  0  0  0  0
  7 17  1  0  0  0  0
  7  8  1  0  0  0  0
  9  8  1  0  0  0  0
 10  9  1  0  0  0  0
 11 10  1  0  0  0  0
 12 11  2  0  0  0  0
 13 12  1  0  0  0  0
 13 14  1  0  0  0  0
 14  6  1  0  0  0  0
 14 10  2  0  0  0  0
 16 15  1  0  0  0  0
 18 13  1  0  0  0  0
 19  1  1  0  0  0  0
 20 19  1  0  0  0  0
 20 23  1  0  0  0  0
 21 22  2  0  0  0  0
 21 20  1  0  0  0  0
 24 25  1  0  0  0  0
 24 21  1  0  0  0  0
 26 27  1  0  0  0  0
 26 25  2  0  0  0  0
 28 26  1  0  0  0  0
 29 28  2  0  0  0  0
 29 30  1  0  0  0  0
 30 24  2  0  0  0  0
M  END
>  <Pose>
1

>  <Score>
-6.939

$$$$
