/Users/jonathanwahrer/Desktop/Msc/3_Semester/Drug_Design_Praktikum/waehrer_HTS_screening/HTS_experiment/out/docking_results/vina_output/2qfa/1612_docked.pdbqt
 OpenBabel03162220513D

 31 34  0  0  0  0  0  0  0  0999 V2000
   42.6580   12.0730   45.1390 N   0  0  0  0  0  0  0  0  0  0  0  0
   43.5800   12.8860   45.6950 C   0  0  0  0  0  0  0  0  0  0  0  0
   43.2300   13.0480   47.0140 C   0  0  0  0  0  0  0  0  0  0  0  0
   42.1330   12.3460   47.2170 N   0  0  0  0  0  0  0  0  0  0  0  0
   41.7600   11.7310   46.0680 C   0  0  0  0  0  0  0  0  0  0  0  0
   44.0230   13.8370   47.7920 N   0  0  0  0  0  0  0  0  0  0  0  0
   45.1120   14.4420   47.3010 C   0  0  0  0  0  0  0  0  0  0  0  0
   45.8150   15.1630   48.0630 O   0  0  0  0  0  0  0  0  0  0  0  0
   45.4880   14.3110   46.0230 N   0  0  0  0  0  0  0  0  0  0  0  0
   44.7190   13.5320   45.2250 C   0  0  0  0  0  0  0  0  0  0  0  0
   45.0670   13.4050   44.0310 O   0  0  0  0  0  0  0  0  0  0  0  0
   43.6710   14.0170   49.1980 C   0  0  0  0  0  1  0  0  0  0  0  0
   46.3450   14.8000   45.6810 H   0  0  0  0  0  0  0  0  0  0  0  0
   40.6450   10.8330   45.9540 N   0  0  0  0  0  0  0  0  0  0  0  0
   40.8030    9.4690   46.4980 C   0  0  0  0  0  2  0  0  0  0  0  0
   39.7470    9.1460   47.5050 C   0  0  0  0  0  2  0  0  0  0  0  0
   38.5720    9.9630   47.3130 N   0  0  0  0  0  0  0  0  0  0  0  0
   38.2470   10.3520   45.9560 C   0  0  0  0  0  2  0  0  0  0  0  0
   37.7680   10.3570   48.4160 C   0  0  0  0  0  0  0  0  0  0  0  0
   39.3940   11.1550   45.3680 C   0  0  0  0  0  2  0  0  0  0  0  0
   38.0600    9.9880   49.5750 O   0  0  0  0  0  0  0  0  0  0  0  0
   36.5700   11.2090   48.2310 C   0  0  0  0  0  2  0  0  0  0  0  0
   35.6760   11.0020   49.4510 C   0  0  0  0  0  1  0  0  0  0  0  0
   42.7260   11.6390   43.7810 C   0  0  0  0  0  2  0  0  0  0  0  0
   42.8650   10.1780   43.5720 C   0  0  0  0  0  0  0  0  0  0  0  0
   43.9500    9.4800   44.0220 C   0  0  0  0  0  3  0  0  0  0  0  0
   44.0270    8.1210   43.7470 C   0  0  0  0  0  0  0  0  0  0  0  0
   45.4370    7.2470   44.3440 Cl  0  0  0  0  0  0  0  0  0  0  0  0
   43.0610    7.4370   43.0420 C   0  0  0  0  0  3  0  0  0  0  0  0
   41.9690    8.1590   42.5930 C   0  0  0  0  0  3  0  0  0  0  0  0
   41.8670    9.4970   42.8490 C   0  0  0  0  0  3  0  0  0  0  0  0
  1  2  1  0  0  0  0
  1  5  1  0  0  0  0
  2  3  2  0  0  0  0
  3  4  1  0  0  0  0
  3  6  1  0  0  0  0
  5  4  2  0  0  0  0
  6 12  1  0  0  0  0
  7  6  1  0  0  0  0
  7  8  2  0  0  0  0
  9  7  1  0  0  0  0
 10  2  1  0  0  0  0
 10  9  1  0  0  0  0
 11 10  2  0  0  0  0
 13  9  1  0  0  0  0
 14  5  1  0  0  0  0
 14 15  1  0  0  0  0
 15 16  1  0  0  0  0
 17 16  1  0  0  0  0
 17 19  1  0  0  0  0
 18 17  1  0  0  0  0
 19 21  2  0  0  0  0
 20 14  1  0  0  0  0
 20 18  1  0  0  0  0
 22 19  1  0  0  0  0
 22 23  1  0  0  0  0
 24  1  1  0  0  0  0
 25 24  1  0  0  0  0
 25 26  1  0  0  0  0
 27 26  2  0  0  0  0
 27 28  1  0  0  0  0
 29 27  1  0  0  0  0
 30 31  1  0  0  0  0
 30 29  2  0  0  0  0
 31 25  2  0  0  0  0
M  END
>  <Pose>
1

>  <Score>
-6.844

$$$$
