/Users/jonathanwahrer/Desktop/Msc/3_Semester/Drug_Design_Praktikum/waehrer_HTS_screening/HTS_experiment/out/docking_results/vina_output/2qfa/1622_docked.pdbqt
 OpenBabel03162220523D

 28 31  0  0  1  0  0  0  0  0999 V2000
   41.4310   11.7740   46.1100 C   0  0  0  0  0  0  0  0  0  0  0  0
   40.4930   11.3910   46.8560 O   0  0  0  0  0  0  0  0  0  0  0  0
   42.2430   12.8960   46.4270 N   0  0  0  0  0  0  0  0  0  0  0  0
   41.9800   13.6210   47.6510 C   0  0  0  0  0  2  0  0  0  0  0  0
   43.2870   14.2660   48.0710 C   0  0  0  0  0  2  0  0  0  0  0  0
   44.4800   13.3950   47.7410 C   0  0  1  0  0  0  0  0  0  0  0  0
   45.6320   13.9930   48.3760 N   0  0  0  0  0  0  0  0  0  0  0  0
   45.7110   13.5050   49.7070 C   0  0  0  0  0  0  0  0  0  0  0  0
   46.3360   14.0130   50.6910 O   0  0  0  0  0  0  0  0  0  0  0  0
   44.9360   12.3030   49.7300 N   0  0  0  0  0  0  0  0  0  0  0  0
   44.4010   12.0790   48.4250 C   0  0  0  0  0  0  0  0  0  0  0  0
   43.9640   10.9800   47.9880 O   0  0  0  0  0  0  0  0  0  0  0  0
   44.6990   11.4160   50.8720 C   0  0  0  0  0  1  0  0  0  0  0  0
   44.6630   13.2170   46.2630 C   0  0  0  0  0  2  0  0  0  0  0  0
   43.3290   13.3670   45.5980 C   0  0  0  0  0  2  0  0  0  0  0  0
   46.2770   14.6630   47.9160 H   0  0  0  0  0  0  0  0  0  0  0  0
   41.6410   10.9930   44.8870 C   0  0  0  0  0  0  0  0  0  0  0  0
   41.1040   11.4120   43.6900 C   0  0  0  0  0  0  0  0  0  0  0  0
   40.1590   12.9080   43.6620 Cl  0  0  0  0  0  0  0  0  0  0  0  0
   41.2840   10.6980   42.5230 C   0  0  0  0  0  3  0  0  0  0  0  0
   42.0260    9.5430   42.6010 C   0  0  0  0  0  3  0  0  0  0  0  0
   42.5850    9.0840   43.7820 C   0  0  0  0  0  0  0  0  0  0  0  0
   42.3780    9.8300   44.9230 C   0  0  0  0  0  3  0  0  0  0  0  0
   43.3450    7.8760   43.7940 N   0  0  0  0  0  0  0  0  0  0  0  0
   42.9990    6.6960   44.2470 N   0  0  0  0  0  0  0  0  0  0  0  0
   44.0260    5.8150   44.0640 C   0  0  0  0  0  3  0  0  0  0  0  0
   45.0650    6.4910   43.4630 C   0  0  0  0  0  3  0  0  0  0  0  0
   44.5960    7.7990   43.3070 C   0  0  0  0  0  3  0  0  0  0  0  0
  1  3  1  0  0  0  0
  1  2  2  0  0  0  0
  3  4  1  0  0  0  0
  4  5  1  0  0  0  0
  6 14  1  6  0  0  0
  6  5  1  0  0  0  0
  6  7  1  0  0  0  0
  6 11  1  0  0  0  0
  7  8  1  0  0  0  0
  8 10  1  0  0  0  0
  8  9  2  0  0  0  0
 10 13  1  0  0  0  0
 11 10  1  0  0  0  0
 12 11  2  0  0  0  0
 15 14  1  0  0  0  0
 15  3  1  0  0  0  0
 16  7  1  0  0  0  0
 17 23  1  0  0  0  0
 17  1  1  0  0  0  0
 18 17  2  0  0  0  0
 19 18  1  0  0  0  0
 20 21  2  0  0  0  0
 20 18  1  0  0  0  0
 21 22  1  0  0  0  0
 22 24  1  0  0  0  0
 22 23  2  0  0  0  0
 24 25  1  0  0  0  0
 26 25  2  0  0  0  0
 27 26  1  0  0  0  0
 28 27  2  0  0  0  0
 28 24  1  0  0  0  0
M  END
>  <Pose>
1

>  <Score>
-6.541

$$$$
