/Users/jonathanwahrer/Desktop/Msc/3_Semester/Drug_Design_Praktikum/waehrer_HTS_screening/HTS_experiment/out/docking_results/vina_output/2qfa/1630_docked.pdbqt
 OpenBabel03162220533D

 39 43  0  0  1  0  0  0  0  0999 V2000
   48.0680   16.4120   44.4170 Cl  0  0  0  0  0  0  0  0  0  0  0  0
   46.6050   15.8770   45.2580 C   0  0  0  0  0  0  0  0  0  0  0  0
   46.1760   16.5400   46.3810 C   0  0  0  0  0  0  0  0  0  0  0  0
   45.0280   16.1220   47.0430 C   0  0  0  0  0  0  0  0  0  0  0  0
   44.2720   15.0570   46.6340 C   0  0  0  0  0  0  0  0  0  0  0  0
   44.7340   14.3990   45.4830 C   0  0  0  0  0  3  0  0  0  0  0  0
   45.8710   14.8050   44.8190 C   0  0  0  0  0  3  0  0  0  0  0  0
   43.1480   14.8850   47.5380 C   0  0  1  0  0  0  0  0  0  0  0  0
   41.9210   15.0880   46.7720 N   0  0  0  0  0  0  0  0  0  0  0  0
   41.4310   13.7500   46.5820 C   0  0  1  0  0  3  0  0  0  0  0  0
   41.6310   13.1450   47.9530 C   0  0  2  0  0  3  0  0  0  0  0  0
   43.0570   13.5690   48.2300 C   0  0  1  0  0  3  0  0  0  0  0  0
   43.8680   12.4850   47.7120 C   0  0  0  0  0  0  0  0  0  0  0  0
   45.0950   12.5160   47.4720 O   0  0  0  0  0  0  0  0  0  0  0  0
   43.0440   11.3460   47.5070 N   0  0  0  0  0  0  0  0  0  0  0  0
   41.7050   11.6630   47.8910 C   0  0  0  0  0  0  0  0  0  0  0  0
   40.7410   10.9020   48.1400 O   0  0  0  0  0  0  0  0  0  0  0  0
   43.2910   15.9660   48.5420 C   0  0  0  0  0  0  0  0  0  0  0  0
   42.5360   16.2170   49.5270 O   0  0  0  0  0  0  0  0  0  0  0  0
   44.4510   16.6960   48.2090 N   0  0  0  0  0  0  0  0  0  0  0  0
   46.9650   17.7060   46.8670 C   0  0  0  0  0  1  0  0  0  0  0  0
   42.1390   15.6000   45.8910 H   0  0  0  0  0  0  0  0  0  0  0  0
   44.8130   17.5280   48.7470 H   0  0  0  0  0  0  0  0  0  0  0  0
   39.9770   13.7470   46.1660 C   0  0  0  0  0  2  0  0  0  0  0  0
   39.8910   12.9440   44.8850 C   0  0  0  0  0  2  0  0  0  0  0  0
   39.1990   11.6480   45.0930 C   0  0  0  0  0  0  0  0  0  0  0  0
   38.2430   11.5800   45.9170 O   0  0  0  0  0  0  0  0  0  0  0  0
   39.6590   10.5340   44.3400 N   0  0  0  0  0  0  0  0  0  0  0  0
   39.9670   10.6960   43.3670 H   0  0  0  0  0  0  0  0  0  0  0  0
   39.6590    9.6000   44.8210 H   0  0  0  0  0  0  0  0  0  0  0  0
   43.4130   10.0370   47.0020 C   0  0  0  0  0  2  0  0  0  0  0  0
   43.2260    9.9290   45.5440 C   0  0  0  0  0  0  0  0  0  0  0  0
   42.9980    8.6780   45.0140 C   0  0  0  0  0  0  0  0  0  0  0  0
   42.8220    8.5840   43.6400 C   0  0  0  0  0  3  0  0  0  0  0  0
   42.8720    9.6870   42.8350 C   0  0  0  0  0  3  0  0  0  0  0  0
   43.1010   10.9180   43.4020 C   0  0  0  0  0  3  0  0  0  0  0  0
   43.2830   11.0770   44.7580 C   0  0  0  0  0  3  0  0  0  0  0  0
   42.9510    7.5790   45.8450 O   0  0  0  0  0  0  0  0  0  0  0  0
   41.7930    6.8860   46.1890 C   0  0  0  0  0  1  0  0  0  0  0  0
  1  2  1  0  0  0  0
  2  3  1  0  0  0  0
  3 21  1  0  0  0  0
  3  4  2  0  0  0  0
  4 20  1  0  0  0  0
  5  4  1  0  0  0  0
  6  5  2  0  0  0  0
  7  2  2  0  0  0  0
  7  6  1  0  0  0  0
  8  5  1  6  0  0  0
  8 12  1  0  0  0  0
  8 18  1  0  0  0  0
  9  8  1  0  0  0  0
 10 24  1  1  0  0  0
 10  9  1  0  0  0  0
 10 11  1  0  0  0  0
 11 16  1  6  0  0  0
 11 12  1  0  0  0  0
 12 13  1  6  0  0  0
 14 13  2  0  0  0  0
 15 13  1  0  0  0  0
 15 16  1  0  0  0  0
 16 17  2  0  0  0  0
 18 19  2  0  0  0  0
 20 18  1  0  0  0  0
 20 23  1  0  0  0  0
 22  9  1  0  0  0  0
 25 26  1  0  0  0  0
 25 24  1  0  0  0  0
 26 27  2  0  0  0  0
 28 30  1  0  0  0  0
 28 26  1  0  0  0  0
 29 28  1  0  0  0  0
 31 15  1  0  0  0  0
 32 31  1  0  0  0  0
 33 32  1  0  0  0  0
 33 38  1  0  0  0  0
 34 33  2  0  0  0  0
 35 36  2  0  0  0  0
 35 34  1  0  0  0  0
 36 37  1  0  0  0  0
 37 32  2  0  0  0  0
 38 39  1  0  0  0  0
M  END
>  <Pose>
1

>  <Score>
-6.691

$$$$
