/Users/jonathanwahrer/Desktop/Msc/3_Semester/Drug_Design_Praktikum/waehrer_HTS_screening/HTS_experiment/out/docking_results/vina_output/2qfa/1631_docked.pdbqt
 OpenBabel03162220533D

 29 32  0  0  1  0  0  0  0  0999 V2000
   42.1550   10.2340   44.9030 C   0  0  1  0  0  3  0  0  0  0  0  0
   42.5010    8.8730   45.2010 N   0  0  0  0  0  0  0  0  0  0  0  0
   41.7680    8.4060   46.3290 C   0  0  0  0  0  0  0  0  0  0  0  0
   42.0090    7.3800   47.0300 O   0  0  0  0  0  0  0  0  0  0  0  0
   40.6480    9.3430   46.5540 C   0  0  0  0  0  0  0  0  0  0  0  0
   39.7980    9.2420   47.4670 O   0  0  0  0  0  0  0  0  0  0  0  0
   40.7830   10.3480   45.5080 C   0  0  0  0  0  0  0  0  0  0  0  0
   39.8450   11.2200   45.2030 C   0  0  0  0  0  0  0  0  0  0  0  0
   40.1500   12.1630   44.2000 O   0  0  0  0  0  1  0  0  0  0  0  0
   43.0950   11.2310   45.4740 C   0  0  0  0  0  0  0  0  0  0  0  0
   43.8480   12.0710   44.6650 C   0  0  0  0  0  3  0  0  0  0  0  0
   44.7280   13.0080   45.1530 C   0  0  0  0  0  0  0  0  0  0  0  0
   45.6590   14.0530   44.1030 Cl  0  0  0  0  0  0  0  0  0  0  0  0
   44.8640   13.1110   46.5200 C   0  0  0  0  0  3  0  0  0  0  0  0
   44.1380   12.2980   47.3650 C   0  0  0  0  0  3  0  0  0  0  0  0
   43.2630   11.3680   46.8490 C   0  0  0  0  0  3  0  0  0  0  0  0
   38.5290   11.2650   45.8250 C   0  0  0  0  0  0  0  0  0  0  0  0
   38.3070   12.1230   46.9120 C   0  0  0  0  0  3  0  0  0  0  0  0
   37.0650   12.2090   47.5010 C   0  0  0  0  0  3  0  0  0  0  0  0
   35.9880   11.4680   47.0610 C   0  0  0  0  0  3  0  0  0  0  0  0
   36.1840   10.6200   45.9950 C   0  0  0  0  0  3  0  0  0  0  0  0
   37.4430   10.5350   45.4000 C   0  0  0  0  0  3  0  0  0  0  0  0
   43.4370    8.0930   44.4900 C   0  0  1  0  0  3  0  0  0  0  0  0
   43.3310    6.7470   44.6460 N   0  0  0  0  0  0  0  0  0  0  0  0
   44.1540    5.9020   44.0270 C   0  0  0  0  0  3  0  0  0  0  0  0
   42.5820    6.3340   45.2680 H   0  0  0  0  0  0  0  0  0  0  0  0
   45.1300    6.4270   43.2110 C   0  0  0  0  0  3  0  0  0  0  0  0
   45.2180    7.7950   43.0670 C   0  0  0  0  0  3  0  0  0  0  0  0
   44.3840    8.6410   43.6960 N   0  0  0  0  0  0  0  0  0  0  0  0
  1  2  1  0  0  0  0
  1 10  1  1  0  0  0
  1  7  1  0  0  0  0
  2  3  1  0  0  0  0
  3  5  1  0  0  0  0
  3  4  2  0  0  0  0
  5  6  2  0  0  0  0
  7  5  1  0  0  0  0
  8  7  2  0  0  0  0
  8 17  1  0  0  0  0
  9  8  1  0  0  0  0
 10 16  1  0  0  0  0
 11 12  1  0  0  0  0
 11 10  2  0  0  0  0
 12 14  2  0  0  0  0
 13 12  1  0  0  0  0
 14 15  1  0  0  0  0
 16 15  2  0  0  0  0
 17 18  1  0  0  0  0
 18 19  2  0  0  0  0
 20 19  1  0  0  0  0
 21 20  2  0  0  0  0
 22 17  2  0  0  0  0
 22 21  1  0  0  0  0
 23 24  1  0  0  0  0
 23  2  1  6  0  0  0
 24 26  1  0  0  0  0
 25 24  1  0  0  0  0
 27 25  2  0  0  0  0
 28 27  1  0  0  0  0
 28 29  2  0  0  0  0
 29 23  1  0  0  0  0
M  END
>  <Pose>
1

>  <Score>
-7.260

$$$$
