/Users/jonathanwahrer/Desktop/Msc/3_Semester/Drug_Design_Praktikum/waehrer_HTS_screening/HTS_experiment/out/docking_results/vina_output/2qfa/1637_docked.pdbqt
 OpenBabel03162220533D

 29 32  0  0  0  0  0  0  0  0999 V2000
   44.1690    7.4410   43.5870 C   0  0  0  0  0  0  0  0  0  0  0  0
   43.4550    7.1900   44.6900 N   0  0  0  0  0  0  0  0  0  0  0  0
   42.5170    7.9970   45.1770 C   0  0  0  0  0  0  0  0  0  0  0  0
   42.2790    9.1930   44.4800 C   0  0  0  0  0  0  0  0  0  0  0  0
   43.0020    9.4410   43.3680 C   0  0  0  0  0  0  0  0  0  0  0  0
   43.9430    8.5610   42.9250 N   0  0  0  0  0  0  0  0  0  0  0  0
   41.3400   10.1100   45.1310 C   0  0  0  0  0  2  0  0  0  0  0  0
   41.7940   10.2300   46.4830 N   0  0  0  0  0  0  0  0  0  0  0  0
   41.2510    8.9550   47.1310 C   0  0  0  0  0  2  0  0  0  0  0  0
   41.7270    7.7430   46.4100 C   0  0  0  0  0  2  0  0  0  0  0  0
   43.2690   10.0340   46.7290 C   0  0  0  0  0  2  0  0  0  0  0  0
   43.6040   11.4180   47.2890 C   0  0  0  0  0  0  0  0  0  0  0  0
   44.0410   12.4680   46.5790 C   0  0  0  0  0  0  0  0  0  0  0  0
   44.3370   13.7390   47.1430 C   0  0  0  0  0  0  0  0  0  0  0  0
   44.1980   12.2880   44.8650 Cl  0  0  0  0  0  0  0  0  0  0  0  0
   44.1310   13.8200   48.5230 C   0  0  0  0  0  0  0  0  0  0  0  0
   44.7820   14.8240   46.4670 C   0  0  0  0  0  3  0  0  0  0  0  0
   44.4000   15.0170   49.1200 C   0  0  0  0  0  3  0  0  0  0  0  0
   43.7010   12.8200   49.2120 O   0  0  0  0  0  0  0  0  0  0  0  0
   44.8670   16.1610   48.4360 C   0  0  0  0  0  3  0  0  0  0  0  0
   45.0540   16.0300   47.0470 C   0  0  0  0  0  3  0  0  0  0  0  0
   43.4310   11.6290   48.6550 C   0  0  0  0  0  0  0  0  0  0  0  0
   43.0120   10.6340   49.3610 O   0  0  0  0  0  0  0  0  0  0  0  0
   42.7600   10.6150   42.6710 O   0  0  0  0  0  0  0  0  0  0  0  0
   41.8570   10.8530   42.2490 H   0  0  0  0  0  0  0  0  0  0  0  0
   45.4520    6.3020   43.1380 S   0  0  0  0  0  0  0  0  0  0  0  0
   45.7020    6.2860   41.7140 O   0  0  0  0  0  0  0  0  0  0  0  0
   45.0250    4.9580   43.6480 O   0  0  0  0  0  0  0  0  0  0  0  0
   46.8980    6.8060   44.1030 C   0  0  0  0  0  1  0  0  0  0  0  0
  1  2  2  0  0  0  0
  2  3  1  0  0  0  0
  3 10  1  0  0  0  0
  4  7  1  0  0  0  0
  4  3  2  0  0  0  0
  5  4  1  0  0  0  0
  6  5  2  0  0  0  0
  6  1  1  0  0  0  0
  7  8  1  0  0  0  0
  8 11  1  0  0  0  0
  8  9  1  0  0  0  0
 10  9  1  0  0  0  0
 11 12  1  0  0  0  0
 12 22  1  0  0  0  0
 13 14  1  0  0  0  0
 13 12  2  0  0  0  0
 14 16  1  0  0  0  0
 15 13  1  0  0  0  0
 16 18  2  0  0  0  0
 16 19  1  0  0  0  0
 17 21  1  0  0  0  0
 17 14  2  0  0  0  0
 20 18  1  0  0  0  0
 21 20  2  0  0  0  0
 22 19  1  0  0  0  0
 22 23  2  0  0  0  0
 24  5  1  0  0  0  0
 25 24  1  0  0  0  0
 26  1  1  0  0  0  0
 26 28  2  0  0  0  0
 26 29  1  0  0  0  0
 27 26  2  0  0  0  0
M  END
>  <Pose>
1

>  <Score>
-6.871

$$$$
