/Users/jonathanwahrer/Desktop/Msc/3_Semester/Drug_Design_Praktikum/waehrer_HTS_screening/HTS_experiment/out/docking_results/vina_output/2qfa/1657_docked.pdbqt
 OpenBabel03162220543D

 33 36  0  0  1  0  0  0  0  0999 V2000
   45.8380    6.4200   42.6300 Cl  0  0  0  0  0  0  0  0  0  0  0  0
   44.6170    7.4400   43.4020 C   0  0  0  0  0  0  0  0  0  0  0  0
   43.7960    6.9200   44.3790 C   0  0  0  0  0  3  0  0  0  0  0  0
   42.8620    7.7070   44.9710 C   0  0  0  0  0  0  0  0  0  0  0  0
   42.7240    9.0500   44.5950 C   0  0  0  0  0  0  0  0  0  0  0  0
   43.5530    9.5470   43.6190 C   0  0  0  0  0  3  0  0  0  0  0  0
   44.5150    8.7560   43.0030 C   0  0  0  0  0  3  0  0  0  0  0  0
   41.7470    9.8810   45.2130 N   0  0  0  0  0  0  0  0  0  0  0  0
   41.3040    9.5640   46.5620 C   0  0  2  0  0  0  0  0  0  0  0  0
   41.0030    8.1520   46.5700 N   0  0  0  0  0  0  0  0  0  0  0  0
   41.9460    7.2500   46.0140 C   0  0  0  0  0  0  0  0  0  0  0  0
   42.0440    6.0490   46.3740 O   0  0  0  0  0  0  0  0  0  0  0  0
   40.0740   10.3560   46.8550 C   0  0  0  0  0  2  0  0  0  0  0  0
   40.3640   11.7360   47.4000 C   0  0  0  0  0  2  0  0  0  0  0  0
   41.3690   12.4270   46.6210 N   0  0  0  0  0  0  0  0  0  0  0  0
   42.7230   11.9360   46.4640 C   0  0  0  0  0  0  0  0  0  0  0  0
   43.4290   12.5700   45.6470 O   0  0  0  0  0  0  0  0  0  0  0  0
   43.4010   10.8030   47.1150 C   0  0  0  0  0  2  0  0  0  0  0  0
   42.4190    9.7640   47.5680 C   0  0  0  0  0  2  0  0  0  0  0  0
   41.3930   10.6880   44.6580 H   0  0  0  0  0  0  0  0  0  0  0  0
   40.1260    7.7580   46.9650 H   0  0  0  0  0  0  0  0  0  0  0  0
   41.0690   13.6230   45.9450 C   0  0  0  0  0  2  0  0  0  0  0  0
   41.3070   14.9230   46.5300 C   0  0  0  0  0  0  0  0  0  0  0  0
   40.9730   15.8980   45.6840 O   0  0  0  0  0  0  0  0  0  0  0  0
   41.7970   15.2840   47.7650 N   0  0  0  0  0  0  0  0  0  0  0  0
   41.9310   16.7300   48.0790 C   0  0  0  0  0  2  0  0  0  0  0  0
   42.1840   14.4290   48.8170 C   0  0  0  0  0  2  0  0  0  0  0  0
   41.3560   16.8560   49.4990 C   0  0  0  0  0  2  0  0  0  0  0  0
   40.4860   15.7710   49.8070 N   0  0  0  0  0  0  0  0  0  0  0  0
   41.1100   14.4880   49.9400 C   0  0  0  0  0  2  0  0  0  0  0  0
   39.4610   16.0380   50.7580 C   0  0  0  0  0  3  0  0  0  0  0  0
   38.6930   17.3150   50.4850 C   0  0  0  0  0  1  0  0  0  0  0  0
   38.4880   14.9040   50.9290 C   0  0  0  0  0  1  0  0  0  0  0  0
  1  2  1  0  0  0  0
  2  3  1  0  0  0  0
  3  4  2  0  0  0  0
  4 11  1  0  0  0  0
  5  4  1  0  0  0  0
  5  8  1  0  0  0  0
  6  5  2  0  0  0  0
  7  2  2  0  0  0  0
  7  6  1  0  0  0  0
  8  9  1  0  0  0  0
  9 10  1  0  0  0  0
  9 13  1  1  0  0  0
  9 19  1  0  0  0  0
 10 21  1  0  0  0  0
 11 12  2  0  0  0  0
 11 10  1  0  0  0  0
 13 14  1  0  0  0  0
 15 14  1  0  0  0  0
 16 15  1  0  0  0  0
 16 18  1  0  0  0  0
 17 16  2  0  0  0  0
 18 19  1  0  0  0  0
 20  8  1  0  0  0  0
 22 23  1  0  0  0  0
 22 15  1  0  0  0  0
 23 25  1  0  0  0  0
 24 23  2  0  0  0  0
 25 26  1  0  0  0  0
 25 27  1  0  0  0  0
 26 28  1  0  0  0  0
 27 30  1  0  0  0  0
 28 29  1  0  0  0  0
 29 30  1  0  0  0  0
 29 31  1  0  0  0  0
 31 33  1  0  0  0  0
 32 31  1  0  0  0  0
M  END
>  <Pose>
1

>  <Score>
-5.828

$$$$
