/Users/jonathanwahrer/Desktop/Msc/3_Semester/Drug_Design_Praktikum/waehrer_HTS_screening/HTS_experiment/out/docking_results/vina_output/2qfa/1660_docked.pdbqt
 OpenBabel03162220543D

 31 34  0  0  0  0  0  0  0  0999 V2000
   42.3550    9.1090   43.6000 N   0  0  0  0  0  0  0  0  0  0  0  0
   41.9300    9.8010   42.5770 N   0  0  0  0  0  0  0  0  0  0  0  0
   41.1240   10.8060   42.9340 C   0  0  0  0  0  3  0  0  0  0  0  0
   41.0180   10.7600   44.3180 C   0  0  0  0  0  0  0  0  0  0  0  0
   41.8070    9.6790   44.6980 C   0  0  0  0  0  0  0  0  0  0  0  0
   41.8650    9.4200   46.0070 N   0  0  0  0  0  0  0  0  0  0  0  0
   41.1940   10.1700   46.9090 C   0  0  0  0  0  3  0  0  0  0  0  0
   40.4260   11.2180   46.5730 N   0  0  0  0  0  0  0  0  0  0  0  0
   40.3420   11.5120   45.2500 C   0  0  0  0  0  0  0  0  0  0  0  0
   39.6330   12.4850   44.8870 O   0  0  0  0  0  0  0  0  0  0  0  0
   39.7080   12.0440   47.5490 C   0  0  0  0  0  2  0  0  0  0  0  0
   38.3190   11.5910   47.7420 C   0  0  0  0  0  0  0  0  0  0  0  0
   38.2060   10.4230   48.2580 O   0  0  0  0  0  0  0  0  0  0  0  0
   37.1560   12.2900   47.4290 N   0  0  0  0  0  0  0  0  0  0  0  0
   35.8300   11.6830   47.6210 C   0  0  0  0  0  2  0  0  0  0  0  0
   37.1590   13.6480   46.9320 C   0  0  0  0  0  2  0  0  0  0  0  0
   35.2660   11.5580   46.1990 C   0  0  0  0  0  2  0  0  0  0  0  0
   35.3410   12.8240   45.5180 N   0  0  0  0  0  0  0  0  0  0  0  0
   35.8410   13.9590   46.2700 C   0  0  0  0  0  2  0  0  0  0  0  0
   34.9680   12.9530   44.1620 C   0  0  0  0  0  0  0  0  0  0  0  0
   34.5890   11.8880   43.5480 O   0  0  0  0  0  0  0  0  0  0  0  0
   34.9660   14.1170   43.4260 O   0  0  0  0  0  0  0  0  0  0  0  0
   35.0480   14.0800   41.9880 C   0  0  0  0  0  2  0  0  0  0  0  0
   36.1820   15.0140   41.6060 C   0  0  0  0  0  1  0  0  0  0  0  0
   43.2320    7.9950   43.5810 C   0  0  0  0  0  0  0  0  0  0  0  0
   42.9660    6.7700   44.1360 C   0  0  0  0  0  3  0  0  0  0  0  0
   43.9080    5.7610   44.0880 C   0  0  0  0  0  3  0  0  0  0  0  0
   45.1420    5.9120   43.4980 C   0  0  0  0  0  0  0  0  0  0  0  0
   46.3430    4.6630   43.4290 Cl  0  0  0  0  0  0  0  0  0  0  0  0
   45.4290    7.1400   42.9310 C   0  0  0  0  0  3  0  0  0  0  0  0
   44.4760    8.1340   42.9900 C   0  0  0  0  0  3  0  0  0  0  0  0
  1  5  1  0  0  0  0
  2  3  2  0  0  0  0
  2  1  1  0  0  0  0
  3  4  1  0  0  0  0
  4  5  2  0  0  0  0
  4  9  1  0  0  0  0
  5  6  1  0  0  0  0
  6  7  2  0  0  0  0
  8  7  1  0  0  0  0
  8 11  1  0  0  0  0
  9  8  1  0  0  0  0
 10  9  2  0  0  0  0
 11 12  1  0  0  0  0
 12 13  2  0  0  0  0
 14 15  1  0  0  0  0
 14 12  1  0  0  0  0
 16 14  1  0  0  0  0
 17 15  1  0  0  0  0
 18 17  1  0  0  0  0
 18 19  1  0  0  0  0
 19 16  1  0  0  0  0
 20 18  1  0  0  0  0
 21 20  2  0  0  0  0
 22 20  1  0  0  0  0
 23 22  1  0  0  0  0
 24 23  1  0  0  0  0
 25  1  1  0  0  0  0
 25 26  1  0  0  0  0
 27 26  2  0  0  0  0
 28 27  1  0  0  0  0
 29 28  1  0  0  0  0
 30 31  1  0  0  0  0
 30 28  2  0  0  0  0
 31 25  2  0  0  0  0
M  END
>  <Pose>
1

>  <Score>
-6.964

$$$$
