/Users/jonathanwahrer/Desktop/Msc/3_Semester/Drug_Design_Praktikum/waehrer_HTS_screening/HTS_experiment/out/docking_results/vina_output/2qfa/1676_docked.pdbqt
 OpenBabel03162220563D

 25 28  0  0  0  0  0  0  0  0999 V2000
   46.3500    5.8780   42.8420 C   0  0  0  0  0  0  0  0  0  0  0  0
   46.1810    5.7780   41.6120 O   0  0  0  0  0  0  0  0  0  0  0  0
   45.4110    6.6200   43.6030 N   0  0  0  0  0  0  0  0  0  0  0  0
   45.5390    6.7120   44.6240 H   0  0  0  0  0  0  0  0  0  0  0  0
   47.5080    5.2270   43.4440 C   0  0  0  0  0  0  0  0  0  0  0  0
   48.0050    4.0840   42.8430 C   0  0  0  0  0  0  0  0  0  0  0  0
   49.0940    3.4520   43.3910 C   0  0  0  0  0  0  0  0  0  0  0  0
   47.6300    3.3810   41.7410 N   0  0  0  0  0  0  0  0  0  0  0  0
   49.6720    3.9680   44.5280 C   0  0  0  0  0  3  0  0  0  0  0  0
   49.3520    2.3800   42.6040 N   0  0  0  0  0  0  0  0  0  0  0  0
   49.1820    5.1060   45.1320 C   0  0  0  0  0  0  0  0  0  0  0  0
   50.0060    5.8000   46.7110 Br  0  0  0  0  0  0  0  0  0  0  0  0
   48.0960    5.7420   44.5910 C   0  0  0  0  0  3  0  0  0  0  0  0
   48.4560    2.3770   41.6340 N   0  0  0  0  0  0  0  0  0  0  0  0
   46.8190    3.6750   41.1590 H   0  0  0  0  0  0  0  0  0  0  0  0
   44.2750    7.2540   42.9800 C   0  0  0  0  0  2  0  0  0  0  0  0
   43.3620    7.7810   44.0530 C   0  0  0  0  0  0  0  0  0  0  0  0
   42.8050    9.0010   44.1150 N   0  0  0  0  0  0  0  0  0  0  0  0
   42.0430    9.1230   45.2220 C   0  0  0  0  0  0  0  0  0  0  0  0
   42.8710   10.1580   43.2500 C   0  0  0  0  0  2  0  0  0  0  0  0
   42.1310    7.9490   45.8600 N   0  0  0  0  0  0  0  0  0  0  0  0
   41.3620   10.4330   45.4160 C   0  0  0  0  0  2  0  0  0  0  0  0
   42.9300    7.1350   45.1540 N   0  0  0  0  0  0  0  0  0  0  0  0
   40.5860   10.6640   44.1110 C   0  0  0  0  0  2  0  0  0  0  0  0
   41.4580   10.5730   42.9010 C   0  0  0  0  0  2  0  0  0  0  0  0
  1  5  1  0  0  0  0
  1  3  1  0  0  0  0
  2  1  2  0  0  0  0
  3  4  1  0  0  0  0
  5 13  1  0  0  0  0
  6  7  1  0  0  0  0
  6  5  2  0  0  0  0
  7  9  2  0  0  0  0
  8  6  1  0  0  0  0
  9 11  1  0  0  0  0
 10  7  1  0  0  0  0
 11 12  1  0  0  0  0
 13 11  2  0  0  0  0
 14  8  1  0  0  0  0
 14 10  2  0  0  0  0
 15  8  1  0  0  0  0
 16  3  1  0  0  0  0
 16 17  1  0  0  0  0
 17 18  1  0  0  0  0
 17 23  2  0  0  0  0
 18 19  1  0  0  0  0
 19 22  1  0  0  0  0
 19 21  2  0  0  0  0
 20 18  1  0  0  0  0
 23 21  1  0  0  0  0
 24 22  1  0  0  0  0
 25 20  1  0  0  0  0
 25 24  1  0  0  0  0
M  END
>  <Pose>
1

>  <Score>
-7.773

$$$$
