/Users/jonathanwahrer/Desktop/Msc/3_Semester/Drug_Design_Praktikum/waehrer_HTS_screening/HTS_experiment/out/docking_results/vina_output/2qfa/1687_docked.pdbqt
 OpenBabel03162220563D

 27 30  0  0  0  0  0  0  0  0999 V2000
   42.5460   12.1430   44.8970 N   0  0  0  0  0  0  0  0  0  0  0  0
   41.5230   12.9510   45.2550 C   0  0  0  0  0  2  0  0  0  0  0  0
   41.7200   14.1100   45.9730 C   0  0  0  0  0  0  0  0  0  0  0  0
   43.0720   14.4910   46.3660 C   0  0  0  0  0  0  0  0  0  0  0  0
   42.9560   15.6430   47.0410 N   0  0  0  0  0  2  0  0  0  0  0  0
   41.6680   16.0170   47.1070 N   0  0  0  0  0  0  0  0  0  0  0  0
   40.9120   15.1090   46.4710 C   0  0  0  0  0  0  0  0  0  0  0  0
   39.6670   15.1830   46.3640 O   0  0  0  0  0  0  0  0  0  0  0  0
   44.0950   13.6410   45.9830 C   0  0  0  0  0  0  0  0  0  0  0  0
   43.7790   12.5170   45.2710 C   0  0  0  0  0  3  0  0  0  0  0  0
   41.3620   16.8960   47.5960 H   0  0  0  0  0  0  0  0  0  0  0  0
   42.3010   10.9230   44.1360 C   0  0  0  0  0  2  0  0  0  0  0  0
   43.6350   10.2540   43.8870 C   0  0  0  0  0  2  0  0  0  0  0  0
   43.5810    8.8320   44.1490 N   0  0  0  0  0  0  0  0  0  0  0  0
   42.6470    8.2030   44.8930 C   0  0  0  0  0  3  0  0  0  0  0  0
   42.8960    6.8820   44.9290 N   0  0  0  0  0  0  0  0  0  0  0  0
   44.0140    6.6240   44.1970 C   0  0  0  0  0  0  0  0  0  0  0  0
   44.7040    5.4650   43.9020 C   0  0  0  0  0  3  0  0  0  0  0  0
   44.4100    7.8610   43.7280 C   0  0  0  0  0  0  0  0  0  0  0  0
   45.8320    5.5270   43.1120 C   0  0  0  0  0  0  0  0  0  0  0  0
   46.7630    4.0880   42.6950 Cl  0  0  0  0  0  0  0  0  0  0  0  0
   46.2190    6.7700   42.6490 C   0  0  0  0  0  3  0  0  0  0  0  0
   45.5350    7.9330   42.9400 C   0  0  0  0  0  3  0  0  0  0  0  0
   45.4610   13.9890   46.3580 C   0  0  0  0  0  0  0  0  0  0  0  0
   46.0210   13.3520   47.2850 O   0  0  0  0  0  0  0  0  0  0  0  0
   46.1480   14.9920   45.7270 O   0  0  0  0  0  0  0  0  0  0  0  0
   46.5620   14.8730   44.3750 C   0  0  0  0  0  1  0  0  0  0  0  0
  1  2  1  0  0  0  0
  1 10  1  0  0  0  0
  2  3  1  0  0  0  0
  3  4  2  0  0  0  0
  3  7  1  0  0  0  0
  4  5  1  0  0  0  0
  5  6  1  0  0  0  0
  6 11  1  0  0  0  0
  7  6  1  0  0  0  0
  8  7  2  0  0  0  0
  9 24  1  0  0  0  0
  9  4  1  0  0  0  0
 10  9  2  0  0  0  0
 12  1  1  0  0  0  0
 13 12  1  0  0  0  0
 13 14  1  0  0  0  0
 14 15  1  0  0  0  0
 15 16  2  0  0  0  0
 17 16  1  0  0  0  0
 18 17  1  0  0  0  0
 19 14  1  0  0  0  0
 19 17  2  0  0  0  0
 20 18  2  0  0  0  0
 21 20  1  0  0  0  0
 22 23  2  0  0  0  0
 22 20  1  0  0  0  0
 23 19  1  0  0  0  0
 24 25  2  0  0  0  0
 26 24  1  0  0  0  0
 27 26  1  0  0  0  0
M  END
>  <Pose>
1

>  <Score>
-7.376

$$$$
