/Users/jonathanwahrer/Desktop/Msc/3_Semester/Drug_Design_Praktikum/waehrer_HTS_screening/HTS_experiment/out/docking_results/vina_output/2qfa/1689_docked.pdbqt
 OpenBabel03162220563D

 32 35  0  0  1  0  0  0  0  0999 V2000
   42.3150    8.6760   43.4160 C   0  0  0  0  0  0  0  0  0  0  0  0
   42.0560    8.3350   42.2350 O   0  0  0  0  0  0  0  0  0  0  0  0
   41.5930    9.7490   43.9780 N   0  0  0  0  0  0  0  0  0  0  0  0
   41.6780   10.3620   45.2880 C   0  0  0  0  0  2  0  0  0  0  0  0
   41.5270   11.7900   45.0070 C   0  0  2  0  0  3  0  0  0  0  0  0
   41.0670   11.9190   43.5530 C   0  0  1  0  0  3  0  0  0  0  0  0
   40.5570   10.4840   43.3010 C   0  0  0  0  0  2  0  0  0  0  0  0
   43.3630    7.9320   44.1450 C   0  0  0  0  0  2  0  0  0  0  0  0
   44.7240    8.3690   43.6950 C   0  0  0  0  0  2  0  0  0  0  0  0
   45.6150    7.2150   43.4720 C   0  0  0  0  0  0  0  0  0  0  0  0
   46.6650    6.8610   44.2630 N   0  0  0  0  0  0  0  0  0  0  0  0
   47.2870    5.7710   43.7870 C   0  0  0  0  0  0  0  0  0  0  0  0
   46.9920    7.3390   45.1390 H   0  0  0  0  0  0  0  0  0  0  0  0
   48.3740    5.0150   44.1910 C   0  0  0  0  0  3  0  0  0  0  0  0
   46.6090    5.4100   42.6480 C   0  0  0  0  0  0  0  0  0  0  0  0
   48.7800    3.9070   43.4590 C   0  0  0  0  0  0  0  0  0  0  0  0
   50.1570    2.9680   43.9850 Cl  0  0  0  0  0  0  0  0  0  0  0  0
   48.1040    3.5410   42.3160 C   0  0  0  0  0  3  0  0  0  0  0  0
   47.0170    4.3090   41.9250 C   0  0  0  0  0  3  0  0  0  0  0  0
   45.6120    6.2880   42.4770 N   0  0  0  0  0  0  0  0  0  0  0  0
   42.5480   12.7160   45.3090 N   0  0  0  0  0  0  0  0  0  0  0  0
   42.2260   13.7620   46.1170 C   0  0  0  0  0  3  0  0  0  0  0  0
   43.1510   14.7180   46.4730 C   0  0  0  0  0  0  0  0  0  0  0  0
   44.4450   14.6350   46.0130 C   0  0  0  0  0  0  0  0  0  0  0  0
   42.7810   15.8650   47.3650 C   0  0  0  0  0  1  0  0  0  0  0  0
   45.3170   15.5000   46.3250 O   0  0  0  0  0  0  0  0  0  0  0  0
   44.7620   13.6020   45.2170 N   0  0  0  0  0  0  0  0  0  0  0  0
   43.8220   12.7070   44.9060 C   0  0  0  0  0  0  0  0  0  0  0  0
   45.7580   13.5150   44.8440 H   0  0  0  0  0  0  0  0  0  0  0  0
   44.1740   11.7670   44.1640 O   0  0  0  0  0  0  0  0  0  0  0  0
   40.0580   12.8330   43.3860 O   0  0  0  0  0  0  0  0  0  0  0  0
   39.2450   12.4820   43.8280 H   0  0  0  0  0  0  0  0  0  0  0  0
  1  3  1  0  0  0  0
  1  8  1  0  0  0  0
  2  1  2  0  0  0  0
  3  4  1  0  0  0  0
  5  4  1  6  0  0  0
  5 21  1  0  0  0  0
  6 31  1  1  0  0  0
  6  5  1  0  0  0  0
  7  6  1  0  0  0  0
  7  3  1  0  0  0  0
  9  8  1  0  0  0  0
 10  9  1  0  0  0  0
 10 11  1  0  0  0  0
 11 13  1  0  0  0  0
 12 14  1  0  0  0  0
 12 11  1  0  0  0  0
 15 12  2  0  0  0  0
 16 17  1  0  0  0  0
 16 14  2  0  0  0  0
 18 16  1  0  0  0  0
 19 18  2  0  0  0  0
 19 15  1  0  0  0  0
 20 15  1  0  0  0  0
 20 10  2  0  0  0  0
 21 22  1  0  0  0  0
 22 23  2  0  0  0  0
 23 25  1  0  0  0  0
 24 26  2  0  0  0  0
 24 23  1  0  0  0  0
 27 24  1  0  0  0  0
 28 27  1  0  0  0  0
 28 21  1  0  0  0  0
 29 27  1  0  0  0  0
 30 28  2  0  0  0  0
 31 32  1  0  0  0  0
M  END
>  <Pose>
1

>  <Score>
-8.637

$$$$
