/Users/jonathanwahrer/Desktop/Msc/3_Semester/Drug_Design_Praktikum/waehrer_HTS_screening/HTS_experiment/out/docking_results/vina_output/2qfa/1706_docked.pdbqt
 OpenBabel03162220573D

 25 28  0  0  1  0  0  0  0  0999 V2000
   44.1170   15.6900   46.9090 F   0  0  0  0  0  0  0  0  0  0  0  0
   44.1840   14.5950   46.0790 C   0  0  0  0  0  0  0  0  0  0  0  0
   43.1400   13.6630   46.1130 C   0  0  0  0  0  0  0  0  0  0  0  0
   43.1880   12.5720   45.2990 C   0  0  0  0  0  0  0  0  0  0  0  0
   44.2740   12.3850   44.4320 C   0  0  0  0  0  3  0  0  0  0  0  0
   45.2800   13.3110   44.4190 C   0  0  0  0  0  3  0  0  0  0  0  0
   45.2520   14.4180   45.2330 C   0  0  0  0  0  0  0  0  0  0  0  0
   46.5560   15.6130   45.2110 Cl  0  0  0  0  0  0  0  0  0  0  0  0
   41.9690   11.7530   45.5310 C   0  0  2  0  0  0  0  0  0  0  0  0
   42.3530   10.4440   45.9530 N   0  0  0  0  0  0  0  0  0  0  0  0
   42.6340    9.4280   45.0150 C   0  0  0  0  0  0  0  0  0  0  0  0
   43.3090    8.2990   45.3550 N   0  0  0  0  0  0  0  0  0  0  0  0
   43.6010    7.3090   44.5060 C   0  0  0  0  0  3  0  0  0  0  0  0
   43.1970    7.4130   43.1790 C   0  0  0  0  0  3  0  0  0  0  0  0
   42.5140    8.5180   42.7550 C   0  0  0  0  0  3  0  0  0  0  0  0
   42.2470    9.5000   43.6840 C   0  0  0  0  0  0  0  0  0  0  0  0
   41.5200   10.7230   43.3310 C   0  0  0  0  0  0  0  0  0  0  0  0
   41.1440   10.8330   42.1140 O   0  0  0  0  0  0  0  0  0  0  0  0
   41.2430   11.7310   44.2730 N   0  0  0  0  0  0  0  0  0  0  0  0
   41.2250   12.4860   46.5610 C   0  0  0  0  0  0  0  0  0  0  0  0
   40.0980   12.1580   47.0860 O   0  0  0  0  0  0  0  0  0  0  0  0
   41.9440   13.6420   46.9040 N   0  0  0  0  0  0  0  0  0  0  0  0
   42.4360   10.2010   46.9710 H   0  0  0  0  0  0  0  0  0  0  0  0
   40.5130   12.4370   44.0230 H   0  0  0  0  0  0  0  0  0  0  0  0
   41.7050   14.3940   47.6040 H   0  0  0  0  0  0  0  0  0  0  0  0
  2  3  1  0  0  0  0
  2  1  1  0  0  0  0
  3 22  1  0  0  0  0
  4  3  2  0  0  0  0
  5  4  1  0  0  0  0
  6  5  2  0  0  0  0
  6  7  1  0  0  0  0
  7  2  2  0  0  0  0
  8  7  1  0  0  0  0
  9  4  1  6  0  0  0
  9 10  1  0  0  0  0
  9 20  1  0  0  0  0
 10 23  1  0  0  0  0
 11 12  1  0  0  0  0
 11 10  1  0  0  0  0
 13 12  2  0  0  0  0
 14 13  1  0  0  0  0
 15 14  2  0  0  0  0
 15 16  1  0  0  0  0
 16 11  2  0  0  0  0
 17 16  1  0  0  0  0
 17 19  1  0  0  0  0
 18 17  2  0  0  0  0
 19  9  1  0  0  0  0
 20 22  1  0  0  0  0
 20 21  2  0  0  0  0
 22 25  1  0  0  0  0
 24 19  1  0  0  0  0
M  END
>  <Pose>
1

>  <Score>
-7.484

$$$$
