/Users/jonathanwahrer/Desktop/Msc/3_Semester/Drug_Design_Praktikum/waehrer_HTS_screening/HTS_experiment/out/docking_results/vina_output/2qfa/1711_docked.pdbqt
 OpenBabel03162220583D

 30 33  0  0  0  0  0  0  0  0999 V2000
   42.3050    8.8530   45.6740 N   0  0  0  0  0  0  0  0  0  0  0  0
   43.2610    8.7100   46.7160 C   0  0  0  0  0  2  0  0  0  0  0  0
   43.1650    9.7880   47.7660 C   0  0  0  0  0  2  0  0  0  0  0  0
   42.7380   11.0510   47.2240 N   0  0  0  0  0  0  0  0  0  0  0  0
   41.5680   11.0990   46.3810 C   0  0  0  0  0  2  0  0  0  0  0  0
   41.2110    9.7010   45.9790 C   0  0  0  0  0  2  0  0  0  0  0  0
   43.4270   12.2600   47.4900 C   0  0  0  0  0  0  0  0  0  0  0  0
   44.4390   12.2280   48.2170 O   0  0  0  0  0  0  0  0  0  0  0  0
   42.9820   13.5550   46.9290 C   0  0  0  0  0  2  0  0  0  0  0  0
   44.0940   14.3240   46.4500 N   0  0  0  0  0  0  0  0  0  0  0  0
   44.6710   15.5110   46.9760 C   0  0  0  0  0  0  0  0  0  0  0  0
   44.2650   16.0950   48.0040 O   0  0  0  0  0  0  0  0  0  0  0  0
   45.7820   15.8980   46.1220 C   0  0  0  0  0  0  0  0  0  0  0  0
   45.8990   14.9880   45.0980 C   0  0  0  0  0  0  0  0  0  0  0  0
   46.6630   16.9480   46.1780 C   0  0  0  0  0  3  0  0  0  0  0  0
   46.8990   15.1540   44.1490 C   0  0  0  0  0  3  0  0  0  0  0  0
   44.8510   13.9920   45.2810 C   0  0  0  0  0  0  0  0  0  0  0  0
   47.7750   16.2030   44.2070 C   0  0  0  0  0  3  0  0  0  0  0  0
   47.6690   17.1320   45.2400 C   0  0  0  0  0  3  0  0  0  0  0  0
   44.6980   13.0200   44.4950 O   0  0  0  0  0  0  0  0  0  0  0  0
   42.8950    8.8790   44.1030 S   0  0  0  0  0  0  0  0  0  0  0  0
   41.7150    8.8510   43.1410 O   0  0  0  0  0  0  0  0  0  0  0  0
   43.5660   10.2180   43.8640 O   0  0  0  0  0  0  0  0  0  0  0  0
   44.0340    7.6480   43.7090 C   0  0  0  0  0  0  0  0  0  0  0  0
   45.1870    7.9730   43.0130 C   0  0  0  0  0  3  0  0  0  0  0  0
   46.1320    7.0270   42.6720 C   0  0  0  0  0  3  0  0  0  0  0  0
   45.9000    5.7170   43.0480 C   0  0  0  0  0  0  0  0  0  0  0  0
   44.7470    5.4070   43.7400 C   0  0  0  0  0  3  0  0  0  0  0  0
   47.1790    4.3460   42.6050 Br  0  0  0  0  0  0  0  0  0  0  0  0
   43.7950    6.3420   44.0880 C   0  0  0  0  0  3  0  0  0  0  0  0
  1  6  1  0  0  0  0
  1  2  1  0  0  0  0
  2  3  1  0  0  0  0
  4  7  1  0  0  0  0
  4  3  1  0  0  0  0
  5  4  1  0  0  0  0
  6  5  1  0  0  0  0
  7  8  2  0  0  0  0
  9  7  1  0  0  0  0
 10  9  1  0  0  0  0
 10 11  1  0  0  0  0
 11 12  2  0  0  0  0
 13 15  1  0  0  0  0
 13 11  1  0  0  0  0
 14 17  1  0  0  0  0
 14 13  2  0  0  0  0
 16 18  2  0  0  0  0
 16 14  1  0  0  0  0
 17 10  1  0  0  0  0
 18 19  1  0  0  0  0
 19 15  2  0  0  0  0
 20 17  2  0  0  0  0
 21  1  1  0  0  0  0
 22 21  2  0  0  0  0
 23 21  2  0  0  0  0
 24 30  1  0  0  0  0
 24 21  1  0  0  0  0
 25 24  2  0  0  0  0
 26 25  1  0  0  0  0
 26 27  2  0  0  0  0
 27 28  1  0  0  0  0
 28 30  2  0  0  0  0
 29 27  1  0  0  0  0
M  END
>  <Pose>
1

>  <Score>
-8.492

$$$$
