/Users/jonathanwahrer/Desktop/Msc/3_Semester/Drug_Design_Praktikum/waehrer_HTS_screening/HTS_experiment/out/docking_results/vina_output/2qfa/1718_docked.pdbqt
 OpenBabel03162220583D

 34 38  0  0  1  0  0  0  0  0999 V2000
   45.7100   12.4630   49.7960 Cl  0  0  0  0  0  0  0  0  0  0  0  0
   44.7300   11.1530   49.1780 C   0  0  0  0  0  0  0  0  0  0  0  0
   44.3030   11.2470   47.8520 C   0  0  0  0  0  0  0  0  0  0  0  0
   43.5300   10.2350   47.3290 C   0  0  0  0  0  0  0  0  0  0  0  0
   43.2100    9.1580   48.1580 C   0  0  0  0  0  3  0  0  0  0  0  0
   43.6360    9.0740   49.4660 C   0  0  0  0  0  3  0  0  0  0  0  0
   44.4110   10.0880   49.9890 C   0  0  0  0  0  3  0  0  0  0  0  0
   43.1820   10.5140   45.9360 C   0  0  1  0  0  0  0  0  0  0  0  0
   43.6020    9.4640   45.0270 N   0  0  0  0  0  0  0  0  0  0  0  0
   42.7610    9.6210   43.8480 C   0  0  2  0  0  3  0  0  0  0  0  0
   41.4310   10.1210   44.3430 C   0  0  1  0  0  3  0  0  0  0  0  0
   41.6950   10.6810   45.7190 C   0  0  2  0  0  3  0  0  0  0  0  0
   41.3070   12.1120   45.6560 C   0  0  0  0  0  0  0  0  0  0  0  0
   41.5330   12.9010   46.6160 O   0  0  0  0  0  0  0  0  0  0  0  0
   40.6880   12.3810   44.4100 N   0  0  0  0  0  0  0  0  0  0  0  0
   41.0390   11.3230   43.5300 C   0  0  0  0  0  0  0  0  0  0  0  0
   41.0440   11.3210   42.2670 O   0  0  0  0  0  0  0  0  0  0  0  0
   43.8280   11.8030   45.6430 C   0  0  0  0  0  0  0  0  0  0  0  0
   43.8090   12.4520   44.5330 O   0  0  0  0  0  0  0  0  0  0  0  0
   44.4910   12.2120   46.8260 N   0  0  0  0  0  0  0  0  0  0  0  0
   43.4950    8.5150   45.4500 H   0  0  0  0  0  0  0  0  0  0  0  0
   45.0480   13.1030   46.9420 H   0  0  0  0  0  0  0  0  0  0  0  0
   42.6500    8.2980   43.1490 C   0  0  0  0  0  2  0  0  0  0  0  0
   42.8560    7.2350   44.1840 C   0  0  0  0  0  0  0  0  0  0  0  0
   44.0260    6.7920   44.3110 O   0  0  0  0  0  0  0  0  0  0  0  0
   41.8000    6.7390   44.9910 N   0  0  0  0  0  0  0  0  0  0  0  0
   41.4420    7.3450   45.7550 H   0  0  0  0  0  0  0  0  0  0  0  0
   41.3590    5.8060   44.8660 H   0  0  0  0  0  0  0  0  0  0  0  0
   39.8690   13.4960   44.1010 C   0  0  0  0  0  2  0  0  0  0  0  0
   38.5820   13.6120   44.8170 C   0  0  2  0  0  3  0  0  0  0  0  0
   38.5870   14.4670   45.9090 O   0  0  0  0  0  0  0  0  0  0  0  0
   37.2410   14.4380   46.2760 C   0  0  0  0  0  2  0  0  0  0  0  0
   36.8550   12.9540   46.2300 C   0  0  0  0  0  2  0  0  0  0  0  0
   37.9890   12.3690   45.3700 C   0  0  0  0  0  2  0  0  0  0  0  0
  2  1  1  0  0  0  0
  2  7  1  0  0  0  0
  3  2  2  0  0  0  0
  4  3  1  0  0  0  0
  4  5  2  0  0  0  0
  5  6  1  0  0  0  0
  6  7  2  0  0  0  0
  8 18  1  6  0  0  0
  8  4  1  0  0  0  0
  9 21  1  0  0  0  0
  9  8  1  0  0  0  0
 10 23  1  1  0  0  0
 10 11  1  0  0  0  0
 10  9  1  0  0  0  0
 11 16  1  6  0  0  0
 11 12  1  0  0  0  0
 12 13  1  6  0  0  0
 12  8  1  0  0  0  0
 13 14  2  0  0  0  0
 15 13  1  0  0  0  0
 16 15  1  0  0  0  0
 17 16  2  0  0  0  0
 18 20  1  0  0  0  0
 19 18  2  0  0  0  0
 20 22  1  0  0  0  0
 20  3  1  0  0  0  0
 23 24  1  0  0  0  0
 24 25  2  0  0  0  0
 24 26  1  0  0  0  0
 26 27  1  0  0  0  0
 28 26  1  0  0  0  0
 29 15  1  0  0  0  0
 30 29  1  1  0  0  0
 30 34  1  0  0  0  0
 30 31  1  0  0  0  0
 31 32  1  0  0  0  0
 33 32  1  0  0  0  0
 34 33  1  0  0  0  0
M  END
>  <Pose>
1

>  <Score>
-6.658

$$$$
