/Users/jonathanwahrer/Desktop/Msc/3_Semester/Drug_Design_Praktikum/waehrer_HTS_screening/HTS_experiment/out/docking_results/vina_output/2qfa/1726_docked.pdbqt
 OpenBabel03162220593D

 30 33  0  0  1  0  0  0  0  0999 V2000
   44.7770    6.9300   43.1560 N   0  0  0  0  0  4  0  0  0  0  0  0
   44.2610    6.3750   44.3620 C   0  0  0  0  0  2  0  0  0  0  0  0
   42.9840    6.9810   44.8510 C   0  0  1  0  0  3  0  0  0  0  0  0
   43.1280    8.3450   45.4270 C   0  0  0  0  0  2  0  0  0  0  0  0
   42.4960    9.3910   44.6730 N   0  0  0  0  0  0  0  0  0  0  0  0
   42.2020    9.3180   43.3610 C   0  0  0  0  0  0  0  0  0  0  0  0
   41.6020   10.3120   42.6440 C   0  0  0  0  0  3  0  0  0  0  0  0
   41.2650   11.4830   43.2910 C   0  0  0  0  0  3  0  0  0  0  0  0
   41.5620   11.5670   44.6310 C   0  0  0  0  0  3  0  0  0  0  0  0
   42.1670   10.5450   45.3220 C   0  0  0  0  0  0  0  0  0  0  0  0
   42.4240   10.6570   46.5490 O   0  0  0  0  0  0  0  0  0  0  0  0
   42.5980    8.0110   42.7120 C   0  0  1  0  0  3  0  0  0  0  0  0
   44.0700    8.0160   42.5940 C   0  0  0  0  0  2  0  0  0  0  0  0
   42.0420    6.9600   43.6410 C   0  0  0  0  0  2  0  0  0  0  0  0
   44.7970    6.1490   42.4320 H   0  0  0  0  0  0  0  0  0  0  0  0
   46.1700    7.2540   43.3950 C   0  0  0  0  0  2  0  0  0  0  0  0
   46.8870    6.2560   44.2470 C   0  0  1  0  0  3  0  0  0  0  0  0
   47.7810    5.4430   43.3110 C   0  0  0  0  0  2  0  0  0  0  0  0
   48.2150    4.3310   44.0380 O   0  0  0  0  0  0  0  0  0  0  0  0
   49.2670    3.5210   43.7710 C   0  0  0  0  0  0  0  0  0  0  0  0
   49.1920    2.5940   42.7560 C   0  0  0  0  0  0  0  0  0  0  0  0
   47.5800    2.4850   41.7470 Br  0  0  0  0  0  0  0  0  0  0  0  0
   50.2520    1.7430   42.4520 C   0  0  0  0  0  3  0  0  0  0  0  0
   51.4060    1.8200   43.1750 C   0  0  0  0  0  0  0  0  0  0  0  0
   51.5130    2.7410   44.2000 C   0  0  0  0  0  3  0  0  0  0  0  0
   52.5400    0.9030   42.8430 C   0  0  0  0  0  1  0  0  0  0  0  0
   50.4390    3.5880   44.4920 C   0  0  0  0  0  0  0  0  0  0  0  0
   50.5760    4.8590   45.9010 Br  0  0  0  0  0  0  0  0  0  0  0  0
   47.6380    6.9160   45.2180 O   0  0  0  0  0  0  0  0  0  0  0  0
   46.9760    7.3790   45.8070 H   0  0  0  0  0  0  0  0  0  0  0  0
  1 16  1  0  0  0  0
  1  2  1  0  0  0  0
  2  3  1  0  0  0  0
  3 14  1  6  0  0  0
  3  4  1  0  0  0  0
  5 10  1  0  0  0  0
  5  4  1  0  0  0  0
  6  5  1  0  0  0  0
  7  8  1  0  0  0  0
  7  6  2  0  0  0  0
  8  9  2  0  0  0  0
  9 10  1  0  0  0  0
 10 11  2  0  0  0  0
 12 13  1  1  0  0  0
 12  6  1  0  0  0  0
 12 14  1  0  0  0  0
 13  1  1  0  0  0  0
 15  1  1  0  0  0  0
 16 17  1  0  0  0  0
 17 18  1  6  0  0  0
 17 29  1  0  0  0  0
 18 19  1  0  0  0  0
 20 19  1  0  0  0  0
 20 27  1  0  0  0  0
 21 20  2  0  0  0  0
 22 21  1  0  0  0  0
 23 21  1  0  0  0  0
 23 24  2  0  0  0  0
 24 25  1  0  0  0  0
 25 27  2  0  0  0  0
 26 24  1  0  0  0  0
 27 28  1  0  0  0  0
 29 30  1  0  0  0  0
M  END
>  <Pose>
1

>  <Score>
-7.435

$$$$
