/Users/jonathanwahrer/Desktop/Msc/3_Semester/Drug_Design_Praktikum/waehrer_HTS_screening/HTS_experiment/out/docking_results/vina_output/2qfa/1736_docked.pdbqt
 OpenBabel03162220593D

 35 39  0  0  1  0  0  0  0  0999 V2000
   41.7520    8.1200   48.5390 Cl  0  0  0  0  0  0  0  0  0  0  0  0
   41.7730    8.4240   46.7950 C   0  0  0  0  0  0  0  0  0  0  0  0
   41.4650    9.6640   46.2910 C   0  0  0  0  0  3  0  0  0  0  0  0
   41.4840    9.8910   44.9410 C   0  0  0  0  0  0  0  0  0  0  0  0
   41.8150    8.8650   44.0920 C   0  0  0  0  0  0  0  0  0  0  0  0
   42.1340    7.5960   44.5730 C   0  0  0  0  0  3  0  0  0  0  0  0
   42.1060    7.4000   45.9360 C   0  0  0  0  0  3  0  0  0  0  0  0
   41.7780    9.2870   42.7410 N   0  0  0  0  0  0  0  0  0  0  0  0
   41.4000   10.6560   42.7560 C   0  0  0  0  0  0  0  0  0  0  0  0
   41.2550   11.3810   41.7480 O   0  0  0  0  0  0  0  0  0  0  0  0
   41.2010   11.1070   44.1460 C   0  0  1  0  0  0  0  0  0  0  0  0
   39.8720   11.6180   44.3770 N   0  0  0  0  0  0  0  0  0  0  0  0
   39.9780   12.7140   45.2880 C   0  0  1  0  0  3  0  0  0  0  0  0
   41.3050   13.3840   45.0160 C   0  0  2  0  0  3  0  0  0  0  0  0
   42.1090   12.2430   44.4470 C   0  0  1  0  0  3  0  0  0  0  0  0
   43.1660   11.9370   45.4420 C   0  0  0  0  0  0  0  0  0  0  0  0
   43.8380   10.8850   45.5850 O   0  0  0  0  0  0  0  0  0  0  0  0
   43.2930   13.1210   46.2560 N   0  0  0  0  0  0  0  0  0  0  0  0
   42.0180   13.7960   46.2520 C   0  0  0  0  0  0  0  0  0  0  0  0
   41.5720   14.5890   47.1210 O   0  0  0  0  0  0  0  0  0  0  0  0
   41.9820    8.7290   41.8610 H   0  0  0  0  0  0  0  0  0  0  0  0
   39.2590   10.8730   44.7240 H   0  0  0  0  0  0  0  0  0  0  0  0
   38.8230   13.6810   45.1440 C   0  0  1  0  0  3  0  0  0  0  0  0
   37.5510   12.8760   45.3930 C   0  0  0  0  0  1  0  0  0  0  0  0
   38.9130   14.6020   46.1840 O   0  0  0  0  0  0  0  0  0  0  0  0
   39.8430   14.9120   46.2690 H   0  0  0  0  0  0  0  0  0  0  0  0
   44.4760   13.5700   46.9590 C   0  0  0  0  0  2  0  0  0  0  0  0
   45.3090   14.4290   46.0640 C   0  0  0  0  0  0  0  0  0  0  0  0
   45.7220   15.6800   46.4700 C   0  0  0  0  0  0  0  0  0  0  0  0
   46.4940   16.4560   45.6220 C   0  0  0  0  0  3  0  0  0  0  0  0
   46.8700   16.0160   44.3680 C   0  0  0  0  0  3  0  0  0  0  0  0
   46.4620   14.7680   43.9520 C   0  0  0  0  0  3  0  0  0  0  0  0
   45.6960   14.0060   44.8050 C   0  0  0  0  0  3  0  0  0  0  0  0
   45.3400   16.1230   47.7400 O   0  0  0  0  0  0  0  0  0  0  0  0
   44.3510   17.1540   47.8300 C   0  0  0  0  0  1  0  0  0  0  0  0
  2  1  1  0  0  0  0
  3  2  1  0  0  0  0
  4  3  2  0  0  0  0
  5  6  2  0  0  0  0
  5  4  1  0  0  0  0
  6  7  1  0  0  0  0
  7  2  2  0  0  0  0
  8  9  1  0  0  0  0
  8  5  1  0  0  0  0
 10  9  2  0  0  0  0
 11  9  1  6  0  0  0
 11 12  1  0  0  0  0
 11 15  1  0  0  0  0
 11  4  1  0  0  0  0
 12 22  1  0  0  0  0
 12 13  1  0  0  0  0
 13 23  1  6  0  0  0
 14 13  1  0  0  0  0
 14 19  1  1  0  0  0
 15 14  1  0  0  0  0
 15 16  1  1  0  0  0
 16 17  2  0  0  0  0
 16 18  1  0  0  0  0
 18 27  1  0  0  0  0
 19 18  1  0  0  0  0
 19 20  2  0  0  0  0
 21  8  1  0  0  0  0
 23 24  1  1  0  0  0
 23 25  1  0  0  0  0
 25 26  1  0  0  0  0
 28 29  1  0  0  0  0
 28 27  1  0  0  0  0
 29 34  1  0  0  0  0
 30 29  2  0  0  0  0
 31 30  1  0  0  0  0
 32 31  2  0  0  0  0
 32 33  1  0  0  0  0
 33 28  2  0  0  0  0
 34 35  1  0  0  0  0
M  END
>  <Pose>
1

>  <Score>
-7.321

$$$$
