/Users/jonathanwahrer/Desktop/Msc/3_Semester/Drug_Design_Praktikum/waehrer_HTS_screening/HTS_experiment/out/docking_results/vina_output/2qfa/1741_docked.pdbqt
 OpenBabel03162221003D

 28 31  0  0  0  0  0  0  0  0999 V2000
   42.0580   11.0030   43.3000 C   0  0  0  0  0  0  0  0  0  0  0  0
   41.3610   10.7820   42.2900 O   0  0  0  0  0  0  0  0  0  0  0  0
   41.5840   11.8390   44.3210 N   0  0  0  0  0  0  0  0  0  0  0  0
   40.2890   12.4820   44.2850 C   0  0  0  0  0  2  0  0  0  0  0  0
   39.5910   12.1440   45.5920 C   0  0  0  0  0  2  0  0  0  0  0  0
   40.3180   11.2060   46.3410 N   0  0  0  0  0  0  0  0  0  0  0  0
   41.6520   11.4670   46.6960 C   0  0  0  0  0  2  0  0  0  0  0  0
   42.3740   12.1280   45.5270 C   0  0  0  0  0  2  0  0  0  0  0  0
   43.4110   10.3560   43.3950 C   0  0  0  0  0  2  0  0  0  0  0  0
   43.3110    8.9420   43.6900 N   0  0  0  0  0  0  0  0  0  0  0  0
   44.2900    8.0190   43.4640 C   0  0  0  0  0  0  0  0  0  0  0  0
   43.8670    6.7700   43.8530 C   0  0  0  0  0  0  0  0  0  0  0  0
   45.5510    8.1760   42.9370 C   0  0  0  0  0  3  0  0  0  0  0  0
   44.6780    5.6460   43.7300 C   0  0  0  0  0  3  0  0  0  0  0  0
   42.5850    6.9170   44.3370 C   0  0  0  0  0  3  0  0  0  0  0  0
   45.9590    5.7980   43.1950 C   0  0  0  0  0  0  0  0  0  0  0  0
   47.1030    4.2690   43.0130 Br  0  0  0  0  0  0  0  0  0  0  0  0
   46.3670    7.0570   42.8110 C   0  0  0  0  0  3  0  0  0  0  0  0
   42.2880    8.2590   44.2170 C   0  0  0  0  0  3  0  0  0  0  0  0
   39.7690    9.9370   46.5870 C   0  0  0  0  0  2  0  0  0  0  0  0
   39.1680    9.7780   47.9380 C   0  0  0  0  0  0  0  0  0  0  0  0
   37.9690   10.1340   48.0640 O   0  0  0  0  0  0  0  0  0  0  0  0
   39.8590    9.2640   49.0460 N   0  0  0  0  0  0  0  0  0  0  0  0
   39.2010    9.1510   50.3320 C   0  0  0  0  0  2  0  0  0  0  0  0
   41.2380    8.8200   49.0050 C   0  0  0  0  0  2  0  0  0  0  0  0
   39.3570    7.7160   50.7880 C   0  0  0  0  0  2  0  0  0  0  0  0
   40.7320    7.5390   51.0020 O   0  0  0  0  0  0  0  0  0  0  0  0
   41.4410    7.5940   49.8260 C   0  0  0  0  0  2  0  0  0  0  0  0
  1  9  1  0  0  0  0
  1  3  1  0  0  0  0
  2  1  2  0  0  0  0
  3  8  1  0  0  0  0
  4  3  1  0  0  0  0
  4  5  1  0  0  0  0
  5  6  1  0  0  0  0
  6 20  1  0  0  0  0
  6  7  1  0  0  0  0
  8  7  1  0  0  0  0
  9 10  1  0  0  0  0
 10 19  1  0  0  0  0
 11 10  1  0  0  0  0
 11 12  1  0  0  0  0
 12 15  1  0  0  0  0
 13 11  2  0  0  0  0
 14 12  2  0  0  0  0
 16 14  1  0  0  0  0
 17 16  1  0  0  0  0
 18 13  1  0  0  0  0
 18 16  2  0  0  0  0
 19 15  2  0  0  0  0
 20 21  1  0  0  0  0
 21 22  2  0  0  0  0
 21 23  1  0  0  0  0
 23 24  1  0  0  0  0
 24 26  1  0  0  0  0
 25 23  1  0  0  0  0
 25 28  1  0  0  0  0
 26 27  1  0  0  0  0
 28 27  1  0  0  0  0
M  END
>  <Pose>
1

>  <Score>
-6.713

$$$$
