/Users/jonathanwahrer/Desktop/Msc/3_Semester/Drug_Design_Praktikum/waehrer_HTS_screening/HTS_experiment/out/docking_results/vina_output/2qfa/1744_docked.pdbqt
 OpenBabel03162221003D

 34 37  0  0  1  0  0  0  0  0999 V2000
   44.6660   13.1950   47.0520 N   0  0  0  0  0  0  0  0  0  0  0  0
   45.4690   12.3060   47.8270 C   0  0  0  0  0  0  0  0  0  0  0  0
   46.5920   12.6120   48.2950 O   0  0  0  0  0  0  0  0  0  0  0  0
   44.9670   10.9960   48.0850 N   0  0  0  0  0  0  0  0  0  0  0  0
   43.6850   10.6170   47.5620 C   0  0  0  0  0  0  0  0  0  0  0  0
   43.1960    9.5320   48.0240 O   0  0  0  0  0  0  0  0  0  0  0  0
   42.9680   11.4200   46.5540 C   0  0  1  0  0  3  0  0  0  0  0  0
   43.3920   12.8410   46.5300 C   0  0  0  0  0  0  0  0  0  0  0  0
   42.6040   13.6890   46.0430 O   0  0  0  0  0  0  0  0  0  0  0  0
   45.5070   10.2890   48.6480 H   0  0  0  0  0  0  0  0  0  0  0  0
   43.1260   10.8120   45.1810 C   0  0  1  0  0  3  0  0  0  0  0  0
   42.2900    9.9340   44.6590 C   0  0  0  0  0  2  0  0  0  0  0  0
   42.8390    9.6220   43.3210 C   0  0  1  0  0  3  0  0  0  0  0  0
   43.5370   10.8510   42.9890 N   0  0  0  0  0  0  0  0  0  0  0  0
   44.1580   11.0990   44.2380 N   0  0  0  0  0  0  0  0  0  0  0  0
   44.1890   10.7860   42.2030 H   0  0  0  0  0  0  0  0  0  0  0  0
   45.0980   11.4060   44.4880 H   0  0  0  0  0  0  0  0  0  0  0  0
   43.7910    8.4790   43.3950 C   0  0  0  0  0  0  0  0  0  0  0  0
   45.1290    8.5550   43.1320 C   0  0  0  0  0  3  0  0  0  0  0  0
   45.9780    7.4720   43.2540 C   0  0  0  0  0  0  0  0  0  0  0  0
   45.4870    6.2420   43.6550 C   0  0  0  0  0  0  0  0  0  0  0  0
   44.1100    6.1710   43.9230 C   0  0  0  0  0  3  0  0  0  0  0  0
   43.2800    7.2590   43.7950 C   0  0  0  0  0  3  0  0  0  0  0  0
   47.3480    7.6030   42.9700 O   0  0  0  0  0  0  0  0  0  0  0  0
   47.9310    6.7750   43.0420 H   0  0  0  0  0  0  0  0  0  0  0  0
   46.3010    5.1440   43.7910 O   0  0  0  0  0  0  0  0  0  0  0  0
   46.6550    4.3360   42.6880 C   0  0  0  0  0  1  0  0  0  0  0  0
   45.1940   14.4910   46.7930 C   0  0  0  0  0  0  0  0  0  0  0  0
   45.9470   14.7480   45.6610 C   0  0  0  0  0  3  0  0  0  0  0  0
   46.4590   15.9890   45.3730 C   0  0  0  0  0  0  0  0  0  0  0  0
   47.4070   16.2640   43.9360 Cl  0  0  0  0  0  0  0  0  0  0  0  0
   46.1980   17.0120   46.2670 C   0  0  0  0  0  3  0  0  0  0  0  0
   45.4520   16.7970   47.4080 C   0  0  0  0  0  3  0  0  0  0  0  0
   44.9570   15.5200   47.6530 C   0  0  0  0  0  3  0  0  0  0  0  0
  1  2  1  0  0  0  0
  2  4  1  0  0  0  0
  2  3  2  0  0  0  0
  4 10  1  0  0  0  0
  5  6  2  0  0  0  0
  5  4  1  0  0  0  0
  7  8  1  6  0  0  0
  7  5  1  0  0  0  0
  8  1  1  0  0  0  0
  9  8  2  0  0  0  0
 11 12  1  6  0  0  0
 11  7  1  0  0  0  0
 13 18  1  1  0  0  0
 13 12  1  0  0  0  0
 14 13  1  0  0  0  0
 14 15  1  0  0  0  0
 15 17  1  0  0  0  0
 15 11  1  0  0  0  0
 16 14  1  0  0  0  0
 18 23  1  0  0  0  0
 19 20  1  0  0  0  0
 19 18  2  0  0  0  0
 20 21  2  0  0  0  0
 21 26  1  0  0  0  0
 21 22  1  0  0  0  0
 23 22  2  0  0  0  0
 24 25  1  0  0  0  0
 24 20  1  0  0  0  0
 27 26  1  0  0  0  0
 28  1  1  0  0  0  0
 28 34  1  0  0  0  0
 29 28  2  0  0  0  0
 30 29  1  0  0  0  0
 30 32  2  0  0  0  0
 31 30  1  0  0  0  0
 32 33  1  0  0  0  0
 33 34  2  0  0  0  0
M  END
>  <Pose>
1

>  <Score>
-8.943

$$$$
