/Users/jonathanwahrer/Desktop/Msc/3_Semester/Drug_Design_Praktikum/waehrer_HTS_screening/HTS_experiment/out/docking_results/vina_output/2qfa/1745_docked.pdbqt
 OpenBabel03162221003D

 34 37  0  0  1  0  0  0  0  0999 V2000
   42.7950   12.8940   46.7940 N   0  0  0  0  0  0  0  0  0  0  0  0
   42.9680   11.6790   47.5050 C   0  0  0  0  0  0  0  0  0  0  0  0
   44.0330   11.4100   48.0780 O   0  0  0  0  0  0  0  0  0  0  0  0
   41.8950   10.7280   47.5710 N   0  0  0  0  0  0  0  0  0  0  0  0
   40.6460   10.9860   46.9320 C   0  0  0  0  0  0  0  0  0  0  0  0
   39.5900   10.4390   47.2920 O   0  0  0  0  0  0  0  0  0  0  0  0
   40.6230   11.9560   45.7800 C   0  0  1  0  0  3  0  0  0  0  0  0
   41.5060   13.0750   46.1700 C   0  0  0  0  0  0  0  0  0  0  0  0
   41.1560   14.2930   45.9660 O   0  0  0  0  0  0  0  0  0  0  0  0
   42.0420    9.8530   48.0900 H   0  0  0  0  0  0  0  0  0  0  0  0
   41.0740   11.2560   44.5400 C   0  0  2  0  0  3  0  0  0  0  0  0
   42.2220   11.3560   43.9020 C   0  0  0  0  0  2  0  0  0  0  0  0
   42.1890   10.4530   42.7180 C   0  0  2  0  0  3  0  0  0  0  0  0
   40.7240   10.3490   42.4970 N   0  0  0  0  0  0  0  0  0  0  0  0
   40.2490   10.3350   43.8150 N   0  0  0  0  0  0  0  0  0  0  0  0
   40.3900   11.1730   41.9580 H   0  0  0  0  0  0  0  0  0  0  0  0
   39.4820    9.7950   44.2020 H   0  0  0  0  0  0  0  0  0  0  0  0
   42.6260    9.0930   43.1340 C   0  0  0  0  0  0  0  0  0  0  0  0
   43.9480    8.8420   43.5610 C   0  0  0  0  0  3  0  0  0  0  0  0
   44.3840    7.6240   43.9820 C   0  0  0  0  0  0  0  0  0  0  0  0
   43.5050    6.5580   44.0040 C   0  0  0  0  0  0  0  0  0  0  0  0
   42.2080    6.7660   43.5940 C   0  0  0  0  0  3  0  0  0  0  0  0
   41.7810    8.0040   43.1690 C   0  0  0  0  0  3  0  0  0  0  0  0
   45.7100    7.4290   44.3930 O   0  0  0  0  0  0  0  0  0  0  0  0
   46.6990    7.1420   43.4280 C   0  0  0  0  0  1  0  0  0  0  0  0
   43.9330    5.3060   44.4340 O   0  0  0  0  0  0  0  0  0  0  0  0
   43.3100    4.7410   44.9960 H   0  0  0  0  0  0  0  0  0  0  0  0
   43.7750   13.9180   46.6940 C   0  0  0  0  0  0  0  0  0  0  0  0
   44.6100   13.9120   45.5700 C   0  0  0  0  0  3  0  0  0  0  0  0
   45.5990   14.8520   45.3880 C   0  0  0  0  0  0  0  0  0  0  0  0
   46.5930   14.7620   43.9590 Cl  0  0  0  0  0  0  0  0  0  0  0  0
   45.8140   15.8450   46.3060 C   0  0  0  0  0  3  0  0  0  0  0  0
   44.9850   15.8610   47.4310 C   0  0  0  0  0  3  0  0  0  0  0  0
   43.9980   14.9150   47.6060 C   0  0  0  0  0  3  0  0  0  0  0  0
  1  2  1  0  0  0  0
  2  4  1  0  0  0  0
  2  3  2  0  0  0  0
  4 10  1  0  0  0  0
  5  6  2  0  0  0  0
  5  4  1  0  0  0  0
  7  8  1  1  0  0  0
  7  5  1  0  0  0  0
  8  1  1  0  0  0  0
  9  8  2  0  0  0  0
 11 12  1  6  0  0  0
 11  7  1  0  0  0  0
 13 18  1  1  0  0  0
 13 12  1  0  0  0  0
 14 13  1  0  0  0  0
 14 15  1  0  0  0  0
 15 17  1  0  0  0  0
 15 11  1  0  0  0  0
 16 14  1  0  0  0  0
 18 23  2  0  0  0  0
 18 19  1  0  0  0  0
 19 20  2  0  0  0  0
 20 21  1  0  0  0  0
 20 24  1  0  0  0  0
 21 26  1  0  0  0  0
 22 21  2  0  0  0  0
 23 22  1  0  0  0  0
 25 24  1  0  0  0  0
 26 27  1  0  0  0  0
 28  1  1  0  0  0  0
 28 34  1  0  0  0  0
 29 28  2  0  0  0  0
 30 29  1  0  0  0  0
 30 32  2  0  0  0  0
 31 30  1  0  0  0  0
 32 33  1  0  0  0  0
 33 34  2  0  0  0  0
M  END
>  <Pose>
1

>  <Score>
-8.392

$$$$
