/Users/jonathanwahrer/Desktop/Msc/3_Semester/Drug_Design_Praktikum/waehrer_HTS_screening/HTS_experiment/out/docking_results/vina_output/2qfa/1750_docked.pdbqt
 OpenBabel03162221013D

 27 30  0  0  0  0  0  0  0  0999 V2000
   43.5900   13.7670   47.2050 N   0  0  0  0  0  0  0  0  0  0  0  0
   43.3100   12.4710   47.7440 C   0  0  0  0  0  2  0  0  0  0  0  0
   43.2080   11.4030   46.6720 C   0  0  0  0  0  2  0  0  0  0  0  0
   42.3490   11.8780   45.6200 N   0  0  0  0  0  0  0  0  0  0  0  0
   41.6700   13.1440   45.8120 C   0  0  0  0  0  2  0  0  0  0  0  0
   42.7260   14.1740   46.1500 C   0  0  0  0  0  2  0  0  0  0  0  0
   42.1420   11.1590   44.4070 C   0  0  0  0  0  0  0  0  0  0  0  0
   41.3900   11.5950   43.5050 O   0  0  0  0  0  0  0  0  0  0  0  0
   42.8100    9.8760   44.1790 C   0  0  0  0  0  0  0  0  0  0  0  0
   42.4160    8.6640   44.6580 N   0  0  0  0  0  0  0  0  0  0  0  0
   43.2790    7.7270   44.2370 C   0  0  0  0  0  0  0  0  0  0  0  0
   44.2030    8.3440   43.5020 N   0  0  0  0  0  0  0  0  0  0  0  0
   43.3560    6.3560   44.4250 C   0  0  0  0  0  3  0  0  0  0  0  0
   43.9400    9.6570   43.4510 C   0  0  0  0  0  3  0  0  0  0  0  0
   45.1940    7.6120   42.9580 C   0  0  0  0  0  3  0  0  0  0  0  0
   45.3190    6.2590   43.1100 C   0  0  0  0  0  0  0  0  0  0  0  0
   44.3640    5.5970   43.8740 C   0  0  0  0  0  3  0  0  0  0  0  0
   46.6290    5.3330   42.3840 Cl  0  0  0  0  0  0  0  0  0  0  0  0
   45.2260   14.1230   46.9720 S   0  0  0  0  0  0  0  0  0  0  0  0
   46.0690   12.9750   47.4230 O   0  0  0  0  0  0  0  0  0  0  0  0
   45.4650   14.3400   45.5050 O   0  0  0  0  0  0  0  0  0  0  0  0
   45.7530   15.5380   47.7920 N   0  0  0  0  0  0  0  0  0  0  0  0
   44.9770   15.8050   48.9890 C   0  0  0  0  0  2  0  0  0  0  0  0
   45.1050   17.2800   49.2840 C   0  0  0  0  0  2  0  0  0  0  0  0
   46.3550   17.7710   48.9230 O   0  0  0  0  0  0  0  0  0  0  0  0
   46.5540   17.7710   47.5440 C   0  0  0  0  0  2  0  0  0  0  0  0
   45.6360   16.7180   46.9560 C   0  0  0  0  0  2  0  0  0  0  0  0
  1  2  1  0  0  0  0
  3  2  1  0  0  0  0
  4  5  1  0  0  0  0
  4  3  1  0  0  0  0
  5  6  1  0  0  0  0
  6  1  1  0  0  0  0
  7  4  1  0  0  0  0
  8  7  2  0  0  0  0
  9  7  1  0  0  0  0
  9 10  1  0  0  0  0
 11 13  1  0  0  0  0
 11 10  2  0  0  0  0
 12 11  1  0  0  0  0
 14 12  1  0  0  0  0
 14  9  2  0  0  0  0
 15 16  2  0  0  0  0
 15 12  1  0  0  0  0
 16 17  1  0  0  0  0
 17 13  2  0  0  0  0
 18 16  1  0  0  0  0
 19  1  1  0  0  0  0
 19 20  2  0  0  0  0
 19 22  1  0  0  0  0
 21 19  2  0  0  0  0
 22 23  1  0  0  0  0
 23 24  1  0  0  0  0
 25 24  1  0  0  0  0
 26 25  1  0  0  0  0
 27 26  1  0  0  0  0
 27 22  1  0  0  0  0
M  END
>  <Pose>
1

>  <Score>
-6.964

$$$$
