/Users/jonathanwahrer/Desktop/Msc/3_Semester/Drug_Design_Praktikum/waehrer_HTS_screening/HTS_experiment/out/docking_results/vina_output/2qfa/1758_docked.pdbqt
 OpenBabel03162221013D

 28 32  0  0  1  0  0  0  0  0999 V2000
   45.9620    5.7290   43.4830 N   0  0  0  0  0  0  0  0  0  0  0  0
   44.7910    5.4360   44.0200 N   0  0  0  0  0  0  0  0  0  0  0  0
   43.9330    6.4730   43.9450 C   0  0  0  0  0  0  0  0  0  0  0  0
   42.6940    6.5560   44.3670 C   0  0  0  0  0  1  0  0  0  0  0  0
   44.6130    7.4970   43.3150 C   0  0  0  0  0  0  0  0  0  0  0  0
   45.8670    6.9950   43.0440 C   0  0  0  0  0  0  0  0  0  0  0  0
   46.7930    7.6230   42.4710 O   0  0  0  0  0  0  0  0  0  0  0  0
   44.5380    4.5180   44.4560 H   0  0  0  0  0  0  0  0  0  0  0  0
   44.1280    8.7160   43.0350 C   0  0  0  0  0  2  0  0  0  0  0  0
   44.3670    9.7290   44.0030 N   0  0  0  0  0  0  0  0  0  0  0  0
   45.3130   10.0150   44.3240 H   0  0  0  0  0  0  0  0  0  0  0  0
   43.2280   10.4170   44.5880 C   0  0  2  0  0  0  0  0  0  0  0  0
   42.9670    9.8870   45.9900 C   0  0  0  0  0  2  0  0  0  0  0  0
   41.8770   10.6190   46.5740 N   0  0  2  0  0  0  0  0  0  0  0  0
   40.7050   10.4010   45.7330 C   0  0  0  0  0  2  0  0  0  0  0  0
   42.2340   12.0190   46.6180 C   0  0  0  0  0  2  0  0  0  0  0  0
   40.8980   10.9290   44.4120 N   0  0  1  0  0  0  0  0  0  0  0  0
   41.2460   12.3310   44.4690 C   0  0  0  0  0  2  0  0  0  0  0  0
   41.9790   10.2110   43.7850 C   0  0  0  0  0  2  0  0  0  0  0  0
   42.4130   12.5660   45.2770 N   0  0  2  0  0  0  0  0  0  0  0  0
   43.5440   11.8940   44.6800 C   0  0  0  0  0  2  0  0  0  0  0  0
   47.1080    4.8600   43.3900 C   0  0  0  0  0  0  0  0  0  0  0  0
   48.1570    4.9090   44.2510 C   0  0  0  0  0  3  0  0  0  0  0  0
   49.2220    4.0250   44.0770 C   0  0  0  0  0  3  0  0  0  0  0  0
   49.2390    3.1000   43.0530 C   0  0  0  0  0  0  0  0  0  0  0  0
   50.8480    1.7670   42.7940 I   0  0  0  0  0  0  0  0  0  0  0  0
   48.1780    3.0460   42.1780 C   0  0  0  0  0  3  0  0  0  0  0  0
   47.1360    3.9280   42.3670 C   0  0  0  0  0  3  0  0  0  0  0  0
  1  2  1  0  0  0  0
  2  8  1  0  0  0  0
  3  2  1  0  0  0  0
  3  4  1  0  0  0  0
  5  3  2  0  0  0  0
  6  5  1  0  0  0  0
  6  1  1  0  0  0  0
  7  6  2  0  0  0  0
  9  5  1  0  0  0  0
  9 10  1  0  0  0  0
 10 11  1  0  0  0  0
 12 10  1  6  0  0  0
 12 21  1  0  0  0  0
 12 13  1  0  0  0  0
 13 14  1  0  0  0  0
 14 15  1  6  0  0  0
 14 16  1  0  0  0  0
 17 19  1  1  0  0  0
 17 18  1  0  0  0  0
 17 15  1  0  0  0  0
 19 12  1  0  0  0  0
 20 18  1  6  0  0  0
 20 16  1  0  0  0  0
 21 20  1  0  0  0  0
 22  1  1  0  0  0  0
 22 23  1  0  0  0  0
 24 23  2  0  0  0  0
 25 24  1  0  0  0  0
 26 25  1  0  0  0  0
 27 28  1  0  0  0  0
 27 25  2  0  0  0  0
 28 22  2  0  0  0  0
M  END
>  <Pose>
1

>  <Score>
-8.111

$$$$
