/Users/jonathanwahrer/Desktop/Msc/3_Semester/Drug_Design_Praktikum/waehrer_HTS_screening/HTS_experiment/out/docking_results/vina_output/2qfa/1764_docked.pdbqt
 OpenBabel03162221013D

 34 37  0  0  1  0  0  0  0  0999 V2000
   42.4820   11.4700   45.3710 N   0  0  0  0  0  0  0  0  0  0  0  0
   43.5360   12.1600   45.9380 C   0  0  1  0  0  3  0  0  0  0  0  0
   43.1650   13.6450   45.8230 C   0  0  0  0  0  2  0  0  0  0  0  0
   41.6710   13.6030   46.0550 C   0  0  0  0  0  2  0  0  0  0  0  0
   41.2550   12.2410   45.5540 C   0  0  0  0  0  2  0  0  0  0  0  0
   42.5380   10.6140   43.9500 S   0  0  0  0  0  0  0  0  0  0  0  0
   43.2250   11.3850   42.8240 O   0  0  0  0  0  0  0  0  0  0  0  0
   41.1070   10.4350   43.4380 O   0  0  0  0  0  0  0  0  0  0  0  0
   43.2410    9.0280   44.0630 C   0  0  0  0  0  0  0  0  0  0  0  0
   44.3680    8.7310   43.2800 C   0  0  0  0  0  3  0  0  0  0  0  0
   44.9660    7.5030   43.2420 C   0  0  0  0  0  0  0  0  0  0  0  0
   44.4130    6.5080   44.0280 C   0  0  0  0  0  0  0  0  0  0  0  0
   46.0790    7.2160   42.4670 O   0  0  0  0  0  0  0  0  0  0  0  0
   43.3210    6.7270   44.8120 C   0  0  0  0  0  3  0  0  0  0  0  0
   45.0350    5.2140   44.0020 N   0  0  0  0  0  0  0  0  0  0  0  0
   42.7530    7.9960   44.8140 C   0  0  0  0  0  0  0  0  0  0  0  0
   41.4210    8.2250   45.9240 Cl  0  0  0  0  0  0  0  0  0  0  0  0
   46.1810    5.0020   43.1810 C   0  0  0  0  0  0  0  0  0  0  0  0
   44.6260    4.4490   44.5930 H   0  0  0  0  0  0  0  0  0  0  0  0
   46.4630    3.8560   42.7880 O   0  0  0  0  0  0  0  0  0  0  0  0
   46.9980    6.1910   42.8330 C   0  0  0  0  0  2  0  0  0  0  0  0
   43.6090   11.8020   47.4130 C   0  0  0  0  0  0  0  0  0  0  0  0
   44.0210   12.6960   48.1630 O   0  0  0  0  0  0  0  0  0  0  0  0
   43.2160   10.5200   47.8350 N   0  0  0  0  0  0  0  0  0  0  0  0
   42.8860    9.7870   47.1750 H   0  0  0  0  0  0  0  0  0  0  0  0
   43.2690   10.1670   49.2330 C   0  0  0  0  0  2  0  0  0  0  0  0
   42.1740    9.2970   49.7190 C   0  0  0  0  0  2  0  0  0  0  0  0
   40.8670    9.6000   49.2540 N   0  0  0  0  0  0  0  0  0  0  0  0
   40.2760   10.7810   49.7940 C   0  0  0  0  0  2  0  0  0  0  0  0
   39.5170   11.4710   48.6780 C   0  0  0  0  0  2  0  0  0  0  0  0
   38.5890   10.4680   48.0250 C   0  0  0  0  0  2  0  0  0  0  0  0
   37.8620    9.7190   49.1100 C   0  0  0  0  0  2  0  0  0  0  0  0
   38.6460    8.6300   49.7410 C   0  0  0  0  0  2  0  0  0  0  0  0
   40.0300    8.4470   49.2420 C   0  0  0  0  0  2  0  0  0  0  0  0
  1  5  1  0  0  0  0
  1  2  1  0  0  0  0
  2 22  1  1  0  0  0
  3  2  1  0  0  0  0
  3  4  1  0  0  0  0
  5  4  1  0  0  0  0
  6  9  1  0  0  0  0
  6  1  1  0  0  0  0
  7  6  2  0  0  0  0
  8  6  2  0  0  0  0
  9 16  1  0  0  0  0
 10  9  2  0  0  0  0
 11 10  1  0  0  0  0
 11 12  2  0  0  0  0
 12 14  1  0  0  0  0
 13 21  1  0  0  0  0
 13 11  1  0  0  0  0
 14 16  2  0  0  0  0
 15 12  1  0  0  0  0
 15 19  1  0  0  0  0
 16 17  1  0  0  0  0
 18 15  1  0  0  0  0
 20 18  2  0  0  0  0
 21 18  1  0  0  0  0
 22 24  1  0  0  0  0
 22 23  2  0  0  0  0
 24 26  1  0  0  0  0
 25 24  1  0  0  0  0
 26 27  1  0  0  0  0
 28 27  1  0  0  0  0
 28 29  1  0  0  0  0
 30 29  1  0  0  0  0
 31 30  1  0  0  0  0
 31 32  1  0  0  0  0
 32 33  1  0  0  0  0
 34 28  1  0  0  0  0
 34 33  1  0  0  0  0
M  END
>  <Pose>
1

>  <Score>
-6.684

$$$$
