/Users/jonathanwahrer/Desktop/Msc/3_Semester/Drug_Design_Praktikum/waehrer_HTS_screening/HTS_experiment/out/docking_results/vina_output/2qfa/1781_docked.pdbqt
 OpenBabel03162221013D

 24 27  0  0  0  0  0  0  0  0999 V2000
   43.0620    8.0820   44.8280 C   0  0  0  0  0  0  0  0  0  0  0  0
   42.9920    7.7440   46.0910 O   0  0  0  0  0  0  0  0  0  0  0  0
   42.1430    9.0420   44.4320 N   0  0  0  0  0  0  0  0  0  0  0  0
   41.8710    9.6160   43.1570 C   0  0  0  0  0  2  0  0  0  0  0  0
   42.5770   10.9870   43.1780 C   0  0  0  0  0  2  0  0  0  0  0  0
   42.3480   11.5690   44.5130 N   0  0  0  0  0  0  0  0  0  0  0  0
   41.1870   11.1420   45.2390 C   0  0  0  0  0  2  0  0  0  0  0  0
   41.3000    9.6540   45.5140 C   0  0  0  0  0  2  0  0  0  0  0  0
   44.0850    7.3860   44.1010 C   0  0  0  0  0  0  0  0  0  0  0  0
   44.1430    5.9880   44.1540 C   0  0  0  0  0  3  0  0  0  0  0  0
   45.1120    5.2450   43.5220 C   0  0  0  0  0  3  0  0  0  0  0  0
   46.0980    5.8550   42.7880 C   0  0  0  0  0  0  0  0  0  0  0  0
   47.3470    4.9030   41.9720 Cl  0  0  0  0  0  0  0  0  0  0  0  0
   46.0830    7.2230   42.7070 C   0  0  0  0  0  3  0  0  0  0  0  0
   45.0860    7.9710   43.3590 C   0  0  0  0  0  3  0  0  0  0  0  0
   43.2700   12.5270   45.0270 C   0  0  0  0  0  0  0  0  0  0  0  0
   44.3260   12.9440   44.2940 N   0  0  0  0  0  0  0  0  0  0  0  0
   45.2020   13.8270   44.7380 N   0  0  0  0  0  0  0  0  0  0  0  0
   45.1100   14.3810   45.9550 C   0  0  0  0  0  0  0  0  0  0  0  0
   46.3170   14.3780   44.1800 C   0  0  0  0  0  3  0  0  0  0  0  0
   46.1320   15.2490   46.1550 N   0  0  0  0  0  0  0  0  0  0  0  0
   44.0540   14.0040   46.7680 C   0  0  0  0  0  3  0  0  0  0  0  0
   46.8650   15.2380   45.0560 N   0  0  0  0  0  0  0  0  0  0  0  0
   43.1570   13.0830   46.2810 C   0  0  0  0  0  3  0  0  0  0  0  0
  1  2  2  0  0  0  0
  3  1  1  0  0  0  0
  3  8  1  0  0  0  0
  4  5  1  0  0  0  0
  4  3  1  0  0  0  0
  5  6  1  0  0  0  0
  6 16  1  0  0  0  0
  6  7  1  0  0  0  0
  7  8  1  0  0  0  0
  9 10  1  0  0  0  0
  9  1  1  0  0  0  0
 11 10  2  0  0  0  0
 12 11  1  0  0  0  0
 13 12  1  0  0  0  0
 14 12  2  0  0  0  0
 14 15  1  0  0  0  0
 15  9  2  0  0  0  0
 16 24  1  0  0  0  0
 17 18  1  0  0  0  0
 17 16  2  0  0  0  0
 18 19  1  0  0  0  0
 19 21  2  0  0  0  0
 19 22  1  0  0  0  0
 20 18  1  0  0  0  0
 20 23  2  0  0  0  0
 23 21  1  0  0  0  0
 24 22  2  0  0  0  0
M  END
>  <Pose>
1

>  <Score>
-8.159

$$$$
