/Users/jonathanwahrer/Desktop/Msc/3_Semester/Drug_Design_Praktikum/waehrer_HTS_screening/HTS_experiment/out/docking_results/vina_output/2qfa/1788_docked.pdbqt
 OpenBabel03162221023D

 30 33  0  0  0  0  0  0  0  0999 V2000
   43.5900    9.4030   43.7720 N   0  0  0  0  0  0  0  0  0  0  0  0
   43.9860   10.3850   44.5020 N   0  0  0  0  0  0  0  0  0  0  0  0
   43.1310   11.4720   44.4000 C   0  0  0  0  0  0  0  0  0  0  0  0
   42.1800   11.1080   43.5610 N   0  0  0  0  0  0  0  0  0  0  0  0
   42.4700    9.8190   43.1770 C   0  0  0  0  0  0  0  0  0  0  0  0
   41.7600    9.1670   42.3810 O   0  0  0  0  0  0  0  0  0  0  0  0
   41.1010   11.8750   43.0230 C   0  0  0  0  0  2  0  0  0  0  0  0
   40.1640   12.4340   44.0170 C   0  0  0  0  0  0  0  0  0  0  0  0
   39.9050   13.6940   43.8230 O   0  0  0  0  0  0  0  0  0  0  0  0
   39.5300   11.8580   45.0950 N   0  0  0  0  0  0  0  0  0  0  0  0
   39.6920   10.4970   45.5330 C   0  0  0  0  0  2  0  0  0  0  0  0
   38.5860   12.6640   45.8880 C   0  0  0  0  0  2  0  0  0  0  0  0
   38.8780   10.1930   46.8030 C   0  0  0  0  0  2  0  0  0  0  0  0
   37.4800   10.5710   46.5750 N   0  0  0  0  0  0  0  0  0  0  0  0
   37.3340   11.8760   45.9730 C   0  0  0  0  0  0  0  0  0  0  0  0
   36.6840    9.9740   46.8160 H   0  0  0  0  0  0  0  0  0  0  0  0
   36.2140   12.2630   45.5690 O   0  0  0  0  0  0  0  0  0  0  0  0
   43.4190   12.7020   45.1330 C   0  0  0  0  0  0  0  0  0  0  0  0
   44.6690   13.3060   44.9420 C   0  0  0  0  0  3  0  0  0  0  0  0
   45.0880   14.4230   45.6090 C   0  0  0  0  0  3  0  0  0  0  0  0
   44.2650   15.0360   46.5440 C   0  0  0  0  0  3  0  0  0  0  0  0
   43.0440   14.4550   46.7420 C   0  0  0  0  0  3  0  0  0  0  0  0
   42.6210   13.3120   46.0570 C   0  0  0  0  0  3  0  0  0  0  0  0
   44.2410    8.1430   43.6500 C   0  0  0  0  0  0  0  0  0  0  0  0
   45.4630    8.0540   43.0120 C   0  0  0  0  0  3  0  0  0  0  0  0
   46.1110    6.8380   42.8830 C   0  0  0  0  0  3  0  0  0  0  0  0
   45.5800    5.6610   43.3780 C   0  0  0  0  0  0  0  0  0  0  0  0
   46.3900    4.1150   43.2190 Cl  0  0  0  0  0  0  0  0  0  0  0  0
   44.3540    5.7530   44.0180 C   0  0  0  0  0  3  0  0  0  0  0  0
   43.7010    6.9760   44.1490 C   0  0  0  0  0  3  0  0  0  0  0  0
  1  2  1  0  0  0  0
  3  2  2  0  0  0  0
  3 18  1  0  0  0  0
  4  3  1  0  0  0  0
  5  4  1  0  0  0  0
  5  1  1  0  0  0  0
  6  5  2  0  0  0  0
  7  4  1  0  0  0  0
  7  8  1  0  0  0  0
  8 10  1  0  0  0  0
  9  8  2  0  0  0  0
 10 11  1  0  0  0  0
 10 12  1  0  0  0  0
 11 13  1  0  0  0  0
 12 15  1  0  0  0  0
 14 13  1  0  0  0  0
 14 16  1  0  0  0  0
 15 14  1  0  0  0  0
 17 15  2  0  0  0  0
 18 23  1  0  0  0  0
 19 18  2  0  0  0  0
 19 20  1  0  0  0  0
 20 21  2  0  0  0  0
 21 22  1  0  0  0  0
 23 22  2  0  0  0  0
 24  1  1  0  0  0  0
 24 30  1  0  0  0  0
 25 24  2  0  0  0  0
 26 25  1  0  0  0  0
 26 27  2  0  0  0  0
 27 29  1  0  0  0  0
 28 27  1  0  0  0  0
 29 30  2  0  0  0  0
M  END
>  <Pose>
1

>  <Score>
-8.110

$$$$
