/Users/jonathanwahrer/Desktop/Msc/3_Semester/Drug_Design_Praktikum/waehrer_HTS_screening/HTS_experiment/out/docking_results/vina_output/2qfa/1789_docked.pdbqt
 OpenBabel03162221023D

 29 32  0  0  0  0  0  0  0  0999 V2000
   42.2000    8.9260   43.3200 N   0  0  0  0  0  0  0  0  0  0  0  0
   41.0270    8.8750   42.7340 N   0  0  0  0  0  0  0  0  0  0  0  0
   40.4430   10.0500   42.9470 N   0  0  0  0  0  0  0  0  0  0  0  0
   41.2410   10.8580   43.6700 C   0  0  0  0  0  0  0  0  0  0  0  0
   42.3420   10.1340   43.8950 C   0  0  0  0  0  0  0  0  0  0  0  0
   43.1660   10.9640   44.6420 C   0  0  0  0  0  0  0  0  0  0  0  0
   44.3030   10.6340   45.0500 O   0  0  0  0  0  0  0  0  0  0  0  0
   42.6000   12.1580   44.8710 N   0  0  0  0  0  0  0  0  0  0  0  0
   41.3990   12.0930   44.2660 C   0  0  0  0  0  0  0  0  0  0  0  0
   40.5420   13.0260   44.2450 O   0  0  0  0  0  0  0  0  0  0  0  0
   40.6170    8.0570   42.1930 H   0  0  0  0  0  0  0  0  0  0  0  0
   39.4880   10.2850   42.5850 H   0  0  0  0  0  0  0  0  0  0  0  0
   43.1150   13.2760   45.5880 C   0  0  0  0  0  0  0  0  0  0  0  0
   44.4030   13.7450   45.4240 C   0  0  0  0  0  3  0  0  0  0  0  0
   44.8940   14.8290   46.1220 C   0  0  0  0  0  0  0  0  0  0  0  0
   44.1050   15.5030   47.0310 C   0  0  0  0  0  0  0  0  0  0  0  0
   42.8160   15.0460   47.2050 C   0  0  0  0  0  3  0  0  0  0  0  0
   42.3330   13.9580   46.5000 C   0  0  0  0  0  3  0  0  0  0  0  0
   46.1930   15.3000   45.9570 O   0  0  0  0  0  0  0  0  0  0  0  0
   46.7570   15.2130   44.6610 C   0  0  0  0  0  1  0  0  0  0  0  0
   44.6100   16.5960   47.7310 O   0  0  0  0  0  0  0  0  0  0  0  0
   43.8930   17.7710   47.9520 C   0  0  0  0  0  1  0  0  0  0  0  0
   43.1510    7.8840   43.3390 C   0  0  0  0  0  0  0  0  0  0  0  0
   42.9310    6.7490   44.1140 C   0  0  0  0  0  3  0  0  0  0  0  0
   43.9040    5.7710   44.0830 C   0  0  0  0  0  3  0  0  0  0  0  0
   45.0530    5.8510   43.3490 C   0  0  0  0  0  0  0  0  0  0  0  0
   46.2700    4.5720   43.3430 Cl  0  0  0  0  0  0  0  0  0  0  0  0
   45.2610    6.9740   42.5880 C   0  0  0  0  0  3  0  0  0  0  0  0
   44.3280    7.9720   42.5840 C   0  0  0  0  0  3  0  0  0  0  0  0
  1 23  1  0  0  0  0
  1  5  1  0  0  0  0
  2  3  1  0  0  0  0
  2  1  1  0  0  0  0
  3  4  1  0  0  0  0
  4  5  2  0  0  0  0
  4  9  1  0  0  0  0
  5  6  1  0  0  0  0
  6  8  1  0  0  0  0
  6  7  2  0  0  0  0
  8 13  1  0  0  0  0
  9  8  1  0  0  0  0
 10  9  2  0  0  0  0
 11  2  1  0  0  0  0
 12  3  1  0  0  0  0
 13 18  1  0  0  0  0
 14 13  2  0  0  0  0
 14 15  1  0  0  0  0
 15 16  2  0  0  0  0
 16 17  1  0  0  0  0
 16 21  1  0  0  0  0
 18 17  2  0  0  0  0
 19 15  1  0  0  0  0
 20 19  1  0  0  0  0
 21 22  1  0  0  0  0
 23 24  1  0  0  0  0
 25 24  2  0  0  0  0
 26 25  1  0  0  0  0
 27 26  1  0  0  0  0
 28 26  2  0  0  0  0
 29 28  1  0  0  0  0
 29 23  2  0  0  0  0
M  END
>  <Pose>
1

>  <Score>
-8.107

$$$$
