/Users/jonathanwahrer/Desktop/Msc/3_Semester/Drug_Design_Praktikum/waehrer_HTS_screening/HTS_experiment/out/docking_results/vina_output/2qfa/1790_docked.pdbqt
 OpenBabel03162221023D

 29 32  0  0  0  0  0  0  0  0999 V2000
   42.1610    8.9240   43.3160 N   0  0  0  0  0  0  0  0  0  0  0  0
   40.9900    8.8450   42.7160 N   0  0  0  0  0  0  0  0  0  0  0  0
   40.4020   10.0200   42.9050 N   0  0  0  0  0  0  0  0  0  0  0  0
   41.1810   10.8500   43.6200 C   0  0  0  0  0  0  0  0  0  0  0  0
   42.2950   10.1430   43.8750 C   0  0  0  0  0  0  0  0  0  0  0  0
   43.0940   10.9980   44.6100 C   0  0  0  0  0  0  0  0  0  0  0  0
   44.2400   10.6620   45.0310 O   0  0  0  0  0  0  0  0  0  0  0  0
   42.5050   12.1900   44.8060 N   0  0  0  0  0  0  0  0  0  0  0  0
   41.3150   12.0990   44.1900 C   0  0  0  0  0  0  0  0  0  0  0  0
   40.4600   13.0340   44.1530 O   0  0  0  0  0  0  0  0  0  0  0  0
   40.6200    8.0120   42.1990 H   0  0  0  0  0  0  0  0  0  0  0  0
   39.4560   10.2710   42.5470 H   0  0  0  0  0  0  0  0  0  0  0  0
   43.0720   13.2840   45.5230 C   0  0  0  0  0  0  0  0  0  0  0  0
   42.3440   14.0280   46.4300 C   0  0  0  0  0  3  0  0  0  0  0  0
   42.8710   15.0900   47.1360 C   0  0  0  0  0  0  0  0  0  0  0  0
   44.1920   15.4250   46.9230 C   0  0  0  0  0  3  0  0  0  0  0  0
   44.9670   14.7170   46.0280 C   0  0  0  0  0  0  0  0  0  0  0  0
   44.3910   13.6540   45.3400 C   0  0  0  0  0  3  0  0  0  0  0  0
   42.0850   15.8160   48.0500 O   0  0  0  0  0  0  0  0  0  0  0  0
   41.4680   17.0090   47.6240 C   0  0  0  0  0  1  0  0  0  0  0  0
   46.2930   15.0850   45.8410 O   0  0  0  0  0  0  0  0  0  0  0  0
   46.8560   15.2090   44.5640 C   0  0  0  0  0  1  0  0  0  0  0  0
   43.1330    7.8940   43.3740 C   0  0  0  0  0  0  0  0  0  0  0  0
   42.9500    6.7400   44.1210 C   0  0  0  0  0  3  0  0  0  0  0  0
   43.9120    5.7650   44.1530 C   0  0  0  0  0  3  0  0  0  0  0  0
   45.0940    5.8840   43.4520 C   0  0  0  0  0  0  0  0  0  0  0  0
   46.3010    4.5930   43.5310 Cl  0  0  0  0  0  0  0  0  0  0  0  0
   45.2960    7.0160   42.7070 C   0  0  0  0  0  3  0  0  0  0  0  0
   44.3260    7.9960   42.6770 C   0  0  0  0  0  3  0  0  0  0  0  0
  1 23  1  0  0  0  0
  1  5  1  0  0  0  0
  2  3  1  0  0  0  0
  2  1  1  0  0  0  0
  3  4  1  0  0  0  0
  4  5  2  0  0  0  0
  4  9  1  0  0  0  0
  5  6  1  0  0  0  0
  6  8  1  0  0  0  0
  6  7  2  0  0  0  0
  8 13  1  0  0  0  0
  9  8  1  0  0  0  0
 10  9  2  0  0  0  0
 11  2  1  0  0  0  0
 12  3  1  0  0  0  0
 13 14  1  0  0  0  0
 14 15  2  0  0  0  0
 15 19  1  0  0  0  0
 16 15  1  0  0  0  0
 17 16  2  0  0  0  0
 18 13  2  0  0  0  0
 18 17  1  0  0  0  0
 20 19  1  0  0  0  0
 21 17  1  0  0  0  0
 22 21  1  0  0  0  0
 23 24  1  0  0  0  0
 24 25  2  0  0  0  0
 26 27  1  0  0  0  0
 26 25  1  0  0  0  0
 28 26  2  0  0  0  0
 29 28  1  0  0  0  0
 29 23  2  0  0  0  0
M  END
>  <Pose>
1

>  <Score>
-8.270

$$$$
