/Users/jonathanwahrer/Desktop/Msc/3_Semester/Drug_Design_Praktikum/waehrer_HTS_screening/HTS_experiment/out/docking_results/vina_output/2qfa/1801_docked.pdbqt
 OpenBabel03162221023D

 26 29  0  0  0  0  0  0  0  0999 V2000
   46.1970   14.6330   44.2170 Cl  0  0  0  0  0  0  0  0  0  0  0  0
   44.9030   13.9120   45.1740 C   0  0  0  0  0  0  0  0  0  0  0  0
   44.3910   12.6720   44.8350 C   0  0  0  0  0  3  0  0  0  0  0  0
   43.3870   12.1020   45.5680 C   0  0  0  0  0  0  0  0  0  0  0  0
   42.9190   12.8160   46.6460 C   0  0  0  0  0  0  0  0  0  0  0  0
   43.4090   14.0440   47.0030 C   0  0  0  0  0  3  0  0  0  0  0  0
   44.4250   14.6100   46.2520 C   0  0  0  0  0  3  0  0  0  0  0  0
   41.8360   12.2310   47.4610 C   0  0  0  0  0  0  0  0  0  0  0  0
   41.2030   12.6420   48.5030 N   0  0  0  0  0  0  0  0  0  0  0  0
   40.2130   11.7020   48.9420 C   0  0  0  0  0  3  0  0  0  0  0  0
   40.3100   10.5660   47.9770 C   0  0  0  0  0  3  0  0  0  0  0  0
   41.3550   10.9590   47.0610 N   0  0  0  0  0  0  0  0  0  0  0  0
   41.8810   10.2570   45.9260 C   0  0  0  0  0  0  0  0  0  0  0  0
   41.5870    9.0700   45.3740 N   0  0  0  0  0  0  0  0  0  0  0  0
   42.3560    8.8560   44.3220 N   0  0  0  0  0  0  0  0  0  0  0  0
   43.1440    9.9400   44.2230 C   0  0  0  0  0  0  0  0  0  0  0  0
   44.0150   10.0940   43.3320 O   0  0  0  0  0  0  0  0  0  0  0  0
   42.8670   10.8300   45.2130 N   0  0  0  0  0  0  0  0  0  0  0  0
   42.3690    7.6960   43.4350 C   0  0  0  0  0  2  0  0  0  0  0  0
   43.5790    6.8900   43.7180 C   0  0  0  0  0  0  0  0  0  0  0  0
   43.5660    6.1000   44.7040 O   0  0  0  0  0  0  0  0  0  0  0  0
   44.7550    6.9650   42.9270 N   0  0  0  0  0  0  0  0  0  0  0  0
   44.7480    7.6200   42.1190 H   0  0  0  0  0  0  0  0  0  0  0  0
   45.9120    6.1580   43.2430 C   0  0  0  0  0  3  0  0  0  0  0  0
   46.2600    5.2360   42.0720 C   0  0  0  0  0  1  0  0  0  0  0  0
   47.0880    7.1160   43.3790 C   0  0  0  0  0  1  0  0  0  0  0  0
  1  2  1  0  0  0  0
  2  7  1  0  0  0  0
  3  2  2  0  0  0  0
  3  4  1  0  0  0  0
  4  5  2  0  0  0  0
  5  6  1  0  0  0  0
  5  8  1  0  0  0  0
  7  6  2  0  0  0  0
  8  9  2  0  0  0  0
  9 10  1  0  0  0  0
 11 10  2  0  0  0  0
 12  8  1  0  0  0  0
 12 11  1  0  0  0  0
 13 12  1  0  0  0  0
 14 13  2  0  0  0  0
 15 14  1  0  0  0  0
 16 15  1  0  0  0  0
 16 18  1  0  0  0  0
 17 16  2  0  0  0  0
 18  4  1  0  0  0  0
 18 13  1  0  0  0  0
 19 20  1  0  0  0  0
 19 15  1  0  0  0  0
 20 21  2  0  0  0  0
 22 24  1  0  0  0  0
 22 20  1  0  0  0  0
 23 22  1  0  0  0  0
 24 26  1  0  0  0  0
 25 24  1  0  0  0  0
M  END
>  <Pose>
1

>  <Score>
-7.078

$$$$
