/Users/jonathanwahrer/Desktop/Msc/3_Semester/Drug_Design_Praktikum/waehrer_HTS_screening/HTS_experiment/out/docking_results/vina_output/2qfa/1802_docked.pdbqt
 OpenBabel03162221033D

 27 30  0  0  0  0  0  0  0  0999 V2000
   46.6690   15.0820   44.2320 Cl  0  0  0  0  0  0  0  0  0  0  0  0
   45.4110   14.3880   45.2580 C   0  0  0  0  0  0  0  0  0  0  0  0
   44.6940   13.2910   44.7740 C   0  0  0  0  0  3  0  0  0  0  0  0
   43.7030   12.6940   45.5270 C   0  0  0  0  0  0  0  0  0  0  0  0
   43.4600   13.2380   46.7730 C   0  0  0  0  0  0  0  0  0  0  0  0
   44.1310   14.3020   47.2800 C   0  0  0  0  0  3  0  0  0  0  0  0
   45.1380   14.9000   46.5070 C   0  0  0  0  0  3  0  0  0  0  0  0
   42.3930   12.5810   47.5700 C   0  0  0  0  0  0  0  0  0  0  0  0
   41.9250   12.8380   48.7540 N   0  0  0  0  0  0  0  0  0  0  0  0
   40.8770   11.9050   49.0980 C   0  0  0  0  0  3  0  0  0  0  0  0
   40.7330   10.9590   47.9310 C   0  0  0  0  0  3  0  0  0  0  0  0
   41.7260   11.4810   47.0070 N   0  0  0  0  0  0  0  0  0  0  0  0
   42.0370   10.9790   45.7090 C   0  0  0  0  0  0  0  0  0  0  0  0
   41.5350    9.9490   44.9970 N   0  0  0  0  0  0  0  0  0  0  0  0
   42.1700    9.8760   43.8290 N   0  0  0  0  0  0  0  0  0  0  0  0
   43.0570   10.8690   43.8490 C   0  0  0  0  0  0  0  0  0  0  0  0
   43.8630   11.1370   42.9150 O   0  0  0  0  0  0  0  0  0  0  0  0
   42.9970   11.5780   45.0100 N   0  0  0  0  0  0  0  0  0  0  0  0
   41.9380    8.8910   42.7690 C   0  0  0  0  0  2  0  0  0  0  0  0
   42.7930    7.6750   43.2410 C   0  0  0  0  0  0  0  0  0  0  0  0
   41.9950    6.8000   43.7300 O   0  0  0  0  0  0  0  0  0  0  0  0
   44.1260    7.6790   43.1060 N   0  0  0  0  0  0  0  0  0  0  0  0
   44.1800    6.4050   43.5710 H   0  0  0  0  0  0  0  0  0  0  0  0
   45.4970    7.6840   42.9660 C   0  0  0  0  0  2  0  0  0  0  0  0
   46.1040    6.2810   43.0830 C   0  0  0  0  0  2  0  0  0  0  0  0
   46.4270    5.7680   41.8500 O   0  0  0  0  0  0  0  0  0  0  0  0
   47.0320    4.5440   41.8620 C   0  0  0  0  0  1  0  0  0  0  0  0
  1  2  1  0  0  0  0
  2  7  1  0  0  0  0
  3  2  2  0  0  0  0
  3  4  1  0  0  0  0
  4  5  2  0  0  0  0
  5  6  1  0  0  0  0
  5  8  1  0  0  0  0
  7  6  2  0  0  0  0
  8  9  2  0  0  0  0
  9 10  1  0  0  0  0
 11 10  2  0  0  0  0
 12  8  1  0  0  0  0
 12 11  1  0  0  0  0
 13 12  1  0  0  0  0
 14 13  2  0  0  0  0
 15 16  1  0  0  0  0
 15 14  1  0  0  0  0
 16 18  1  0  0  0  0
 17 16  2  0  0  0  0
 18  4  1  0  0  0  0
 18 13  1  0  0  0  0
 19 20  1  0  0  0  0
 19 15  1  0  0  0  0
 20 21  2  0  0  0  0
 22 20  1  0  0  0  0
 22 23  1  0  0  0  0
 24 25  1  0  0  0  0
 24 22  1  0  0  0  0
 26 27  1  0  0  0  0
 26 25  1  0  0  0  0
M  END
>  <Pose>
1

>  <Score>
-6.619

$$$$
