/Users/jonathanwahrer/Desktop/Msc/3_Semester/Drug_Design_Praktikum/waehrer_HTS_screening/HTS_experiment/out/docking_results/vina_output/2qfa/1806_docked.pdbqt
 OpenBabel03162221033D

 32 35  0  0  0  0  0  0  0  0999 V2000
   44.6380    7.4180   43.9600 N   0  0  0  0  0  0  0  0  0  0  0  0
   43.4850    6.5690   44.1810 C   0  0  0  0  0  2  0  0  0  0  0  0
   42.2610    7.4900   44.3050 C   0  0  0  0  0  2  0  0  0  0  0  0
   42.6270    8.8650   44.3430 N   0  0  0  0  0  0  0  0  0  0  0  0
   43.3010    9.3430   43.1370 C   0  0  0  0  0  2  0  0  0  0  0  0
   44.5190    8.4680   42.9670 C   0  0  0  0  0  2  0  0  0  0  0  0
   45.8740    7.2500   44.6420 C   0  0  0  0  0  3  0  0  0  0  0  0
   46.7790    6.3270   44.4180 C   0  0  0  0  0  0  0  0  0  0  0  0
   46.6320    5.3330   43.4220 N   0  0  0  0  0  0  0  0  0  0  0  0
   47.9860    6.3070   45.2130 N   0  0  0  0  0  0  0  0  0  0  0  0
   47.6550    4.3340   43.2090 C   0  0  0  0  0  0  0  0  0  0  0  0
   45.7830    5.3120   42.8300 H   0  0  0  0  0  0  0  0  0  0  0  0
   48.8070    4.2980   43.9530 C   0  0  0  0  0  0  0  0  0  0  0  0
   47.4720    3.3890   42.2330 C   0  0  0  0  0  3  0  0  0  0  0  0
   49.7630    3.3280   43.7220 C   0  0  0  0  0  3  0  0  0  0  0  0
   48.9690    5.3150   44.9810 C   0  0  0  0  0  0  0  0  0  0  0  0
   49.5790    2.3910   42.7530 C   0  0  0  0  0  0  0  0  0  0  0  0
   50.7630    1.1300   42.4140 Cl  0  0  0  0  0  0  0  0  0  0  0  0
   48.4280    2.4160   41.9990 C   0  0  0  0  0  3  0  0  0  0  0  0
   50.0450    5.2780   45.6720 O   0  0  0  0  0  0  0  0  0  0  0  0
   48.1280    7.0220   45.9540 H   0  0  0  0  0  0  0  0  0  0  0  0
   42.4470    9.8110   45.3820 C   0  0  0  0  0  0  0  0  0  0  0  0
   43.2320    9.6910   46.5160 N   0  0  0  0  0  0  0  0  0  0  0  0
   43.1500   10.5060   47.5660 C   0  0  0  0  0  3  0  0  0  0  0  0
   42.2380   11.5230   47.5250 C   0  0  0  0  0  3  0  0  0  0  0  0
   41.4460   11.6730   46.4210 C   0  0  0  0  0  3  0  0  0  0  0  0
   41.5280   10.8150   45.3060 C   0  0  0  0  0  0  0  0  0  0  0  0
   40.7040   11.0200   44.1540 C   0  0  0  0  0  0  0  0  0  0  0  0
   40.9630   11.7620   43.2090 O   0  0  0  0  0  0  0  0  0  0  0  0
   39.4710   10.3160   44.0700 N   0  0  0  0  0  0  0  0  0  0  0  0
   39.4550    9.2790   43.9430 H   0  0  0  0  0  0  0  0  0  0  0  0
   38.5370   10.7790   44.1270 H   0  0  0  0  0  0  0  0  0  0  0  0
  1  2  1  0  0  0  0
  1  7  1  0  0  0  0
  2  3  1  0  0  0  0
  3  4  1  0  0  0  0
  4 22  1  0  0  0  0
  5  4  1  0  0  0  0
  6  5  1  0  0  0  0
  6  1  1  0  0  0  0
  8  7  2  0  0  0  0
  8 10  1  0  0  0  0
  9  8  1  0  0  0  0
 10 21  1  0  0  0  0
 11  9  1  0  0  0  0
 11 13  1  0  0  0  0
 12  9  1  0  0  0  0
 13 16  1  0  0  0  0
 14 11  2  0  0  0  0
 15 13  2  0  0  0  0
 16 10  1  0  0  0  0
 16 20  2  0  0  0  0
 17 15  1  0  0  0  0
 18 17  1  0  0  0  0
 19 14  1  0  0  0  0
 19 17  2  0  0  0  0
 22 23  1  0  0  0  0
 23 24  2  0  0  0  0
 25 24  1  0  0  0  0
 26 25  2  0  0  0  0
 27 22  2  0  0  0  0
 27 26  1  0  0  0  0
 28 27  1  0  0  0  0
 29 28  2  0  0  0  0
 30 32  1  0  0  0  0
 30 28  1  0  0  0  0
 31 30  1  0  0  0  0
M  END
>  <Pose>
1

>  <Score>
-7.413

$$$$
