/Users/jonathanwahrer/Desktop/Msc/3_Semester/Drug_Design_Praktikum/waehrer_HTS_screening/HTS_experiment/out/docking_results/vina_output/2qfa/1808_docked.pdbqt
 OpenBabel03162210163D

 24 28  0  0  1  0  0  0  0  0999 V2000
   41.9360   12.0720   45.3880 N   0  0  0  0  0  0  0  0  0  0  0  0
   41.9370   10.7860   45.9870 C   0  0  0  0  0  0  0  0  0  0  0  0
   42.3710   10.5450   47.1390 O   0  0  0  0  0  0  0  0  0  0  0  0
   41.3490    9.8060   45.0340 C   0  0  2  0  0  3  0  0  0  0  0  0
   42.3960    9.1100   44.2200 C   0  0  1  0  0  0  0  0  0  0  0  0
   41.6830    8.8920   43.0200 O   0  0  0  0  0  0  0  0  0  0  0  0
   41.4120   10.2540   42.7330 C   0  0  1  0  0  3  0  0  0  0  0  0
   40.6770   10.6640   43.9620 C   0  0  2  0  0  3  0  0  0  0  0  0
   41.0000   12.0740   44.3100 C   0  0  0  0  0  0  0  0  0  0  0  0
   40.5260   13.0650   43.7470 O   0  0  0  0  0  0  0  0  0  0  0  0
   42.7940   10.7960   42.8070 C   0  0  0  0  0  2  0  0  0  0  0  0
   43.3810   10.1140   43.7860 C   0  0  0  0  0  2  0  0  0  0  0  0
   42.7690   13.1440   45.8480 C   0  0  0  0  0  0  0  0  0  0  0  0
   44.1050   13.2110   45.5230 C   0  0  0  0  0  3  0  0  0  0  0  0
   44.9170   14.2340   45.9600 C   0  0  0  0  0  3  0  0  0  0  0  0
   44.3630   15.2130   46.7490 C   0  0  0  0  0  0  0  0  0  0  0  0
   45.4490   16.6380   47.3730 Br  0  0  0  0  0  0  0  0  0  0  0  0
   43.0340   15.1670   47.0880 C   0  0  0  0  0  3  0  0  0  0  0  0
   42.2070   14.1320   46.6460 C   0  0  0  0  0  3  0  0  0  0  0  0
   42.9340    7.8730   44.8000 C   0  0  0  0  0  3  0  0  0  0  0  0
   44.2120    7.9890   45.2730 O   0  0  0  0  0  0  0  0  0  0  0  0
   45.0510    7.2660   44.4620 C   0  0  0  0  0  2  0  0  0  0  0  0
   44.1910    6.6500   43.4070 C   0  0  0  0  0  2  0  0  0  0  0  0
   42.9020    6.8250   43.8980 O   0  0  0  0  0  0  0  0  0  0  0  0
  1 13  1  0  0  0  0
  1  2  1  0  0  0  0
  2  3  2  0  0  0  0
  4  2  1  1  0  0  0
  5 20  1  1  0  0  0
  5  4  1  0  0  0  0
  6  5  1  0  0  0  0
  7 11  1  1  0  0  0
  7  6  1  0  0  0  0
  7  8  1  0  0  0  0
  8  9  1  1  0  0  0
  8  4  1  0  0  0  0
  9  1  1  0  0  0  0
 10  9  2  0  0  0  0
 11 12  1  0  0  0  0
 12  5  1  0  0  0  0
 13 19  1  0  0  0  0
 14 13  2  0  0  0  0
 14 15  1  0  0  0  0
 15 16  2  0  0  0  0
 16 18  1  0  0  0  0
 16 17  1  0  0  0  0
 19 18  2  0  0  0  0
 20 21  1  0  0  0  0
 22 21  1  0  0  0  0
 23 24  1  0  0  0  0
 23 22  1  0  0  0  0
 24 20  1  0  0  0  0
M  END
>  <Pose>
1

>  <Score>
-7.239

$$$$
