/Users/jonathanwahrer/Desktop/Msc/3_Semester/Drug_Design_Praktikum/waehrer_HTS_screening/HTS_experiment/out/docking_results/vina_output/2qfa/1810_docked.pdbqt
 OpenBabel03162221043D

 32 35  0  0  1  0  0  0  0  0999 V2000
   41.9650   12.2010   46.5920 N   0  0  0  0  0  0  0  0  0  0  0  0
   40.8000   11.8630   45.8150 C   0  0  0  0  0  2  0  0  0  0  0  0
   40.8970   10.4010   45.4500 C   0  0  0  0  0  2  0  0  0  0  0  0
   41.9450    9.7840   46.2220 N   0  0  0  0  0  0  0  0  0  0  0  0
   42.1330   10.0860   47.6360 C   0  0  0  0  0  2  0  0  0  0  0  0
   41.8310   11.5650   47.8870 C   0  0  0  0  0  2  0  0  0  0  0  0
   42.8230    8.8740   45.6060 C   0  0  0  0  0  0  0  0  0  0  0  0
   43.7240    8.3050   46.3160 O   0  0  0  0  0  0  0  0  0  0  0  0
   42.7120    8.5790   44.1520 C   0  0  1  0  0  3  0  0  0  0  0  0
   43.9780    8.8720   43.4000 C   0  0  0  0  0  2  0  0  0  0  0  0
   44.5920    7.5720   43.1490 N   0  0  0  0  0  0  0  0  0  0  0  0
   43.8200    6.5530   43.7580 C   0  0  0  0  0  0  0  0  0  0  0  0
   44.2590    5.4230   44.0790 O   0  0  0  0  0  0  0  0  0  0  0  0
   42.4610    7.1170   43.9080 C   0  0  0  0  0  2  0  0  0  0  0  0
   45.8090    7.3710   42.3950 C   0  0  0  0  0  2  0  0  0  0  0  0
   46.7490    6.4660   43.0980 C   0  0  0  0  0  0  0  0  0  0  0  0
   47.0530    5.2360   42.5340 C   0  0  0  0  0  0  0  0  0  0  0  0
   47.9210    4.3380   43.1320 C   0  0  0  0  0  3  0  0  0  0  0  0
   46.3060    4.8210   41.0150 Cl  0  0  0  0  0  0  0  0  0  0  0  0
   48.4870    4.7130   44.3330 C   0  0  0  0  0  3  0  0  0  0  0  0
   48.2060    5.9330   44.9240 C   0  0  0  0  0  3  0  0  0  0  0  0
   47.3280    6.8170   44.2990 C   0  0  0  0  0  3  0  0  0  0  0  0
   42.1580   13.9040   46.7250 S   0  0  0  0  0  0  0  0  0  0  0  0
   41.6920   14.4120   48.0600 O   0  0  0  0  0  0  0  0  0  0  0  0
   41.2330   14.5270   45.7000 O   0  0  0  0  0  0  0  0  0  0  0  0
   43.7880   14.3950   46.3790 C   0  0  0  0  0  0  0  0  0  0  0  0
   44.5360   15.4430   46.8660 C   0  0  0  0  0  0  0  0  0  0  0  0
   45.7630   15.3900   46.2630 N   0  0  0  0  0  0  0  0  0  0  0  0
   44.0750   16.4260   47.8650 C   0  0  0  0  0  1  0  0  0  0  0  0
   45.7630   14.3860   45.4690 O   0  0  0  0  0  0  0  0  0  0  0  0
   44.6190   13.7450   45.4860 C   0  0  0  0  0  0  0  0  0  0  0  0
   44.3420   12.5460   44.6660 C   0  0  0  0  0  1  0  0  0  0  0  0
  1 23  1  0  0  0  0
  1  6  1  0  0  0  0
  2  1  1  0  0  0  0
  3  2  1  0  0  0  0
  3  4  1  0  0  0  0
  4  5  1  0  0  0  0
  5  6  1  0  0  0  0
  7  4  1  0  0  0  0
  7  8  2  0  0  0  0
  9  7  1  1  0  0  0
 10  9  1  0  0  0  0
 11 10  1  0  0  0  0
 11 12  1  0  0  0  0
 12 14  1  0  0  0  0
 12 13  2  0  0  0  0
 14  9  1  0  0  0  0
 15 16  1  0  0  0  0
 15 11  1  0  0  0  0
 16 22  1  0  0  0  0
 17 16  2  0  0  0  0
 17 18  1  0  0  0  0
 18 20  2  0  0  0  0
 19 17  1  0  0  0  0
 20 21  1  0  0  0  0
 22 21  2  0  0  0  0
 23 24  2  0  0  0  0
 25 23  2  0  0  0  0
 26 23  1  0  0  0  0
 26 27  1  0  0  0  0
 27 29  1  0  0  0  0
 28 27  2  0  0  0  0
 30 31  1  0  0  0  0
 30 28  1  0  0  0  0
 31 26  2  0  0  0  0
 32 31  1  0  0  0  0
M  END
>  <Pose>
1

>  <Score>
-7.872

$$$$
