/Users/jonathanwahrer/Desktop/Msc/3_Semester/Drug_Design_Praktikum/waehrer_HTS_screening/HTS_experiment/out/docking_results/vina_output/2qfa/1816_docked.pdbqt
 OpenBabel03162221043D

 36 39  0  0  0  0  0  0  0  0999 V2000
   42.3570    7.9260   45.8010 C   0  0  0  0  0  0  0  0  0  0  0  0
   41.6510    6.9820   46.2990 O   0  0  0  0  0  0  0  0  0  0  0  0
   43.1100    7.6410   44.6760 N   0  0  0  0  0  0  0  0  0  0  0  0
   43.1360    6.3540   44.0530 C   0  0  0  0  0  2  0  0  0  0  0  0
   44.5810    5.8520   44.0740 C   0  0  0  0  0  2  0  0  0  0  0  0
   45.4270    6.8140   43.4530 N   0  0  0  0  0  0  0  0  0  0  0  0
   44.7770    8.0510   42.9710 C   0  0  0  0  0  2  0  0  0  0  0  0
   43.9280    8.6620   44.0630 C   0  0  0  0  0  2  0  0  0  0  0  0
   46.8200    6.6870   43.2680 C   0  0  0  0  0  0  0  0  0  0  0  0
   47.3660    7.7280   42.6490 O   0  0  0  0  0  0  0  0  0  0  0  0
   42.3030    9.2500   46.4810 C   0  0  0  0  0  2  0  0  0  0  0  0
   40.9270    9.7970   46.4890 C   0  0  0  0  0  0  0  0  0  0  0  0
   40.4360   10.4660   45.3690 C   0  0  0  0  0  0  0  0  0  0  0  0
   39.2270   10.9690   45.3200 O   0  0  0  0  0  0  0  0  0  0  0  0
   41.2310   10.5670   44.3760 O   0  0  0  0  0  0  0  0  0  0  0  0
   38.3810   10.8870   46.3180 C   0  0  0  0  0  0  0  0  0  0  0  0
   38.7650   10.2460   47.4730 C   0  0  0  0  0  0  0  0  0  0  0  0
   37.0950   11.4360   46.2350 C   0  0  0  0  0  3  0  0  0  0  0  0
   37.8680   10.1660   48.5100 C   0  0  0  0  0  3  0  0  0  0  0  0
   40.0510    9.7000   47.5460 C   0  0  0  0  0  0  0  0  0  0  0  0
   36.5910   10.7130   48.4250 C   0  0  0  0  0  0  0  0  0  0  0  0
   35.4480   10.6160   49.7440 Cl  0  0  0  0  0  0  0  0  0  0  0  0
   36.1960   11.3570   47.2750 C   0  0  0  0  0  0  0  0  0  0  0  0
   40.4480    9.0190   48.7740 C   0  0  0  0  0  1  0  0  0  0  0  0
   34.9060   11.9130   47.1830 O   0  0  0  0  0  0  0  0  0  0  0  0
   34.1920   11.9390   45.9720 C   0  0  0  0  0  1  0  0  0  0  0  0
   47.7420    5.6510   43.6230 C   0  0  0  0  0  0  0  0  0  0  0  0
   47.9600    4.5770   42.7240 C   0  0  0  0  0  3  0  0  0  0  0  0
   48.8300    3.5640   43.0280 C   0  0  0  0  0  0  0  0  0  0  0  0
   49.0060    2.6210   42.2120 O   0  0  0  0  0  0  0  0  0  0  0  0
   49.5180    3.5220   44.1770 N   0  0  0  0  0  0  0  0  0  0  0  0
   49.3120    4.5320   45.0230 C   0  0  0  0  0  0  0  0  0  0  0  0
   50.4290    2.4430   44.4810 C   0  0  0  0  0  1  0  0  0  0  0  0
   49.9430    4.5380   46.1310 O   0  0  0  0  0  0  0  0  0  0  0  0
   48.4440    5.5670   44.7470 N   0  0  0  0  0  0  0  0  0  0  0  0
   48.3590    6.3070   45.4720 H   0  0  0  0  0  0  0  0  0  0  0  0
  1  2  2  0  0  0  0
  1 11  1  0  0  0  0
  3  1  1  0  0  0  0
  4  5  1  0  0  0  0
  4  3  1  0  0  0  0
  6  5  1  0  0  0  0
  7  6  1  0  0  0  0
  7  8  1  0  0  0  0
  8  3  1  0  0  0  0
  9  6  1  0  0  0  0
  9 27  1  0  0  0  0
 10  9  2  0  0  0  0
 11 12  1  0  0  0  0
 12 20  2  0  0  0  0
 13 12  1  0  0  0  0
 14 13  1  0  0  0  0
 14 16  1  0  0  0  0
 15 13  2  0  0  0  0
 16 17  1  0  0  0  0
 17 20  1  0  0  0  0
 17 19  2  0  0  0  0
 18 16  2  0  0  0  0
 18 23  1  0  0  0  0
 20 24  1  0  0  0  0
 21 19  1  0  0  0  0
 21 22  1  0  0  0  0
 23 21  2  0  0  0  0
 25 23  1  0  0  0  0
 26 25  1  0  0  0  0
 27 35  1  0  0  0  0
 28 29  1  0  0  0  0
 28 27  2  0  0  0  0
 29 31  1  0  0  0  0
 30 29  2  0  0  0  0
 31 33  1  0  0  0  0
 31 32  1  0  0  0  0
 32 34  2  0  0  0  0
 35 32  1  0  0  0  0
 35 36  1  0  0  0  0
M  END
>  <Pose>
1

>  <Score>
-8.445

$$$$
