/Users/jonathanwahrer/Desktop/Msc/3_Semester/Drug_Design_Praktikum/waehrer_HTS_screening/HTS_experiment/out/docking_results/vina_output/2qfa/1822_docked.pdbqt
 OpenBabel03162221043D

 24 27  0  0  1  0  0  0  0  0999 V2000
   47.7930   17.3940   45.1140 Cl  0  0  0  0  0  0  0  0  0  0  0  0
   46.5490   16.2070   45.4900 C   0  0  0  0  0  0  0  0  0  0  0  0
   45.7450   16.4270   46.5870 C   0  0  0  0  0  0  0  0  0  0  0  0
   44.7990   15.5160   46.8650 N   0  0  0  0  0  0  0  0  0  0  0  0
   44.6090   14.4010   46.1110 C   0  0  0  0  0  0  0  0  0  0  0  0
   45.3870   14.1770   45.0390 N   0  0  0  0  0  0  0  0  0  0  0  0
   45.0120   13.0350   44.4710 N   0  0  0  0  0  0  0  0  0  0  0  0
   43.9870   12.4900   45.1560 C   0  0  0  0  0  0  0  0  0  0  0  0
   43.7580   13.3620   46.1710 N   0  0  0  0  0  0  0  0  0  0  0  0
   46.3530   15.0760   44.7290 C   0  0  0  0  0  0  0  0  0  0  0  0
   47.0900   14.8670   43.7140 O   0  0  0  0  0  0  0  0  0  0  0  0
   45.9420   17.6540   47.4300 C   0  0  0  0  0  1  0  0  0  0  0  0
   44.1850   15.6770   47.6980 H   0  0  0  0  0  0  0  0  0  0  0  0
   43.2980   11.2740   44.8810 N   0  0  0  0  0  0  0  0  0  0  0  0
   42.7980   10.8680   43.6150 C   0  0  0  0  0  0  0  0  0  0  0  0
   43.1310   11.2840   42.4750 O   0  0  0  0  0  0  0  0  0  0  0  0
   41.7520    9.8080   43.8160 C   0  0  2  0  0  3  0  0  0  0  0  0
   41.8750    9.3890   45.2380 C   0  0  1  0  0  3  0  0  0  0  0  0
   42.0460    8.6500   42.8870 C   0  0  0  0  0  2  0  0  0  0  0  0
   42.3080    7.9470   45.4330 C   0  0  0  0  0  2  0  0  0  0  0  0
   42.9640   10.2250   45.7770 C   0  0  0  0  0  0  0  0  0  0  0  0
   43.5100    7.7430   44.5620 C   0  0  0  0  0  3  0  0  0  0  0  0
   43.3590    8.1000   43.3000 C   0  0  0  0  0  3  0  0  0  0  0  0
   43.5410   10.0450   46.8990 O   0  0  0  0  0  0  0  0  0  0  0  0
  1  2  1  0  0  0  0
  2  3  2  0  0  0  0
  3  4  1  0  0  0  0
  3 12  1  0  0  0  0
  4 13  1  0  0  0  0
  5  9  2  0  0  0  0
  5  4  1  0  0  0  0
  6  5  1  0  0  0  0
  7  6  1  0  0  0  0
  7  8  2  0  0  0  0
  8  9  1  0  0  0  0
 10  6  1  0  0  0  0
 10  2  1  0  0  0  0
 11 10  2  0  0  0  0
 14  8  1  0  0  0  0
 14 21  1  0  0  0  0
 15 17  1  0  0  0  0
 15 14  1  0  0  0  0
 16 15  2  0  0  0  0
 17 19  1  6  0  0  0
 17 18  1  0  0  0  0
 18 20  1  6  0  0  0
 18 21  1  0  0  0  0
 19 23  1  0  0  0  0
 21 24  2  0  0  0  0
 22 20  1  0  0  0  0
 23 22  2  0  0  0  0
M  END
>  <Pose>
1

>  <Score>
-7.116

$$$$
