/Users/jonathanwahrer/Desktop/Msc/3_Semester/Drug_Design_Praktikum/waehrer_HTS_screening/HTS_experiment/out/docking_results/vina_output/2qfa/1825_docked.pdbqt
 OpenBabel03162221043D

 29 32  0  0  1  0  0  0  0  0999 V2000
   42.1030   10.8230   45.9930 N   0  0  0  0  0  0  0  0  0  0  0  0
   41.5880   11.0260   44.7440 C   0  0  1  0  0  3  0  0  0  0  0  0
   42.0560   10.0770   43.9160 N   0  0  0  0  0  0  0  0  0  0  0  0
   42.8690    9.2420   44.5760 C   0  0  0  0  0  0  0  0  0  0  0  0
   42.8770    9.7410   45.8870 C   0  0  0  0  0  3  0  0  0  0  0  0
   41.5070   10.3090   42.5810 C   0  0  0  0  0  2  0  0  0  0  0  0
   40.9810   11.7320   42.6090 C   0  0  0  0  0  2  0  0  0  0  0  0
   40.6670   11.9580   44.0450 C   0  0  0  0  0  2  0  0  0  0  0  0
   41.8330   11.6760   47.1600 C   0  0  0  0  0  2  0  0  0  0  0  0
   42.9700   12.6680   47.2980 C   0  0  0  0  0  0  0  0  0  0  0  0
   43.0560   13.7920   46.4930 N   0  0  0  0  0  0  0  0  0  0  0  0
   42.2760   13.9230   45.7790 H   0  0  0  0  0  0  0  0  0  0  0  0
   43.8000   12.3920   48.1710 O   0  0  0  0  0  0  0  0  0  0  0  0
   44.0720   14.7670   46.5300 C   0  0  0  0  0  0  0  0  0  0  0  0
   45.1420   14.6500   45.6160 C   0  0  0  0  0  0  0  0  0  0  0  0
   46.1710   15.5640   45.6000 C   0  0  0  0  0  0  0  0  0  0  0  0
   45.1630   13.5290   44.6600 C   0  0  0  0  0  1  0  0  0  0  0  0
   47.5010   15.4350   44.4690 Cl  0  0  0  0  0  0  0  0  0  0  0  0
   46.2050   16.6280   46.4710 C   0  0  0  0  0  3  0  0  0  0  0  0
   45.1810   16.7670   47.3720 C   0  0  0  0  0  3  0  0  0  0  0  0
   44.1290   15.8290   47.3840 C   0  0  0  0  0  3  0  0  0  0  0  0
   43.6260    8.0740   44.1560 C   0  0  0  0  0  0  0  0  0  0  0  0
   44.7470    8.1610   43.3780 C   0  0  0  0  0  3  0  0  0  0  0  0
   45.4880    7.0610   42.9870 C   0  0  0  0  0  3  0  0  0  0  0  0
   45.1170    5.7830   43.3740 C   0  0  0  0  0  0  0  0  0  0  0  0
   43.9910    5.6940   44.1560 C   0  0  0  0  0  3  0  0  0  0  0  0
   43.2510    6.7920   44.5470 C   0  0  0  0  0  3  0  0  0  0  0  0
   45.8340    4.6580   43.0010 O   0  0  0  0  0  0  0  0  0  0  0  0
   46.9240    4.7070   42.0990 C   0  0  0  0  0  1  0  0  0  0  0  0
  1  9  1  0  0  0  0
  2  8  1  1  0  0  0
  2  1  1  0  0  0  0
  3  4  1  0  0  0  0
  3  2  1  0  0  0  0
  4  5  2  0  0  0  0
  5  1  1  0  0  0  0
  6  7  1  0  0  0  0
  6  3  1  0  0  0  0
  7  8  1  0  0  0  0
  9 10  1  0  0  0  0
 10 13  2  0  0  0  0
 11 14  1  0  0  0  0
 11 10  1  0  0  0  0
 12 11  1  0  0  0  0
 14 21  1  0  0  0  0
 15 14  2  0  0  0  0
 16 15  1  0  0  0  0
 16 19  2  0  0  0  0
 17 15  1  0  0  0  0
 18 16  1  0  0  0  0
 19 20  1  0  0  0  0
 20 21  2  0  0  0  0
 22 27  1  0  0  0  0
 22  4  1  0  0  0  0
 23 22  2  0  0  0  0
 24 25  2  0  0  0  0
 24 23  1  0  0  0  0
 25 26  1  0  0  0  0
 26 27  2  0  0  0  0
 28 25  1  0  0  0  0
 29 28  1  0  0  0  0
M  END
>  <Pose>
1

>  <Score>
-8.151

$$$$
