/Users/jonathanwahrer/Desktop/Msc/3_Semester/Drug_Design_Praktikum/waehrer_HTS_screening/HTS_experiment/out/docking_results/vina_output/2qfa/1837_docked.pdbqt
 OpenBabel03162221053D

 29 32  0  0  0  0  0  0  0  0999 V2000
   41.1340   12.1880   47.5610 N   0  0  0  0  0  0  0  0  0  0  0  0
   41.6670   11.3040   48.6180 C   0  0  0  0  0  2  0  0  0  0  0  0
   42.2170   10.1160   47.8020 C   0  0  0  0  0  2  0  0  0  0  0  0
   41.2470    9.9930   46.7040 N   0  0  0  0  0  0  0  0  0  0  0  0
   39.8840   10.2070   47.0760 C   0  0  0  0  0  2  0  0  0  0  0  0
   39.7470   11.7160   47.3360 C   0  0  0  0  0  2  0  0  0  0  0  0
   41.0890   13.5640   48.0200 C   0  0  0  0  0  2  0  0  0  0  0  0
   42.0980   14.3240   47.1900 C   0  0  0  0  0  0  0  0  0  0  0  0
   43.4730   14.1150   47.3250 N   0  0  0  0  0  0  0  0  0  0  0  0
   43.7700   13.4160   48.0760 H   0  0  0  0  0  0  0  0  0  0  0  0
   41.6700   15.1660   46.3610 O   0  0  0  0  0  0  0  0  0  0  0  0
   44.5250   14.7350   46.6190 C   0  0  0  0  0  0  0  0  0  0  0  0
   45.0300   14.1530   45.4470 C   0  0  0  0  0  3  0  0  0  0  0  0
   46.0440   14.7180   44.7170 C   0  0  0  0  0  3  0  0  0  0  0  0
   46.6170   15.9130   45.1260 C   0  0  0  0  0  0  0  0  0  0  0  0
   47.9120   16.6630   44.2170 Cl  0  0  0  0  0  0  0  0  0  0  0  0
   46.1330   16.4960   46.2720 C   0  0  0  0  0  3  0  0  0  0  0  0
   45.1050   15.9120   47.0010 C   0  0  0  0  0  3  0  0  0  0  0  0
   41.7200    9.7030   45.4160 C   0  0  0  0  0  0  0  0  0  0  0  0
   41.1480   10.2920   44.3210 N   0  0  0  0  0  0  0  0  0  0  0  0
   41.5320   10.0570   43.0670 C   0  0  0  0  0  3  0  0  0  0  0  0
   42.5330    9.2010   42.8340 N   0  0  0  0  0  0  0  0  0  0  0  0
   43.1680    8.5680   43.8150 C   0  0  0  0  0  0  0  0  0  0  0  0
   44.1780    7.6770   43.8590 N   0  0  0  0  0  0  0  0  0  0  0  0
   42.7540    8.8230   45.1270 C   0  0  0  0  0  0  0  0  0  0  0  0
   44.3760    7.4000   45.1220 N   0  0  0  0  0  0  0  0  0  0  0  0
   43.5340    8.0780   45.8870 N   0  0  0  0  0  0  0  0  0  0  0  0
   44.9270    7.1040   42.7570 C   0  0  0  0  0  2  0  0  0  0  0  0
   45.5460    5.7780   43.1410 C   0  0  0  0  0  1  0  0  0  0  0  0
  1  7  1  0  0  0  0
  1  2  1  0  0  0  0
  3  2  1  0  0  0  0
  4  5  1  0  0  0  0
  4  3  1  0  0  0  0
  5  6  1  0  0  0  0
  6  1  1  0  0  0  0
  8  9  1  0  0  0  0
  8  7  1  0  0  0  0
  9 10  1  0  0  0  0
 11  8  2  0  0  0  0
 12 18  1  0  0  0  0
 12  9  1  0  0  0  0
 13 12  2  0  0  0  0
 14 15  2  0  0  0  0
 14 13  1  0  0  0  0
 15 17  1  0  0  0  0
 16 15  1  0  0  0  0
 17 18  2  0  0  0  0
 19  4  1  0  0  0  0
 20 19  2  0  0  0  0
 21 20  1  0  0  0  0
 22 21  2  0  0  0  0
 22 23  1  0  0  0  0
 23 24  1  0  0  0  0
 23 25  2  0  0  0  0
 24 26  1  0  0  0  0
 25 19  1  0  0  0  0
 25 27  1  0  0  0  0
 26 27  2  0  0  0  0
 28 29  1  0  0  0  0
 28 24  1  0  0  0  0
M  END
>  <Pose>
1

>  <Score>
-7.059

$$$$
