/Users/jonathanwahrer/Desktop/Msc/3_Semester/Drug_Design_Praktikum/waehrer_HTS_screening/HTS_experiment/out/docking_results/vina_output/2qfa/1846_docked.pdbqt
 OpenBabel03162221063D

 31 34  0  0  1  0  0  0  0  0999 V2000
   46.2240    6.7180   42.9660 N   0  0  0  0  0  0  0  0  0  0  0  0
   46.9130    6.8500   44.1210 C   0  0  0  0  0  2  0  0  0  0  0  0
   47.8540    5.9450   44.4640 N   0  0  0  0  0  0  0  0  0  0  0  0
   48.1570    4.8880   43.7010 C   0  0  0  0  0  0  0  0  0  0  0  0
   49.0910    3.9820   44.0330 N   0  0  0  0  0  0  0  0  0  0  0  0
   49.4150    2.9130   43.2860 C   0  0  0  0  0  0  0  0  0  0  0  0
   48.7320    2.7620   42.1180 N   0  0  0  0  0  0  0  0  0  0  0  0
   47.7900    3.6440   41.7480 C   0  0  0  0  0  3  0  0  0  0  0  0
   47.4670    4.7380   42.5230 C   0  0  2  0  0  3  0  0  0  0  0  0
   46.5020    5.6560   42.1600 C   0  0  0  0  0  0  0  0  0  0  0  0
   45.9060    5.4650   41.0710 O   0  0  0  0  0  0  0  0  0  0  0  0
   45.2140    7.6300   42.5310 C   0  0  0  0  0  2  0  0  0  0  0  0
   44.1450    7.8410   43.5670 C   0  0  0  0  0  0  0  0  0  0  0  0
   44.0390    9.0550   44.2640 N   0  0  0  0  0  0  0  0  0  0  0  0
   44.7440    9.8340   44.0370 H   0  0  0  0  0  0  0  0  0  0  0  0
   43.3770    6.8850   43.7600 O   0  0  0  0  0  0  0  0  0  0  0  0
   43.0590    9.3070   45.2490 C   0  0  0  0  0  0  0  0  0  0  0  0
   43.1540    8.9750   46.5750 C   0  0  0  0  0  3  0  0  0  0  0  0
   42.1080    9.2640   47.4550 C   0  0  0  0  0  3  0  0  0  0  0  0
   40.9450    9.8810   47.0670 C   0  0  0  0  0  0  0  0  0  0  0  0
   40.8400   10.2180   45.7390 C   0  0  0  0  0  0  0  0  0  0  0  0
   39.3980   11.0100   45.1390 Cl  0  0  0  0  0  0  0  0  0  0  0  0
   41.8610    9.9390   44.8660 C   0  0  0  0  0  3  0  0  0  0  0  0
   39.9170   10.1550   47.9800 O   0  0  0  0  0  0  0  0  0  0  0  0
   39.1760    9.0960   48.5420 C   0  0  0  0  0  1  0  0  0  0  0  0
   50.4060    1.9800   43.6720 N   0  0  0  0  0  0  0  0  0  0  0  0
   50.8090    1.9370   45.0580 C   0  0  0  0  0  2  0  0  0  0  0  0
   51.0110    0.4800   45.4680 C   0  0  0  0  0  2  0  0  0  0  0  0
   51.8010   -0.2100   44.5510 O   0  0  0  0  0  0  0  0  0  0  0  0
   51.0480   -0.3240   43.3820 C   0  0  0  0  0  2  0  0  0  0  0  0
   51.0350    1.0660   42.7470 C   0  0  0  0  0  2  0  0  0  0  0  0
  1  2  1  0  0  0  0
  2  3  1  0  0  0  0
  4  5  1  0  0  0  0
  4  3  2  0  0  0  0
  6 26  1  0  0  0  0
  6  5  2  0  0  0  0
  7  6  1  0  0  0  0
  8  7  2  0  0  0  0
  9  8  1  6  0  0  0
  9  4  1  0  0  0  0
 10  9  1  0  0  0  0
 10  1  1  0  0  0  0
 11 10  2  0  0  0  0
 12  1  1  0  0  0  0
 12 13  1  0  0  0  0
 13 16  2  0  0  0  0
 13 14  1  0  0  0  0
 14 17  1  0  0  0  0
 15 14  1  0  0  0  0
 17 18  1  0  0  0  0
 18 19  2  0  0  0  0
 20 19  1  0  0  0  0
 20 24  1  0  0  0  0
 21 20  2  0  0  0  0
 22 21  1  0  0  0  0
 23 17  2  0  0  0  0
 23 21  1  0  0  0  0
 24 25  1  0  0  0  0
 26 27  1  0  0  0  0
 27 28  1  0  0  0  0
 29 28  1  0  0  0  0
 30 29  1  0  0  0  0
 31 30  1  0  0  0  0
 31 26  1  0  0  0  0
M  END
>  <Pose>
1

>  <Score>
-7.293

$$$$
