/Users/jonathanwahrer/Desktop/Msc/3_Semester/Drug_Design_Praktikum/waehrer_HTS_screening/HTS_experiment/out/docking_results/vina_output/2qfa/1852_docked.pdbqt
 OpenBabel03162221063D

 26 29  0  0  1  0  0  0  0  0999 V2000
   44.7310    6.7470   43.1110 N   0  0  0  0  0  0  0  0  0  0  0  0
   45.4570    5.5570   43.4250 C   0  0  0  0  0  2  0  0  0  0  0  0
   46.8970    5.7710   42.9920 C   0  0  1  0  0  3  0  0  0  0  0  0
   47.0310    7.2760   43.0990 C   0  0  0  0  0  2  0  0  0  0  0  0
   45.6470    7.7220   42.6110 C   0  0  0  0  0  2  0  0  0  0  0  0
   43.7910    7.3190   44.4350 S   0  0  0  0  0  0  0  0  0  0  0  0
   44.6790    7.6620   45.5830 O   0  0  0  0  0  0  0  0  0  0  0  0
   42.8680    6.2040   44.8520 O   0  0  0  0  0  0  0  0  0  0  0  0
   42.8300    8.7100   43.9940 C   0  0  0  0  0  0  0  0  0  0  0  0
   42.8220    9.8370   44.7920 C   0  0  0  0  0  3  0  0  0  0  0  0
   42.0780   10.9640   44.4880 C   0  0  0  0  0  0  0  0  0  0  0  0
   41.3040   10.9880   43.3430 C   0  0  0  0  0  0  0  0  0  0  0  0
   42.0630   12.0920   45.2760 O   0  0  0  0  0  0  0  0  0  0  0  0
   41.3170    9.8660   42.5550 C   0  0  0  0  0  3  0  0  0  0  0  0
   40.5760   12.1370   43.0760 O   0  0  0  0  0  0  0  0  0  0  0  0
   42.0560    8.7420   42.8540 C   0  0  0  0  0  3  0  0  0  0  0  0
   40.1610   13.0480   44.0780 C   0  0  0  0  0  2  0  0  0  0  0  0
   41.0990   13.1030   45.2540 C   0  0  0  0  0  2  0  0  0  0  0  0
   47.7330    5.1800   43.9730 O   0  0  0  0  0  0  0  0  0  0  0  0
   48.5870    4.1300   43.6750 C   0  0  0  0  0  0  0  0  0  0  0  0
   48.3250    3.4590   42.5170 N   0  0  0  0  0  0  0  0  0  0  0  0
   49.1370    2.4370   42.2010 C   0  0  0  0  0  3  0  0  0  0  0  0
   50.1990    2.0600   42.9980 C   0  0  0  0  0  0  0  0  0  0  0  0
   50.4170    2.7760   44.1590 C   0  0  0  0  0  2  0  0  0  0  0  0
   51.2500    0.7240   42.5750 Cl  0  0  0  0  0  0  0  0  0  0  0  0
   49.6010    3.8040   44.4750 N   0  0  0  0  0  0  0  0  0  0  0  0
  1  2  1  0  0  0  0
  1  6  1  0  0  0  0
  3  4  1  0  0  0  0
  3  2  1  0  0  0  0
  3 19  1  1  0  0  0
  5  4  1  0  0  0  0
  5  1  1  0  0  0  0
  6  8  2  0  0  0  0
  6  7  2  0  0  0  0
  9  6  1  0  0  0  0
  9 10  1  0  0  0  0
 11 10  2  0  0  0  0
 11 13  1  0  0  0  0
 12 11  1  0  0  0  0
 14 16  1  0  0  0  0
 14 12  2  0  0  0  0
 15 12  1  0  0  0  0
 15 17  1  0  0  0  0
 16  9  2  0  0  0  0
 17 18  1  0  0  0  0
 18 13  1  0  0  0  0
 20 19  1  0  0  0  0
 20 26  2  0  0  0  0
 21 20  2  0  0  0  0
 22 21  1  0  0  0  0
 22 23  2  0  0  0  0
 23 24  1  0  0  0  0
 24 26  1  0  0  0  0
 25 23  1  0  0  0  0
M  END
>  <Pose>
1

>  <Score>
-7.905

$$$$
