/Users/jonathanwahrer/Desktop/Msc/3_Semester/Drug_Design_Praktikum/waehrer_HTS_screening/HTS_experiment/out/docking_results/vina_output/2qfa/1856_docked.pdbqt
 OpenBabel03162221063D

 31 34  0  0  0  0  0  0  0  0999 V2000
   43.4440    9.4160   44.4010 C   0  0  0  0  0  0  0  0  0  0  0  0
   42.3840   10.1730   44.0780 N   0  0  0  0  0  4  0  0  0  0  0  0
   41.4410   10.5780   44.9690 C   0  0  0  0  0  0  0  0  0  0  0  0
   41.6410   10.1580   46.2460 N   0  0  0  0  0  0  0  0  0  0  0  0
   42.6800    9.4000   46.6290 C   0  0  0  0  0  0  0  0  0  0  0  0
   43.5580    9.0460   45.7000 N   0  0  0  0  0  2  0  0  0  0  0  0
   44.4020    9.0180   43.4320 N   0  0  0  0  0  0  0  0  0  0  0  0
   44.6800    9.6530   42.6580 H   0  0  0  0  0  0  0  0  0  0  0  0
   45.0060    7.7620   43.4850 N   0  0  0  0  0  0  0  0  0  0  0  0
   46.2490    7.6640   43.0640 C   0  0  0  0  0  3  0  0  0  0  0  0
   46.9170    6.3730   43.1020 C   0  0  0  0  0  0  0  0  0  0  0  0
   47.7970    6.0830   44.1550 C   0  0  0  0  0  3  0  0  0  0  0  0
   48.4330    4.8780   44.2070 C   0  0  0  0  0  0  0  0  0  0  0  0
   49.6310    4.4790   45.6360 Br  0  0  0  0  0  0  0  0  0  0  0  0
   48.2270    3.9240   43.2360 C   0  0  0  0  0  3  0  0  0  0  0  0
   47.3710    4.1850   42.1960 C   0  0  0  0  0  3  0  0  0  0  0  0
   46.7130    5.4240   42.1370 C   0  0  0  0  0  0  0  0  0  0  0  0
   45.8580    5.6550   41.0770 O   0  0  0  0  0  0  0  0  0  0  0  0
   44.8880    5.8760   41.1670 H   0  0  0  0  0  0  0  0  0  0  0  0
   40.3410   11.3730   44.5960 N   0  0  0  0  0  0  0  0  0  0  0  0
   39.0500   11.1480   45.1740 C   0  0  0  0  0  2  0  0  0  0  0  0
   38.5740   12.4770   45.7380 C   0  0  0  0  0  2  0  0  0  0  0  0
   38.5460   13.3850   44.6690 O   0  0  0  0  0  0  0  0  0  0  0  0
   39.8440   13.6740   44.2490 C   0  0  0  0  0  2  0  0  0  0  0  0
   40.4840   12.4230   43.6330 C   0  0  0  0  0  2  0  0  0  0  0  0
   42.8250    8.9990   47.9780 N   0  0  0  0  0  0  0  0  0  0  0  0
   41.7360    8.4580   48.7660 C   0  0  0  0  0  2  0  0  0  0  0  0
   42.2800    7.4930   49.7960 C   0  0  0  0  0  2  0  0  0  0  0  0
   43.2250    8.0430   50.6210 O   0  0  0  0  0  0  0  0  0  0  0  0
   43.7460    9.2430   50.1550 C   0  0  0  0  0  2  0  0  0  0  0  0
   44.1080    9.1050   48.6790 C   0  0  0  0  0  2  0  0  0  0  0  0
  1  6  1  0  0  0  0
  2  1  2  0  0  0  0
  2  3  2  0  0  0  0
  3  4  1  0  0  0  0
  4  5  2  0  0  0  0
  5 26  1  0  0  0  0
  6  5  1  0  0  0  0
  7  9  1  0  0  0  0
  7  1  1  0  0  0  0
  8  7  1  0  0  0  0
 10 11  1  0  0  0  0
 10  9  2  0  0  0  0
 11 12  1  0  0  0  0
 12 13  2  0  0  0  0
 13 14  1  0  0  0  0
 15 13  1  0  0  0  0
 16 15  2  0  0  0  0
 17 16  1  0  0  0  0
 17 11  2  0  0  0  0
 18 19  1  0  0  0  0
 18 17  1  0  0  0  0
 20  3  1  0  0  0  0
 20 21  1  0  0  0  0
 21 22  1  0  0  0  0
 23 22  1  0  0  0  0
 24 23  1  0  0  0  0
 25 24  1  0  0  0  0
 25 20  1  0  0  0  0
 26 31  1  0  0  0  0
 26 27  1  0  0  0  0
 27 28  1  0  0  0  0
 28 29  1  0  0  0  0
 30 29  1  0  0  0  0
 31 30  1  0  0  0  0
M  END
>  <Pose>
1

>  <Score>
-6.957

$$$$
