/Users/jonathanwahrer/Desktop/Msc/3_Semester/Drug_Design_Praktikum/waehrer_HTS_screening/HTS_experiment/out/docking_results/vina_output/2qfa/1893_docked.pdbqt
 OpenBabel03162221073D

 28 31  0  0  0  0  0  0  0  0999 V2000
   42.3540   11.5180   44.7360 N   0  0  0  0  0  0  0  0  0  0  0  0
   42.7830   10.2670   45.0250 C   0  0  0  0  0  0  0  0  0  0  0  0
   43.5710    9.9950   45.9690 O   0  0  0  0  0  0  0  0  0  0  0  0
   42.2420    9.3420   44.1480 C   0  0  0  0  0  0  0  0  0  0  0  0
   41.4780   10.0320   43.3170 C   0  0  0  0  0  0  0  0  0  0  0  0
   40.9520    9.1280   42.4640 N   0  0  0  0  0  0  0  0  0  0  0  0
   41.4060    7.9100   42.7910 N   0  0  0  0  0  0  0  0  0  0  0  0
   42.2080    8.0340   43.8360 N   0  0  0  0  0  0  0  0  0  0  0  0
   41.5450   11.3630   43.6740 C   0  0  0  0  0  0  0  0  0  0  0  0
   40.9280   12.2720   43.0770 O   0  0  0  0  0  0  0  0  0  0  0  0
   40.3040    9.3480   41.6850 H   0  0  0  0  0  0  0  0  0  0  0  0
   41.1930    6.9990   42.3330 H   0  0  0  0  0  0  0  0  0  0  0  0
   42.9140    6.9710   44.5190 C   0  0  0  0  0  2  0  0  0  0  0  0
   44.2640    6.7160   43.9570 C   0  0  0  0  0  0  0  0  0  0  0  0
   44.7790    5.4600   43.7230 C   0  0  0  0  0  3  0  0  0  0  0  0
   46.0350    5.2270   43.1990 C   0  0  0  0  0  0  0  0  0  0  0  0
   46.8310    6.3030   42.8880 C   0  0  0  0  0  3  0  0  0  0  0  0
   46.3570    7.5750   43.1050 C   0  0  0  0  0  3  0  0  0  0  0  0
   45.0930    7.7800   43.6320 C   0  0  0  0  0  3  0  0  0  0  0  0
   46.4620    3.9080   43.0010 O   0  0  0  0  0  0  0  0  0  0  0  0
   47.5620    3.6060   42.1670 C   0  0  0  0  0  1  0  0  0  0  0  0
   42.6950   12.7090   45.4120 C   0  0  0  0  0  0  0  0  0  0  0  0
   43.9650   13.2430   45.3440 C   0  0  0  0  0  3  0  0  0  0  0  0
   44.3240   14.4070   45.9980 C   0  0  0  0  0  3  0  0  0  0  0  0
   43.3660   15.0570   46.7470 C   0  0  0  0  0  0  0  0  0  0  0  0
   43.7490   16.5500   47.6120 Cl  0  0  0  0  0  0  0  0  0  0  0  0
   42.0810   14.5630   46.8470 C   0  0  0  0  0  3  0  0  0  0  0  0
   41.7640   13.3880   46.1730 C   0  0  0  0  0  3  0  0  0  0  0  0
  1  2  1  0  0  0  0
  1 22  1  0  0  0  0
  2  3  2  0  0  0  0
  4  2  1  0  0  0  0
  5  9  1  0  0  0  0
  5  4  2  0  0  0  0
  6  7  1  0  0  0  0
  6  5  1  0  0  0  0
  7  8  1  0  0  0  0
  8  4  1  0  0  0  0
  8 13  1  0  0  0  0
  9  1  1  0  0  0  0
 10  9  2  0  0  0  0
 11  6  1  0  0  0  0
 12  7  1  0  0  0  0
 14 13  1  0  0  0  0
 15 14  1  0  0  0  0
 16 15  2  0  0  0  0
 17 18  2  0  0  0  0
 17 16  1  0  0  0  0
 18 19  1  0  0  0  0
 19 14  2  0  0  0  0
 20 16  1  0  0  0  0
 21 20  1  0  0  0  0
 22 28  1  0  0  0  0
 23 22  2  0  0  0  0
 23 24  1  0  0  0  0
 24 25  2  0  0  0  0
 25 27  1  0  0  0  0
 25 26  1  0  0  0  0
 28 27  2  0  0  0  0
M  END
>  <Pose>
1

>  <Score>
-8.585

$$$$
