/Users/jonathanwahrer/Desktop/Msc/3_Semester/Drug_Design_Praktikum/waehrer_HTS_screening/HTS_experiment/out/docking_results/vina_output/2qfa/1894_docked.pdbqt
 OpenBabel03162221083D

 26 29  0  0  0  0  0  0  0  0999 V2000
   42.0060   11.8020   44.8950 N   0  0  0  0  0  0  0  0  0  0  0  0
   42.4920   10.5790   45.2050 C   0  0  0  0  0  0  0  0  0  0  0  0
   43.2390   10.3500   46.1790 O   0  0  0  0  0  0  0  0  0  0  0  0
   42.0510    9.6260   44.3030 C   0  0  0  0  0  0  0  0  0  0  0  0
   41.2790   10.2840   43.4250 C   0  0  0  0  0  0  0  0  0  0  0  0
   40.8550    9.3510   42.5550 N   0  0  0  0  0  0  0  0  0  0  0  0
   41.3490    8.1730   42.8920 N   0  0  0  0  0  0  0  0  0  0  0  0
   42.0900    8.3260   43.9690 N   0  0  0  0  0  0  0  0  0  0  0  0
   41.2610   11.6110   43.7990 C   0  0  0  0  0  0  0  0  0  0  0  0
   40.6300   12.5190   43.1910 O   0  0  0  0  0  0  0  0  0  0  0  0
   40.2330    9.4970   41.7340 H   0  0  0  0  0  0  0  0  0  0  0  0
   41.1830    7.2540   42.3870 H   0  0  0  0  0  0  0  0  0  0  0  0
   42.2360   13.0290   45.5850 C   0  0  0  0  0  0  0  0  0  0  0  0
   43.4980   13.5790   45.6700 C   0  0  0  0  0  3  0  0  0  0  0  0
   43.7300   14.7670   46.3370 C   0  0  0  0  0  3  0  0  0  0  0  0
   42.7030   15.4570   46.9460 C   0  0  0  0  0  0  0  0  0  0  0  0
   43.0020   16.9720   47.7950 Cl  0  0  0  0  0  0  0  0  0  0  0  0
   41.4360   14.9170   46.8670 C   0  0  0  0  0  3  0  0  0  0  0  0
   41.2130   13.7280   46.2000 C   0  0  0  0  0  3  0  0  0  0  0  0
   42.8230    7.3010   44.6750 C   0  0  0  0  0  2  0  0  0  0  0  0
   44.1000    6.9300   44.0290 C   0  0  0  0  0  0  0  0  0  0  0  0
   44.4470    5.6060   43.9170 C   0  0  0  0  0  3  0  0  0  0  0  0
   45.6410    5.2840   43.3160 C   0  0  0  0  0  3  0  0  0  0  0  0
   46.4910    6.2600   42.8260 C   0  0  0  0  0  3  0  0  0  0  0  0
   46.1450    7.5870   42.9380 C   0  0  0  0  0  3  0  0  0  0  0  0
   44.9540    7.8910   43.5380 C   0  0  0  0  0  3  0  0  0  0  0  0
  1  2  1  0  0  0  0
  1 13  1  0  0  0  0
  2  3  2  0  0  0  0
  4  2  1  0  0  0  0
  5  9  1  0  0  0  0
  5  4  2  0  0  0  0
  6  7  1  0  0  0  0
  6  5  1  0  0  0  0
  7  8  1  0  0  0  0
  8  4  1  0  0  0  0
  8 20  1  0  0  0  0
  9  1  1  0  0  0  0
 10  9  2  0  0  0  0
 11  6  1  0  0  0  0
 12  7  1  0  0  0  0
 13 14  2  0  0  0  0
 13 19  1  0  0  0  0
 14 15  1  0  0  0  0
 15 16  2  0  0  0  0
 16 17  1  0  0  0  0
 18 16  1  0  0  0  0
 19 18  2  0  0  0  0
 21 20  1  0  0  0  0
 22 21  1  0  0  0  0
 23 22  2  0  0  0  0
 24 25  2  0  0  0  0
 24 23  1  0  0  0  0
 25 26  1  0  0  0  0
 26 21  2  0  0  0  0
M  END
>  <Pose>
1

>  <Score>
-8.181

$$$$
