/Users/jonathanwahrer/Desktop/Msc/3_Semester/Drug_Design_Praktikum/waehrer_HTS_screening/HTS_experiment/out/docking_results/vina_output/2qfa/1895_docked.pdbqt
 OpenBabel03162221083D

 32 35  0  0  1  0  0  0  0  0999 V2000
   38.1590   14.0080   45.4500 N   0  0  0  0  0  0  0  0  0  0  0  0
   39.0740   13.0040   45.0700 C   0  0  0  0  0  2  0  0  0  0  0  0
   40.4930   13.5790   45.2610 C   0  0  0  0  0  2  0  0  0  0  0  0
   40.6210   13.6780   46.6920 N   0  0  0  0  0  0  0  0  0  0  0  0
   39.7030   14.6840   47.2690 C   0  0  0  0  0  2  0  0  0  0  0  0
   38.3700   14.7140   46.6430 C   0  0  0  0  0  2  0  0  0  0  0  0
   41.4610   12.9780   47.5570 C   0  0  0  0  0  0  0  0  0  0  0  0
   41.3010   13.3230   48.8200 O   0  0  0  0  0  0  0  0  0  0  0  0
   42.4640   11.9580   47.3900 C   0  0  0  0  0  2  0  0  0  0  0  0
   42.7570   11.4990   46.0670 N   0  0  0  0  0  0  0  0  0  0  0  0
   43.8370   11.9510   45.2490 C   0  0  0  0  0  0  0  0  0  0  0  0
   44.6700   12.8490   45.6110 O   0  0  0  0  0  0  0  0  0  0  0  0
   43.7950   11.2390   44.0300 N   0  0  0  0  0  0  0  0  0  0  0  0
   42.9500   10.0690   44.2170 C   0  0  1  0  0  0  0  0  0  0  0  0
   44.2700   11.4840   43.1480 H   0  0  0  0  0  0  0  0  0  0  0  0
   42.1200    9.7190   43.0320 C   0  0  1  0  0  3  0  0  0  0  0  0
   43.8570    8.9390   44.6500 C   0  0  0  0  0  2  0  0  0  0  0  0
   42.0500   10.4990   45.3290 C   0  0  0  0  0  0  0  0  0  0  0  0
   41.9730    8.1930   43.0060 C   0  0  0  0  0  2  0  0  0  0  0  0
   40.7160   10.2740   43.0760 C   0  0  0  0  0  1  0  0  0  0  0  0
   43.3200    7.6520   42.5670 C   0  0  0  0  0  2  0  0  0  0  0  0
   44.4080    8.3110   43.3780 C   0  0  0  0  0  2  0  0  0  0  0  0
   40.9050   10.0720   45.5720 O   0  0  0  0  0  0  0  0  0  0  0  0
   36.5270   13.6690   45.0770 S   0  0  0  0  0  0  0  0  0  0  0  0
   36.2420   12.2440   44.8140 O   0  0  0  0  0  0  0  0  0  0  0  0
   35.6770   14.1260   46.2390 O   0  0  0  0  0  0  0  0  0  0  0  0
   36.1010   14.6410   43.6580 C   0  0  0  0  0  0  0  0  0  0  0  0
   35.1720   16.0640   43.5480 S   0  0  0  0  0  0  0  0  0  0  0  0
   35.2600   16.3210   41.8680 C   0  0  0  0  0  0  0  0  0  0  0  0
   36.0250   15.2710   41.4310 C   0  0  0  0  0  3  0  0  0  0  0  0
   34.5390   17.6270   40.9150 Cl  0  0  0  0  0  0  0  0  0  0  0  0
   36.4570   14.4040   42.3630 C   0  0  0  0  0  3  0  0  0  0  0  0
  1  6  1  0  0  0  0
  2  3  1  0  0  0  0
  2  1  1  0  0  0  0
  3  4  1  0  0  0  0
  4  5  1  0  0  0  0
  4  7  1  0  0  0  0
  6  5  1  0  0  0  0
  7  8  2  0  0  0  0
  9  7  1  0  0  0  0
 10  9  1  0  0  0  0
 11 12  2  0  0  0  0
 11 10  1  0  0  0  0
 13 14  1  0  0  0  0
 13 11  1  0  0  0  0
 14 17  1  1  0  0  0
 14 18  1  0  0  0  0
 15 13  1  0  0  0  0
 16 20  1  1  0  0  0
 16 14  1  0  0  0  0
 18 23  2  0  0  0  0
 18 10  1  0  0  0  0
 19 16  1  0  0  0  0
 21 19  1  0  0  0  0
 21 22  1  0  0  0  0
 22 17  1  0  0  0  0
 24  1  1  0  0  0  0
 24 26  2  0  0  0  0
 25 24  2  0  0  0  0
 27 24  1  0  0  0  0
 28 27  1  0  0  0  0
 29 28  1  0  0  0  0
 30 29  2  0  0  0  0
 30 32  1  0  0  0  0
 31 29  1  0  0  0  0
 32 27  2  0  0  0  0
M  END
>  <Pose>
1

>  <Score>
-6.972

$$$$
