/Users/jonathanwahrer/Desktop/Msc/3_Semester/Drug_Design_Praktikum/waehrer_HTS_screening/HTS_experiment/out/docking_results/vina_output/2qfa/1906_docked.pdbqt
 OpenBabel03162221083D

 33 36  0  0  1  0  0  0  0  0999 V2000
   42.4760   11.4400   45.4740 C   0  0  1  0  0  0  0  0  0  0  0  0
   41.0820   11.4320   45.3280 O   0  0  0  0  0  0  0  0  0  0  0  0
   40.6400   11.7160   44.0650 C   0  0  0  0  0  2  0  0  0  0  0  0
   40.9150   10.6220   43.0530 C   0  0  0  0  0  2  0  0  0  0  0  0
   42.2650   10.1250   43.4250 N   0  0  0  0  0  0  0  0  0  0  0  0
   43.0710   11.0650   44.1040 C   0  0  0  0  0  2  0  0  0  0  0  0
   42.5990    8.8310   43.0830 C   0  0  0  0  0  0  0  0  0  0  0  0
   41.7470    8.0800   42.4510 O   0  0  0  0  0  0  0  0  0  0  0  0
   42.8560   12.8750   45.7040 C   0  0  0  0  0  2  0  0  0  0  0  0
   44.1040   13.2740   45.6060 O   0  0  0  0  0  0  0  0  0  0  0  0
   45.0020   14.1940   45.4120 C   0  0  0  0  0  0  0  0  0  0  0  0
   45.2320   15.2650   46.2370 C   0  0  0  0  0  3  0  0  0  0  0  0
   46.2040   16.1810   45.9370 C   0  0  0  0  0  0  0  0  0  0  0  0
   46.4730   17.5450   47.0220 Cl  0  0  0  0  0  0  0  0  0  0  0  0
   46.9880   16.0650   44.8040 C   0  0  0  0  0  3  0  0  0  0  0  0
   46.7610   14.9960   43.9780 C   0  0  0  0  0  3  0  0  0  0  0  0
   45.8030   14.0790   44.2580 C   0  0  0  0  0  3  0  0  0  0  0  0
   42.8360   10.4860   46.5190 C   0  0  0  0  0  2  0  0  0  0  0  0
   41.7950    9.6030   47.0500 C   0  0  0  0  0  0  0  0  0  0  0  0
   41.4450    8.5800   46.4320 O   0  0  0  0  0  0  0  0  0  0  0  0
   41.1480    9.8800   48.2880 N   0  0  0  0  0  0  0  0  0  0  0  0
   41.4900   11.0560   49.0810 C   0  0  0  0  0  2  0  0  0  0  0  0
   40.1170    9.0110   48.8180 C   0  0  0  0  0  2  0  0  0  0  0  0
   41.6760   10.5890   50.5090 C   0  0  0  0  0  2  0  0  0  0  0  0
   40.4970    9.9720   50.9390 O   0  0  0  0  0  0  0  0  0  0  0  0
   40.3640    8.7560   50.2700 C   0  0  0  0  0  2  0  0  0  0  0  0
   43.8530    8.2030   43.3680 C   0  0  0  0  0  0  0  0  0  0  0  0
   44.8900    8.2020   42.5300 N   0  0  0  0  0  0  0  0  0  0  0  0
   46.0730    7.6130   42.7920 C   0  0  0  0  0  3  0  0  0  0  0  0
   46.2540    6.9600   44.0010 C   0  0  0  0  0  0  0  0  0  0  0  0
   45.2480    6.9410   44.8590 N   0  0  0  0  0  0  0  0  0  0  0  0
   47.5770    6.3300   44.2360 C   0  0  0  0  0  1  0  0  0  0  0  0
   44.0760    7.5350   44.5770 C   0  0  0  0  0  3  0  0  0  0  0  0
  1  9  1  1  0  0  0
  1 18  1  0  0  0  0
  2  1  1  0  0  0  0
  3  2  1  0  0  0  0
  4  5  1  0  0  0  0
  4  3  1  0  0  0  0
  5  6  1  0  0  0  0
  6  1  1  0  0  0  0
  7 27  1  0  0  0  0
  7  5  1  0  0  0  0
  8  7  2  0  0  0  0
 10  9  1  0  0  0  0
 11 10  1  0  0  0  0
 11 12  1  0  0  0  0
 13 12  2  0  0  0  0
 13 14  1  0  0  0  0
 15 13  1  0  0  0  0
 16 17  1  0  0  0  0
 16 15  2  0  0  0  0
 17 11  2  0  0  0  0
 18 19  1  0  0  0  0
 19 21  1  0  0  0  0
 20 19  2  0  0  0  0
 21 23  1  0  0  0  0
 21 22  1  0  0  0  0
 22 24  1  0  0  0  0
 23 26  1  0  0  0  0
 24 25  1  0  0  0  0
 26 25  1  0  0  0  0
 27 33  1  0  0  0  0
 28 29  1  0  0  0  0
 28 27  2  0  0  0  0
 29 30  2  0  0  0  0
 30 32  1  0  0  0  0
 30 31  1  0  0  0  0
 33 31  2  0  0  0  0
M  END
>  <Pose>
1

>  <Score>
-7.466

$$$$
