/Users/jonathanwahrer/Desktop/Msc/3_Semester/Drug_Design_Praktikum/waehrer_HTS_screening/HTS_experiment/out/docking_results/vina_output/2qfa/1913_docked.pdbqt
 OpenBabel03162221093D

 29 32  0  0  1  0  0  0  0  0999 V2000
   43.0980   12.2200   44.8330 N   0  0  0  0  0  0  0  0  0  0  0  0
   43.5030   11.4120   43.7060 C   0  0  0  0  0  2  0  0  0  0  0  0
   42.3450   10.8840   42.9030 C   0  0  0  0  0  2  0  0  0  0  0  0
   41.3040   10.3490   43.8240 C   0  0  2  0  0  3  0  0  0  0  0  0
   40.7510   11.4530   44.6570 C   0  0  0  0  0  3  0  0  0  0  0  0
   41.7350   12.4080   45.2250 C   0  0  0  0  0  3  0  0  0  0  0  0
   41.7580    9.1760   44.5740 C   0  0  0  0  0  0  0  0  0  0  0  0
   41.6000    9.1650   45.8190 O   0  0  0  0  0  0  0  0  0  0  0  0
   42.3670    8.0590   43.9660 N   0  0  0  0  0  0  0  0  0  0  0  0
   42.5000    8.0680   42.9130 H   0  0  0  0  0  0  0  0  0  0  0  0
   42.8200    6.8960   44.6940 C   0  0  0  0  0  2  0  0  0  0  0  0
   43.5450    5.8960   43.8400 C   0  0  0  0  0  2  0  0  0  0  0  0
   44.9760    5.9440   44.0820 N   0  0  0  0  0  0  0  0  0  0  0  0
   45.4720    7.2700   44.2330 C   0  0  0  0  0  2  0  0  0  0  0  0
   46.3070    7.6640   43.0300 C   0  0  0  0  0  2  0  0  0  0  0  0
   47.4000    6.8350   42.9880 O   0  0  0  0  0  0  0  0  0  0  0  0
   47.1400    5.4900   42.9970 C   0  0  0  0  0  2  0  0  0  0  0  0
   45.7210    5.0960   43.2220 C   0  0  0  0  0  2  0  0  0  0  0  0
   44.1080   12.8560   45.5850 C   0  0  0  0  0  0  0  0  0  0  0  0
   44.5040   12.3470   46.7930 C   0  0  0  0  0  0  0  0  0  0  0  0
   45.5230   12.9690   47.5280 C   0  0  0  0  0  0  0  0  0  0  0  0
   44.1090   11.2920   47.5240 N   0  0  0  0  0  0  0  0  0  0  0  0
   46.0820   14.0650   47.0070 N   0  0  0  0  0  4  0  0  0  0  0  0
   45.7270   12.3030   48.6590 N   0  0  0  0  0  0  0  0  0  0  0  0
   45.7040   14.5700   45.8320 C   0  0  0  0  0  0  0  0  0  0  0  0
   46.4740   15.9960   45.2150 Cl  0  0  0  0  0  0  0  0  0  0  0  0
   44.7340   13.9800   45.1280 N   0  0  0  0  0  2  0  0  0  0  0  0
   44.8560   11.2860   48.6350 C   0  0  0  0  0  3  0  0  0  0  0  0
   43.3500   10.6290   47.2400 H   0  0  0  0  0  0  0  0  0  0  0  0
  1  6  1  0  0  0  0
  1 19  1  0  0  0  0
  2  1  1  0  0  0  0
  3  2  1  0  0  0  0
  3  4  1  0  0  0  0
  4  7  1  1  0  0  0
  4  5  1  0  0  0  0
  5  6  2  0  0  0  0
  7  8  2  0  0  0  0
  9  7  1  0  0  0  0
  9 11  1  0  0  0  0
 10  9  1  0  0  0  0
 12 13  1  0  0  0  0
 12 11  1  0  0  0  0
 13 14  1  0  0  0  0
 15 14  1  0  0  0  0
 16 17  1  0  0  0  0
 16 15  1  0  0  0  0
 17 18  1  0  0  0  0
 18 13  1  0  0  0  0
 19 20  2  0  0  0  0
 20 22  1  0  0  0  0
 20 21  1  0  0  0  0
 21 24  1  0  0  0  0
 22 28  1  0  0  0  0
 23 21  2  0  0  0  0
 25 23  2  0  0  0  0
 26 25  1  0  0  0  0
 27 19  1  0  0  0  0
 27 25  1  0  0  0  0
 28 24  2  0  0  0  0
 29 22  1  0  0  0  0
M  END
>  <Pose>
1

>  <Score>
-6.915

$$$$
