/Users/jonathanwahrer/Desktop/Msc/3_Semester/Drug_Design_Praktikum/waehrer_HTS_screening/HTS_experiment/out/docking_results/vina_output/2qfa/1927_docked.pdbqt
 OpenBabel03162221093D

 36 39  0  0  1  0  0  0  0  0999 V2000
   44.3530    7.1710   42.9320 C   0  0  0  0  0  2  0  0  0  0  0  0
   43.9190    7.7490   44.2130 C   0  0  0  0  0  0  0  0  0  0  0  0
   43.4710    9.0230   44.5390 N   0  0  0  0  0  0  0  0  0  0  0  0
   43.5330   10.1740   43.7100 C   0  0  0  0  0  2  0  0  0  0  0  0
   42.8470    9.2190   45.8740 C   0  0  0  0  0  2  0  0  0  0  0  0
   42.1450   10.7370   43.4850 C   0  0  0  0  0  2  0  0  0  0  0  0
   41.7400   11.2670   44.8590 C   0  0  2  0  0  0  0  0  0  0  0  0
   41.7110   10.1840   45.8730 C   0  0  0  0  0  2  0  0  0  0  0  0
   43.9850    6.8960   45.2020 O   0  0  0  0  0  0  0  0  0  0  0  0
   40.5540   12.0960   44.7530 C   0  0  0  0  0  0  0  0  0  0  0  0
   39.5780   11.9590   45.7490 C   0  0  0  0  0  3  0  0  0  0  0  0
   38.3860   12.6830   45.7220 C   0  0  0  0  0  3  0  0  0  0  0  0
   38.1220   13.5690   44.7060 C   0  0  0  0  0  0  0  0  0  0  0  0
   36.5950   14.4890   44.6630 Cl  0  0  0  0  0  0  0  0  0  0  0  0
   39.0780   13.7140   43.7140 C   0  0  0  0  0  3  0  0  0  0  0  0
   40.2540   12.9900   43.7530 C   0  0  0  0  0  3  0  0  0  0  0  0
   42.8300   12.1270   45.2090 O   0  0  0  0  0  0  0  0  0  0  0  0
   42.4890   12.7310   45.9150 H   0  0  0  0  0  0  0  0  0  0  0  0
   45.2960    6.1410   42.9650 N   0  0  0  0  0  0  0  0  0  0  0  0
   46.7130    6.3260   42.9890 C   0  0  0  0  0  0  0  0  0  0  0  0
   47.0920    7.5270   42.9550 O   0  0  0  0  0  0  0  0  0  0  0  0
   45.0040    5.1310   43.0490 H   0  0  0  0  0  0  0  0  0  0  0  0
   47.6100    5.2050   43.0540 C   0  0  0  0  0  3  0  0  0  0  0  0
   48.4070    4.8070   43.9890 C   0  0  0  0  0  0  0  0  0  0  0  0
   48.5540    5.4860   45.2380 N   0  0  0  0  0  0  0  0  0  0  0  0
   49.2180    3.5740   43.8260 C   0  0  0  0  0  0  0  0  0  0  0  0
   49.4160    5.0150   46.2510 N   0  0  0  0  0  0  0  0  0  0  0  0
   48.0200    6.3650   45.4390 H   0  0  0  0  0  0  0  0  0  0  0  0
   50.1750    3.8420   46.0710 C   0  0  0  0  0  0  0  0  0  0  0  0
   49.4970    5.5330   47.1570 H   0  0  0  0  0  0  0  0  0  0  0  0
   50.9340    3.4530   47.0060 O   0  0  0  0  0  0  0  0  0  0  0  0
   50.0560    3.1210   44.8190 C   0  0  0  0  0  0  0  0  0  0  0  0
   50.7990    1.9640   44.7020 C   0  0  0  0  0  3  0  0  0  0  0  0
   50.6860    1.2330   43.5220 C   0  0  0  0  0  3  0  0  0  0  0  0
   49.8670    1.6410   42.5050 C   0  0  0  0  0  3  0  0  0  0  0  0
   49.1410    2.8240   42.6870 C   0  0  0  0  0  3  0  0  0  0  0  0
  1 19  1  0  0  0  0
  1  2  1  0  0  0  0
  2  3  1  0  0  0  0
  2  9  2  0  0  0  0
  3  5  1  0  0  0  0
  4  3  1  0  0  0  0
  6  4  1  0  0  0  0
  6  7  1  0  0  0  0
  7 17  1  1  0  0  0
  7  8  1  0  0  0  0
  8  5  1  0  0  0  0
 10  7  1  0  0  0  0
 10 11  1  0  0  0  0
 12 11  2  0  0  0  0
 13 12  1  0  0  0  0
 14 13  1  0  0  0  0
 15 16  1  0  0  0  0
 15 13  2  0  0  0  0
 16 10  2  0  0  0  0
 17 18  1  0  0  0  0
 19 20  1  0  0  0  0
 19 22  1  0  0  0  0
 20 23  1  0  0  0  0
 21 20  2  0  0  0  0
 23 24  2  0  0  0  0
 24 25  1  0  0  0  0
 25 28  1  0  0  0  0
 25 27  1  0  0  0  0
 26 24  1  0  0  0  0
 26 32  1  0  0  0  0
 27 30  1  0  0  0  0
 29 27  1  0  0  0  0
 29 31  2  0  0  0  0
 32 29  1  0  0  0  0
 33 32  2  0  0  0  0
 34 33  1  0  0  0  0
 35 36  1  0  0  0  0
 35 34  2  0  0  0  0
 36 26  2  0  0  0  0
M  END
>  <Pose>
1

>  <Score>
-8.601

$$$$
