/Users/jonathanwahrer/Desktop/Msc/3_Semester/Drug_Design_Praktikum/waehrer_HTS_screening/HTS_experiment/out/docking_results/vina_output/2qfa/1930_docked.pdbqt
 OpenBabel03162221103D

 34 37  0  0  1  0  0  0  0  0999 V2000
   40.6100   13.4560   46.1780 C   0  0  0  0  0  0  0  0  0  0  0  0
   40.3890   14.2690   45.2440 O   0  0  0  0  0  0  0  0  0  0  0  0
   41.7990   13.5580   46.9230 N   0  0  0  0  0  0  0  0  0  0  0  0
   42.8070   14.5850   46.6570 C   0  0  0  0  0  2  0  0  0  0  0  0
   44.0370   13.8300   46.1940 C   0  0  2  0  0  3  0  0  0  0  0  0
   44.4510   12.7950   47.2140 C   0  0  2  0  0  0  0  0  0  0  0  0
   43.5570   12.8830   48.4560 C   0  0  0  0  0  2  0  0  0  0  0  0
   42.1210   12.6560   48.0150 C   0  0  0  0  0  2  0  0  0  0  0  0
   45.8920   12.8830   47.6150 C   0  0  0  0  0  1  0  0  0  0  0  0
   39.6030   12.4050   46.4670 C   0  0  0  0  0  2  0  0  0  0  0  0
   39.3980   11.4480   45.3390 C   0  0  0  0  0  2  0  0  0  0  0  0
   40.5820   10.6040   45.0430 C   0  0  0  0  0  0  0  0  0  0  0  0
   41.4280   10.6620   44.0000 N   0  0  0  0  0  0  0  0  0  0  0  0
   42.3790    9.7180   44.0970 C   0  0  0  0  0  0  0  0  0  0  0  0
   43.4700    9.3280   43.3360 C   0  0  0  0  0  3  0  0  0  0  0  0
   42.1280    9.0220   45.2610 C   0  0  0  0  0  0  0  0  0  0  0  0
   44.2920    8.2920   43.6990 C   0  0  0  0  0  0  0  0  0  0  0  0
   45.6770    7.7900   42.7420 Cl  0  0  0  0  0  0  0  0  0  0  0  0
   44.0130    7.6180   44.8690 C   0  0  0  0  0  3  0  0  0  0  0  0
   42.9280    7.9740   45.6630 C   0  0  0  0  0  3  0  0  0  0  0  0
   41.0410    9.5750   45.8130 N   0  0  0  0  0  0  0  0  0  0  0  0
   40.3810    9.1870   47.0580 C   0  0  0  0  0  1  0  0  0  0  0  0
   45.0930   14.6540   45.7230 N   0  0  0  0  0  0  0  0  0  0  0  0
   45.5130   15.7490   46.4220 C   0  0  0  0  0  3  0  0  0  0  0  0
   46.5380   16.5510   45.9660 C   0  0  0  0  0  0  0  0  0  0  0  0
   47.1590   16.2460   44.7750 C   0  0  0  0  0  0  0  0  0  0  0  0
   47.0190   17.7460   46.7020 C   0  0  0  0  0  1  0  0  0  0  0  0
   48.1120   16.9630   44.3180 O   0  0  0  0  0  0  0  0  0  0  0  0
   46.7390   15.1670   44.0920 N   0  0  0  0  0  0  0  0  0  0  0  0
   45.7210   14.4030   44.5830 C   0  0  0  0  0  0  0  0  0  0  0  0
   47.2040   14.9330   43.1950 H   0  0  0  0  0  0  0  0  0  0  0  0
   45.3740   13.4120   43.9040 O   0  0  0  0  0  0  0  0  0  0  0  0
   44.2560   11.4750   46.7400 O   0  0  0  0  0  0  0  0  0  0  0  0
   44.0680   10.9270   47.5410 H   0  0  0  0  0  0  0  0  0  0  0  0
  1 10  1  0  0  0  0
  1  3  1  0  0  0  0
  2  1  2  0  0  0  0
  3  8  1  0  0  0  0
  4  3  1  0  0  0  0
  5 23  1  1  0  0  0
  5  4  1  0  0  0  0
  5  6  1  0  0  0  0
  6  9  1  1  0  0  0
  6  7  1  0  0  0  0
  8  7  1  0  0  0  0
 11 10  1  0  0  0  0
 12 11  1  0  0  0  0
 12 21  1  0  0  0  0
 13 14  1  0  0  0  0
 13 12  2  0  0  0  0
 14 16  1  0  0  0  0
 15 17  1  0  0  0  0
 15 14  2  0  0  0  0
 16 20  2  0  0  0  0
 16 21  1  0  0  0  0
 17 19  2  0  0  0  0
 18 17  1  0  0  0  0
 19 20  1  0  0  0  0
 21 22  1  0  0  0  0
 23 24  1  0  0  0  0
 25 24  2  0  0  0  0
 25 27  1  0  0  0  0
 26 25  1  0  0  0  0
 28 26  2  0  0  0  0
 29 30  1  0  0  0  0
 29 26  1  0  0  0  0
 30 23  1  0  0  0  0
 31 29  1  0  0  0  0
 32 30  2  0  0  0  0
 33  6  1  0  0  0  0
 33 34  1  0  0  0  0
M  END
>  <Pose>
1

>  <Score>
-7.453

$$$$
