/Users/jonathanwahrer/Desktop/Msc/3_Semester/Drug_Design_Praktikum/waehrer_HTS_screening/HTS_experiment/out/docking_results/vina_output/2qfa/1936_docked.pdbqt
 OpenBabel03162221103D

 25 28  0  0  0  0  0  0  0  0999 V2000
   49.0180    2.9680   43.3850 N   0  0  0  0  0  0  0  0  0  0  0  0
   50.3290    2.4580   43.3250 C   0  0  0  0  0  0  0  0  0  0  0  0
   50.8750    2.4020   42.2100 O   0  0  0  0  0  0  0  0  0  0  0  0
   48.5390    3.0240   44.3140 H   0  0  0  0  0  0  0  0  0  0  0  0
   48.2960    3.4210   42.2100 C   0  0  0  0  0  2  0  0  0  0  0  0
   47.2580    4.4340   42.6060 C   0  0  0  0  0  0  0  0  0  0  0  0
   47.2310    5.7380   42.2760 N   0  0  0  0  0  0  0  0  0  0  0  0
   46.1530    6.3410   42.8070 C   0  0  0  0  0  0  0  0  0  0  0  0
   45.6300    7.6160   42.8010 C   0  0  0  0  0  3  0  0  0  0  0  0
   45.4530    5.3620   43.5180 C   0  0  0  0  0  0  0  0  0  0  0  0
   44.4630    7.9760   43.4540 C   0  0  0  0  0  0  0  0  0  0  0  0
   43.8360    9.6220   43.4140 Cl  0  0  0  0  0  0  0  0  0  0  0  0
   43.7870    6.9800   44.1530 C   0  0  0  0  0  3  0  0  0  0  0  0
   44.2920    5.7050   44.1700 C   0  0  0  0  0  3  0  0  0  0  0  0
   46.1660    4.2290   43.3600 N   0  0  0  0  0  0  0  0  0  0  0  0
   45.9060    3.3050   43.7740 H   0  0  0  0  0  0  0  0  0  0  0  0
   51.0640    1.9960   44.5150 C   0  0  0  0  0  0  0  0  0  0  0  0
   50.7360    0.6390   45.0000 C   0  0  0  0  0  2  0  0  0  0  0  0
   52.0060    0.7720   44.2580 C   0  0  0  0  0  2  0  0  0  0  0  0
   51.6840    2.9520   45.3820 N   0  0  0  0  0  0  0  0  0  0  0  0
   51.0550    3.1760   46.6230 C   0  0  0  0  0  2  0  0  0  0  0  0
   50.1900    4.4240   46.4860 C   0  0  0  0  0  2  0  0  0  0  0  0
   50.9870    5.5360   46.3510 O   0  0  0  0  0  0  0  0  0  0  0  0
   52.1910    5.3160   45.7300 C   0  0  0  0  0  2  0  0  0  0  0  0
   52.1550    4.1330   44.7830 C   0  0  0  0  0  2  0  0  0  0  0  0
  1  4  1  0  0  0  0
  2  1  1  0  0  0  0
  2 17  1  0  0  0  0
  3  2  2  0  0  0  0
  5  6  1  0  0  0  0
  5  1  1  0  0  0  0
  6 15  1  0  0  0  0
  7  6  2  0  0  0  0
  7  8  1  0  0  0  0
  8 10  1  0  0  0  0
  9  8  2  0  0  0  0
  9 11  1  0  0  0  0
 10 14  2  0  0  0  0
 11 13  2  0  0  0  0
 12 11  1  0  0  0  0
 13 14  1  0  0  0  0
 15 10  1  0  0  0  0
 15 16  1  0  0  0  0
 17 18  1  0  0  0  0
 17 20  1  0  0  0  0
 19 17  1  0  0  0  0
 19 18  1  0  0  0  0
 20 21  1  0  0  0  0
 22 21  1  0  0  0  0
 23 22  1  0  0  0  0
 24 23  1  0  0  0  0
 25 20  1  0  0  0  0
 25 24  1  0  0  0  0
M  END
>  <Pose>
1

>  <Score>
-6.993

$$$$
