/Users/jonathanwahrer/Desktop/Msc/3_Semester/Drug_Design_Praktikum/waehrer_HTS_screening/HTS_experiment/out/docking_results/vina_output/2qfa/1940_docked.pdbqt
 OpenBabel03162221113D

 30 33  0  0  1  0  0  0  0  0999 V2000
   41.6960   10.2660   44.7510 C   0  0  1  0  0  3  0  0  0  0  0  0
   42.4280    9.0020   44.8920 N   0  0  0  0  0  0  0  0  0  0  0  0
   42.8290    8.9480   46.2490 C   0  0  0  0  0  0  0  0  0  0  0  0
   43.8400    8.3660   46.7080 O   0  0  0  0  0  0  0  0  0  0  0  0
   41.8300    9.7100   47.0210 C   0  0  0  0  0  0  0  0  0  0  0  0
   41.8070    9.9140   48.2560 O   0  0  0  0  0  0  0  0  0  0  0  0
   40.8750   10.1780   46.0260 C   0  0  0  0  0  0  0  0  0  0  0  0
   39.6260   10.4390   46.2030 C   0  0  0  0  0  0  0  0  0  0  0  0
   38.8240   10.8680   45.1480 O   0  0  0  0  0  1  0  0  0  0  0  0
   42.6820    8.0320   43.8350 C   0  0  0  0  0  2  0  0  0  0  0  0
   44.1290    7.8550   43.4970 C   0  0  0  0  0  2  0  0  0  0  0  0
   44.8000    6.7820   44.1460 N   0  0  0  0  0  4  0  0  0  0  0  0
   44.8980    5.5540   43.4250 C   0  0  0  0  0  2  0  0  0  0  0  0
   45.7190    5.6550   42.1590 C   0  0  0  0  0  2  0  0  0  0  0  0
   47.0000    6.1200   42.4360 O   0  0  0  0  0  0  0  0  0  0  0  0
   46.9820    7.2840   43.1970 C   0  0  0  0  0  2  0  0  0  0  0  0
   46.1940    7.1470   44.4730 C   0  0  0  0  0  2  0  0  0  0  0  0
   44.3070    6.5830   45.0440 H   0  0  0  0  0  0  0  0  0  0  0  0
   42.6040   11.4210   44.9560 C   0  0  0  0  0  0  0  0  0  0  0  0
   42.2700   12.4850   45.7560 C   0  0  0  0  0  3  0  0  0  0  0  0
   43.1130   13.5600   45.9620 C   0  0  0  0  0  3  0  0  0  0  0  0
   44.3460   13.5810   45.3480 C   0  0  0  0  0  0  0  0  0  0  0  0
   45.4750   14.8970   45.5550 Cl  0  0  0  0  0  0  0  0  0  0  0  0
   44.7020   12.5280   44.5440 C   0  0  0  0  0  3  0  0  0  0  0  0
   43.8570   11.4600   44.3420 C   0  0  0  0  0  3  0  0  0  0  0  0
   39.0120   10.2940   47.5200 C   0  0  0  0  0  0  0  0  0  0  0  0
   38.6580    9.2600   48.1960 O   0  0  0  0  0  0  0  0  0  0  0  0
   38.1420    9.6050   49.3410 C   0  0  0  0  0  3  0  0  0  0  0  0
   38.1500   10.9730   49.4470 C   0  0  0  0  0  3  0  0  0  0  0  0
   38.7050   11.4280   48.2840 C   0  0  0  0  0  3  0  0  0  0  0  0
  1  2  1  0  0  0  0
  1 19  1  1  0  0  0
  1  7  1  0  0  0  0
  2  3  1  0  0  0  0
  3  4  2  0  0  0  0
  3  5  1  0  0  0  0
  5  6  2  0  0  0  0
  7  8  2  0  0  0  0
  7  5  1  0  0  0  0
  8 26  1  0  0  0  0
  9  8  1  0  0  0  0
 10  2  1  0  0  0  0
 11 10  1  0  0  0  0
 11 12  1  0  0  0  0
 12 17  1  0  0  0  0
 12 18  1  0  0  0  0
 13 12  1  0  0  0  0
 14 15  1  0  0  0  0
 14 13  1  0  0  0  0
 15 16  1  0  0  0  0
 16 17  1  0  0  0  0
 19 20  1  0  0  0  0
 20 21  2  0  0  0  0
 22 23  1  0  0  0  0
 22 21  1  0  0  0  0
 24 22  2  0  0  0  0
 25 24  1  0  0  0  0
 25 19  2  0  0  0  0
 26 27  1  0  0  0  0
 26 30  2  0  0  0  0
 27 28  1  0  0  0  0
 28 29  2  0  0  0  0
 30 29  1  0  0  0  0
M  END
>  <Pose>
1

>  <Score>
-6.627

$$$$
