/Users/jonathanwahrer/Desktop/Msc/3_Semester/Drug_Design_Praktikum/waehrer_HTS_screening/HTS_experiment/out/docking_results/vina_output/2qfa/1945_docked.pdbqt
 OpenBabel03162221113D

 24 27  0  0  0  0  0  0  0  0999 V2000
   39.7030   13.6340   43.5890 Cl  0  0  0  0  0  0  0  0  0  0  0  0
   40.7020   12.1950   43.6590 C   0  0  0  0  0  0  0  0  0  0  0  0
   41.2450   11.7450   44.8410 C   0  0  0  0  0  3  0  0  0  0  0  0
   42.0400   10.5970   44.8830 C   0  0  0  0  0  0  0  0  0  0  0  0
   42.2710    9.9160   43.6970 C   0  0  0  0  0  0  0  0  0  0  0  0
   41.7350   10.3520   42.5090 C   0  0  0  0  0  3  0  0  0  0  0  0
   40.9580   11.4820   42.4810 C   0  0  0  0  0  3  0  0  0  0  0  0
   43.1030    8.6990   43.6930 C   0  0  0  0  0  0  0  0  0  0  0  0
   43.4670    7.8930   42.7540 N   0  0  0  0  0  0  0  0  0  0  0  0
   44.2950    6.8230   43.2390 C   0  0  0  0  0  3  0  0  0  0  0  0
   44.4090    7.0820   44.7090 C   0  0  0  0  0  3  0  0  0  0  0  0
   43.6380    8.2760   44.9310 N   0  0  0  0  0  0  0  0  0  0  0  0
   43.3830    8.9960   46.1300 C   0  0  0  0  0  0  0  0  0  0  0  0
   43.8500    8.6340   47.2470 O   0  0  0  0  0  0  0  0  0  0  0  0
   42.5710   10.1840   46.1370 N   0  0  0  0  0  0  0  0  0  0  0  0
   42.3230   10.9060   47.3780 C   0  0  0  0  0  2  0  0  0  0  0  0
   43.1930   12.0990   47.4850 C   0  0  0  0  0  0  0  0  0  0  0  0
   42.7590   13.0940   48.1150 O   0  0  0  0  0  0  0  0  0  0  0  0
   44.4870   12.1670   46.9150 N   0  0  0  0  0  0  0  0  0  0  0  0
   44.8330   11.3330   46.3980 H   0  0  0  0  0  0  0  0  0  0  0  0
   45.3160   13.3420   47.0360 C   0  0  0  0  0  2  0  0  0  0  0  0
   45.0320   14.2920   45.9030 C   0  0  0  0  0  3  0  0  0  0  0  0
   45.4620   13.9350   44.5240 C   0  0  0  0  0  2  0  0  0  0  0  0
   46.2110   14.9700   45.2710 C   0  0  0  0  0  2  0  0  0  0  0  0
  1  2  1  0  0  0  0
  2  3  1  0  0  0  0
  3  4  2  0  0  0  0
  4 15  1  0  0  0  0
  5  4  1  0  0  0  0
  6  5  2  0  0  0  0
  7  6  1  0  0  0  0
  7  2  2  0  0  0  0
  8  5  1  0  0  0  0
  8 12  1  0  0  0  0
  9 10  1  0  0  0  0
  9  8  2  0  0  0  0
 10 11  2  0  0  0  0
 11 12  1  0  0  0  0
 12 13  1  0  0  0  0
 13 15  1  0  0  0  0
 13 14  2  0  0  0  0
 15 16  1  0  0  0  0
 16 17  1  0  0  0  0
 17 18  2  0  0  0  0
 19 21  1  0  0  0  0
 19 17  1  0  0  0  0
 20 19  1  0  0  0  0
 22 21  1  0  0  0  0
 23 24  1  0  0  0  0
 23 22  1  0  0  0  0
 24 22  1  0  0  0  0
M  END
>  <Pose>
1

>  <Score>
-6.566

$$$$
