/Users/jonathanwahrer/Desktop/Msc/3_Semester/Drug_Design_Praktikum/waehrer_HTS_screening/HTS_experiment/out/docking_results/vina_output/2qfa/1957_docked.pdbqt
 OpenBabel03162221123D

 36 40  0  0  1  0  0  0  0  0999 V2000
   42.8090   12.3040   45.7040 C   0  0  2  0  0  3  0  0  0  0  0  0
   41.3910   12.4660   45.9980 N   0  0  0  0  0  0  0  0  0  0  0  0
   40.7940   11.1480   45.9100 C   0  0  1  0  0  0  0  0  0  0  0  0
   41.9010   10.2550   46.3890 C   0  0  2  0  0  3  0  0  0  0  0  0
   43.1600   10.8720   45.8660 C   0  0  1  0  0  3  0  0  0  0  0  0
   43.4470   10.1850   44.5770 C   0  0  0  0  0  0  0  0  0  0  0  0
   44.2520   10.5610   43.6930 O   0  0  0  0  0  0  0  0  0  0  0  0
   42.6160    9.0040   44.5510 N   0  0  0  0  0  0  0  0  0  0  0  0
   41.9130    8.9160   45.7730 C   0  0  0  0  0  0  0  0  0  0  0  0
   41.3810    7.8940   46.2710 O   0  0  0  0  0  0  0  0  0  0  0  0
   39.5850   11.0270   46.7600 C   0  0  0  0  0  0  0  0  0  0  0  0
   38.5330   10.7620   45.9160 C   0  0  0  0  0  0  0  0  0  0  0  0
   37.2650   10.5970   46.4560 C   0  0  0  0  0  3  0  0  0  0  0  0
   37.0950   10.7000   47.8160 C   0  0  0  0  0  3  0  0  0  0  0  0
   38.1480   10.9650   48.6750 C   0  0  0  0  0  3  0  0  0  0  0  0
   39.4030   11.1290   48.1250 C   0  0  0  0  0  3  0  0  0  0  0  0
   38.9710   10.7090   44.5460 N   0  0  0  0  0  0  0  0  0  0  0  0
   40.3660   10.9530   44.5360 C   0  0  0  0  0  0  0  0  0  0  0  0
   41.0550   10.9840   43.5030 O   0  0  0  0  0  0  0  0  0  0  0  0
   40.9600   13.1280   45.3450 H   0  0  0  0  0  0  0  0  0  0  0  0
   38.3250   10.5200   43.7470 H   0  0  0  0  0  0  0  0  0  0  0  0
   43.5310   13.2340   46.6420 C   0  0  1  0  0  3  0  0  0  0  0  0
   44.6010   14.0260   45.9710 C   0  0  0  0  0  0  0  0  0  0  0  0
   45.1110   15.1750   46.5730 C   0  0  0  0  0  3  0  0  0  0  0  0
   46.0800   15.9300   45.9670 C   0  0  0  0  0  3  0  0  0  0  0  0
   46.5990   15.5900   44.7330 C   0  0  0  0  0  0  0  0  0  0  0  0
   47.8410   16.5490   43.9460 Cl  0  0  0  0  0  0  0  0  0  0  0  0
   46.0800   14.4520   44.1570 C   0  0  0  0  0  3  0  0  0  0  0  0
   45.1080   13.6770   44.7430 C   0  0  0  0  0  3  0  0  0  0  0  0
   42.7050   14.0880   47.3260 O   0  0  0  0  0  0  0  0  0  0  0  0
   42.8660   15.0060   46.9890 H   0  0  0  0  0  0  0  0  0  0  0  0
   42.5200    8.0860   43.4540 C   0  0  0  0  0  2  0  0  0  0  0  0
   43.6890    7.1980   43.2450 C   0  0  0  0  0  2  0  0  0  0  0  0
   43.8240    6.0390   44.1680 C   0  0  0  0  0  2  0  0  0  0  0  0
   44.8140    5.1430   43.7860 O   0  0  0  0  0  0  0  0  0  0  0  0
   45.7170    5.7890   42.9170 C   0  0  0  0  0  1  0  0  0  0  0  0
  1  5  1  0  0  0  0
  1  2  1  0  0  0  0
  1 22  1  1  0  0  0
  3 18  1  6  0  0  0
  3  2  1  0  0  0  0
  3  4  1  0  0  0  0
  3 11  1  0  0  0  0
  4  9  1  6  0  0  0
  5  6  1  6  0  0  0
  5  4  1  0  0  0  0
  7  6  2  0  0  0  0
  8  6  1  0  0  0  0
  8  9  1  0  0  0  0
  9 10  2  0  0  0  0
 11 16  1  0  0  0  0
 12 13  1  0  0  0  0
 12 11  2  0  0  0  0
 13 14  2  0  0  0  0
 14 15  1  0  0  0  0
 16 15  2  0  0  0  0
 17 12  1  0  0  0  0
 18 17  1  0  0  0  0
 19 18  2  0  0  0  0
 20  2  1  0  0  0  0
 21 17  1  0  0  0  0
 22 30  1  6  0  0  0
 23 24  1  0  0  0  0
 23 22  1  0  0  0  0
 25 24  2  0  0  0  0
 26 25  1  0  0  0  0
 27 26  1  0  0  0  0
 28 26  2  0  0  0  0
 28 29  1  0  0  0  0
 29 23  2  0  0  0  0
 31 30  1  0  0  0  0
 32  8  1  0  0  0  0
 33 32  1  0  0  0  0
 33 34  1  0  0  0  0
 35 34  1  0  0  0  0
 36 35  1  0  0  0  0
M  END
>  <Pose>
1

>  <Score>
-7.943

$$$$
