/Users/jonathanwahrer/Desktop/Msc/3_Semester/Drug_Design_Praktikum/waehrer_HTS_screening/HTS_experiment/out/docking_results/vina_output/2qfa/1958_docked.pdbqt
 OpenBabel03162221133D

 28 31  0  0  1  0  0  0  0  0999 V2000
   44.7590    7.1180   44.4120 C   0  0  0  0  0  0  0  0  0  0  0  0
   45.1250    7.6110   45.5340 O   0  0  0  0  0  0  0  0  0  0  0  0
   45.6820    6.8100   43.4020 N   0  0  0  0  0  0  0  0  0  0  0  0
   45.2810    6.2590   42.1470 C   0  0  0  0  0  2  0  0  0  0  0  0
   46.3350    5.4320   41.4670 C   0  0  0  0  0  2  0  0  0  0  0  0
   47.2910    4.8990   42.4680 C   0  0  2  0  0  3  0  0  0  0  0  0
   47.6890    5.6690   43.5450 C   0  0  0  0  0  0  0  0  0  0  0  0
   48.5550    5.2000   44.4500 N   0  0  0  0  0  0  0  0  0  0  0  0
   49.0900    3.9630   44.3760 C   0  0  2  0  0  3  0  0  0  0  0  0
   48.7030    3.2040   43.3220 N   0  0  0  0  0  0  0  0  0  0  0  0
   47.8360    3.6310   42.3880 C   0  0  0  0  0  0  0  0  0  0  0  0
   47.0810    7.0490   43.6250 C   0  0  0  0  0  2  0  0  0  0  0  0
   43.2900    6.8850   44.2310 C   0  0  0  0  0  2  0  0  0  0  0  0
   42.5620    8.1560   44.0890 C   0  0  0  0  0  0  0  0  0  0  0  0
   42.0840    8.8830   45.1580 C   0  0  0  0  0  3  0  0  0  0  0  0
   41.4040   10.0700   44.9930 C   0  0  0  0  0  3  0  0  0  0  0  0
   41.1760   10.5730   43.7160 C   0  0  0  0  0  0  0  0  0  0  0  0
   40.3140   12.0780   43.4900 Cl  0  0  0  0  0  0  0  0  0  0  0  0
   41.6610    9.8320   42.6540 C   0  0  0  0  0  3  0  0  0  0  0  0
   42.3410    8.6460   42.8210 C   0  0  0  0  0  3  0  0  0  0  0  0
   47.4600    2.8280   41.3200 O   0  0  0  0  0  0  0  0  0  0  0  0
   46.6720    3.0650   40.7120 H   0  0  0  0  0  0  0  0  0  0  0  0
   49.9950    3.5160   45.3540 N   0  0  0  0  0  0  0  0  0  0  0  0
   50.2930    4.3260   46.4980 C   0  0  0  0  0  2  0  0  0  0  0  0
   50.7990    3.3660   47.5840 C   0  0  0  0  0  2  0  0  0  0  0  0
   51.9550    2.7380   47.1910 O   0  0  0  0  0  0  0  0  0  0  0  0
   51.9530    2.2030   45.9320 C   0  0  0  0  0  2  0  0  0  0  0  0
   50.6310    2.2410   45.2160 C   0  0  0  0  0  2  0  0  0  0  0  0
  1  2  2  0  0  0  0
  3 12  1  0  0  0  0
  3  1  1  0  0  0  0
  4  3  1  0  0  0  0
  5  4  1  0  0  0  0
  6  5  1  6  0  0  0
  6  7  1  0  0  0  0
  7 12  1  0  0  0  0
  7  8  2  0  0  0  0
  9  8  1  0  0  0  0
  9 23  1  1  0  0  0
 10  9  1  0  0  0  0
 11  6  1  0  0  0  0
 11 10  2  0  0  0  0
 13  1  1  0  0  0  0
 14 13  1  0  0  0  0
 14 15  1  0  0  0  0
 16 15  2  0  0  0  0
 17 16  1  0  0  0  0
 18 17  1  0  0  0  0
 19 20  1  0  0  0  0
 19 17  2  0  0  0  0
 20 14  2  0  0  0  0
 21 11  1  0  0  0  0
 22 21  1  0  0  0  0
 23 24  1  0  0  0  0
 24 25  1  0  0  0  0
 26 25  1  0  0  0  0
 27 26  1  0  0  0  0
 28 23  1  0  0  0  0
 28 27  1  0  0  0  0
M  END
>  <Pose>
1

>  <Score>
-7.804

$$$$
