/Users/jonathanwahrer/Desktop/Msc/3_Semester/Drug_Design_Praktikum/waehrer_HTS_screening/HTS_experiment/out/docking_results/vina_output/2qfa/1971_docked.pdbqt
 OpenBabel03162221133D

 22 25  0  0  1  0  0  0  0  0999 V2000
   42.1670    9.1210   44.6170 N   0  0  0  0  0  0  0  0  0  0  0  0
   41.3820    9.9220   43.7140 C   0  0  0  0  0  0  0  0  0  0  0  0
   41.5030    9.9120   42.4660 O   0  0  0  0  0  0  0  0  0  0  0  0
   40.4370   10.7370   44.4720 C   0  0  2  0  0  3  0  0  0  0  0  0
   40.7530   12.1950   44.5290 C   0  0  1  0  0  0  0  0  0  0  0  0
   40.1190   12.5390   45.7500 O   0  0  0  0  0  0  0  0  0  0  0  0
   40.8880   11.6830   46.5790 C   0  0  1  0  0  3  0  0  0  0  0  0
   40.6110   10.3420   45.9470 C   0  0  2  0  0  3  0  0  0  0  0  0
   41.8200    9.5150   45.9400 C   0  0  0  0  0  0  0  0  0  0  0  0
   42.4790    9.1830   46.9550 O   0  0  0  0  0  0  0  0  0  0  0  0
   42.2560   12.0900   46.1940 C   0  0  0  0  0  2  0  0  0  0  0  0
   42.1640   12.4520   44.8940 C   0  0  0  0  0  2  0  0  0  0  0  0
   43.1230    8.1170   44.3000 C   0  0  0  0  0  0  0  0  0  0  0  0
   44.3890    8.4240   43.8270 C   0  0  0  0  0  3  0  0  0  0  0  0
   45.3150    7.4500   43.5210 C   0  0  0  0  0  0  0  0  0  0  0  0
   46.9090    7.8550   42.9240 Cl  0  0  0  0  0  0  0  0  0  0  0  0
   45.0130    6.1120   43.6760 C   0  0  0  0  0  3  0  0  0  0  0  0
   43.7550    5.7960   44.1480 C   0  0  0  0  0  3  0  0  0  0  0  0
   42.8230    6.7780   44.4560 C   0  0  0  0  0  3  0  0  0  0  0  0
   40.2430   13.0030   43.3890 C   0  0  0  0  0  2  0  0  0  0  0  0
   38.9590   13.4480   43.6780 O   0  0  0  0  0  0  0  0  0  0  0  0
   38.5760   13.9160   42.9000 H   0  0  0  0  0  0  0  0  0  0  0  0
  1  9  1  0  0  0  0
  2  1  1  0  0  0  0
  3  2  2  0  0  0  0
  4  2  1  6  0  0  0
  4  5  1  0  0  0  0
  4  8  1  0  0  0  0
  5 20  1  6  0  0  0
  5 12  1  0  0  0  0
  5  6  1  0  0  0  0
  6  7  1  0  0  0  0
  7 11  1  6  0  0  0
  8  9  1  6  0  0  0
  8  7  1  0  0  0  0
  9 10  2  0  0  0  0
 12 11  1  0  0  0  0
 13 19  1  0  0  0  0
 13  1  1  0  0  0  0
 14 13  2  0  0  0  0
 15 17  2  0  0  0  0
 15 14  1  0  0  0  0
 16 15  1  0  0  0  0
 17 18  1  0  0  0  0
 18 19  2  0  0  0  0
 20 21  1  0  0  0  0
 22 21  1  0  0  0  0
M  END
>  <Pose>
1

>  <Score>
-6.400

$$$$
