/Users/jonathanwahrer/Desktop/Msc/3_Semester/Drug_Design_Praktikum/waehrer_HTS_screening/HTS_experiment/out/docking_results/vina_output/2qfa/1973_docked.pdbqt
 OpenBabel03162221133D

 24 27  0  0  1  0  0  0  0  0999 V2000
   40.9500   14.2180   48.6720 Cl  0  0  0  0  0  0  0  0  0  0  0  0
   41.0100   13.2160   47.2230 C   0  0  0  0  0  0  0  0  0  0  0  0
   41.5550   11.9490   47.2330 C   0  0  0  0  0  2  0  0  0  0  0  0
   41.6100   11.1630   46.1300 N   0  0  0  0  0  0  0  0  0  0  0  0
   41.1300   11.5790   44.9430 C   0  0  0  0  0  0  0  0  0  0  0  0
   41.1770   10.8060   43.8260 N   0  0  0  0  0  0  0  0  0  0  0  0
   41.7060    9.5690   43.8270 C   0  0  0  0  0  0  0  0  0  0  0  0
   42.2060    9.1240   45.0470 C   0  0  1  0  0  3  0  0  0  0  0  0
   42.7920    7.7580   45.0490 C   0  0  0  0  0  2  0  0  0  0  0  0
   43.6370    7.6990   43.8510 N   0  0  0  0  0  0  0  0  0  0  0  0
   42.9950    7.8560   42.5770 C   0  0  0  0  0  2  0  0  0  0  0  0
   41.7610    8.7130   42.6150 C   0  0  0  0  0  2  0  0  0  0  0  0
   45.0310    7.5030   43.9630 C   0  0  0  0  0  0  0  0  0  0  0  0
   45.5060    7.3900   45.1440 O   0  0  0  0  0  0  0  0  0  0  0  0
   42.1450    9.9300   46.1620 C   0  0  0  0  0  0  0  0  0  0  0  0
   42.6100    9.4990   47.2670 O   0  0  0  0  0  0  0  0  0  0  0  0
   40.5800   12.8500   44.9110 C   0  0  0  0  0  3  0  0  0  0  0  0
   40.5120   13.6680   46.0200 C   0  0  0  0  0  3  0  0  0  0  0  0
   45.9290    7.4240   42.7900 C   0  0  0  0  0  3  0  0  0  0  0  0
   45.6840    6.1800   41.9640 C   0  0  0  0  0  2  0  0  0  0  0  0
   45.4870    5.0500   42.9660 C   0  0  0  0  0  2  0  0  0  0  0  0
   46.3560    5.2090   44.0450 O   0  0  0  0  0  0  0  0  0  0  0  0
   47.5530    5.8220   43.6530 C   0  0  0  0  0  2  0  0  0  0  0  0
   47.3670    7.2890   43.3130 C   0  0  0  0  0  2  0  0  0  0  0  0
  2  3  1  0  0  0  0
  2  1  1  0  0  0  0
  4 15  1  0  0  0  0
  4  3  1  0  0  0  0
  5  4  1  0  0  0  0
  6  7  2  0  0  0  0
  6  5  1  0  0  0  0
  7  8  1  0  0  0  0
  8  9  1  6  0  0  0
  8 15  1  0  0  0  0
 10 13  1  0  0  0  0
 10  9  1  0  0  0  0
 11 12  1  0  0  0  0
 11 10  1  0  0  0  0
 12  7  1  0  0  0  0
 13 14  2  0  0  0  0
 15 16  2  0  0  0  0
 17  5  2  0  0  0  0
 17 18  1  0  0  0  0
 18  2  2  0  0  0  0
 19 24  1  0  0  0  0
 19 13  1  0  0  0  0
 20 19  1  0  0  0  0
 20 21  1  0  0  0  0
 21 22  1  0  0  0  0
 23 22  1  0  0  0  0
 24 23  1  0  0  0  0
M  END
>  <Pose>
1

>  <Score>
-6.459

$$$$
