/Users/jonathanwahrer/Desktop/Msc/3_Semester/Drug_Design_Praktikum/waehrer_HTS_screening/HTS_experiment/out/docking_results/vina_output/2qfa/1974_docked.pdbqt
 OpenBabel03162221143D

 26 29  0  0  0  0  0  0  0  0999 V2000
   44.6650   12.3230   44.0490 F   0  0  0  0  0  0  0  0  0  0  0  0
   44.1110   13.0810   45.0250 C   0  0  0  0  0  0  0  0  0  0  0  0
   42.7480   12.9670   45.2550 C   0  0  0  0  0  0  0  0  0  0  0  0
   42.1160   13.7060   46.2300 C   0  0  0  0  0  0  0  0  0  0  0  0
   42.8900   14.5760   46.9800 C   0  0  0  0  0  0  0  0  0  0  0  0
   44.2410   14.6900   46.7530 C   0  0  0  0  0  3  0  0  0  0  0  0
   44.8670   13.9480   45.7780 C   0  0  0  0  0  3  0  0  0  0  0  0
   42.0890   15.5200   48.2230 Cl  0  0  0  0  0  0  0  0  0  0  0  0
   40.6980   13.4120   46.2770 C   0  0  0  0  0  0  0  0  0  0  0  0
   39.8270   13.8960   47.0350 O   0  0  0  0  0  0  0  0  0  0  0  0
   40.4750   12.4130   45.2400 C   0  0  0  0  0  0  0  0  0  0  0  0
   39.3540   11.8870   44.9560 O   0  0  0  0  0  0  0  0  0  0  0  0
   41.7310   12.1560   44.6310 N   0  0  0  0  0  0  0  0  0  0  0  0
   41.9980   11.2330   43.5470 C   0  0  0  0  0  2  0  0  0  0  0  0
   41.9230    9.8430   43.9440 N   0  0  0  0  0  0  0  0  0  0  0  0
   41.8690    8.9890   42.8080 C   0  0  0  0  0  2  0  0  0  0  0  0
   42.7320    7.7780   42.8710 C   0  0  0  0  0  2  0  0  0  0  0  0
   44.0140    8.0130   43.4830 N   0  0  0  0  0  0  0  0  0  0  0  0
   44.1890    9.2020   44.2840 C   0  0  0  0  0  2  0  0  0  0  0  0
   42.8580    9.4760   44.9520 C   0  0  0  0  0  2  0  0  0  0  0  0
   45.1020    7.1230   43.3290 C   0  0  0  0  0  0  0  0  0  0  0  0
   44.9340    5.7930   43.4050 N   0  0  0  0  0  0  0  0  0  0  0  0
   45.9540    4.9240   43.2620 C   0  0  0  0  0  3  0  0  0  0  0  0
   47.2360    5.3850   43.0270 C   0  0  0  0  0  3  0  0  0  0  0  0
   47.4100    6.7140   42.9480 N   0  0  0  0  0  0  0  0  0  0  0  0
   46.3910    7.5830   43.0910 C   0  0  0  0  0  3  0  0  0  0  0  0
  1  2  1  0  0  0  0
  2  3  2  0  0  0  0
  2  7  1  0  0  0  0
  3  4  1  0  0  0  0
  4  9  1  0  0  0  0
  4  5  2  0  0  0  0
  5  8  1  0  0  0  0
  6  5  1  0  0  0  0
  7  6  2  0  0  0  0
  9 10  2  0  0  0  0
 11  9  1  0  0  0  0
 12 11  2  0  0  0  0
 13 11  1  0  0  0  0
 13  3  1  0  0  0  0
 14 15  1  0  0  0  0
 14 13  1  0  0  0  0
 15 20  1  0  0  0  0
 16 17  1  0  0  0  0
 16 15  1  0  0  0  0
 17 18  1  0  0  0  0
 18 19  1  0  0  0  0
 19 20  1  0  0  0  0
 21 22  1  0  0  0  0
 21 18  1  0  0  0  0
 23 22  2  0  0  0  0
 24 23  1  0  0  0  0
 25 24  2  0  0  0  0
 25 26  1  0  0  0  0
 26 21  2  0  0  0  0
M  END
>  <Pose>
1

>  <Score>
-7.217

$$$$
