/Users/jonathanwahrer/Desktop/Msc/3_Semester/Drug_Design_Praktikum/waehrer_HTS_screening/HTS_experiment/out/docking_results/vina_output/2qfa/1982_docked.pdbqt
 OpenBabel03162221143D

 25 28  0  0  0  0  0  0  0  0999 V2000
   52.0360   -0.1100   41.9600 Cl  0  0  0  0  0  0  0  0  0  0  0  0
   51.6890    1.1660   43.1070 C   0  0  0  0  0  0  0  0  0  0  0  0
   50.6010    2.0050   42.9830 C   0  0  0  0  0  3  0  0  0  0  0  0
   50.3160    3.0150   43.8790 C   0  0  0  0  0  0  0  0  0  0  0  0
   51.1740    3.1790   44.9490 C   0  0  0  0  0  0  0  0  0  0  0  0
   52.2650    2.3460   45.0850 C   0  0  0  0  0  3  0  0  0  0  0  0
   52.5500    1.3370   44.1880 C   0  0  0  0  0  3  0  0  0  0  0  0
   50.8880    4.2550   45.9240 C   0  0  0  0  0  0  0  0  0  0  0  0
   51.5030    4.6120   46.9720 N   0  0  0  0  0  0  0  0  0  0  0  0
   50.8840    5.7290   47.6540 C   0  0  0  0  0  3  0  0  0  0  0  0
   49.6860    6.0660   46.8270 C   0  0  0  0  0  3  0  0  0  0  0  0
   49.7550    5.0940   45.7530 N   0  0  0  0  0  0  0  0  0  0  0  0
   48.9190    4.8570   44.6200 C   0  0  0  0  0  0  0  0  0  0  0  0
   47.8000    5.4790   44.2090 N   0  0  0  0  0  0  0  0  0  0  0  0
   47.3370    4.9350   43.0960 N   0  0  0  0  0  0  0  0  0  0  0  0
   48.2060    3.9350   42.8070 C   0  0  0  0  0  0  0  0  0  0  0  0
   48.0850    3.1920   41.8090 O   0  0  0  0  0  0  0  0  0  0  0  0
   49.1830    3.8680   43.7260 N   0  0  0  0  0  0  0  0  0  0  0  0
   46.1570    5.3260   42.3500 C   0  0  0  0  0  2  0  0  0  0  0  0
   45.0830    5.8220   43.3290 C   0  0  0  0  0  2  0  0  0  0  0  0
   44.8380    7.2720   43.1260 C   0  0  0  0  0  0  0  0  0  0  0  0
   43.7090    7.7760   42.9020 O   0  0  0  0  0  0  0  0  0  0  0  0
   45.9520    8.1470   43.1880 N   0  0  0  0  0  0  0  0  0  0  0  0
   46.8890    7.9100   42.8160 H   0  0  0  0  0  0  0  0  0  0  0  0
   45.8130    9.0780   43.6340 H   0  0  0  0  0  0  0  0  0  0  0  0
  1  2  1  0  0  0  0
  2  7  1  0  0  0  0
  3  2  2  0  0  0  0
  3  4  1  0  0  0  0
  4  5  2  0  0  0  0
  5  6  1  0  0  0  0
  5  8  1  0  0  0  0
  7  6  2  0  0  0  0
  8  9  2  0  0  0  0
  9 10  1  0  0  0  0
 11 10  2  0  0  0  0
 12  8  1  0  0  0  0
 12 11  1  0  0  0  0
 13 12  1  0  0  0  0
 14 13  2  0  0  0  0
 15 14  1  0  0  0  0
 16 15  1  0  0  0  0
 16 18  1  0  0  0  0
 17 16  2  0  0  0  0
 18  4  1  0  0  0  0
 18 13  1  0  0  0  0
 19 15  1  0  0  0  0
 19 20  1  0  0  0  0
 21 23  1  0  0  0  0
 21 20  1  0  0  0  0
 22 21  2  0  0  0  0
 23 25  1  0  0  0  0
 24 23  1  0  0  0  0
M  END
>  <Pose>
1

>  <Score>
-6.824

$$$$
