/Users/jonathanwahrer/Desktop/Msc/3_Semester/Drug_Design_Praktikum/waehrer_HTS_screening/HTS_experiment/out/docking_results/vina_output/2qfa/1991_docked.pdbqt
 OpenBabel03162221143D

 31 34  0  0  1  0  0  0  0  0999 V2000
   46.5060   12.8380   50.5150 Cl  0  0  0  0  0  0  0  0  0  0  0  0
   45.2600   12.7950   49.2910 C   0  0  0  0  0  0  0  0  0  0  0  0
   44.1860   11.9410   49.4030 C   0  0  0  0  0  3  0  0  0  0  0  0
   43.2180   11.9210   48.4320 C   0  0  0  0  0  0  0  0  0  0  0  0
   43.3280   12.7740   47.3280 C   0  0  0  0  0  0  0  0  0  0  0  0
   44.4060   13.6360   47.2070 C   0  0  0  0  0  3  0  0  0  0  0  0
   45.3510   13.6260   48.1960 C   0  0  0  0  0  3  0  0  0  0  0  0
   42.4400   12.8730   46.2680 O   0  0  0  0  0  0  0  0  0  0  0  0
   41.0750   12.5290   46.2500 C   0  0  0  0  0  0  0  0  0  0  0  0
   40.8540   11.0640   46.4400 C   0  0  0  0  0  2  0  0  0  0  0  0
   41.6930   10.4380   47.4180 N   0  0  0  0  0  0  0  0  0  0  0  0
   42.1250   10.9500   48.6920 C   0  0  0  0  0  2  0  0  0  0  0  0
   42.1940    9.1240   47.1260 C   0  0  0  0  0  0  0  0  0  0  0  0
   42.9240    8.5890   47.9970 O   0  0  0  0  0  0  0  0  0  0  0  0
   40.3260   13.3720   47.2700 C   0  0  0  0  0  2  0  0  0  0  0  0
   39.8000   14.6390   46.6200 C   0  0  0  0  0  2  0  0  0  0  0  0
   38.8210   14.3840   45.6800 O   0  0  0  0  0  0  0  0  0  0  0  0
   38.9920   13.1260   45.1140 C   0  0  0  0  0  2  0  0  0  0  0  0
   40.4740   12.8960   44.8910 C   0  0  0  0  0  2  0  0  0  0  0  0
   41.8720    8.4380   45.8750 C   0  0  0  0  0  2  0  0  0  0  0  0
   42.9380    7.8440   45.1550 N   0  0  0  0  0  0  0  0  0  0  0  0
   43.9690    8.8230   44.8000 C   0  0  0  0  0  2  0  0  0  0  0  0
   43.3510    9.8580   43.9370 C   0  0  0  0  0  2  0  0  0  0  0  0
   42.4920    9.3690   42.8190 C   0  0  1  0  0  3  0  0  0  0  0  0
   42.0900    7.9470   42.8460 C   0  0  0  0  0  2  0  0  0  0  0  0
   42.5760    7.1100   43.9680 C   0  0  0  0  0  2  0  0  0  0  0  0
   41.3160   10.2490   42.6100 C   0  0  0  0  0  0  0  0  0  0  0  0
   41.4680   11.3470   42.0370 O   0  0  0  0  0  0  0  0  0  0  0  0
   40.0410    9.8430   43.0580 N   0  0  0  0  0  0  0  0  0  0  0  0
   39.3660    9.5290   42.3000 H   0  0  0  0  0  0  0  0  0  0  0  0
   39.7120    9.8230   44.0310 H   0  0  0  0  0  0  0  0  0  0  0  0
  2  3  1  0  0  0  0
  2  1  1  0  0  0  0
  4 12  1  0  0  0  0
  4  3  2  0  0  0  0
  5  4  1  0  0  0  0
  6  5  2  0  0  0  0
  6  7  1  0  0  0  0
  7  2  2  0  0  0  0
  8  5  1  0  0  0  0
  9  8  1  0  0  0  0
  9 10  1  0  0  0  0
  9 15  1  0  0  0  0
 10 11  1  0  0  0  0
 11 12  1  0  0  0  0
 13 11  1  0  0  0  0
 13 14  2  0  0  0  0
 16 15  1  0  0  0  0
 17 16  1  0  0  0  0
 18 17  1  0  0  0  0
 19 18  1  0  0  0  0
 19  9  1  0  0  0  0
 20 13  1  0  0  0  0
 21 20  1  0  0  0  0
 22 21  1  0  0  0  0
 23 22  1  0  0  0  0
 24 27  1  1  0  0  0
 24 25  1  0  0  0  0
 24 23  1  0  0  0  0
 25 26  1  0  0  0  0
 26 21  1  0  0  0  0
 27 29  1  0  0  0  0
 28 27  2  0  0  0  0
 29 31  1  0  0  0  0
 30 29  1  0  0  0  0
M  END
>  <Pose>
1

>  <Score>
-6.553

$$$$
