/Users/jonathanwahrer/Desktop/Msc/3_Semester/Drug_Design_Praktikum/waehrer_HTS_screening/HTS_experiment/out/docking_results/vina_output/2qfa/2003_docked.pdbqt
 OpenBabel03162221143D

 28 31  0  0  0  0  0  0  0  0999 V2000
   36.5810   13.2120   44.9810 N   0  0  0  0  0  0  0  0  0  0  0  0
   36.7300   11.8880   45.5030 C   0  0  0  0  0  2  0  0  0  0  0  0
   38.1680   11.4680   45.6620 C   0  0  0  0  0  2  0  0  0  0  0  0
   39.0180   12.5610   46.0730 N   0  0  0  0  0  0  0  0  0  0  0  0
   38.5340   13.8900   46.3350 C   0  0  0  0  0  3  0  0  0  0  0  0
   37.2370   14.2380   45.7090 C   0  0  0  0  0  3  0  0  0  0  0  0
   40.4080   12.3070   46.2290 C   0  0  0  0  0  0  0  0  0  0  0  0
   41.2110   13.2300   46.5910 O   0  0  0  0  0  0  0  0  0  0  0  0
   40.9620   10.9770   45.9790 C   0  0  0  0  0  0  0  0  0  0  0  0
   41.0830   10.0120   46.9580 C   0  0  0  0  0  3  0  0  0  0  0  0
   41.6020    8.8070   46.6540 N   0  0  0  0  0  0  0  0  0  0  0  0
   42.0220    8.4720   45.4210 C   0  0  0  0  0  0  0  0  0  0  0  0
   41.9100    9.4020   44.4540 N   0  0  0  0  0  0  0  0  0  0  0  0
   42.5520    7.2180   45.1450 C   0  0  0  0  0  3  0  0  0  0  0  0
   42.3240    9.0850   43.2110 C   0  0  0  0  0  3  0  0  0  0  0  0
   41.3960   10.6180   44.7180 C   0  0  0  0  0  0  0  0  0  0  0  0
   42.8560    7.8480   42.9070 C   0  0  0  0  0  3  0  0  0  0  0  0
   42.9840    6.8720   43.8760 C   0  0  0  0  0  3  0  0  0  0  0  0
   41.2910   11.4860   43.8170 O   0  0  0  0  0  0  0  0  0  0  0  0
   35.0200   13.5870   44.4430 S   0  0  0  0  0  0  0  0  0  0  0  0
   34.2150   12.3610   44.2360 O   0  0  0  0  0  0  0  0  0  0  0  0
   34.3510   14.4700   45.4720 O   0  0  0  0  0  0  0  0  0  0  0  0
   35.1440   14.4910   42.9240 C   0  0  0  0  0  0  0  0  0  0  0  0
   35.0990   16.1740   42.6580 S   0  0  0  0  0  0  0  0  0  0  0  0
   35.2820   16.1840   40.9630 C   0  0  0  0  0  0  0  0  0  0  0  0
   35.3750   14.8560   40.6530 C   0  0  0  0  0  3  0  0  0  0  0  0
   35.3450   17.5560   39.8380 Cl  0  0  0  0  0  0  0  0  0  0  0  0
   35.3040   13.9810   41.6610 C   0  0  0  0  0  3  0  0  0  0  0  0
  1  2  1  0  0  0  0
  1  6  1  0  0  0  0
  2  3  1  0  0  0  0
  3  4  1  0  0  0  0
  4  7  1  0  0  0  0
  4  5  1  0  0  0  0
  6  5  2  0  0  0  0
  7  8  2  0  0  0  0
  9  7  1  0  0  0  0
  9 10  2  0  0  0  0
 11 10  1  0  0  0  0
 12 11  2  0  0  0  0
 13 16  1  0  0  0  0
 13 12  1  0  0  0  0
 14 12  1  0  0  0  0
 15 13  1  0  0  0  0
 16  9  1  0  0  0  0
 17 15  2  0  0  0  0
 17 18  1  0  0  0  0
 18 14  2  0  0  0  0
 19 16  2  0  0  0  0
 20  1  1  0  0  0  0
 20 22  2  0  0  0  0
 21 20  2  0  0  0  0
 23 20  1  0  0  0  0
 24 23  1  0  0  0  0
 25 24  1  0  0  0  0
 26 25  2  0  0  0  0
 26 28  1  0  0  0  0
 27 25  1  0  0  0  0
 28 23  2  0  0  0  0
M  END
>  <Pose>
1

>  <Score>
-6.488

$$$$
