/Users/jonathanwahrer/Desktop/Msc/3_Semester/Drug_Design_Praktikum/waehrer_HTS_screening/HTS_experiment/out/docking_results/vina_output/2qfa/2004_docked.pdbqt
 OpenBabel03162221153D

 29 32  0  0  1  0  0  0  0  0999 V2000
   41.4410   10.1850   45.5380 S   0  0  0  0  0  0  0  0  0  0  0  0
   40.3410    9.7280   46.4830 O   0  0  0  0  0  0  0  0  0  0  0  0
   40.7130   11.0620   44.5210 O   0  0  0  0  0  0  0  0  0  0  0  0
   42.1450    8.8910   44.7420 N   0  0  0  0  0  0  0  0  0  0  0  0
   42.0970    7.6340   45.3490 C   0  0  0  0  0  2  0  0  0  0  0  0
   42.5280    6.5000   44.4080 C   0  0  0  0  0  2  0  0  0  0  0  0
   43.6210    6.8960   43.5710 N   0  0  0  0  0  0  0  0  0  0  0  0
   43.5620    8.2000   42.9480 C   0  0  0  0  0  2  0  0  0  0  0  0
   44.7090    6.0390   43.3700 C   0  0  0  0  0  0  0  0  0  0  0  0
   43.3820    9.2070   44.0670 C   0  0  0  0  0  2  0  0  0  0  0  0
   44.7380    4.9100   43.9230 O   0  0  0  0  0  0  0  0  0  0  0  0
   45.8730    6.4090   42.5050 C   0  0  0  0  0  3  0  0  0  0  0  0
   46.9050    5.3140   42.3770 C   0  0  0  0  0  2  0  0  0  0  0  0
   47.6090    5.9290   43.5850 C   0  0  0  0  0  2  0  0  0  0  0  0
   46.8860    7.2370   43.2540 C   0  0  0  0  0  2  0  0  0  0  0  0
   42.5180   11.2400   46.4260 C   0  0  0  0  0  0  0  0  0  0  0  0
   42.7820   12.5260   45.9120 C   0  0  0  0  0  3  0  0  0  0  0  0
   43.6650   13.3790   46.5330 C   0  0  0  0  0  0  0  0  0  0  0  0
   44.3410   13.0360   47.6820 C   0  0  0  0  0  0  0  0  0  0  0  0
   43.9070   14.6470   46.0040 O   0  0  0  0  0  0  0  0  0  0  0  0
   44.0870   11.7860   48.1880 C   0  0  0  0  0  3  0  0  0  0  0  0
   45.2390   13.9590   48.2700 N   0  0  0  0  0  0  0  0  0  0  0  0
   43.1890   10.9020   47.5710 C   0  0  0  0  0  0  0  0  0  0  0  0
   42.8630    9.3570   48.3190 Cl  0  0  0  0  0  0  0  0  0  0  0  0
   45.4780   15.2470   47.7160 C   0  0  0  0  0  0  0  0  0  0  0  0
   45.7500   13.6930   49.1440 H   0  0  0  0  0  0  0  0  0  0  0  0
   46.0430   16.1860   48.3090 O   0  0  0  0  0  0  0  0  0  0  0  0
   45.0060   15.4570   46.3220 C   0  0  1  0  0  3  0  0  0  0  0  0
   46.1110   15.1660   45.3320 C   0  0  0  0  0  1  0  0  0  0  0  0
  1 16  1  0  0  0  0
  1  2  2  0  0  0  0
  3  1  2  0  0  0  0
  4  5  1  0  0  0  0
  4  1  1  0  0  0  0
  6  5  1  0  0  0  0
  7  6  1  0  0  0  0
  8  7  1  0  0  0  0
  8 10  1  0  0  0  0
  9  7  1  0  0  0  0
  9 11  2  0  0  0  0
 10  4  1  0  0  0  0
 12 15  1  0  0  0  0
 12  9  1  0  0  0  0
 13 12  1  0  0  0  0
 13 14  1  0  0  0  0
 15 14  1  0  0  0  0
 16 23  1  0  0  0  0
 17 16  2  0  0  0  0
 17 18  1  0  0  0  0
 18 19  2  0  0  0  0
 19 21  1  0  0  0  0
 19 22  1  0  0  0  0
 20 28  1  0  0  0  0
 20 18  1  0  0  0  0
 22 26  1  0  0  0  0
 23 21  2  0  0  0  0
 23 24  1  0  0  0  0
 25 22  1  0  0  0  0
 25 27  2  0  0  0  0
 28 29  1  6  0  0  0
 28 25  1  0  0  0  0
M  END
>  <Pose>
1

>  <Score>
-7.273

$$$$
