/Users/jonathanwahrer/Desktop/Msc/3_Semester/Drug_Design_Praktikum/waehrer_HTS_screening/HTS_experiment/out/docking_results/vina_output/2qfa/2014_docked.pdbqt
 OpenBabel03162221153D

 26 29  0  0  0  0  0  0  0  0999 V2000
   41.9900   10.4640   46.1580 C   0  0  0  0  0  0  0  0  0  0  0  0
   42.4880   11.6140   46.6030 N   0  0  0  0  0  0  0  0  0  0  0  0
   41.9370   11.9220   47.8140 C   0  0  0  0  0  0  0  0  0  0  0  0
   41.0870   10.9050   48.0840 N   0  0  0  0  0  0  0  0  0  0  0  0
   41.1070   10.0340   47.1130 N   0  0  0  0  0  0  0  0  0  0  0  0
   42.4320   13.0800   48.2780 N   0  0  0  0  0  0  0  0  0  0  0  0
   43.3080   13.5560   47.4010 C   0  0  0  0  0  0  0  0  0  0  0  0
   43.3470   12.6320   46.3430 C   0  0  0  0  0  0  0  0  0  0  0  0
   44.1650   12.8500   45.3060 N   0  0  0  0  0  0  0  0  0  0  0  0
   44.9310   13.9740   45.3220 C   0  0  0  0  0  0  0  0  0  0  0  0
   45.6970   14.1560   44.3250 O   0  0  0  0  0  0  0  0  0  0  0  0
   44.9300   14.8800   46.2970 N   0  0  0  0  0  0  0  0  0  0  0  0
   44.1180   14.6650   47.3330 C   0  0  0  0  0  0  0  0  0  0  0  0
   44.0780   15.4900   48.2820 O   0  0  0  0  0  0  0  0  0  0  0  0
   45.7920   16.0740   46.2370 C   0  0  0  0  0  1  0  0  0  0  0  0
   44.2820   11.9310   44.2120 C   0  0  0  0  0  1  0  0  0  0  0  0
   42.0850   13.7270   49.5270 C   0  0  0  0  0  1  0  0  0  0  0  0
   42.2230    9.6760   44.9520 C   0  0  0  0  0  0  0  0  0  0  0  0
   43.1570    8.6440   44.9480 C   0  0  0  0  0  3  0  0  0  0  0  0
   43.3110    7.8640   43.8350 C   0  0  0  0  0  0  0  0  0  0  0  0
   44.5940    6.4380   43.8130 Br  0  0  0  0  0  0  0  0  0  0  0  0
   42.5750    8.0420   42.6780 C   0  0  0  0  0  3  0  0  0  0  0  0
   41.6490    9.0720   42.6950 C   0  0  0  0  0  3  0  0  0  0  0  0
   41.4870    9.8560   43.8000 C   0  0  0  0  0  0  0  0  0  0  0  0
   40.5460   10.9090   43.8310 O   0  0  0  0  0  0  0  0  0  0  0  0
   40.7640   12.0990   43.0950 C   0  0  0  0  0  1  0  0  0  0  0  0
  1  2  1  0  0  0  0
  1  5  2  0  0  0  0
  2  3  1  0  0  0  0
  3  4  2  0  0  0  0
  3  6  1  0  0  0  0
  5  4  1  0  0  0  0
  6 17  1  0  0  0  0
  7  6  1  0  0  0  0
  8  2  1  0  0  0  0
  8  7  2  0  0  0  0
  9 10  1  0  0  0  0
  9  8  1  0  0  0  0
 10 12  1  0  0  0  0
 11 10  2  0  0  0  0
 12 13  1  0  0  0  0
 13  7  1  0  0  0  0
 13 14  2  0  0  0  0
 15 12  1  0  0  0  0
 16  9  1  0  0  0  0
 18  1  1  0  0  0  0
 19 18  1  0  0  0  0
 20 19  2  0  0  0  0
 21 20  1  0  0  0  0
 22 23  2  0  0  0  0
 22 20  1  0  0  0  0
 23 24  1  0  0  0  0
 24 25  1  0  0  0  0
 24 18  2  0  0  0  0
 26 25  1  0  0  0  0
M  END
>  <Pose>
1

>  <Score>
-6.395

$$$$
