/Users/jonathanwahrer/Desktop/Msc/3_Semester/Drug_Design_Praktikum/waehrer_HTS_screening/HTS_experiment/out/docking_results/vina_output/2qfa/2028_docked.pdbqt
 OpenBabel03162221153D

 31 34  0  0  1  0  0  0  0  0999 V2000
   37.7900    9.2630   50.0130 Cl  0  0  0  0  0  0  0  0  0  0  0  0
   38.3020    9.9910   48.4930 C   0  0  0  0  0  0  0  0  0  0  0  0
   39.6640    9.9160   48.1490 C   0  0  0  0  0  0  0  0  0  0  0  0
   40.0560   10.4760   46.9700 C   0  0  0  0  0  0  0  0  0  0  0  0
   39.1560   11.1110   46.1250 C   0  0  0  0  0  3  0  0  0  0  0  0
   37.8300   11.1700   46.4890 C   0  0  0  0  0  0  0  0  0  0  0  0
   37.3910   10.6140   47.6690 C   0  0  0  0  0  3  0  0  0  0  0  0
   36.8760   11.8650   45.5540 C   0  0  0  0  0  1  0  0  0  0  0  0
   41.5030   10.1480   46.7870 C   0  0  2  0  0  0  0  0  0  0  0  0
   42.2780   11.1660   46.1970 N   0  0  0  0  0  0  0  0  0  0  0  0
   42.2100   10.9680   44.7770 C   0  0  2  0  0  3  0  0  0  0  0  0
   41.5840    9.6630   44.4970 C   0  0  2  0  0  3  0  0  0  0  0  0
   41.6730    8.9810   45.8650 C   0  0  1  0  0  3  0  0  0  0  0  0
   43.0260    8.4580   45.8240 C   0  0  0  0  0  0  0  0  0  0  0  0
   43.9320    8.3470   46.6790 O   0  0  0  0  0  0  0  0  0  0  0  0
   43.2100    8.0170   44.4530 N   0  0  0  0  0  0  0  0  0  0  0  0
   42.3030    8.7360   43.6310 C   0  0  0  0  0  0  0  0  0  0  0  0
   42.1700    8.5820   42.4090 O   0  0  0  0  0  0  0  0  0  0  0  0
   41.9280    9.7410   48.1240 C   0  0  0  0  0  0  0  0  0  0  0  0
   43.0850    9.6340   48.6390 O   0  0  0  0  0  0  0  0  0  0  0  0
   40.7830    9.4420   48.8880 N   0  0  0  0  0  0  0  0  0  0  0  0
   41.9670   12.1300   46.4670 H   0  0  0  0  0  0  0  0  0  0  0  0
   40.7040    8.9680   49.8230 H   0  0  0  0  0  0  0  0  0  0  0  0
   43.5450   11.2150   44.0990 C   0  0  2  0  0  3  0  0  0  0  0  0
   44.2580   12.3230   44.8020 C   0  0  0  0  0  1  0  0  0  0  0  0
   43.5000   11.2900   42.7390 O   0  0  0  0  0  0  0  0  0  0  0  0
   43.5930   12.2060   42.3720 H   0  0  0  0  0  0  0  0  0  0  0  0
   44.1240    7.0230   43.9570 C   0  0  0  0  0  2  0  0  0  0  0  0
   45.3310    7.5430   43.2690 C   0  0  0  0  0  2  0  0  0  0  0  0
   45.7920    6.8580   42.1860 O   0  0  0  0  0  0  0  0  0  0  0  0
   46.1330    5.5420   42.4230 C   0  0  0  0  0  1  0  0  0  0  0  0
  2  1  1  0  0  0  0
  3  2  1  0  0  0  0
  3 21  1  0  0  0  0
  4  3  2  0  0  0  0
  5  6  2  0  0  0  0
  5  4  1  0  0  0  0
  6  7  1  0  0  0  0
  7  2  2  0  0  0  0
  8  6  1  0  0  0  0
  9  4  1  1  0  0  0
  9 19  1  0  0  0  0
 10 22  1  0  0  0  0
 10  9  1  0  0  0  0
 11 24  1  1  0  0  0
 11 10  1  0  0  0  0
 12 17  1  6  0  0  0
 12 11  1  0  0  0  0
 12 13  1  0  0  0  0
 13 14  1  1  0  0  0
 13  9  1  0  0  0  0
 14 15  2  0  0  0  0
 16 14  1  0  0  0  0
 17 16  1  0  0  0  0
 18 17  2  0  0  0  0
 19 20  2  0  0  0  0
 19 21  1  0  0  0  0
 21 23  1  0  0  0  0
 24 25  1  1  0  0  0
 26 24  1  0  0  0  0
 27 26  1  0  0  0  0
 28 16  1  0  0  0  0
 29 28  1  0  0  0  0
 30 31  1  0  0  0  0
 30 29  1  0  0  0  0
M  END
>  <Pose>
1

>  <Score>
-6.443

$$$$
