/Users/jonathanwahrer/Desktop/Msc/3_Semester/Drug_Design_Praktikum/waehrer_HTS_screening/HTS_experiment/out/docking_results/vina_output/2qfa/2041_docked.pdbqt
 OpenBabel03162221163D

 30 33  0  0  0  0  0  0  0  0999 V2000
   40.9280   10.3820   44.2920 N   0  0  0  0  0  0  0  0  0  0  0  0
   41.6920   10.0260   45.4710 C   0  0  0  0  0  2  0  0  0  0  0  0
   42.2150    8.6000   45.3530 C   0  0  0  0  0  2  0  0  0  0  0  0
   43.0800    8.5400   44.1750 N   0  0  0  0  0  0  0  0  0  0  0  0
   43.0210    9.6880   43.3210 C   0  0  0  0  0  2  0  0  0  0  0  0
   41.5690   10.0020   43.0700 C   0  0  0  0  0  2  0  0  0  0  0  0
   43.8870    7.4150   43.9760 C   0  0  0  0  0  0  0  0  0  0  0  0
   43.8480    6.4570   44.8510 O   0  0  0  0  0  0  0  0  0  0  0  0
   44.8190    7.1420   42.8770 C   0  0  0  0  0  2  0  0  0  0  0  0
   46.5370    7.0670   43.3640 S   0  0  0  0  0  0  0  0  0  0  0  0
   47.3340    5.5140   42.9940 C   0  0  0  0  0  0  0  0  0  0  0  0
   47.0440    4.8350   41.8910 N   0  0  0  0  0  0  0  0  0  0  0  0
   47.6240    3.6790   41.5600 C   0  0  0  0  0  3  0  0  0  0  0  0
   48.5710    3.1660   42.4060 N   0  0  0  0  0  0  0  0  0  0  0  0
   48.8860    3.8250   43.5250 C   0  0  0  0  0  0  0  0  0  0  0  0
   49.7840    3.5410   44.5140 N   0  0  0  0  0  0  0  0  0  0  0  0
   48.2820    5.0210   43.8640 C   0  0  0  0  0  0  0  0  0  0  0  0
   49.7340    4.5070   45.4080 N   0  0  0  0  0  0  0  0  0  0  0  0
   50.6380    2.3910   44.5580 C   0  0  0  0  0  1  0  0  0  0  0  0
   48.8340    5.4260   45.0500 C   0  0  0  0  0  3  0  0  0  0  0  0
   40.5740   12.0650   44.3060 S   0  0  0  0  0  0  0  0  0  0  0  0
   40.4920   12.5060   42.8630 O   0  0  0  0  0  0  0  0  0  0  0  0
   39.2510   12.3580   44.9290 O   0  0  0  0  0  0  0  0  0  0  0  0
   41.8570   12.9270   45.1240 C   0  0  0  0  0  0  0  0  0  0  0  0
   41.6520   13.9010   46.0750 C   0  0  0  0  0  3  0  0  0  0  0  0
   42.7040   14.5500   46.6770 C   0  0  0  0  0  3  0  0  0  0  0  0
   44.0150   14.2260   46.3300 C   0  0  0  0  0  0  0  0  0  0  0  0
   44.2380   13.2380   45.3650 C   0  0  0  0  0  3  0  0  0  0  0  0
   45.3390   15.0570   47.1030 Cl  0  0  0  0  0  0  0  0  0  0  0  0
   43.1680   12.6020   44.7760 C   0  0  0  0  0  3  0  0  0  0  0  0
  1 21  1  0  0  0  0
  1  2  1  0  0  0  0
  3  2  1  0  0  0  0
  4  3  1  0  0  0  0
  5  4  1  0  0  0  0
  6  5  1  0  0  0  0
  6  1  1  0  0  0  0
  7  4  1  0  0  0  0
  7  8  2  0  0  0  0
  9 10  1  0  0  0  0
  9  7  1  0  0  0  0
 11 10  1  0  0  0  0
 11 17  1  0  0  0  0
 12 11  2  0  0  0  0
 13 12  1  0  0  0  0
 13 14  2  0  0  0  0
 14 15  1  0  0  0  0
 15 17  2  0  0  0  0
 15 16  1  0  0  0  0
 16 19  1  0  0  0  0
 16 18  1  0  0  0  0
 17 20  1  0  0  0  0
 20 18  2  0  0  0  0
 21 23  2  0  0  0  0
 21 24  1  0  0  0  0
 22 21  2  0  0  0  0
 24 25  1  0  0  0  0
 25 26  2  0  0  0  0
 27 26  1  0  0  0  0
 27 29  1  0  0  0  0
 28 27  2  0  0  0  0
 30 24  2  0  0  0  0
 30 28  1  0  0  0  0
M  END
>  <Pose>
1

>  <Score>
-7.940

$$$$
