/Users/jonathanwahrer/Desktop/Msc/3_Semester/Drug_Design_Praktikum/waehrer_HTS_screening/HTS_experiment/out/docking_results/vina_output/2qfa/2046_docked.pdbqt
 OpenBabel03162221173D

 26 29  0  0  0  0  0  0  0  0999 V2000
   42.4070   16.4250   47.4100 Cl  0  0  0  0  0  0  0  0  0  0  0  0
   42.9830   14.9960   46.6090 C   0  0  0  0  0  0  0  0  0  0  0  0
   44.3240   14.7640   46.4470 C   0  0  0  0  0  0  0  0  0  0  0  0
   44.7170   13.6120   45.8020 C   0  0  0  0  0  3  0  0  0  0  0  0
   43.8310   12.6780   45.3120 C   0  0  0  0  0  0  0  0  0  0  0  0
   42.4880   12.9260   45.4840 C   0  0  0  0  0  3  0  0  0  0  0  0
   42.0850   14.0770   46.1270 C   0  0  0  0  0  3  0  0  0  0  0  0
   44.2740   11.4730   44.6380 N   0  0  0  0  0  0  0  0  0  0  0  0
   45.0380   10.9030   45.0140 H   0  0  0  0  0  0  0  0  0  0  0  0
   43.5940   11.1330   43.4380 C   0  0  0  0  0  2  0  0  0  0  0  0
   42.9020    9.8490   43.3710 C   0  0  0  0  0  0  0  0  0  0  0  0
   41.5990    9.9850   43.3280 O   0  0  0  0  0  0  0  0  0  0  0  0
   43.3580    8.5550   43.3450 N   0  0  0  0  0  0  0  0  0  0  0  0
   44.7230    8.1390   43.2810 C   0  0  0  0  0  2  0  0  0  0  0  0
   42.3960    7.4340   43.4250 C   0  0  0  0  0  2  0  0  0  0  0  0
   45.0200    7.2770   44.5040 C   0  0  0  0  0  2  0  0  0  0  0  0
   44.1910    6.1440   44.3540 O   0  0  0  0  0  0  0  0  0  0  0  0
   42.8860    6.5330   44.5640 C   0  0  0  0  0  2  0  0  0  0  0  0
   45.3070   15.6600   46.9030 N   0  0  0  0  0  0  0  0  0  0  0  0
   45.4710   16.0130   48.1610 N   0  0  0  0  0  0  0  0  0  0  0  0
   46.4810   16.8570   48.2680 N   0  0  0  0  0  0  0  0  0  0  0  0
   46.9500   17.0310   47.0490 N   0  0  0  0  0  0  0  0  0  0  0  0
   46.2210   16.2810   46.1690 C   0  0  0  0  0  0  0  0  0  0  0  0
   46.4940   16.2690   44.7320 C   0  0  0  0  0  3  0  0  0  0  0  0
   47.7410   16.6800   44.1000 C   0  0  0  0  0  2  0  0  0  0  0  0
   47.4970   15.1710   44.2700 C   0  0  0  0  0  2  0  0  0  0  0  0
  2  1  1  0  0  0  0
  3  2  1  0  0  0  0
  3 19  1  0  0  0  0
  4  3  2  0  0  0  0
  5  6  2  0  0  0  0
  5  4  1  0  0  0  0
  6  7  1  0  0  0  0
  7  2  2  0  0  0  0
  8  9  1  0  0  0  0
  8  5  1  0  0  0  0
 10  8  1  0  0  0  0
 11 10  1  0  0  0  0
 12 11  2  0  0  0  0
 13 11  1  0  0  0  0
 13 15  1  0  0  0  0
 14 13  1  0  0  0  0
 14 16  1  0  0  0  0
 15 18  1  0  0  0  0
 17 16  1  0  0  0  0
 17 18  1  0  0  0  0
 19 20  1  0  0  0  0
 20 21  2  0  0  0  0
 22 21  1  0  0  0  0
 23 19  1  0  0  0  0
 23 22  2  0  0  0  0
 24 23  1  0  0  0  0
 25 26  1  0  0  0  0
 25 24  1  0  0  0  0
 26 24  1  0  0  0  0
M  END
>  <Pose>
1

>  <Score>
-7.250

$$$$
