/Users/jonathanwahrer/Desktop/Msc/3_Semester/Drug_Design_Praktikum/waehrer_HTS_screening/HTS_experiment/out/docking_results/vina_output/2qfa/2063_docked.pdbqt
 OpenBabel03162221173D

 34 37  0  0  1  0  0  0  0  0999 V2000
   46.8780    5.7170   43.2630 C   0  0  0  0  0  0  0  0  0  0  0  0
   47.2730    7.0340   43.0470 C   0  0  0  0  0  3  0  0  0  0  0  0
   46.4310    8.0390   43.0860 O   0  0  0  0  0  0  0  0  0  0  0  0
   45.1510    7.8860   43.3300 C   0  0  0  0  0  0  0  0  0  0  0  0
   44.6660    6.6200   43.5560 C   0  0  0  0  0  0  0  0  0  0  0  0
   43.3210    6.5070   43.8080 C   0  0  0  0  0  3  0  0  0  0  0  0
   42.4660    7.5790   43.8410 C   0  0  0  0  0  3  0  0  0  0  0  0
   42.9420    8.8860   43.6130 C   0  0  0  0  0  0  0  0  0  0  0  0
   44.2900    8.9910   43.3610 C   0  0  0  0  0  3  0  0  0  0  0  0
   45.5230    5.5410   43.5220 C   0  0  0  0  0  0  0  0  0  0  0  0
   45.0810    4.3800   43.7290 O   0  0  0  0  0  0  0  0  0  0  0  0
   42.0510    9.9380   43.6550 O   0  0  0  0  0  0  0  0  0  0  0  0
   42.1820   11.0870   44.3770 C   0  0  2  0  0  3  0  0  0  0  0  0
   42.6700   10.8700   45.6930 O   0  0  0  0  0  0  0  0  0  0  0  0
   43.2310   12.0670   46.0800 C   0  0  1  0  0  3  0  0  0  0  0  0
   42.2590   13.2000   46.1930 C   0  0  2  0  0  3  0  0  0  0  0  0
   41.2830   13.2400   45.0410 C   0  0  1  0  0  3  0  0  0  0  0  0
   40.8870   11.8500   44.5890 C   0  0  1  0  0  3  0  0  0  0  0  0
   44.0370   11.9580   47.3490 C   0  0  0  0  0  2  0  0  0  0  0  0
   45.3160   12.4910   47.2040 O   0  0  0  0  0  0  0  0  0  0  0  0
   45.7190   12.4710   48.1280 H   0  0  0  0  0  0  0  0  0  0  0  0
   43.0010   14.3910   46.1290 O   0  0  0  0  0  0  0  0  0  0  0  0
   43.0930   14.7940   47.0280 H   0  0  0  0  0  0  0  0  0  0  0  0
   40.1860   14.0180   45.3880 O   0  0  0  0  0  0  0  0  0  0  0  0
   39.3380   13.4790   45.4310 H   0  0  0  0  0  0  0  0  0  0  0  0
   40.1630   11.9720   43.4090 O   0  0  0  0  0  0  0  0  0  0  0  0
   39.3010   11.4990   43.4740 H   0  0  0  0  0  0  0  0  0  0  0  0
   47.8250    4.6230   43.2140 C   0  0  0  0  0  0  0  0  0  0  0  0
   48.8250    4.4480   44.1470 C   0  0  0  0  0  3  0  0  0  0  0  0
   49.7020    3.3750   44.0420 C   0  0  0  0  0  3  0  0  0  0  0  0
   49.6150    2.4550   43.0220 C   0  0  0  0  0  0  0  0  0  0  0  0
   50.8300    0.9830   42.8900 Br  0  0  0  0  0  0  0  0  0  0  0  0
   48.6100    2.6300   42.0830 C   0  0  0  0  0  3  0  0  0  0  0  0
   47.7400    3.6960   42.1890 C   0  0  0  0  0  3  0  0  0  0  0  0
  1 10  1  0  0  0  0
  2  3  1  0  0  0  0
  2  1  2  0  0  0  0
  3  4  1  0  0  0  0
  4  9  2  0  0  0  0
  4  5  1  0  0  0  0
  5  6  2  0  0  0  0
  6  7  1  0  0  0  0
  8 12  1  0  0  0  0
  8  7  2  0  0  0  0
  9  8  1  0  0  0  0
 10  5  1  0  0  0  0
 10 11  2  0  0  0  0
 13 12  1  1  0  0  0
 13 18  1  0  0  0  0
 13 14  1  0  0  0  0
 14 15  1  0  0  0  0
 15 16  1  0  0  0  0
 15 19  1  1  0  0  0
 16 22  1  6  0  0  0
 17 24  1  1  0  0  0
 17 16  1  0  0  0  0
 18 26  1  6  0  0  0
 18 17  1  0  0  0  0
 20 19  1  0  0  0  0
 20 21  1  0  0  0  0
 22 23  1  0  0  0  0
 24 25  1  0  0  0  0
 26 27  1  0  0  0  0
 28  1  1  0  0  0  0
 28 29  1  0  0  0  0
 30 29  2  0  0  0  0
 31 30  1  0  0  0  0
 32 31  1  0  0  0  0
 33 34  1  0  0  0  0
 33 31  2  0  0  0  0
 34 28  2  0  0  0  0
M  END
>  <Pose>
1

>  <Score>
-7.992

$$$$
