/Users/jonathanwahrer/Desktop/Msc/3_Semester/Drug_Design_Praktikum/waehrer_HTS_screening/HTS_experiment/out/docking_results/vina_output/2qfa/2079_docked.pdbqt
 OpenBabel03162221183D

 31 34  0  0  0  0  0  0  0  0999 V2000
   43.5600    8.2450   43.9210 C   0  0  0  0  0  0  0  0  0  0  0  0
   43.1030    9.1120   42.9560 C   0  0  0  0  0  3  0  0  0  0  0  0
   42.1870   10.1070   43.3240 C   0  0  0  0  0  0  0  0  0  0  0  0
   41.7380   10.2260   44.6200 C   0  0  0  0  0  0  0  0  0  0  0  0
   40.8320   11.1820   45.0810 C   0  0  0  0  0  0  0  0  0  0  0  0
   40.3930   12.0730   44.0700 C   0  0  0  0  0  0  0  0  0  0  0  0
   40.8270   11.9900   42.7500 C   0  0  0  0  0  3  0  0  0  0  0  0
   41.7290   11.0010   42.3900 C   0  0  0  0  0  3  0  0  0  0  0  0
   39.4990   13.0980   44.3120 O   0  0  0  0  0  1  0  0  0  0  0  0
   42.1860    9.4020   45.4790 O   0  0  0  0  0  0  0  0  0  0  0  0
   43.0610    8.4250   45.2280 C   0  0  0  0  0  0  0  0  0  0  0  0
   43.4490    7.6540   46.1130 O   0  0  0  0  0  0  0  0  0  0  0  0
   40.4500   11.4650   46.4200 C   0  0  0  0  0  2  0  0  0  0  0  0
   40.7040   12.7090   47.1010 N   0  0  0  0  0  4  0  0  0  0  0  0
   40.2900   12.6450   48.5310 C   0  0  0  0  0  2  0  0  0  0  0  0
   40.6520   11.3210   49.1030 C   0  0  0  0  0  2  0  0  0  0  0  0
   42.0620   11.0060   49.0870 N   0  0  0  0  0  0  0  0  0  0  0  0
   42.7610   11.6330   48.0180 C   0  0  0  0  0  2  0  0  0  0  0  0
   42.1840   12.7760   47.3250 C   0  0  0  0  0  2  0  0  0  0  0  0
   40.4700   13.5760   46.6740 H   0  0  0  0  0  0  0  0  0  0  0  0
   42.2560    9.5490   49.0390 C   0  0  0  0  0  2  0  0  0  0  0  0
   40.9500    8.8050   48.8830 C   0  0  0  0  0  2  0  0  0  0  0  0
   40.9210    8.0040   47.7510 O   0  0  0  0  0  0  0  0  0  0  0  0
   41.8740    7.8200   47.4730 H   0  0  0  0  0  0  0  0  0  0  0  0
   44.6130    7.2500   43.6340 C   0  0  0  0  0  0  0  0  0  0  0  0
   45.9020    7.7520   43.3670 C   0  0  0  0  0  3  0  0  0  0  0  0
   46.9500    6.8780   43.1410 C   0  0  0  0  0  3  0  0  0  0  0  0
   46.7790    5.4990   43.1640 C   0  0  0  0  0  0  0  0  0  0  0  0
   48.1320    4.3590   42.9660 Cl  0  0  0  0  0  0  0  0  0  0  0  0
   45.5090    5.0150   43.4210 C   0  0  0  0  0  3  0  0  0  0  0  0
   44.4760    5.9080   43.6420 C   0  0  0  0  0  3  0  0  0  0  0  0
  1 11  1  0  0  0  0
  2  3  1  0  0  0  0
  2  1  2  0  0  0  0
  3  4  1  0  0  0  0
  4  5  2  0  0  0  0
  4 10  1  0  0  0  0
  5 13  1  0  0  0  0
  6  9  1  0  0  0  0
  6  5  1  0  0  0  0
  7  6  2  0  0  0  0
  8  7  1  0  0  0  0
  8  3  2  0  0  0  0
 11 10  1  0  0  0  0
 11 12  2  0  0  0  0
 13 14  1  0  0  0  0
 14 19  1  0  0  0  0
 14 15  1  0  0  0  0
 15 16  1  0  0  0  0
 17 16  1  0  0  0  0
 18 17  1  0  0  0  0
 19 18  1  0  0  0  0
 20 14  1  0  0  0  0
 21 17  1  0  0  0  0
 22 21  1  0  0  0  0
 23 22  1  0  0  0  0
 24 23  1  0  0  0  0
 25 31  1  0  0  0  0
 25  1  1  0  0  0  0
 26 25  2  0  0  0  0
 27 28  2  0  0  0  0
 27 26  1  0  0  0  0
 28 30  1  0  0  0  0
 29 28  1  0  0  0  0
 30 31  2  0  0  0  0
M  END
>  <Pose>
1

>  <Score>
-7.119

$$$$
