/Users/jonathanwahrer/Desktop/Msc/3_Semester/Drug_Design_Praktikum/waehrer_HTS_screening/HTS_experiment/out/docking_results/vina_output/2qfa/2087_docked.pdbqt
 OpenBabel03162221183D

 32 35  0  0  0  0  0  0  0  0999 V2000
   42.6170   11.5600   46.5240 N   0  0  0  0  0  0  0  0  0  0  0  0
   43.2790   12.7580   46.6370 C   0  0  0  0  0  0  0  0  0  0  0  0
   44.1280   12.9190   45.5600 C   0  0  0  0  0  0  0  0  0  0  0  0
   43.9690   11.8200   44.8180 N   0  0  0  0  0  0  0  0  0  0  0  0
   43.0510   10.9850   45.4010 C   0  0  0  0  0  0  0  0  0  0  0  0
   44.8990   14.0180   45.4430 N   0  0  0  0  0  0  0  0  0  0  0  0
   44.8220   14.9520   46.4020 C   0  0  0  0  0  0  0  0  0  0  0  0
   45.5460   15.9720   46.2820 O   0  0  0  0  0  0  0  0  0  0  0  0
   44.0140   14.8300   47.4600 N   0  0  0  0  0  0  0  0  0  0  0  0
   43.2170   13.7310   47.6120 C   0  0  0  0  0  0  0  0  0  0  0  0
   42.4720   13.6450   48.6180 O   0  0  0  0  0  0  0  0  0  0  0  0
   45.7740   14.1510   44.2920 C   0  0  0  0  0  1  0  0  0  0  0  0
   43.9680   15.5720   48.2040 H   0  0  0  0  0  0  0  0  0  0  0  0
   42.7700    9.7150   44.8750 N   0  0  0  0  0  0  0  0  0  0  0  0
   42.4510    8.5020   45.5390 C   0  0  0  0  0  2  0  0  0  0  0  0
   42.8760    7.2700   44.7320 C   0  0  0  0  0  2  0  0  0  0  0  0
   43.9200    7.4740   43.8150 N   0  0  0  0  0  0  0  0  0  0  0  0
   43.8340    8.6010   42.9720 C   0  0  0  0  0  2  0  0  0  0  0  0
   42.7800    9.5990   43.3900 C   0  0  0  0  0  2  0  0  0  0  0  0
   45.1700    6.8670   44.0180 C   0  0  0  0  0  2  0  0  0  0  0  0
   46.1270    6.8920   42.9010 C   0  0  0  0  0  0  0  0  0  0  0  0
   47.1000    7.6910   42.8580 O   0  0  0  0  0  0  0  0  0  0  0  0
   45.9730    6.0160   41.8480 O   0  0  0  0  0  0  0  0  0  0  0  0
   46.7110    4.8300   41.7370 C   0  0  0  0  0  1  0  0  0  0  0  0
   41.6320   11.0940   47.4650 C   0  0  0  0  0  2  0  0  0  0  0  0
   40.2270   11.2480   46.9110 C   0  0  0  0  0  0  0  0  0  0  0  0
   39.4270   10.1440   46.9300 C   0  0  0  0  0  3  0  0  0  0  0  0
   38.1160   10.2490   46.4630 C   0  0  0  0  0  3  0  0  0  0  0  0
   37.6420   11.4530   45.9890 C   0  0  0  0  0  0  0  0  0  0  0  0
   35.8550   11.6220   45.3470 Br  0  0  0  0  0  0  0  0  0  0  0  0
   38.4830   12.5530   45.9840 C   0  0  0  0  0  3  0  0  0  0  0  0
   39.7730   12.4480   46.4450 C   0  0  0  0  0  3  0  0  0  0  0  0
  1  2  1  0  0  0  0
  1 25  1  0  0  0  0
  2 10  1  0  0  0  0
  3  2  2  0  0  0  0
  4  5  2  0  0  0  0
  4  3  1  0  0  0  0
  5  1  1  0  0  0  0
  6  3  1  0  0  0  0
  6  7  1  0  0  0  0
  7  9  1  0  0  0  0
  8  7  2  0  0  0  0
  9 10  1  0  0  0  0
  9 13  1  0  0  0  0
 10 11  2  0  0  0  0
 12  6  1  0  0  0  0
 14  5  1  0  0  0  0
 14 15  1  0  0  0  0
 16 15  1  0  0  0  0
 17 20  1  0  0  0  0
 17 16  1  0  0  0  0
 18 19  1  0  0  0  0
 18 17  1  0  0  0  0
 19 14  1  0  0  0  0
 21 20  1  0  0  0  0
 22 21  2  0  0  0  0
 23 21  1  0  0  0  0
 24 23  1  0  0  0  0
 26 27  1  0  0  0  0
 26 25  1  0  0  0  0
 28 27  2  0  0  0  0
 29 28  1  0  0  0  0
 30 29  1  0  0  0  0
 31 29  2  0  0  0  0
 31 32  1  0  0  0  0
 32 26  2  0  0  0  0
M  END
>  <Pose>
1

>  <Score>
-6.637

$$$$
