/Users/jonathanwahrer/Desktop/Msc/3_Semester/Drug_Design_Praktikum/waehrer_HTS_screening/HTS_experiment/out/docking_results/vina_output/2qfa/2091_docked.pdbqt
 OpenBabel03162221193D

 28 31  0  0  0  0  0  0  0  0999 V2000
   41.6540   11.4650   45.3290 N   0  0  0  0  0  0  0  0  0  0  0  0
   42.3140   10.4460   44.7590 C   0  0  0  0  0  0  0  0  0  0  0  0
   41.9680    9.2760   45.3980 C   0  0  0  0  0  0  0  0  0  0  0  0
   41.1040    9.6210   46.3400 N   0  0  0  0  0  0  0  0  0  0  0  0
   40.8920   10.9440   46.3230 C   0  0  0  0  0  0  0  0  0  0  0  0
   42.4560    8.0590   45.0520 N   0  0  0  0  0  0  0  0  0  0  0  0
   43.3220    8.0210   44.0260 C   0  0  0  0  0  0  0  0  0  0  0  0
   43.7660    6.8860   43.7210 O   0  0  0  0  0  0  0  0  0  0  0  0
   43.6960    9.1270   43.3600 N   0  0  0  0  0  0  0  0  0  0  0  0
   43.2180   10.3400   43.6950 C   0  0  0  0  0  0  0  0  0  0  0  0
   43.5410   11.3780   43.1010 O   0  0  0  0  0  0  0  0  0  0  0  0
   42.0360    6.8830   45.7850 C   0  0  0  0  0  1  0  0  0  0  0  0
   44.3670    9.0880   42.5630 H   0  0  0  0  0  0  0  0  0  0  0  0
   41.7400   12.8580   44.9670 C   0  0  0  0  0  2  0  0  0  0  0  0
   42.6850   13.6900   45.6840 C   0  0  0  0  0  0  0  0  0  0  0  0
   44.0420   13.6120   45.6220 C   0  0  0  0  0  3  0  0  0  0  0  0
   44.8940   14.4740   46.3100 C   0  0  0  0  0  3  0  0  0  0  0  0
   44.3460   15.4740   47.1070 C   0  0  0  0  0  0  0  0  0  0  0  0
   45.4380   16.7030   48.0710 Br  0  0  0  0  0  0  0  0  0  0  0  0
   42.9790   15.5910   47.1990 C   0  0  0  0  0  3  0  0  0  0  0  0
   42.1770   14.7170   46.5030 C   0  0  0  0  0  3  0  0  0  0  0  0
   40.0270   11.6890   47.1900 N   0  0  0  0  0  0  0  0  0  0  0  0
   40.5480   12.0920   48.4770 C   0  0  0  0  0  2  0  0  0  0  0  0
   39.7440   11.3730   49.5500 C   0  0  0  0  0  2  0  0  0  0  0  0
   38.4520   10.9740   49.1020 N   0  0  0  0  0  0  0  0  0  0  0  0
   37.8430   11.8090   48.1210 C   0  0  0  0  0  2  0  0  0  0  0  0
   38.1840    9.5880   49.0270 C   0  0  0  0  0  1  0  0  0  0  0  0
   38.6690   12.0540   46.8850 C   0  0  0  0  0  2  0  0  0  0  0  0
  1  5  1  0  0  0  0
  2  1  1  0  0  0  0
  2  3  2  0  0  0  0
  3  4  1  0  0  0  0
  5  4  2  0  0  0  0
  5 22  1  0  0  0  0
  6  3  1  0  0  0  0
  6 12  1  0  0  0  0
  7  6  1  0  0  0  0
  8  7  2  0  0  0  0
  9 10  1  0  0  0  0
  9  7  1  0  0  0  0
 10  2  1  0  0  0  0
 11 10  2  0  0  0  0
 13  9  1  0  0  0  0
 14  1  1  0  0  0  0
 14 15  1  0  0  0  0
 15 21  1  0  0  0  0
 16 15  2  0  0  0  0
 16 17  1  0  0  0  0
 17 18  2  0  0  0  0
 18 20  1  0  0  0  0
 18 19  1  0  0  0  0
 21 20  2  0  0  0  0
 22 23  1  0  0  0  0
 23 24  1  0  0  0  0
 25 24  1  0  0  0  0
 26 25  1  0  0  0  0
 27 25  1  0  0  0  0
 28 22  1  0  0  0  0
 28 26  1  0  0  0  0
M  END
>  <Pose>
1

>  <Score>
-5.932

$$$$
