/Users/jonathanwahrer/Desktop/Msc/3_Semester/Drug_Design_Praktikum/waehrer_HTS_screening/HTS_experiment/out/docking_results/vina_output/2qfa/2109_docked.pdbqt
 OpenBabel03162221193D

 21 24  0  0  1  0  0  0  0  0999 V2000
   43.0420    8.6370   44.6100 N   0  0  0  0  0  0  0  0  0  0  0  0
   42.6200    8.7540   45.9770 C   0  0  0  0  0  0  0  0  0  0  0  0
   42.9530    7.9980   46.9230 O   0  0  0  0  0  0  0  0  0  0  0  0
   41.7130    9.9150   46.1270 C   0  0  1  0  0  3  0  0  0  0  0  0
   42.0980   10.7640   47.1580 O   0  0  0  0  0  0  0  0  0  0  0  0
   43.2520   11.3190   46.8250 N   0  0  1  0  0  0  0  0  0  0  0  0
   43.4260   11.3330   45.4400 C   0  0  1  0  0  3  0  0  0  0  0  0
   42.1150   10.7470   44.9130 C   0  0  1  0  0  3  0  0  0  0  0  0
   42.3660    9.6820   43.9130 C   0  0  0  0  0  0  0  0  0  0  0  0
   42.0690    9.6430   42.6810 O   0  0  0  0  0  0  0  0  0  0  0  0
   43.8000   12.5870   44.7710 C   0  0  0  0  0  2  0  0  0  0  0  0
   44.0440   13.7780   45.6120 C   0  0  0  0  0  2  0  0  0  0  0  0
   44.6490   13.3320   46.9240 C   0  0  0  0  0  2  0  0  0  0  0  0
   43.6300   12.4390   47.5820 C   0  0  0  0  0  2  0  0  0  0  0  0
   43.9460    7.6860   44.0460 C   0  0  0  0  0  0  0  0  0  0  0  0
   43.8060    6.3230   44.2040 C   0  0  0  0  0  3  0  0  0  0  0  0
   44.6870    5.4080   43.6530 C   0  0  0  0  0  3  0  0  0  0  0  0
   45.7640    5.8430   42.9080 C   0  0  0  0  0  0  0  0  0  0  0  0
   46.8870    4.6930   42.2050 Cl  0  0  0  0  0  0  0  0  0  0  0  0
   45.9150    7.2040   42.7430 C   0  0  0  0  0  3  0  0  0  0  0  0
   45.0320    8.1130   43.2950 C   0  0  0  0  0  3  0  0  0  0  0  0
  1  2  1  0  0  0  0
  2  3  2  0  0  0  0
  4  2  1  1  0  0  0
  4  5  1  0  0  0  0
  6  5  1  0  0  0  0
  6 14  1  6  0  0  0
  7 11  1  6  0  0  0
  7  6  1  0  0  0  0
  8  9  1  6  0  0  0
  8  7  1  0  0  0  0
  8  4  1  0  0  0  0
  9  1  1  0  0  0  0
 10  9  2  0  0  0  0
 11 12  1  0  0  0  0
 12 13  1  0  0  0  0
 13 14  1  0  0  0  0
 15 16  1  0  0  0  0
 15  1  1  0  0  0  0
 17 16  2  0  0  0  0
 18 17  1  0  0  0  0
 19 18  1  0  0  0  0
 20 18  2  0  0  0  0
 20 21  1  0  0  0  0
 21 15  2  0  0  0  0
M  END
>  <Pose>
1

>  <Score>
-7.154

$$$$
