/Users/jonathanwahrer/Desktop/Msc/3_Semester/Drug_Design_Praktikum/waehrer_HTS_screening/HTS_experiment/out/docking_results/vina_output/2qfa/2121_docked.pdbqt
 OpenBabel03162221203D

 31 34  0  0  1  0  0  0  0  0999 V2000
   41.8340    9.1670   45.5300 C   0  0  0  0  0  0  0  0  0  0  0  0
   41.8350    9.0230   46.8620 O   0  0  0  0  0  0  0  0  0  0  0  0
   40.7800    9.9250   45.0670 N   0  0  0  0  0  0  0  0  0  0  0  0
   39.9360   10.4250   46.1880 C   0  0  0  0  0  2  0  0  0  0  0  0
   40.4690   11.7690   46.6460 C   0  0  0  0  0  2  0  0  0  0  0  0
   41.2580   12.3470   45.5340 C   0  0  1  0  0  3  0  0  0  0  0  0
   40.4210   12.5210   44.3080 C   0  0  2  0  0  3  0  0  0  0  0  0
   41.0140   11.5730   43.2510 C   0  0  0  0  0  2  0  0  0  0  0  0
   40.5210   10.1820   43.6920 C   0  0  0  0  0  2  0  0  0  0  0  0
   42.9340    8.4980   44.8910 C   0  0  0  0  0  0  0  0  0  0  0  0
   43.9840    8.9900   44.2310 N   0  0  0  0  0  0  0  0  0  0  0  0
   44.7750    7.9820   43.7520 C   0  0  0  0  0  0  0  0  0  0  0  0
   44.2400    9.9740   44.0760 H   0  0  0  0  0  0  0  0  0  0  0  0
   44.2020    6.8160   44.1260 C   0  0  0  0  0  0  0  0  0  0  0  0
   45.9340    7.9680   43.0240 C   0  0  0  0  0  3  0  0  0  0  0  0
   44.7510    5.5720   43.7950 C   0  0  0  0  0  3  0  0  0  0  0  0
   43.0550    7.1100   44.8360 C   0  0  0  0  0  3  0  0  0  0  0  0
   45.9000    5.5760   43.0730 C   0  0  0  0  0  0  0  0  0  0  0  0
   46.6210    4.0250   42.6340 Cl  0  0  0  0  0  0  0  0  0  0  0  0
   46.5040    6.7520   42.6800 C   0  0  0  0  0  3  0  0  0  0  0  0
   42.0170   13.5290   45.7890 N   0  0  0  0  0  0  0  0  0  0  0  0
   43.4360   13.4010   45.5690 C   0  0  0  0  0  2  0  0  0  0  0  0
   44.0560   12.4320   46.5010 C   0  0  0  0  0  2  0  0  0  0  0  0
   43.7200   12.8830   47.8570 N   0  0  0  0  0  0  0  0  0  0  0  0
   42.9500   14.0960   47.9410 C   0  0  0  0  0  2  0  0  0  0  0  0
   44.1720   12.1390   48.9890 C   0  0  0  0  0  0  0  0  0  0  0  0
   41.7340   14.1340   47.0630 C   0  0  0  0  0  2  0  0  0  0  0  0
   43.8710   12.5200   50.1280 O   0  0  0  0  0  0  0  0  0  0  0  0
   45.0010   10.9150   48.7530 C   0  0  0  0  0  1  0  0  0  0  0  0
   40.3710   13.8320   43.8380 O   0  0  0  0  0  0  0  0  0  0  0  0
   39.5110   13.8950   43.3070 H   0  0  0  0  0  0  0  0  0  0  0  0
  1  2  2  0  0  0  0
  3  1  1  0  0  0  0
  3  4  1  0  0  0  0
  4  5  1  0  0  0  0
  6 21  1  1  0  0  0
  6  5  1  0  0  0  0
  7 30  1  6  0  0  0
  7  6  1  0  0  0  0
  8  9  1  0  0  0  0
  8  7  1  0  0  0  0
  9  3  1  0  0  0  0
 10  1  1  0  0  0  0
 11 10  1  0  0  0  0
 12 14  1  0  0  0  0
 12 11  1  0  0  0  0
 13 11  1  0  0  0  0
 14 17  1  0  0  0  0
 15 12  2  0  0  0  0
 16 14  2  0  0  0  0
 17 10  2  0  0  0  0
 18 16  1  0  0  0  0
 19 18  1  0  0  0  0
 20 15  1  0  0  0  0
 20 18  2  0  0  0  0
 21 27  1  0  0  0  0
 22 21  1  0  0  0  0
 22 23  1  0  0  0  0
 23 24  1  0  0  0  0
 24 25  1  0  0  0  0
 24 26  1  0  0  0  0
 26 28  2  0  0  0  0
 27 25  1  0  0  0  0
 29 26  1  0  0  0  0
 31 30  1  0  0  0  0
M  END
>  <Pose>
1

>  <Score>
-7.049

$$$$
