/Users/jonathanwahrer/Desktop/Msc/3_Semester/Drug_Design_Praktikum/waehrer_HTS_screening/HTS_experiment/out/docking_results/vina_output/2qfa/2124_docked.pdbqt
 OpenBabel03162221203D

 25 29  0  0  1  0  0  0  0  0999 V2000
   43.2650    8.1170   44.2630 N   0  0  0  0  0  0  0  0  0  0  0  0
   43.0130    8.7170   45.5260 C   0  0  0  0  0  0  0  0  0  0  0  0
   43.7900    8.6790   46.5160 O   0  0  0  0  0  0  0  0  0  0  0  0
   41.6810    9.4090   45.5220 C   0  0  1  0  0  3  0  0  0  0  0  0
   41.8230   10.8510   45.8770 C   0  0  2  0  0  0  0  0  0  0  0  0
   41.1310   11.5420   44.8520 O   0  0  0  0  0  0  0  0  0  0  0  0
   41.8150   10.9360   43.7670 C   0  0  2  0  0  0  0  0  0  0  0  0
   41.3850    9.4940   44.0170 C   0  0  1  0  0  3  0  0  0  0  0  0
   42.2310    8.5050   43.3670 C   0  0  0  0  0  0  0  0  0  0  0  0
   42.0540    8.0790   42.1970 O   0  0  0  0  0  0  0  0  0  0  0  0
   43.2210   11.1780   44.1670 C   0  0  0  0  0  2  0  0  0  0  0  0
   43.2200   11.2530   45.5140 C   0  0  0  0  0  2  0  0  0  0  0  0
   41.4390   11.4630   42.4450 C   0  0  0  0  0  1  0  0  0  0  0  0
   44.3350    7.2590   43.8580 C   0  0  0  0  0  0  0  0  0  0  0  0
   45.5040    7.7230   43.3050 C   0  0  0  0  0  3  0  0  0  0  0  0
   46.5320    6.8830   42.9140 C   0  0  0  0  0  3  0  0  0  0  0  0
   46.4060    5.5240   43.0720 C   0  0  0  0  0  0  0  0  0  0  0  0
   47.6910    4.4140   42.5830 Cl  0  0  0  0  0  0  0  0  0  0  0  0
   45.2390    5.0440   43.6230 C   0  0  0  0  0  3  0  0  0  0  0  0
   44.2060    5.8920   44.0170 C   0  0  0  0  0  3  0  0  0  0  0  0
   41.4100   11.2530   47.2270 C   0  0  0  0  0  3  0  0  0  0  0  0
   40.4640   12.2740   47.1160 O   0  0  0  0  0  0  0  0  0  0  0  0
   39.2230   11.7000   47.0080 C   0  0  0  0  0  2  0  0  0  0  0  0
   39.4000   10.3880   47.7240 C   0  0  0  0  0  2  0  0  0  0  0  0
   40.7570   10.1900   47.8520 O   0  0  0  0  0  0  0  0  0  0  0  0
  1  2  1  0  0  0  0
  2  3  2  0  0  0  0
  4  2  1  6  0  0  0
  4  5  1  0  0  0  0
  5 21  1  1  0  0  0
  6  5  1  0  0  0  0
  7 13  1  6  0  0  0
  7  8  1  0  0  0  0
  7 11  1  0  0  0  0
  7  6  1  0  0  0  0
  8  9  1  6  0  0  0
  8  4  1  0  0  0  0
  9  1  1  0  0  0  0
 10  9  2  0  0  0  0
 11 12  1  0  0  0  0
 12  5  1  0  0  0  0
 14 20  1  0  0  0  0
 14  1  1  0  0  0  0
 15 14  2  0  0  0  0
 16 17  2  0  0  0  0
 16 15  1  0  0  0  0
 17 19  1  0  0  0  0
 18 17  1  0  0  0  0
 19 20  2  0  0  0  0
 21 25  1  0  0  0  0
 22 21  1  0  0  0  0
 23 22  1  0  0  0  0
 23 24  1  0  0  0  0
 24 25  1  0  0  0  0
M  END
>  <Pose>
1

>  <Score>
-7.617

$$$$
