/Users/jonathanwahrer/Desktop/Msc/3_Semester/Drug_Design_Praktikum/waehrer_HTS_screening/HTS_experiment/out/docking_results/vina_output/2qfa/2134_docked.pdbqt
 OpenBabel03162221203D

 36 39  0  0  0  0  0  0  0  0999 V2000
   40.7980   10.2390   45.1820 C   0  0  0  0  0  0  0  0  0  0  0  0
   39.8520   11.0600   44.7970 N   0  0  0  0  0  0  0  0  0  0  0  0
   38.9080   11.2690   45.7700 N   0  0  0  0  0  0  0  0  0  0  0  0
   39.3230   10.4850   46.8890 C   0  0  0  0  0  0  0  0  0  0  0  0
   38.8210   10.3010   48.0740 N   0  0  0  0  0  0  0  0  0  0  0  0
   39.4400    9.4490   49.0260 N   0  0  0  0  0  0  0  0  0  0  0  0
   40.6300    8.7550   48.7430 C   0  0  0  0  0  0  0  0  0  0  0  0
   41.2150    7.9490   49.6180 C   0  0  0  0  0  2  0  0  0  0  0  0
   41.2120    8.9500   47.4190 C   0  0  0  0  0  0  0  0  0  0  0  0
   42.2580    8.3510   47.1490 O   0  0  0  0  0  0  0  0  0  0  0  0
   40.5310    9.8240   46.5170 N   0  0  0  0  0  0  0  0  0  0  0  0
   38.9540    9.3720   49.9480 H   0  0  0  0  0  0  0  0  0  0  0  0
   41.9230    9.8350   44.3610 C   0  0  0  0  0  0  0  0  0  0  0  0
   43.2390   10.0070   44.8530 N   0  0  0  0  0  0  0  0  0  0  0  0
   43.4400   10.3860   45.7900 H   0  0  0  0  0  0  0  0  0  0  0  0
   41.7520    9.3360   43.2040 O   0  0  0  0  0  0  0  0  0  0  0  0
   44.3050    9.6400   44.0390 N   0  0  0  0  0  0  0  0  0  0  0  0
   44.8400    8.3470   43.8790 C   0  0  0  0  0  0  0  0  0  0  0  0
   45.9220    8.0440   43.0350 N   0  0  0  0  0  0  0  0  0  0  0  0
   44.3190    7.3990   44.5260 O   0  0  0  0  0  0  0  0  0  0  0  0
   46.3830    8.8140   42.4890 H   0  0  0  0  0  0  0  0  0  0  0  0
   44.7400   10.4600   43.5040 H   0  0  0  0  0  0  0  0  0  0  0  0
   46.4780    6.7480   42.8350 C   0  0  0  0  0  0  0  0  0  0  0  0
   47.4820    6.2660   43.6710 C   0  0  0  0  0  3  0  0  0  0  0  0
   48.0370    5.0170   43.5010 C   0  0  0  0  0  3  0  0  0  0  0  0
   47.5580    4.2590   42.4640 C   0  0  0  0  0  0  0  0  0  0  0  0
   48.2010    2.6390   42.1640 Cl  0  0  0  0  0  0  0  0  0  0  0  0
   46.5730    4.6920   41.6190 C   0  0  0  0  0  3  0  0  0  0  0  0
   46.0260    5.9430   41.8000 C   0  0  0  0  0  3  0  0  0  0  0  0
   37.7330   12.0660   45.6510 C   0  0  0  0  0  0  0  0  0  0  0  0
   37.8030   13.4310   45.5190 C   0  0  0  0  0  3  0  0  0  0  0  0
   36.6930   14.2500   45.3570 C   0  0  0  0  0  3  0  0  0  0  0  0
   35.4300   13.6950   45.3220 C   0  0  0  0  0  0  0  0  0  0  0  0
   35.3330   12.3260   45.4560 C   0  0  0  0  0  3  0  0  0  0  0  0
   34.2110   14.5340   45.1130 C   0  0  0  0  0  1  0  0  0  0  0  0
   36.4660   11.5290   45.6180 C   0  0  0  0  0  3  0  0  0  0  0  0
  1 11  1  0  0  0  0
  2  1  2  0  0  0  0
  2  3  1  0  0  0  0
  3  4  1  0  0  0  0
  4  5  2  0  0  0  0
  5  6  1  0  0  0  0
  6 12  1  0  0  0  0
  7  6  1  0  0  0  0
  7  8  2  0  0  0  0
  9  7  1  0  0  0  0
 10  9  2  0  0  0  0
 11  4  1  0  0  0  0
 11  9  1  0  0  0  0
 13 14  1  0  0  0  0
 13  1  1  0  0  0  0
 14 15  1  0  0  0  0
 16 13  2  0  0  0  0
 17 14  1  0  0  0  0
 18 17  1  0  0  0  0
 18 20  2  0  0  0  0
 19 18  1  0  0  0  0
 21 19  1  0  0  0  0
 22 17  1  0  0  0  0
 23 19  1  0  0  0  0
 23 24  1  0  0  0  0
 25 24  2  0  0  0  0
 26 25  1  0  0  0  0
 27 26  1  0  0  0  0
 28 29  1  0  0  0  0
 28 26  2  0  0  0  0
 29 23  2  0  0  0  0
 30  3  1  0  0  0  0
 31 30  2  0  0  0  0
 32 31  1  0  0  0  0
 33 32  2  0  0  0  0
 33 34  1  0  0  0  0
 34 36  2  0  0  0  0
 35 33  1  0  0  0  0
 36 30  1  0  0  0  0
M  END
>  <Pose>
1

>  <Score>
-7.844

$$$$
