/Users/jonathanwahrer/Desktop/Msc/3_Semester/Drug_Design_Praktikum/waehrer_HTS_screening/HTS_experiment/out/docking_results/vina_output/2qfa/2163_docked.pdbqt
 OpenBabel03162221213D

 31 34  0  0  0  0  0  0  0  0999 V2000
   42.7370   11.1460   46.8170 C   0  0  0  0  0  0  0  0  0  0  0  0
   43.2050   10.1360   46.0520 N   0  0  0  0  0  4  0  0  0  0  0  0
   42.4680    9.5920   45.0770 C   0  0  0  0  0  0  0  0  0  0  0  0
   41.2330   10.0740   44.8660 N   0  0  0  0  0  0  0  0  0  0  0  0
   40.6980   11.0890   45.5960 C   0  0  0  0  0  0  0  0  0  0  0  0
   41.5050   11.5920   46.5700 N   0  0  0  0  0  2  0  0  0  0  0  0
   43.4940   11.7460   47.8600 N   0  0  0  0  0  0  0  0  0  0  0  0
   43.4560   11.3680   48.8460 H   0  0  0  0  0  0  0  0  0  0  0  0
   44.3190   12.8530   47.6530 N   0  0  0  0  0  0  0  0  0  0  0  0
   43.9400   13.9290   47.0750 C   0  0  0  0  0  3  0  0  0  0  0  0
   44.8170   15.0760   46.8670 C   0  0  0  0  0  0  0  0  0  0  0  0
   45.6560   15.1530   45.7820 C   0  0  0  0  0  3  0  0  0  0  0  0
   46.4800   16.2410   45.5970 C   0  0  0  0  0  0  0  0  0  0  0  0
   47.6450   16.3460   44.0920 Br  0  0  0  0  0  0  0  0  0  0  0  0
   46.4970   17.3010   46.4940 C   0  0  0  0  0  3  0  0  0  0  0  0
   45.6530   17.2290   47.5910 C   0  0  0  0  0  3  0  0  0  0  0  0
   44.8230   16.1200   47.7670 C   0  0  0  0  0  0  0  0  0  0  0  0
   43.9640   16.0170   48.8550 O   0  0  0  0  0  0  0  0  0  0  0  0
   42.7690   16.7510   48.9830 C   0  0  0  0  0  1  0  0  0  0  0  0
   42.9600    8.5290   44.2740 N   0  0  0  0  0  0  0  0  0  0  0  0
   42.4630    7.1760   44.3900 C   0  0  0  0  0  2  0  0  0  0  0  0
   43.5970    6.1640   44.3300 C   0  0  0  0  0  2  0  0  0  0  0  0
   44.4830    6.4820   43.2940 O   0  0  0  0  0  0  0  0  0  0  0  0
   45.0620    7.7150   43.4800 C   0  0  0  0  0  2  0  0  0  0  0  0
   43.9970    8.7730   43.2960 C   0  0  0  0  0  2  0  0  0  0  0  0
   39.4030   11.5890   45.3690 N   0  0  0  0  0  0  0  0  0  0  0  0
   39.1920   12.9200   44.8820 C   0  0  0  0  0  2  0  0  0  0  0  0
   38.2190   13.5980   45.8450 C   0  0  0  0  0  2  0  0  0  0  0  0
   37.0860   12.8060   45.8990 O   0  0  0  0  0  0  0  0  0  0  0  0
   37.3090   11.5880   46.4960 C   0  0  0  0  0  2  0  0  0  0  0  0
   38.2600   10.7630   45.6280 C   0  0  0  0  0  2  0  0  0  0  0  0
  1  7  1  0  0  0  0
  2  1  2  0  0  0  0
  3  2  2  0  0  0  0
  4  3  1  0  0  0  0
  4  5  2  0  0  0  0
  5  6  1  0  0  0  0
  6  1  1  0  0  0  0
  7  8  1  0  0  0  0
  9  7  1  0  0  0  0
 10  9  2  0  0  0  0
 11 10  1  0  0  0  0
 11 17  1  0  0  0  0
 12 11  2  0  0  0  0
 13 12  1  0  0  0  0
 13 15  2  0  0  0  0
 14 13  1  0  0  0  0
 15 16  1  0  0  0  0
 16 17  2  0  0  0  0
 17 18  1  0  0  0  0
 18 19  1  0  0  0  0
 20 21  1  0  0  0  0
 20  3  1  0  0  0  0
 22 21  1  0  0  0  0
 23 24  1  0  0  0  0
 23 22  1  0  0  0  0
 25 24  1  0  0  0  0
 25 20  1  0  0  0  0
 26  5  1  0  0  0  0
 26 31  1  0  0  0  0
 27 26  1  0  0  0  0
 27 28  1  0  0  0  0
 28 29  1  0  0  0  0
 29 30  1  0  0  0  0
 31 30  1  0  0  0  0
M  END
>  <Pose>
1

>  <Score>
-6.207

$$$$
