/Users/jonathanwahrer/Desktop/Msc/3_Semester/Drug_Design_Praktikum/waehrer_HTS_screening/HTS_experiment/out/docking_results/vina_output/2qfa/2177_docked.pdbqt
 OpenBabel03162221223D

 31 35  0  0  0  0  0  0  0  0999 V2000
   45.1410    6.1220   43.6550 N   0  0  0  0  0  0  0  0  0  0  0  0
   45.7470    7.4320   43.6920 C   0  0  0  0  0  2  0  0  0  0  0  0
   44.7070    8.4430   43.2850 C   0  0  0  0  0  2  0  0  0  0  0  0
   43.4200    8.2270   43.9170 N   0  0  0  0  0  0  0  0  0  0  0  0
   42.8490    6.8950   43.9000 C   0  0  0  0  0  2  0  0  0  0  0  0
   43.9000    5.9220   44.3670 C   0  0  0  0  0  2  0  0  0  0  0  0
   45.8070    5.1020   42.9240 C   0  0  0  0  0  3  0  0  0  0  0  0
   46.9890    4.6120   43.2190 C   0  0  0  0  0  0  0  0  0  0  0  0
   47.7520    5.0600   44.3340 N   0  0  0  0  0  0  0  0  0  0  0  0
   47.5500    3.5910   42.4070 N   0  0  0  0  0  0  0  0  0  0  0  0
   49.0310    4.5530   44.6820 C   0  0  0  0  0  0  0  0  0  0  0  0
   47.3270    5.8090   44.9200 H   0  0  0  0  0  0  0  0  0  0  0  0
   49.5840    3.5610   43.8980 C   0  0  0  0  0  0  0  0  0  0  0  0
   49.7730    4.9850   45.7610 C   0  0  0  0  0  3  0  0  0  0  0  0
   50.8190    3.0310   44.1860 C   0  0  0  0  0  3  0  0  0  0  0  0
   48.8170    3.0730   42.7340 C   0  0  0  0  0  0  0  0  0  0  0  0
   51.5460    3.4750   45.2690 C   0  0  0  0  0  0  0  0  0  0  0  0
   53.1300    2.7680   45.6040 Cl  0  0  0  0  0  0  0  0  0  0  0  0
   51.0110    4.4650   46.0620 C   0  0  0  0  0  3  0  0  0  0  0  0
   49.3820    2.1580   42.0520 O   0  0  0  0  0  0  0  0  0  0  0  0
   47.0510    3.2090   41.5720 H   0  0  0  0  0  0  0  0  0  0  0  0
   42.7390    9.3190   44.5390 C   0  0  0  0  0  0  0  0  0  0  0  0
   42.7950    9.4400   45.8800 N   0  0  0  0  0  0  0  0  0  0  0  0
   42.1600   10.4660   46.5140 C   0  0  0  0  0  3  0  0  0  0  0  0
   41.4600   11.3830   45.8110 N   0  0  0  0  0  0  0  0  0  0  0  0
   41.3680   11.3160   44.4790 C   0  0  0  0  0  0  0  0  0  0  0  0
   40.7520   12.0750   43.5540 N   0  0  0  0  0  0  0  0  0  0  0  0
   42.0240   10.2590   43.8450 C   0  0  0  0  0  0  0  0  0  0  0  0
   40.9980   11.5360   42.3740 N   0  0  0  0  0  0  0  0  0  0  0  0
   39.9510   13.2820   43.7820 C   0  0  0  0  0  1  0  0  0  0  0  0
   41.7730   10.4250   42.5190 C   0  0  0  0  0  3  0  0  0  0  0  0
  1  2  1  0  0  0  0
  1  6  1  0  0  0  0
  3  2  1  0  0  0  0
  3  4  1  0  0  0  0
  4 22  1  0  0  0  0
  5  4  1  0  0  0  0
  5  6  1  0  0  0  0
  7  8  2  0  0  0  0
  7  1  1  0  0  0  0
  8  9  1  0  0  0  0
  9 11  1  0  0  0  0
  9 12  1  0  0  0  0
 10 16  1  0  0  0  0
 10  8  1  0  0  0  0
 11 14  1  0  0  0  0
 13 15  1  0  0  0  0
 13 11  2  0  0  0  0
 14 19  2  0  0  0  0
 15 17  2  0  0  0  0
 16 13  1  0  0  0  0
 17 18  1  0  0  0  0
 17 19  1  0  0  0  0
 20 16  2  0  0  0  0
 21 10  1  0  0  0  0
 22 23  1  0  0  0  0
 23 24  2  0  0  0  0
 25 24  1  0  0  0  0
 26 25  2  0  0  0  0
 27 30  1  0  0  0  0
 27 26  1  0  0  0  0
 28 26  1  0  0  0  0
 28 22  2  0  0  0  0
 29 31  2  0  0  0  0
 29 27  1  0  0  0  0
 31 28  1  0  0  0  0
M  END
>  <Pose>
1

>  <Score>
-9.057

$$$$
