/Users/jonathanwahrer/Desktop/Msc/3_Semester/Drug_Design_Praktikum/waehrer_HTS_screening/HTS_experiment/out/docking_results/vina_output/2qfa/2184_docked.pdbqt
 OpenBabel03162221223D

 29 32  0  0  0  0  0  0  0  0999 V2000
   42.2030   11.6270   45.0540 N   0  0  0  0  0  4  0  0  0  0  0  0
   42.1420   10.3510   45.5800 C   0  0  0  0  0  2  0  0  0  0  0  0
   41.6700    9.3280   44.4900 C   0  0  0  0  0  2  0  0  0  0  0  0
   42.9510    9.3290   43.6320 N   0  0  0  0  0  0  0  0  0  0  0  0
   43.1310   10.5340   42.9820 C   0  0  0  0  0  2  0  0  0  0  0  0
   42.0870   11.5080   43.5710 C   0  0  0  0  0  2  0  0  0  0  0  0
   41.2790   12.1140   45.2920 H   0  0  0  0  0  0  0  0  0  0  0  0
   43.2040   12.5680   45.3110 C   0  0  0  0  0  2  0  0  0  0  0  0
   43.0890   13.5740   46.3800 C   0  0  0  0  0  0  0  0  0  0  0  0
   44.1440   14.5400   46.3460 C   0  0  0  0  0  0  0  0  0  0  0  0
   45.1610   14.3880   45.4690 C   0  0  0  0  0  3  0  0  0  0  0  0
   44.1190   15.5880   47.2240 C   0  0  0  0  0  0  0  0  0  0  0  0
   46.1990   15.2790   45.4290 C   0  0  0  0  0  0  0  0  0  0  0  0
   47.5940   15.1130   44.3560 Cl  0  0  0  0  0  0  0  0  0  0  0  0
   46.2220   16.3750   46.2990 C   0  0  0  0  0  0  0  0  0  0  0  0
   45.1900   16.5130   47.1840 C   0  0  0  0  0  3  0  0  0  0  0  0
   47.2630   17.3300   46.2690 O   0  0  0  0  0  1  0  0  0  0  0  0
   43.1700   15.7520   48.1010 O   0  0  0  0  0  0  0  0  0  0  0  0
   42.1690   14.8810   48.1700 C   0  0  0  0  0  0  0  0  0  0  0  0
   41.2790   15.0570   49.0110 O   0  0  0  0  0  0  0  0  0  0  0  0
   42.1210   13.7710   47.3020 C   0  0  0  0  0  3  0  0  0  0  0  0
   43.6850    8.1310   43.7600 C   0  0  0  0  0  0  0  0  0  0  0  0
   43.2470    6.9700   44.2940 C   0  0  0  0  0  3  0  0  0  0  0  0
   43.9760    5.7540   44.1490 C   0  0  0  0  0  3  0  0  0  0  0  0
   45.1580    5.7050   43.4610 C   0  0  0  0  0  0  0  0  0  0  0  0
   45.6230    6.8970   42.9140 C   0  0  0  0  0  3  0  0  0  0  0  0
   44.9080    8.0760   43.0640 C   0  0  0  0  0  3  0  0  0  0  0  0
   45.8330    4.4960   43.3490 O   0  0  0  0  0  0  0  0  0  0  0  0
   46.9170    4.3390   42.4200 C   0  0  0  0  0  1  0  0  0  0  0  0
  1  7  1  0  0  0  0
  1  8  1  0  0  0  0
  1  2  1  0  0  0  0
  3  2  1  0  0  0  0
  4 22  1  0  0  0  0
  4  3  1  0  0  0  0
  5  6  1  0  0  0  0
  5  4  1  0  0  0  0
  6  1  1  0  0  0  0
  8  9  1  0  0  0  0
  9 21  2  0  0  0  0
 10  9  1  0  0  0  0
 10 12  1  0  0  0  0
 11 10  2  0  0  0  0
 12 18  1  0  0  0  0
 13 11  1  0  0  0  0
 13 15  2  0  0  0  0
 14 13  1  0  0  0  0
 15 16  1  0  0  0  0
 16 12  2  0  0  0  0
 17 15  1  0  0  0  0
 18 19  1  0  0  0  0
 19 20  2  0  0  0  0
 21 19  1  0  0  0  0
 22 23  1  0  0  0  0
 24 23  2  0  0  0  0
 25 24  1  0  0  0  0
 26 27  1  0  0  0  0
 26 25  2  0  0  0  0
 27 22  2  0  0  0  0
 28 25  1  0  0  0  0
 29 28  1  0  0  0  0
M  END
>  <Pose>
1

>  <Score>
-8.089

$$$$
