/Users/jonathanwahrer/Desktop/Msc/3_Semester/Drug_Design_Praktikum/waehrer_HTS_screening/HTS_experiment/out/docking_results/vina_output/2qfa/2197_docked.pdbqt
 OpenBabel03162221233D

 28 31  0  0  1  0  0  0  0  0999 V2000
   44.3250   12.5420   46.8820 N   0  0  0  0  0  0  0  0  0  0  0  0
   43.8890   11.8500   45.6530 C   0  0  0  0  0  2  0  0  0  0  0  0
   42.4210   12.0380   45.5400 C   0  0  2  0  0  3  0  0  0  0  0  0
   41.6520   11.8150   46.6210 O   0  0  0  0  0  0  0  0  0  0  0  0
   42.2010   11.7600   47.8440 C   0  0  0  0  0  2  0  0  0  0  0  0
   43.6860   11.8410   47.9340 C   0  0  0  0  0  2  0  0  0  0  0  0
   41.9540   11.1680   44.4220 C   0  0  0  0  0  0  0  0  0  0  0  0
   41.4550   11.7420   43.4170 O   0  0  0  0  0  0  0  0  0  0  0  0
   42.0290    9.7630   44.4110 N   0  0  0  0  0  0  0  0  0  0  0  0
   42.5760    8.9660   45.4930 C   0  0  0  0  0  2  0  0  0  0  0  0
   41.5480    8.9740   43.2670 C   0  0  0  0  0  2  0  0  0  0  0  0
   42.3570    7.5100   45.1330 C   0  0  0  0  0  2  0  0  0  0  0  0
   43.0330    7.1290   43.9060 N   0  0  0  0  0  0  0  0  0  0  0  0
   42.7350    8.0810   42.8840 C   0  0  0  0  0  2  0  0  0  0  0  0
   44.4210    6.9570   44.1940 C   0  0  0  0  0  2  0  0  0  0  0  0
   45.3230    7.2220   43.0200 C   0  0  0  0  0  3  0  0  0  0  0  0
   46.1350    5.9970   42.5990 C   0  0  0  0  0  2  0  0  0  0  0  0
   46.7830    7.2360   43.1330 C   0  0  0  0  0  2  0  0  0  0  0  0
   44.1260   14.2090   46.7580 S   0  0  0  0  0  0  0  0  0  0  0  0
   42.8740   14.4580   45.9060 O   0  0  0  0  0  0  0  0  0  0  0  0
   43.8090   14.8780   48.0740 O   0  0  0  0  0  0  0  0  0  0  0  0
   45.4200   15.0120   45.9280 C   0  0  0  0  0  0  0  0  0  0  0  0
   45.9590   16.1930   46.3900 C   0  0  0  0  0  0  0  0  0  0  0  0
   46.9500   16.8690   45.7050 C   0  0  0  0  0  3  0  0  0  0  0  0
   45.4570   16.8650   47.9530 Cl  0  0  0  0  0  0  0  0  0  0  0  0
   47.4260   16.3570   44.5240 C   0  0  0  0  0  3  0  0  0  0  0  0
   46.8970   15.1680   44.0440 C   0  0  0  0  0  3  0  0  0  0  0  0
   45.9160   14.5050   44.7260 C   0  0  0  0  0  3  0  0  0  0  0  0
  1  6  1  0  0  0  0
  2  1  1  0  0  0  0
  3  7  1  6  0  0  0
  3  2  1  0  0  0  0
  3  4  1  0  0  0  0
  4  5  1  0  0  0  0
  5  6  1  0  0  0  0
  8  7  2  0  0  0  0
  9  7  1  0  0  0  0
  9 10  1  0  0  0  0
 11  9  1  0  0  0  0
 12 10  1  0  0  0  0
 13 15  1  0  0  0  0
 13 12  1  0  0  0  0
 14 11  1  0  0  0  0
 14 13  1  0  0  0  0
 16 18  1  0  0  0  0
 16 15  1  0  0  0  0
 17 16  1  0  0  0  0
 17 18  1  0  0  0  0
 19  1  1  0  0  0  0
 19 21  2  0  0  0  0
 20 19  2  0  0  0  0
 22 23  1  0  0  0  0
 22 19  1  0  0  0  0
 23 25  1  0  0  0  0
 24 23  2  0  0  0  0
 26 24  1  0  0  0  0
 27 26  2  0  0  0  0
 27 28  1  0  0  0  0
 28 22  2  0  0  0  0
M  END
>  <Pose>
1

>  <Score>
-7.431

$$$$
