/Users/jonathanwahrer/Desktop/Msc/3_Semester/Drug_Design_Praktikum/waehrer_HTS_screening/HTS_experiment/out/docking_results/vina_output/2qfa/2213_docked.pdbqt
 OpenBabel03162221243D

 31 34  0  0  0  0  0  0  0  0999 V2000
   42.2600   16.5360   48.7790 Cl  0  0  0  0  0  0  0  0  0  0  0  0
   42.8260   15.4630   47.5180 C   0  0  0  0  0  0  0  0  0  0  0  0
   41.9270   14.5180   47.0010 C   0  0  0  0  0  0  0  0  0  0  0  0
   42.3400   13.6630   46.0130 C   0  0  0  0  0  0  0  0  0  0  0  0
   43.6620   13.7890   45.5700 C   0  0  0  0  0  2  0  0  0  0  0  0
   44.5350   14.7200   46.0860 C   0  0  0  0  0  0  0  0  0  0  0  0
   44.1230   15.5850   47.0830 C   0  0  0  0  0  3  0  0  0  0  0  0
   46.1930   14.8580   45.5130 Cl  0  0  0  0  0  0  0  0  0  0  0  0
   41.4670   12.6430   45.4130 C   0  0  0  0  0  0  0  0  0  0  0  0
   40.1230   12.6770   46.0150 C   0  0  0  0  0  0  0  0  0  0  0  0
   39.7330   13.5340   46.9950 C   0  0  0  0  0  0  0  0  0  0  0  0
   38.4730   13.5230   47.5190 N   0  0  0  0  0  0  0  0  0  0  0  0
   37.6130   12.6300   47.0350 C   0  0  0  0  0  0  0  0  0  0  0  0
   36.4270   12.5820   47.4920 O   0  0  0  0  0  0  0  0  0  0  0  0
   37.9570   11.7610   46.0630 N   0  0  0  0  0  0  0  0  0  0  0  0
   39.1890   11.7630   45.5420 C   0  0  0  0  0  0  0  0  0  0  0  0
   39.5110   10.9540   44.6350 O   0  0  0  0  0  0  0  0  0  0  0  0
   36.9690   10.8090   45.5740 C   0  0  0  0  0  1  0  0  0  0  0  0
   38.0900   14.4490   48.5630 C   0  0  0  0  0  1  0  0  0  0  0  0
   40.6320   14.4440   47.4790 O   0  0  0  0  0  0  0  0  0  0  0  0
   42.0780   11.2750   45.5090 C   0  0  0  0  0  3  0  0  0  0  0  0
   42.2320   10.6300   46.7110 C   0  0  0  0  0  0  0  0  0  0  0  0
   42.7840    9.4120   46.8290 N   0  0  0  0  0  0  0  0  0  0  0  0
   41.7980   11.2620   47.8590 O   0  0  0  0  0  0  0  0  0  0  0  0
   43.2080    8.7970   45.7090 C   0  0  0  0  0  0  0  0  0  0  0  0
   42.9290    8.7540   48.1140 C   0  0  0  0  0  1  0  0  0  0  0  0
   43.7280    7.6490   45.8310 O   0  0  0  0  0  0  0  0  0  0  0  0
   43.0780    9.3920   44.5100 N   0  0  0  0  0  0  0  0  0  0  0  0
   42.5280   10.6070   44.3710 C   0  0  0  0  0  0  0  0  0  0  0  0
   43.5500    8.6910   43.3380 C   0  0  0  0  0  1  0  0  0  0  0  0
   42.3930   11.1870   43.2680 O   0  0  0  0  0  0  0  0  0  0  0  0
  2  1  1  0  0  0  0
  3 20  1  0  0  0  0
  3  2  2  0  0  0  0
  4  3  1  0  0  0  0
  5  4  1  0  0  0  0
  5  6  1  0  0  0  0
  6  7  2  0  0  0  0
  7  2  1  0  0  0  0
  8  6  1  0  0  0  0
  9 21  1  0  0  0  0
  9  4  2  0  0  0  0
  9 10  1  0  0  0  0
 10 11  2  0  0  0  0
 11 20  1  0  0  0  0
 11 12  1  0  0  0  0
 12 19  1  0  0  0  0
 13 14  2  0  0  0  0
 13 12  1  0  0  0  0
 15 13  1  0  0  0  0
 16 10  1  0  0  0  0
 16 15  1  0  0  0  0
 17 16  2  0  0  0  0
 18 15  1  0  0  0  0
 21 22  1  0  0  0  0
 22 23  1  0  0  0  0
 22 24  2  0  0  0  0
 23 26  1  0  0  0  0
 25 27  2  0  0  0  0
 25 23  1  0  0  0  0
 28 25  1  0  0  0  0
 29 28  1  0  0  0  0
 29 21  1  0  0  0  0
 30 28  1  0  0  0  0
 31 29  2  0  0  0  0
M  END
>  <Pose>
1

>  <Score>
-6.716

$$$$
