/Users/jonathanwahrer/Desktop/Msc/3_Semester/Drug_Design_Praktikum/waehrer_HTS_screening/HTS_experiment/out/docking_results/vina_output/2qfa/2214_docked.pdbqt
 OpenBabel03162221243D

 34 38  0  0  1  0  0  0  0  0999 V2000
   38.3200   12.6290   49.8510 Cl  0  0  0  0  0  0  0  0  0  0  0  0
   38.5160   11.9490   48.2500 C   0  0  0  0  0  0  0  0  0  0  0  0
   39.7050   11.9980   47.5750 C   0  0  0  0  0  3  0  0  0  0  0  0
   39.8170   11.4430   46.2980 C   0  0  0  0  0  0  0  0  0  0  0  0
   38.7120   10.8580   45.7550 C   0  0  0  0  0  0  0  0  0  0  0  0
   37.4900   10.8060   46.4460 C   0  0  0  0  0  3  0  0  0  0  0  0
   37.3810   11.3490   47.6940 C   0  0  0  0  0  3  0  0  0  0  0  0
   39.0460   10.3650   44.4610 N   0  0  0  0  0  0  0  0  0  0  0  0
   40.3960   10.6480   44.1840 C   0  0  0  0  0  0  0  0  0  0  0  0
   40.9820   10.3310   43.1010 O   0  0  0  0  0  0  0  0  0  0  0  0
   40.9420   11.3460   45.3520 C   0  0  1  0  0  0  0  0  0  0  0  0
   41.3480   12.7010   45.0480 N   0  0  0  0  0  0  0  0  0  0  0  0
   42.7590   12.8390   45.2160 C   0  0  2  0  0  3  0  0  0  0  0  0
   43.2710   11.4670   45.4170 C   0  0  1  0  0  3  0  0  0  0  0  0
   42.1350   10.6390   45.9500 C   0  0  2  0  0  3  0  0  0  0  0  0
   42.3830    9.3170   45.3340 C   0  0  0  0  0  0  0  0  0  0  0  0
   41.9410    8.1950   45.6870 O   0  0  0  0  0  0  0  0  0  0  0  0
   43.2560    9.4660   44.1930 N   0  0  0  0  0  0  0  0  0  0  0  0
   43.5250   10.8570   44.0640 C   0  0  0  0  0  0  0  0  0  0  0  0
   43.8990   11.4220   43.0110 O   0  0  0  0  0  0  0  0  0  0  0  0
   38.3930    9.8570   43.7910 H   0  0  0  0  0  0  0  0  0  0  0  0
   40.8830   13.4120   45.6550 H   0  0  0  0  0  0  0  0  0  0  0  0
   43.1260   13.8080   46.3080 C   0  0  0  0  0  2  0  0  0  0  0  0
   44.3970   14.4840   46.1250 C   0  0  0  0  0  0  0  0  0  0  0  0
   45.0890   14.2560   45.1110 O   0  0  0  0  0  0  0  0  0  0  0  0
   44.8750   15.4060   47.0810 N   0  0  0  0  0  0  0  0  0  0  0  0
   45.1680   16.3620   46.7710 H   0  0  0  0  0  0  0  0  0  0  0  0
   44.9620   15.2050   48.0950 H   0  0  0  0  0  0  0  0  0  0  0  0
   43.7460    8.3920   43.3550 C   0  0  0  0  0  2  0  0  0  0  0  0
   45.0350    7.7950   43.8500 C   0  0  1  0  0  3  0  0  0  0  0  0
   44.7640    6.6440   44.5840 O   0  0  0  0  0  0  0  0  0  0  0  0
   44.8100    5.5830   43.7090 C   0  0  0  0  0  2  0  0  0  0  0  0
   45.7550    5.9430   42.5840 C   0  0  0  0  0  2  0  0  0  0  0  0
   46.0000    7.4260   42.7790 C   0  0  0  0  0  2  0  0  0  0  0  0
  2  1  1  0  0  0  0
  3  2  2  0  0  0  0
  4  3  1  0  0  0  0
  5  4  2  0  0  0  0
  5  6  1  0  0  0  0
  6  7  2  0  0  0  0
  7  2  1  0  0  0  0
  8  5  1  0  0  0  0
  9  8  1  0  0  0  0
 10  9  2  0  0  0  0
 11  9  1  6  0  0  0
 11 15  1  0  0  0  0
 11  4  1  0  0  0  0
 12 13  1  0  0  0  0
 12 11  1  0  0  0  0
 12 22  1  0  0  0  0
 13 14  1  0  0  0  0
 13 23  1  1  0  0  0
 14 19  1  6  0  0  0
 14 15  1  0  0  0  0
 15 16  1  6  0  0  0
 16 17  2  0  0  0  0
 18 16  1  0  0  0  0
 19 18  1  0  0  0  0
 20 19  2  0  0  0  0
 21  8  1  0  0  0  0
 24 23  1  0  0  0  0
 24 26  1  0  0  0  0
 25 24  2  0  0  0  0
 26 28  1  0  0  0  0
 27 26  1  0  0  0  0
 29 18  1  0  0  0  0
 30 29  1  6  0  0  0
 30 31  1  0  0  0  0
 32 31  1  0  0  0  0
 33 34  1  0  0  0  0
 33 32  1  0  0  0  0
 34 30  1  0  0  0  0
M  END
>  <Pose>
1

>  <Score>
-7.563

$$$$
