/Users/jonathanwahrer/Desktop/Msc/3_Semester/Drug_Design_Praktikum/waehrer_HTS_screening/HTS_experiment/out/docking_results/vina_output/2qfa/2242_docked.pdbqt
 OpenBabel03162221253D

 32 35  0  0  0  0  0  0  0  0999 V2000
   45.8320    7.1530   43.1480 N   0  0  0  0  0  0  0  0  0  0  0  0
   44.5340    7.1270   43.6640 C   0  0  0  0  0  0  0  0  0  0  0  0
   44.0660    6.1510   44.2670 O   0  0  0  0  0  0  0  0  0  0  0  0
   46.1470    8.0400   42.6410 H   0  0  0  0  0  0  0  0  0  0  0  0
   43.6350    8.3030   43.5080 C   0  0  0  0  0  0  0  0  0  0  0  0
   43.9410    9.4050   44.1210 N   0  0  0  0  0  0  0  0  0  0  0  0
   43.1540   10.5510   44.0280 N   0  0  0  0  0  0  0  0  0  0  0  0
   41.9850   10.5150   43.2400 C   0  0  0  0  0  0  0  0  0  0  0  0
   41.3450   11.6130   43.1140 O   0  0  0  0  0  0  0  0  0  0  0  0
   41.5040    9.2830   42.5830 C   0  0  0  0  0  2  0  0  0  0  0  0
   42.4650    8.2440   42.7100 N   0  0  0  0  0  0  0  0  0  0  0  0
   42.3100    7.3490   42.1780 H   0  0  0  0  0  0  0  0  0  0  0  0
   43.5240   11.7620   44.7310 C   0  0  0  0  0  0  0  0  0  0  0  0
   42.8540   12.1720   45.8580 C   0  0  0  0  0  3  0  0  0  0  0  0
   43.2340   13.3430   46.5220 C   0  0  0  0  0  3  0  0  0  0  0  0
   44.2840   14.1110   46.0600 C   0  0  0  0  0  0  0  0  0  0  0  0
   44.9440   13.6870   44.9300 C   0  0  0  0  0  3  0  0  0  0  0  0
   44.7310   15.3660   46.7340 C   0  0  0  0  0  1  0  0  0  0  0  0
   44.5690   12.5440   44.2880 C   0  0  0  0  0  3  0  0  0  0  0  0
   46.7570    6.1060   43.2430 C   0  0  0  0  0  0  0  0  0  0  0  0
   46.8110    5.1870   42.1920 C   0  0  0  0  0  0  0  0  0  0  0  0
   45.7310    5.3690   40.8270 Cl  0  0  0  0  0  0  0  0  0  0  0  0
   47.6870    4.1380   42.1940 C   0  0  0  0  0  3  0  0  0  0  0  0
   48.5600    3.9310   43.2250 C   0  0  0  0  0  0  0  0  0  0  0  0
   48.5390    4.8110   44.2740 C   0  0  0  0  0  0  0  0  0  0  0  0
   49.4950    2.8460   43.2470 N   0  0  0  0  0  0  0  0  0  0  0  0
   47.6360    5.8880   44.2670 C   0  0  0  0  0  3  0  0  0  0  0  0
   49.3940    4.6730   45.3640 O   0  0  0  0  0  0  0  0  0  0  0  0
   50.5770    3.8610   45.3110 C   0  0  0  0  0  2  0  0  0  0  0  0
   50.3700    2.7260   44.3640 C   0  0  0  0  0  0  0  0  0  0  0  0
   50.9870    1.6560   44.5730 O   0  0  0  0  0  0  0  0  0  0  0  0
   49.5330    2.1630   42.4650 H   0  0  0  0  0  0  0  0  0  0  0  0
  1 20  1  0  0  0  0
  1  2  1  0  0  0  0
  2  3  2  0  0  0  0
  4  1  1  0  0  0  0
  5  2  1  0  0  0  0
  5  6  2  0  0  0  0
  7  6  1  0  0  0  0
  7 13  1  0  0  0  0
  8  7  1  0  0  0  0
  9  8  2  0  0  0  0
 10 11  1  0  0  0  0
 10  8  1  0  0  0  0
 11  5  1  0  0  0  0
 12 11  1  0  0  0  0
 13 14  1  0  0  0  0
 14 15  2  0  0  0  0
 16 15  1  0  0  0  0
 16 18  1  0  0  0  0
 17 16  2  0  0  0  0
 19 13  2  0  0  0  0
 19 17  1  0  0  0  0
 20 27  1  0  0  0  0
 21 23  1  0  0  0  0
 21 20  2  0  0  0  0
 22 21  1  0  0  0  0
 23 24  2  0  0  0  0
 24 26  1  0  0  0  0
 24 25  1  0  0  0  0
 25 28  1  0  0  0  0
 26 30  1  0  0  0  0
 27 25  2  0  0  0  0
 29 28  1  0  0  0  0
 30 31  2  0  0  0  0
 30 29  1  0  0  0  0
 32 26  1  0  0  0  0
M  END
>  <Pose>
1

>  <Score>
-8.739

$$$$
