/Users/jonathanwahrer/Desktop/Msc/3_Semester/Drug_Design_Praktikum/waehrer_HTS_screening/HTS_experiment/out/docking_results/vina_output/2qfa/2266_docked.pdbqt
 OpenBabel03162221253D

 27 30  0  0  1  0  0  0  0  0999 V2000
   42.8240   11.3440   45.3290 N   0  0  0  0  0  0  0  0  0  0  0  0
   42.2940   10.5080   46.3300 C   0  0  0  0  0  2  0  0  0  0  0  0
   41.6940    9.2200   45.8010 C   0  0  0  0  0  2  0  0  0  0  0  0
   42.7490    8.5950   44.9480 C   0  0  1  0  0  3  0  0  0  0  0  0
   43.3880    9.4240   44.0500 C   0  0  0  0  0  0  0  0  0  0  0  0
   44.3390    8.9270   43.2590 N   0  0  0  0  0  0  0  0  0  0  0  0
   44.6440    7.6180   43.3700 C   0  0  2  0  0  3  0  0  0  0  0  0
   44.0380    6.7890   44.2370 N   0  0  0  0  0  0  0  0  0  0  0  0
   44.5460    5.5480   44.1240 N   0  0  0  0  0  0  0  0  0  0  0  0
   45.4990    5.5260   43.1810 C   0  0  0  0  0  3  0  0  0  0  0  0
   45.5740    6.8110   42.6990 C   0  0  0  0  0  3  0  0  0  0  0  0
   43.0690    7.2590   45.0540 C   0  0  0  0  0  0  0  0  0  0  0  0
   42.4650    6.5340   45.8850 O   0  0  0  0  0  0  0  0  0  0  0  0
   42.9610   10.8440   44.0240 C   0  0  0  0  0  2  0  0  0  0  0  0
   44.2240    4.7380   44.7020 H   0  0  0  0  0  0  0  0  0  0  0  0
   43.7540   12.6560   45.8070 S   0  0  0  0  0  0  0  0  0  0  0  0
   44.6950   12.2990   46.9490 O   0  0  0  0  0  0  0  0  0  0  0  0
   44.6850   13.0150   44.6540 O   0  0  0  0  0  0  0  0  0  0  0  0
   42.9040   14.0770   46.2760 C   0  0  0  0  0  0  0  0  0  0  0  0
   41.5820   14.2790   45.8860 C   0  0  0  0  0  0  0  0  0  0  0  0
   40.9310   15.4290   46.2760 C   0  0  0  0  0  3  0  0  0  0  0  0
   41.5330   16.3800   47.0330 C   0  0  0  0  0  3  0  0  0  0  0  0
   42.8290   16.2120   47.4320 C   0  0  0  0  0  0  0  0  0  0  0  0
   43.4820   15.0610   47.0420 C   0  0  0  0  0  3  0  0  0  0  0  0
   43.6380   17.4350   48.4180 Cl  0  0  0  0  0  0  0  0  0  0  0  0
   40.8980   13.3640   45.1190 O   0  0  0  0  0  0  0  0  0  0  0  0
   39.5620   13.6320   44.7610 C   0  0  0  0  0  1  0  0  0  0  0  0
  1 16  1  0  0  0  0
  1  2  1  0  0  0  0
  3  2  1  0  0  0  0
  4 12  1  0  0  0  0
  4  3  1  1  0  0  0
  5  4  1  0  0  0  0
  6  7  1  0  0  0  0
  6  5  2  0  0  0  0
  7 11  1  1  0  0  0
  7  8  1  0  0  0  0
  8 12  1  0  0  0  0
  9  8  1  0  0  0  0
  9 15  1  0  0  0  0
 10  9  1  0  0  0  0
 11 10  2  0  0  0  0
 12 13  2  0  0  0  0
 14  5  1  0  0  0  0
 14  1  1  0  0  0  0
 16 19  1  0  0  0  0
 16 17  2  0  0  0  0
 18 16  2  0  0  0  0
 19 24  1  0  0  0  0
 20 21  1  0  0  0  0
 20 19  2  0  0  0  0
 21 22  2  0  0  0  0
 22 23  1  0  0  0  0
 23 25  1  0  0  0  0
 24 23  2  0  0  0  0
 26 20  1  0  0  0  0
 27 26  1  0  0  0  0
M  END
>  <Pose>
1

>  <Score>
-7.019

$$$$
