/Users/jonathanwahrer/Desktop/Msc/3_Semester/Drug_Design_Praktikum/waehrer_HTS_screening/HTS_experiment/out/docking_results/vina_output/2qfa/2267_docked.pdbqt
 OpenBabel03162221253D

 27 30  0  0  1  0  0  0  0  0999 V2000
   45.4210    7.0040   42.9080 N   0  0  0  0  0  0  0  0  0  0  0  0
   45.2130    6.1370   41.8370 C   0  0  0  0  0  2  0  0  0  0  0  0
   46.4330    5.3280   41.4630 C   0  0  0  0  0  2  0  0  0  0  0  0
   47.3570    5.0920   42.5970 C   0  0  2  0  0  3  0  0  0  0  0  0
   47.5030    6.1130   43.5040 C   0  0  0  0  0  0  0  0  0  0  0  0
   48.3170    5.9910   44.5590 N   0  0  0  0  0  0  0  0  0  0  0  0
   49.0180    4.8230   44.7360 C   0  0  2  0  0  3  0  0  0  0  0  0
   48.8610    3.8310   43.8350 N   0  0  0  0  0  0  0  0  0  0  0  0
   49.6400    2.8190   44.2280 N   0  0  0  0  0  0  0  0  0  0  0  0
   50.2810    3.1390   45.3460 C   0  0  0  0  0  3  0  0  0  0  0  0
   49.9080    4.4310   45.7130 C   0  0  0  0  0  3  0  0  0  0  0  0
   48.0610    3.9000   42.7630 C   0  0  0  0  0  0  0  0  0  0  0  0
   47.9170    2.9760   41.9260 O   0  0  0  0  0  0  0  0  0  0  0  0
   46.7380    7.3530   43.2930 C   0  0  0  0  0  2  0  0  0  0  0  0
   49.7400    1.9020   43.7370 H   0  0  0  0  0  0  0  0  0  0  0  0
   44.1910    7.2610   44.0050 S   0  0  0  0  0  0  0  0  0  0  0  0
   43.2170    6.1060   43.9490 O   0  0  0  0  0  0  0  0  0  0  0  0
   44.7130    7.3170   45.4100 O   0  0  0  0  0  0  0  0  0  0  0  0
   43.2590    8.7150   43.7240 C   0  0  0  0  0  0  0  0  0  0  0  0
   43.5610    9.9270   44.3200 C   0  0  0  0  0  3  0  0  0  0  0  0
   42.7870   11.0480   44.0610 C   0  0  0  0  0  0  0  0  0  0  0  0
   41.7030   11.0130   43.2140 C   0  0  0  0  0  0  0  0  0  0  0  0
   43.1820   12.5750   44.8250 Cl  0  0  0  0  0  0  0  0  0  0  0  0
   41.4030    9.8070   42.6190 C   0  0  0  0  0  3  0  0  0  0  0  0
   42.1710    8.6940   42.8770 C   0  0  0  0  0  3  0  0  0  0  0  0
   40.9340   12.1610   42.9650 O   0  0  0  0  0  0  0  0  0  0  0  0
   40.0450   12.6370   43.9570 C   0  0  0  0  0  1  0  0  0  0  0  0
  1 14  1  0  0  0  0
  1 16  1  0  0  0  0
  2  1  1  0  0  0  0
  3  2  1  0  0  0  0
  4  3  1  6  0  0  0
  4 12  1  0  0  0  0
  4  5  1  0  0  0  0
  5  6  2  0  0  0  0
  6  7  1  0  0  0  0
  7 11  1  1  0  0  0
  8  9  1  0  0  0  0
  8  7  1  0  0  0  0
  9 10  1  0  0  0  0
 10 11  2  0  0  0  0
 12  8  1  0  0  0  0
 13 12  2  0  0  0  0
 14  5  1  0  0  0  0
 15  9  1  0  0  0  0
 16 18  2  0  0  0  0
 17 16  2  0  0  0  0
 19 16  1  0  0  0  0
 19 20  1  0  0  0  0
 21 20  2  0  0  0  0
 21 23  1  0  0  0  0
 22 21  1  0  0  0  0
 24 25  1  0  0  0  0
 24 22  2  0  0  0  0
 25 19  2  0  0  0  0
 26 22  1  0  0  0  0
 26 27  1  0  0  0  0
M  END
>  <Pose>
1

>  <Score>
-8.477

$$$$
