/Users/jonathanwahrer/Desktop/Msc/3_Semester/Drug_Design_Praktikum/waehrer_HTS_screening/HTS_experiment/out/docking_results/vina_output/2qfa/2271_docked.pdbqt
 OpenBabel03162221253D

 27 30  0  0  1  0  0  0  0  0999 V2000
   41.0040   11.2790   44.4550 C   0  0  2  0  0  0  0  0  0  0  0  0
   40.6390   10.1340   45.1260 N   0  0  0  0  0  4  0  0  0  0  0  0
   41.6220    9.1430   44.7400 C   0  0  0  0  0  0  0  0  0  0  0  0
   42.3020    8.2250   45.3470 C   0  0  0  0  0  3  0  0  0  0  0  0
   43.2630    7.3320   44.6750 C   0  0  0  0  0  2  0  0  0  0  0  0
   43.4400    7.5540   43.2150 C   0  0  0  0  0  2  0  0  0  0  0  0
   42.3020    8.2550   42.5520 C   0  0  0  0  0  2  0  0  0  0  0  0
   41.7770    9.3440   43.3470 N   0  0  0  0  0  0  0  0  0  0  0  0
   41.3330   10.7020   43.0480 C   0  0  0  0  0  2  0  0  0  0  0  0
   39.7590    9.7550   44.6150 H   0  0  0  0  0  0  0  0  0  0  0  0
   42.1490   12.0950   44.8050 C   0  0  0  0  0  0  0  0  0  0  0  0
   41.9600   13.2260   45.5760 C   0  0  0  0  0  3  0  0  0  0  0  0
   43.0140   14.0260   45.9060 C   0  0  0  0  0  3  0  0  0  0  0  0
   44.3100   13.7480   45.4890 C   0  0  0  0  0  0  0  0  0  0  0  0
   45.6760   14.7540   45.8970 Cl  0  0  0  0  0  0  0  0  0  0  0  0
   44.4950   12.6280   44.7260 C   0  0  0  0  0  3  0  0  0  0  0  0
   43.4270   11.8140   44.3900 C   0  0  0  0  0  3  0  0  0  0  0  0
   39.8850   12.1170   44.1870 O   0  0  0  0  0  0  0  0  0  0  0  0
   39.4000   11.6810   43.4410 H   0  0  0  0  0  0  0  0  0  0  0  0
   40.3150   10.0840   46.4730 C   0  0  0  0  0  0  0  0  0  0  0  0
   41.1640   10.1840   47.5220 C   0  0  0  0  0  3  0  0  0  0  0  0
   40.6820   10.1270   48.8290 C   0  0  0  0  0  3  0  0  0  0  0  0
   39.3380    9.9690   49.1200 C   0  0  0  0  0  0  0  0  0  0  0  0
   38.4970    9.8700   48.0310 C   0  0  0  0  0  3  0  0  0  0  0  0
   38.9390    9.9210   46.7360 C   0  0  0  0  0  3  0  0  0  0  0  0
   38.9010    9.9170   50.4340 O   0  0  0  0  0  0  0  0  0  0  0  0
   37.7500    9.1760   50.7480 C   0  0  0  0  0  1  0  0  0  0  0  0
  1 18  1  6  0  0  0
  1 11  1  0  0  0  0
  1  2  1  0  0  0  0
  2 20  1  0  0  0  0
  3  2  1  0  0  0  0
  3  4  2  0  0  0  0
  5  4  1  0  0  0  0
  6  5  1  0  0  0  0
  7  6  1  0  0  0  0
  7  8  1  0  0  0  0
  8  3  1  0  0  0  0
  9  8  1  0  0  0  0
  9  1  1  0  0  0  0
 10  2  1  0  0  0  0
 11 12  1  0  0  0  0
 12 13  2  0  0  0  0
 14 15  1  0  0  0  0
 14 13  1  0  0  0  0
 16 14  2  0  0  0  0
 17 16  1  0  0  0  0
 17 11  2  0  0  0  0
 19 18  1  0  0  0  0
 20 25  2  0  0  0  0
 20 21  1  0  0  0  0
 21 22  2  0  0  0  0
 22 23  1  0  0  0  0
 23 26  1  0  0  0  0
 24 23  2  0  0  0  0
 25 24  1  0  0  0  0
 26 27  1  0  0  0  0
M  END
>  <Pose>
1

>  <Score>
-6.621

$$$$
