/Users/jonathanwahrer/Desktop/Msc/3_Semester/Drug_Design_Praktikum/waehrer_HTS_screening/HTS_experiment/out/docking_results/vina_output/2qfa/2275_docked.pdbqt
 OpenBabel03162221263D

 21 23  0  0  1  0  0  0  0  0999 V2000
   41.8850    8.0570   42.1720 Cl  0  0  0  0  0  0  0  0  0  0  0  0
   42.1380    8.9450   43.6580 C   0  0  0  0  0  0  0  0  0  0  0  0
   42.9010    8.3980   44.6690 C   0  0  0  0  0  0  0  0  0  0  0  0
   43.0610    9.1550   45.8080 C   0  0  0  0  0  0  0  0  0  0  0  0
   43.7440    8.7480   46.7980 O   0  0  0  0  0  0  0  0  0  0  0  0
   42.4870   10.3640   45.8970 N   0  0  0  0  0  0  0  0  0  0  0  0
   41.7510   10.9250   44.9570 N   0  0  0  0  0  0  0  0  0  0  0  0
   41.1470   12.2390   45.0940 C   0  0  1  0  0  3  0  0  0  0  0  0
   39.9790   12.2400   46.0580 C   0  0  0  0  0  2  0  0  0  0  0  0
   40.4730   12.3310   47.4920 C   0  0  0  0  0  2  0  0  0  0  0  0
   41.3500   11.1520   47.8470 C   0  0  0  0  0  2  0  0  0  0  0  0
   42.6710   11.1540   47.1240 C   0  0  2  0  0  3  0  0  0  0  0  0
   42.9540   12.5450   46.6800 C   0  0  0  0  0  3  0  0  0  0  0  0
   42.2070   13.1040   45.7350 C   0  0  0  0  0  3  0  0  0  0  0  0
   41.5760   10.1940   43.8160 C   0  0  0  0  0  0  0  0  0  0  0  0
   40.8680   10.7110   42.8880 O   0  0  0  0  0  0  0  0  0  0  0  0
   43.5080    7.1130   44.5770 N   0  0  0  0  0  0  0  0  0  0  0  0
   42.8630    6.3080   44.8460 H   0  0  0  0  0  0  0  0  0  0  0  0
   44.8640    6.8780   44.1630 C   0  0  0  0  0  3  0  0  0  0  0  0
   45.0560    5.4720   43.6210 C   0  0  0  0  0  1  0  0  0  0  0  0
   45.3740    7.8390   43.1410 C   0  0  0  0  0  1  0  0  0  0  0  0
  1  2  1  0  0  0  0
  2 15  1  0  0  0  0
  2  3  2  0  0  0  0
  3  4  1  0  0  0  0
  4  6  1  0  0  0  0
  4  5  2  0  0  0  0
  6 12  1  0  0  0  0
  7  8  1  0  0  0  0
  7  6  1  0  0  0  0
  8 14  1  1  0  0  0
  8  9  1  0  0  0  0
  9 10  1  0  0  0  0
 10 11  1  0  0  0  0
 12 13  1  6  0  0  0
 12 11  1  0  0  0  0
 14 13  2  0  0  0  0
 15  7  1  0  0  0  0
 16 15  2  0  0  0  0
 17  3  1  0  0  0  0
 17 18  1  0  0  0  0
 19 17  1  0  0  0  0
 20 19  1  0  0  0  0
 21 19  1  0  0  0  0
M  END
>  <Pose>
1

>  <Score>
-5.840

$$$$
