/Users/jonathanwahrer/Desktop/Msc/3_Semester/Drug_Design_Praktikum/waehrer_HTS_screening/HTS_experiment/out/docking_results/vina_output/2qfa/2276_docked.pdbqt
 OpenBabel03162221263D

 21 24  0  0  1  0  0  0  0  0999 V2000
   40.5570   12.8220   43.6930 Cl  0  0  0  0  0  0  0  0  0  0  0  0
   41.4570   11.4070   44.2020 C   0  0  0  0  0  0  0  0  0  0  0  0
   41.9830   11.3980   45.4770 C   0  0  0  0  0  0  0  0  0  0  0  0
   42.6940   10.2400   45.8150 C   0  0  0  0  0  0  0  0  0  0  0  0
   43.1900   10.1790   46.9560 O   0  0  0  0  0  0  0  0  0  0  0  0
   42.8360    9.2330   44.9440 N   0  0  0  0  0  0  0  0  0  0  0  0
   42.3280    9.2480   43.7210 N   0  0  0  0  0  0  0  0  0  0  0  0
   42.5710    8.0670   42.9050 C   0  0  1  0  0  3  0  0  0  0  0  0
   44.0760    7.8890   42.8410 C   0  0  1  0  0  3  0  0  0  0  0  0
   44.6620    7.9180   44.1860 C   0  0  1  0  0  3  0  0  0  0  0  0
   43.5810    8.0150   45.2720 C   0  0  2  0  0  3  0  0  0  0  0  0
   42.6120    6.9030   44.9830 C   0  0  0  0  0  2  0  0  0  0  0  0
   42.0890    6.9240   43.7680 C   0  0  0  0  0  2  0  0  0  0  0  0
   44.6980    6.6380   43.3390 C   0  0  0  0  0  2  0  0  0  0  0  0
   41.6440   10.3240   43.3480 C   0  0  0  0  0  0  0  0  0  0  0  0
   41.1590   10.3480   42.1880 O   0  0  0  0  0  0  0  0  0  0  0  0
   41.8360   12.4600   46.4160 N   0  0  0  0  0  0  0  0  0  0  0  0
   41.0110   12.3830   47.0480 H   0  0  0  0  0  0  0  0  0  0  0  0
   42.7040   13.5740   46.5410 C   0  0  0  0  0  3  0  0  0  0  0  0
   43.8770   13.5660   45.5950 C   0  0  0  0  0  1  0  0  0  0  0  0
   42.0000   14.9090   46.3430 C   0  0  0  0  0  1  0  0  0  0  0  0
  1  2  1  0  0  0  0
  2  3  2  0  0  0  0
  3  4  1  0  0  0  0
  3 17  1  0  0  0  0
  4  5  2  0  0  0  0
  6 11  1  0  0  0  0
  6  4  1  0  0  0  0
  7  6  1  0  0  0  0
  8  7  1  0  0  0  0
  8 13  1  1  0  0  0
  9  8  1  0  0  0  0
  9 14  1  1  0  0  0
  9 10  1  0  0  0  0
 10 14  1  1  0  0  0
 10 11  1  0  0  0  0
 11 12  1  6  0  0  0
 13 12  1  0  0  0  0
 15  7  1  0  0  0  0
 15  2  1  0  0  0  0
 16 15  2  0  0  0  0
 17 19  1  0  0  0  0
 17 18  1  0  0  0  0
 20 19  1  0  0  0  0
 21 19  1  0  0  0  0
M  END
>  <Pose>
1

>  <Score>
-6.153

$$$$
