/Users/jonathanwahrer/Desktop/Msc/3_Semester/Drug_Design_Praktikum/waehrer_HTS_screening/HTS_experiment/out/docking_results/vina_output/2qfa/2281_docked.pdbqt
 OpenBabel03162221263D

 34 37  0  0  1  0  0  0  0  0999 V2000
   41.9300    9.9740   45.6370 N   0  0  0  0  0  0  0  0  0  0  0  0
   41.7400    8.7260   46.2450 C   0  0  0  0  0  2  0  0  0  0  0  0
   42.5770    7.6810   45.4190 C   0  0  0  0  0  2  0  0  0  0  0  0
   43.4690    8.1750   44.4930 N   0  0  0  0  0  0  0  0  0  0  0  0
   43.2260    9.4580   43.8920 C   0  0  0  0  0  2  0  0  0  0  0  0
   41.7400    9.8820   44.1280 C   0  0  0  0  0  2  0  0  0  0  0  0
   42.4190   11.2030   46.0520 C   0  0  2  0  0  3  0  0  0  0  0  0
   41.8860   12.3950   45.8240 C   0  0  1  0  0  3  0  0  0  0  0  0
   40.1390   12.4450   45.3540 Cl  0  0  0  0  0  0  0  0  0  0  0  0
   42.5840   13.5990   45.9400 C   0  0  0  0  0  0  0  0  0  0  0  0
   43.8350   13.5670   46.3060 N   0  0  0  0  0  0  0  0  0  0  0  0
   41.9490   14.6720   45.6600 O   0  0  0  0  0  0  0  0  0  0  0  0
   44.4160   12.3670   46.5670 N   0  0  0  0  0  0  0  0  0  0  0  0
   43.8380   11.2280   46.4820 C   0  0  0  0  0  3  0  0  0  0  0  0
   44.7290   14.7190   46.1950 C   0  0  0  0  0  0  0  0  0  0  0  0
   44.7300   15.7390   47.0910 C   0  0  0  0  0  3  0  0  0  0  0  0
   45.6650   16.7490   47.0280 C   0  0  0  0  0  3  0  0  0  0  0  0
   46.6440   16.7510   46.0360 C   0  0  0  0  0  3  0  0  0  0  0  0
   46.6130   15.6960   45.1250 C   0  0  0  0  0  3  0  0  0  0  0  0
   45.6940   14.7230   45.2040 C   0  0  0  0  0  3  0  0  0  0  0  0
   43.6880    7.3030   43.2910 C   0  0  0  0  0  2  0  0  0  0  0  0
   45.1150    7.1420   43.0550 C   0  0  0  0  0  0  0  0  0  0  0  0
   45.9470    7.8020   42.7080 O   0  0  0  0  0  0  0  0  0  0  0  0
   45.5830    5.5390   43.4160 N   0  0  0  0  0  0  0  0  0  0  0  0
   47.0570    5.8450   43.4230 C   0  0  0  0  0  0  0  0  0  0  0  0
   44.8250    5.3870   43.4090 H   0  0  0  0  0  0  0  0  0  0  0  0
   47.6040    6.6720   42.7470 O   0  0  0  0  0  0  0  0  0  0  0  0
   47.7350    5.0040   44.3830 N   0  0  0  0  0  0  0  0  0  0  0  0
   47.1100    4.2880   44.8830 H   0  0  0  0  0  0  0  0  0  0  0  0
   49.1110    5.0060   44.7120 C   0  0  0  0  0  3  0  0  0  0  0  0
   49.5260    5.1310   46.1210 C   0  0  0  0  0  2  0  0  0  0  0  0
   49.6680    3.7140   46.6850 C   0  0  0  0  0  2  0  0  0  0  0  0
   50.1570    2.9620   45.4700 C   0  0  0  0  0  2  0  0  0  0  0  0
   49.6240    3.6180   44.2730 C   0  0  0  0  0  2  0  0  0  0  0  0
  1  2  1  0  0  0  0
  3  2  1  0  0  0  0
  4  3  1  0  0  0  0
  5  6  1  0  0  0  0
  5  4  1  0  0  0  0
  6  1  1  0  0  0  0
  7  1  1  6  0  0  0
  7 14  1  0  0  0  0
  8  9  1  1  0  0  0
  8 10  1  0  0  0  0
  8  7  1  0  0  0  0
 10 11  1  0  0  0  0
 11 13  1  0  0  0  0
 12 10  2  0  0  0  0
 14 13  2  0  0  0  0
 15 11  1  0  0  0  0
 15 16  1  0  0  0  0
 17 16  2  0  0  0  0
 18 17  1  0  0  0  0
 19 20  1  0  0  0  0
 19 18  2  0  0  0  0
 20 15  2  0  0  0  0
 21  4  1  0  0  0  0
 22 21  1  0  0  0  0
 22 24  1  0  0  0  0
 23 22  2  0  0  0  0
 24 25  1  0  0  0  0
 25 28  1  0  0  0  0
 26 24  1  0  0  0  0
 27 25  2  0  0  0  0
 28 30  1  0  0  0  0
 28 29  1  0  0  0  0
 30 31  1  0  0  0  0
 31 32  1  0  0  0  0
 33 32  1  0  0  0  0
 34 30  1  0  0  0  0
 34 33  1  0  0  0  0
M  END
>  <Pose>
1

>  <Score>
-8.110

$$$$
