/Users/jonathanwahrer/Desktop/Msc/3_Semester/Drug_Design_Praktikum/waehrer_HTS_screening/HTS_experiment/out/docking_results/vina_output/2qfa/2282_docked.pdbqt
 OpenBabel03162221273D

 31 34  0  0  1  0  0  0  0  0999 V2000
   41.5180   10.0740   45.2000 N   0  0  0  0  0  0  0  0  0  0  0  0
   40.6330   10.8160   44.3340 C   0  0  0  0  0  2  0  0  0  0  0  0
   40.5100   12.2270   44.8180 C   0  0  0  0  0  2  0  0  0  0  0  0
   41.5300   12.4290   45.8170 N   0  0  0  0  0  0  0  0  0  0  0  0
   41.1890   11.6860   46.9760 C   0  0  0  0  0  2  0  0  0  0  0  0
   41.3730   10.2060   46.6280 C   0  0  0  0  0  2  0  0  0  0  0  0
   42.5300    9.2120   44.7020 C   0  0  0  0  0  0  0  0  0  0  0  0
   42.5850    7.8650   45.0480 C   0  0  0  0  0  0  0  0  0  0  0  0
   41.3520    7.2700   46.1400 Cl  0  0  0  0  0  0  0  0  0  0  0  0
   43.5770    7.0470   44.5440 C   0  0  0  0  0  0  0  0  0  0  0  0
   44.5220    7.5130   43.7060 N   0  0  0  0  0  0  0  0  0  0  0  0
   43.6230    5.8250   44.8620 O   0  0  0  0  0  0  0  0  0  0  0  0
   44.4510    8.7940   43.3890 N   0  0  0  0  0  0  0  0  0  0  0  0
   43.5150    9.6470   43.8430 C   0  0  0  0  0  3  0  0  0  0  0  0
   45.5490    6.6630   43.1800 C   0  0  0  0  0  0  0  0  0  0  0  0
   46.7390    6.5180   43.8560 C   0  0  0  0  0  3  0  0  0  0  0  0
   47.7480    5.6900   43.3520 C   0  0  0  0  0  3  0  0  0  0  0  0
   47.5840    4.9990   42.1740 C   0  0  0  0  0  3  0  0  0  0  0  0
   46.3960    5.1370   41.4910 C   0  0  0  0  0  3  0  0  0  0  0  0
   45.4010    5.9630   42.0010 C   0  0  0  0  0  3  0  0  0  0  0  0
   42.0030   13.7460   45.9720 C   0  0  0  0  0  2  0  0  0  0  0  0
   43.4620   13.8870   45.9050 C   0  0  0  0  0  0  0  0  0  0  0  0
   44.0660   13.0880   45.1120 O   0  0  0  0  0  0  0  0  0  0  0  0
   44.2470   14.8180   46.6270 N   0  0  0  0  0  0  0  0  0  0  0  0
   43.7510   15.4740   47.2630 H   0  0  0  0  0  0  0  0  0  0  0  0
   45.6810   14.9190   46.5260 C   0  0  0  0  0  2  0  0  0  0  0  0
   46.0390   15.9160   45.4670 C   0  0  1  0  0  3  0  0  0  0  0  0
   46.6420   17.0000   46.0470 O   0  0  0  0  0  0  0  0  0  0  0  0
   47.8850   17.2120   45.5170 C   0  0  0  0  0  2  0  0  0  0  0  0
   47.7680   16.6490   44.1160 C   0  0  0  0  0  2  0  0  0  0  0  0
   47.0320   15.3440   44.4650 C   0  0  0  0  0  2  0  0  0  0  0  0
  1  6  1  0  0  0  0
  2  3  1  0  0  0  0
  2  1  1  0  0  0  0
  3  4  1  0  0  0  0
  4 21  1  0  0  0  0
  4  5  1  0  0  0  0
  6  5  1  0  0  0  0
  7  8  2  0  0  0  0
  7  1  1  0  0  0  0
  8  9  1  0  0  0  0
 10 12  2  0  0  0  0
 10  8  1  0  0  0  0
 11 10  1  0  0  0  0
 13 11  1  0  0  0  0
 13 14  2  0  0  0  0
 14  7  1  0  0  0  0
 15 11  1  0  0  0  0
 15 16  1  0  0  0  0
 17 16  2  0  0  0  0
 18 17  1  0  0  0  0
 19 20  1  0  0  0  0
 19 18  2  0  0  0  0
 20 15  2  0  0  0  0
 22 21  1  0  0  0  0
 22 24  1  0  0  0  0
 23 22  2  0  0  0  0
 24 25  1  0  0  0  0
 26 24  1  0  0  0  0
 27 28  1  0  0  0  0
 27 26  1  1  0  0  0
 29 28  1  0  0  0  0
 30 31  1  0  0  0  0
 30 29  1  0  0  0  0
 31 27  1  0  0  0  0
M  END
>  <Pose>
1

>  <Score>
-7.382

$$$$
