/Users/jonathanwahrer/Desktop/Msc/3_Semester/Drug_Design_Praktikum/waehrer_HTS_screening/HTS_experiment/out/docking_results/vina_output/2qfa/2284_docked.pdbqt
 OpenBabel03162221273D

 33 37  0  0  0  0  0  0  0  0999 V2000
   42.7900    9.8660   44.3470 C   0  0  0  0  0  0  0  0  0  0  0  0
   42.3450    8.7250   44.9840 C   0  0  0  0  0  3  0  0  0  0  0  0
   42.9830    7.5110   44.9450 C   0  0  0  0  0  0  0  0  0  0  0  0
   42.4740    6.5270   45.5750 O   0  0  0  0  0  0  0  0  0  0  0  0
   44.1440    7.3840   44.2370 N   0  0  0  0  0  0  0  0  0  0  0  0
   44.8320    6.3180   44.1210 N   0  0  0  0  0  0  0  0  0  0  0  0
   45.9320    6.2660   43.4300 C   0  0  0  0  0  0  0  0  0  0  0  0
   46.0060    7.9020   42.8810 S   0  0  0  0  0  0  0  0  0  0  0  0
   44.5720    8.4880   43.6230 C   0  0  0  0  0  0  0  0  0  0  0  0
   43.9400    9.6820   43.6630 N   0  0  0  0  0  0  0  0  0  0  0  0
   42.0610   11.1550   44.4210 C   0  0  0  0  0  2  0  0  0  0  0  0
   42.7320   12.0100   45.3460 N   0  0  0  0  0  0  0  0  0  0  0  0
   43.2400   11.4060   46.5130 C   0  0  0  0  0  2  0  0  0  0  0  0
   44.2750   12.3460   47.1410 C   0  0  0  0  0  2  0  0  0  0  0  0
   43.7520   13.6350   47.2820 N   0  0  0  0  0  0  0  0  0  0  0  0
   42.3900   13.7470   46.9650 C   0  0  0  0  0  2  0  0  0  0  0  0
   42.1420   13.2790   45.5480 C   0  0  0  0  0  2  0  0  0  0  0  0
   44.7350   14.9710   47.2910 S   0  0  0  0  0  0  0  0  0  0  0  0
   45.7170   14.8450   48.4520 O   0  0  0  0  0  0  0  0  0  0  0  0
   43.9630   16.2580   47.4200 O   0  0  0  0  0  0  0  0  0  0  0  0
   45.7260   15.0390   45.8510 C   0  0  0  0  0  0  0  0  0  0  0  0
   46.8200   15.8260   45.6500 N   0  0  0  0  0  0  0  0  0  0  0  0
   47.3220   15.6160   44.4320 C   0  0  0  0  0  3  0  0  0  0  0  0
   46.5860   14.6930   43.7970 N   0  0  0  0  0  0  0  0  0  0  0  0
   45.6060   14.3410   44.6740 C   0  0  0  0  0  3  0  0  0  0  0  0
   46.7350   14.3290   42.8420 H   0  0  0  0  0  0  0  0  0  0  0  0
   46.8720    5.1710   43.1610 C   0  0  0  0  0  0  0  0  0  0  0  0
   47.9770    5.0340   43.9720 C   0  0  0  0  0  3  0  0  0  0  0  0
   48.9030    4.0190   43.7700 C   0  0  0  0  0  3  0  0  0  0  0  0
   48.7210    3.1230   42.7380 C   0  0  0  0  0  0  0  0  0  0  0  0
   47.6170    3.2400   41.9100 C   0  0  0  0  0  3  0  0  0  0  0  0
   49.8680    1.8500   42.4730 Cl  0  0  0  0  0  0  0  0  0  0  0  0
   46.7280    4.2630   42.1500 C   0  0  0  0  0  3  0  0  0  0  0  0
  1 11  1  0  0  0  0
  1  2  2  0  0  0  0
  3  2  1  0  0  0  0
  3  4  2  0  0  0  0
  5  3  1  0  0  0  0
  6  5  1  0  0  0  0
  7  6  2  0  0  0  0
  8  7  1  0  0  0  0
  8  9  1  0  0  0  0
  9 10  2  0  0  0  0
  9  5  1  0  0  0  0
 10  1  1  0  0  0  0
 11 12  1  0  0  0  0
 12 17  1  0  0  0  0
 12 13  1  0  0  0  0
 13 14  1  0  0  0  0
 14 15  1  0  0  0  0
 15 18  1  0  0  0  0
 16 15  1  0  0  0  0
 17 16  1  0  0  0  0
 18 20  2  0  0  0  0
 18 19  2  0  0  0  0
 21 18  1  0  0  0  0
 22 21  1  0  0  0  0
 23 22  2  0  0  0  0
 24 23  1  0  0  0  0
 24 25  1  0  0  0  0
 25 21  2  0  0  0  0
 26 24  1  0  0  0  0
 27  7  1  0  0  0  0
 27 28  1  0  0  0  0
 29 28  2  0  0  0  0
 30 29  1  0  0  0  0
 31 33  1  0  0  0  0
 31 30  2  0  0  0  0
 32 30  1  0  0  0  0
 33 27  2  0  0  0  0
M  END
>  <Pose>
1

>  <Score>
-8.486

$$$$
