/Users/jonathanwahrer/Desktop/Msc/3_Semester/Drug_Design_Praktikum/waehrer_HTS_screening/HTS_experiment/out/docking_results/vina_output/2qfa/2285_docked.pdbqt
 OpenBabel03162221283D

 32 35  0  0  0  0  0  0  0  0999 V2000
   41.2860   10.2130   45.0550 N   0  0  0  0  0  0  0  0  0  0  0  0
   42.0780   10.4670   46.2220 C   0  0  0  0  0  2  0  0  0  0  0  0
   41.3340   11.2340   47.3300 C   0  0  0  0  0  2  0  0  0  0  0  0
   40.8440   12.4370   46.7330 N   0  0  0  0  0  0  0  0  0  0  0  0
   39.8210   12.0760   45.7910 C   0  0  0  0  0  2  0  0  0  0  0  0
   40.5760   11.4730   44.6390 C   0  0  0  0  0  2  0  0  0  0  0  0
   42.4510    9.9900   43.7290 S   0  0  0  0  0  0  0  0  0  0  0  0
   41.7020   10.2450   42.4350 O   0  0  0  0  0  0  0  0  0  0  0  0
   43.5400   10.9900   43.8840 O   0  0  0  0  0  0  0  0  0  0  0  0
   43.0930    8.3940   43.6950 C   0  0  0  0  0  0  0  0  0  0  0  0
   44.3420    8.2690   43.0730 C   0  0  0  0  0  3  0  0  0  0  0  0
   45.0650    7.0730   43.0320 C   0  0  0  0  0  0  0  0  0  0  0  0
   44.5110    5.9520   43.6430 C   0  0  0  0  0  0  0  0  0  0  0  0
   46.2950    6.9870   42.4030 O   0  0  0  0  0  0  0  0  0  0  0  0
   43.2750    6.0910   44.2470 C   0  0  0  0  0  3  0  0  0  0  0  0
   45.2810    4.8060   43.5700 O   0  0  0  0  0  0  0  0  0  0  0  0
   42.5680    7.2860   44.2840 C   0  0  0  0  0  3  0  0  0  0  0  0
   46.7190    4.9590   43.7150 C   0  0  0  0  0  2  0  0  0  0  0  0
   47.2600    6.1320   42.9660 C   0  0  0  0  0  2  0  0  0  0  0  0
   40.8060   13.6010   47.4810 C   0  0  0  0  0  2  0  0  0  0  0  0
   42.0760   14.2850   47.7360 C   0  0  0  0  0  0  0  0  0  0  0  0
   42.3480   14.3830   49.0130 O   0  0  0  0  0  0  0  0  0  0  0  0
   43.0120   14.8220   46.9000 N   0  0  0  0  0  0  0  0  0  0  0  0
   42.9210   14.8590   45.8310 H   0  0  0  0  0  0  0  0  0  0  0  0
   44.2980   15.3770   47.3280 C   0  0  0  0  0  2  0  0  0  0  0  0
   45.2680   15.2530   46.2210 C   0  0  0  0  0  0  0  0  0  0  0  0
   46.2220   16.2660   45.9720 C   0  0  0  0  0  0  0  0  0  0  0  0
   47.0290   16.2600   44.8990 C   0  0  0  0  0  3  0  0  0  0  0  0
   46.3590   17.5890   47.1560 Cl  0  0  0  0  0  0  0  0  0  0  0  0
   46.9530   15.1980   43.9440 C   0  0  0  0  0  3  0  0  0  0  0  0
   46.0500   14.2370   44.1590 C   0  0  0  0  0  3  0  0  0  0  0  0
   45.1940   14.2210   45.2670 C   0  0  0  0  0  3  0  0  0  0  0  0
  1  2  1  0  0  0  0
  2  3  1  0  0  0  0
  4  3  1  0  0  0  0
  4 20  1  0  0  0  0
  5  4  1  0  0  0  0
  6  1  1  0  0  0  0
  6  5  1  0  0  0  0
  7  9  2  0  0  0  0
  7  1  1  0  0  0  0
  8  7  2  0  0  0  0
 10  7  1  0  0  0  0
 10 17  1  0  0  0  0
 11 10  2  0  0  0  0
 12 11  1  0  0  0  0
 12 13  2  0  0  0  0
 13 15  1  0  0  0  0
 14 19  1  0  0  0  0
 14 12  1  0  0  0  0
 15 17  2  0  0  0  0
 16 13  1  0  0  0  0
 16 18  1  0  0  0  0
 19 18  1  0  0  0  0
 20 21  1  0  0  0  0
 21 22  2  0  0  0  0
 23 25  1  0  0  0  0
 23 21  1  0  0  0  0
 24 23  1  0  0  0  0
 26 25  1  0  0  0  0
 27 26  1  0  0  0  0
 27 29  1  0  0  0  0
 28 27  2  0  0  0  0
 30 31  2  0  0  0  0
 30 28  1  0  0  0  0
 31 32  1  0  0  0  0
 32 26  2  0  0  0  0
M  END
>  <Pose>
1

>  <Score>
-8.132

$$$$
