/Users/jonathanwahrer/Desktop/Msc/3_Semester/Drug_Design_Praktikum/waehrer_HTS_screening/HTS_experiment/out/docking_results/vina_output/2qfa/2286_docked.pdbqt
 OpenBabel03162221283D

 31 34  0  0  0  0  0  0  0  0999 V2000
   47.2600    5.6770   42.4360 N   0  0  0  0  0  0  0  0  0  0  0  0
   46.1860    5.8420   41.5260 C   0  0  0  0  0  2  0  0  0  0  0  0
   44.8560    6.1070   42.1810 C   0  0  0  0  0  2  0  0  0  0  0  0
   44.9760    6.9830   43.3270 N   0  0  0  0  0  0  0  0  0  0  0  0
   46.2530    7.6520   43.4890 C   0  0  0  0  0  2  0  0  0  0  0  0
   47.4030    6.6780   43.4330 C   0  0  0  0  0  2  0  0  0  0  0  0
   43.8910    7.1410   44.1980 C   0  0  0  0  0  0  0  0  0  0  0  0
   42.8280    6.5170   43.9690 O   0  0  0  0  0  0  0  0  0  0  0  0
   43.9500    8.0240   45.3910 C   0  0  0  0  0  2  0  0  0  0  0  0
   42.9580    9.0620   45.3460 N   0  0  0  0  0  0  0  0  0  0  0  0
   41.7120    9.0120   46.0250 C   0  0  0  0  0  0  0  0  0  0  0  0
   41.3220    8.0410   46.7570 O   0  0  0  0  0  0  0  0  0  0  0  0
   40.9400   10.1830   45.7910 N   0  0  0  0  0  0  0  0  0  0  0  0
   41.6150   10.9260   44.7430 C   0  0  0  0  0  0  0  0  0  0  0  0
   39.7070   10.5460   46.4890 C   0  0  0  0  0  1  0  0  0  0  0  0
   41.7900   12.3760   45.0940 C   0  0  0  0  0  2  0  0  0  0  0  0
   40.8270   10.7140   43.4730 C   0  0  0  0  0  2  0  0  0  0  0  0
   42.9630   10.3100   44.6660 C   0  0  0  0  0  0  0  0  0  0  0  0
   40.5980   13.2260   44.7680 C   0  0  0  0  0  2  0  0  0  0  0  0
   40.0900   13.0420   43.3680 C   0  0  0  0  0  2  0  0  0  0  0  0
   40.8380   11.9620   42.6180 C   0  0  0  0  0  2  0  0  0  0  0  0
   43.9750   10.7840   44.0960 O   0  0  0  0  0  0  0  0  0  0  0  0
   47.4800    4.0790   43.0080 S   0  0  0  0  0  0  0  0  0  0  0  0
   47.5010    3.1370   41.8440 O   0  0  0  0  0  0  0  0  0  0  0  0
   46.3640    3.6660   43.9210 O   0  0  0  0  0  0  0  0  0  0  0  0
   48.9780    3.9210   43.9400 C   0  0  0  0  0  0  0  0  0  0  0  0
   50.3140    2.9150   43.6400 S   0  0  0  0  0  0  0  0  0  0  0  0
   51.2930    3.3550   44.9590 C   0  0  0  0  0  0  0  0  0  0  0  0
   50.5400    4.2930   45.6130 C   0  0  0  0  0  3  0  0  0  0  0  0
   52.9060    2.7630   45.4120 Cl  0  0  0  0  0  0  0  0  0  0  0  0
   49.3330    4.5880   45.0800 C   0  0  0  0  0  3  0  0  0  0  0  0
  1 23  1  0  0  0  0
  1  6  1  0  0  0  0
  2  3  1  0  0  0  0
  2  1  1  0  0  0  0
  3  4  1  0  0  0  0
  4  5  1  0  0  0  0
  4  7  1  0  0  0  0
  6  5  1  0  0  0  0
  7  9  1  0  0  0  0
  8  7  2  0  0  0  0
 10  9  1  0  0  0  0
 10 11  1  0  0  0  0
 11 12  2  0  0  0  0
 13 11  1  0  0  0  0
 13 15  1  0  0  0  0
 14 16  1  0  0  0  0
 14 13  1  0  0  0  0
 17 14  1  0  0  0  0
 18 14  1  0  0  0  0
 18 10  1  0  0  0  0
 19 16  1  0  0  0  0
 20 19  1  0  0  0  0
 21 20  1  0  0  0  0
 21 17  1  0  0  0  0
 22 18  2  0  0  0  0
 23 25  2  0  0  0  0
 23 26  1  0  0  0  0
 24 23  2  0  0  0  0
 26 31  2  0  0  0  0
 27 26  1  0  0  0  0
 27 28  1  0  0  0  0
 28 30  1  0  0  0  0
 28 29  2  0  0  0  0
 31 29  1  0  0  0  0
M  END
>  <Pose>
1

>  <Score>
-7.328

$$$$
