/Users/jonathanwahrer/Desktop/Msc/3_Semester/Drug_Design_Praktikum/waehrer_HTS_screening/HTS_experiment/out/docking_results/vina_output/2qfa/2301_docked.pdbqt
 OpenBabel03162221293D

 24 27  0  0  1  0  0  0  0  0999 V2000
   41.1420   11.0610   44.2930 C   0  0  2  0  0  0  0  0  0  0  0  0
   41.5130    9.9870   45.2620 C   0  0  0  0  0  2  0  0  0  0  0  0
   43.0430    9.8610   45.3660 C   0  0  0  0  0  2  0  0  0  0  0  0
   43.4220    9.4070   44.0200 N   0  0  0  0  0  0  0  0  0  0  0  0
   43.1940   10.3660   42.9850 C   0  0  0  0  0  2  0  0  0  0  0  0
   41.7980   10.9180   42.9710 C   0  0  0  0  0  2  0  0  0  0  0  0
   41.2930   12.3770   44.9340 C   0  0  0  0  0  0  0  0  0  0  0  0
   42.4540   12.8930   45.4350 C   0  0  0  0  0  3  0  0  0  0  0  0
   42.4490   14.1340   46.0070 C   0  0  0  0  0  3  0  0  0  0  0  0
   41.3150   14.9290   46.1170 C   0  0  0  0  0  0  0  0  0  0  0  0
   41.3600   16.5200   46.8490 Cl  0  0  0  0  0  0  0  0  0  0  0  0
   40.1520   14.4040   45.6120 C   0  0  0  0  0  3  0  0  0  0  0  0
   40.1370   13.1510   45.0310 C   0  0  0  0  0  3  0  0  0  0  0  0
   39.7450   10.9220   44.0870 O   0  0  0  0  0  0  0  0  0  0  0  0
   39.3690   10.5200   44.9290 H   0  0  0  0  0  0  0  0  0  0  0  0
   43.9580    8.1060   43.8650 C   0  0  0  0  0  0  0  0  0  0  0  0
   45.1520    7.9480   43.2660 N   0  0  0  0  0  0  0  0  0  0  0  0
   45.7600    6.7940   43.0740 N   0  0  0  0  0  0  0  0  0  0  0  0
   46.9160    6.4150   42.5230 N   0  0  0  0  0  0  0  0  0  0  0  0
   45.1770    5.6720   43.4900 C   0  0  0  0  0  0  0  0  0  0  0  0
   47.0540    5.1100   42.5880 N   0  0  0  0  0  0  0  0  0  0  0  0
   45.9940    4.6350   43.1820 N   0  0  0  0  0  0  0  0  0  0  0  0
   43.9450    5.7550   44.1160 C   0  0  0  0  0  3  0  0  0  0  0  0
   43.3230    6.9710   44.3090 C   0  0  0  0  0  3  0  0  0  0  0  0
  1 14  1  6  0  0  0
  1  7  1  0  0  0  0
  1  2  1  0  0  0  0
  2  3  1  0  0  0  0
  4  3  1  0  0  0  0
  5  4  1  0  0  0  0
  6  5  1  0  0  0  0
  6  1  1  0  0  0  0
  7 13  2  0  0  0  0
  7  8  1  0  0  0  0
  8  9  2  0  0  0  0
  9 10  1  0  0  0  0
 10 11  1  0  0  0  0
 12 10  2  0  0  0  0
 13 12  1  0  0  0  0
 14 15  1  0  0  0  0
 16  4  1  0  0  0  0
 16 24  1  0  0  0  0
 17 16  2  0  0  0  0
 18 17  1  0  0  0  0
 18 20  1  0  0  0  0
 19 21  2  0  0  0  0
 19 18  1  0  0  0  0
 20 23  1  0  0  0  0
 21 22  1  0  0  0  0
 22 20  2  0  0  0  0
 23 24  2  0  0  0  0
M  END
>  <Pose>
1

>  <Score>
-8.039

$$$$
