/Users/jonathanwahrer/Desktop/Msc/3_Semester/Drug_Design_Praktikum/waehrer_HTS_screening/HTS_experiment/out/docking_results/vina_output/2qfa/2330_docked.pdbqt
 OpenBabel03162221303D

 28 31  0  0  0  0  0  0  0  0999 V2000
   43.9260   11.2200   44.5030 C   0  0  0  0  0  0  0  0  0  0  0  0
   44.3800   12.1210   43.7610 O   0  0  0  0  0  0  0  0  0  0  0  0
   43.8870   11.4250   45.8830 N   0  0  0  0  0  0  0  0  0  0  0  0
   43.4670   10.5900   46.4290 H   0  0  0  0  0  0  0  0  0  0  0  0
   43.4560    9.9840   43.8500 C   0  0  0  0  0  0  0  0  0  0  0  0
   42.1770    9.8640   43.3490 C   0  0  0  0  0  0  0  0  0  0  0  0
   41.1070   11.2480   43.5120 Cl  0  0  0  0  0  0  0  0  0  0  0  0
   41.7330    8.6960   42.7340 C   0  0  0  0  0  3  0  0  0  0  0  0
   42.5970    7.6380   42.6260 C   0  0  0  0  0  3  0  0  0  0  0  0
   43.9060    7.7100   43.1180 C   0  0  0  0  0  0  0  0  0  0  0  0
   44.2800    8.8870   43.7130 C   0  0  0  0  0  3  0  0  0  0  0  0
   44.7910    6.5620   42.9840 C   0  0  0  0  0  0  0  0  0  0  0  0
   45.7870    6.3540   42.1170 N   0  0  0  0  0  0  0  0  0  0  0  0
   46.3350    5.1530   42.3620 N   0  0  0  0  0  0  0  0  0  0  0  0
   45.6900    4.6050   43.3780 N   0  0  0  0  0  0  0  0  0  0  0  0
   47.1320    4.7090   41.8510 H   0  0  0  0  0  0  0  0  0  0  0  0
   44.7460    5.4680   43.7600 N   0  0  0  0  0  0  0  0  0  0  0  0
   44.2970   12.5150   46.6700 C   0  0  0  0  0  2  0  0  0  0  0  0
   43.8220   13.8760   46.3890 C   0  0  0  0  0  2  0  0  0  0  0  0
   44.7360   15.0050   46.5360 C   0  0  0  0  0  0  0  0  0  0  0  0
   45.7150   15.3800   45.7060 N   0  0  0  0  0  0  0  0  0  0  0  0
   46.2730   16.4770   46.1890 C   0  0  0  0  0  0  0  0  0  0  0  0
   46.1640   14.8420   44.5540 C   0  0  0  0  0  3  0  0  0  0  0  0
   45.6400   16.7890   47.3280 N   0  0  0  0  0  0  0  0  0  0  0  0
   47.3200   17.1160   45.5590 C   0  0  0  0  0  3  0  0  0  0  0  0
   44.7110   15.8960   47.5340 N   0  0  0  0  0  0  0  0  0  0  0  0
   47.7820   16.5640   44.3780 C   0  0  0  0  0  3  0  0  0  0  0  0
   47.1980   15.4280   43.8860 C   0  0  0  0  0  3  0  0  0  0  0  0
  1  3  1  0  0  0  0
  2  1  2  0  0  0  0
  3  4  1  0  0  0  0
  3 18  1  0  0  0  0
  5  1  1  0  0  0  0
  6  7  1  0  0  0  0
  6  5  2  0  0  0  0
  8  6  1  0  0  0  0
  9  8  2  0  0  0  0
  9 10  1  0  0  0  0
 10 11  2  0  0  0  0
 11  5  1  0  0  0  0
 12 10  1  0  0  0  0
 12 17  1  0  0  0  0
 13 14  1  0  0  0  0
 13 12  2  0  0  0  0
 14 15  1  0  0  0  0
 15 17  2  0  0  0  0
 16 14  1  0  0  0  0
 19 20  1  0  0  0  0
 19 18  1  0  0  0  0
 20 26  2  0  0  0  0
 21 22  1  0  0  0  0
 21 20  1  0  0  0  0
 22 24  2  0  0  0  0
 23 21  1  0  0  0  0
 24 26  1  0  0  0  0
 25 22  1  0  0  0  0
 27 25  2  0  0  0  0
 28 27  1  0  0  0  0
 28 23  2  0  0  0  0
M  END
>  <Pose>
1

>  <Score>
-8.693

$$$$
