/Users/jonathanwahrer/Desktop/Msc/3_Semester/Drug_Design_Praktikum/waehrer_HTS_screening/HTS_experiment/out/docking_results/vina_output/2qfa/2334_docked.pdbqt
 OpenBabel03162221303D

 30 33  0  0  1  0  0  0  0  0999 V2000
   43.2300   11.9190   45.3980 S   0  0  0  0  0  0  0  0  0  0  0  0
   44.3190   12.7630   44.7310 O   0  0  0  0  0  0  0  0  0  0  0  0
   43.9400   11.2770   46.5950 O   0  0  0  0  0  0  0  0  0  0  0  0
   42.0440   13.0030   45.9380 N   0  0  0  0  0  0  0  0  0  0  0  0
   41.3110   12.6240   47.0930 C   0  0  0  0  0  2  0  0  0  0  0  0
   40.2990   13.6590   47.5250 C   0  0  1  0  0  3  0  0  0  0  0  0
   40.9610   14.9780   47.7360 C   0  0  0  0  0  2  0  0  0  0  0  0
   41.8290   15.3670   46.5520 C   0  0  0  0  0  2  0  0  0  0  0  0
   42.7690   14.2500   46.2560 C   0  0  0  0  0  2  0  0  0  0  0  0
   39.0800   13.6980   46.6920 C   0  0  0  0  0  0  0  0  0  0  0  0
   38.9830   14.7190   45.9160 O   0  0  0  0  0  0  0  0  0  0  0  0
   38.0510   12.7680   46.6550 N   0  0  0  0  0  0  0  0  0  0  0  0
   36.9390   12.9090   45.7680 C   0  0  0  0  0  2  0  0  0  0  0  0
   38.0350   11.6130   47.5200 C   0  0  0  0  0  2  0  0  0  0  0  0
   36.4320   11.6050   45.2190 C   0  0  0  0  0  2  0  0  0  0  0  0
   36.7060   10.5060   45.9720 O   0  0  0  0  0  0  0  0  0  0  0  0
   37.9630   10.4350   46.5350 C   0  0  0  0  0  2  0  0  0  0  0  0
   42.7350   10.6650   44.3420 C   0  0  0  0  0  0  0  0  0  0  0  0
   41.6560   10.7850   43.5010 C   0  0  0  0  0  0  0  0  0  0  0  0
   41.3450    9.7580   42.6210 C   0  0  0  0  0  3  0  0  0  0  0  0
   40.5670   12.1560   43.5200 Cl  0  0  0  0  0  0  0  0  0  0  0  0
   42.1080    8.5890   42.5690 C   0  0  0  0  0  3  0  0  0  0  0  0
   43.1910    8.4540   43.4090 C   0  0  0  0  0  0  0  0  0  0  0  0
   43.4830    9.4830   44.2730 C   0  0  0  0  0  3  0  0  0  0  0  0
   44.0020    7.2450   43.3770 C   0  0  0  0  0  0  0  0  0  0  0  0
   43.8360    6.1580   44.1490 N   0  0  0  0  0  0  0  0  0  0  0  0
   44.7380    5.2630   43.8560 O   0  0  0  0  0  0  0  0  0  0  0  0
   45.5040    5.7260   42.9050 C   0  0  0  0  0  0  0  0  0  0  0  0
   45.0580    6.9590   42.5970 N   0  0  0  0  0  0  0  0  0  0  0  0
   46.6710    5.0260   42.2630 C   0  0  0  0  0  1  0  0  0  0  0  0
  1  4  1  0  0  0  0
  1  3  2  0  0  0  0
  2  1  2  0  0  0  0
  4  9  1  0  0  0  0
  4  5  1  0  0  0  0
  5  6  1  0  0  0  0
  6 10  1  6  0  0  0
  6  7  1  0  0  0  0
  8  7  1  0  0  0  0
  9  8  1  0  0  0  0
 11 10  2  0  0  0  0
 12 10  1  0  0  0  0
 12 14  1  0  0  0  0
 13 12  1  0  0  0  0
 15 13  1  0  0  0  0
 15 16  1  0  0  0  0
 16 17  1  0  0  0  0
 17 14  1  0  0  0  0
 18  1  1  0  0  0  0
 19 21  1  0  0  0  0
 19 18  2  0  0  0  0
 20 19  1  0  0  0  0
 22 20  2  0  0  0  0
 22 23  1  0  0  0  0
 23 24  2  0  0  0  0
 24 18  1  0  0  0  0
 25 23  1  0  0  0  0
 25 26  2  0  0  0  0
 27 26  1  0  0  0  0
 28 27  1  0  0  0  0
 29 28  2  0  0  0  0
 29 25  1  0  0  0  0
 30 28  1  0  0  0  0
M  END
>  <Pose>
1

>  <Score>
-7.753

$$$$
