/Users/jonathanwahrer/Desktop/Msc/3_Semester/Drug_Design_Praktikum/waehrer_HTS_screening/HTS_experiment/out/docking_results/vina_output/2qfa/2335_docked.pdbqt
 OpenBabel03162221313D

 35 38  0  0  1  0  0  0  0  0999 V2000
   40.7120   11.1450   44.8000 N   0  0  0  0  0  0  0  0  0  0  0  0
   41.4080   10.0880   45.4210 C   0  0  0  0  0  2  0  0  0  0  0  0
   42.9070   10.1500   45.2230 C   0  0  2  0  0  3  0  0  0  0  0  0
   43.3280   10.8350   43.9800 C   0  0  0  0  0  2  0  0  0  0  0  0
   42.2940   11.0280   42.9310 C   0  0  0  0  0  3  0  0  0  0  0  0
   40.9080   11.3440   43.4320 C   0  0  0  0  0  3  0  0  0  0  0  0
   39.7500   12.1530   45.7050 S   0  0  0  0  0  0  0  0  0  0  0  0
   39.1020   11.3370   46.8210 O   0  0  0  0  0  0  0  0  0  0  0  0
   38.5670   12.5870   44.8490 O   0  0  0  0  0  0  0  0  0  0  0  0
   40.4960   13.5670   46.3540 C   0  0  0  0  0  0  0  0  0  0  0  0
   41.8760   13.7000   46.3340 C   0  0  0  0  0  3  0  0  0  0  0  0
   42.5170   14.8110   46.8250 C   0  0  0  0  0  0  0  0  0  0  0  0
   41.7500   15.8480   47.3690 C   0  0  0  0  0  0  0  0  0  0  0  0
   43.8670   15.2390   46.9370 N   0  0  0  0  0  0  0  0  0  0  0  0
   40.4010   15.7090   47.3840 C   0  0  0  0  0  3  0  0  0  0  0  0
   42.6310   16.9500   47.8420 C   0  0  0  0  0  2  0  0  0  0  0  0
   39.7560   14.5880   46.8870 C   0  0  0  0  0  0  0  0  0  0  0  0
   37.8300   14.5000   46.9680 Br  0  0  0  0  0  0  0  0  0  0  0  0
   43.9530   16.2300   48.0160 C   0  0  0  0  0  2  0  0  0  0  0  0
   44.9660   14.8320   46.1830 C   0  0  0  0  0  0  0  0  0  0  0  0
   46.1110   15.3640   46.3930 O   0  0  0  0  0  0  0  0  0  0  0  0
   44.9100   13.8120   45.1380 C   0  0  0  0  0  2  0  0  0  0  0  0
   45.8780   14.1090   43.9960 C   0  0  0  0  0  1  0  0  0  0  0  0
   43.5060    8.7930   45.2870 C   0  0  0  0  0  0  0  0  0  0  0  0
   43.1060    8.0140   46.1870 O   0  0  0  0  0  0  0  0  0  0  0  0
   44.5180    8.3930   44.3340 N   0  0  0  0  0  0  0  0  0  0  0  0
   44.7780    9.1060   43.6490 H   0  0  0  0  0  0  0  0  0  0  0  0
   45.0440    7.0830   44.4540 C   0  0  0  0  0  2  0  0  0  0  0  0
   45.1270    6.2290   43.2460 C   0  0  0  0  0  2  0  0  0  0  0  0
   46.3920    5.9830   42.6580 N   0  0  0  0  0  0  0  0  0  0  0  0
   46.4940    4.9790   41.7030 C   0  0  0  0  0  2  0  0  0  0  0  0
   47.3300    3.7860   42.0670 C   0  0  0  0  0  2  0  0  0  0  0  0
   48.4780    4.1320   42.7640 O   0  0  0  0  0  0  0  0  0  0  0  0
   48.0540    4.7050   43.9630 C   0  0  0  0  0  2  0  0  0  0  0  0
   47.4670    6.0540   43.6210 C   0  0  0  0  0  2  0  0  0  0  0  0
  1  2  1  0  0  0  0
  1  7  1  0  0  0  0
  3 24  1  6  0  0  0
  3  2  1  0  0  0  0
  4  3  1  0  0  0  0
  5  6  2  0  0  0  0
  5  4  1  0  0  0  0
  6  1  1  0  0  0  0
  7 10  1  0  0  0  0
  7  8  2  0  0  0  0
  9  7  2  0  0  0  0
 10 17  1  0  0  0  0
 11 10  2  0  0  0  0
 11 12  1  0  0  0  0
 12 14  1  0  0  0  0
 12 13  2  0  0  0  0
 13 15  1  0  0  0  0
 13 16  1  0  0  0  0
 14 19  1  0  0  0  0
 16 19  1  0  0  0  0
 17 18  1  0  0  0  0
 17 15  2  0  0  0  0
 20 21  2  0  0  0  0
 20 14  1  0  0  0  0
 22 20  1  0  0  0  0
 23 22  1  0  0  0  0
 24 25  2  0  0  0  0
 26 28  1  0  0  0  0
 26 24  1  0  0  0  0
 27 26  1  0  0  0  0
 29 28  1  0  0  0  0
 30 29  1  0  0  0  0
 30 35  1  0  0  0  0
 31 32  1  0  0  0  0
 31 30  1  0  0  0  0
 32 33  1  0  0  0  0
 33 34  1  0  0  0  0
 35 34  1  0  0  0  0
M  END
>  <Pose>
1

>  <Score>
-7.612

$$$$
