/Users/jonathanwahrer/Desktop/Msc/3_Semester/Drug_Design_Praktikum/waehrer_HTS_screening/HTS_experiment/out/docking_results/vina_output/2qfa/2349_docked.pdbqt
 OpenBabel03162221313D

 28 31  0  0  1  0  0  0  0  0999 V2000
   42.2200   12.9310   46.2660 N   0  0  0  0  0  0  0  0  0  0  0  0
   41.3340   13.6210   45.3720 C   0  0  0  0  0  0  0  0  0  0  0  0
   41.0370   14.8240   45.6190 O   0  0  0  0  0  0  0  0  0  0  0  0
   40.8510   12.8880   44.2600 N   0  0  0  0  0  2  0  0  0  0  0  0
   41.1290   11.6870   44.0030 C   0  0  0  0  0  0  0  0  0  0  0  0
   42.0190   10.7980   44.8260 C   0  0  1  0  0  0  0  0  0  0  0  0
   41.1010    9.7330   45.3580 C   0  0  0  0  0  2  0  0  0  0  0  0
   41.6780    8.4960   45.7170 N   0  0  0  0  0  4  0  0  0  0  0  0
   42.6880    8.0040   44.8570 C   0  0  0  0  0  0  0  0  0  0  0  0
   43.3430    8.8510   44.0220 C   0  0  0  0  0  0  0  0  0  0  0  0
   44.3320    8.3310   43.1910 C   0  0  0  0  0  3  0  0  0  0  0  0
   44.6230    6.9820   43.2290 C   0  0  0  0  0  0  0  0  0  0  0  0
   43.9530    6.1180   44.0810 C   0  0  0  0  0  3  0  0  0  0  0  0
   42.9660    6.6530   44.9070 C   0  0  0  0  0  3  0  0  0  0  0  0
   45.6730    6.3900   42.3400 C   0  0  0  0  0  1  0  0  0  0  0  0
   43.0890   10.3050   43.9290 C   0  0  0  0  0  2  0  0  0  0  0  0
   42.1180    8.3890   47.1000 C   0  0  0  0  0  1  0  0  0  0  0  0
   42.5500   11.5870   45.9640 C   0  0  0  0  0  0  0  0  0  0  0  0
   43.3880   11.0620   46.7830 O   0  0  0  0  0  0  0  0  0  0  0  0
   40.5930   11.0630   42.8610 O   0  0  0  0  0  0  0  0  0  0  0  0
   40.8990    7.7660   45.6460 H   0  0  0  0  0  0  0  0  0  0  0  0
   42.6740   13.6400   47.4010 C   0  0  0  0  0  0  0  0  0  0  0  0
   43.8190   14.4390   47.3570 C   0  0  0  0  0  3  0  0  0  0  0  0
   44.2750   15.1390   48.4400 C   0  0  0  0  0  3  0  0  0  0  0  0
   43.6140   15.0950   49.6690 C   0  0  0  0  0  0  0  0  0  0  0  0
   44.2100   16.0090   51.0410 Cl  0  0  0  0  0  0  0  0  0  0  0  0
   42.4820   14.3050   49.7150 C   0  0  0  0  0  3  0  0  0  0  0  0
   42.0260   13.6020   48.6250 C   0  0  0  0  0  3  0  0  0  0  0  0
  1 22  1  0  0  0  0
  2  3  2  0  0  0  0
  2  1  1  0  0  0  0
  4  2  1  0  0  0  0
  5  4  1  0  0  0  0
  5  6  1  0  0  0  0
  6 16  1  6  0  0  0
  6  7  1  0  0  0  0
  6 18  1  0  0  0  0
  7  8  1  0  0  0  0
  8 17  1  0  0  0  0
  9 14  1  0  0  0  0
  9  8  1  0  0  0  0
 10  9  2  0  0  0  0
 11 12  2  0  0  0  0
 11 10  1  0  0  0  0
 12 13  1  0  0  0  0
 13 14  2  0  0  0  0
 15 12  1  0  0  0  0
 16 10  1  0  0  0  0
 18  1  1  0  0  0  0
 18 19  2  0  0  0  0
 20  5  2  0  0  0  0
 21  8  1  0  0  0  0
 22 28  1  0  0  0  0
 23 22  2  0  0  0  0
 23 24  1  0  0  0  0
 24 25  2  0  0  0  0
 25 27  1  0  0  0  0
 25 26  1  0  0  0  0
 28 27  2  0  0  0  0
M  END
>  <Pose>
1

>  <Score>
-7.183

$$$$
