/Users/jonathanwahrer/Desktop/Msc/3_Semester/Drug_Design_Praktikum/waehrer_HTS_screening/HTS_experiment/out/docking_results/vina_output/2qfa/2350_docked.pdbqt
 OpenBabel03162221313D

 23 26  0  0  1  0  0  0  0  0999 V2000
   43.0450    8.2680   44.2560 N   0  0  0  0  0  0  0  0  0  0  0  0
   42.6580    8.7450   45.5550 C   0  0  0  0  0  0  0  0  0  0  0  0
   43.1080    8.2680   46.6270 O   0  0  0  0  0  0  0  0  0  0  0  0
   41.6750    9.8510   45.4380 C   0  0  1  0  0  3  0  0  0  0  0  0
   42.1770   11.1590   45.9570 C   0  0  1  0  0  3  0  0  0  0  0  0
   43.6770   11.1820   45.7520 C   0  0  1  0  0  3  0  0  0  0  0  0
   43.7750   11.1760   44.2280 C   0  0  1  0  0  3  0  0  0  0  0  0
   42.3570   11.2950   43.7190 C   0  0  1  0  0  3  0  0  0  0  0  0
   41.5480   10.0520   43.9230 C   0  0  1  0  0  3  0  0  0  0  0  0
   42.1410    8.8340   43.3200 C   0  0  0  0  0  0  0  0  0  0  0  0
   41.8640    8.4050   42.1730 O   0  0  0  0  0  0  0  0  0  0  0  0
   41.7750   12.1590   44.8600 C   0  0  0  0  0  2  0  0  0  0  0  0
   44.1170    7.4030   43.9090 C   0  0  0  0  0  0  0  0  0  0  0  0
   45.2960    7.9170   43.3560 C   0  0  0  0  0  3  0  0  0  0  0  0
   46.3330    7.0830   43.0110 C   0  0  0  0  0  3  0  0  0  0  0  0
   46.2510    5.7160   43.1960 C   0  0  0  0  0  0  0  0  0  0  0  0
   47.5950    4.6700   42.7410 Cl  0  0  0  0  0  0  0  0  0  0  0  0
   45.0930    5.1820   43.7420 C   0  0  0  0  0  3  0  0  0  0  0  0
   44.0720    6.0390   44.0790 C   0  0  0  0  0  3  0  0  0  0  0  0
   44.1460   12.4000   46.1950 O   0  0  0  0  0  0  0  0  0  0  0  0
   43.4710   13.1160   46.2400 H   0  0  0  0  0  0  0  0  0  0  0  0
   44.4450   12.3080   43.7680 O   0  0  0  0  0  0  0  0  0  0  0  0
   43.7780   12.8610   43.2610 H   0  0  0  0  0  0  0  0  0  0  0  0
  1  2  1  0  0  0  0
  2  3  2  0  0  0  0
  4  2  1  6  0  0  0
  4  5  1  0  0  0  0
  5 12  1  6  0  0  0
  6  5  1  0  0  0  0
  6 20  1  6  0  0  0
  7 22  1  1  0  0  0
  7  6  1  0  0  0  0
  8  9  1  0  0  0  0
  8  7  1  0  0  0  0
  8 12  1  1  0  0  0
  9 10  1  6  0  0  0
  9  4  1  0  0  0  0
 10  1  1  0  0  0  0
 11 10  2  0  0  0  0
 13 19  1  0  0  0  0
 13  1  1  0  0  0  0
 14 13  2  0  0  0  0
 15 16  2  0  0  0  0
 15 14  1  0  0  0  0
 16 18  1  0  0  0  0
 17 16  1  0  0  0  0
 18 19  2  0  0  0  0
 20 21  1  0  0  0  0
 23 22  1  0  0  0  0
M  END
>  <Pose>
1

>  <Score>
-7.213

$$$$
