/Users/jonathanwahrer/Desktop/Msc/3_Semester/Drug_Design_Praktikum/waehrer_HTS_screening/HTS_experiment/out/docking_results/vina_output/2qfa/2357_docked.pdbqt
 OpenBabel03162221323D

 36 39  0  0  1  0  0  0  0  0999 V2000
   42.8830   11.3140   46.0190 C   0  0  2  0  0  3  0  0  0  0  0  0
   42.7850   12.3450   45.2030 C   0  0  0  0  0  2  0  0  0  0  0  0
   43.8800   13.3110   45.4720 C   0  0  2  0  0  3  0  0  0  0  0  0
   44.8390   12.5120   46.1830 N   0  0  0  0  0  0  0  0  0  0  0  0
   44.0290   11.5620   46.8250 N   0  0  0  0  0  0  0  0  0  0  0  0
   45.4570   13.0260   46.8080 H   0  0  0  0  0  0  0  0  0  0  0  0
   44.2490   11.1220   47.7410 H   0  0  0  0  0  0  0  0  0  0  0  0
   41.9860   10.1090   46.0950 C   0  0  1  0  0  3  0  0  0  0  0  0
   40.8340   10.2660   45.1800 C   0  0  0  0  0  0  0  0  0  0  0  0
   40.9400    9.8430   43.8360 N   0  0  0  0  0  0  0  0  0  0  0  0
   39.7770   10.7720   45.6050 O   0  0  0  0  0  0  0  0  0  0  0  0
   41.9580    8.9700   43.4390 C   0  0  0  0  0  0  0  0  0  0  0  0
   40.2550   10.1710   43.0950 H   0  0  0  0  0  0  0  0  0  0  0  0
   42.9090    8.4860   44.3760 N   0  0  0  0  0  0  0  0  0  0  0  0
   42.0770    8.5700   42.2280 O   0  0  0  0  0  0  0  0  0  0  0  0
   42.7900    8.9200   45.7220 C   0  0  0  0  0  0  0  0  0  0  0  0
   43.3730    8.2890   46.6210 O   0  0  0  0  0  0  0  0  0  0  0  0
   43.9360    7.6000   43.9530 C   0  0  0  0  0  0  0  0  0  0  0  0
   45.0750    8.0850   43.3610 C   0  0  0  0  0  3  0  0  0  0  0  0
   46.0910    7.2500   42.9430 C   0  0  0  0  0  3  0  0  0  0  0  0
   45.9820    5.8930   43.1120 C   0  0  0  0  0  0  0  0  0  0  0  0
   47.2710    4.8040   42.5830 Cl  0  0  0  0  0  0  0  0  0  0  0  0
   44.8490    5.3850   43.7030 C   0  0  0  0  0  3  0  0  0  0  0  0
   43.8280    6.2480   44.1220 C   0  0  0  0  0  3  0  0  0  0  0  0
   43.3390   14.4340   46.2280 C   0  0  0  0  0  0  0  0  0  0  0  0
   44.2120   15.2260   46.9430 C   0  0  0  0  0  3  0  0  0  0  0  0
   43.7990   16.3130   47.6870 C   0  0  0  0  0  0  0  0  0  0  0  0
   42.4300   16.6070   47.7060 C   0  0  0  0  0  0  0  0  0  0  0  0
   41.5180   15.8440   47.0090 C   0  0  0  0  0  0  0  0  0  0  0  0
   42.0050   14.7730   46.2870 C   0  0  0  0  0  3  0  0  0  0  0  0
   44.6710   17.1180   48.4090 O   0  0  0  0  0  0  0  0  0  0  0  0
   45.6890   17.7710   47.6790 C   0  0  0  0  0  1  0  0  0  0  0  0
   41.9690   17.6810   48.4340 O   0  0  0  0  0  0  0  0  0  0  0  0
   41.6750   17.5500   49.3920 H   0  0  0  0  0  0  0  0  0  0  0  0
   40.1970   16.1720   47.0620 O   0  0  0  0  0  0  0  0  0  0  0  0
   39.2120   15.5530   47.8380 C   0  0  0  0  0  1  0  0  0  0  0  0
  1  2  1  6  0  0  0
  1  8  1  0  0  0  0
  1  5  1  0  0  0  0
  2  3  1  0  0  0  0
  3  4  1  0  0  0  0
  3 25  1  1  0  0  0
  4  6  1  0  0  0  0
  4  5  1  0  0  0  0
  5  7  1  0  0  0  0
  8  9  1  6  0  0  0
  9 11  2  0  0  0  0
 10  9  1  0  0  0  0
 12 10  1  0  0  0  0
 12 14  1  0  0  0  0
 13 10  1  0  0  0  0
 14 16  1  0  0  0  0
 15 12  2  0  0  0  0
 16  8  1  0  0  0  0
 16 17  2  0  0  0  0
 18 24  1  0  0  0  0
 18 14  1  0  0  0  0
 19 18  2  0  0  0  0
 20 21  2  0  0  0  0
 20 19  1  0  0  0  0
 21 23  1  0  0  0  0
 22 21  1  0  0  0  0
 23 24  2  0  0  0  0
 25 30  2  0  0  0  0
 25 26  1  0  0  0  0
 26 27  2  0  0  0  0
 27 28  1  0  0  0  0
 27 31  1  0  0  0  0
 28 33  1  0  0  0  0
 29 35  1  0  0  0  0
 29 28  2  0  0  0  0
 30 29  1  0  0  0  0
 32 31  1  0  0  0  0
 33 34  1  0  0  0  0
 35 36  1  0  0  0  0
M  END
>  <Pose>
1

>  <Score>
-8.105

$$$$
