/Users/jonathanwahrer/Desktop/Msc/3_Semester/Drug_Design_Praktikum/waehrer_HTS_screening/HTS_experiment/out/docking_results/vina_output/2qfa/2358_docked.pdbqt
 OpenBabel03162221323D

 34 37  0  0  1  0  0  0  0  0999 V2000
   43.6670   11.8590   46.3370 N   0  0  0  0  0  0  0  0  0  0  0  0
   43.9240   11.1480   47.5410 C   0  0  0  0  0  0  0  0  0  0  0  0
   44.9100   11.5070   48.2490 O   0  0  0  0  0  0  0  0  0  0  0  0
   43.1100   10.0690   47.9510 N   0  0  0  0  0  0  0  0  0  0  0  0
   42.0060    9.6620   47.1660 C   0  0  0  0  0  0  0  0  0  0  0  0
   41.1540    8.8110   47.6020 O   0  0  0  0  0  0  0  0  0  0  0  0
   41.7850   10.1940   45.8210 C   0  0  1  0  0  3  0  0  0  0  0  0
   42.5510   11.4220   45.5750 C   0  0  0  0  0  0  0  0  0  0  0  0
   42.2140   12.1840   44.6040 O   0  0  0  0  0  0  0  0  0  0  0  0
   43.3170    9.5550   48.8470 H   0  0  0  0  0  0  0  0  0  0  0  0
   42.0600    9.1420   44.7980 C   0  0  1  0  0  3  0  0  0  0  0  0
   42.6530    9.2750   43.6410 C   0  0  0  0  0  2  0  0  0  0  0  0
   42.6780    7.9350   43.0050 C   0  0  2  0  0  3  0  0  0  0  0  0
   41.6680    7.1890   43.7240 N   0  0  0  0  0  0  0  0  0  0  0  0
   41.6780    7.7850   44.9900 N   0  0  0  0  0  0  0  0  0  0  0  0
   40.7300    7.2730   43.2650 H   0  0  0  0  0  0  0  0  0  0  0  0
   41.4400    7.2740   45.8790 H   0  0  0  0  0  0  0  0  0  0  0  0
   44.0120    7.2960   43.1780 C   0  0  0  0  0  0  0  0  0  0  0  0
   45.1870    7.9680   42.9290 C   0  0  0  0  0  3  0  0  0  0  0  0
   46.4300    7.3840   43.0840 C   0  0  0  0  0  0  0  0  0  0  0  0
   46.5280    6.0780   43.5060 C   0  0  0  0  0  0  0  0  0  0  0  0
   45.3670    5.3900   43.7600 C   0  0  0  0  0  3  0  0  0  0  0  0
   44.1330    5.9810   43.6010 C   0  0  0  0  0  3  0  0  0  0  0  0
   47.5750    8.1110   42.8180 O   0  0  0  0  0  0  0  0  0  0  0  0
   47.6140    9.0980   42.9780 H   0  0  0  0  0  0  0  0  0  0  0  0
   47.7590    5.4750   43.6680 O   0  0  0  0  0  0  0  0  0  0  0  0
   48.0280    4.2530   43.0190 C   0  0  0  0  0  1  0  0  0  0  0  0
   44.4660   12.9500   45.9010 C   0  0  0  0  0  0  0  0  0  0  0  0
   44.6930   14.0650   46.7000 C   0  0  0  0  0  3  0  0  0  0  0  0
   45.4580   15.1130   46.2870 C   0  0  0  0  0  3  0  0  0  0  0  0
   46.0390   15.0840   45.0280 C   0  0  0  0  0  0  0  0  0  0  0  0
   47.0320   16.4140   44.4590 Cl  0  0  0  0  0  0  0  0  0  0  0  0
   45.8340   13.9880   44.2050 C   0  0  0  0  0  3  0  0  0  0  0  0
   45.0450   12.9260   44.6520 C   0  0  0  0  0  3  0  0  0  0  0  0
  1  2  1  0  0  0  0
  2  4  1  0  0  0  0
  2  3  2  0  0  0  0
  4 10  1  0  0  0  0
  5  6  2  0  0  0  0
  5  4  1  0  0  0  0
  7  8  1  6  0  0  0
  7  5  1  0  0  0  0
  8  1  1  0  0  0  0
  9  8  2  0  0  0  0
 11 12  1  1  0  0  0
 11 15  1  0  0  0  0
 11  7  1  0  0  0  0
 13 18  1  1  0  0  0
 13 12  1  0  0  0  0
 13 14  1  0  0  0  0
 14 15  1  0  0  0  0
 15 17  1  0  0  0  0
 16 14  1  0  0  0  0
 18 23  1  0  0  0  0
 19 20  1  0  0  0  0
 19 18  2  0  0  0  0
 20 21  2  0  0  0  0
 21 26  1  0  0  0  0
 21 22  1  0  0  0  0
 23 22  2  0  0  0  0
 24 25  1  0  0  0  0
 24 20  1  0  0  0  0
 27 26  1  0  0  0  0
 28  1  1  0  0  0  0
 28 29  1  0  0  0  0
 30 29  2  0  0  0  0
 31 30  1  0  0  0  0
 32 31  1  0  0  0  0
 33 34  1  0  0  0  0
 33 31  2  0  0  0  0
 34 28  2  0  0  0  0
M  END
>  <Pose>
1

>  <Score>
-8.872

$$$$
