/Users/jonathanwahrer/Desktop/Msc/3_Semester/Drug_Design_Praktikum/waehrer_HTS_screening/HTS_experiment/out/docking_results/vina_output/2qfa/2359_docked.pdbqt
 OpenBabel03162221323D

 32 35  0  0  1  0  0  0  0  0999 V2000
   42.1090   12.5330   45.6280 N   0  0  0  0  0  0  0  0  0  0  0  0
   40.9530   13.0920   44.9840 C   0  0  0  0  0  0  0  0  0  0  0  0
   40.6290   14.3090   45.1450 O   0  0  0  0  0  0  0  0  0  0  0  0
   40.1940   12.2160   44.1630 N   0  0  0  0  0  0  0  0  0  0  0  0
   40.5860   10.8350   43.9980 C   0  0  0  0  0  0  0  0  0  0  0  0
   40.1950   10.2640   42.9720 O   0  0  0  0  0  0  0  0  0  0  0  0
   41.3990   10.2000   45.0170 C   0  0  2  0  0  3  0  0  0  0  0  0
   42.4540   11.1710   45.4340 C   0  0  0  0  0  0  0  0  0  0  0  0
   43.6560   10.8570   45.6310 O   0  0  0  0  0  0  0  0  0  0  0  0
   39.3570   12.6000   43.6900 H   0  0  0  0  0  0  0  0  0  0  0  0
   41.9210    8.8810   44.7430 C   0  0  2  0  0  3  0  0  0  0  0  0
   42.5780    8.4490   43.6900 C   0  0  0  0  0  2  0  0  0  0  0  0
   42.9290    7.0140   43.8250 C   0  0  2  0  0  3  0  0  0  0  0  0
   42.6250    6.7410   45.2100 N   0  0  0  0  0  0  0  0  0  0  0  0
   41.7810    7.7610   45.6420 N   0  0  0  0  0  0  0  0  0  0  0  0
   43.4780    6.6320   45.8000 H   0  0  0  0  0  0  0  0  0  0  0  0
   41.1720    7.6700   46.4830 H   0  0  0  0  0  0  0  0  0  0  0  0
   44.3570    6.7470   43.6180 C   0  0  0  0  0  0  0  0  0  0  0  0
   44.8050    5.4420   43.7530 C   0  0  0  0  0  3  0  0  0  0  0  0
   46.1370    5.1570   43.5650 C   0  0  0  0  0  0  0  0  0  0  0  0
   47.0470    6.1370   43.2440 C   0  0  0  0  0  3  0  0  0  0  0  0
   46.6190    7.4370   43.1070 C   0  0  0  0  0  3  0  0  0  0  0  0
   45.2670    7.7220   43.2990 C   0  0  0  0  0  3  0  0  0  0  0  0
   46.6010    3.8420   43.6970 O   0  0  0  0  0  0  0  0  0  0  0  0
   47.5820    3.6550   43.5840 H   0  0  0  0  0  0  0  0  0  0  0  0
   42.8850   13.4190   46.4660 C   0  0  0  0  0  0  0  0  0  0  0  0
   43.8850   14.2180   45.9450 C   0  0  0  0  0  3  0  0  0  0  0  0
   44.6460   15.0730   46.7210 C   0  0  0  0  0  3  0  0  0  0  0  0
   44.4070   15.1430   48.0860 C   0  0  0  0  0  0  0  0  0  0  0  0
   45.3810   16.2270   49.0360 Cl  0  0  0  0  0  0  0  0  0  0  0  0
   43.4040   14.3470   48.6340 C   0  0  0  0  0  3  0  0  0  0  0  0
   42.6630   13.5030   47.8270 C   0  0  0  0  0  3  0  0  0  0  0  0
  1 26  1  0  0  0  0
  2  3  2  0  0  0  0
  2  1  1  0  0  0  0
  4  2  1  0  0  0  0
  5  4  1  0  0  0  0
  6  5  2  0  0  0  0
  7  5  1  6  0  0  0
  7  8  1  0  0  0  0
  8  1  1  0  0  0  0
  8  9  2  0  0  0  0
 10  4  1  0  0  0  0
 11 12  1  6  0  0  0
 11  7  1  0  0  0  0
 11 15  1  0  0  0  0
 12 13  1  0  0  0  0
 13 18  1  1  0  0  0
 13 14  1  0  0  0  0
 14 15  1  0  0  0  0
 14 16  1  0  0  0  0
 15 17  1  0  0  0  0
 18 19  1  0  0  0  0
 20 24  1  0  0  0  0
 20 19  2  0  0  0  0
 21 20  1  0  0  0  0
 22 21  2  0  0  0  0
 22 23  1  0  0  0  0
 23 18  2  0  0  0  0
 25 24  1  0  0  0  0
 26 32  1  0  0  0  0
 27 26  2  0  0  0  0
 27 28  1  0  0  0  0
 28 29  2  0  0  0  0
 29 31  1  0  0  0  0
 29 30  1  0  0  0  0
 32 31  2  0  0  0  0
M  END
>  <Pose>
1

>  <Score>
-8.431

$$$$
