/Users/jonathanwahrer/Desktop/Msc/3_Semester/Drug_Design_Praktikum/waehrer_HTS_screening/HTS_experiment/out/docking_results/vina_output/2qfa/2363_docked.pdbqt
 OpenBabel03162221333D

 33 36  0  0  1  0  0  0  0  0999 V2000
   42.5360    9.7470   43.9360 N   0  0  0  0  0  0  0  0  0  0  0  0
   42.7180   10.6230   45.0380 C   0  0  2  0  0  0  0  0  0  0  0  0
   41.8180   11.7670   45.0600 C   0  0  0  0  0  0  0  0  0  0  0  0
   40.9360   12.0310   44.0560 C   0  0  0  0  0  0  0  0  0  0  0  0
   40.1110   13.1680   44.1340 C   0  0  0  0  0  3  0  0  0  0  0  0
   40.1470   14.0430   45.1910 C   0  0  0  0  0  3  0  0  0  0  0  0
   41.0490   13.7580   46.2030 C   0  0  0  0  0  3  0  0  0  0  0  0
   41.8480   12.6630   46.1340 C   0  0  0  0  0  3  0  0  0  0  0  0
   40.7960   11.1680   42.9160 N   0  0  0  0  0  0  0  0  0  0  0  0
   41.6300   10.0260   42.9020 C   0  0  0  0  0  0  0  0  0  0  0  0
   41.5680    9.2120   41.9250 O   0  0  0  0  0  0  0  0  0  0  0  0
   40.1170   11.4030   42.1700 H   0  0  0  0  0  0  0  0  0  0  0  0
   44.0490   11.1440   44.8590 O   0  0  0  0  0  0  0  0  0  0  0  0
   44.6950   10.3910   44.8210 H   0  0  0  0  0  0  0  0  0  0  0  0
   42.7550    9.9020   46.3360 C   0  0  0  0  0  0  0  0  0  0  0  0
   41.7480    9.3270   46.7530 O   0  0  0  0  0  0  0  0  0  0  0  0
   43.9640    9.9010   47.0550 N   0  0  0  0  0  0  0  0  0  0  0  0
   44.8340   10.3910   46.7050 H   0  0  0  0  0  0  0  0  0  0  0  0
   44.1130    9.2220   48.3430 C   0  0  0  0  0  2  0  0  0  0  0  0
   44.7420   10.0820   49.3720 C   0  0  0  0  0  2  0  0  0  0  0  0
   46.1470   10.2190   49.3370 N   0  0  0  0  0  0  0  0  0  0  0  0
   46.7380   11.3140   49.9880 C   0  0  0  0  0  2  0  0  0  0  0  0
   48.2520   11.0900   50.0430 C   0  0  0  0  0  2  0  0  0  0  0  0
   48.6860   10.4120   48.8900 O   0  0  0  0  0  0  0  0  0  0  0  0
   48.2720    9.0820   48.9000 C   0  0  0  0  0  2  0  0  0  0  0  0
   46.8940    9.0180   49.5000 C   0  0  0  0  0  2  0  0  0  0  0  0
   43.3110    8.5010   43.8670 C   0  0  0  0  0  0  0  0  0  0  0  0
   42.7950    7.3100   44.3030 C   0  0  0  0  0  3  0  0  0  0  0  0
   43.5410    6.1370   44.2320 C   0  0  0  0  0  3  0  0  0  0  0  0
   44.8160    6.1790   43.7140 C   0  0  0  0  0  0  0  0  0  0  0  0
   45.7570    4.6850   43.6270 Cl  0  0  0  0  0  0  0  0  0  0  0  0
   45.3590    7.3640   43.2680 C   0  0  0  0  0  3  0  0  0  0  0  0
   44.5900    8.5110   43.3540 C   0  0  0  0  0  3  0  0  0  0  0  0
  1  2  1  0  0  0  0
  2 13  1  6  0  0  0
  2  3  1  0  0  0  0
  2 15  1  0  0  0  0
  3  8  1  0  0  0  0
  4  5  1  0  0  0  0
  4  3  2  0  0  0  0
  5  6  2  0  0  0  0
  6  7  1  0  0  0  0
  8  7  2  0  0  0  0
  9  4  1  0  0  0  0
 10  9  1  0  0  0  0
 10  1  1  0  0  0  0
 11 10  2  0  0  0  0
 12  9  1  0  0  0  0
 14 13  1  0  0  0  0
 15 16  2  0  0  0  0
 15 17  1  0  0  0  0
 17 19  1  0  0  0  0
 18 17  1  0  0  0  0
 19 20  1  0  0  0  0
 21 20  1  0  0  0  0
 21 26  1  0  0  0  0
 21 22  1  0  0  0  0
 22 23  1  0  0  0  0
 24 25  1  0  0  0  0
 24 23  1  0  0  0  0
 25 26  1  0  0  0  0
 27  1  1  0  0  0  0
 27 28  1  0  0  0  0
 29 28  2  0  0  0  0
 30 29  1  0  0  0  0
 31 30  1  0  0  0  0
 32 33  1  0  0  0  0
 32 30  2  0  0  0  0
 33 27  2  0  0  0  0
M  END
>  <Pose>
1

>  <Score>
-7.083

$$$$
