/Users/jonathanwahrer/Desktop/Msc/3_Semester/Drug_Design_Praktikum/waehrer_HTS_screening/HTS_experiment/out/docking_results/vina_output/2qfa/2373_docked.pdbqt
 OpenBabel03162221343D

 28 31  0  0  1  0  0  0  0  0999 V2000
   42.1650   10.1490   45.0340 N   0  0  0  0  0  0  0  0  0  0  0  0
   41.2250   11.0780   45.0510 C   0  0  2  0  0  3  0  0  0  0  0  0
   41.7700   12.3190   45.1630 N   0  0  0  0  0  0  0  0  0  0  0  0
   43.0760   12.1790   45.2240 C   0  0  0  0  0  0  0  0  0  0  0  0
   43.3260   10.7930   45.1380 C   0  0  0  0  0  3  0  0  0  0  0  0
   41.0010   13.5310   45.1590 C   0  0  0  0  0  2  0  0  0  0  0  0
   40.2850   13.7120   46.4950 C   0  0  0  0  0  2  0  0  0  0  0  0
   39.8950   12.2930   46.9230 C   0  0  0  0  0  2  0  0  0  0  0  0
   38.9820   11.7270   45.8710 C   0  0  0  0  0  2  0  0  0  0  0  0
   39.7680   10.7520   44.9800 C   0  0  0  0  0  2  0  0  0  0  0  0
   42.0810    8.6880   44.9340 C   0  0  0  0  0  2  0  0  0  0  0  0
   42.6680    8.2810   43.6400 C   0  0  0  0  0  0  0  0  0  0  0  0
   42.0400    8.6220   42.5830 O   0  0  0  0  0  0  0  0  0  0  0  0
   43.8960    7.5270   43.5110 C   0  0  0  0  0  0  0  0  0  0  0  0
   43.8900    6.1690   43.8480 C   0  0  0  0  0  3  0  0  0  0  0  0
   45.0250    5.4030   43.7520 C   0  0  0  0  0  3  0  0  0  0  0  0
   46.2160    5.9320   43.3210 C   0  0  0  0  0  0  0  0  0  0  0  0
   47.6930    5.0150   43.1760 Cl  0  0  0  0  0  0  0  0  0  0  0  0
   46.2120    7.2770   42.9900 C   0  0  0  0  0  3  0  0  0  0  0  0
   45.0790    8.0540   43.0840 C   0  0  0  0  0  3  0  0  0  0  0  0
   44.1410   13.1810   45.3260 C   0  0  0  0  0  0  0  0  0  0  0  0
   44.2970   14.0860   46.3260 C   0  0  0  0  0  3  0  0  0  0  0  0
   45.2940   15.0600   46.3290 C   0  0  0  0  0  3  0  0  0  0  0  0
   46.1830   15.1440   45.2930 C   0  0  0  0  0  0  0  0  0  0  0  0
   46.0540   14.2410   44.2660 C   0  0  0  0  0  3  0  0  0  0  0  0
   45.0620   13.2850   44.2780 C   0  0  0  0  0  3  0  0  0  0  0  0
   47.1980   16.1160   45.2700 O   0  0  0  0  0  0  0  0  0  0  0  0
   47.7110   16.6480   44.0790 C   0  0  0  0  0  1  0  0  0  0  0  0
  1  2  1  0  0  0  0
  1  5  1  0  0  0  0
  2 10  1  1  0  0  0
  2  3  1  0  0  0  0
  3  4  1  0  0  0  0
  4 21  1  0  0  0  0
  5  4  2  0  0  0  0
  6  3  1  0  0  0  0
  6  7  1  0  0  0  0
  7  8  1  0  0  0  0
  9  8  1  0  0  0  0
 10  9  1  0  0  0  0
 11  1  1  0  0  0  0
 12 11  1  0  0  0  0
 13 12  2  0  0  0  0
 14 12  1  0  0  0  0
 14 15  1  0  0  0  0
 16 15  2  0  0  0  0
 17 16  1  0  0  0  0
 18 17  1  0  0  0  0
 19 20  1  0  0  0  0
 19 17  2  0  0  0  0
 20 14  2  0  0  0  0
 21 22  1  0  0  0  0
 22 23  2  0  0  0  0
 24 23  1  0  0  0  0
 25 26  1  0  0  0  0
 25 24  2  0  0  0  0
 26 21  2  0  0  0  0
 27 24  1  0  0  0  0
 28 27  1  0  0  0  0
M  END
>  <Pose>
1

>  <Score>
-8.219

$$$$
