/Users/jonathanwahrer/Desktop/Msc/3_Semester/Drug_Design_Praktikum/waehrer_HTS_screening/HTS_experiment/out/docking_results/vina_output/2qfa/2375_docked.pdbqt
 OpenBabel03162221353D

 37 40  0  0  1  0  0  0  0  0999 V2000
   40.0780   12.5530   46.6120 C   0  0  0  0  0  0  0  0  0  0  0  0
   38.9170   12.6490   47.4470 C   0  0  0  0  0  1  0  0  0  0  0  0
   39.8920   12.1160   45.1660 C   0  0  0  0  0  0  0  0  0  0  0  0
   40.5870   10.9870   44.6700 N   0  0  0  0  0  0  0  0  0  0  0  0
   40.8010   10.6530   43.3000 C   0  0  0  0  0  3  0  0  0  0  0  0
   40.8760    9.8850   45.6090 C   0  0  0  0  0  2  0  0  0  0  0  0
   42.0940    9.9390   42.9940 C   0  0  0  0  0  3  0  0  0  0  0  0
   42.9190    9.5110   44.1330 C   0  0  1  0  0  0  0  0  0  0  0  0
   42.2080    9.3370   45.4530 C   0  0  0  0  0  2  0  0  0  0  0  0
   39.1270   12.7570   44.4490 O   0  0  0  0  0  0  0  0  0  0  0  0
   43.6380    8.2350   43.9160 C   0  0  0  0  0  0  0  0  0  0  0  0
   44.8470    8.3210   43.2420 C   0  0  0  0  0  3  0  0  0  0  0  0
   45.6400    7.1890   42.9990 C   0  0  0  0  0  3  0  0  0  0  0  0
   45.2230    5.9530   43.4370 C   0  0  0  0  0  0  0  0  0  0  0  0
   46.2250    4.5090   43.1550 Cl  0  0  0  0  0  0  0  0  0  0  0  0
   44.0170    5.8680   44.1110 C   0  0  0  0  0  3  0  0  0  0  0  0
   43.2490    7.0040   44.3350 C   0  0  0  0  0  3  0  0  0  0  0  0
   43.9190   10.5120   44.3220 O   0  0  0  0  0  0  0  0  0  0  0  0
   44.3020   10.4680   45.2140 H   0  0  0  0  0  0  0  0  0  0  0  0
   41.1740   13.4900   46.6940 N   0  0  0  0  0  4  0  0  0  0  0  0
   42.3180   13.3210   47.4720 C   0  0  0  0  0  0  0  0  0  0  0  0
   42.2070   12.1530   48.2000 O   0  0  0  0  0  0  0  0  0  0  0  0
   43.5320   13.9430   47.7180 C   0  0  0  0  0  2  0  0  0  0  0  0
   40.9560   14.3730   46.1190 H   0  0  0  0  0  0  0  0  0  0  0  0
   44.4030   14.8630   47.4270 C   0  0  1  0  0  3  0  0  0  0  0  0
   44.7480   15.8680   48.4420 N   0  0  0  0  0  0  0  0  0  0  0  0
   45.7250   16.8260   48.2580 N   0  0  0  0  0  0  0  0  0  0  0  0
   44.1960   15.8140   49.3410 H   0  0  0  0  0  0  0  0  0  0  0  0
   46.4620   16.9130   47.0870 C   0  0  0  0  0  0  0  0  0  0  0  0
   45.9200   17.5190   49.0320 H   0  0  0  0  0  0  0  0  0  0  0  0
   47.3550   17.7710   46.8740 O   0  0  0  0  0  0  0  0  0  0  0  0
   46.1850   15.9400   46.0030 C   0  0  0  0  0  0  0  0  0  0  0  0
   45.2070   15.0010   46.2290 C   0  0  0  0  0  0  0  0  0  0  0  0
   46.9690   15.9790   44.8750 C   0  0  0  0  0  3  0  0  0  0  0  0
   45.0520   14.0440   45.2200 C   0  0  0  0  0  3  0  0  0  0  0  0
   45.8350   14.0700   44.0750 C   0  0  0  0  0  3  0  0  0  0  0  0
   46.7930   15.0320   43.8890 C   0  0  0  0  0  3  0  0  0  0  0  0
  1 20  2  3  0  0  0
  1  2  1  0  0  0  0
  3  1  1  0  0  0  0
  4  3  1  0  0  0  0
  4  6  1  0  0  0  0
  5  4  1  0  0  0  0
  7  5  2  0  0  0  0
  7  8  1  0  0  0  0
  8 18  1  1  0  0  0
  8  9  1  0  0  0  0
  9  6  1  0  0  0  0
 10  3  2  0  0  0  0
 11  8  1  0  0  0  0
 11 17  1  0  0  0  0
 12 11  2  0  0  0  0
 13 12  1  0  0  0  0
 13 14  2  0  0  0  0
 14 16  1  0  0  0  0
 15 14  1  0  0  0  0
 16 17  2  0  0  0  0
 18 19  1  0  0  0  0
 20 21  1  0  0  0  0
 21 23  1  0  0  0  0
 21 22  2  0  0  0  0
 24 20  1  0  0  0  0
 25 23  1  1  0  0  0
 25 26  1  0  0  0  0
 26 28  1  0  0  0  0
 27 26  1  0  0  0  0
 27 30  1  0  0  0  0
 29 27  1  0  0  0  0
 31 29  2  0  0  0  0
 32 33  1  0  0  0  0
 32 29  1  0  0  0  0
 33 25  1  0  0  0  0
 34 32  2  0  0  0  0
 35 33  2  0  0  0  0
 36 35  1  0  0  0  0
 37 36  2  0  0  0  0
 37 34  1  0  0  0  0
M  END
>  <Pose>
1

>  <Score>
-9.040

$$$$
