/Users/jonathanwahrer/Desktop/Msc/3_Semester/Drug_Design_Praktikum/waehrer_HTS_screening/HTS_experiment/out/docking_results/vina_output/2qfa/2377_docked.pdbqt
 OpenBabel03162221353D

 33 36  0  0  0  0  0  0  0  0999 V2000
   40.4460   10.3030   46.4370 N   0  0  0  0  0  0  0  0  0  0  0  0
   40.5880   10.6870   47.8380 C   0  0  0  0  0  2  0  0  0  0  0  0
   40.5190   12.1860   48.0250 C   0  0  0  0  0  2  0  0  0  0  0  0
   39.9140   12.7530   46.8440 N   0  0  0  0  0  0  0  0  0  0  0  0
   38.7460   12.0550   46.3360 C   0  0  0  0  0  2  0  0  0  0  0  0
   39.2470   10.7520   45.7150 C   0  0  0  0  0  2  0  0  0  0  0  0
   40.3850   13.9080   46.1880 C   0  0  0  0  0  0  0  0  0  0  0  0
   39.7850   14.3160   45.1700 O   0  0  0  0  0  0  0  0  0  0  0  0
   41.4570    9.5570   45.8030 C   0  0  0  0  0  0  0  0  0  0  0  0
   42.0830    9.9490   44.6390 C   0  0  0  0  0  0  0  0  0  0  0  0
   41.5470   11.4230   43.8750 Cl  0  0  0  0  0  0  0  0  0  0  0  0
   43.1060    9.1770   44.0810 C   0  0  0  0  0  0  0  0  0  0  0  0
   43.5320    8.0330   44.6300 N   0  0  0  0  0  0  0  0  0  0  0  0
   43.6290    9.5990   43.0190 O   0  0  0  0  0  0  0  0  0  0  0  0
   42.9290    7.6650   45.7410 N   0  0  0  0  0  0  0  0  0  0  0  0
   41.9390    8.3540   46.3380 C   0  0  0  0  0  3  0  0  0  0  0  0
   44.5730    7.2410   44.0650 C   0  0  0  0  0  0  0  0  0  0  0  0
   45.7830    7.7900   43.6680 C   0  0  0  0  0  3  0  0  0  0  0  0
   46.8020    7.0380   43.1200 C   0  0  0  0  0  3  0  0  0  0  0  0
   46.5990    5.6820   42.9640 C   0  0  0  0  0  3  0  0  0  0  0  0
   45.4040    5.1020   43.3490 C   0  0  0  0  0  3  0  0  0  0  0  0
   44.3900    5.8920   43.9020 C   0  0  0  0  0  3  0  0  0  0  0  0
   41.5690   14.6780   46.6420 C   0  0  0  0  0  2  0  0  0  0  0  0
   42.8240   14.1840   45.9600 C   0  0  0  0  0  2  0  0  0  0  0  0
   44.0180   14.2130   46.8670 C   0  0  0  0  0  2  0  0  0  0  0  0
   45.0260   15.1750   46.4800 N   0  0  0  0  0  0  0  0  0  0  0  0
   45.8360   15.1150   45.3200 C   0  0  0  0  0  0  0  0  0  0  0  0
   45.8150   14.2040   44.4250 O   0  0  0  0  0  0  0  0  0  0  0  0
   46.7130   16.2180   45.2480 N   0  0  0  0  0  0  0  0  0  0  0  0
   46.4930   17.0480   46.4120 C   0  0  0  0  0  2  0  0  0  0  0  0
   47.6720   16.4890   44.1960 C   0  0  0  0  0  1  0  0  0  0  0  0
   45.4140   16.3710   47.1650 C   0  0  0  0  0  0  0  0  0  0  0  0
   44.9110   16.7710   48.2360 O   0  0  0  0  0  0  0  0  0  0  0  0
  1  2  1  0  0  0  0
  2  3  1  0  0  0  0
  4  3  1  0  0  0  0
  5  4  1  0  0  0  0
  6  5  1  0  0  0  0
  6  1  1  0  0  0  0
  7 23  1  0  0  0  0
  7  4  1  0  0  0  0
  8  7  2  0  0  0  0
  9 16  1  0  0  0  0
  9  1  1  0  0  0  0
 10  9  2  0  0  0  0
 11 10  1  0  0  0  0
 12 13  1  0  0  0  0
 12 10  1  0  0  0  0
 13 15  1  0  0  0  0
 14 12  2  0  0  0  0
 15 16  2  0  0  0  0
 17 13  1  0  0  0  0
 18 17  2  0  0  0  0
 19 18  1  0  0  0  0
 20 19  2  0  0  0  0
 20 21  1  0  0  0  0
 21 22  2  0  0  0  0
 22 17  1  0  0  0  0
 24 23  1  0  0  0  0
 24 25  1  0  0  0  0
 26 25  1  0  0  0  0
 26 32  1  0  0  0  0
 27 26  1  0  0  0  0
 28 27  2  0  0  0  0
 29 27  1  0  0  0  0
 29 30  1  0  0  0  0
 30 32  1  0  0  0  0
 31 29  1  0  0  0  0
 32 33  2  0  0  0  0
M  END
>  <Pose>
1

>  <Score>
-7.843

$$$$
