/Users/jonathanwahrer/Desktop/Msc/3_Semester/Drug_Design_Praktikum/waehrer_HTS_screening/HTS_experiment/out/docking_results/vina_output/2qfa/2380_docked.pdbqt
 OpenBabel03162221363D

 27 30  0  0  1  0  0  0  0  0999 V2000
   41.3170    8.1590   46.3300 Cl  0  0  0  0  0  0  0  0  0  0  0  0
   42.5360    8.5840   45.1320 C   0  0  0  0  0  0  0  0  0  0  0  0
   42.5210    9.8630   44.6310 C   0  0  0  0  0  0  0  0  0  0  0  0
   43.4930   10.1650   43.6900 C   0  0  0  0  0  3  0  0  0  0  0  0
   44.3820    9.2290   43.3160 N   0  0  0  0  0  0  0  0  0  0  0  0
   44.4080    7.9950   43.7900 N   0  0  0  0  0  0  0  0  0  0  0  0
   43.4780    7.6690   44.7050 C   0  0  0  0  0  0  0  0  0  0  0  0
   43.4420    6.5080   45.2030 O   0  0  0  0  0  0  0  0  0  0  0  0
   41.5490   10.7830   45.0800 N   0  0  0  0  0  0  0  0  0  0  0  0
   41.8420   11.7590   46.1240 C   0  0  0  0  0  2  0  0  0  0  0  0
   40.9830   11.3210   47.3260 C   0  0  0  0  0  2  0  0  0  0  0  0
   39.6170   11.1700   46.9320 N   0  0  0  0  0  0  0  0  0  0  0  0
   39.2740   11.5420   45.5440 C   0  0  0  0  0  2  0  0  0  0  0  0
   38.5980   10.6920   47.7970 C   0  0  0  0  0  0  0  0  0  0  0  0
   40.1950   10.8480   44.5610 C   0  0  0  0  0  2  0  0  0  0  0  0
   37.3990   10.5740   47.4020 O   0  0  0  0  0  0  0  0  0  0  0  0
   38.8540   10.3030   49.1950 C   0  0  1  0  0  3  0  0  0  0  0  0
   37.8150   10.6560   50.0010 O   0  0  0  0  0  0  0  0  0  0  0  0
   37.7230    9.7250   51.0280 C   0  0  0  0  0  2  0  0  0  0  0  0
   37.9360    8.4250   50.2660 C   0  0  0  0  0  2  0  0  0  0  0  0
   39.0730    8.8150   49.3450 C   0  0  0  0  0  2  0  0  0  0  0  0
   45.3850    7.0400   43.3490 C   0  0  0  0  0  0  0  0  0  0  0  0
   46.5590    6.8700   44.0550 C   0  0  0  0  0  3  0  0  0  0  0  0
   47.5190    5.9440   43.6380 C   0  0  0  0  0  3  0  0  0  0  0  0
   47.3080    5.1870   42.5140 C   0  0  0  0  0  3  0  0  0  0  0  0
   46.1460    5.3460   41.8020 C   0  0  0  0  0  3  0  0  0  0  0  0
   45.2120    6.2600   42.2250 C   0  0  0  0  0  3  0  0  0  0  0  0
  2  1  1  0  0  0  0
  3  9  1  0  0  0  0
  3  2  2  0  0  0  0
  4  3  1  0  0  0  0
  5  4  2  0  0  0  0
  5  6  1  0  0  0  0
  6  7  1  0  0  0  0
  7  2  1  0  0  0  0
  7  8  2  0  0  0  0
  9 10  1  0  0  0  0
 10 11  1  0  0  0  0
 12 11  1  0  0  0  0
 12 14  1  0  0  0  0
 13 12  1  0  0  0  0
 15  9  1  0  0  0  0
 15 13  1  0  0  0  0
 16 14  2  0  0  0  0
 17 14  1  6  0  0  0
 17 21  1  0  0  0  0
 17 18  1  0  0  0  0
 18 19  1  0  0  0  0
 20 19  1  0  0  0  0
 21 20  1  0  0  0  0
 22  6  1  0  0  0  0
 22 23  1  0  0  0  0
 24 23  2  0  0  0  0
 25 24  1  0  0  0  0
 26 27  1  0  0  0  0
 26 25  2  0  0  0  0
 27 22  2  0  0  0  0
M  END
>  <Pose>
1

>  <Score>
-6.859

$$$$
