/Users/jonathanwahrer/Desktop/Msc/3_Semester/Drug_Design_Praktikum/waehrer_HTS_screening/HTS_experiment/out/docking_results/vina_output/2qfa/2386_docked.pdbqt
 OpenBabel03162221363D

 30 33  0  0  0  0  0  0  0  0999 V2000
   45.8060   14.4120   44.4030 Cl  0  0  0  0  0  0  0  0  0  0  0  0
   44.7800   13.1970   45.1600 C   0  0  0  0  0  0  0  0  0  0  0  0
   44.2570   12.2040   44.3350 C   0  0  0  0  0  3  0  0  0  0  0  0
   43.4530   11.2480   44.9120 C   0  0  0  0  0  0  0  0  0  0  0  0
   43.1830   11.2860   46.2740 C   0  0  0  0  0  0  0  0  0  0  0  0
   43.7100   12.2800   47.0900 C   0  0  0  0  0  3  0  0  0  0  0  0
   44.5170   13.2410   46.5090 C   0  0  0  0  0  3  0  0  0  0  0  0
   42.3860   10.3620   46.9270 O   0  0  0  0  0  0  0  0  0  0  0  0
   41.3150    9.5990   46.4440 C   0  0  0  0  0  0  0  0  0  0  0  0
   41.6250    8.6680   45.3290 C   0  0  0  0  0  2  0  0  0  0  0  0
   42.7640    8.9810   44.5280 N   0  0  0  0  0  0  0  0  0  0  0  0
   42.9940   10.2790   43.8810 C   0  0  0  0  0  2  0  0  0  0  0  0
   43.7540    7.9820   44.3230 C   0  0  0  0  0  0  0  0  0  0  0  0
   43.5560    6.8690   44.8610 O   0  0  0  0  0  0  0  0  0  0  0  0
   40.7440    8.7840   47.6210 C   0  0  0  0  0  2  0  0  0  0  0  0
   40.5200    9.7610   48.7440 C   0  0  0  0  0  2  0  0  0  0  0  0
   40.7440   11.0720   48.3620 O   0  0  0  0  0  0  0  0  0  0  0  0
   39.9680   11.4550   47.2820 C   0  0  0  0  0  2  0  0  0  0  0  0
   40.1620   10.5500   46.0850 C   0  0  0  0  0  2  0  0  0  0  0  0
   44.9480    8.2160   43.5240 C   0  0  0  0  0  2  0  0  0  0  0  0
   45.6160    7.0550   42.9080 C   0  0  0  0  0  3  0  0  0  0  0  0
   46.9750    6.6810   43.3310 C   0  0  0  0  0  3  0  0  0  0  0  0
   47.4880    5.3950   43.0410 N   0  0  0  0  0  0  0  0  0  0  0  0
   48.3870    4.6620   43.8550 C   0  0  0  0  0  0  0  0  0  0  0  0
   48.8890    4.9920   44.9700 O   0  0  0  0  0  0  0  0  0  0  0  0
   48.6460    3.4380   43.1910 N   0  0  0  0  0  0  0  0  0  0  0  0
   47.6330    3.2410   42.1580 C   0  0  0  0  0  2  0  0  0  0  0  0
   49.4160    2.7650   43.3760 H   0  0  0  0  0  0  0  0  0  0  0  0
   47.1990    4.6280   41.8880 C   0  0  0  0  0  0  0  0  0  0  0  0
   46.6620    5.0340   40.7960 O   0  0  0  0  0  0  0  0  0  0  0  0
  1  2  1  0  0  0  0
  2  7  1  0  0  0  0
  3  4  1  0  0  0  0
  3  2  2  0  0  0  0
  4  5  2  0  0  0  0
  5  8  1  0  0  0  0
  5  6  1  0  0  0  0
  7  6  2  0  0  0  0
  9  8  1  0  0  0  0
  9 15  1  0  0  0  0
 10  9  1  0  0  0  0
 11 10  1  0  0  0  0
 12 11  1  0  0  0  0
 12  4  1  0  0  0  0
 13 11  1  0  0  0  0
 13 14  2  0  0  0  0
 15 16  1  0  0  0  0
 17 16  1  0  0  0  0
 18 17  1  0  0  0  0
 19  9  1  0  0  0  0
 19 18  1  0  0  0  0
 20 13  1  0  0  0  0
 21 22  2  0  0  0  0
 21 20  1  0  0  0  0
 23 22  1  0  0  0  0
 23 24  1  0  0  0  0
 24 25  2  0  0  0  0
 26 28  1  0  0  0  0
 26 24  1  0  0  0  0
 27 26  1  0  0  0  0
 29 27  1  0  0  0  0
 29 23  1  0  0  0  0
 30 29  2  0  0  0  0
M  END
>  <Pose>
1

>  <Score>
-8.093

$$$$
