/Users/jonathanwahrer/Desktop/Msc/3_Semester/Drug_Design_Praktikum/waehrer_HTS_screening/HTS_experiment/out/docking_results/vina_output/2qfa/2403_docked.pdbqt
 OpenBabel03162221373D

 26 29  0  0  0  0  0  0  0  0999 V2000
   43.9190    7.1770   43.7470 N   0  0  0  0  0  0  0  0  0  0  0  0
   43.4000    8.2710   44.3230 C   0  0  0  0  0  0  0  0  0  0  0  0
   42.5410    7.9250   45.3610 C   0  0  0  0  0  0  0  0  0  0  0  0
   42.5580    6.5710   45.3940 N   0  0  0  0  0  0  0  0  0  0  0  0
   43.3750    6.1240   44.4370 C   0  0  0  0  0  3  0  0  0  0  0  0
   41.8760    8.8280   46.1110 N   0  0  0  0  0  0  0  0  0  0  0  0
   42.0820   10.1230   45.8060 C   0  0  0  0  0  0  0  0  0  0  0  0
   41.4690   10.9810   46.4980 O   0  0  0  0  0  0  0  0  0  0  0  0
   42.8980   10.5100   44.8150 N   0  0  0  0  0  0  0  0  0  0  0  0
   43.5650    9.6090   44.0640 C   0  0  0  0  0  0  0  0  0  0  0  0
   44.3260    9.9500   43.1370 O   0  0  0  0  0  0  0  0  0  0  0  0
   43.1170   11.9090   44.4890 C   0  0  0  0  0  1  0  0  0  0  0  0
   40.9950    8.4010   47.1810 C   0  0  0  0  0  1  0  0  0  0  0  0
   44.8660    7.0510   42.6580 C   0  0  0  0  0  2  0  0  0  0  0  0
   46.0600    6.2220   43.0340 C   0  0  0  0  0  0  0  0  0  0  0  0
   46.3030    5.0890   42.3530 N   0  0  0  0  0  0  0  0  0  0  0  0
   47.3810    4.3050   42.6510 C   0  0  0  0  0  0  0  0  0  0  0  0
   48.2270    4.6440   43.6340 N   0  0  0  0  0  0  0  0  0  0  0  0
   47.5850    3.1470   41.9180 C   0  0  0  0  0  3  0  0  0  0  0  0
   49.2930    3.8700   43.9300 C   0  0  0  0  0  3  0  0  0  0  0  0
   48.0350    5.7830   44.3620 C   0  0  0  0  0  0  0  0  0  0  0  0
   49.5020    2.7250   43.2110 C   0  0  0  0  0  0  0  0  0  0  0  0
   51.0140    1.6520   43.6510 Br  0  0  0  0  0  0  0  0  0  0  0  0
   48.6590    2.3380   42.1950 C   0  0  0  0  0  3  0  0  0  0  0  0
   46.9390    6.5510   44.0360 C   0  0  0  0  0  3  0  0  0  0  0  0
   48.8420    6.0600   45.2620 O   0  0  0  0  0  0  0  0  0  0  0  0
  1  2  1  0  0  0  0
  1  5  1  0  0  0  0
  2  3  2  0  0  0  0
  3  4  1  0  0  0  0
  3  6  1  0  0  0  0
  5  4  2  0  0  0  0
  6 13  1  0  0  0  0
  7  6  1  0  0  0  0
  7  8  2  0  0  0  0
  9  7  1  0  0  0  0
 10  2  1  0  0  0  0
 10  9  1  0  0  0  0
 11 10  2  0  0  0  0
 12  9  1  0  0  0  0
 14 15  1  0  0  0  0
 14  1  1  0  0  0  0
 15 25  2  0  0  0  0
 16 17  2  0  0  0  0
 16 15  1  0  0  0  0
 17 18  1  0  0  0  0
 18 20  1  0  0  0  0
 18 21  1  0  0  0  0
 19 24  2  0  0  0  0
 19 17  1  0  0  0  0
 21 26  2  0  0  0  0
 22 23  1  0  0  0  0
 22 20  2  0  0  0  0
 24 22  1  0  0  0  0
 25 21  1  0  0  0  0
M  END
>  <Pose>
1

>  <Score>
-7.294

$$$$
