/Users/jonathanwahrer/Desktop/Msc/3_Semester/Drug_Design_Praktikum/waehrer_HTS_screening/HTS_experiment/out/docking_results/vina_output/2qfa/2416_docked.pdbqt
 OpenBabel03162221373D

 34 37  0  0  1  0  0  0  0  0999 V2000
   45.3410    6.7290   43.4930 N   0  0  0  0  0  0  0  0  0  0  0  0
   45.0990    5.7260   42.5600 C   0  0  0  0  0  2  0  0  0  0  0  0
   46.4300    5.3080   41.9210 C   0  0  0  0  0  2  0  0  0  0  0  0
   47.4700    5.2550   42.9500 N   0  0  0  0  0  0  0  0  0  0  0  0
   47.6980    6.4810   43.6890 C   0  0  0  0  0  2  0  0  0  0  0  0
   46.5460    7.4270   43.3200 C   0  0  0  0  0  2  0  0  0  0  0  0
   48.1790    4.0460   43.1940 C   0  0  0  0  0  0  0  0  0  0  0  0
   47.8750    3.0470   42.5020 O   0  0  0  0  0  0  0  0  0  0  0  0
   49.2210    3.9840   44.2200 C   0  0  0  0  0  2  0  0  0  0  0  0
   50.4710    3.2300   43.7910 C   0  0  2  0  0  3  0  0  0  0  0  0
   50.2370    1.8350   43.5240 N   0  0  0  0  0  0  0  0  0  0  0  0
   50.6340    0.6510   44.2020 C   0  0  0  0  0  0  0  0  0  0  0  0
   49.6580    1.5950   42.6590 H   0  0  0  0  0  0  0  0  0  0  0  0
   50.6590   -0.4490   43.5880 O   0  0  0  0  0  0  0  0  0  0  0  0
   51.0500    0.5300   45.6160 C   0  0  0  0  0  0  0  0  0  0  0  0
   51.5920    1.5400   46.4190 C   0  0  0  0  0  0  0  0  0  0  0  0
   50.8530   -0.7160   46.1540 C   0  0  0  0  0  3  0  0  0  0  0  0
   51.9170    1.2650   47.7170 C   0  0  0  0  0  3  0  0  0  0  0  0
   51.8530    2.8750   46.0150 N   0  0  0  0  0  0  0  0  0  0  0  0
   51.7280    0.0060   48.2900 C   0  0  0  0  0  3  0  0  0  0  0  0
   51.1840   -0.9790   47.4650 C   0  0  0  0  0  3  0  0  0  0  0  0
   51.5570    3.4940   44.7590 C   0  0  0  0  0  0  0  0  0  0  0  0
   52.3060    3.4570   46.7180 H   0  0  0  0  0  0  0  0  0  0  0  0
   52.3920    4.4210   44.4650 O   0  0  0  0  0  0  0  0  0  0  0  0
   44.1680    7.2790   44.5260 S   0  0  0  0  0  0  0  0  0  0  0  0
   43.1810    6.1570   44.7900 O   0  0  0  0  0  0  0  0  0  0  0  0
   44.6860    7.6900   45.8890 O   0  0  0  0  0  0  0  0  0  0  0  0
   43.2240    8.6290   43.8860 C   0  0  0  0  0  0  0  0  0  0  0  0
   42.1610    8.4260   43.0360 C   0  0  0  0  0  3  0  0  0  0  0  0
   41.4580    9.5110   42.5590 C   0  0  0  0  0  3  0  0  0  0  0  0
   41.7630   10.8180   42.8920 C   0  0  0  0  0  0  0  0  0  0  0  0
   42.8370   11.0200   43.7510 C   0  0  0  0  0  3  0  0  0  0  0  0
   40.8830   12.1870   42.2980 Cl  0  0  0  0  0  0  0  0  0  0  0  0
   43.5360    9.9330   44.2240 C   0  0  0  0  0  3  0  0  0  0  0  0
  1 25  1  0  0  0  0
  2  1  1  0  0  0  0
  3  2  1  0  0  0  0
  3  4  1  0  0  0  0
  4  7  1  0  0  0  0
  4  5  1  0  0  0  0
  6  1  1  0  0  0  0
  6  5  1  0  0  0  0
  7  9  1  0  0  0  0
  8  7  2  0  0  0  0
 10  9  1  1  0  0  0
 10 22  1  0  0  0  0
 11 10  1  0  0  0  0
 11 12  1  0  0  0  0
 12 15  1  0  0  0  0
 13 11  1  0  0  0  0
 14 12  2  0  0  0  0
 15 17  2  0  0  0  0
 15 16  1  0  0  0  0
 16 18  2  0  0  0  0
 17 21  1  0  0  0  0
 18 20  1  0  0  0  0
 19 16  1  0  0  0  0
 19 23  1  0  0  0  0
 21 20  2  0  0  0  0
 22 19  1  0  0  0  0
 24 22  2  0  0  0  0
 25 26  2  0  0  0  0
 25 27  2  0  0  0  0
 28 34  1  0  0  0  0
 28 25  1  0  0  0  0
 29 28  2  0  0  0  0
 30 31  2  0  0  0  0
 30 29  1  0  0  0  0
 31 32  1  0  0  0  0
 32 34  2  0  0  0  0
 33 31  1  0  0  0  0
M  END
>  <Pose>
1

>  <Score>
-7.953

$$$$
