/Users/jonathanwahrer/Desktop/Msc/3_Semester/Drug_Design_Praktikum/waehrer_HTS_screening/HTS_experiment/out/docking_results/vina_output/2qfa/2420_docked.pdbqt
 OpenBabel03162221383D

 29 32  0  0  1  0  0  0  0  0999 V2000
   42.1120   12.3180   45.3380 N   0  0  0  0  0  0  0  0  0  0  0  0
   40.9550   12.5200   44.4680 C   0  0  0  0  0  2  0  0  0  0  0  0
   40.3750   11.1290   44.3480 C   0  0  2  0  0  3  0  0  0  0  0  0
   40.4710   10.6160   45.7800 C   0  0  0  0  0  2  0  0  0  0  0  0
   41.6610   11.3710   46.3100 C   0  0  0  0  0  0  0  0  0  0  0  0
   42.1930   11.2000   47.4470 O   0  0  0  0  0  0  0  0  0  0  0  0
   41.1740   10.2720   43.4400 C   0  0  0  0  0  0  0  0  0  0  0  0
   41.5560   10.7610   42.3470 O   0  0  0  0  0  0  0  0  0  0  0  0
   41.5170    8.9380   43.7570 N   0  0  0  0  0  0  0  0  0  0  0  0
   41.1780    8.5630   44.6790 H   0  0  0  0  0  0  0  0  0  0  0  0
   42.2940    8.1010   42.8800 C   0  0  0  0  0  2  0  0  0  0  0  0
   42.8090    6.9030   43.6490 C   0  0  0  0  0  2  0  0  0  0  0  0
   44.1720    7.0630   44.0930 N   0  0  0  0  0  0  0  0  0  0  0  0
   44.8580    5.7980   43.8570 C   0  0  0  0  0  2  0  0  0  0  0  0
   45.3550    5.7240   42.4160 C   0  0  0  0  0  2  0  0  0  0  0  0
   46.3600    6.6260   42.1550 O   0  0  0  0  0  0  0  0  0  0  0  0
   46.2990    7.6570   43.0640 C   0  0  0  0  0  2  0  0  0  0  0  0
   44.8750    8.0850   43.3520 C   0  0  0  0  0  2  0  0  0  0  0  0
   43.3850   12.9340   45.2290 C   0  0  0  0  0  0  0  0  0  0  0  0
   44.4430   12.6140   44.4720 N   0  0  0  0  0  0  0  0  0  0  0  0
   45.4390   13.4600   44.6850 N   0  0  0  0  0  0  0  0  0  0  0  0
   45.0580   14.3850   45.6110 C   0  0  0  0  0  0  0  0  0  0  0  0
   46.4010   13.5020   44.2660 H   0  0  0  0  0  0  0  0  0  0  0  0
   45.6510   15.4620   46.2010 C   0  0  0  0  0  3  0  0  0  0  0  0
   43.7700   14.0560   45.9530 C   0  0  0  0  0  0  0  0  0  0  0  0
   44.9900   16.2290   47.1340 C   0  0  0  0  0  0  0  0  0  0  0  0
   45.8390   17.7270   47.9440 Br  0  0  0  0  0  0  0  0  0  0  0  0
   43.6790   15.9000   47.4860 C   0  0  0  0  0  3  0  0  0  0  0  0
   43.0790   14.8130   46.8910 C   0  0  0  0  0  3  0  0  0  0  0  0
  1  5  1  0  0  0  0
  2  1  1  0  0  0  0
  3  7  1  6  0  0  0
  3  2  1  0  0  0  0
  3  4  1  0  0  0  0
  4  5  1  0  0  0  0
  5  6  2  0  0  0  0
  7  9  1  0  0  0  0
  8  7  2  0  0  0  0
  9 10  1  0  0  0  0
 11 12  1  0  0  0  0
 11  9  1  0  0  0  0
 12 13  1  0  0  0  0
 14 13  1  0  0  0  0
 15 14  1  0  0  0  0
 16 15  1  0  0  0  0
 16 17  1  0  0  0  0
 17 18  1  0  0  0  0
 18 13  1  0  0  0  0
 19  1  1  0  0  0  0
 19 25  1  0  0  0  0
 20 21  1  0  0  0  0
 20 19  2  0  0  0  0
 21 22  1  0  0  0  0
 22 25  2  0  0  0  0
 22 24  1  0  0  0  0
 23 21  1  0  0  0  0
 24 26  2  0  0  0  0
 25 29  1  0  0  0  0
 26 28  1  0  0  0  0
 26 27  1  0  0  0  0
 29 28  2  0  0  0  0
M  END
>  <Pose>
1

>  <Score>
-7.042

$$$$
