/Users/jonathanwahrer/Desktop/Msc/3_Semester/Drug_Design_Praktikum/waehrer_HTS_screening/HTS_experiment/out/docking_results/vina_output/2qfa/2432_docked.pdbqt
 OpenBabel03162221383D

 26 29  0  0  0  0  0  0  0  0999 V2000
   42.3280    9.9580   43.7590 C   0  0  0  0  0  0  0  0  0  0  0  0
   41.9520   10.4450   42.5910 O   0  0  0  0  0  0  0  0  0  0  0  0
   41.6780   10.4450   44.8820 N   0  0  0  0  0  0  0  0  0  0  0  0
   40.6530   11.4990   44.6850 C   0  0  0  0  0  2  0  0  0  0  0  0
   41.1420   12.7010   45.4470 C   0  0  0  0  0  2  0  0  0  0  0  0
   42.3120   12.4740   46.2340 N   0  0  0  0  0  0  0  0  0  0  0  0
   42.6380   11.2060   46.8700 C   0  0  0  0  0  2  0  0  0  0  0  0
   41.8300   10.0810   46.2420 C   0  0  0  0  0  2  0  0  0  0  0  0
   43.3780    8.9810   43.6300 C   0  0  0  0  0  0  0  0  0  0  0  0
   44.6750    9.1190   43.3520 N   0  0  0  0  0  0  0  0  0  0  0  0
   45.3220    7.9200   43.3450 C   0  0  0  0  0  0  0  0  0  0  0  0
   45.2200    9.9780   43.1400 H   0  0  0  0  0  0  0  0  0  0  0  0
   47.0150    7.6020   43.0340 Cl  0  0  0  0  0  0  0  0  0  0  0  0
   44.4110    6.9410   43.6320 C   0  0  0  0  0  0  0  0  0  0  0  0
   43.2170    7.6000   43.8060 C   0  0  0  0  0  3  0  0  0  0  0  0
   44.7230    5.2230   43.7470 Cl  0  0  0  0  0  0  0  0  0  0  0  0
   43.2460   13.5280   46.4330 C   0  0  0  0  0  0  0  0  0  0  0  0
   43.1420   14.3610   47.4850 N   0  0  0  0  0  0  0  0  0  0  0  0
   44.0210   15.3700   47.6890 C   0  0  0  0  0  3  0  0  0  0  0  0
   45.0370   15.5710   46.8310 N   0  0  0  0  0  0  0  0  0  0  0  0
   45.2090   14.7840   45.7570 C   0  0  0  0  0  0  0  0  0  0  0  0
   46.1230   14.7710   44.7690 N   0  0  0  0  0  0  0  0  0  0  0  0
   44.2920   13.7450   45.5620 C   0  0  0  0  0  0  0  0  0  0  0  0
   45.8140   13.7700   43.9680 N   0  0  0  0  0  0  0  0  0  0  0  0
   47.2570   15.6770   44.5840 C   0  0  0  0  0  1  0  0  0  0  0  0
   44.7110   13.1240   44.4150 C   0  0  0  0  0  3  0  0  0  0  0  0
  1  3  1  0  0  0  0
  2  1  2  0  0  0  0
  3  8  1  0  0  0  0
  4  3  1  0  0  0  0
  4  5  1  0  0  0  0
  5  6  1  0  0  0  0
  6 17  1  0  0  0  0
  6  7  1  0  0  0  0
  8  7  1  0  0  0  0
  9  1  1  0  0  0  0
  9 15  2  0  0  0  0
 10  9  1  0  0  0  0
 11 10  1  0  0  0  0
 11 14  2  0  0  0  0
 12 10  1  0  0  0  0
 13 11  1  0  0  0  0
 14 16  1  0  0  0  0
 14 15  1  0  0  0  0
 17 18  1  0  0  0  0
 18 19  2  0  0  0  0
 20 19  1  0  0  0  0
 21 20  2  0  0  0  0
 22 21  1  0  0  0  0
 23 21  1  0  0  0  0
 23 17  2  0  0  0  0
 24 26  2  0  0  0  0
 24 22  1  0  0  0  0
 25 22  1  0  0  0  0
 26 23  1  0  0  0  0
M  END
>  <Pose>
1

>  <Score>
-7.556

$$$$
