/Users/jonathanwahrer/Desktop/Msc/3_Semester/Drug_Design_Praktikum/waehrer_HTS_screening/HTS_experiment/out/docking_results/vina_output/2qfa/2439_docked.pdbqt
 OpenBabel03162221393D

 30 34  0  0  1  0  0  0  0  0999 V2000
   41.5670    9.0610   46.1670 C   0  0  0  0  0  0  0  0  0  0  0  0
   42.0390    7.7820   45.8220 C   0  0  0  0  0  3  0  0  0  0  0  0
   43.0720    7.9100   44.9920 N   0  0  0  0  0  0  0  0  0  0  0  0
   43.9770    7.1910   44.2780 C   0  0  0  0  0  0  0  0  0  0  0  0
   44.7560    8.0850   43.6260 C   0  0  0  0  0  0  0  0  0  0  0  0
   44.3140    9.3080   43.9530 N   0  0  0  0  0  0  0  0  0  0  0  0
   43.2670    9.2160   44.8030 C   0  0  1  0  0  3  0  0  0  0  0  0
   42.3470    9.9400   45.5220 N   0  0  0  0  0  0  0  0  0  0  0  0
   45.7840    7.6560   42.8050 C   0  0  0  0  0  3  0  0  0  0  0  0
   46.0350    6.3040   42.6340 C   0  0  0  0  0  3  0  0  0  0  0  0
   45.2360    5.3870   43.3040 C   0  0  0  0  0  3  0  0  0  0  0  0
   44.2230    5.8500   44.1130 C   0  0  0  0  0  3  0  0  0  0  0  0
   44.7110   10.2160   43.5960 H   0  0  0  0  0  0  0  0  0  0  0  0
   42.2750   11.3640   45.5140 C   0  0  0  0  0  2  0  0  0  0  0  0
   41.6980   11.9790   44.2650 C   0  0  0  0  0  2  0  0  0  0  0  0
   40.2600   12.2510   44.2600 C   0  0  0  0  0  2  0  0  0  0  0  0
   39.7890   13.5870   44.4780 N   0  0  0  0  0  4  0  0  0  0  0  0
   38.3740   13.6310   44.8000 C   0  0  0  0  0  3  0  0  0  0  0  0
   38.0250   13.5010   46.2220 C   0  0  0  0  0  3  0  0  0  0  0  0
   39.1380   13.6080   47.1960 C   0  0  0  0  0  2  0  0  0  0  0  0
   40.1810   14.5570   46.7220 C   0  0  0  0  0  3  0  0  0  0  0  0
   40.6090   14.3910   45.3120 C   0  0  0  0  0  3  0  0  0  0  0  0
   39.8080   14.0260   43.5300 H   0  0  0  0  0  0  0  0  0  0  0  0
   40.4150    9.2450   47.0570 C   0  0  0  0  0  0  0  0  0  0  0  0
   40.4930    8.7350   48.3520 C   0  0  0  0  0  3  0  0  0  0  0  0
   39.4810    8.8530   49.2850 C   0  0  0  0  0  3  0  0  0  0  0  0
   38.3230    9.4990   48.9630 C   0  0  0  0  0  0  0  0  0  0  0  0
   36.9050    9.6880   50.2080 Br  0  0  0  0  0  0  0  0  0  0  0  0
   38.2150   10.0120   47.6990 C   0  0  0  0  0  3  0  0  0  0  0  0
   39.2560    9.8860   46.7470 C   0  0  0  0  0  3  0  0  0  0  0  0
  1 24  1  0  0  0  0
  2  1  2  0  0  0  0
  3  2  1  0  0  0  0
  4  3  1  0  0  0  0
  5  6  1  0  0  0  0
  5  4  2  0  0  0  0
  7  6  1  6  0  0  0
  7  3  1  0  0  0  0
  7  8  1  0  0  0  0
  8  1  1  0  0  0  0
  9  5  1  0  0  0  0
 10  9  2  0  0  0  0
 10 11  1  0  0  0  0
 11 12  2  0  0  0  0
 12  4  1  0  0  0  0
 13  6  1  0  0  0  0
 14  8  1  0  0  0  0
 15 14  1  0  0  0  0
 16 15  1  0  0  0  0
 16 17  1  0  0  0  0
 17 18  1  0  0  0  0
 17 22  1  0  0  0  0
 18 19  2  0  0  0  0
 19 20  1  0  0  0  0
 21 20  1  0  0  0  0
 22 21  2  0  0  0  0
 23 17  1  0  0  0  0
 24 25  1  0  0  0  0
 25 26  2  0  0  0  0
 27 26  1  0  0  0  0
 27 28  1  0  0  0  0
 29 27  2  0  0  0  0
 30 24  2  0  0  0  0
 30 29  1  0  0  0  0
M  END
>  <Pose>
1

>  <Score>
-7.073

$$$$
