/Users/jonathanwahrer/Desktop/Msc/3_Semester/Drug_Design_Praktikum/waehrer_HTS_screening/HTS_experiment/out/docking_results/vina_output/2qfa/2440_docked.pdbqt
 OpenBabel03162221393D

 33 36  0  0  1  0  0  0  0  0999 V2000
   44.2070    7.2450   43.7170 Cl  0  0  0  0  0  0  0  0  0  0  0  0
   42.9500    8.4740   43.6170 C   0  0  0  0  0  0  0  0  0  0  0  0
   42.9130    9.4370   44.6360 C   0  0  0  0  0  0  0  0  0  0  0  0
   41.9350   10.3900   44.5550 C   0  0  0  0  0  0  0  0  0  0  0  0
   41.0060   10.4020   43.4940 C   0  0  0  0  0  3  0  0  0  0  0  0
   41.0510    9.4550   42.5030 C   0  0  0  0  0  3  0  0  0  0  0  0
   42.0380    8.4970   42.5900 C   0  0  0  0  0  3  0  0  0  0  0  0
   42.0900   11.2930   45.7040 C   0  0  2  0  0  0  0  0  0  0  0  0
   40.9100   11.4860   46.4680 N   0  0  0  0  0  0  0  0  0  0  0  0
   40.8900   12.7420   47.0790 C   0  0  1  0  0  3  0  0  0  0  0  0
   41.9210   13.5580   46.3300 C   0  0  2  0  0  3  0  0  0  0  0  0
   42.4670   12.6980   45.2370 C   0  0  1  0  0  3  0  0  0  0  0  0
   43.9390   12.9000   45.1980 C   0  0  0  0  0  0  0  0  0  0  0  0
   44.6920   12.4040   44.3280 O   0  0  0  0  0  0  0  0  0  0  0  0
   44.2960   13.7330   46.3020 N   0  0  0  0  0  0  0  0  0  0  0  0
   43.1310   13.8380   47.1340 C   0  0  0  0  0  0  0  0  0  0  0  0
   43.1550   14.1230   48.3410 O   0  0  0  0  0  0  0  0  0  0  0  0
   43.2150   10.7540   46.4740 C   0  0  0  0  0  0  0  0  0  0  0  0
   43.7080   11.1740   47.5670 O   0  0  0  0  0  0  0  0  0  0  0  0
   43.7200    9.6210   45.7940 N   0  0  0  0  0  0  0  0  0  0  0  0
   40.5890   10.6740   47.0210 H   0  0  0  0  0  0  0  0  0  0  0  0
   44.5280    9.0070   46.0510 H   0  0  0  0  0  0  0  0  0  0  0  0
   39.6000   13.4440   47.2500 C   0  0  0  0  0  2  0  0  0  0  0  0
   38.9710   14.0580   46.0640 C   0  0  0  0  0  2  0  0  0  0  0  0
   38.0660   13.2230   45.2680 C   0  0  0  0  0  0  0  0  0  0  0  0
   37.9260   12.0140   45.5280 O   0  0  0  0  0  0  0  0  0  0  0  0
   37.3050   13.7320   44.1750 N   0  0  0  0  0  0  0  0  0  0  0  0
   36.5250   14.4030   44.2840 H   0  0  0  0  0  0  0  0  0  0  0  0
   37.5430   13.4170   43.2190 H   0  0  0  0  0  0  0  0  0  0  0  0
   45.5540   14.3630   46.5610 C   0  0  0  0  0  2  0  0  0  0  0  0
   45.9090   15.5030   45.6750 C   0  0  0  0  0  2  0  0  0  0  0  0
   46.8360   15.2090   44.5500 C   0  0  0  0  0  2  0  0  0  0  0  0
   47.6120   16.4480   44.1160 C   0  0  0  0  0  1  0  0  0  0  0  0
  2  1  1  0  0  0  0
  2  3  1  0  0  0  0
  3 20  1  0  0  0  0
  4  3  2  0  0  0  0
  5  4  1  0  0  0  0
  6  7  1  0  0  0  0
  6  5  2  0  0  0  0
  7  2  2  0  0  0  0
  8  4  1  6  0  0  0
  8  9  1  0  0  0  0
  8 18  1  0  0  0  0
  9 21  1  0  0  0  0
  9 10  1  0  0  0  0
 10 23  1  6  0  0  0
 11 10  1  0  0  0  0
 11 16  1  1  0  0  0
 12 13  1  1  0  0  0
 12  8  1  0  0  0  0
 12 11  1  0  0  0  0
 13 15  1  0  0  0  0
 14 13  2  0  0  0  0
 15 30  1  0  0  0  0
 15 16  1  0  0  0  0
 16 17  2  0  0  0  0
 18 19  2  0  0  0  0
 20 22  1  0  0  0  0
 20 18  1  0  0  0  0
 24 23  1  0  0  0  0
 25 26  2  0  0  0  0
 25 24  1  0  0  0  0
 27 28  1  0  0  0  0
 27 25  1  0  0  0  0
 29 27  1  0  0  0  0
 31 30  1  0  0  0  0
 32 31  1  0  0  0  0
 33 32  1  0  0  0  0
M  END
>  <Pose>
1

>  <Score>
-6.845

$$$$
