/Users/jonathanwahrer/Desktop/Msc/3_Semester/Drug_Design_Praktikum/waehrer_HTS_screening/HTS_experiment/out/docking_results/vina_output/2qfa/2447_docked.pdbqt
 OpenBabel03162221403D

 33 36  0  0  1  0  0  0  0  0999 V2000
   41.7680   10.5170   44.5360 C   0  0  1  0  0  3  0  0  0  0  0  0
   41.3290   11.7460   43.8150 C   0  0  0  0  0  0  0  0  0  0  0  0
   40.9110   11.7240   42.6330 O   0  0  0  0  0  0  0  0  0  0  0  0
   41.4290   12.9090   44.5750 O   0  0  0  0  0  0  0  0  0  0  0  0
   41.3340   12.9580   45.9500 C   0  0  0  0  0  3  0  0  0  0  0  0
   41.1290   11.7970   46.6100 C   0  0  0  0  0  0  0  0  0  0  0  0
   41.0190   10.5760   45.8420 C   0  0  0  0  0  0  0  0  0  0  0  0
   40.3400    9.6070   46.2210 O   0  0  0  0  0  0  0  0  0  0  0  0
   41.0000   11.7690   48.0730 C   0  0  0  0  0  2  0  0  0  0  0  0
   42.1740   12.0550   48.7890 N   0  0  0  0  0  0  0  0  0  0  0  0
   42.3490   13.2850   49.4340 C   0  0  0  0  0  2  0  0  0  0  0  0
   43.8510   13.5630   49.6680 C   0  0  0  0  0  2  0  0  0  0  0  0
   44.4790   13.2940   48.4000 N   0  0  0  0  0  0  0  0  0  0  0  0
   44.5000   11.8860   48.0280 C   0  0  0  0  0  2  0  0  0  0  0  0
   43.2880   11.1920   48.6340 C   0  0  0  0  0  2  0  0  0  0  0  0
   45.0150   14.3090   47.5840 C   0  0  0  0  0  0  0  0  0  0  0  0
   45.4750   14.0990   46.3040 C   0  0  0  0  0  3  0  0  0  0  0  0
   45.9860   15.1290   45.5490 C   0  0  0  0  0  0  0  0  0  0  0  0
   46.0680   16.4170   46.0230 C   0  0  0  0  0  3  0  0  0  0  0  0
   46.5540   14.8000   43.9340 Cl  0  0  0  0  0  0  0  0  0  0  0  0
   45.6170   16.6570   47.2950 C   0  0  0  0  0  3  0  0  0  0  0  0
   45.1010   15.6210   48.0600 C   0  0  0  0  0  3  0  0  0  0  0  0
   41.4750    9.2630   43.7910 C   0  0  0  0  0  2  0  0  0  0  0  0
   42.6940    8.7060   43.3210 N   0  0  0  0  0  0  0  0  0  0  0  0
   42.7450    7.2650   43.3000 C   0  0  0  0  0  2  0  0  0  0  0  0
   43.7250    6.8330   44.3730 C   0  0  0  0  0  2  0  0  0  0  0  0
   45.0400    7.1950   43.9620 N   0  0  0  0  0  0  0  0  0  0  0  0
   45.0640    8.4480   43.2800 C   0  0  0  0  0  2  0  0  0  0  0  0
   43.8990    9.3500   43.6920 C   0  0  0  0  0  2  0  0  0  0  0  0
   45.9180    5.9490   43.2100 S   0  0  0  0  0  0  0  0  0  0  0  0
   45.3640    4.5700   43.4940 O   0  0  0  0  0  0  0  0  0  0  0  0
   45.8060    6.1390   41.7030 O   0  0  0  0  0  0  0  0  0  0  0  0
   47.6260    5.9460   43.6060 C   0  0  0  0  0  1  0  0  0  0  0  0
  1 23  1  6  0  0  0
  1  7  1  0  0  0  0
  2  1  1  0  0  0  0
  2  4  1  0  0  0  0
  3  2  2  0  0  0  0
  4  5  1  0  0  0  0
  5  6  2  0  0  0  0
  6  9  1  0  0  0  0
  7  8  2  0  0  0  0
  7  6  1  0  0  0  0
  9 10  1  0  0  0  0
 10 11  1  0  0  0  0
 11 12  1  0  0  0  0
 13 12  1  0  0  0  0
 14 13  1  0  0  0  0
 14 15  1  0  0  0  0
 15 10  1  0  0  0  0
 16 22  1  0  0  0  0
 16 13  1  0  0  0  0
 17 16  2  0  0  0  0
 18 19  2  0  0  0  0
 18 17  1  0  0  0  0
 19 21  1  0  0  0  0
 20 18  1  0  0  0  0
 21 22  2  0  0  0  0
 24 29  1  0  0  0  0
 24 23  1  0  0  0  0
 25 24  1  0  0  0  0
 25 26  1  0  0  0  0
 27 26  1  0  0  0  0
 28 29  1  0  0  0  0
 28 27  1  0  0  0  0
 30 31  2  0  0  0  0
 30 33  1  0  0  0  0
 30 27  1  0  0  0  0
 32 30  2  0  0  0  0
M  END
>  <Pose>
1

>  <Score>
-7.171

$$$$
