
 OpenBabel03172210413D

 50 53  0  0  0  0  0  0  0  0999 V2000
    3.0380    9.4280   14.4660 B   0  0  0  0  0  0  0  0  0  0  0  0
    4.6170    8.3400   14.5700 C   0  0  0  0  0  0  0  0  0  0  0  0
    5.2250    8.1780   15.8000 C   0  0  0  0  0  0  0  0  0  0  0  0
    6.3570    7.3940   15.8520 C   0  0  0  0  0  0  0  0  0  0  0  0
    6.8550    6.7980   14.7050 C   0  0  0  0  0  0  0  0  0  0  0  0
    6.2510    6.9570   13.4750 C   0  0  0  0  0  0  0  0  0  0  0  0
    5.1190    7.7440   13.4300 C   0  0  0  0  0  0  0  0  0  0  0  0
    4.5060    7.9040   12.1740 O   0  0  0  0  0  0  0  0  0  0  0  0
    6.7720    6.3290   12.2530 C   0  0  0  0  0  0  0  0  0  0  0  0
    7.9710    5.8900   12.1640 N   0  0  0  0  0  0  0  0  0  0  0  0
    8.4350    5.2820   10.9470 N   0  0  0  0  0  0  0  0  0  0  0  0
    9.6730    5.7220   10.4650 C   0  0  0  0  0  0  0  0  0  0  0  0
    9.8020    5.7220    9.1660 O   0  0  0  0  0  0  0  0  0  0  0  0
   10.8430    6.1830   11.1740 C   0  0  0  0  0  0  0  0  0  0  0  0
   10.8550    7.3530   11.9020 N   0  0  0  0  0  0  0  0  0  0  0  0
   12.0390    7.4920   12.4070 N   0  0  0  0  0  0  0  0  0  0  0  0
   12.8160    6.4380   12.0330 N   0  0  0  0  0  0  0  0  0  0  0  0
   12.1050    5.6110   11.2690 C   0  0  0  0  0  0  0  0  0  0  0  0
   12.5160    4.3590   10.6340 C   0  0  0  0  0  0  0  0  0  0  0  0
   12.9660    3.2820   11.4330 N   0  0  0  0  0  4  0  0  0  0  0  0
   13.6020    2.2210   10.6660 C   0  0  0  0  0  0  0  0  0  0  0  0
   12.7460    1.7810    9.5460 C   0  0  0  0  0  0  0  0  0  0  0  0
   11.4170    1.7970    9.6580 O   0  0  0  0  0  0  0  0  0  0  0  0
   10.8420    2.2750   10.7910 C   0  0  0  0  0  0  0  0  0  0  0  0
   11.7350    2.5810   11.9240 C   0  0  0  0  0  0  0  0  0  0  0  0
   14.1710    6.3690   12.4820 C   0  0  0  0  0  0  0  0  0  0  0  0
   14.8390    5.4330   13.1450 N   0  0  0  0  0  0  0  0  0  0  0  0
   16.0580    5.8420   13.2770 O   0  0  0  0  0  0  0  0  0  0  0  0
   16.2370    7.0050   12.7340 N   0  0  0  0  0  0  0  0  0  0  0  0
   15.0850    7.4000   12.2100 C   0  0  0  0  0  0  0  0  0  0  0  0
   14.7740    8.5960   11.5130 N   0  0  0  0  0  0  0  0  0  0  0  0
    7.1950    7.1720   17.5560 B   0  0  0  0  0  0  0  0  0  0  0  0
    4.6960    8.7940   16.9350 O   0  0  0  0  0  0  0  0  0  0  0  0
    7.7520    6.1800   14.7650 H   0  0  0  0  0  0  0  0  0  0  0  0
    3.8750    7.1930   11.8380 H   0  0  0  0  0  0  0  0  0  0  0  0
    6.1340    6.2330   11.4100 H   0  0  0  0  0  0  0  0  0  0  0  0
    7.8550    4.5800   10.5190 H   0  0  0  0  0  0  0  0  0  0  0  0
   13.2780    4.5560    9.8050 H   0  0  0  0  0  0  0  0  0  0  0  0
   11.6090    3.9650   10.0730 H   0  0  0  0  0  0  0  0  0  0  0  0
   13.5060    3.5740   12.2340 H   0  0  0  0  0  0  0  0  0  0  0  0
   13.6900    1.3560   11.3890 H   0  0  0  0  0  0  0  0  0  0  0  0
   14.6060    2.4430   10.3170 H   0  0  0  0  0  0  0  0  0  0  0  0
   13.0670    0.7290    9.2800 H   0  0  0  0  0  0  0  0  0  0  0  0
   13.0500    2.3680    8.6300 H   0  0  0  0  0  0  0  0  0  0  0  0
   10.2350    3.1680   10.5390 H   0  0  0  0  0  0  0  0  0  0  0  0
   10.0940    1.5080   11.1430 H   0  0  0  0  0  0  0  0  0  0  0  0
   12.0950    1.6990   12.4710 H   0  0  0  0  0  0  0  0  0  0  0  0
   11.2790    3.2860   12.6330 H   0  0  0  0  0  0  0  0  0  0  0  0
   13.8430    9.0410   11.6500 H   0  0  0  0  0  0  0  0  0  0  0  0
   15.4560    9.0620   10.8480 H   0  0  0  0  0  0  0  0  0  0  0  0
  1  2  1  0  0  0  0
  2  3  1  0  0  0  0
  3  4  2  0  0  0  0
  3 33  1  0  0  0  0
  4 32  1  0  0  0  0
  5 34  1  0  0  0  0
  5  4  1  0  0  0  0
  6  5  2  0  0  0  0
  7  6  1  0  0  0  0
  7  2  2  0  0  0  0
  8  7  1  0  0  0  0
  9  6  1  0  0  0  0
 10  9  2  0  0  0  0
 11 10  1  0  0  0  0
 12 11  1  0  0  0  0
 12 14  1  0  0  0  0
 13 12  2  0  0  0  0
 14 18  2  0  0  0  0
 14 15  1  0  0  0  0
 15 16  2  0  0  0  0
 17 16  1  0  0  0  0
 17 26  1  0  0  0  0
 18 17  1  0  0  0  0
 19 18  1  0  0  0  0
 19 20  1  0  0  0  0
 20 25  1  0  0  0  0
 20 40  1  0  0  0  0
 21 41  1  0  0  0  0
 21 20  1  0  0  0  0
 22 23  1  0  0  0  0
 22 21  1  0  0  0  0
 23 24  1  0  0  0  0
 24 46  1  0  0  0  0
 24 25  1  0  0  0  0
 25 47  1  0  0  0  0
 25 48  1  0  0  0  0
 26 27  2  0  0  0  0
 27 28  1  0  0  0  0
 29 28  1  0  0  0  0
 30 26  1  0  0  0  0
 30 29  2  0  0  0  0
 31 49  1  0  0  0  0
 31 30  1  0  0  0  0
 35  8  1  0  0  0  0
 36  9  1  0  0  0  0
 37 11  1  0  0  0  0
 38 19  1  0  0  0  0
 39 19  1  0  0  0  0
 42 21  1  0  0  0  0
 43 22  1  0  0  0  0
 44 22  1  0  0  0  0
 45 24  1  0  0  0  0
 50 31  1  0  0  0  0
M  END
>  <Pose>
1

>  <Score>
-8.26

$$$$
