
 OpenBabel03162215113D

 50 53  0  0  0  0  0  0  0  0999 V2000
   15.8780    2.0600    9.2900 B   0  0  0  0  0  0  0  0  0  0  0  0
   14.0190    1.8040    9.5550 C   0  0  0  0  0  0  0  0  0  0  0  0
   13.3470    0.8730    8.8170 C   0  0  0  0  0  0  0  0  0  0  0  0
   11.9810    0.7090    9.0340 C   0  0  0  0  0  0  0  0  0  0  0  0
   11.3370    1.4890    9.9880 C   0  0  0  0  0  0  0  0  0  0  0  0
   12.0050    2.4250   10.7320 C   0  0  0  0  0  0  0  0  0  0  0  0
   13.3550    2.5770   10.5070 C   0  0  0  0  0  0  0  0  0  0  0  0
   14.0200    3.5270   11.2660 O   0  0  0  0  0  0  0  0  0  0  0  0
   11.3120    3.2320   11.7250 C   0  0  0  0  0  0  0  0  0  0  0  0
   11.5030    4.4940   11.8750 N   0  0  0  0  0  0  0  0  0  0  0  0
   10.7660    5.1990   12.8870 N   0  0  0  0  0  0  0  0  0  0  0  0
    9.9080    6.2030   12.4610 C   0  0  0  0  0  0  0  0  0  0  0  0
   10.4330    7.1520   11.7650 O   0  0  0  0  0  0  0  0  0  0  0  0
    8.4830    6.3450   12.6890 C   0  0  0  0  0  0  0  0  0  0  0  0
    7.5280    6.4300   11.7070 N   0  0  0  0  0  0  0  0  0  0  0  0
    6.3510    6.5450   12.2560 N   0  0  0  0  0  0  0  0  0  0  0  0
    6.4310    6.5450   13.5750 N   0  0  0  0  0  0  0  0  0  0  0  0
    7.7360    6.4210   13.8700 C   0  0  0  0  0  0  0  0  0  0  0  0
    8.3390    6.4050   15.2060 C   0  0  0  0  0  0  0  0  0  0  0  0
    7.8950    7.4920   16.0820 N   0  0  0  0  0  0  0  0  0  0  0  0
    9.0840    8.1030   16.7090 C   0  0  0  0  0  0  0  0  0  0  0  0
    9.9800    7.0380   17.2360 C   0  0  0  0  0  0  0  0  0  0  0  0
    9.2710    6.2100   18.0710 O   0  0  0  0  0  0  0  0  0  0  0  0
    8.0140    6.6580   18.3790 C   0  0  0  0  0  0  0  0  0  0  0  0
    7.1160    6.8960   17.1930 C   0  0  0  0  0  0  0  0  0  0  0  0
    5.3160    6.6880   14.4370 C   0  0  0  0  0  0  0  0  0  0  0  0
    4.8770    5.8670   15.4150 N   0  0  0  0  0  0  0  0  0  0  0  0
    3.8150    6.3790   15.9790 O   0  0  0  0  0  0  0  0  0  0  0  0
    3.5090    7.5230   15.4230 N   0  0  0  0  0  0  0  0  0  0  0  0
    4.4200    7.7470   14.4610 C   0  0  0  0  0  0  0  0  0  0  0  0
    4.4330    8.8870   13.6290 N   0  0  0  0  0  0  0  0  0  0  0  0
   11.0180   -0.5760    8.0260 B   0  0  0  0  0  0  0  0  0  0  0  0
   13.9700    0.0850    7.8610 O   0  0  0  0  0  0  0  0  0  0  0  0
   10.2870    1.3620   10.1540 H   0  0  0  0  0  0  0  0  0  0  0  0
   14.1930    3.3630   12.2500 H   0  0  0  0  0  0  0  0  0  0  0  0
   10.5900    2.7600   12.3870 H   0  0  0  0  0  0  0  0  0  0  0  0
   10.9440    4.8910   13.8720 H   0  0  0  0  0  0  0  0  0  0  0  0
    9.4290    6.4710   15.1620 H   0  0  0  0  0  0  0  0  0  0  0  0
    8.0450    5.4860   15.7310 H   0  0  0  0  0  0  0  0  0  0  0  0
    9.5890    8.7870   16.0090 H   0  0  0  0  0  0  0  0  0  0  0  0
    8.7020    8.7080   17.5520 H   0  0  0  0  0  0  0  0  0  0  0  0
   10.4630    6.4350   16.4480 H   0  0  0  0  0  0  0  0  0  0  0  0
   10.7670    7.5320   17.8770 H   0  0  0  0  0  0  0  0  0  0  0  0
    7.5250    5.8250   18.9700 H   0  0  0  0  0  0  0  0  0  0  0  0
    8.0580    7.5290   19.0670 H   0  0  0  0  0  0  0  0  0  0  0  0
    6.3760    7.6440   17.5040 H   0  0  0  0  0  0  0  0  0  0  0  0
    6.6370    5.9640   16.9110 H   0  0  0  0  0  0  0  0  0  0  0  0
    3.8120    8.9080   12.8000 H   0  0  0  0  0  0  0  0  0  0  0  0
    5.0390    9.7060   13.8140 H   0  0  0  0  0  0  0  0  0  0  0  0
   14.3810   -0.8020    8.1060 H   0  0  0  0  0  0  0  0  0  0  0  0
  1  2  1  0  0  0  0
  2  7  1  0  0  0  0
  3  4  1  0  0  0  0
  3  2  2  0  0  0  0
  4  5  2  0  0  0  0
  5 34  1  0  0  0  0
  5  6  1  0  0  0  0
  6  9  1  0  0  0  0
  7  6  2  0  0  0  0
  7  8  1  0  0  0  0
  8 35  1  0  0  0  0
  9 10  2  0  0  0  0
  9 36  1  0  0  0  0
 10 11  1  0  0  0  0
 11 37  1  0  0  0  0
 12 14  1  0  0  0  0
 12 11  1  0  0  0  0
 13 12  2  0  0  0  0
 14 18  2  0  0  0  0
 15 16  2  0  0  0  0
 15 14  1  0  0  0  0
 16 17  1  0  0  0  0
 17 18  1  0  0  0  0
 17 26  1  0  0  0  0
 18 19  1  0  0  0  0
 19 39  1  0  0  0  0
 19 20  1  0  0  0  0
 20 21  1  0  0  0  0
 20 25  1  0  0  0  0
 21 22  1  0  0  0  0
 21 41  1  0  0  0  0
 22 43  1  0  0  0  0
 22 23  1  0  0  0  0
 23 24  1  0  0  0  0
 24 44  1  0  0  0  0
 24 45  1  0  0  0  0
 25 46  1  0  0  0  0
 25 24  1  0  0  0  0
 26 30  1  0  0  0  0
 26 27  2  0  0  0  0
 27 28  1  0  0  0  0
 29 28  1  0  0  0  0
 30 29  2  0  0  0  0
 31 49  1  0  0  0  0
 31 30  1  0  0  0  0
 32  4  1  0  0  0  0
 33 50  1  0  0  0  0
 33  3  1  0  0  0  0
 38 19  1  0  0  0  0
 40 21  1  0  0  0  0
 42 22  1  0  0  0  0
 47 25  1  0  0  0  0
 48 31  1  0  0  0  0
M  END
>  <Pose>
1

>  <Score>
-8.59

$$$$
