
 OpenBabel03172210413D

 50 53  0  0  0  0  0  0  0  0999 V2000
   15.3370    2.2040    9.6060 B   0  0  0  0  0  0  0  0  0  0  0  0
   13.4590    1.9940    9.7460 C   0  0  0  0  0  0  0  0  0  0  0  0
   12.8430    0.9410    9.1360 C   0  0  0  0  0  0  0  0  0  0  0  0
   11.4620    0.8140    9.2560 C   0  0  0  0  0  0  0  0  0  0  0  0
   10.7450    1.7560    9.9880 C   0  0  0  0  0  0  0  0  0  0  0  0
   11.3560    2.8150   10.6030 C   0  0  0  0  0  0  0  0  0  0  0  0
   12.7230    2.9280   10.4760 C   0  0  0  0  0  0  0  0  0  0  0  0
   13.3300    4.0050   11.1030 O   0  0  0  0  0  0  0  0  0  0  0  0
   10.5890    3.7900   11.3640 C   0  0  0  0  0  0  0  0  0  0  0  0
   10.9700    5.0020   11.5570 N   0  0  0  0  0  0  0  0  0  0  0  0
   10.1360    5.8850   12.3230 N   0  0  0  0  0  0  0  0  0  0  0  0
    9.7330    7.0650   11.7120 C   0  0  0  0  0  0  0  0  0  0  0  0
   10.6450    7.7350   11.0960 O   0  0  0  0  0  0  0  0  0  0  0  0
    8.4130    7.6650   11.6660 C   0  0  0  0  0  0  0  0  0  0  0  0
    7.8560    8.2690   10.5670 N   0  0  0  0  0  0  0  0  0  0  0  0
    6.6610    8.6960   10.8660 N   0  0  0  0  0  0  0  0  0  0  0  0
    6.3510    8.4220   12.1220 N   0  0  0  0  0  0  0  0  0  0  0  0
    7.4140    7.7830   12.6380 C   0  0  0  0  0  0  0  0  0  0  0  0
    7.5700    7.3030   14.0150 C   0  0  0  0  0  0  0  0  0  0  0  0
    7.1330    8.2550   15.0390 N   0  0  0  0  0  0  0  0  0  0  0  0
    8.2640    8.5110   15.9520 C   0  0  0  0  0  0  0  0  0  0  0  0
    8.8930    7.2210   16.3500 C   0  0  0  0  0  0  0  0  0  0  0  0
    7.9380    6.3810   16.8660 O   0  0  0  0  0  0  0  0  0  0  0  0
    6.7210    6.9730   17.0820 C   0  0  0  0  0  0  0  0  0  0  0  0
    6.0920    7.5960   15.8630 C   0  0  0  0  0  0  0  0  0  0  0  0
    5.1290    8.7940   12.7360 C   0  0  0  0  0  0  0  0  0  0  0  0
    4.9170    9.5550   13.8300 N   0  0  0  0  0  0  0  0  0  0  0  0
    3.6340    9.6620   14.0530 O   0  0  0  0  0  0  0  0  0  0  0  0
    2.9570    8.9990   13.1500 N   0  0  0  0  0  0  0  0  0  0  0  0
    3.8540    8.4480   12.3150 C   0  0  0  0  0  0  0  0  0  0  0  0
    3.5160    7.6510   11.2000 N   0  0  0  0  0  0  0  0  0  0  0  0
   10.5750   -0.6390    8.4210 B   0  0  0  0  0  0  0  0  0  0  0  0
   13.5390   -0.0090    8.4020 O   0  0  0  0  0  0  0  0  0  0  0  0
    9.6830    1.6570   10.0790 H   0  0  0  0  0  0  0  0  0  0  0  0
   13.8070    4.7110   10.5560 H   0  0  0  0  0  0  0  0  0  0  0  0
    9.6380    3.4960   11.8020 H   0  0  0  0  0  0  0  0  0  0  0  0
    9.9030    5.5590   13.2910 H   0  0  0  0  0  0  0  0  0  0  0  0
    8.6090    7.0580   14.2460 H   0  0  0  0  0  0  0  0  0  0  0  0
    6.9380    6.4180   14.1690 H   0  0  0  0  0  0  0  0  0  0  0  0
    8.9780    9.2210   15.5050 H   0  0  0  0  0  0  0  0  0  0  0  0
    7.8270    8.9930   16.8460 H   0  0  0  0  0  0  0  0  0  0  0  0
    9.4200    6.7120   15.5250 H   0  0  0  0  0  0  0  0  0  0  0  0
    9.6150    7.4320   17.1930 H   0  0  0  0  0  0  0  0  0  0  0  0
    6.0220    6.1380   17.3930 H   0  0  0  0  0  0  0  0  0  0  0  0
    6.7630    7.6680   17.9470 H   0  0  0  0  0  0  0  0  0  0  0  0
    5.4210    8.3860   16.2240 H   0  0  0  0  0  0  0  0  0  0  0  0
    5.5450    6.8370   15.3120 H   0  0  0  0  0  0  0  0  0  0  0  0
    3.7020    6.6320   11.2380 H   0  0  0  0  0  0  0  0  0  0  0  0
    3.0880    8.0430   10.3420 H   0  0  0  0  0  0  0  0  0  0  0  0
   14.4020   -0.3990    8.7430 H   0  0  0  0  0  0  0  0  0  0  0  0
  1  2  1  0  0  0  0
  2  7  1  0  0  0  0
  3  4  1  0  0  0  0
  3  2  2  0  0  0  0
  4  5  2  0  0  0  0
  5 34  1  0  0  0  0
  5  6  1  0  0  0  0
  6  9  1  0  0  0  0
  7  6  2  0  0  0  0
  7  8  1  0  0  0  0
  9 10  2  0  0  0  0
  9 36  1  0  0  0  0
 10 11  1  0  0  0  0
 11 37  1  0  0  0  0
 12 11  1  0  0  0  0
 13 12  2  0  0  0  0
 14 12  1  0  0  0  0
 14 18  2  0  0  0  0
 15 16  2  0  0  0  0
 15 14  1  0  0  0  0
 16 17  1  0  0  0  0
 17 18  1  0  0  0  0
 17 26  1  0  0  0  0
 18 19  1  0  0  0  0
 19 39  1  0  0  0  0
 19 38  1  0  0  0  0
 19 20  1  0  0  0  0
 20 25  1  0  0  0  0
 20 21  1  0  0  0  0
 21 22  1  0  0  0  0
 21 41  1  0  0  0  0
 22 23  1  0  0  0  0
 22 43  1  0  0  0  0
 23 24  1  0  0  0  0
 24 44  1  0  0  0  0
 24 45  1  0  0  0  0
 25 46  1  0  0  0  0
 25 24  1  0  0  0  0
 26 27  2  0  0  0  0
 27 28  1  0  0  0  0
 29 28  1  0  0  0  0
 30 26  1  0  0  0  0
 30 29  2  0  0  0  0
 31 48  1  0  0  0  0
 31 30  1  0  0  0  0
 32  4  1  0  0  0  0
 33 50  1  0  0  0  0
 33  3  1  0  0  0  0
 35  8  1  0  0  0  0
 40 21  1  0  0  0  0
 42 22  1  0  0  0  0
 47 25  1  0  0  0  0
 49 31  1  0  0  0  0
M  END
>  <Pose>
1

>  <Score>
-8.48

$$$$
