
 OpenBabel03172210413D

 52 55  0  0  0  0  0  0  0  0999 V2000
   20.0110    4.8910   15.9850 B   0  0  0  0  0  0  0  0  0  0  0  0
   20.3170    3.8180   14.4340 C   0  0  0  0  0  0  0  0  0  0  0  0
   21.4060    2.9680   14.4470 C   0  0  0  0  0  0  0  0  0  0  0  0
   21.6310    2.1920   13.3310 C   0  0  0  0  0  0  0  0  0  0  0  0
   20.7980    2.2540   12.2280 C   0  0  0  0  0  0  0  0  0  0  0  0
   19.7120    3.0970   12.2060 C   0  0  0  0  0  0  0  0  0  0  0  0
   19.4880    3.8730   13.3240 C   0  0  0  0  0  0  0  0  0  0  0  0
   18.4070    4.7220   13.3250 O   0  0  0  0  0  0  0  0  0  0  0  0
   18.8530    3.1430   11.0340 C   0  0  0  0  0  0  0  0  0  0  0  0
   17.6420    2.7460   11.0180 N   0  0  0  0  0  0  0  0  0  0  0  0
   16.8290    2.8000    9.8690 N   0  0  0  0  0  0  0  0  0  0  0  0
   15.4200    2.6840   10.0130 C   0  0  0  0  0  0  0  0  0  0  0  0
   14.7210    1.8420    9.2540 N   0  0  0  0  0  4  0  0  0  0  0  0
   13.3690    1.7030    9.3630 C   0  0  0  0  0  0  0  0  0  0  0  0
   12.7730    2.4620   10.2790 N   0  0  0  0  0  0  0  0  0  0  0  0
   13.4040    3.3410   11.0890 C   0  0  0  0  0  0  0  0  0  0  0  0
   14.7580    3.4180   10.9150 N   0  0  0  0  0  0  0  0  0  0  0  0
   12.7320    4.1240   12.0450 N   0  0  0  0  0  0  0  0  0  0  0  0
   11.4680    3.7120   12.5710 C   0  0  0  0  0  0  0  0  0  0  0  0
   10.5100    4.8980   12.4250 C   0  0  0  0  0  0  0  0  0  0  0  0
   11.0990    5.9610   11.7750 O   0  0  0  0  0  0  0  0  0  0  0  0
   12.2420    6.4310   12.3740 C   0  0  0  0  0  0  0  0  0  0  0  0
   13.3080    5.3500   12.5060 C   0  0  0  0  0  0  0  0  0  0  0  0
   12.6470    0.8050    8.5480 N   0  0  0  0  0  0  0  0  0  0  0  0
   11.4630    1.2390    7.8610 C   0  0  0  0  0  0  0  0  0  0  0  0
   10.3930    0.1840    8.0940 C   0  0  0  0  0  0  0  0  0  0  0  0
   10.8760   -1.1020    7.8850 O   0  0  0  0  0  0  0  0  0  0  0  0
   11.9010   -1.4490    8.7360 C   0  0  0  0  0  0  0  0  0  0  0  0
   13.0990   -0.5500    8.4040 C   0  0  0  0  0  0  0  0  0  0  0  0
   23.1380    1.0110   13.3350 B   0  0  0  0  0  0  0  0  0  0  0  0
   22.2340    2.9190   15.5660 O   0  0  0  0  0  0  0  0  0  0  0  0
   20.9930    1.6300   11.3490 H   0  0  0  0  0  0  0  0  0  0  0  0
   17.7040    4.6740   14.0690 H   0  0  0  0  0  0  0  0  0  0  0  0
   19.2620    3.5350   10.1180 H   0  0  0  0  0  0  0  0  0  0  0  0
   17.3100    2.9250    8.9720 H   0  0  0  0  0  0  0  0  0  0  0  0
   11.5900    3.5550   13.6690 H   0  0  0  0  0  0  0  0  0  0  0  0
   11.0840    2.8110   12.0610 H   0  0  0  0  0  0  0  0  0  0  0  0
   10.0600    5.1860   13.3800 H   0  0  0  0  0  0  0  0  0  0  0  0
    9.6700    4.5440   11.7730 H   0  0  0  0  0  0  0  0  0  0  0  0
   12.0440    6.9160   13.3520 H   0  0  0  0  0  0  0  0  0  0  0  0
   12.6680    7.2170   11.7170 H   0  0  0  0  0  0  0  0  0  0  0  0
   14.2220    5.5980   11.9280 H   0  0  0  0  0  0  0  0  0  0  0  0
   13.6190    5.3170   13.5700 H   0  0  0  0  0  0  0  0  0  0  0  0
   11.0430    2.1930    8.2730 H   0  0  0  0  0  0  0  0  0  0  0  0
   11.6200    1.3040    6.7650 H   0  0  0  0  0  0  0  0  0  0  0  0
    9.9670    0.3050    9.1040 H   0  0  0  0  0  0  0  0  0  0  0  0
    9.5800    0.3520    7.3560 H   0  0  0  0  0  0  0  0  0  0  0  0
   11.6130   -1.2030    9.7730 H   0  0  0  0  0  0  0  0  0  0  0  0
   12.1400   -2.5080    8.5850 H   0  0  0  0  0  0  0  0  0  0  0  0
   13.2980   -0.7250    7.3120 H   0  0  0  0  0  0  0  0  0  0  0  0
   13.9680   -0.7920    9.0350 H   0  0  0  0  0  0  0  0  0  0  0  0
   21.8480    2.6570   16.4570 H   0  0  0  0  0  0  0  0  0  0  0  0
  2  3  1  0  0  0  0
  2  1  1  0  0  0  0
  3 31  1  0  0  0  0
  4 30  1  0  0  0  0
  4  3  2  0  0  0  0
  5  4  1  0  0  0  0
  6  5  2  0  0  0  0
  6  7  1  0  0  0  0
  7  8  1  0  0  0  0
  7  2  2  0  0  0  0
  8 33  1  0  0  0  0
  9  6  1  0  0  0  0
 10  9  2  0  0  0  0
 11 12  1  0  0  0  0
 11 10  1  0  0  0  0
 12 17  1  0  0  0  0
 13 14  2  0  0  0  0
 13 12  2  0  0  0  0
 14 15  1  0  0  0  0
 15 16  2  0  0  0  0
 16 18  1  0  0  0  0
 17 16  1  0  0  0  0
 18 23  1  0  0  0  0
 18 19  1  0  0  0  0
 19 36  1  0  0  0  0
 20 19  1  0  0  0  0
 20 38  1  0  0  0  0
 21 22  1  0  0  0  0
 21 20  1  0  0  0  0
 22 23  1  0  0  0  0
 22 40  1  0  0  0  0
 23 43  1  0  0  0  0
 24 14  1  0  0  0  0
 25 26  1  0  0  0  0
 25 44  1  0  0  0  0
 25 24  1  0  0  0  0
 26 46  1  0  0  0  0
 27 26  1  0  0  0  0
 27 28  1  0  0  0  0
 28 48  1  0  0  0  0
 29 24  1  0  0  0  0
 29 28  1  0  0  0  0
 29 51  1  0  0  0  0
 31 52  1  0  0  0  0
 32  5  1  0  0  0  0
 34  9  1  0  0  0  0
 35 11  1  0  0  0  0
 37 19  1  0  0  0  0
 39 20  1  0  0  0  0
 41 22  1  0  0  0  0
 42 23  1  0  0  0  0
 45 25  1  0  0  0  0
 47 26  1  0  0  0  0
 49 28  1  0  0  0  0
 50 29  1  0  0  0  0
M  END
>  <Pose>
1

>  <Score>
-6.74

$$$$
