
 OpenBabel03172210413D

 50 53  0  0  0  0  0  0  0  0999 V2000
   10.9690    0.0210    8.9360 B   0  0  0  0  0  0  0  0  0  0  0  0
   11.4490    1.6850    9.7140 C   0  0  0  0  0  0  0  0  0  0  0  0
   12.6770    1.8400   10.3190 C   0  0  0  0  0  0  0  0  0  0  0  0
   13.0040    3.0840   10.9120 C   0  0  0  0  0  0  0  0  0  0  0  0
   12.0680    4.0750   10.8520 C   0  0  0  0  0  0  0  0  0  0  0  0
   10.8070    3.9610   10.2500 C   0  0  0  0  0  0  0  0  0  0  0  0
   10.5460    2.7300    9.6890 C   0  0  0  0  0  0  0  0  0  0  0  0
    9.9050    5.0600   10.2650 C   0  0  0  0  0  0  0  0  0  0  0  0
    9.0760    5.4430   11.0140 N   0  0  0  0  0  0  0  0  0  0  0  0
    8.2310    5.7710   11.8510 N   0  0  0  0  0  0  0  0  0  0  0  0
    7.3010    6.1340   12.7690 C   0  0  0  0  0  0  0  0  0  0  0  0
    6.1200    5.8720   12.9880 O   0  0  0  0  0  0  0  0  0  0  0  0
    7.8910    7.1320   13.7890 C   0  0  0  0  0  0  0  0  0  0  0  0
    7.0860    8.2730   13.9390 N   0  0  0  0  0  0  0  0  0  0  0  0
    7.0080    8.9040   15.1710 C   0  0  0  0  0  0  0  0  0  0  0  0
    6.1580    9.9370   15.0330 C   0  0  0  0  0  0  0  0  0  0  0  0
    5.7390    9.9300   13.7780 N   0  0  0  0  0  0  0  0  0  0  0  0
    6.3190    8.8830   13.0750 C   0  0  0  0  0  0  0  0  0  0  0  0
    5.9280    8.7510   11.6830 C   0  0  0  0  0  0  0  0  0  0  0  0
    6.7990    9.0410   10.6340 N   0  0  0  0  0  0  0  0  0  0  0  0
    6.2360    8.8260    9.5150 O   0  0  0  0  0  0  0  0  0  0  0  0
    5.0460    8.4100    9.6870 N   0  0  0  0  0  0  0  0  0  0  0  0
    4.8130    8.3480   11.0430 C   0  0  0  0  0  0  0  0  0  0  0  0
    3.5830    7.8990   11.5680 N   0  0  0  0  0  4  0  0  0  0  0  0
    5.8400   10.7910   16.0790 C   0  0  0  0  0  0  0  0  0  0  0  0
    6.4440   10.5310   17.2850 C   0  0  0  0  0  0  0  0  0  0  0  0
    7.3270    9.4860   17.4810 C   0  0  0  0  0  0  0  0  0  0  0  0
    7.6090    8.6590   16.3960 C   0  0  0  0  0  0  0  0  0  0  0  0
   14.2420    3.2100   11.5140 O   0  0  0  0  0  0  0  0  0  0  0  0
   14.9470    4.4030   11.5480 C   0  0  0  0  0  0  0  0  0  0  0  0
   16.4420    4.2930   11.4540 C   0  0  0  0  0  0  0  0  0  0  0  0
   13.6140    0.8510   10.3860 O   0  0  0  0  0  0  0  0  0  0  0  0
   12.2770    5.0310   11.3000 H   0  0  0  0  0  0  0  0  0  0  0  0
    9.5730    2.5730    9.1810 H   0  0  0  0  0  0  0  0  0  0  0  0
    9.9300    5.7960    9.3840 H   0  0  0  0  0  0  0  0  0  0  0  0
    8.0230    7.0080   11.2170 H   0  0  0  0  0  0  0  0  0  0  0  0
    8.8740    7.4710   13.3120 H   0  0  0  0  0  0  0  0  0  0  0  0
    8.1190    6.5690   14.6750 H   0  0  0  0  0  0  0  0  0  0  0  0
    3.2890    7.0040   11.0220 H   0  0  0  0  0  0  0  0  0  0  0  0
    2.8370    8.5680   11.3420 H   0  0  0  0  0  0  0  0  0  0  0  0
    3.6820    7.5530   12.5190 H   0  0  0  0  0  0  0  0  0  0  0  0
    5.1490   11.6060   15.8930 H   0  0  0  0  0  0  0  0  0  0  0  0
    6.2180   11.1890   18.1470 H   0  0  0  0  0  0  0  0  0  0  0  0
    7.7710    9.3230   18.4500 H   0  0  0  0  0  0  0  0  0  0  0  0
    8.2900    7.8350   16.4900 H   0  0  0  0  0  0  0  0  0  0  0  0
   14.5710    5.0960   10.7170 H   0  0  0  0  0  0  0  0  0  0  0  0
   14.7210    4.9990   12.4850 H   0  0  0  0  0  0  0  0  0  0  0  0
   16.8910    4.8170   12.3100 H   0  0  0  0  0  0  0  0  0  0  0  0
   16.7450    3.2530   11.4200 H   0  0  0  0  0  0  0  0  0  0  0  0
   16.8050    4.8720   10.5510 H   0  0  0  0  0  0  0  0  0  0  0  0
  1  2  1  0  0  0  0
  2  3  1  0  0  0  0
  3 32  1  0  0  0  0
  3  4  2  0  0  0  0
  4 29  1  0  0  0  0
  5  4  1  0  0  0  0
  5 33  1  0  0  0  0
  6  8  1  0  0  0  0
  6  5  2  0  0  0  0
  7  2  2  0  0  0  0
  7  6  1  0  0  0  0
  8  9  1  0  0  0  0
  9 10  1  0  0  0  0
 10 11  1  0  0  0  0
 11 12  2  0  0  0  0
 11 13  1  0  0  0  0
 13 14  1  0  0  0  0
 13 38  1  0  0  0  0
 14 15  1  0  0  0  0
 15 28  1  0  0  0  0
 16 15  2  0  0  0  0
 16 25  1  0  0  0  0
 17 16  1  0  0  0  0
 18 17  2  0  0  0  0
 18 14  1  0  0  0  0
 19 18  1  0  0  0  0
 20 19  2  0  0  0  0
 21 22  1  0  0  0  0
 21 20  1  0  0  0  0
 22 23  2  0  0  0  0
 23 24  1  0  0  0  0
 23 19  1  0  0  0  0
 24 41  1  0  0  0  0
 25 26  2  0  0  0  0
 26 27  1  0  0  0  0
 26 43  1  0  0  0  0
 27 44  1  0  0  0  0
 28 45  1  0  0  0  0
 28 27  2  0  0  0  0
 29 30  1  0  0  0  0
 30 47  1  0  0  0  0
 31 30  1  0  0  0  0
 31 48  1  0  0  0  0
 34  7  1  0  0  0  0
 35  8  1  0  0  0  0
 36 10  1  0  0  0  0
 37 13  1  0  0  0  0
 39 24  1  0  0  0  0
 40 24  1  0  0  0  0
 42 25  1  0  0  0  0
 46 30  1  0  0  0  0
 49 31  1  0  0  0  0
 50 31  1  0  0  0  0
M  END
>  <Pose>
1

>  <Score>
-7.36

$$$$
