
 OpenBabel03172210413D

 56 59  0  0  0  0  0  0  0  0999 V2000
   10.5840   -0.8420    8.7950 B   0  0  0  0  0  0  0  0  0  0  0  0
   12.1770    0.1850    8.9880 C   0  0  0  0  0  0  0  0  0  0  0  0
   13.2760   -0.0120    8.1600 C   0  0  0  0  0  0  0  0  0  0  0  0
   14.4300    0.7260    8.2940 C   0  0  0  0  0  0  0  0  0  0  0  0
   14.4640    1.6770    9.2860 C   0  0  0  0  0  0  0  0  0  0  0  0
   13.3880    1.9000   10.1300 C   0  0  0  0  0  0  0  0  0  0  0  0
   12.2530    1.1380    9.9600 C   0  0  0  0  0  0  0  0  0  0  0  0
   13.3950    2.8980   11.1880 C   0  0  0  0  0  0  0  0  0  0  0  0
   12.3200    3.2550   11.7870 N   0  0  0  0  0  0  0  0  0  0  0  0
   12.2350    4.1870   12.7930 N   0  0  0  0  0  0  0  0  0  0  0  0
   11.9710    5.5610   12.5990 C   0  0  0  0  0  0  0  0  0  0  0  0
   12.8460    6.3950   12.9020 O   0  0  0  0  0  0  0  0  0  0  0  0
   10.7030    6.0300   12.0540 C   0  0  0  0  0  0  0  0  0  0  0  0
   10.2720    6.0020   10.7860 N   0  0  0  0  0  0  0  0  0  0  0  0
    9.0710    6.5230   10.7190 N   0  0  0  0  0  0  0  0  0  0  0  0
    8.6570    6.9180   11.9370 N   0  0  0  0  0  0  0  0  0  0  0  0
    9.6520    6.6230   12.7780 C   0  0  0  0  0  0  0  0  0  0  0  0
    9.7200    6.8110   14.2280 C   0  0  0  0  0  0  0  0  0  0  0  0
    9.1600    8.0290   14.7560 N   0  0  0  0  0  0  0  0  0  0  0  0
    7.8890    7.6160   15.3660 C   0  0  0  0  0  0  0  0  0  0  0  0
    8.0140    6.6420   16.4690 C   0  0  0  0  0  0  0  0  0  0  0  0
    9.1880    6.8290   17.1820 O   0  0  0  0  0  0  0  0  0  0  0  0
    9.4860    8.1740   17.1790 C   0  0  0  0  0  0  0  0  0  0  0  0
   10.0300    8.5480   15.8140 C   0  0  0  0  0  0  0  0  0  0  0  0
    7.3730    7.5050   12.1740 C   0  0  0  0  0  0  0  0  0  0  0  0
    7.0770    8.7140   12.6780 N   0  0  0  0  0  0  0  0  0  0  0  0
    5.7730    8.8540   12.7200 O   0  0  0  0  0  0  0  0  0  0  0  0
    5.1820    7.7770   12.2620 N   0  0  0  0  0  0  0  0  0  0  0  0
    6.1570    6.9190   11.9130 C   0  0  0  0  0  0  0  0  0  0  0  0
    5.9090    5.6340   11.3670 N   0  0  0  0  0  0  0  0  0  0  0  0
   15.4770    0.4770    7.4390 O   0  0  0  0  0  0  0  0  0  0  0  0
   16.6480    1.2160    7.3130 C   0  0  0  0  0  0  0  0  0  0  0  0
   17.5970    1.1000    8.4610 C   0  0  0  0  0  0  0  0  0  0  0  0
   13.1840   -0.9890    7.1730 O   0  0  0  0  0  0  0  0  0  0  0  0
   15.3590    2.2660    9.4080 H   0  0  0  0  0  0  0  0  0  0  0  0
   11.3930    1.3020   10.6190 H   0  0  0  0  0  0  0  0  0  0  0  0
   14.3290    3.3560   11.4830 H   0  0  0  0  0  0  0  0  0  0  0  0
   12.3790    3.8400   13.7850 H   0  0  0  0  0  0  0  0  0  0  0  0
   10.7930    6.7740   14.5580 H   0  0  0  0  0  0  0  0  0  0  0  0
    9.2680    5.9190   14.7650 H   0  0  0  0  0  0  0  0  0  0  0  0
    7.3960    8.5280   15.7040 H   0  0  0  0  0  0  0  0  0  0  0  0
    7.3350    7.1160   14.5220 H   0  0  0  0  0  0  0  0  0  0  0  0
    8.1050    5.6130   16.0090 H   0  0  0  0  0  0  0  0  0  0  0  0
    7.1230    6.5860   17.1280 H   0  0  0  0  0  0  0  0  0  0  0  0
   10.2750    8.4470   17.9110 H   0  0  0  0  0  0  0  0  0  0  0  0
    8.5500    8.7370   17.3630 H   0  0  0  0  0  0  0  0  0  0  0  0
   11.0330    8.1060   15.7410 H   0  0  0  0  0  0  0  0  0  0  0  0
   10.0240    9.6490   15.7830 H   0  0  0  0  0  0  0  0  0  0  0  0
    4.9590    5.2310   11.2360 H   0  0  0  0  0  0  0  0  0  0  0  0
    6.7050    5.0160   11.0610 H   0  0  0  0  0  0  0  0  0  0  0  0
   17.1960    0.9590    6.3700 H   0  0  0  0  0  0  0  0  0  0  0  0
   16.3570    2.2930    7.2200 H   0  0  0  0  0  0  0  0  0  0  0  0
   17.7840    2.0930    8.9580 H   0  0  0  0  0  0  0  0  0  0  0  0
   18.5920    0.6800    8.1830 H   0  0  0  0  0  0  0  0  0  0  0  0
   17.1370    0.4640    9.2490 H   0  0  0  0  0  0  0  0  0  0  0  0
   13.9810   -1.5820    6.9770 H   0  0  0  0  0  0  0  0  0  0  0  0
  1  2  1  0  0  0  0
  2  7  1  0  0  0  0
  3  4  1  0  0  0  0
  3  2  2  0  0  0  0
  4  5  2  0  0  0  0
  5 35  1  0  0  0  0
  5  6  1  0  0  0  0
  6  8  1  0  0  0  0
  7  6  2  0  0  0  0
  7 36  1  0  0  0  0
  8 37  1  0  0  0  0
  8  9  2  0  0  0  0
  9 10  1  0  0  0  0
 10 38  1  0  0  0  0
 11 10  1  0  0  0  0
 11 12  2  0  0  0  0
 13 11  1  0  0  0  0
 13 17  2  0  0  0  0
 14 13  1  0  0  0  0
 15 14  2  0  0  0  0
 15 16  1  0  0  0  0
 16 25  1  0  0  0  0
 16 17  1  0  0  0  0
 17 18  1  0  0  0  0
 18 39  1  0  0  0  0
 18 19  1  0  0  0  0
 18 40  1  0  0  0  0
 19 20  1  0  0  0  0
 19 24  1  0  0  0  0
 20 41  1  0  0  0  0
 20 21  1  0  0  0  0
 21 44  1  0  0  0  0
 21 22  1  0  0  0  0
 23 22  1  0  0  0  0
 23 46  1  0  0  0  0
 23 45  1  0  0  0  0
 24 23  1  0  0  0  0
 25 26  2  0  0  0  0
 26 27  1  0  0  0  0
 28 27  1  0  0  0  0
 29 25  1  0  0  0  0
 29 28  2  0  0  0  0
 30 29  1  0  0  0  0
 31  4  1  0  0  0  0
 32 31  1  0  0  0  0
 32 33  1  0  0  0  0
 33 53  1  0  0  0  0
 33 55  1  0  0  0  0
 34  3  1  0  0  0  0
 42 20  1  0  0  0  0
 43 21  1  0  0  0  0
 47 24  1  0  0  0  0
 48 24  1  0  0  0  0
 49 30  1  0  0  0  0
 50 30  1  0  0  0  0
 51 32  1  0  0  0  0
 52 32  1  0  0  0  0
 54 33  1  0  0  0  0
 56 34  1  0  0  0  0
M  END
>  <Pose>
1

>  <Score>
-8.17

$$$$
