
 OpenBabel03172210413D

 53 56  0  0  0  0  0  0  0  0999 V2000
   15.7020    2.0640    8.8320 B   0  0  0  0  0  0  0  0  0  0  0  0
   13.8300    1.6900    9.1190 C   0  0  0  0  0  0  0  0  0  0  0  0
   13.3380    0.4540    8.7580 C   0  0  0  0  0  0  0  0  0  0  0  0
   12.0200    0.1550    8.9690 C   0  0  0  0  0  0  0  0  0  0  0  0
   11.2240    1.1200    9.5400 C   0  0  0  0  0  0  0  0  0  0  0  0
   11.6660    2.3750    9.9180 C   0  0  0  0  0  0  0  0  0  0  0  0
   13.0660    2.6260    9.6720 C   0  0  0  0  0  0  0  0  0  0  0  0
   10.9650    3.4000   10.4880 C   0  0  0  0  0  0  0  0  0  0  0  0
    9.7460    3.9340   10.6870 N   0  0  0  0  0  0  0  0  0  0  0  0
   10.2680    5.1760   11.5430 N   0  0  0  0  0  0  0  0  0  0  0  0
    9.3060    6.2020   11.2080 C   0  0  0  0  0  0  0  0  0  0  0  0
    9.6640    7.2150   10.6080 O   0  0  0  0  0  0  0  0  0  0  0  0
    7.9020    6.0070   11.4920 C   0  0  0  0  0  0  0  0  0  0  0  0
    6.8820    5.5700   10.8400 N   0  0  0  0  0  0  0  0  0  0  0  0
    5.7690    6.0550   11.3650 N   0  0  0  0  0  0  0  0  0  0  0  0
    6.0850    6.8250   12.3960 N   0  0  0  0  0  0  0  0  0  0  0  0
    7.3940    6.8690   12.5970 C   0  0  0  0  0  0  0  0  0  0  0  0
    8.2700    7.6270   13.4430 C   0  0  0  0  0  0  0  0  0  0  0  0
    8.7760    8.9060   12.9400 N   0  0  0  0  0  0  0  0  0  0  0  0
    8.7790    9.9220   13.9410 C   0  0  0  0  0  0  0  0  0  0  0  0
    7.4180   10.3760   14.3850 C   0  0  0  0  0  0  0  0  0  0  0  0
    6.8460   11.1590   13.3960 O   0  0  0  0  0  0  0  0  0  0  0  0
    7.3930   10.8530   12.1450 C   0  0  0  0  0  0  0  0  0  0  0  0
    7.6320    9.3830   12.0490 C   0  0  0  0  0  0  0  0  0  0  0  0
    5.1380    7.8050   12.8880 C   0  0  0  0  0  0  0  0  0  0  0  0
    5.0800    8.5370   13.9210 N   0  0  0  0  0  0  0  0  0  0  0  0
    3.9620    9.2610   13.9710 O   0  0  0  0  0  0  0  0  0  0  0  0
    3.2940    8.9660   12.9150 N   0  0  0  0  0  0  0  0  0  0  0  0
    3.9330    8.0650   12.1670 C   0  0  0  0  0  0  0  0  0  0  0  0
    3.5170    7.4850   10.9570 N   0  0  0  0  0  0  0  0  0  0  0  0
   11.4870   -1.0950    8.6310 O   0  0  0  0  0  0  0  0  0  0  0  0
   10.1390   -1.1580    8.1240 C   0  0  0  0  0  0  0  0  0  0  0  0
   14.1930   -0.4860    8.1760 O   0  0  0  0  0  0  0  0  0  0  0  0
   10.1630    0.8650    9.7170 H   0  0  0  0  0  0  0  0  0  0  0  0
   13.4720    3.5970    9.9690 H   0  0  0  0  0  0  0  0  0  0  0  0
   11.6820    4.1790   11.0400 H   0  0  0  0  0  0  0  0  0  0  0  0
   11.0230    4.9630   12.0450 H   0  0  0  0  0  0  0  0  0  0  0  0
    8.0840    7.6930   14.5200 H   0  0  0  0  0  0  0  0  0  0  0  0
    9.2950    7.0280   13.4820 H   0  0  0  0  0  0  0  0  0  0  0  0
    9.3480    9.5610   14.8080 H   0  0  0  0  0  0  0  0  0  0  0  0
    9.3080   10.8570   13.5540 H   0  0  0  0  0  0  0  0  0  0  0  0
    6.7780    9.5790   14.7630 H   0  0  0  0  0  0  0  0  0  0  0  0
    7.5790   11.0830   15.2510 H   0  0  0  0  0  0  0  0  0  0  0  0
    8.1730   11.4960   11.7850 H   0  0  0  0  0  0  0  0  0  0  0  0
    6.5130   11.0470   11.4270 H   0  0  0  0  0  0  0  0  0  0  0  0
    7.7850    9.0820   11.0220 H   0  0  0  0  0  0  0  0  0  0  0  0
    6.7060    8.9410   12.5290 H   0  0  0  0  0  0  0  0  0  0  0  0
    3.3010    8.0400   10.1100 H   0  0  0  0  0  0  0  0  0  0  0  0
    3.4130    6.4210   10.8410 H   0  0  0  0  0  0  0  0  0  0  0  0
    9.8530   -2.1840    7.8610 H   0  0  0  0  0  0  0  0  0  0  0  0
    9.4600   -0.7530    8.9560 H   0  0  0  0  0  0  0  0  0  0  0  0
   10.0730   -0.4890    7.2700 H   0  0  0  0  0  0  0  0  0  0  0  0
   14.0050   -0.7760    7.1930 H   0  0  0  0  0  0  0  0  0  0  0  0
  1  2  1  0  0  0  0
  2  7  1  0  0  0  0
  3  4  1  0  0  0  0
  3  2  2  0  0  0  0
  4  5  2  0  0  0  0
  5 34  1  0  0  0  0
  5  6  1  0  0  0  0
  6  8  1  0  0  0  0
  7  6  2  0  0  0  0
  7 35  1  0  0  0  0
  8  9  1  0  0  0  0
  8 36  1  0  0  0  0
  9 10  1  0  0  0  0
 10 37  1  0  0  0  0
 11 13  1  0  0  0  0
 11 10  1  0  0  0  0
 12 11  2  0  0  0  0
 13 17  2  0  0  0  0
 14 15  2  0  0  0  0
 14 13  1  0  0  0  0
 15 16  1  0  0  0  0
 16 17  1  0  0  0  0
 16 25  1  0  0  0  0
 17 18  1  0  0  0  0
 18 39  1  0  0  0  0
 18 38  1  0  0  0  0
 19 18  1  0  0  0  0
 19 20  1  0  0  0  0
 20 21  1  0  0  0  0
 20 40  1  0  0  0  0
 21 42  1  0  0  0  0
 21 43  1  0  0  0  0
 22 21  1  0  0  0  0
 23 22  1  0  0  0  0
 24 23  1  0  0  0  0
 24 47  1  0  0  0  0
 24 19  1  0  0  0  0
 25 26  2  0  0  0  0
 26 27  1  0  0  0  0
 28 27  1  0  0  0  0
 29 25  1  0  0  0  0
 29 28  2  0  0  0  0
 30 29  1  0  0  0  0
 31  4  1  0  0  0  0
 32 31  1  0  0  0  0
 32 51  1  0  0  0  0
 33  3  1  0  0  0  0
 41 20  1  0  0  0  0
 44 23  1  0  0  0  0
 45 23  1  0  0  0  0
 46 24  1  0  0  0  0
 48 30  1  0  0  0  0
 49 30  1  0  0  0  0
 50 32  1  0  0  0  0
 52 32  1  0  0  0  0
 53 33  1  0  0  0  0
M  END
>  <Pose>
1

>  <Score>
-8.28

$$$$
