
 OpenBabel03172210413D

 47 50  0  0  1  0  0  0  0  0999 V2000
   14.6820    0.6560    8.0510 B   0  0  0  0  0  0  0  0  0  0  0  0
   14.3090    1.9710    9.4010 C   0  0  0  0  0  0  0  0  0  0  0  0
   13.0430    2.3330    9.6950 C   0  0  0  0  0  0  0  0  0  0  0  0
   12.7810    3.3550   10.6540 C   0  0  0  0  0  0  0  0  0  0  0  0
   13.8430    3.9480   11.2450 C   0  0  0  0  0  0  0  0  0  0  0  0
   15.1310    3.5710   10.9200 C   0  0  0  0  0  0  0  0  0  0  0  0
   15.3790    2.5900   10.0100 C   0  0  0  0  0  0  0  0  0  0  0  0
   11.4130    3.9010   10.5600 C   0  0  0  0  0  0  0  0  0  0  0  0
   11.0220    5.0380   11.2870 N   0  0  2  0  0  4  0  0  0  0  0  0
   11.7540    6.2030   11.2790 C   0  0  0  0  0  0  0  0  0  0  0  0
   11.0800    7.2830   11.9960 N   0  0  2  0  0  0  0  0  0  0  0  0
   10.8640    6.8330   13.3610 C   0  0  0  0  0  0  0  0  0  0  0  0
   10.1270    5.5870   13.4150 N   0  0  2  0  0  0  0  0  0  0  0  0
   10.7190    4.5450   12.6750 C   0  0  0  0  0  0  0  0  0  0  0  0
    8.7850    5.8400   12.9330 C   0  0  0  0  0  0  0  0  0  0  0  0
    8.9320    6.3500   11.5220 C   0  0  2  0  0  0  0  0  0  0  0  0
    9.6480    5.3130   10.7390 C   0  0  0  0  0  0  0  0  0  0  0  0
    9.7860    7.6130   11.4510 C   0  0  0  0  0  0  0  0  0  0  0  0
   11.9870    1.7440    9.0960 O   0  0  0  0  0  0  0  0  0  0  0  0
   11.8120    0.3150    9.0030 C   0  0  0  0  0  0  0  0  0  0  0  0
   10.4650   -0.1780    8.7310 C   0  0  0  0  0  0  0  0  0  0  0  0
    9.4680    0.0930    9.3860 O   0  0  0  0  0  0  0  0  0  0  0  0
   10.2980   -1.0000    7.6110 O   0  0  0  0  0  0  0  0  0  0  0  0
    9.0660   -1.5680    7.2550 C   0  0  0  0  0  0  0  0  0  0  0  0
   13.6880    4.7640   11.9480 H   0  0  0  0  0  0  0  0  0  0  0  0
   15.9720    4.1010   11.4210 H   0  0  0  0  0  0  0  0  0  0  0  0
   16.3830    2.2650    9.7900 H   0  0  0  0  0  0  0  0  0  0  0  0
   10.6340    3.1860   10.2790 H   0  0  0  0  0  0  0  0  0  0  0  0
   11.4600    4.4550    9.4270 H   0  0  0  0  0  0  0  0  0  0  0  0
   12.0560    6.5010   10.2710 H   0  0  0  0  0  0  0  0  0  0  0  0
   12.7000    6.0280   11.8550 H   0  0  0  0  0  0  0  0  0  0  0  0
   10.2120    7.5880   13.8540 H   0  0  0  0  0  0  0  0  0  0  0  0
   11.8050    6.7930   13.9290 H   0  0  0  0  0  0  0  0  0  0  0  0
   11.6300    4.1790   13.1630 H   0  0  0  0  0  0  0  0  0  0  0  0
    9.9670    3.7260   12.5170 H   0  0  0  0  0  0  0  0  0  0  0  0
    8.2720    4.8440   12.8470 H   0  0  0  0  0  0  0  0  0  0  0  0
    8.2340    6.5540   13.5420 H   0  0  0  0  0  0  0  0  0  0  0  0
    7.9500    6.5100   11.0200 H   0  0  0  0  0  0  0  0  0  0  0  0
    9.1410    4.3230   10.7060 H   0  0  0  0  0  0  0  0  0  0  0  0
    9.8660    5.6430    9.6830 H   0  0  0  0  0  0  0  0  0  0  0  0
    9.3080    8.3540   12.0920 H   0  0  0  0  0  0  0  0  0  0  0  0
    9.8450    7.8800   10.3870 H   0  0  0  0  0  0  0  0  0  0  0  0
   12.3060   -0.1530    9.9130 H   0  0  0  0  0  0  0  0  0  0  0  0
   12.4590   -0.0440    8.1370 H   0  0  0  0  0  0  0  0  0  0  0  0
    9.0810   -1.9090    6.1980 H   0  0  0  0  0  0  0  0  0  0  0  0
    8.2590   -0.8230    7.4360 H   0  0  0  0  0  0  0  0  0  0  0  0
    8.9330   -2.4520    7.9400 H   0  0  0  0  0  0  0  0  0  0  0  0
  1  2  1  0  0  0  0
  2  3  2  0  0  0  0
  2  7  1  0  0  0  0
  3  4  1  0  0  0  0
  4  5  2  0  0  0  0
  5 25  1  0  0  0  0
  6  5  1  0  0  0  0
  6 26  1  0  0  0  0
  7  6  2  0  0  0  0
  8  4  1  0  0  0  0
  9  8  1  6  0  0  0
  9 14  1  0  0  0  0
 10  9  1  0  0  0  0
 10 31  1  0  0  0  0
 11 10  1  6  0  0  0
 11 12  1  0  0  0  0
 12 13  1  0  0  0  0
 12 32  1  0  0  0  0
 12 33  1  0  0  0  0
 13 14  1  6  0  0  0
 14 34  1  0  0  0  0
 15 13  1  0  0  0  0
 15 37  1  0  0  0  0
 16 38  1  6  0  0  0
 16 15  1  0  0  0  0
 17  9  1  0  0  0  0
 17 16  1  0  0  0  0
 18 16  1  0  0  0  0
 18 11  1  0  0  0  0
 18 41  1  0  0  0  0
 19  3  1  0  0  0  0
 20 19  1  0  0  0  0
 20 43  1  0  0  0  0
 21 20  1  0  0  0  0
 21 22  2  0  0  0  0
 23 21  1  0  0  0  0
 24 46  1  0  0  0  0
 24 23  1  0  0  0  0
 24 47  1  0  0  0  0
 27  7  1  0  0  0  0
 28  8  1  0  0  0  0
 29  8  1  0  0  0  0
 30 10  1  0  0  0  0
 35 14  1  0  0  0  0
 36 15  1  0  0  0  0
 39 17  1  0  0  0  0
 40 17  1  0  0  0  0
 42 18  1  0  0  0  0
 44 20  1  0  0  0  0
 45 24  1  0  0  0  0
M  END
>  <Pose>
1

>  <Score>
-5.62

$$$$
