
 OpenBabel03172210413D

 52 55  0  0  0  0  0  0  0  0999 V2000
    8.8270    6.1660   13.9840 B   0  0  0  0  0  0  0  0  0  0  0  0
    7.2680    7.0630   13.3510 C   0  0  0  0  0  0  0  0  0  0  0  0
    6.0800    6.9860   14.0540 C   0  0  0  0  0  0  0  0  0  0  0  0
    4.9610    7.6480   13.5720 C   0  0  0  0  0  0  0  0  0  0  0  0
    5.0480    8.3690   12.4030 C   0  0  0  0  0  0  0  0  0  0  0  0
    6.2570    8.4230   11.7260 C   0  0  0  0  0  0  0  0  0  0  0  0
    7.3810    7.7770   12.1810 C   0  0  0  0  0  0  0  0  0  0  0  0
    8.6160    7.8550   11.4410 C   0  0  0  0  0  0  0  0  0  0  0  0
    9.7010    7.2280   11.7560 N   0  0  0  0  0  0  0  0  0  0  0  0
   10.8730    7.3670   10.9620 N   0  0  0  0  0  0  0  0  0  0  0  0
   12.0030    6.5450   11.1510 C   0  0  0  0  0  0  0  0  0  0  0  0
   11.9050    5.2320   10.9190 N   0  0  0  0  0  4  0  0  0  0  0  0
   12.9550    4.3850   11.0910 C   0  0  0  0  0  0  0  0  0  0  0  0
   14.1290    4.8870   11.5060 N   0  0  0  0  0  0  0  0  0  0  0  0
   14.2590    6.2000   11.7480 C   0  0  0  0  0  0  0  0  0  0  0  0
   13.1820    7.0200   11.5640 N   0  0  0  0  0  0  0  0  0  0  0  0
   15.5040    6.7420   12.1880 N   0  0  0  0  0  0  0  0  0  0  0  0
   16.1840    7.8250   11.5190 C   0  0  0  0  0  0  0  0  0  0  0  0
   17.6580    7.5210   11.3640 C   0  0  0  0  0  0  0  0  0  0  0  0
   18.0020    6.2790   11.8760 O   0  0  0  0  0  0  0  0  0  0  0  0
   17.6390    6.2290   13.2360 C   0  0  0  0  0  0  0  0  0  0  0  0
   16.1300    6.1770   13.3670 C   0  0  0  0  0  0  0  0  0  0  0  0
   12.7450    3.0190   10.8140 N   0  0  0  0  0  0  0  0  0  0  0  0
   11.4580    2.4350   11.0820 C   0  0  0  0  0  0  0  0  0  0  0  0
   11.0030    1.8310    9.7440 C   0  0  0  0  0  0  0  0  0  0  0  0
   11.9470    0.8500    9.4400 O   0  0  0  0  0  0  0  0  0  0  0  0
   13.1850    1.3960    9.1190 C   0  0  0  0  0  0  0  0  0  0  0  0
   13.7830    2.1780   10.2710 C   0  0  0  0  0  0  0  0  0  0  0  0
    3.9050    9.0150   11.9560 O   0  0  0  0  0  0  0  0  0  0  0  0
    5.9980    6.2590   15.2280 O   0  0  0  0  0  0  0  0  0  0  0  0
    4.0400    7.5770   14.1360 H   0  0  0  0  0  0  0  0  0  0  0  0
    6.2560    9.0070   10.8160 H   0  0  0  0  0  0  0  0  0  0  0  0
    8.6820    8.4730   10.5460 H   0  0  0  0  0  0  0  0  0  0  0  0
   10.9140    8.0900   10.2140 H   0  0  0  0  0  0  0  0  0  0  0  0
   16.1080    8.7240   12.1980 H   0  0  0  0  0  0  0  0  0  0  0  0
   15.7440    8.0730   10.5330 H   0  0  0  0  0  0  0  0  0  0  0  0
   18.2970    8.2740   11.8940 H   0  0  0  0  0  0  0  0  0  0  0  0
   17.9430    7.5070   10.2770 H   0  0  0  0  0  0  0  0  0  0  0  0
   18.0990    5.3040   13.6480 H   0  0  0  0  0  0  0  0  0  0  0  0
   18.0480    7.1230   13.7880 H   0  0  0  0  0  0  0  0  0  0  0  0
   15.8080    6.7810   14.2300 H   0  0  0  0  0  0  0  0  0  0  0  0
   15.8180    5.1000   13.4990 H   0  0  0  0  0  0  0  0  0  0  0  0
   10.7380    3.2120   11.4170 H   0  0  0  0  0  0  0  0  0  0  0  0
   11.5840    1.6290   11.8400 H   0  0  0  0  0  0  0  0  0  0  0  0
   10.0120    1.3870    9.7910 H   0  0  0  0  0  0  0  0  0  0  0  0
   11.0690    2.6820    9.0100 H   0  0  0  0  0  0  0  0  0  0  0  0
   13.1730    1.9840    8.1860 H   0  0  0  0  0  0  0  0  0  0  0  0
   13.8710    0.5280    8.9610 H   0  0  0  0  0  0  0  0  0  0  0  0
   14.0770    1.4400   11.0630 H   0  0  0  0  0  0  0  0  0  0  0  0
   14.6510    2.7500    9.9030 H   0  0  0  0  0  0  0  0  0  0  0  0
    3.0800    8.5400   11.6160 H   0  0  0  0  0  0  0  0  0  0  0  0
    5.4680    5.3980   15.2210 H   0  0  0  0  0  0  0  0  0  0  0  0
  2  1  1  0  0  0  0
  2  3  1  0  0  0  0
  3 30  1  0  0  0  0
  4  3  2  0  0  0  0
  4 31  1  0  0  0  0
  5  4  1  0  0  0  0
  6  7  1  0  0  0  0
  6  5  2  0  0  0  0
  7  2  2  0  0  0  0
  8  9  2  0  0  0  0
  8  7  1  0  0  0  0
 10 11  1  0  0  0  0
 10  9  1  0  0  0  0
 11 16  1  0  0  0  0
 12 13  2  0  0  0  0
 12 11  2  0  0  0  0
 13 14  1  0  0  0  0
 14 15  2  0  0  0  0
 15 17  1  0  0  0  0
 16 15  1  0  0  0  0
 17 22  1  0  0  0  0
 18 17  1  0  0  0  0
 18 35  1  0  0  0  0
 19 18  1  0  0  0  0
 19 20  1  0  0  0  0
 19 37  1  0  0  0  0
 20 21  1  0  0  0  0
 21 22  1  0  0  0  0
 21 39  1  0  0  0  0
 21 40  1  0  0  0  0
 22 42  1  0  0  0  0
 22 41  1  0  0  0  0
 23 24  1  0  0  0  0
 23 13  1  0  0  0  0
 24 43  1  0  0  0  0
 24 44  1  0  0  0  0
 25 45  1  0  0  0  0
 25 24  1  0  0  0  0
 26 25  1  0  0  0  0
 27 26  1  0  0  0  0
 27 28  1  0  0  0  0
 28 23  1  0  0  0  0
 28 49  1  0  0  0  0
 29  5  1  0  0  0  0
 32  6  1  0  0  0  0
 33  8  1  0  0  0  0
 34 10  1  0  0  0  0
 36 18  1  0  0  0  0
 38 19  1  0  0  0  0
 46 25  1  0  0  0  0
 47 27  1  0  0  0  0
 48 27  1  0  0  0  0
 50 28  1  0  0  0  0
 51 29  1  0  0  0  0
 52 30  1  0  0  0  0
M  END
>  <Pose>
1

>  <Score>
-6.67

$$$$
