
 OpenBabel03172210413D

 46 49  0  0  1  0  0  0  0  0999 V2000
   12.5030   -0.9560    8.3500 B   0  0  0  0  0  0  0  0  0  0  0  0
   12.0240    0.7460    9.0620 C   0  0  0  0  0  0  0  0  0  0  0  0
   12.9650    1.7690    9.0260 C   0  0  0  0  0  0  0  0  0  0  0  0
   12.5970    2.9810    9.5410 C   0  0  0  0  0  0  0  0  0  0  0  0
   11.3670    3.2640   10.0930 C   0  0  0  0  0  0  0  0  0  0  0  0
   10.4500    2.2090   10.1100 C   0  0  0  0  0  0  0  0  0  0  0  0
   10.7740    0.9660    9.6020 C   0  0  0  0  0  0  0  0  0  0  0  0
   11.0030    4.5300   10.6250 N   0  0  0  0  0  0  0  0  0  0  0  0
   11.2860    4.9490   11.9780 C   0  0  0  0  0  0  0  0  0  0  0  0
   11.4680    6.4420   11.8090 C   0  0  1  0  0  0  0  0  0  0  0  0
   10.2860    6.7830   10.9190 C   0  0  0  0  0  0  0  0  0  0  0  0
   10.3190    5.6070   10.0090 C   0  0  0  0  0  0  0  0  0  0  0  0
    9.8110    5.5850    8.8680 O   0  0  0  0  0  0  0  0  0  0  0  0
   11.4130    7.1590   13.0990 C   0  0  0  0  0  0  0  0  0  0  0  0
   11.8420    8.3330   13.2100 O   0  0  0  0  0  0  0  0  0  0  0  0
   10.8650    6.5050   14.2220 N   0  0  0  0  0  0  0  0  0  0  0  0
    9.6340    6.9650   14.8180 C   0  0  0  0  0  0  0  0  0  0  0  0
    8.8590    7.8120   13.8690 C   0  0  0  0  0  0  0  0  0  0  0  0
    7.8390    7.4320   13.0590 N   0  0  0  0  0  0  0  0  0  0  0  0
    7.4060    8.4940   12.3600 C   0  0  0  0  0  0  0  0  0  0  0  0
    8.1850    9.5300   12.7620 N   0  0  0  0  0  0  0  0  0  0  0  0
    9.0550    9.1240   13.6650 N   0  0  0  0  0  0  0  0  0  0  0  0
    6.2760    8.1100   11.4510 C   0  0  0  0  0  0  0  0  0  0  0  0
    6.3690    6.6010   11.4470 C   0  0  0  0  0  0  0  0  0  0  0  0
    7.0890    6.2340   12.7280 C   0  0  0  0  0  0  0  0  0  0  0  0
   14.3050    1.4980    8.4380 C   0  0  0  0  0  0  0  0  0  0  0  0
   13.3500    3.7780    9.5040 H   0  0  0  0  0  0  0  0  0  0  0  0
    9.4570    2.3170   10.5160 H   0  0  0  0  0  0  0  0  0  0  0  0
   10.0780    0.1420    9.6060 H   0  0  0  0  0  0  0  0  0  0  0  0
   10.3890    4.7030   12.5930 H   0  0  0  0  0  0  0  0  0  0  0  0
   12.1970    4.4680   12.3910 H   0  0  0  0  0  0  0  0  0  0  0  0
   12.4090    6.5920   11.2530 H   0  0  0  0  0  0  0  0  0  0  0  0
   10.5560    7.7190   10.3900 H   0  0  0  0  0  0  0  0  0  0  0  0
    9.3580    6.8580   11.4870 H   0  0  0  0  0  0  0  0  0  0  0  0
   11.3430    5.6840   14.6330 H   0  0  0  0  0  0  0  0  0  0  0  0
    8.9930    6.1330   15.1620 H   0  0  0  0  0  0  0  0  0  0  0  0
    9.8520    7.5770   15.7370 H   0  0  0  0  0  0  0  0  0  0  0  0
    5.3300    8.4790   11.8730 H   0  0  0  0  0  0  0  0  0  0  0  0
    6.4640    8.4390   10.4080 H   0  0  0  0  0  0  0  0  0  0  0  0
    6.8960    6.2150   10.5480 H   0  0  0  0  0  0  0  0  0  0  0  0
    5.3410    6.2040   11.4050 H   0  0  0  0  0  0  0  0  0  0  0  0
    7.7590    5.3670   12.6060 H   0  0  0  0  0  0  0  0  0  0  0  0
    6.3230    5.9780   13.4880 H   0  0  0  0  0  0  0  0  0  0  0  0
   14.9590    2.3790    8.5790 H   0  0  0  0  0  0  0  0  0  0  0  0
   14.7460    0.5680    8.8450 H   0  0  0  0  0  0  0  0  0  0  0  0
   14.1390    1.4230    7.3310 H   0  0  0  0  0  0  0  0  0  0  0  0
  1  2  1  0  0  0  0
  2  7  1  0  0  0  0
  3  2  2  0  0  0  0
  3  4  1  0  0  0  0
  4  5  2  0  0  0  0
  5  6  1  0  0  0  0
  5  8  1  0  0  0  0
  6 28  1  0  0  0  0
  7 29  1  0  0  0  0
  7  6  2  0  0  0  0
  8  9  1  0  0  0  0
  9 31  1  0  0  0  0
  9 30  1  0  0  0  0
 10 32  1  6  0  0  0
 10  9  1  0  0  0  0
 10 14  1  0  0  0  0
 11 34  1  0  0  0  0
 11 10  1  0  0  0  0
 12  8  1  0  0  0  0
 12 11  1  0  0  0  0
 13 12  2  0  0  0  0
 14 15  2  0  0  0  0
 14 16  1  0  0  0  0
 16 35  1  0  0  0  0
 16 17  1  0  0  0  0
 17 36  1  0  0  0  0
 17 37  1  0  0  0  0
 18 17  1  0  0  0  0
 19 18  1  0  0  0  0
 20 21  2  0  0  0  0
 20 19  1  0  0  0  0
 21 22  1  0  0  0  0
 22 18  2  0  0  0  0
 23 38  1  0  0  0  0
 23 20  1  0  0  0  0
 24 23  1  0  0  0  0
 24 25  1  0  0  0  0
 25 19  1  0  0  0  0
 25 43  1  0  0  0  0
 26 44  1  0  0  0  0
 26 45  1  0  0  0  0
 26  3  1  0  0  0  0
 27  4  1  0  0  0  0
 33 11  1  0  0  0  0
 39 23  1  0  0  0  0
 40 24  1  0  0  0  0
 41 24  1  0  0  0  0
 42 25  1  0  0  0  0
 46 26  1  0  0  0  0
M  END
>  <Pose>
1

>  <Score>
-5.96

$$$$
