
 OpenBabel03172210413D

 33 36  0  0  1  0  0  0  0  0999 V2000
   10.9060    0.7230    9.4190 B   0  0  0  0  0  0  0  0  0  0  0  0
   12.4260    1.7260    9.9900 C   0  0  0  0  0  0  0  0  0  0  0  0
   12.3070    2.8010   10.8330 C   0  0  0  0  0  0  0  0  0  0  0  0
   13.4240    3.5040   11.2180 C   0  0  0  0  0  0  0  0  0  0  0  0
   14.6910    3.1530   10.7730 C   0  0  0  0  0  0  0  0  0  0  0  0
   14.8330    2.0800    9.9270 C   0  0  0  0  0  0  0  0  0  0  0  0
   13.6910    1.3700    9.5410 C   0  0  0  0  0  0  0  0  0  0  0  0
   10.9930    3.2460   11.3660 C   0  0  1  0  0  0  0  0  0  0  0  0
   10.9960    4.3370   12.2370 C   0  0  1  0  0  0  0  0  0  0  0  0
   11.2510    5.8020   12.1610 C   0  0  0  0  0  0  0  0  0  0  0  0
    9.8180    6.1570   12.0060 N   0  0  0  0  0  0  0  0  0  0  0  0
    9.2740    5.2800   11.2220 C   0  0  1  0  0  0  0  0  0  0  0  0
   10.2990    4.3580   10.8420 C   0  0  2  0  0  0  0  0  0  0  0  0
   11.0540    4.9710    9.7090 C   0  0  0  0  0  0  0  0  0  0  0  0
   11.6510    5.4810    8.8230 N   0  0  0  0  0  0  0  0  0  0  0  0
    7.8870    5.2540   10.8190 N   0  0  0  0  0  0  0  0  0  0  0  0
   11.6940    6.2320   13.4160 O   0  0  0  0  0  0  0  0  0  0  0  0
   12.8450    6.9670   13.2080 C   0  0  0  0  0  0  0  0  0  0  0  0
   12.6690    7.4460   11.7770 C   0  0  0  0  0  0  0  0  0  0  0  0
   12.0710    6.2870   11.2240 O   0  0  0  0  0  0  0  0  0  0  0  0
   10.0660    4.1390   13.4050 C   0  0  0  0  0  0  0  0  0  0  0  0
    9.3320    3.9630   14.3140 N   0  0  0  0  0  0  0  0  0  0  0  0
   13.3880    4.3740   11.8920 H   0  0  0  0  0  0  0  0  0  0  0  0
   15.5740    3.6920   11.0640 H   0  0  0  0  0  0  0  0  0  0  0  0
   15.7950    1.7960    9.5790 H   0  0  0  0  0  0  0  0  0  0  0  0
   13.7550    0.5130    8.8750 H   0  0  0  0  0  0  0  0  0  0  0  0
   10.3650    2.3340   11.5760 H   0  0  0  0  0  0  0  0  0  0  0  0
    7.2980    4.4140   10.9760 H   0  0  0  0  0  0  0  0  0  0  0  0
    7.4530    6.0780   10.3630 H   0  0  0  0  0  0  0  0  0  0  0  0
   13.7180    6.2820   13.2620 H   0  0  0  0  0  0  0  0  0  0  0  0
   12.9440    7.8120   13.9230 H   0  0  0  0  0  0  0  0  0  0  0  0
   11.9570    8.2980   11.7450 H   0  0  0  0  0  0  0  0  0  0  0  0
   13.6190    7.6880   11.2830 H   0  0  0  0  0  0  0  0  0  0  0  0
  1  2  1  0  0  0  0
  2  3  1  0  0  0  0
  3  4  2  0  0  0  0
  3  8  1  0  0  0  0
  4 23  1  0  0  0  0
  5 24  1  0  0  0  0
  5  4  1  0  0  0  0
  6  5  2  0  0  0  0
  7  6  1  0  0  0  0
  7  2  2  0  0  0  0
  8 27  1  1  0  0  0
  8  9  1  0  0  0  0
  9 21  1  1  0  0  0
 10  9  1  0  0  0  0
 10 17  1  0  0  0  0
 11 10  1  0  0  0  0
 12 16  1  1  0  0  0
 12 11  1  0  0  0  0
 13 14  1  6  0  0  0
 13 12  1  0  0  0  0
 13  8  1  0  0  0  0
 13  9  1  0  0  0  0
 15 14  3  0  0  0  0
 16 28  1  0  0  0  0
 18 30  1  0  0  0  0
 18 17  1  0  0  0  0
 18 31  1  0  0  0  0
 19 18  1  0  0  0  0
 20 19  1  0  0  0  0
 20 10  1  0  0  0  0
 21 22  3  0  0  0  0
 25  6  1  0  0  0  0
 26  7  1  0  0  0  0
 29 16  1  0  0  0  0
 32 19  1  0  0  0  0
 33 19  1  0  0  0  0
M  END
>  <Pose>
1

>  <Score>
-4.56

$$$$
