
 OpenBabel03172210413D

 36 39  0  0  1  0  0  0  0  0999 V2000
   14.7500    1.8230    9.2800 B   0  0  0  0  0  0  0  0  0  0  0  0
   12.9260    1.3470    9.2780 C   0  0  0  0  0  0  0  0  0  0  0  0
   11.9410    2.2320    9.6820 C   0  0  0  0  0  0  0  0  0  0  0  0
   10.6410    1.7450    9.6300 C   0  0  0  0  0  0  0  0  0  0  0  0
   10.3220    0.4780    9.2100 C   0  0  0  0  0  0  0  0  0  0  0  0
   11.3040   -0.3760    8.8180 C   0  0  0  0  0  0  0  0  0  0  0  0
   12.6020    0.0570    8.8510 C   0  0  0  0  0  0  0  0  0  0  0  0
   12.2340    3.5490   10.1220 N   0  0  0  0  0  0  0  0  0  0  0  0
   13.4110    3.9920   10.8930 C   0  0  0  0  0  0  0  0  0  0  0  0
   12.8850    5.1600   11.5880 C   0  0  2  0  0  0  0  0  0  0  0  0
   12.2090    4.9080   12.7940 O   0  0  0  0  0  0  0  0  0  0  0  0
   11.7330    6.2350   12.9720 C   0  0  2  0  0  0  0  0  0  0  0  0
   10.8490    6.2970   11.7190 C   0  0  1  0  0  0  0  0  0  0  0  0
   11.8190    5.8090   10.6880 C   0  0  2  0  0  0  0  0  0  0  0  0
   11.4020    4.6770    9.8780 C   0  0  0  0  0  0  0  0  0  0  0  0
   10.4480    4.6710    9.0720 O   0  0  0  0  0  0  0  0  0  0  0  0
    9.7820    5.2730   11.9530 C   0  0  0  0  0  0  0  0  0  0  0  0
    9.9340    4.3020   12.7080 O   0  0  0  0  0  0  0  0  0  0  0  0
    8.5690    5.4200   11.2920 O   0  0  0  0  0  0  0  0  0  0  0  0
    7.5000    6.0970   11.9650 C   0  0  0  0  0  0  0  0  0  0  0  0
   13.0000    7.0040   12.7970 C   0  0  0  0  0  0  0  0  0  0  0  0
   13.7800    6.2350   12.0040 C   0  0  0  0  0  0  0  0  0  0  0  0
    9.8160    2.3750    9.9280 H   0  0  0  0  0  0  0  0  0  0  0  0
    9.2940    0.1400    9.1860 H   0  0  0  0  0  0  0  0  0  0  0  0
   11.0670   -1.3860    8.4830 H   0  0  0  0  0  0  0  0  0  0  0  0
   13.3790   -0.6260    8.5390 H   0  0  0  0  0  0  0  0  0  0  0  0
   13.6350    3.1740   11.6050 H   0  0  0  0  0  0  0  0  0  0  0  0
   14.2800    4.1880   10.2560 H   0  0  0  0  0  0  0  0  0  0  0  0
   11.2130    6.3940   13.8890 H   0  0  0  0  0  0  0  0  0  0  0  0
   10.4470    7.2880   11.5470 H   0  0  0  0  0  0  0  0  0  0  0  0
   12.2690    6.6280   10.0920 H   0  0  0  0  0  0  0  0  0  0  0  0
    6.6500    6.2620   11.2870 H   0  0  0  0  0  0  0  0  0  0  0  0
    7.8290    7.0770   12.3670 H   0  0  0  0  0  0  0  0  0  0  0  0
    7.1170    5.4580   12.8000 H   0  0  0  0  0  0  0  0  0  0  0  0
   13.2260    7.9750   13.2260 H   0  0  0  0  0  0  0  0  0  0  0  0
   14.8150    6.4290   11.7730 H   0  0  0  0  0  0  0  0  0  0  0  0
  2  1  1  0  0  0  0
  2  3  1  0  0  0  0
  3  8  1  0  0  0  0
  4  3  2  0  0  0  0
  4 23  1  0  0  0  0
  5  4  1  0  0  0  0
  6  7  1  0  0  0  0
  6  5  2  0  0  0  0
  7  2  2  0  0  0  0
  8  9  1  0  0  0  0
  9 10  1  0  0  0  0
  9 27  1  0  0  0  0
 10 22  1  1  0  0  0
 10 11  1  0  0  0  0
 11 12  1  0  0  0  0
 12 29  1  1  0  0  0
 13 30  1  6  0  0  0
 13 17  1  0  0  0  0
 13 12  1  0  0  0  0
 14 31  1  6  0  0  0
 14 10  1  0  0  0  0
 14 13  1  0  0  0  0
 15  8  1  0  0  0  0
 15 14  1  0  0  0  0
 16 15  2  0  0  0  0
 17 18  2  0  0  0  0
 19 17  1  0  0  0  0
 19 20  1  0  0  0  0
 20 33  1  0  0  0  0
 20 34  1  0  0  0  0
 21 12  1  0  0  0  0
 21 35  1  0  0  0  0
 22 21  2  0  0  0  0
 24  5  1  0  0  0  0
 25  6  1  0  0  0  0
 26  7  1  0  0  0  0
 28  9  1  0  0  0  0
 32 20  1  0  0  0  0
 36 22  1  0  0  0  0
M  END
>  <Pose>
1

>  <Score>
-4.52

$$$$
