
 OpenBabel03172210413D

 35 38  0  0  0  0  0  0  0  0999 V2000
   14.7050    6.2420   14.3760 B   0  0  0  0  0  0  0  0  0  0  0  0
   15.5820    5.7350   12.7700 C   0  0  0  0  0  0  0  0  0  0  0  0
   15.9540    4.4670   12.4040 C   0  0  0  0  0  0  0  0  0  0  0  0
   16.5370    4.5730   11.2020 N   0  0  0  0  0  0  0  0  0  0  0  0
   16.5350    5.8370   10.8240 N   0  0  0  0  0  0  0  0  0  0  0  0
   15.9480    6.6010   11.7730 C   0  0  0  0  0  0  0  0  0  0  0  0
   15.7490    8.0950   11.7230 C   0  0  0  0  0  0  0  0  0  0  0  0
   17.0780    3.4640   10.4510 C   0  0  0  0  0  0  0  0  0  0  0  0
   15.9850    2.5860    9.9060 C   0  0  0  0  0  0  0  0  0  0  0  0
   16.1030    1.6220    8.9750 N   0  0  0  0  0  0  0  0  0  0  0  0
   14.9090    1.0670    8.7580 N   0  0  0  0  0  0  0  0  0  0  0  0
   13.9980    1.6680    9.5490 C   0  0  0  0  0  0  0  0  0  0  0  0
   14.6840    2.5950   10.2440 N   0  0  0  0  0  0  0  0  0  0  0  0
   12.6810    1.2550    9.4960 C   0  0  0  0  0  0  0  0  0  0  0  0
   12.2580    0.2430    8.6570 C   0  0  0  0  0  0  0  0  0  0  0  0
   10.9330    0.0430    8.8040 N   0  0  0  0  0  0  0  0  0  0  0  0
   10.5080    0.8990    9.7110 N   0  0  0  0  0  0  0  0  0  0  0  0
   11.5450    1.6630   10.1640 C   0  0  0  0  0  0  0  0  0  0  0  0
   10.0900   -0.9210    8.1150 C   0  0  0  0  0  0  0  0  0  0  0  0
   13.1990   -0.3310    7.8850 N   0  0  0  0  0  0  0  0  0  0  0  0
   14.4930    0.0820    7.9420 C   0  0  0  0  0  0  0  0  0  0  0  0
   15.7320    3.2320   13.2230 C   0  0  0  0  0  0  0  0  0  0  0  0
   16.1610    8.5080   12.6550 H   0  0  0  0  0  0  0  0  0  0  0  0
   14.6890    8.3600   11.6580 H   0  0  0  0  0  0  0  0  0  0  0  0
   16.3550    8.5010   10.8880 H   0  0  0  0  0  0  0  0  0  0  0  0
   17.7610    2.8550   11.1050 H   0  0  0  0  0  0  0  0  0  0  0  0
   17.6870    3.8120    9.6010 H   0  0  0  0  0  0  0  0  0  0  0  0
   11.5050    2.4390   10.8990 H   0  0  0  0  0  0  0  0  0  0  0  0
    9.9540   -1.8550    8.7090 H   0  0  0  0  0  0  0  0  0  0  0  0
    9.1270   -0.4850    7.7930 H   0  0  0  0  0  0  0  0  0  0  0  0
   10.5990   -1.2480    7.1640 H   0  0  0  0  0  0  0  0  0  0  0  0
   15.2570   -0.3860    7.3130 H   0  0  0  0  0  0  0  0  0  0  0  0
   14.8300    2.7470   12.8350 H   0  0  0  0  0  0  0  0  0  0  0  0
   15.5810    3.5070   14.2860 H   0  0  0  0  0  0  0  0  0  0  0  0
   16.6340    2.5700   13.2100 H   0  0  0  0  0  0  0  0  0  0  0  0
  2  1  1  0  0  0  0
  3  2  2  0  0  0  0
  3 22  1  0  0  0  0
  4  3  1  0  0  0  0
  5  4  1  0  0  0  0
  5  6  2  0  0  0  0
  6  2  1  0  0  0  0
  7  6  1  0  0  0  0
  7 23  1  0  0  0  0
  8 26  1  0  0  0  0
  8  4  1  0  0  0  0
  9 13  1  0  0  0  0
  9  8  1  0  0  0  0
 10  9  2  0  0  0  0
 11 10  1  0  0  0  0
 11 12  1  0  0  0  0
 12 13  2  0  0  0  0
 14 12  1  0  0  0  0
 14 18  1  0  0  0  0
 15 16  1  0  0  0  0
 15 14  2  0  0  0  0
 16 17  1  0  0  0  0
 17 18  2  0  0  0  0
 18 28  1  0  0  0  0
 19 29  1  0  0  0  0
 19 16  1  0  0  0  0
 20 21  2  0  0  0  0
 20 15  1  0  0  0  0
 21 11  1  0  0  0  0
 22 34  1  0  0  0  0
 24  7  1  0  0  0  0
 25  7  1  0  0  0  0
 27  8  1  0  0  0  0
 30 19  1  0  0  0  0
 31 19  1  0  0  0  0
 32 21  1  0  0  0  0
 33 22  1  0  0  0  0
 35 22  1  0  0  0  0
M  END
>  <Pose>
1

>  <Score>
-5.53

$$$$
