
 OpenBabel03172210413D

 40 43  0  0  0  0  0  0  0  0999 V2000
   14.2380    5.6310   12.5970 B   0  0  0  0  0  0  0  0  0  0  0  0
   15.7360    6.2350   11.5780 C   0  0  0  0  0  0  0  0  0  0  0  0
   16.7560    5.5170   11.0450 C   0  0  0  0  0  0  0  0  0  0  0  0
   17.6140    6.3880   10.4120 N   0  0  0  0  0  0  0  0  0  0  0  0
   17.1130    7.5850   10.5650 N   0  0  0  0  0  0  0  0  0  0  0  0
   15.9800    7.5860   11.2580 C   0  0  0  0  0  0  0  0  0  0  0  0
   18.8240    6.0420    9.7140 C   0  0  0  0  0  0  0  0  0  0  0  0
   16.9780    4.0560   11.0680 C   0  0  0  0  0  0  0  0  0  0  0  0
   17.6430    3.5960   12.0690 O   0  0  0  0  0  0  0  0  0  0  0  0
   16.5150    3.1860   10.0840 N   0  0  0  0  0  0  0  0  0  0  0  0
   15.2160    2.6220   10.0310 C   0  0  0  0  0  0  0  0  0  0  0  0
   14.9280    1.7800    8.9380 C   0  0  0  0  0  0  0  0  0  0  0  0
   15.7010    1.3970    7.8860 N   0  0  0  0  0  0  0  0  0  0  0  0
   14.9780    0.6120    7.1460 O   0  0  0  0  0  0  0  0  0  0  0  0
   13.7940    0.4680    7.6550 N   0  0  0  0  0  0  0  0  0  0  0  0
   13.7050    1.1820    8.7850 C   0  0  0  0  0  0  0  0  0  0  0  0
   12.6760    1.3610    9.6870 C   0  0  0  0  0  0  0  0  0  0  0  0
   12.9620    2.1870   10.7580 C   0  0  0  0  0  0  0  0  0  0  0  0
   14.2020    2.8010   10.9230 C   0  0  0  0  0  0  0  0  0  0  0  0
   11.4160    0.7540    9.5440 N   0  0  0  0  0  0  0  0  0  0  0  0
   11.3610   -0.6870    9.3180 C   0  0  0  0  0  0  0  0  0  0  0  0
    9.9620   -1.1490    9.0130 C   0  0  0  0  0  0  0  0  0  0  0  0
    9.2230   -0.3310    8.2240 O   0  0  0  0  0  0  0  0  0  0  0  0
    9.4550    1.0120    8.2780 C   0  0  0  0  0  0  0  0  0  0  0  0
   10.1220    1.3670    9.5900 C   0  0  0  0  0  0  0  0  0  0  0  0
   15.3340    8.3850   11.5520 H   0  0  0  0  0  0  0  0  0  0  0  0
   18.6290    5.2200    8.9880 H   0  0  0  0  0  0  0  0  0  0  0  0
   19.5790    5.6830   10.4360 H   0  0  0  0  0  0  0  0  0  0  0  0
   19.2200    6.9360    9.2130 H   0  0  0  0  0  0  0  0  0  0  0  0
   17.2230    2.9340    9.3310 H   0  0  0  0  0  0  0  0  0  0  0  0
   12.1710    2.3420   11.4780 H   0  0  0  0  0  0  0  0  0  0  0  0
   14.3530    3.4290   11.7770 H   0  0  0  0  0  0  0  0  0  0  0  0
   12.0020   -0.9860    8.4620 H   0  0  0  0  0  0  0  0  0  0  0  0
   11.7130   -1.2450   10.2180 H   0  0  0  0  0  0  0  0  0  0  0  0
   10.0630   -2.1380    8.4850 H   0  0  0  0  0  0  0  0  0  0  0  0
    9.4700   -1.4030    9.9900 H   0  0  0  0  0  0  0  0  0  0  0  0
   10.1780    1.2700    7.4600 H   0  0  0  0  0  0  0  0  0  0  0  0
    8.5400    1.6390    8.1600 H   0  0  0  0  0  0  0  0  0  0  0  0
    9.5510    0.8100   10.3940 H   0  0  0  0  0  0  0  0  0  0  0  0
   10.0560    2.4060    9.8510 H   0  0  0  0  0  0  0  0  0  0  0  0
  2  1  1  0  0  0  0
  3  8  1  0  0  0  0
  3  2  2  0  0  0  0
  4  5  1  0  0  0  0
  4  3  1  0  0  0  0
  5  6  2  0  0  0  0
  6 26  1  0  0  0  0
  6  2  1  0  0  0  0
  7  4  1  0  0  0  0
  7 28  1  0  0  0  0
  8  9  2  0  0  0  0
 10  8  1  0  0  0  0
 11 10  1  0  0  0  0
 11 19  2  0  0  0  0
 12 11  1  0  0  0  0
 13 12  2  0  0  0  0
 14 15  1  0  0  0  0
 14 13  1  0  0  0  0
 15 16  2  0  0  0  0
 16 12  1  0  0  0  0
 16 17  1  0  0  0  0
 17 18  2  0  0  0  0
 18 19  1  0  0  0  0
 18 31  1  0  0  0  0
 19 32  1  0  0  0  0
 20 25  1  0  0  0  0
 20 17  1  0  0  0  0
 21 20  1  0  0  0  0
 21 34  1  0  0  0  0
 22 21  1  0  0  0  0
 22 36  1  0  0  0  0
 23 24  1  0  0  0  0
 23 22  1  0  0  0  0
 24 25  1  0  0  0  0
 25 40  1  0  0  0  0
 25 39  1  0  0  0  0
 27  7  1  0  0  0  0
 29  7  1  0  0  0  0
 30 10  1  0  0  0  0
 33 21  1  0  0  0  0
 35 22  1  0  0  0  0
 37 24  1  0  0  0  0
 38 24  1  0  0  0  0
M  END
>  <Pose>
1

>  <Score>
-6.63

$$$$
