
 OpenBabel03172210413D

 36 39  0  0  0  0  0  0  0  0999 V2000
   15.1970    7.7090   11.4280 B   0  0  0  0  0  0  0  0  0  0  0  0
   13.3220    7.4840   11.5580 C   0  0  0  0  0  0  0  0  0  0  0  0
   12.6960    6.4680   10.8250 C   0  0  0  0  0  0  0  0  0  0  0  0
   11.3370    6.3200   10.9330 C   0  0  0  0  0  0  0  0  0  0  0  0
   10.5970    7.1440   11.7390 C   0  0  0  0  0  0  0  0  0  0  0  0
   11.2210    8.1640   12.4770 C   0  0  0  0  0  0  0  0  0  0  0  0
   12.5880    8.3150   12.3690 C   0  0  0  0  0  0  0  0  0  0  0  0
    9.1970    6.9370   11.7960 N   0  0  0  0  0  0  0  0  0  0  0  0
    8.3080    7.8360   11.4200 N   0  0  0  0  0  0  0  0  0  0  0  0
    7.0840    7.3780   11.5790 N   0  0  0  0  0  0  0  0  0  0  0  0
    7.1640    6.1530   12.0710 N   0  0  0  0  0  0  0  0  0  0  0  0
    8.4680    5.8870   12.2020 C   0  0  0  0  0  0  0  0  0  0  0  0
   10.6020    5.2360   10.1780 C   0  0  0  0  0  0  0  0  0  0  0  0
    9.9580    5.6280    9.1520 O   0  0  0  0  0  0  0  0  0  0  0  0
   10.6810    3.9450   10.6410 N   0  0  0  0  0  0  0  0  0  0  0  0
   10.7610    2.6600   11.1000 C   0  0  0  0  0  0  0  0  0  0  0  0
   11.0550    1.6340   10.0190 C   0  0  0  0  0  0  0  0  0  0  0  0
   12.2760    1.3880    9.4960 N   0  0  0  0  0  0  0  0  0  0  0  0
   12.1960    0.4270    8.5660 C   0  0  0  0  0  0  0  0  0  0  0  0
   10.9020    0.0750    8.5160 N   0  0  0  0  0  0  0  0  0  0  0  0
   10.2060    0.8080    9.3980 N   0  0  0  0  0  0  0  0  0  0  0  0
   13.3410   -0.0020    7.8830 C   0  0  0  0  0  0  0  0  0  0  0  0
   14.5580    0.5570    8.1580 C   0  0  0  0  0  0  0  0  0  0  0  0
   14.6400    1.5480    9.1170 C   0  0  0  0  0  0  0  0  0  0  0  0
   13.4860    1.9490    9.7750 C   0  0  0  0  0  0  0  0  0  0  0  0
   13.2640    5.8120   10.1830 H   0  0  0  0  0  0  0  0  0  0  0  0
   10.6040    8.7880   13.0990 H   0  0  0  0  0  0  0  0  0  0  0  0
   13.0700    9.1040   12.9380 H   0  0  0  0  0  0  0  0  0  0  0  0
    8.8690    4.9660   12.5750 H   0  0  0  0  0  0  0  0  0  0  0  0
   11.6530    3.6640    9.7290 H   0  0  0  0  0  0  0  0  0  0  0  0
    9.8600    2.2600   11.6490 H   0  0  0  0  0  0  0  0  0  0  0  0
   11.5950    2.4620   11.8470 H   0  0  0  0  0  0  0  0  0  0  0  0
   13.2170   -0.7750    7.1400 H   0  0  0  0  0  0  0  0  0  0  0  0
   15.4780    0.2470    7.6420 H   0  0  0  0  0  0  0  0  0  0  0  0
   15.5570    2.0220    9.3820 H   0  0  0  0  0  0  0  0  0  0  0  0
   13.5070    2.7200   10.5280 H   0  0  0  0  0  0  0  0  0  0  0  0
  1  2  1  0  0  0  0
  2  7  1  0  0  0  0
  3  4  1  0  0  0  0
  3  2  2  0  0  0  0
  4  5  2  0  0  0  0
  5  8  1  0  0  0  0
  5  6  1  0  0  0  0
  6 27  1  0  0  0  0
  7  6  2  0  0  0  0
  7 28  1  0  0  0  0
  8 12  1  0  0  0  0
  9 10  2  0  0  0  0
  9  8  1  0  0  0  0
 10 11  1  0  0  0  0
 11 12  2  0  0  0  0
 12 29  1  0  0  0  0
 13 15  1  0  0  0  0
 13  4  1  0  0  0  0
 14 13  2  0  0  0  0
 15 16  1  0  0  0  0
 16 31  1  0  0  0  0
 16 32  1  0  0  0  0
 17 16  1  0  0  0  0
 18 25  1  0  0  0  0
 18 17  1  0  0  0  0
 19 18  1  0  0  0  0
 20 19  2  0  0  0  0
 20 21  1  0  0  0  0
 21 17  2  0  0  0  0
 22 23  2  0  0  0  0
 22 19  1  0  0  0  0
 23 24  1  0  0  0  0
 24 35  1  0  0  0  0
 24 25  2  0  0  0  0
 25 36  1  0  0  0  0
 26  3  1  0  0  0  0
 30 15  1  0  0  0  0
 33 22  1  0  0  0  0
 34 23  1  0  0  0  0
M  END
>  <Pose>
1

>  <Score>
-6.58

$$$$
