
 OpenBabel03172210413D

 48 51  0  0  0  0  0  0  0  0999 V2000
   15.4120    7.7990   12.1970 B   0  0  0  0  0  0  0  0  0  0  0  0
   16.4600    6.2120   12.0770 C   0  0  0  0  0  0  0  0  0  0  0  0
   16.1990    5.1650   11.2410 C   0  0  0  0  0  0  0  0  0  0  0  0
   16.9730    4.0270   11.1720 C   0  0  0  0  0  0  0  0  0  0  0  0
   18.0860    3.9670   12.0160 C   0  0  0  0  0  0  0  0  0  0  0  0
   18.3950    4.9860   12.8740 C   0  0  0  0  0  0  0  0  0  0  0  0
   17.5770    6.1100   12.9000 C   0  0  0  0  0  0  0  0  0  0  0  0
   18.8810    2.8390   11.9620 O   0  0  0  0  0  0  0  0  0  0  0  0
   20.2790    2.9590   11.9030 C   0  0  0  0  0  0  0  0  0  0  0  0
   16.6840    2.9300   10.2640 C   0  0  0  0  0  0  0  0  0  0  0  0
   15.5110    2.4160   10.0190 C   0  0  0  0  0  0  0  0  0  0  0  0
   14.3280    2.8480   10.5980 O   0  0  0  0  0  0  0  0  0  0  0  0
   13.2400    2.1200   10.1530 C   0  0  0  0  0  0  0  0  0  0  0  0
   13.6380    1.1590    9.2520 C   0  0  0  0  0  0  0  0  0  0  0  0
   12.7070    0.3150    8.6830 C   0  0  0  0  0  0  0  0  0  0  0  0
   11.3780    0.4440    9.0260 C   0  0  0  0  0  0  0  0  0  0  0  0
   10.9970    1.4350    9.9510 C   0  0  0  0  0  0  0  0  0  0  0  0
   11.8980    2.2790   10.5240 C   0  0  0  0  0  0  0  0  0  0  0  0
   11.5650    3.3200   11.4580 C   0  0  0  0  0  0  0  0  0  0  0  0
   10.4350    4.1440   11.3120 N   0  0  0  0  0  4  0  0  0  0  0  0
   10.2190    5.1030   12.3600 C   0  0  0  0  0  0  0  0  0  0  0  0
   11.0340    6.3650   12.2190 C   0  0  0  0  0  0  0  0  0  0  0  0
   11.9400    6.3260   11.1680 O   0  0  0  0  0  0  0  0  0  0  0  0
   11.1930    6.1140   10.0140 C   0  0  0  0  0  0  0  0  0  0  0  0
   10.4130    4.8410   10.0130 C   0  0  0  0  0  0  0  0  0  0  0  0
    9.6160    1.4470   10.2030 O   0  0  0  0  0  0  0  0  0  0  0  0
   15.0920    1.3200    9.1400 C   0  0  0  0  0  0  0  0  0  0  0  0
   15.8590    0.6430    8.4210 O   0  0  0  0  0  0  0  0  0  0  0  0
   15.3200    5.2490   10.5950 H   0  0  0  0  0  0  0  0  0  0  0  0
   19.2530    4.9870   13.5560 H   0  0  0  0  0  0  0  0  0  0  0  0
   17.8160    6.9360   13.5850 H   0  0  0  0  0  0  0  0  0  0  0  0
   20.7230    2.0210   11.4460 H   0  0  0  0  0  0  0  0  0  0  0  0
   20.6880    3.0150   12.9430 H   0  0  0  0  0  0  0  0  0  0  0  0
   20.6300    3.7840   11.2490 H   0  0  0  0  0  0  0  0  0  0  0  0
   17.5320    2.4780    9.7240 H   0  0  0  0  0  0  0  0  0  0  0  0
   13.0330   -0.4410    7.9690 H   0  0  0  0  0  0  0  0  0  0  0  0
   10.6060   -0.1860    8.6140 H   0  0  0  0  0  0  0  0  0  0  0  0
   11.5140    2.9270   12.5350 H   0  0  0  0  0  0  0  0  0  0  0  0
   12.4500    4.0550   11.5790 H   0  0  0  0  0  0  0  0  0  0  0  0
    9.5840    3.5480   11.2560 H   0  0  0  0  0  0  0  0  0  0  0  0
    9.1380    5.4210   12.2610 H   0  0  0  0  0  0  0  0  0  0  0  0
   10.3130    4.6550   13.3490 H   0  0  0  0  0  0  0  0  0  0  0  0
   10.3930    7.2760   12.0400 H   0  0  0  0  0  0  0  0  0  0  0  0
   11.5570    6.5780   13.1730 H   0  0  0  0  0  0  0  0  0  0  0  0
   11.9420    6.0270    9.1720 H   0  0  0  0  0  0  0  0  0  0  0  0
   10.5650    7.0260    9.7970 H   0  0  0  0  0  0  0  0  0  0  0  0
   10.7330    4.1290    9.2240 H   0  0  0  0  0  0  0  0  0  0  0  0
    9.3600    5.0930    9.7670 H   0  0  0  0  0  0  0  0  0  0  0  0
  2  1  1  0  0  0  0
  2  7  1  0  0  0  0
  3  2  2  0  0  0  0
  4  3  1  0  0  0  0
  4  5  2  0  0  0  0
  5  6  1  0  0  0  0
  6  7  2  0  0  0  0
  6 30  1  0  0  0  0
  7 31  1  0  0  0  0
  8  5  1  0  0  0  0
  9  8  1  0  0  0  0
  9 33  1  0  0  0  0
 10  4  1  0  0  0  0
 11 10  2  0  0  0  0
 11 12  1  0  0  0  0
 13 18  1  0  0  0  0
 13 12  1  0  0  0  0
 14 13  2  0  0  0  0
 15 16  2  0  0  0  0
 15 14  1  0  0  0  0
 16 17  1  0  0  0  0
 17 26  1  0  0  0  0
 17 18  2  0  0  0  0
 18 19  1  0  0  0  0
 19 39  1  0  0  0  0
 19 38  1  0  0  0  0
 20 19  1  0  0  0  0
 20 21  1  0  0  0  0
 21 42  1  0  0  0  0
 22 21  1  0  0  0  0
 22 44  1  0  0  0  0
 23 22  1  0  0  0  0
 24 23  1  0  0  0  0
 25 24  1  0  0  0  0
 25 20  1  0  0  0  0
 27 14  1  0  0  0  0
 27 11  1  0  0  0  0
 28 27  2  0  0  0  0
 29  3  1  0  0  0  0
 32  9  1  0  0  0  0
 34  9  1  0  0  0  0
 35 10  1  0  0  0  0
 36 15  1  0  0  0  0
 37 16  1  0  0  0  0
 40 20  1  0  0  0  0
 41 21  1  0  0  0  0
 43 22  1  0  0  0  0
 45 24  1  0  0  0  0
 46 24  1  0  0  0  0
 47 25  1  0  0  0  0
 48 25  1  0  0  0  0
M  END
>  <Pose>
1

>  <Score>
-6.42

$$$$
