
 OpenBabel03172210413D

 54 57  0  0  0  0  0  0  0  0999 V2000
    9.8790   -1.0750    7.8260 B   0  0  0  0  0  0  0  0  0  0  0  0
   11.4550   -0.1820    8.4180 C   0  0  0  0  0  0  0  0  0  0  0  0
   11.4340    0.6380    9.5240 C   0  0  0  0  0  0  0  0  0  0  0  0
   12.5700    1.2810    9.9510 C   0  0  0  0  0  0  0  0  0  0  0  0
   13.7340    1.0830    9.2410 C   0  0  0  0  0  0  0  0  0  0  0  0
   13.7690    0.2540    8.1170 C   0  0  0  0  0  0  0  0  0  0  0  0
   12.6200   -0.3930    7.6910 C   0  0  0  0  0  0  0  0  0  0  0  0
   14.8690    1.7460    9.6940 O   0  0  0  0  0  0  0  0  0  0  0  0
   15.8840    2.2310    8.8470 C   0  0  0  0  0  0  0  0  0  0  0  0
   12.5610    2.1520   11.1210 C   0  0  0  0  0  0  0  0  0  0  0  0
   11.4870    2.5410   11.6970 N   0  0  0  0  0  0  0  0  0  0  0  0
   11.4590    3.3740   12.8170 N   0  0  0  0  0  0  0  0  0  0  0  0
   11.0330    4.7290   12.7570 C   0  0  0  0  0  0  0  0  0  0  0  0
    9.7320    5.0940   12.7520 N   0  0  0  0  0  4  0  0  0  0  0  0
    9.3630    6.3790   12.6940 C   0  0  0  0  0  0  0  0  0  0  0  0
   10.3220    7.3170   12.6410 N   0  0  0  0  0  0  0  0  0  0  0  0
   11.6490    7.0220   12.6420 C   0  0  0  0  0  0  0  0  0  0  0  0
   11.9500    5.6960   12.7020 N   0  0  0  0  0  0  0  0  0  0  0  0
   12.6480    8.0100   12.5860 N   0  0  0  0  0  0  0  0  0  0  0  0
   13.6930    7.9610   11.6060 C   0  0  0  0  0  0  0  0  0  0  0  0
   15.0170    8.0620   12.3610 C   0  0  0  0  0  0  0  0  0  0  0  0
   14.9690    9.2250   13.1090 O   0  0  0  0  0  0  0  0  0  0  0  0
   14.0410    9.1740   14.1230 C   0  0  0  0  0  0  0  0  0  0  0  0
   12.6370    9.0950   13.5230 C   0  0  0  0  0  0  0  0  0  0  0  0
    7.9950    6.7620   12.6900 N   0  0  0  0  0  0  0  0  0  0  0  0
    6.9890    6.0350   11.9480 C   0  0  0  0  0  0  0  0  0  0  0  0
    6.0270    6.9840   11.2480 C   0  0  0  0  0  0  0  0  0  0  0  0
    5.6320    8.0090   12.1160 O   0  0  0  0  0  0  0  0  0  0  0  0
    6.7010    8.7660   12.5310 C   0  0  0  0  0  0  0  0  0  0  0  0
    7.5590    7.9160   13.4440 C   0  0  0  0  0  0  0  0  0  0  0  0
   10.5170    0.8070   10.1000 H   0  0  0  0  0  0  0  0  0  0  0  0
   14.7030    0.1090    7.5680 H   0  0  0  0  0  0  0  0  0  0  0  0
   12.6710   -1.0280    6.8230 H   0  0  0  0  0  0  0  0  0  0  0  0
   16.6380    1.4100    8.7430 H   0  0  0  0  0  0  0  0  0  0  0  0
   15.5110    2.6000    7.8800 H   0  0  0  0  0  0  0  0  0  0  0  0
   16.4060    3.0680    9.3640 H   0  0  0  0  0  0  0  0  0  0  0  0
   13.4970    2.4960   11.5370 H   0  0  0  0  0  0  0  0  0  0  0  0
   11.7760    2.9440   13.7280 H   0  0  0  0  0  0  0  0  0  0  0  0
   13.6510    7.0180   11.0020 H   0  0  0  0  0  0  0  0  0  0  0  0
   13.6250    8.8570   10.9490 H   0  0  0  0  0  0  0  0  0  0  0  0
   15.7970    8.1800   11.5820 H   0  0  0  0  0  0  0  0  0  0  0  0
   15.2060    7.1630   12.9520 H   0  0  0  0  0  0  0  0  0  0  0  0
   14.1560    8.2590   14.7530 H   0  0  0  0  0  0  0  0  0  0  0  0
   14.1160   10.0850   14.7260 H   0  0  0  0  0  0  0  0  0  0  0  0
   11.8740    8.9800   14.3130 H   0  0  0  0  0  0  0  0  0  0  0  0
   12.5040   10.0520   12.9640 H   0  0  0  0  0  0  0  0  0  0  0  0
    6.3640    5.5060   12.7230 H   0  0  0  0  0  0  0  0  0  0  0  0
    7.4100    5.3410   11.2150 H   0  0  0  0  0  0  0  0  0  0  0  0
    6.5260    7.3610   10.3460 H   0  0  0  0  0  0  0  0  0  0  0  0
    5.0950    6.4050   11.0290 H   0  0  0  0  0  0  0  0  0  0  0  0
    7.2600    9.1040   11.6350 H   0  0  0  0  0  0  0  0  0  0  0  0
    6.3210    9.6590   13.0340 H   0  0  0  0  0  0  0  0  0  0  0  0
    6.9220    7.5710   14.2640 H   0  0  0  0  0  0  0  0  0  0  0  0
    8.4160    8.4780   13.8500 H   0  0  0  0  0  0  0  0  0  0  0  0
  1  2  1  0  0  0  0
  2  3  1  0  0  0  0
  3  4  2  0  0  0  0
  3 31  1  0  0  0  0
  4 10  1  0  0  0  0
  5  8  1  0  0  0  0
  5  4  1  0  0  0  0
  6  5  2  0  0  0  0
  7  6  1  0  0  0  0
  7  2  2  0  0  0  0
  9 36  1  0  0  0  0
  9  8  1  0  0  0  0
 10 37  1  0  0  0  0
 10 11  2  0  0  0  0
 11 12  1  0  0  0  0
 12 38  1  0  0  0  0
 13 12  1  0  0  0  0
 14 13  2  0  0  0  0
 15 14  2  0  0  0  0
 16 17  2  0  0  0  0
 16 15  1  0  0  0  0
 17 18  1  0  0  0  0
 18 13  1  0  0  0  0
 19 17  1  0  0  0  0
 19 24  1  0  0  0  0
 20 21  1  0  0  0  0
 20 19  1  0  0  0  0
 21 42  1  0  0  0  0
 21 22  1  0  0  0  0
 22 23  1  0  0  0  0
 23 44  1  0  0  0  0
 23 43  1  0  0  0  0
 24 23  1  0  0  0  0
 24 45  1  0  0  0  0
 25 15  1  0  0  0  0
 25 30  1  0  0  0  0
 26 25  1  0  0  0  0
 26 47  1  0  0  0  0
 27 26  1  0  0  0  0
 27 28  1  0  0  0  0
 28 29  1  0  0  0  0
 29 52  1  0  0  0  0
 29 30  1  0  0  0  0
 30 54  1  0  0  0  0
 30 53  1  0  0  0  0
 32  6  1  0  0  0  0
 33  7  1  0  0  0  0
 34  9  1  0  0  0  0
 35  9  1  0  0  0  0
 39 20  1  0  0  0  0
 40 20  1  0  0  0  0
 41 21  1  0  0  0  0
 46 24  1  0  0  0  0
 48 26  1  0  0  0  0
 49 27  1  0  0  0  0
 50 27  1  0  0  0  0
 51 29  1  0  0  0  0
M  END
>  <Pose>
1

>  <Score>
-6.80

$$$$
