
 OpenBabel03172210413D

 45 48  0  0  0  0  0  0  0  0999 V2000
   20.4660    3.0190   11.9790 B   0  0  0  0  0  0  0  0  0  0  0  0
   19.0940    4.3130   11.6940 C   0  0  0  0  0  0  0  0  0  0  0  0
   17.7850    3.9460   11.8080 C   0  0  0  0  0  0  0  0  0  0  0  0
   16.7010    4.7530   11.6350 C   0  0  0  0  0  0  0  0  0  0  0  0
   17.0530    6.0830   11.3080 C   0  0  0  0  0  0  0  0  0  0  0  0
   18.3570    6.4970   11.1840 C   0  0  0  0  0  0  0  0  0  0  0  0
   19.3990    5.6040   11.3780 C   0  0  0  0  0  0  0  0  0  0  0  0
   16.0420    7.0070   11.1070 O   0  0  0  0  0  0  0  0  0  0  0  0
   15.7170    8.0280   11.9990 C   0  0  0  0  0  0  0  0  0  0  0  0
   15.3080    4.4330   11.7560 C   0  0  0  0  0  0  0  0  0  0  0  0
   14.4230    3.6150   11.2270 N   0  0  0  0  0  0  0  0  0  0  0  0
   13.1910    3.8090   11.7940 C   0  0  0  0  0  0  0  0  0  0  0  0
   13.3450    4.7880   12.7140 N   0  0  0  0  0  0  0  0  0  0  0  0
   14.5780    5.1630   12.7050 N   0  0  0  0  0  0  0  0  0  0  0  0
   12.3070    2.9720   11.2470 N   0  0  0  0  0  0  0  0  0  0  0  0
   12.9700    2.2400   10.3370 C   0  0  0  0  0  0  0  0  0  0  0  0
   14.3060    2.6230   10.3080 C   0  0  0  0  0  0  0  0  0  0  0  0
   15.1950    2.0520    9.5180 N   0  0  0  0  0  0  0  0  0  0  0  0
   14.7410    1.0490    8.7030 C   0  0  0  0  0  0  0  0  0  0  0  0
   15.5010    0.4380    7.9100 O   0  0  0  0  0  0  0  0  0  0  0  0
   13.4510    0.6530    8.7010 N   0  0  0  0  0  0  0  0  0  0  0  0
   12.5550    1.2240    9.4980 C   0  0  0  0  0  0  0  0  0  0  0  0
   11.3410    0.9010    9.5430 O   0  0  0  0  0  0  0  0  0  0  0  0
   16.6060    2.2810    9.4340 C   0  0  0  0  0  0  0  0  0  0  0  0
   10.9110    2.8540   11.5520 C   0  0  0  0  0  0  0  0  0  0  0  0
   10.1270    3.8410   10.7130 C   0  0  0  0  0  0  0  0  0  0  0  0
   10.4690    5.1180   11.1130 O   0  0  0  0  0  0  0  0  0  0  0  0
   10.7880    5.9360   10.0160 C   0  0  0  0  0  0  0  0  0  0  0  0
   17.5460    2.9200   12.0440 H   0  0  0  0  0  0  0  0  0  0  0  0
   18.6470    7.5030   10.9370 H   0  0  0  0  0  0  0  0  0  0  0  0
   20.4250    5.9120   11.2850 H   0  0  0  0  0  0  0  0  0  0  0  0
   16.6000    8.4890   12.4870 H   0  0  0  0  0  0  0  0  0  0  0  0
   15.1740    8.8730   11.5030 H   0  0  0  0  0  0  0  0  0  0  0  0
   15.0220    7.6230   12.7680 H   0  0  0  0  0  0  0  0  0  0  0  0
   13.1210   -0.1100    8.0740 H   0  0  0  0  0  0  0  0  0  0  0  0
   17.0910    2.3800   10.4150 H   0  0  0  0  0  0  0  0  0  0  0  0
   17.0690    1.3730    8.9140 H   0  0  0  0  0  0  0  0  0  0  0  0
   16.8400    3.1170    8.7840 H   0  0  0  0  0  0  0  0  0  0  0  0
   10.6880    2.9320   12.6310 H   0  0  0  0  0  0  0  0  0  0  0  0
   10.5830    1.8340   11.1920 H   0  0  0  0  0  0  0  0  0  0  0  0
    9.0270    3.7340   10.8860 H   0  0  0  0  0  0  0  0  0  0  0  0
   10.3810    3.6490    9.6520 H   0  0  0  0  0  0  0  0  0  0  0  0
   11.6500    5.4730    9.4880 H   0  0  0  0  0  0  0  0  0  0  0  0
   11.1290    6.9200   10.3670 H   0  0  0  0  0  0  0  0  0  0  0  0
    9.9520    6.0520    9.3250 H   0  0  0  0  0  0  0  0  0  0  0  0
  2  3  1  0  0  0  0
  2  1  1  0  0  0  0
  3 29  1  0  0  0  0
  4 10  1  0  0  0  0
  4  3  2  0  0  0  0
  5  4  1  0  0  0  0
  6  5  2  0  0  0  0
  6  7  1  0  0  0  0
  7  2  2  0  0  0  0
  8  5  1  0  0  0  0
  8  9  1  0  0  0  0
  9 32  1  0  0  0  0
  9 34  1  0  0  0  0
 10 14  2  0  0  0  0
 11 10  1  0  0  0  0
 11 12  1  0  0  0  0
 12 13  2  0  0  0  0
 14 13  1  0  0  0  0
 15 25  1  0  0  0  0
 15 12  1  0  0  0  0
 16 15  1  0  0  0  0
 17 16  2  0  0  0  0
 17 11  1  0  0  0  0
 18 17  1  0  0  0  0
 19 18  1  0  0  0  0
 20 19  2  0  0  0  0
 21 19  1  0  0  0  0
 21 22  1  0  0  0  0
 22 23  2  0  0  0  0
 22 16  1  0  0  0  0
 24 18  1  0  0  0  0
 24 36  1  0  0  0  0
 25 39  1  0  0  0  0
 26 41  1  0  0  0  0
 26 27  1  0  0  0  0
 26 25  1  0  0  0  0
 28 44  1  0  0  0  0
 28 27  1  0  0  0  0
 30  6  1  0  0  0  0
 31  7  1  0  0  0  0
 33  9  1  0  0  0  0
 35 21  1  0  0  0  0
 37 24  1  0  0  0  0
 38 24  1  0  0  0  0
 40 25  1  0  0  0  0
 42 26  1  0  0  0  0
 43 28  1  0  0  0  0
 45 28  1  0  0  0  0
M  END
>  <Pose>
1

>  <Score>
-6.36

$$$$
