
 OpenBabel03172210413D

 50 53  0  0  0  0  0  0  0  0999 V2000
   10.3170   -0.4970    8.9900 B   0  0  0  0  0  0  0  0  0  0  0  0
   11.4990    0.9710    9.2540 C   0  0  0  0  0  0  0  0  0  0  0  0
   11.0340    2.2600    9.4820 C   0  0  0  0  0  0  0  0  0  0  0  0
   11.8820    3.3190    9.6720 C   0  0  0  0  0  0  0  0  0  0  0  0
   13.2400    3.1000    9.6340 C   0  0  0  0  0  0  0  0  0  0  0  0
   13.7060    1.8300    9.4090 C   0  0  0  0  0  0  0  0  0  0  0  0
   12.8570    0.7470    9.2160 C   0  0  0  0  0  0  0  0  0  0  0  0
   11.3580    4.6600    9.9100 C   0  0  0  0  0  0  0  0  0  0  0  0
   11.3310    5.5330    9.0050 O   0  0  0  0  0  0  0  0  0  0  0  0
   10.8480    4.9980   11.2400 C   0  0  0  0  0  0  0  0  0  0  0  0
    9.7870    5.9270   11.2340 N   0  0  0  0  0  0  0  0  0  0  0  0
    9.6820    6.7810   12.3580 C   0  0  0  0  0  0  0  0  0  0  0  0
    8.5010    7.6720   12.3910 C   0  0  0  0  0  0  0  0  0  0  0  0
    7.2930    6.9370   12.1960 N   0  0  0  0  0  0  0  0  0  0  0  0
    7.3670    5.6560   11.5540 C   0  0  0  0  0  0  0  0  0  0  0  0
    8.5670    5.4910   10.6500 C   0  0  0  0  0  0  0  0  0  0  0  0
    6.0250    7.4410   12.5900 C   0  0  0  0  0  0  0  0  0  0  0  0
    5.6420    7.2520   13.8510 C   0  0  0  0  0  0  0  0  0  0  0  0
    6.2100    6.6320   14.9910 N   0  0  0  0  0  0  0  0  0  0  0  0
    5.2520    6.7970   16.0170 N   0  0  0  0  0  0  0  0  0  0  0  0
    4.1380    7.4980   15.4990 C   0  0  0  0  0  0  0  0  0  0  0  0
    4.3150    7.7940   14.2200 C   0  0  0  0  0  0  0  0  0  0  0  0
    3.5290    8.4710   13.2460 N   0  0  0  0  0  0  0  0  0  0  0  0
    3.9460    8.6280   12.0390 C   0  0  0  0  0  0  0  0  0  0  0  0
    5.2000    8.1340   11.6300 N   0  0  0  0  0  0  0  0  0  0  0  0
    2.9070    7.8830   16.2380 C   0  0  0  0  0  0  0  0  0  0  0  0
    7.4910    5.9750   15.0800 C   0  0  0  0  0  0  0  0  0  0  0  0
    9.9580    2.3650    9.4990 H   0  0  0  0  0  0  0  0  0  0  0  0
   13.8930    3.9610    9.7880 H   0  0  0  0  0  0  0  0  0  0  0  0
   14.7680    1.6360    9.3750 H   0  0  0  0  0  0  0  0  0  0  0  0
   13.2680   -0.2590    9.0380 H   0  0  0  0  0  0  0  0  0  0  0  0
   11.6860    5.3790   11.8830 H   0  0  0  0  0  0  0  0  0  0  0  0
   10.5000    4.0700   11.7860 H   0  0  0  0  0  0  0  0  0  0  0  0
    9.8140    6.2040   13.2920 H   0  0  0  0  0  0  0  0  0  0  0  0
   10.5960    7.4550   12.3240 H   0  0  0  0  0  0  0  0  0  0  0  0
    8.5970    8.4040   11.5430 H   0  0  0  0  0  0  0  0  0  0  0  0
    8.4970    8.3020   13.3020 H   0  0  0  0  0  0  0  0  0  0  0  0
    7.2010    4.7880   12.2020 H   0  0  0  0  0  0  0  0  0  0  0  0
    6.4780    5.6420   10.8470 H   0  0  0  0  0  0  0  0  0  0  0  0
    8.6500    4.4090   10.4190 H   0  0  0  0  0  0  0  0  0  0  0  0
    8.4410    6.0100    9.6750 H   0  0  0  0  0  0  0  0  0  0  0  0
    5.4100    6.4320   16.9800 H   0  0  0  0  0  0  0  0  0  0  0  0
    3.2870    9.1630   11.3280 H   0  0  0  0  0  0  0  0  0  0  0  0
    5.5780    8.2340   10.6730 H   0  0  0  0  0  0  0  0  0  0  0  0
    2.8360    7.2860   17.1670 H   0  0  0  0  0  0  0  0  0  0  0  0
    2.0120    7.8480   15.6120 H   0  0  0  0  0  0  0  0  0  0  0  0
    3.0440    8.9510   16.5650 H   0  0  0  0  0  0  0  0  0  0  0  0
    7.7170    5.2840   14.2730 H   0  0  0  0  0  0  0  0  0  0  0  0
    8.2770    6.7260   15.3050 H   0  0  0  0  0  0  0  0  0  0  0  0
    7.4150    5.3130   16.0040 H   0  0  0  0  0  0  0  0  0  0  0  0
  1  2  1  0  0  0  0
  2  3  1  0  0  0  0
  3 28  1  0  0  0  0
  3  4  2  0  0  0  0
  4  8  1  0  0  0  0
  5  4  1  0  0  0  0
  5 29  1  0  0  0  0
  6  5  2  0  0  0  0
  7  2  2  0  0  0  0
  7  6  1  0  0  0  0
  8 10  1  0  0  0  0
  9  8  2  0  0  0  0
 10 33  1  0  0  0  0
 10 32  1  0  0  0  0
 11 10  1  0  0  0  0
 11 12  1  0  0  0  0
 12 13  1  0  0  0  0
 12 34  1  0  0  0  0
 13 37  1  0  0  0  0
 14 13  1  0  0  0  0
 14 17  1  0  0  0  0
 15 14  1  0  0  0  0
 15 38  1  0  0  0  0
 16 11  1  0  0  0  0
 16 15  1  0  0  0  0
 17 18  2  0  0  0  0
 18 22  1  0  0  0  0
 18 19  1  0  0  0  0
 19 27  1  0  0  0  0
 19 20  1  0  0  0  0
 20 42  1  0  0  0  0
 21 20  1  0  0  0  0
 21 26  1  0  0  0  0
 22 21  2  0  0  0  0
 23 22  1  0  0  0  0
 24 23  2  0  0  0  0
 25 24  1  0  0  0  0
 25 17  1  0  0  0  0
 26 47  1  0  0  0  0
 26 45  1  0  0  0  0
 27 49  1  0  0  0  0
 27 50  1  0  0  0  0
 30  6  1  0  0  0  0
 31  7  1  0  0  0  0
 35 12  1  0  0  0  0
 36 13  1  0  0  0  0
 39 15  1  0  0  0  0
 40 16  1  0  0  0  0
 41 16  1  0  0  0  0
 43 24  1  0  0  0  0
 44 25  1  0  0  0  0
 46 26  1  0  0  0  0
 48 27  1  0  0  0  0
M  END
>  <Pose>
1

>  <Score>
-7.55

$$$$
