
 OpenBabel03172210413D

 49 52  0  0  0  0  0  0  0  0999 V2000
   11.9360    8.4290   12.4740 B   0  0  0  0  0  0  0  0  0  0  0  0
   10.5890    7.2350   11.9110 C   0  0  0  0  0  0  0  0  0  0  0  0
    9.2740    7.4610   12.2880 C   0  0  0  0  0  0  0  0  0  0  0  0
    8.2730    6.6100   11.9000 C   0  0  0  0  0  0  0  0  0  0  0  0
    8.5110    5.5090   11.1320 C   0  0  0  0  0  0  0  0  0  0  0  0
    9.8340    5.2740   10.7470 C   0  0  0  0  0  0  0  0  0  0  0  0
   10.8470    6.1310   11.1360 C   0  0  0  0  0  0  0  0  0  0  0  0
    6.8370    6.8630   12.2720 C   0  0  0  0  0  0  0  0  0  0  0  0
    6.2000    7.5450   11.3940 O   0  0  0  0  0  0  0  0  0  0  0  0
    6.3930    6.3770   13.4200 N   0  0  0  0  0  0  0  0  0  0  0  0
    5.9290    5.8670   14.6220 C   0  0  0  0  0  0  0  0  0  0  0  0
    6.4750    6.6360   15.7980 C   0  0  0  0  0  0  0  0  0  0  0  0
    7.5760    6.1770   16.2670 O   0  0  0  0  0  0  0  0  0  0  0  0
    5.8550    7.7620   16.3560 N   0  0  0  0  0  0  0  0  0  0  0  0
    4.4600    7.8130   16.6540 C   0  0  0  0  0  0  0  0  0  0  0  0
    4.1600    8.5980   17.8990 C   0  0  0  0  0  0  0  0  0  0  0  0
    5.3220    8.7360   18.8580 C   0  0  0  0  0  0  0  0  0  0  0  0
    4.8760    9.7550   19.7980 N   0  0  0  0  0  0  0  0  0  0  0  0
    5.6840    9.9450   20.9420 C   0  0  0  0  0  0  0  0  0  0  0  0
    6.6440    8.8700   21.3010 C   0  0  0  0  0  0  0  0  0  0  0  0
    6.1790    7.5300   20.8250 C   0  0  0  0  0  0  0  0  0  0  0  0
    6.2750    6.3140   21.3610 N   0  0  0  0  0  0  0  0  0  0  0  0
    5.6750    5.4790   20.4860 C   0  0  0  0  0  0  0  0  0  0  0  0
    5.2150    6.1690   19.4200 N   0  0  0  0  0  0  0  0  0  0  0  0
    5.5280    7.4820   19.6180 C   0  0  0  0  0  0  0  0  0  0  0  0
    6.6110    9.1550   18.2000 C   0  0  0  0  0  0  0  0  0  0  0  0
    6.6120    8.9620   16.6950 C   0  0  0  0  0  0  0  0  0  0  0  0
    9.0360    8.3080   12.8880 H   0  0  0  0  0  0  0  0  0  0  0  0
    7.7080    4.8620   10.8420 H   0  0  0  0  0  0  0  0  0  0  0  0
   10.0640    4.4160   10.1420 H   0  0  0  0  0  0  0  0  0  0  0  0
   11.8680    5.9500   10.8360 H   0  0  0  0  0  0  0  0  0  0  0  0
    5.2950    5.8310   12.7800 H   0  0  0  0  0  0  0  0  0  0  0  0
    6.2480    4.7760   14.7550 H   0  0  0  0  0  0  0  0  0  0  0  0
    4.8140    5.7970   14.6640 H   0  0  0  0  0  0  0  0  0  0  0  0
    3.9890    8.3890   15.7990 H   0  0  0  0  0  0  0  0  0  0  0  0
    3.9550    6.8300   16.6160 H   0  0  0  0  0  0  0  0  0  0  0  0
    3.8040    9.6010   17.6360 H   0  0  0  0  0  0  0  0  0  0  0  0
    3.3750    8.0320   18.4450 H   0  0  0  0  0  0  0  0  0  0  0  0
    4.8190   10.6350   19.2080 H   0  0  0  0  0  0  0  0  0  0  0  0
    4.9870   10.0690   21.8240 H   0  0  0  0  0  0  0  0  0  0  0  0
    6.2090   10.9420   20.8580 H   0  0  0  0  0  0  0  0  0  0  0  0
    7.6500    9.1100   20.8870 H   0  0  0  0  0  0  0  0  0  0  0  0
    6.7980    8.8670   22.4170 H   0  0  0  0  0  0  0  0  0  0  0  0
    5.5980    4.4220   20.6530 H   0  0  0  0  0  0  0  0  0  0  0  0
    4.7180    5.7650   18.6080 H   0  0  0  0  0  0  0  0  0  0  0  0
    7.4470    8.4980   18.5890 H   0  0  0  0  0  0  0  0  0  0  0  0
    6.8870   10.2050   18.3910 H   0  0  0  0  0  0  0  0  0  0  0  0
    6.2090    9.8560   16.1650 H   0  0  0  0  0  0  0  0  0  0  0  0
    7.6610    8.7970   16.3880 H   0  0  0  0  0  0  0  0  0  0  0  0
  2  3  1  0  0  0  0
  2  1  1  0  0  0  0
  3 28  1  0  0  0  0
  4  8  1  0  0  0  0
  4  3  2  0  0  0  0
  5  4  1  0  0  0  0
  6  5  2  0  0  0  0
  6  7  1  0  0  0  0
  7  2  2  0  0  0  0
  8 10  1  0  0  0  0
  9  8  2  0  0  0  0
 10 11  1  0  0  0  0
 11 34  1  0  0  0  0
 11 33  1  0  0  0  0
 11 12  1  0  0  0  0
 12 13  2  0  0  0  0
 12 14  1  0  0  0  0
 14 15  1  0  0  0  0
 14 27  1  0  0  0  0
 15 16  1  0  0  0  0
 16 38  1  0  0  0  0
 16 17  1  0  0  0  0
 17 25  1  0  0  0  0
 17 18  1  0  0  0  0
 18 19  1  0  0  0  0
 19 20  1  0  0  0  0
 19 40  1  0  0  0  0
 20 43  1  0  0  0  0
 21 20  1  0  0  0  0
 21 22  1  0  0  0  0
 23 44  1  0  0  0  0
 23 22  2  0  0  0  0
 24 25  1  0  0  0  0
 24 23  1  0  0  0  0
 25 21  2  0  0  0  0
 26 47  1  0  0  0  0
 26 46  1  0  0  0  0
 26 17  1  0  0  0  0
 27 26  1  0  0  0  0
 29  5  1  0  0  0  0
 30  6  1  0  0  0  0
 31  7  1  0  0  0  0
 32 10  1  0  0  0  0
 35 15  1  0  0  0  0
 36 15  1  0  0  0  0
 37 16  1  0  0  0  0
 39 18  1  0  0  0  0
 41 19  1  0  0  0  0
 42 20  1  0  0  0  0
 45 24  1  0  0  0  0
 48 27  1  0  0  0  0
 49 27  1  0  0  0  0
M  END
>  <Pose>
1

>  <Score>
-6.29

$$$$
