
 OpenBabel03172210413D

 49 52  0  0  0  0  0  0  0  0999 V2000
    6.8470    5.8660   14.9190 B   0  0  0  0  0  0  0  0  0  0  0  0
    7.4680    6.9920   13.5280 C   0  0  0  0  0  0  0  0  0  0  0  0
    8.4300    6.5180   12.6550 C   0  0  0  0  0  0  0  0  0  0  0  0
    8.9250    7.2890   11.6210 C   0  0  0  0  0  0  0  0  0  0  0  0
    8.4240    8.5750   11.4740 C   0  0  0  0  0  0  0  0  0  0  0  0
    7.4680    9.0400   12.3450 C   0  0  0  0  0  0  0  0  0  0  0  0
    6.9640    8.2850   13.3810 C   0  0  0  0  0  0  0  0  0  0  0  0
    9.9370    6.8180   10.6860 C   0  0  0  0  0  0  0  0  0  0  0  0
    9.5890    6.1440    9.6840 O   0  0  0  0  0  0  0  0  0  0  0  0
   11.3170    7.0820   10.8470 N   0  0  0  0  0  0  0  0  0  0  0  0
   12.1410    6.3240   11.7630 C   0  0  0  0  0  0  0  0  0  0  0  0
   11.6860    4.9120   11.8700 C   0  0  0  0  0  0  0  0  0  0  0  0
   11.3460    4.5090   13.0090 O   0  0  0  0  0  0  0  0  0  0  0  0
   11.6200    4.0300   10.7810 N   0  0  0  0  0  0  0  0  0  0  0  0
   10.7150    2.9080   10.7460 C   0  0  0  0  0  0  0  0  0  0  0  0
   11.5660    1.6580   10.7220 C   0  0  0  0  0  0  0  0  0  0  0  0
   12.6040    1.7700    9.6310 C   0  0  0  0  0  0  0  0  0  0  0  0
   13.9110    1.7500   10.2530 N   0  0  0  0  0  0  0  0  0  0  0  0
   15.0060    1.7210    9.3470 C   0  0  0  0  0  0  0  0  0  0  0  0
   14.8600    0.8770    8.1350 C   0  0  0  0  0  0  0  0  0  0  0  0
   13.6120    0.0860    8.0800 C   0  0  0  0  0  0  0  0  0  0  0  0
   13.2760   -1.0640    7.4190 N   0  0  0  0  0  0  0  0  0  0  0  0
   12.0010   -1.3270    7.7330 C   0  0  0  0  0  0  0  0  0  0  0  0
   11.5450   -0.3760    8.5640 N   0  0  0  0  0  0  0  0  0  0  0  0
   12.5280    0.5280    8.8040 C   0  0  0  0  0  0  0  0  0  0  0  0
   12.4540    2.9730    8.7560 C   0  0  0  0  0  0  0  0  0  0  0  0
   12.4750    4.2250    9.6380 C   0  0  0  0  0  0  0  0  0  0  0  0
    8.7880    5.5290   12.8000 H   0  0  0  0  0  0  0  0  0  0  0  0
    8.7580    9.2470   10.6870 H   0  0  0  0  0  0  0  0  0  0  0  0
    7.0640   10.0430   12.2470 H   0  0  0  0  0  0  0  0  0  0  0  0
    6.2240    8.6130   14.0740 H   0  0  0  0  0  0  0  0  0  0  0  0
   11.7500    7.8440   10.2880 H   0  0  0  0  0  0  0  0  0  0  0  0
   12.0860    6.7480   12.7870 H   0  0  0  0  0  0  0  0  0  0  0  0
   13.1830    6.4080   11.3990 H   0  0  0  0  0  0  0  0  0  0  0  0
   10.0910    2.9340    9.8160 H   0  0  0  0  0  0  0  0  0  0  0  0
    9.9950    2.9070   11.5830 H   0  0  0  0  0  0  0  0  0  0  0  0
   10.9490    0.7420   10.6030 H   0  0  0  0  0  0  0  0  0  0  0  0
   12.0520    1.6080   11.7340 H   0  0  0  0  0  0  0  0  0  0  0  0
   14.0040    2.6130   10.8510 H   0  0  0  0  0  0  0  0  0  0  0  0
   15.8910    1.3190    9.9240 H   0  0  0  0  0  0  0  0  0  0  0  0
   15.3460    2.7500    9.0480 H   0  0  0  0  0  0  0  0  0  0  0  0
   15.7150    0.1480    8.0100 H   0  0  0  0  0  0  0  0  0  0  0  0
   14.9190    1.4900    7.1900 H   0  0  0  0  0  0  0  0  0  0  0  0
   13.9360   -1.6070    6.7900 H   0  0  0  0  0  0  0  0  0  0  0  0
   11.4300   -2.1690    7.3770 H   0  0  0  0  0  0  0  0  0  0  0  0
   11.5820    2.9370    8.1040 H   0  0  0  0  0  0  0  0  0  0  0  0
   13.3520    3.0430    8.1170 H   0  0  0  0  0  0  0  0  0  0  0  0
   12.1110    5.1060    9.0690 H   0  0  0  0  0  0  0  0  0  0  0  0
   13.5210    4.4070    9.8990 H   0  0  0  0  0  0  0  0  0  0  0  0
  2  1  1  0  0  0  0
  3 28  1  0  0  0  0
  3  2  2  0  0  0  0
  4  3  1  0  0  0  0
  5  4  2  0  0  0  0
  5  6  1  0  0  0  0
  6  7  2  0  0  0  0
  7  2  1  0  0  0  0
  7 31  1  0  0  0  0
  8 10  1  0  0  0  0
  8  4  1  0  0  0  0
  9  8  2  0  0  0  0
 10 11  1  0  0  0  0
 11 12  1  0  0  0  0
 11 33  1  0  0  0  0
 12 13  2  0  0  0  0
 14 12  1  0  0  0  0
 15 14  1  0  0  0  0
 15 36  1  0  0  0  0
 16 15  1  0  0  0  0
 16 38  1  0  0  0  0
 17 18  1  0  0  0  0
 17 16  1  0  0  0  0
 18 39  1  0  0  0  0
 19 40  1  0  0  0  0
 19 18  1  0  0  0  0
 20 19  1  0  0  0  0
 21 20  1  0  0  0  0
 21 25  2  0  0  0  0
 22 23  1  0  0  0  0
 22 21  1  0  0  0  0
 23 24  2  0  0  0  0
 24 25  1  0  0  0  0
 25 17  1  0  0  0  0
 26 17  1  0  0  0  0
 26 27  1  0  0  0  0
 27 49  1  0  0  0  0
 27 14  1  0  0  0  0
 29  5  1  0  0  0  0
 30  6  1  0  0  0  0
 32 10  1  0  0  0  0
 34 11  1  0  0  0  0
 35 15  1  0  0  0  0
 37 16  1  0  0  0  0
 41 19  1  0  0  0  0
 42 20  1  0  0  0  0
 43 20  1  0  0  0  0
 44 22  1  0  0  0  0
 45 23  1  0  0  0  0
 46 26  1  0  0  0  0
 47 26  1  0  0  0  0
 48 27  1  0  0  0  0
M  END
>  <Pose>
1

>  <Score>
-6.92

$$$$
