
 OpenBabel03172210413D

 48 51  0  0  1  0  0  0  0  0999 V2000
   14.5460    1.0340    8.2140 B   0  0  0  0  0  0  0  0  0  0  0  0
   14.5160    2.3970    9.5560 C   0  0  0  0  0  0  0  0  0  0  0  0
   13.3270    2.9340    9.9650 C   0  0  0  0  0  0  0  0  0  0  0  0
   13.2950    3.9250   10.9390 C   0  0  0  0  0  0  0  0  0  0  0  0
   14.4770    4.3400   11.4680 C   0  0  0  0  0  0  0  0  0  0  0  0
   15.6770    3.7900   11.0470 C   0  0  0  0  0  0  0  0  0  0  0  0
   15.7060    2.8100   10.0840 C   0  0  0  0  0  0  0  0  0  0  0  0
   12.0290    4.4960   11.3660 C   0  0  0  0  0  0  0  0  0  0  0  0
   11.0790    4.5860   10.5040 O   0  0  0  0  0  0  0  0  0  0  0  0
   11.8160    4.9490   12.6830 N   0  0  0  0  0  0  0  0  0  0  0  0
   10.6820    5.8270   12.9140 C   0  0  2  0  0  0  0  0  0  0  0  0
    9.9050    5.4170   14.1500 C   0  0  0  0  0  0  0  0  0  0  0  0
    8.5830    5.9550   13.8940 N   0  0  0  0  0  0  0  0  0  0  0  0
    8.4800    6.4540   12.5380 C   0  0  1  0  0  0  0  0  0  0  0  0
    9.6330    5.7170   11.8450 C   0  0  0  0  0  0  0  0  0  0  0  0
    7.1800    6.0620   11.9950 C   0  0  0  0  0  0  0  0  0  0  0  0
    7.0840    5.4590   10.9160 O   0  0  0  0  0  0  0  0  0  0  0  0
    6.0220    6.3940   12.7420 N   0  0  0  0  0  0  0  0  0  0  0  0
    6.1190    6.5440   14.1770 C   0  0  1  0  0  0  0  0  0  0  0  0
    7.4140    6.0720   14.7170 C   0  0  0  0  0  0  0  0  0  0  0  0
    7.5050    5.7600   15.9330 O   0  0  0  0  0  0  0  0  0  0  0  0
    5.7890    7.9480   14.6370 C   0  0  0  0  0  0  0  0  0  0  0  0
    5.3550    8.0120   16.0430 C   0  0  0  0  0  0  0  0  0  0  0  0
    6.0070    8.8530   16.9260 C   0  0  0  0  0  0  0  0  0  0  0  0
    5.6080    8.9180   18.2410 C   0  0  0  0  0  0  0  0  0  0  0  0
    4.5610    8.1660   18.7410 C   0  0  0  0  0  0  0  0  0  0  0  0
    3.9090    7.3270   17.8630 C   0  0  0  0  0  0  0  0  0  0  0  0
    4.2960    7.2480   16.5390 C   0  0  0  0  0  0  0  0  0  0  0  0
   12.3620    2.6210    9.5570 H   0  0  0  0  0  0  0  0  0  0  0  0
   14.4850    5.1200   12.2330 H   0  0  0  0  0  0  0  0  0  0  0  0
   16.6150    4.1180   11.4650 H   0  0  0  0  0  0  0  0  0  0  0  0
   16.6340    2.3590    9.7330 H   0  0  0  0  0  0  0  0  0  0  0  0
   12.4500    4.6510   13.4370 H   0  0  0  0  0  0  0  0  0  0  0  0
   10.9700    6.8690   13.0400 H   0  0  0  0  0  0  0  0  0  0  0  0
    9.8340    4.3130   14.2580 H   0  0  0  0  0  0  0  0  0  0  0  0
   10.3470    5.8480   15.0750 H   0  0  0  0  0  0  0  0  0  0  0  0
    8.6360    7.5510   12.4690 H   0  0  0  0  0  0  0  0  0  0  0  0
    9.8570    6.2990   10.9380 H   0  0  0  0  0  0  0  0  0  0  0  0
    9.2950    4.6910   11.6590 H   0  0  0  0  0  0  0  0  0  0  0  0
    5.0870    6.5350   12.2970 H   0  0  0  0  0  0  0  0  0  0  0  0
    5.2890    5.8990   14.5960 H   0  0  0  0  0  0  0  0  0  0  0  0
    6.6750    8.5870   14.4620 H   0  0  0  0  0  0  0  0  0  0  0  0
    4.9570    8.3060   14.0100 H   0  0  0  0  0  0  0  0  0  0  0  0
    6.8390    9.4830   16.6330 H   0  0  0  0  0  0  0  0  0  0  0  0
    6.1130    9.5730   18.9370 H   0  0  0  0  0  0  0  0  0  0  0  0
    4.2740    8.2460   19.7920 H   0  0  0  0  0  0  0  0  0  0  0  0
    3.0830    6.7330   18.2580 H   0  0  0  0  0  0  0  0  0  0  0  0
    3.7630    6.5780   15.8770 H   0  0  0  0  0  0  0  0  0  0  0  0
  1  2  1  0  0  0  0
  2  3  2  0  0  0  0
  2  7  1  0  0  0  0
  3  4  1  0  0  0  0
  4  8  1  0  0  0  0
  4  5  2  0  0  0  0
  5 30  1  0  0  0  0
  6 31  1  0  0  0  0
  6  5  1  0  0  0  0
  7  6  2  0  0  0  0
  8 10  1  0  0  0  0
  9  8  2  0  0  0  0
 10 11  1  0  0  0  0
 10 33  1  0  0  0  0
 11 34  1  1  0  0  0
 11 12  1  0  0  0  0
 12 35  1  0  0  0  0
 12 36  1  0  0  0  0
 13 12  1  0  0  0  0
 13 20  1  0  0  0  0
 14 37  1  6  0  0  0
 14 13  1  0  0  0  0
 15 14  1  0  0  0  0
 15 11  1  0  0  0  0
 16 14  1  0  0  0  0
 16 18  1  0  0  0  0
 17 16  2  0  0  0  0
 18 19  1  0  0  0  0
 19 41  1  1  0  0  0
 19 22  1  0  0  0  0
 19 20  1  0  0  0  0
 20 21  2  0  0  0  0
 22 23  1  0  0  0  0
 23 28  2  0  0  0  0
 23 24  1  0  0  0  0
 24 25  2  0  0  0  0
 25 26  1  0  0  0  0
 25 45  1  0  0  0  0
 26 46  1  0  0  0  0
 27 47  1  0  0  0  0
 27 26  2  0  0  0  0
 28 27  1  0  0  0  0
 29  3  1  0  0  0  0
 32  7  1  0  0  0  0
 38 15  1  0  0  0  0
 39 15  1  0  0  0  0
 40 18  1  0  0  0  0
 42 22  1  0  0  0  0
 43 22  1  0  0  0  0
 44 24  1  0  0  0  0
 48 28  1  0  0  0  0
M  END
>  <Pose>
1

>  <Score>
-6.80

$$$$
