
 OpenBabel03172210413D

 42 45  0  0  1  0  0  0  0  0999 V2000
    4.2040    7.1380   16.1660 B   0  0  0  0  0  0  0  0  0  0  0  0
    5.8110    6.7990   15.2100 C   0  0  0  0  0  0  0  0  0  0  0  0
    5.8390    6.6400   13.8470 C   0  0  0  0  0  0  0  0  0  0  0  0
    6.9980    6.3740   13.1590 C   0  0  0  0  0  0  0  0  0  0  0  0
    8.1750    6.2630   13.8540 C   0  0  0  0  0  0  0  0  0  0  0  0
    8.1920    6.4160   15.2350 C   0  0  0  0  0  0  0  0  0  0  0  0
    7.0210    6.6810   15.8880 C   0  0  0  0  0  0  0  0  0  0  0  0
    6.9920    6.2020   11.6560 C   0  0  0  0  0  0  0  0  0  0  0  0
    5.9130    6.6430   11.1530 O   0  0  0  0  0  0  0  0  0  0  0  0
    8.0790    5.6270   11.0450 N   0  0  0  0  0  0  0  0  0  0  0  0
    9.1270    5.0660   10.4520 C   0  0  2  0  0  0  0  0  0  0  0  0
    9.1920    3.5070   10.6500 C   0  0  0  0  0  0  0  0  0  0  0  0
   10.5170    3.1750   10.2500 N   0  0  0  0  0  0  0  0  0  0  0  0
   11.3490    4.3670   10.3190 C   0  0  1  0  0  0  0  0  0  0  0  0
   10.5360    5.3510   11.0560 C   0  0  0  0  0  0  0  0  0  0  0  0
   12.6730    4.0330   10.8690 C   0  0  0  0  0  0  0  0  0  0  0  0
   13.2190    4.8160   11.6660 O   0  0  0  0  0  0  0  0  0  0  0  0
   13.3190    2.8340   10.4950 N   0  0  0  0  0  0  0  0  0  0  0  0
   12.5300    1.6610   10.1880 C   0  0  2  0  0  0  0  0  0  0  0  0
   13.3060    0.9150    9.1230 C   0  0  0  0  0  0  0  0  0  0  0  0
   14.5770    1.6750    8.9700 C   0  0  0  0  0  0  0  0  0  0  0  0
   14.7050    2.4160   10.3100 C   0  0  0  0  0  0  0  0  0  0  0  0
   11.1520    1.9750    9.8240 C   0  0  0  0  0  0  0  0  0  0  0  0
   10.4820    1.1590    9.0990 O   0  0  0  0  0  0  0  0  0  0  0  0
    4.9260    6.7270   13.2720 H   0  0  0  0  0  0  0  0  0  0  0  0
    9.1090    6.0500   13.3830 H   0  0  0  0  0  0  0  0  0  0  0  0
    9.1490    6.3220   15.7610 H   0  0  0  0  0  0  0  0  0  0  0  0
    7.0120    6.8060   16.9730 H   0  0  0  0  0  0  0  0  0  0  0  0
    7.2760    4.5810   10.6470 H   0  0  0  0  0  0  0  0  0  0  0  0
    9.3250    5.1350    9.3450 H   0  0  0  0  0  0  0  0  0  0  0  0
    8.9520    3.3510   11.6990 H   0  0  0  0  0  0  0  0  0  0  0  0
    8.3960    3.0800   10.0210 H   0  0  0  0  0  0  0  0  0  0  0  0
   11.5330    4.7650    9.2890 H   0  0  0  0  0  0  0  0  0  0  0  0
   10.7870    6.4120   10.8730 H   0  0  0  0  0  0  0  0  0  0  0  0
   10.4340    5.1380   12.1310 H   0  0  0  0  0  0  0  0  0  0  0  0
   12.5140    0.9490   11.0710 H   0  0  0  0  0  0  0  0  0  0  0  0
   12.7080    0.9080    8.1600 H   0  0  0  0  0  0  0  0  0  0  0  0
   13.5490   -0.1250    9.4080 H   0  0  0  0  0  0  0  0  0  0  0  0
   14.4510    2.4060    8.1370 H   0  0  0  0  0  0  0  0  0  0  0  0
   15.4680    1.0410    8.7780 H   0  0  0  0  0  0  0  0  0  0  0  0
   15.0550    1.7210   11.0690 H   0  0  0  0  0  0  0  0  0  0  0  0
   15.4120    3.2260   10.1660 H   0  0  0  0  0  0  0  0  0  0  0  0
  2  7  1  0  0  0  0
  2  1  1  0  0  0  0
  3  2  2  0  0  0  0
  4  3  1  0  0  0  0
  4  5  2  0  0  0  0
  5  6  1  0  0  0  0
  6 27  1  0  0  0  0
  6  7  2  0  0  0  0
  7 28  1  0  0  0  0
  8  4  1  0  0  0  0
  9  8  2  0  0  0  0
 10  8  1  0  0  0  0
 11 30  1  6  0  0  0
 11 12  1  0  0  0  0
 11 10  1  0  0  0  0
 11 15  1  0  0  0  0
 12 31  1  0  0  0  0
 13 14  1  0  0  0  0
 13 12  1  0  0  0  0
 14 33  1  6  0  0  0
 14 16  1  0  0  0  0
 14 15  1  0  0  0  0
 15 35  1  0  0  0  0
 16 17  2  0  0  0  0
 18 16  1  0  0  0  0
 19 18  1  0  0  0  0
 19 36  1  1  0  0  0
 20 38  1  0  0  0  0
 20 19  1  0  0  0  0
 21 20  1  0  0  0  0
 21 22  1  0  0  0  0
 22 18  1  0  0  0  0
 22 41  1  0  0  0  0
 23 19  1  0  0  0  0
 23 13  1  0  0  0  0
 24 23  2  0  0  0  0
 25  3  1  0  0  0  0
 26  5  1  0  0  0  0
 29 10  1  0  0  0  0
 32 12  1  0  0  0  0
 34 15  1  0  0  0  0
 37 20  1  0  0  0  0
 39 21  1  0  0  0  0
 40 21  1  0  0  0  0
 42 22  1  0  0  0  0
M  END
>  <Pose>
1

>  <Score>
-5.97

$$$$
