
 OpenBabel03172210413D

 42 45  0  0  1  0  0  0  0  0999 V2000
   21.4130    7.2280   10.2740 B   0  0  0  0  0  0  0  0  0  0  0  0
   19.6040    6.7540   10.6140 C   0  0  0  0  0  0  0  0  0  0  0  0
   19.1700    5.4530   10.6010 C   0  0  0  0  0  0  0  0  0  0  0  0
   17.8710    5.0830   10.8430 C   0  0  0  0  0  0  0  0  0  0  0  0
   16.9770    6.0920   11.1100 C   0  0  0  0  0  0  0  0  0  0  0  0
   17.3790    7.4360   11.1320 C   0  0  0  0  0  0  0  0  0  0  0  0
   18.7030    7.7610   10.8820 C   0  0  0  0  0  0  0  0  0  0  0  0
   17.4270    3.7000   10.8270 C   0  0  0  0  0  0  0  0  0  0  0  0
   17.5520    3.0700   11.9350 O   0  0  0  0  0  0  0  0  0  0  0  0
   16.8860    3.0300    9.7080 N   0  0  0  0  0  0  0  0  0  0  0  0
   15.8840    2.0450    9.8800 C   0  0  2  0  0  0  0  0  0  0  0  0
   15.4200    1.3790    8.6280 C   0  0  0  0  0  0  0  0  0  0  0  0
   14.1150    0.8190    9.0190 N   0  0  0  0  0  0  0  0  0  0  0  0
   13.7050    1.4030   10.2880 C   0  0  1  0  0  0  0  0  0  0  0  0
   14.5610    2.6270   10.4010 C   0  0  0  0  0  0  0  0  0  0  0  0
   12.2720    1.6740   10.2170 C   0  0  0  0  0  0  0  0  0  0  0  0
   11.7810    2.6680   10.7650 O   0  0  0  0  0  0  0  0  0  0  0  0
   11.4160    0.7740    9.5000 N   0  0  0  0  0  0  0  0  0  0  0  0
   12.0010   -0.4860    9.1110 C   0  0  1  0  0  0  0  0  0  0  0  0
   11.0510   -1.2680    8.3010 C   0  0  0  0  0  0  0  0  0  0  0  0
    9.7310   -0.5870    8.6020 C   0  0  0  0  0  0  0  0  0  0  0  0
   10.0600    0.7990    9.0440 C   0  0  0  0  0  0  0  0  0  0  0  0
   13.2670   -0.1310    8.3800 C   0  0  0  0  0  0  0  0  0  0  0  0
   13.5560   -0.6440    7.2760 O   0  0  0  0  0  0  0  0  0  0  0  0
   19.8760    4.6490   10.3900 H   0  0  0  0  0  0  0  0  0  0  0  0
   15.9360    5.8910   11.3110 H   0  0  0  0  0  0  0  0  0  0  0  0
   16.6760    8.2290   11.3420 H   0  0  0  0  0  0  0  0  0  0  0  0
   18.9670    8.8090   10.9090 H   0  0  0  0  0  0  0  0  0  0  0  0
   17.2330    3.2700    8.7620 H   0  0  0  0  0  0  0  0  0  0  0  0
   16.1580    1.2540   10.6060 H   0  0  0  0  0  0  0  0  0  0  0  0
   15.2450    2.1950    7.8710 H   0  0  0  0  0  0  0  0  0  0  0  0
   16.0900    0.6220    8.2220 H   0  0  0  0  0  0  0  0  0  0  0  0
   13.9640    0.6580   11.0840 H   0  0  0  0  0  0  0  0  0  0  0  0
   14.1770    3.4020    9.7350 H   0  0  0  0  0  0  0  0  0  0  0  0
   14.6990    2.9520   11.4520 H   0  0  0  0  0  0  0  0  0  0  0  0
   12.3630   -1.0240   10.0310 H   0  0  0  0  0  0  0  0  0  0  0  0
   10.9880   -2.3020    8.7220 H   0  0  0  0  0  0  0  0  0  0  0  0
   11.2670   -1.3370    7.2280 H   0  0  0  0  0  0  0  0  0  0  0  0
    9.2190   -1.1140    9.4580 H   0  0  0  0  0  0  0  0  0  0  0  0
    9.1010   -0.6560    7.7060 H   0  0  0  0  0  0  0  0  0  0  0  0
    9.9030    1.4790    8.1750 H   0  0  0  0  0  0  0  0  0  0  0  0
    9.3410    1.1010    9.8610 H   0  0  0  0  0  0  0  0  0  0  0  0
  1  2  1  0  0  0  0
  2  7  1  0  0  0  0
  3  2  2  0  0  0  0
  3  4  1  0  0  0  0
  4  5  2  0  0  0  0
  5  6  1  0  0  0  0
  5 26  1  0  0  0  0
  6 27  1  0  0  0  0
  7 28  1  0  0  0  0
  7  6  2  0  0  0  0
  8  4  1  0  0  0  0
  8  9  2  0  0  0  0
 10 11  1  0  0  0  0
 10  8  1  0  0  0  0
 11 15  1  0  0  0  0
 11 30  1  1  0  0  0
 12 13  1  0  0  0  0
 12 11  1  0  0  0  0
 13 14  1  0  0  0  0
 14 15  1  0  0  0  0
 14 33  1  1  0  0  0
 15 35  1  0  0  0  0
 16 14  1  0  0  0  0
 16 17  2  0  0  0  0
 18 16  1  0  0  0  0
 19 18  1  0  0  0  0
 19 36  1  1  0  0  0
 20 21  1  0  0  0  0
 20 37  1  0  0  0  0
 20 19  1  0  0  0  0
 21 22  1  0  0  0  0
 21 39  1  0  0  0  0
 22 18  1  0  0  0  0
 22 42  1  0  0  0  0
 23 13  1  0  0  0  0
 23 19  1  0  0  0  0
 24 23  2  0  0  0  0
 25  3  1  0  0  0  0
 29 10  1  0  0  0  0
 31 12  1  0  0  0  0
 32 12  1  0  0  0  0
 34 15  1  0  0  0  0
 38 20  1  0  0  0  0
 40 21  1  0  0  0  0
 41 22  1  0  0  0  0
M  END
>  <Pose>
1

>  <Score>
-6.48

$$$$
