
 OpenBabel03172210413D

 52 55  0  0  0  0  0  0  0  0999 V2000
   19.8130   11.1820   11.5730 B   0  0  0  0  0  0  0  0  0  0  0  0
   20.1940    9.3330   11.2340 C   0  0  0  0  0  0  0  0  0  0  0  0
   19.2050    8.3550   11.3280 C   0  0  0  0  0  0  0  0  0  0  0  0
   19.5390    7.0320   11.1070 C   0  0  0  0  0  0  0  0  0  0  0  0
   20.8530    6.7380   10.7900 C   0  0  0  0  0  0  0  0  0  0  0  0
   21.7870    7.7280   10.7050 C   0  0  0  0  0  0  0  0  0  0  0  0
   21.5200    9.0540   10.9250 C   0  0  0  0  0  0  0  0  0  0  0  0
   18.6340    5.8840   11.3070 C   0  0  0  0  0  0  0  0  0  0  0  0
   18.0890    5.2360   10.3160 N   0  0  0  0  0  0  0  0  0  0  0  0
   17.2600    4.2170   10.3720 N   0  0  0  0  0  0  0  0  0  0  0  0
   16.1340    3.5610   10.7780 C   0  0  0  0  0  0  0  0  0  0  0  0
   15.5350    3.6560   11.8720 O   0  0  0  0  0  0  0  0  0  0  0  0
   15.5350    2.6140    9.7480 C   0  0  0  0  0  0  0  0  0  0  0  0
   16.0840    1.7920    8.9210 N   0  0  0  0  0  0  0  0  0  0  0  0
   15.1560    1.0250    8.3590 N   0  0  0  0  0  0  0  0  0  0  0  0
   13.9430    1.3710    8.8640 N   0  0  0  0  0  0  0  0  0  0  0  0
   14.1100    2.3490    9.6910 C   0  0  0  0  0  0  0  0  0  0  0  0
   13.2400    3.1990   10.4970 C   0  0  0  0  0  0  0  0  0  0  0  0
   11.9940    3.6450   10.0700 N   0  0  0  0  0  0  0  0  0  0  0  0
   10.7140    3.3130   10.3060 C   0  0  0  0  0  0  0  0  0  0  0  0
   10.0650    4.4390   11.1570 C   0  0  0  0  0  0  0  0  0  0  0  0
   11.1090    5.0900   11.8630 N   0  0  0  0  0  0  0  0  0  0  0  0
   11.9240    5.8650   10.9760 C   0  0  0  0  0  0  0  0  0  0  0  0
   12.0580    5.0810    9.6640 C   0  0  0  0  0  0  0  0  0  0  0  0
   10.8580    5.6380   13.1280 C   0  0  0  0  0  0  0  0  0  0  0  0
   12.8840    0.3770    8.7600 C   0  0  0  0  0  0  0  0  0  0  0  0
   11.8370    0.5480    9.7390 N   0  0  0  0  0  0  0  0  0  0  0  0
   10.9580   -0.3290    9.6130 O   0  0  0  0  0  0  0  0  0  0  0  0
   11.2820   -1.1190    8.6350 N   0  0  0  0  0  0  0  0  0  0  0  0
   12.4900   -0.6620    8.1090 C   0  0  0  0  0  0  0  0  0  0  0  0
   13.0700   -1.3430    7.0200 N   0  0  0  0  0  0  0  0  0  0  0  0
   18.2080    8.6290   11.5800 H   0  0  0  0  0  0  0  0  0  0  0  0
   21.0890    5.6940   10.6120 H   0  0  0  0  0  0  0  0  0  0  0  0
   22.8400    7.4870   10.4350 H   0  0  0  0  0  0  0  0  0  0  0  0
   22.2890    9.7970   10.8580 H   0  0  0  0  0  0  0  0  0  0  0  0
   18.3050    5.5910   12.2800 H   0  0  0  0  0  0  0  0  0  0  0  0
   17.7540    3.4390    9.5670 H   0  0  0  0  0  0  0  0  0  0  0  0
   13.0060    2.4320   11.4410 H   0  0  0  0  0  0  0  0  0  0  0  0
   13.7450    3.9800   11.0730 H   0  0  0  0  0  0  0  0  0  0  0  0
   10.4320    2.3540   10.6910 H   0  0  0  0  0  0  0  0  0  0  0  0
   10.1370    3.3770    9.2950 H   0  0  0  0  0  0  0  0  0  0  0  0
    9.5570    5.1240   10.5030 H   0  0  0  0  0  0  0  0  0  0  0  0
    9.3990    3.9350   11.8640 H   0  0  0  0  0  0  0  0  0  0  0  0
   12.9710    6.0690   11.3590 H   0  0  0  0  0  0  0  0  0  0  0  0
   11.4630    6.8420   10.7970 H   0  0  0  0  0  0  0  0  0  0  0  0
   12.9350    5.2800    9.1040 H   0  0  0  0  0  0  0  0  0  0  0  0
   11.1870    5.2580    9.0620 H   0  0  0  0  0  0  0  0  0  0  0  0
    9.7720    5.4520   13.3760 H   0  0  0  0  0  0  0  0  0  0  0  0
   11.4710    5.0600   13.8900 H   0  0  0  0  0  0  0  0  0  0  0  0
   11.0640    6.7060   13.2010 H   0  0  0  0  0  0  0  0  0  0  0  0
   12.3360   -1.6840    6.3040 H   0  0  0  0  0  0  0  0  0  0  0  0
   14.0190   -1.5670    6.7920 H   0  0  0  0  0  0  0  0  0  0  0  0
  2  3  1  0  0  0  0
  2  1  1  0  0  0  0
  3 32  1  0  0  0  0
  4  8  1  0  0  0  0
  4  3  2  0  0  0  0
  5  4  1  0  0  0  0
  6  5  2  0  0  0  0
  6  7  1  0  0  0  0
  7  2  2  0  0  0  0
  8 36  1  0  0  0  0
  9 10  1  0  0  0  0
  9  8  2  0  0  0  0
 10 11  1  0  0  0  0
 11 12  2  0  0  0  0
 13 11  1  0  0  0  0
 14 13  1  0  0  0  0
 15 16  1  0  0  0  0
 15 14  2  0  0  0  0
 16 17  1  0  0  0  0
 17 13  2  0  0  0  0
 17 18  1  0  0  0  0
 18 39  1  0  0  0  0
 18 38  1  0  0  0  0
 19 20  1  0  0  0  0
 19 18  1  0  0  0  0
 20 40  1  0  0  0  0
 20 21  1  0  0  0  0
 21 22  1  0  0  0  0
 21 43  1  0  0  0  0
 22 25  1  0  0  0  0
 23 44  1  0  0  0  0
 23 22  1  0  0  0  0
 24 19  1  0  0  0  0
 24 23  1  0  0  0  0
 25 50  1  0  0  0  0
 25 48  1  0  0  0  0
 25 49  1  0  0  0  0
 26 16  1  0  0  0  0
 26 27  2  0  0  0  0
 28 27  1  0  0  0  0
 29 28  1  0  0  0  0
 30 29  2  0  0  0  0
 30 26  1  0  0  0  0
 31 30  1  0  0  0  0
 33  5  1  0  0  0  0
 34  6  1  0  0  0  0
 35  7  1  0  0  0  0
 37 10  1  0  0  0  0
 41 20  1  0  0  0  0
 42 21  1  0  0  0  0
 45 23  1  0  0  0  0
 46 24  1  0  0  0  0
 47 24  1  0  0  0  0
 51 31  1  0  0  0  0
 52 31  1  0  0  0  0
M  END
>  <Pose>
1

>  <Score>
-7.94

$$$$
