
 OpenBabel03172210413D

 50 53  0  0  0  0  0  0  0  0999 V2000
    6.3630    7.4480   17.0850 B   0  0  0  0  0  0  0  0  0  0  0  0
    5.8920    7.6490   15.2390 C   0  0  0  0  0  0  0  0  0  0  0  0
    6.4210    6.8280   14.2730 C   0  0  0  0  0  0  0  0  0  0  0  0
    6.1120    6.9350   12.9290 C   0  0  0  0  0  0  0  0  0  0  0  0
    5.2220    7.9290   12.5810 C   0  0  0  0  0  0  0  0  0  0  0  0
    4.6640    8.7810   13.5300 C   0  0  0  0  0  0  0  0  0  0  0  0
    5.0050    8.6350   14.8580 C   0  0  0  0  0  0  0  0  0  0  0  0
    6.6900    6.0470   11.9290 C   0  0  0  0  0  0  0  0  0  0  0  0
    7.9250    5.7370   11.8890 N   0  0  0  0  0  0  0  0  0  0  0  0
    8.5070    4.8900   10.9420 N   0  0  0  0  0  0  0  0  0  0  0  0
    9.9060    4.6360   10.9320 C   0  0  0  0  0  0  0  0  0  0  0  0
   10.3770    3.4890   10.4330 N   0  0  0  0  0  4  0  0  0  0  0  0
   11.7040    3.1840   10.3950 C   0  0  0  0  0  0  0  0  0  0  0  0
   12.5330    4.1240   10.8980 N   0  0  0  0  0  0  0  0  0  0  0  0
   12.1210    5.2950   11.4130 C   0  0  0  0  0  0  0  0  0  0  0  0
   10.7830    5.5160   11.4120 N   0  0  0  0  0  0  0  0  0  0  0  0
   13.0040    6.2570   11.9310 N   0  0  0  0  0  0  0  0  0  0  0  0
   14.4320    6.0850   11.8880 C   0  0  0  0  0  0  0  0  0  0  0  0
   15.0120    7.4770   11.6030 C   0  0  0  0  0  0  0  0  0  0  0  0
   14.0860    8.2560   10.9140 O   0  0  0  0  0  0  0  0  0  0  0  0
   12.9920    8.6190   11.6580 C   0  0  0  0  0  0  0  0  0  0  0  0
   12.4910    7.4570   12.5270 C   0  0  0  0  0  0  0  0  0  0  0  0
   12.1770    1.9650    9.8620 N   0  0  0  0  0  0  0  0  0  0  0  0
   11.3010    0.8360    9.7200 C   0  0  0  0  0  0  0  0  0  0  0  0
   11.3890    0.3870    8.2660 C   0  0  0  0  0  0  0  0  0  0  0  0
   12.7210    0.0490    8.0420 O   0  0  0  0  0  0  0  0  0  0  0  0
   13.5560    1.1510    8.0770 C   0  0  0  0  0  0  0  0  0  0  0  0
   13.5460    1.8180    9.4480 C   0  0  0  0  0  0  0  0  0  0  0  0
    7.1250    6.0390   14.5440 H   0  0  0  0  0  0  0  0  0  0  0  0
    4.9300    8.0730   11.5410 H   0  0  0  0  0  0  0  0  0  0  0  0
    3.9660    9.5630   13.2620 H   0  0  0  0  0  0  0  0  0  0  0  0
    4.5620    9.3030   15.5750 H   0  0  0  0  0  0  0  0  0  0  0  0
    6.0300    5.6330   11.1800 H   0  0  0  0  0  0  0  0  0  0  0  0
    7.8850    4.4450   10.2350 H   0  0  0  0  0  0  0  0  0  0  0  0
   14.7580    5.3610   11.1160 H   0  0  0  0  0  0  0  0  0  0  0  0
   14.7690    5.8140   12.9020 H   0  0  0  0  0  0  0  0  0  0  0  0
   15.8660    7.3200   10.9260 H   0  0  0  0  0  0  0  0  0  0  0  0
   15.3370    7.9760   12.5240 H   0  0  0  0  0  0  0  0  0  0  0  0
   13.1110    9.5330   12.2420 H   0  0  0  0  0  0  0  0  0  0  0  0
   12.1480    8.8120   10.9320 H   0  0  0  0  0  0  0  0  0  0  0  0
   11.3990    7.4180   12.5390 H   0  0  0  0  0  0  0  0  0  0  0  0
   12.9110    7.6060   13.5680 H   0  0  0  0  0  0  0  0  0  0  0  0
   10.2620    1.0420   10.0230 H   0  0  0  0  0  0  0  0  0  0  0  0
   11.7510   -0.0040   10.3170 H   0  0  0  0  0  0  0  0  0  0  0  0
   11.1680    1.2740    7.6500 H   0  0  0  0  0  0  0  0  0  0  0  0
   10.7540   -0.4750    8.0550 H   0  0  0  0  0  0  0  0  0  0  0  0
   13.1940    1.8530    7.2860 H   0  0  0  0  0  0  0  0  0  0  0  0
   14.5790    0.7980    7.8400 H   0  0  0  0  0  0  0  0  0  0  0  0
   14.0570    1.1150   10.1380 H   0  0  0  0  0  0  0  0  0  0  0  0
   14.0920    2.7730    9.3770 H   0  0  0  0  0  0  0  0  0  0  0  0
  2  1  1  0  0  0  0
  3 29  1  0  0  0  0
  3  2  2  0  0  0  0
  4  3  1  0  0  0  0
  5  4  2  0  0  0  0
  5  6  1  0  0  0  0
  6  7  2  0  0  0  0
  7  2  1  0  0  0  0
  7 32  1  0  0  0  0
  8  4  1  0  0  0  0
  9  8  2  0  0  0  0
 10  9  1  0  0  0  0
 11 10  1  0  0  0  0
 11 16  1  0  0  0  0
 12 11  2  0  0  0  0
 13 12  2  0  0  0  0
 13 14  1  0  0  0  0
 14 15  2  0  0  0  0
 15 17  1  0  0  0  0
 16 15  1  0  0  0  0
 17 22  1  0  0  0  0
 18 17  1  0  0  0  0
 18 36  1  0  0  0  0
 19 18  1  0  0  0  0
 19 38  1  0  0  0  0
 20 19  1  0  0  0  0
 20 21  1  0  0  0  0
 21 39  1  0  0  0  0
 21 22  1  0  0  0  0
 22 41  1  0  0  0  0
 22 42  1  0  0  0  0
 23 13  1  0  0  0  0
 24 23  1  0  0  0  0
 24 43  1  0  0  0  0
 24 44  1  0  0  0  0
 25 24  1  0  0  0  0
 26 27  1  0  0  0  0
 26 25  1  0  0  0  0
 27 28  1  0  0  0  0
 28 23  1  0  0  0  0
 28 49  1  0  0  0  0
 30  5  1  0  0  0  0
 31  6  1  0  0  0  0
 33  8  1  0  0  0  0
 34 10  1  0  0  0  0
 35 18  1  0  0  0  0
 37 19  1  0  0  0  0
 40 21  1  0  0  0  0
 45 25  1  0  0  0  0
 46 25  1  0  0  0  0
 47 27  1  0  0  0  0
 48 27  1  0  0  0  0
 50 28  1  0  0  0  0
M  END
>  <Pose>
1

>  <Score>
-6.16

$$$$
