
 OpenBabel03172210413D

 61 64  0  0  1  0  0  0  0  0999 V2000
   11.5930    3.2190   11.9610 B   0  0  0  0  0  0  0  0  0  0  0  0
   11.1240    5.0690   11.9090 C   0  0  0  0  0  0  0  0  0  0  0  0
   10.1350    5.6230   12.6640 C   0  0  0  0  0  0  0  0  0  0  0  0
    9.7660    6.9570   12.6550 C   0  0  0  0  0  0  0  0  0  0  0  0
   10.4660    7.8060   11.8020 C   0  0  0  0  0  0  0  0  0  0  0  0
   11.4770    7.2770   11.0230 C   0  0  0  0  0  0  0  0  0  0  0  0
   11.8220    5.9370   11.0540 C   0  0  0  0  0  0  0  0  0  0  0  0
    8.6590    7.3790   13.5190 C   0  0  1  0  0  0  0  0  0  0  0  0
    7.6150    6.4230   13.5100 N   0  0  0  0  0  0  0  0  0  0  0  0
    7.4950    5.8330   14.7940 C   0  0  0  0  0  0  0  0  0  0  0  0
    6.7140    4.8750   15.0850 O   0  0  0  0  0  0  0  0  0  0  0  0
    8.3990    6.5110   15.6980 C   0  0  0  0  0  0  0  0  0  0  0  0
    8.4940    6.1800   16.9110 O   0  0  0  0  0  0  0  0  0  0  0  0
    9.0840    7.5370   14.9350 C   0  0  0  0  0  0  0  0  0  0  0  0
    9.9510    8.3860   15.4370 C   0  0  0  0  0  0  0  0  0  0  0  0
   10.5870    9.2700   14.5960 O   0  0  0  0  0  0  0  0  0  0  0  0
   10.2420    8.4110   16.8490 C   0  0  0  0  0  0  0  0  0  0  0  0
   11.4220    7.9010   17.4170 C   0  0  0  0  0  0  0  0  0  0  0  0
   11.3990    8.1120   18.7390 N   0  0  0  0  0  0  0  0  0  0  0  0
   10.2630    8.7270   19.0130 N   0  0  0  0  0  0  0  0  0  0  0  0
    9.5380    8.9270   17.9020 C   0  0  0  0  0  0  0  0  0  0  0  0
   12.4010    7.7630   19.6840 C   0  0  0  0  0  0  0  0  0  0  0  0
   12.7810    6.4330   19.7940 C   0  0  0  0  0  0  0  0  0  0  0  0
   13.7560    6.0240   20.6830 C   0  0  0  0  0  0  0  0  0  0  0  0
   14.4020    6.9420   21.5120 C   0  0  0  0  0  0  0  0  0  0  0  0
   14.0230    8.2680   21.4020 C   0  0  0  0  0  0  0  0  0  0  0  0
   13.0520    8.6480   20.5120 C   0  0  0  0  0  0  0  0  0  0  0  0
   12.5040    7.2390   16.6310 C   0  0  0  0  0  0  0  0  0  0  0  0
    6.7330    6.0730   12.3610 C   0  0  0  0  0  0  0  0  0  0  0  0
    6.2960    7.3330   11.6580 C   0  0  0  0  0  0  0  0  0  0  0  0
    5.6570    8.3330   12.5680 C   0  0  0  0  0  0  0  0  0  0  0  0
    4.5350    7.8770   13.3180 N   0  0  0  0  0  4  0  0  0  0  0  0
    4.7880    7.4860   14.6660 C   0  0  0  0  0  0  0  0  0  0  0  0
    3.4880    8.9120   13.3450 C   0  0  0  0  0  0  0  0  0  0  0  0
    9.5970    4.9190   13.3280 H   0  0  0  0  0  0  0  0  0  0  0  0
   10.2050    8.8480   11.7650 H   0  0  0  0  0  0  0  0  0  0  0  0
   12.0250    7.9490   10.3550 H   0  0  0  0  0  0  0  0  0  0  0  0
   12.6140    5.5200   10.4420 H   0  0  0  0  0  0  0  0  0  0  0  0
    8.2510    8.3470   13.1300 H   0  0  0  0  0  0  0  0  0  0  0  0
    8.5690    9.4260   17.8400 H   0  0  0  0  0  0  0  0  0  0  0  0
   12.2570    5.7260   19.1280 H   0  0  0  0  0  0  0  0  0  0  0  0
   14.0320    4.9780   20.7420 H   0  0  0  0  0  0  0  0  0  0  0  0
   15.1670    6.5910   22.2080 H   0  0  0  0  0  0  0  0  0  0  0  0
   14.5360    8.9740   22.0580 H   0  0  0  0  0  0  0  0  0  0  0  0
   12.7900    9.6950   20.4570 H   0  0  0  0  0  0  0  0  0  0  0  0
   12.6440    7.7530   15.6490 H   0  0  0  0  0  0  0  0  0  0  0  0
   12.3290    6.1530   16.5200 H   0  0  0  0  0  0  0  0  0  0  0  0
   13.4790    7.3530   17.1640 H   0  0  0  0  0  0  0  0  0  0  0  0
    7.2410    5.3440   11.7040 H   0  0  0  0  0  0  0  0  0  0  0  0
    5.7960    5.6230   12.7980 H   0  0  0  0  0  0  0  0  0  0  0  0
    7.2690    7.8170   11.3360 H   0  0  0  0  0  0  0  0  0  0  0  0
    5.7690    7.1430   10.7210 H   0  0  0  0  0  0  0  0  0  0  0  0
    5.3150    9.2450   11.9850 H   0  0  0  0  0  0  0  0  0  0  0  0
    6.4330    8.7420   13.2810 H   0  0  0  0  0  0  0  0  0  0  0  0
    4.0770    7.0590   12.8130 H   0  0  0  0  0  0  0  0  0  0  0  0
    4.1330    8.0340   15.3970 H   0  0  0  0  0  0  0  0  0  0  0  0
    5.8470    7.4910   14.9900 H   0  0  0  0  0  0  0  0  0  0  0  0
    4.4680    6.4090   14.7830 H   0  0  0  0  0  0  0  0  0  0  0  0
    2.5450    8.5470   12.9050 H   0  0  0  0  0  0  0  0  0  0  0  0
    3.8640    9.7660   12.7380 H   0  0  0  0  0  0  0  0  0  0  0  0
    3.3580    9.2970   14.3810 H   0  0  0  0  0  0  0  0  0  0  0  0
  2  1  1  0  0  0  0
  2  3  1  0  0  0  0
  3 35  1  0  0  0  0
  4  3  2  0  0  0  0
  4  8  1  0  0  0  0
  5  4  1  0  0  0  0
  6  7  1  0  0  0  0
  6  5  2  0  0  0  0
  7  2  2  0  0  0  0
  8 39  1  6  0  0  0
  8 14  1  0  0  0  0
  9  8  1  0  0  0  0
  9 10  1  0  0  0  0
 10 11  2  0  0  0  0
 10 12  1  0  0  0  0
 12 13  2  0  0  0  0
 14 15  2  0  0  0  0
 14 12  1  0  0  0  0
 15 17  1  0  0  0  0
 16 15  1  0  0  0  0
 17 18  2  0  0  0  0
 17 21  1  0  0  0  0
 18 19  1  0  0  0  0
 19 20  1  0  0  0  0
 19 22  1  0  0  0  0
 21 20  2  0  0  0  0
 22 23  2  0  0  0  0
 22 27  1  0  0  0  0
 23 24  1  0  0  0  0
 24 42  1  0  0  0  0
 24 25  2  0  0  0  0
 25 43  1  0  0  0  0
 26 25  1  0  0  0  0
 26 44  1  0  0  0  0
 27 26  2  0  0  0  0
 28 48  1  0  0  0  0
 28 18  1  0  0  0  0
 29 50  1  0  0  0  0
 29  9  1  0  0  0  0
 30 29  1  0  0  0  0
 30 31  1  0  0  0  0
 31 54  1  0  0  0  0
 31 32  1  0  0  0  0
 32 34  1  0  0  0  0
 32 33  1  0  0  0  0
 33 58  1  0  0  0  0
 33 57  1  0  0  0  0
 33 56  1  0  0  0  0
 34 61  1  0  0  0  0
 36  5  1  0  0  0  0
 37  6  1  0  0  0  0
 38  7  1  0  0  0  0
 40 21  1  0  0  0  0
 41 23  1  0  0  0  0
 45 27  1  0  0  0  0
 46 28  1  0  0  0  0
 47 28  1  0  0  0  0
 49 29  1  0  0  0  0
 51 30  1  0  0  0  0
 52 30  1  0  0  0  0
 53 31  1  0  0  0  0
 55 32  1  0  0  0  0
 59 34  1  0  0  0  0
 60 34  1  0  0  0  0
M  END
>  <Pose>
1

>  <Score>
-5.97

$$$$
