
 OpenBabel03172210413D

 56 59  0  0  1  0  0  0  0  0999 V2000
   16.9220    5.5800   12.0060 B   0  0  0  0  0  0  0  0  0  0  0  0
   15.1200    6.2070   11.9120 C   0  0  0  0  0  0  0  0  0  0  0  0
   14.0510    5.3690   12.2120 C   0  0  0  0  0  0  0  0  0  0  0  0
   12.7390    5.7920   12.1540 C   0  0  0  0  0  0  0  0  0  0  0  0
   12.5320    7.1110   11.7750 C   0  0  0  0  0  0  0  0  0  0  0  0
   13.5780    7.9570   11.4730 C   0  0  0  0  0  0  0  0  0  0  0  0
   14.8650    7.4910   11.5460 C   0  0  0  0  0  0  0  0  0  0  0  0
   11.5950    4.8930   12.4770 C   0  0  2  0  0  0  0  0  0  0  0  0
   11.4210    3.8470   11.5140 N   0  0  0  0  0  0  0  0  0  0  0  0
   10.5360    4.3570   10.5280 C   0  0  0  0  0  0  0  0  0  0  0  0
   10.3890    3.9020    9.3660 O   0  0  0  0  0  0  0  0  0  0  0  0
    9.8020    5.5180   11.0850 C   0  0  0  0  0  0  0  0  0  0  0  0
    8.9450    6.2190   10.5210 O   0  0  0  0  0  0  0  0  0  0  0  0
   10.3020    5.6650   12.4380 C   0  0  0  0  0  0  0  0  0  0  0  0
    9.7360    6.2900   13.4470 C   0  0  0  0  0  0  0  0  0  0  0  0
   10.3310    6.2670   14.6900 O   0  0  0  0  0  0  0  0  0  0  0  0
    8.4990    7.0130   13.2920 C   0  0  0  0  0  0  0  0  0  0  0  0
    8.3220    8.1860   12.6170 C   0  0  0  0  0  0  0  0  0  0  0  0
    7.0640    8.7510   12.5140 C   0  0  0  0  0  0  0  0  0  0  0  0
    5.9330    8.1940   13.0650 C   0  0  0  0  0  0  0  0  0  0  0  0
    6.1140    7.0090   13.7480 C   0  0  0  0  0  0  0  0  0  0  0  0
    7.3550    6.4320   13.8630 C   0  0  0  0  0  0  0  0  0  0  0  0
    4.5890    8.8230   12.9400 C   0  0  0  0  0  0  0  0  0  0  0  0
   12.0240    2.5000   11.5080 C   0  0  0  0  0  0  0  0  0  0  0  0
   13.2240    2.5520   10.6050 C   0  0  0  0  0  0  0  0  0  0  0  0
   13.8790    1.3120   10.3950 N   0  0  0  0  0  4  0  0  0  0  0  0
   13.2930    0.4480    9.4120 C   0  0  0  0  0  0  0  0  0  0  0  0
   13.8420    0.6280    8.0230 C   0  0  0  0  0  0  0  0  0  0  0  0
   15.2080    0.7960    7.9830 O   0  0  0  0  0  0  0  0  0  0  0  0
   15.6280    1.8530    8.7560 C   0  0  0  0  0  0  0  0  0  0  0  0
   15.2870    1.5390   10.1890 C   0  0  0  0  0  0  0  0  0  0  0  0
   14.2760    4.3720   12.4960 H   0  0  0  0  0  0  0  0  0  0  0  0
   11.5290    7.4910   11.7140 H   0  0  0  0  0  0  0  0  0  0  0  0
   13.3810    8.9800   11.1820 H   0  0  0  0  0  0  0  0  0  0  0  0
   15.6960    8.1600   11.3070 H   0  0  0  0  0  0  0  0  0  0  0  0
   11.7740    4.4450   13.4540 H   0  0  0  0  0  0  0  0  0  0  0  0
    9.2010    8.6650   12.1970 H   0  0  0  0  0  0  0  0  0  0  0  0
    6.9520    9.6820   11.9710 H   0  0  0  0  0  0  0  0  0  0  0  0
    5.2200    6.5590   14.1920 H   0  0  0  0  0  0  0  0  0  0  0  0
    7.4270    5.4980   14.4140 H   0  0  0  0  0  0  0  0  0  0  0  0
    4.4880    9.3890   11.9740 H   0  0  0  0  0  0  0  0  0  0  0  0
    3.8130    8.0070   12.8570 H   0  0  0  0  0  0  0  0  0  0  0  0
    4.3140    9.4330   13.8000 H   0  0  0  0  0  0  0  0  0  0  0  0
   12.3910    2.2710   12.5340 H   0  0  0  0  0  0  0  0  0  0  0  0
   11.2290    1.8350   11.1650 H   0  0  0  0  0  0  0  0  0  0  0  0
   13.9040    3.3430   11.0400 H   0  0  0  0  0  0  0  0  0  0  0  0
   12.8790    2.9950    9.6380 H   0  0  0  0  0  0  0  0  0  0  0  0
   13.8310    0.7870   11.3190 H   0  0  0  0  0  0  0  0  0  0  0  0
   12.1940    0.5720    9.3420 H   0  0  0  0  0  0  0  0  0  0  0  0
   13.4540   -0.6200    9.6790 H   0  0  0  0  0  0  0  0  0  0  0  0
   13.6110   -0.2980    7.4330 H   0  0  0  0  0  0  0  0  0  0  0  0
   13.3690    1.4530    7.4650 H   0  0  0  0  0  0  0  0  0  0  0  0
   15.2340    2.8320    8.4240 H   0  0  0  0  0  0  0  0  0  0  0  0
   16.7330    1.9150    8.6880 H   0  0  0  0  0  0  0  0  0  0  0  0
   15.5810    2.3640   10.8830 H   0  0  0  0  0  0  0  0  0  0  0  0
   15.8830    0.6530   10.4940 H   0  0  0  0  0  0  0  0  0  0  0  0
  2  1  1  0  0  0  0
  2  3  1  0  0  0  0
  3 32  1  0  0  0  0
  4  3  2  0  0  0  0
  4  8  1  0  0  0  0
  5  4  1  0  0  0  0
  6  7  1  0  0  0  0
  6  5  2  0  0  0  0
  7  2  2  0  0  0  0
  8 36  1  1  0  0  0
  9  8  1  0  0  0  0
 10 12  1  0  0  0  0
 10  9  1  0  0  0  0
 11 10  2  0  0  0  0
 12 14  1  0  0  0  0
 13 12  2  0  0  0  0
 14  8  1  0  0  0  0
 14 15  2  0  0  0  0
 15 16  1  0  0  0  0
 17 15  1  0  0  0  0
 17 22  1  0  0  0  0
 18 17  2  0  0  0  0
 19 18  1  0  0  0  0
 19 20  2  0  0  0  0
 20 21  1  0  0  0  0
 21 22  2  0  0  0  0
 21 39  1  0  0  0  0
 22 40  1  0  0  0  0
 23 20  1  0  0  0  0
 23 43  1  0  0  0  0
 24  9  1  0  0  0  0
 24 44  1  0  0  0  0
 25 46  1  0  0  0  0
 25 24  1  0  0  0  0
 26 25  1  0  0  0  0
 26 48  1  0  0  0  0
 27 50  1  0  0  0  0
 27 26  1  0  0  0  0
 28 27  1  0  0  0  0
 29 28  1  0  0  0  0
 29 30  1  0  0  0  0
 30 31  1  0  0  0  0
 31 26  1  0  0  0  0
 31 56  1  0  0  0  0
 31 55  1  0  0  0  0
 33  5  1  0  0  0  0
 34  6  1  0  0  0  0
 35  7  1  0  0  0  0
 37 18  1  0  0  0  0
 38 19  1  0  0  0  0
 41 23  1  0  0  0  0
 42 23  1  0  0  0  0
 45 24  1  0  0  0  0
 47 25  1  0  0  0  0
 49 27  1  0  0  0  0
 51 28  1  0  0  0  0
 52 28  1  0  0  0  0
 53 30  1  0  0  0  0
 54 30  1  0  0  0  0
M  END
>  <Pose>
1

>  <Score>
-6.41

$$$$
