
 OpenBabel03172210413D

 56 59  0  0  1  0  0  0  0  0999 V2000
   10.9470    7.6770   17.0150 B   0  0  0  0  0  0  0  0  0  0  0  0
   11.0110    7.4920   15.1250 C   0  0  0  0  0  0  0  0  0  0  0  0
   10.4100    6.4350   14.4540 C   0  0  0  0  0  0  0  0  0  0  0  0
   10.4650    6.3060   13.0850 C   0  0  0  0  0  0  0  0  0  0  0  0
   11.1390    7.2580   12.3800 C   0  0  0  0  0  0  0  0  0  0  0  0
   11.7490    8.3300   13.0450 C   0  0  0  0  0  0  0  0  0  0  0  0
   11.6930    8.4570   14.4150 C   0  0  0  0  0  0  0  0  0  0  0  0
    9.8020    5.1590   12.4160 C   0  0  1  0  0  0  0  0  0  0  0  0
    8.7440    5.6200   11.5320 N   0  0  0  0  0  0  0  0  0  0  0  0
    9.3310    5.7800   10.2240 C   0  0  0  0  0  0  0  0  0  0  0  0
    8.8320    6.4600    9.2940 O   0  0  0  0  0  0  0  0  0  0  0  0
   10.5640    5.0210   10.2170 C   0  0  0  0  0  0  0  0  0  0  0  0
   11.3990    4.8880    9.2690 O   0  0  0  0  0  0  0  0  0  0  0  0
   10.7070    4.4050   11.5290 C   0  0  0  0  0  0  0  0  0  0  0  0
   11.5250    3.4040   11.8210 C   0  0  0  0  0  0  0  0  0  0  0  0
   11.5130    3.0290   13.1810 O   0  0  0  0  0  0  0  0  0  0  0  0
   12.3740    2.7170   10.8610 C   0  0  0  0  0  0  0  0  0  0  0  0
   13.6960    3.0060   10.6190 C   0  0  0  0  0  0  0  0  0  0  0  0
   14.4640    2.2960    9.7180 C   0  0  0  0  0  0  0  0  0  0  0  0
   13.9210    1.2480    9.0090 C   0  0  0  0  0  0  0  0  0  0  0  0
   12.5940    0.9440    9.2390 C   0  0  0  0  0  0  0  0  0  0  0  0
   11.8350    1.6600   10.1430 C   0  0  0  0  0  0  0  0  0  0  0  0
   14.8830    0.3240    7.8510 Cl  0  0  0  0  0  0  0  0  0  0  0  0
    7.4130    5.9500   11.9270 C   0  0  0  0  0  0  0  0  0  0  0  0
    7.2000    6.7650   13.1370 C   0  0  0  0  0  0  0  0  0  0  0  0
    6.1260    6.4100   14.0960 C   0  0  0  0  0  0  0  0  0  0  0  0
    4.9670    7.2360   14.1500 N   0  0  0  0  0  4  0  0  0  0  0  0
    4.3950    7.2330   15.4720 C   0  0  0  0  0  0  0  0  0  0  0  0
    4.8990    8.3630   16.3450 C   0  0  0  0  0  0  0  0  0  0  0  0
    4.4780    9.5910   15.8290 O   0  0  0  0  0  0  0  0  0  0  0  0
    4.2470    9.5000   14.4550 C   0  0  0  0  0  0  0  0  0  0  0  0
    5.3490    8.6560   13.8760 C   0  0  0  0  0  0  0  0  0  0  0  0
    9.8840    5.6960   15.0330 H   0  0  0  0  0  0  0  0  0  0  0  0
   11.2070    7.2000   11.3160 H   0  0  0  0  0  0  0  0  0  0  0  0
   12.2780    9.0830   12.4960 H   0  0  0  0  0  0  0  0  0  0  0  0
   12.1680    9.2910   14.9370 H   0  0  0  0  0  0  0  0  0  0  0  0
    9.3250    4.5240   13.1910 H   0  0  0  0  0  0  0  0  0  0  0  0
   14.1590    3.8320   11.1340 H   0  0  0  0  0  0  0  0  0  0  0  0
   15.5050    2.5270    9.5310 H   0  0  0  0  0  0  0  0  0  0  0  0
   12.1850    0.1170    8.6710 H   0  0  0  0  0  0  0  0  0  0  0  0
   10.7890    1.4110   10.3150 H   0  0  0  0  0  0  0  0  0  0  0  0
    6.8810    4.9520   12.0760 H   0  0  0  0  0  0  0  0  0  0  0  0
    6.9040    6.4520   11.0290 H   0  0  0  0  0  0  0  0  0  0  0  0
    7.0950    7.8820   12.8580 H   0  0  0  0  0  0  0  0  0  0  0  0
    8.1710    6.7790   13.7590 H   0  0  0  0  0  0  0  0  0  0  0  0
    6.5240    6.3500   15.1480 H   0  0  0  0  0  0  0  0  0  0  0  0
    5.7620    5.3440   13.8970 H   0  0  0  0  0  0  0  0  0  0  0  0
    4.2960    7.0310   13.4140 H   0  0  0  0  0  0  0  0  0  0  0  0
    4.6210    6.2730   15.9810 H   0  0  0  0  0  0  0  0  0  0  0  0
    3.2970    7.3220   15.4050 H   0  0  0  0  0  0  0  0  0  0  0  0
    6.0010    8.2930   16.4300 H   0  0  0  0  0  0  0  0  0  0  0  0
    4.4740    8.2380   17.3420 H   0  0  0  0  0  0  0  0  0  0  0  0
    3.2590    9.0340   14.3100 H   0  0  0  0  0  0  0  0  0  0  0  0
    4.2400   10.5310   14.0380 H   0  0  0  0  0  0  0  0  0  0  0  0
    6.3120    8.8410   14.3950 H   0  0  0  0  0  0  0  0  0  0  0  0
    5.4070    8.7900   12.7800 H   0  0  0  0  0  0  0  0  0  0  0  0
  2  1  1  0  0  0  0
  3 33  1  0  0  0  0
  3  2  1  0  0  0  0
  4  3  2  0  0  0  0
  5  6  2  0  0  0  0
  5  4  1  0  0  0  0
  6  7  1  0  0  0  0
  7 36  1  0  0  0  0
  7  2  2  0  0  0  0
  8  4  1  0  0  0  0
  8 37  1  1  0  0  0
  9 24  1  0  0  0  0
  9  8  1  0  0  0  0
 10  9  1  0  0  0  0
 11 10  2  0  0  0  0
 12 10  1  0  0  0  0
 12 14  1  0  0  0  0
 13 12  2  0  0  0  0
 14 15  2  0  0  0  0
 14  8  1  0  0  0  0
 15 16  1  0  0  0  0
 17 15  1  0  0  0  0
 18 17  1  0  0  0  0
 18 38  1  0  0  0  0
 19 18  2  0  0  0  0
 20 21  2  0  0  0  0
 20 19  1  0  0  0  0
 21 22  1  0  0  0  0
 22 41  1  0  0  0  0
 22 17  2  0  0  0  0
 23 20  1  0  0  0  0
 24 42  1  0  0  0  0
 24 25  1  0  0  0  0
 25 45  1  0  0  0  0
 25 26  1  0  0  0  0
 26 27  1  0  0  0  0
 26 46  1  0  0  0  0
 27 28  1  0  0  0  0
 28 49  1  0  0  0  0
 28 29  1  0  0  0  0
 29 51  1  0  0  0  0
 29 52  1  0  0  0  0
 30 29  1  0  0  0  0
 31 30  1  0  0  0  0
 32 27  1  0  0  0  0
 32 55  1  0  0  0  0
 32 31  1  0  0  0  0
 34  5  1  0  0  0  0
 35  6  1  0  0  0  0
 39 19  1  0  0  0  0
 40 21  1  0  0  0  0
 43 24  1  0  0  0  0
 44 25  1  0  0  0  0
 47 26  1  0  0  0  0
 48 27  1  0  0  0  0
 50 28  1  0  0  0  0
 53 31  1  0  0  0  0
 54 31  1  0  0  0  0
 56 32  1  0  0  0  0
M  END
>  <Pose>
1

>  <Score>
-6.69

$$$$
