
 OpenBabel03172210413D

 53 56  0  0  1  0  0  0  0  0999 V2000
   14.4490    8.7470   14.0750 B   0  0  0  0  0  0  0  0  0  0  0  0
   12.5870    8.7870   14.5320 C   0  0  0  0  0  0  0  0  0  0  0  0
   11.7730    7.6790   14.3490 C   0  0  0  0  0  0  0  0  0  0  0  0
   10.4320    7.6760   14.6650 C   0  0  0  0  0  0  0  0  0  0  0  0
    9.8990    8.8380   15.1870 C   0  0  0  0  0  0  0  0  0  0  0  0
   10.7040    9.9630   15.3780 C   0  0  0  0  0  0  0  0  0  0  0  0
   12.0480    9.9450   15.0530 C   0  0  0  0  0  0  0  0  0  0  0  0
    9.6050    6.4520   14.4460 C   0  0  2  0  0  0  0  0  0  0  0  0
    9.6720    6.0110   13.0610 N   0  0  0  0  0  0  0  0  0  0  0  0
    8.8490    6.9790   12.3680 C   0  0  0  0  0  0  0  0  0  0  0  0
    8.9250    7.2920   11.1610 O   0  0  0  0  0  0  0  0  0  0  0  0
    7.8990    7.5470   13.3150 C   0  0  0  0  0  0  0  0  0  0  0  0
    7.0010    8.4160   13.1650 O   0  0  0  0  0  0  0  0  0  0  0  0
    8.1700    6.8940   14.5940 C   0  0  0  0  0  0  0  0  0  0  0  0
    7.3950    6.7420   15.6290 C   0  0  0  0  0  0  0  0  0  0  0  0
    7.9250    6.0960   16.7660 O   0  0  0  0  0  0  0  0  0  0  0  0
    6.0250    7.2220   15.6050 C   0  0  0  0  0  0  0  0  0  0  0  0
    5.6900    8.4560   15.8750 O   0  0  0  0  0  0  0  0  0  0  0  0
    4.4000    8.6260   15.7870 C   0  0  0  0  0  0  0  0  0  0  0  0
    3.8380    7.4350   15.4380 C   0  0  0  0  0  0  0  0  0  0  0  0
    4.8880    6.5170   15.3200 C   0  0  0  0  0  0  0  0  0  0  0  0
   10.3710    4.9160   12.4420 C   0  0  0  0  0  0  0  0  0  0  0  0
   11.4850    5.3460   11.5160 C   0  0  0  0  0  0  0  0  0  0  0  0
   12.7060    5.6180   12.3010 C   0  0  0  0  0  0  0  0  0  0  0  0
   13.5050    4.4550   12.6160 N   0  0  0  0  0  4  0  0  0  0  0  0
   13.0630    3.2720   11.9150 C   0  0  0  0  0  0  0  0  0  0  0  0
   13.7990    2.9780   10.6570 C   0  0  0  0  0  0  0  0  0  0  0  0
   15.1640    3.1630   10.7090 O   0  0  0  0  0  0  0  0  0  0  0  0
   15.5410    4.3930   11.2340 C   0  0  0  0  0  0  0  0  0  0  0  0
   14.9150    4.6490   12.5810 C   0  0  0  0  0  0  0  0  0  0  0  0
   12.2030    6.7680   13.9380 H   0  0  0  0  0  0  0  0  0  0  0  0
    8.8510    8.8490   15.4390 H   0  0  0  0  0  0  0  0  0  0  0  0
   10.2760   10.8600   15.7840 H   0  0  0  0  0  0  0  0  0  0  0  0
   12.6950   10.8020   15.1910 H   0  0  0  0  0  0  0  0  0  0  0  0
    9.7760    5.6810   15.1870 H   0  0  0  0  0  0  0  0  0  0  0  0
    3.8940    9.5770   15.9690 H   0  0  0  0  0  0  0  0  0  0  0  0
    2.7960    7.2360   15.2840 H   0  0  0  0  0  0  0  0  0  0  0  0
    4.7490    5.4820   15.0620 H   0  0  0  0  0  0  0  0  0  0  0  0
   10.8510    4.2830   13.2470 H   0  0  0  0  0  0  0  0  0  0  0  0
    9.6740    4.2030   11.9390 H   0  0  0  0  0  0  0  0  0  0  0  0
   11.1770    6.2890   11.0070 H   0  0  0  0  0  0  0  0  0  0  0  0
   11.5820    4.5050   10.7930 H   0  0  0  0  0  0  0  0  0  0  0  0
   12.4850    6.0870   13.2950 H   0  0  0  0  0  0  0  0  0  0  0  0
   13.3310    6.3500   11.7530 H   0  0  0  0  0  0  0  0  0  0  0  0
   13.2690    4.2540   13.6390 H   0  0  0  0  0  0  0  0  0  0  0  0
   13.1070    2.3730   12.5710 H   0  0  0  0  0  0  0  0  0  0  0  0
   11.9880    3.4110   11.6670 H   0  0  0  0  0  0  0  0  0  0  0  0
   13.6460    1.8790   10.4320 H   0  0  0  0  0  0  0  0  0  0  0  0
   13.3460    3.4810    9.7520 H   0  0  0  0  0  0  0  0  0  0  0  0
   16.6470    4.3340   11.4080 H   0  0  0  0  0  0  0  0  0  0  0  0
   15.3740    5.2420   10.5690 H   0  0  0  0  0  0  0  0  0  0  0  0
   15.4100    3.9070   13.2790 H   0  0  0  0  0  0  0  0  0  0  0  0
   15.2090    5.6260   12.9560 H   0  0  0  0  0  0  0  0  0  0  0  0
  1  2  1  0  0  0  0
  2  7  1  0  0  0  0
  3  2  2  0  0  0  0
  3  4  1  0  0  0  0
  4  5  2  0  0  0  0
  5  6  1  0  0  0  0
  5 32  1  0  0  0  0
  6 33  1  0  0  0  0
  7 34  1  0  0  0  0
  7  6  2  0  0  0  0
  8 14  1  0  0  0  0
  8  4  1  0  0  0  0
  8 35  1  1  0  0  0
  9  8  1  0  0  0  0
 10  9  1  0  0  0  0
 10 12  1  0  0  0  0
 11 10  2  0  0  0  0
 12 14  1  0  0  0  0
 13 12  2  0  0  0  0
 14 15  2  0  0  0  0
 15 16  1  0  0  0  0
 17 15  1  0  0  0  0
 17 18  1  0  0  0  0
 19 18  1  0  0  0  0
 19 36  1  0  0  0  0
 20 19  2  0  0  0  0
 21 20  1  0  0  0  0
 21 17  2  0  0  0  0
 22  9  1  0  0  0  0
 22 39  1  0  0  0  0
 23 24  1  0  0  0  0
 23 22  1  0  0  0  0
 24 25  1  0  0  0  0
 24 43  1  0  0  0  0
 25 45  1  0  0  0  0
 26 46  1  0  0  0  0
 26 25  1  0  0  0  0
 27 28  1  0  0  0  0
 27 26  1  0  0  0  0
 28 29  1  0  0  0  0
 29 50  1  0  0  0  0
 29 30  1  0  0  0  0
 30 25  1  0  0  0  0
 30 53  1  0  0  0  0
 30 52  1  0  0  0  0
 31  3  1  0  0  0  0
 37 20  1  0  0  0  0
 38 21  1  0  0  0  0
 40 22  1  0  0  0  0
 41 23  1  0  0  0  0
 42 23  1  0  0  0  0
 44 24  1  0  0  0  0
 47 26  1  0  0  0  0
 48 27  1  0  0  0  0
 49 27  1  0  0  0  0
 51 29  1  0  0  0  0
M  END
>  <Pose>
1

>  <Score>
-5.32

$$$$
