
 OpenBabel03172210413D

 38 41  0  0  0  0  0  0  0  0999 V2000
   10.6940   -1.1400    8.6840 B   0  0  0  0  0  0  0  0  0  0  0  0
   12.1050    0.1410    8.7410 C   0  0  0  0  0  0  0  0  0  0  0  0
   11.9540    1.3450    9.4370 C   0  0  0  0  0  0  0  0  0  0  0  0
   12.9730    2.2650    9.4770 C   0  0  0  0  0  0  0  0  0  0  0  0
   14.1420    1.9660    8.8110 C   0  0  0  0  0  0  0  0  0  0  0  0
   14.3050    0.7650    8.1120 C   0  0  0  0  0  0  0  0  0  0  0  0
   13.2780   -0.1500    8.0790 C   0  0  0  0  0  0  0  0  0  0  0  0
   12.8680    3.5140   10.1750 N   0  0  0  0  0  0  0  0  0  0  0  0
   13.6370    4.0090   11.1080 N   0  0  0  0  0  0  0  0  0  0  0  0
   13.1970    5.1950   11.4960 N   0  0  0  0  0  0  0  0  0  0  0  0
   12.0840    5.4890   10.7800 C   0  0  0  0  0  0  0  0  0  0  0  0
   11.8930    4.4100    9.9480 C   0  0  0  0  0  0  0  0  0  0  0  0
   11.2580    6.6870   10.8630 C   0  0  0  0  0  0  0  0  0  0  0  0
   11.8280    7.7900   11.0470 O   0  0  0  0  0  0  0  0  0  0  0  0
    9.8530    6.6570   10.7440 N   0  0  0  0  0  0  0  0  0  0  0  0
    9.0200    5.5510   11.1570 C   0  0  0  0  0  0  0  0  0  0  0  0
    7.7290    6.0390   11.7560 C   0  0  0  0  0  0  0  0  0  0  0  0
    7.4150    6.1840   13.0660 N   0  0  0  0  0  0  0  0  0  0  0  0
    6.1660    6.6490   13.1760 C   0  0  0  0  0  0  0  0  0  0  0  0
    5.7080    6.7900   11.9090 N   0  0  0  0  0  0  0  0  0  0  0  0
    6.6460    6.4250   11.0580 N   0  0  0  0  0  0  0  0  0  0  0  0
    5.7780    6.8230   14.6230 C   0  0  0  0  0  0  0  0  0  0  0  0
    6.8240    5.9650   15.3040 C   0  0  0  0  0  0  0  0  0  0  0  0
    8.0200    5.9830   14.3710 C   0  0  0  0  0  0  0  0  0  0  0  0
   11.0380    1.5770    9.9570 H   0  0  0  0  0  0  0  0  0  0  0  0
   14.9450    2.6840    8.8380 H   0  0  0  0  0  0  0  0  0  0  0  0
   15.2360    0.5370    7.5880 H   0  0  0  0  0  0  0  0  0  0  0  0
   13.3980   -1.0810    7.5400 H   0  0  0  0  0  0  0  0  0  0  0  0
   11.0840    4.3120    9.2320 H   0  0  0  0  0  0  0  0  0  0  0  0
    9.3820    7.4910   10.3270 H   0  0  0  0  0  0  0  0  0  0  0  0
    8.8250    4.8660   10.3120 H   0  0  0  0  0  0  0  0  0  0  0  0
    9.5400    4.9970   11.9930 H   0  0  0  0  0  0  0  0  0  0  0  0
    4.7550    6.4780   14.7900 H   0  0  0  0  0  0  0  0  0  0  0  0
    5.9500    7.8850   14.9320 H   0  0  0  0  0  0  0  0  0  0  0  0
    7.1700    6.3990   16.2620 H   0  0  0  0  0  0  0  0  0  0  0  0
    6.3880    4.9510   15.4130 H   0  0  0  0  0  0  0  0  0  0  0  0
    8.7510    6.7580   14.6490 H   0  0  0  0  0  0  0  0  0  0  0  0
    8.5230    4.9990   14.4630 H   0  0  0  0  0  0  0  0  0  0  0  0
  1  2  1  0  0  0  0
  2  3  1  0  0  0  0
  3  4  2  0  0  0  0
  3 25  1  0  0  0  0
  4  8  1  0  0  0  0
  5 26  1  0  0  0  0
  5  4  1  0  0  0  0
  6  5  2  0  0  0  0
  7  6  1  0  0  0  0
  7  2  2  0  0  0  0
  8  9  1  0  0  0  0
  9 10  2  0  0  0  0
 11 13  1  0  0  0  0
 11 10  1  0  0  0  0
 12  8  1  0  0  0  0
 12 11  2  0  0  0  0
 13 14  2  0  0  0  0
 15 13  1  0  0  0  0
 15 16  1  0  0  0  0
 16 17  1  0  0  0  0
 16 32  1  0  0  0  0
 17 18  1  0  0  0  0
 18 19  1  0  0  0  0
 18 24  1  0  0  0  0
 19 22  1  0  0  0  0
 20 19  2  0  0  0  0
 21 17  2  0  0  0  0
 21 20  1  0  0  0  0
 22 33  1  0  0  0  0
 22 34  1  0  0  0  0
 22 23  1  0  0  0  0
 23 36  1  0  0  0  0
 23 35  1  0  0  0  0
 24 38  1  0  0  0  0
 24 37  1  0  0  0  0
 24 23  1  0  0  0  0
 27  6  1  0  0  0  0
 28  7  1  0  0  0  0
 29 12  1  0  0  0  0
 30 15  1  0  0  0  0
 31 16  1  0  0  0  0
M  END
>  <Pose>
1

>  <Score>
-6.18

$$$$
