
 OpenBabel03172210413D

 37 40  0  0  1  0  0  0  0  0999 V2000
   12.7870    6.8030   13.0920 B   0  0  0  0  0  0  0  0  0  0  0  0
   14.1940    5.6850   12.4550 C   0  0  0  0  0  0  0  0  0  0  0  0
   13.9730    4.6180   11.6200 C   0  0  0  0  0  0  0  0  0  0  0  0
   14.9820    3.7880   11.1380 C   0  0  0  0  0  0  0  0  0  0  0  0
   16.2640    4.1040   11.5590 C   0  0  0  0  0  0  0  0  0  0  0  0
   16.4970    5.1690   12.3950 C   0  0  0  0  0  0  0  0  0  0  0  0
   15.4760    5.9890   12.8660 C   0  0  0  0  0  0  0  0  0  0  0  0
   14.7090    2.6990   10.2800 N   0  0  0  0  0  0  0  0  0  0  0  0
   15.5110    2.1490    9.2150 C   0  0  0  0  0  0  0  0  0  0  0  0
   16.4230    2.7920    8.6230 O   0  0  0  0  0  0  0  0  0  0  0  0
   15.0930    0.7720    8.9610 C   0  0  2  0  0  0  0  0  0  0  0  0
   15.1110    0.3220    7.6700 O   0  0  0  0  0  0  0  0  0  0  0  0
   14.0190   -0.5420    7.6460 N   0  0  0  0  0  0  0  0  0  0  0  0
   12.9860    0.0360    8.4060 C   0  0  0  0  0  0  0  0  0  0  0  0
   13.6130    0.8750    9.2420 C   0  0  0  0  0  0  0  0  0  0  0  0
   13.5200    1.8890   10.2870 C   0  0  0  0  0  0  0  0  0  0  0  0
   12.5550    2.0330   11.0660 O   0  0  0  0  0  0  0  0  0  0  0  0
   11.5560   -0.2270    8.3690 C   0  0  0  0  0  0  0  0  0  0  0  0
   10.9210   -1.0340    7.4190 C   0  0  0  0  0  0  0  0  0  0  0  0
    9.6340   -1.0730    7.7000 N   0  0  0  0  0  0  0  0  0  0  0  0
    9.4170   -0.3300    8.7820 N   0  0  0  0  0  0  0  0  0  0  0  0
   10.5570    0.1910    9.2030 C   0  0  0  0  0  0  0  0  0  0  0  0
    8.5980   -1.7940    6.9620 C   0  0  0  0  0  0  0  0  0  0  0  0
   11.5720   -1.7090    6.2720 C   0  0  0  0  0  0  0  0  0  0  0  0
   12.9690    4.3680   11.2940 H   0  0  0  0  0  0  0  0  0  0  0  0
   17.0830    3.4840   11.2090 H   0  0  0  0  0  0  0  0  0  0  0  0
   17.5010    5.4420   12.7460 H   0  0  0  0  0  0  0  0  0  0  0  0
   15.6700    6.8200   13.5240 H   0  0  0  0  0  0  0  0  0  0  0  0
   15.5680    0.0570    9.6700 H   0  0  0  0  0  0  0  0  0  0  0  0
   13.9760   -1.4450    7.1560 H   0  0  0  0  0  0  0  0  0  0  0  0
   10.6890    0.8330   10.0540 H   0  0  0  0  0  0  0  0  0  0  0  0
    8.0230   -2.4480    7.6680 H   0  0  0  0  0  0  0  0  0  0  0  0
    7.9140   -1.1220    6.4150 H   0  0  0  0  0  0  0  0  0  0  0  0
    9.0970   -2.4650    6.2200 H   0  0  0  0  0  0  0  0  0  0  0  0
   12.6200   -1.3470    6.1320 H   0  0  0  0  0  0  0  0  0  0  0  0
   11.5020   -2.7970    6.4420 H   0  0  0  0  0  0  0  0  0  0  0  0
   10.9750   -1.4480    5.3800 H   0  0  0  0  0  0  0  0  0  0  0  0
  2  7  1  0  0  0  0
  2  1  1  0  0  0  0
  3  2  2  0  0  0  0
  4  5  2  0  0  0  0
  4  3  1  0  0  0  0
  5  6  1  0  0  0  0
  6 27  1  0  0  0  0
  6  7  2  0  0  0  0
  7 28  1  0  0  0  0
  8 16  1  0  0  0  0
  8  4  1  0  0  0  0
  9  8  1  0  0  0  0
 10  9  2  0  0  0  0
 11  9  1  0  0  0  0
 11 15  1  0  0  0  0
 11 29  1  1  0  0  0
 12 11  1  0  0  0  0
 13 12  1  0  0  0  0
 13 14  1  0  0  0  0
 14 15  2  0  0  0  0
 15 16  1  0  0  0  0
 16 17  2  0  0  0  0
 18 14  1  0  0  0  0
 18 22  1  0  0  0  0
 19 20  1  0  0  0  0
 19 18  2  0  0  0  0
 20 21  1  0  0  0  0
 21 22  2  0  0  0  0
 22 31  1  0  0  0  0
 23 32  1  0  0  0  0
 23 20  1  0  0  0  0
 24 36  1  0  0  0  0
 24 19  1  0  0  0  0
 25  3  1  0  0  0  0
 26  5  1  0  0  0  0
 30 13  1  0  0  0  0
 33 23  1  0  0  0  0
 34 23  1  0  0  0  0
 35 24  1  0  0  0  0
 37 24  1  0  0  0  0
M  END
>  <Pose>
1

>  <Score>
-6.62

$$$$
