
 OpenBabel03172210413D

 33 36  0  0  1  0  0  0  0  0999 V2000
   15.1030    1.0980    9.0050 B   0  0  0  0  0  0  0  0  0  0  0  0
   13.2940    1.5720    9.3910 C   0  0  0  0  0  0  0  0  0  0  0  0
   12.9890    2.8470    9.7450 C   0  0  0  0  0  0  0  0  0  0  0  0
   11.7120    3.2970   10.0450 C   0  0  0  0  0  0  0  0  0  0  0  0
   10.7050    2.3620    9.9690 C   0  0  0  0  0  0  0  0  0  0  0  0
   10.9850    1.0420    9.6080 C   0  0  0  0  0  0  0  0  0  0  0  0
   12.2740    0.6430    9.3190 C   0  0  0  0  0  0  0  0  0  0  0  0
   11.4520    4.6700   10.4170 N   0  0  0  0  0  0  0  0  0  0  0  0
   10.3910    5.4890    9.9490 C   0  0  0  0  0  0  0  0  0  0  0  0
    9.7940    5.3390    8.8200 O   0  0  0  0  0  0  0  0  0  0  0  0
   10.0980    6.5160   10.9590 C   0  0  1  0  0  0  0  0  0  0  0  0
    9.0070    6.0050   11.8490 C   0  0  1  0  0  0  0  0  0  0  0  0
    9.7210    4.9960   12.5450 O   0  0  0  0  0  0  0  0  0  0  0  0
   10.6840    5.8620   13.1280 C   0  0  1  0  0  0  0  0  0  0  0  0
   11.2870    6.4740   11.8770 C   0  0  1  0  0  0  0  0  0  0  0  0
   12.2070    5.4630   11.3180 C   0  0  0  0  0  0  0  0  0  0  0  0
   13.4280    5.3430   11.6000 O   0  0  0  0  0  0  0  0  0  0  0  0
    9.7830    6.8260   13.8010 C   0  0  0  0  0  0  0  0  0  0  0  0
    8.7050    6.9010   12.9970 C   0  0  0  0  0  0  0  0  0  0  0  0
    7.8030    5.4950   11.1520 C   0  0  0  0  0  0  0  0  0  0  0  0
    6.7020    5.6360   11.9990 O   0  0  0  0  0  0  0  0  0  0  0  0
   13.8000    3.5820    9.8020 H   0  0  0  0  0  0  0  0  0  0  0  0
    9.6890    2.6310   10.1870 H   0  0  0  0  0  0  0  0  0  0  0  0
   10.2170    0.2860    9.5390 H   0  0  0  0  0  0  0  0  0  0  0  0
   12.5440   -0.3560    9.0370 H   0  0  0  0  0  0  0  0  0  0  0  0
    9.8960    7.5190   10.5410 H   0  0  0  0  0  0  0  0  0  0  0  0
   11.3830    5.3520   13.7650 H   0  0  0  0  0  0  0  0  0  0  0  0
   11.7560    7.4520   12.0520 H   0  0  0  0  0  0  0  0  0  0  0  0
    9.9220    7.3660   14.7280 H   0  0  0  0  0  0  0  0  0  0  0  0
    7.8190    7.5030   13.1840 H   0  0  0  0  0  0  0  0  0  0  0  0
    7.5570    6.0690   10.2350 H   0  0  0  0  0  0  0  0  0  0  0  0
    7.8950    4.4420   10.8740 H   0  0  0  0  0  0  0  0  0  0  0  0
    6.0200    4.9500   11.7910 H   0  0  0  0  0  0  0  0  0  0  0  0
  1  2  1  0  0  0  0
  2  3  1  0  0  0  0
  3 22  1  0  0  0  0
  3  4  2  0  0  0  0
  4  8  1  0  0  0  0
  5  4  1  0  0  0  0
  5 23  1  0  0  0  0
  6  5  2  0  0  0  0
  7  2  2  0  0  0  0
  7  6  1  0  0  0  0
  8 16  1  0  0  0  0
  9  8  1  0  0  0  0
  9 11  1  0  0  0  0
 10  9  2  0  0  0  0
 11 26  1  6  0  0  0
 11 12  1  0  0  0  0
 11 15  1  0  0  0  0
 12 20  1  6  0  0  0
 12 13  1  0  0  0  0
 12 19  1  0  0  0  0
 13 14  1  0  0  0  0
 14 27  1  1  0  0  0
 14 18  1  0  0  0  0
 15 28  1  1  0  0  0
 15 14  1  0  0  0  0
 16 17  2  0  0  0  0
 16 15  1  0  0  0  0
 18 29  1  0  0  0  0
 19 30  1  0  0  0  0
 19 18  2  0  0  0  0
 20 21  1  0  0  0  0
 24  6  1  0  0  0  0
 25  7  1  0  0  0  0
 31 20  1  0  0  0  0
 32 20  1  0  0  0  0
 33 21  1  0  0  0  0
M  END
>  <Pose>
1

>  <Score>
-5.29

$$$$
