
 OpenBabel03172210413D

 37 40  0  0  1  0  0  0  0  0999 V2000
   15.2640    1.4610    8.9560 B   0  0  0  0  0  0  0  0  0  0  0  0
   13.3960    1.5880    9.2980 C   0  0  0  0  0  0  0  0  0  0  0  0
   12.8600    2.7400    9.8820 C   0  0  0  0  0  0  0  0  0  0  0  0
   11.5120    2.8520   10.1370 C   0  0  0  0  0  0  0  0  0  0  0  0
   10.7110    1.7900    9.7980 C   0  0  0  0  0  0  0  0  0  0  0  0
   11.2450    0.6330    9.2120 C   0  0  0  0  0  0  0  0  0  0  0  0
   12.5950    0.5230    8.9580 C   0  0  0  0  0  0  0  0  0  0  0  0
   10.9950    4.0300   10.7230 N   0  0  0  0  0  0  0  0  0  0  0  0
   10.6090    5.2300   10.0180 C   0  0  0  0  0  0  0  0  0  0  0  0
   10.2650    5.3430    8.8360 O   0  0  0  0  0  0  0  0  0  0  0  0
   10.6920    6.3640   10.9840 C   0  0  1  0  0  0  0  0  0  0  0  0
    9.7190    7.3310   10.8120 O   0  0  0  0  0  0  0  0  0  0  0  0
    9.5480    7.7830   12.0990 N   0  0  0  0  0  0  0  0  0  0  0  0
    9.5020    6.5850   12.8950 C   0  0  0  0  0  0  0  0  0  0  0  0
   10.1950    5.6830   12.2430 C   0  0  0  0  0  0  0  0  0  0  0  0
   10.7330    4.3230   12.1140 C   0  0  0  0  0  0  0  0  0  0  0  0
   10.9130    3.5830   13.0860 O   0  0  0  0  0  0  0  0  0  0  0  0
    8.8360    6.3670   14.1510 C   0  0  0  0  0  0  0  0  0  0  0  0
    7.5820    5.7660   14.2380 C   0  0  0  0  0  0  0  0  0  0  0  0
    7.2150    5.6800   15.5300 N   0  0  0  0  0  0  0  0  0  0  0  0
    8.2090    6.2100   16.2220 N   0  0  0  0  0  0  0  0  0  0  0  0
    9.2050    6.6370   15.4490 C   0  0  0  0  0  0  0  0  0  0  0  0
   10.4950    7.2810   15.8680 C   0  0  0  0  0  0  0  0  0  0  0  0
    5.9600    5.1110   16.0490 C   0  0  0  0  0  0  0  0  0  0  0  0
   13.5230    3.5350   10.1300 H   0  0  0  0  0  0  0  0  0  0  0  0
    9.6610    1.8500    9.9840 H   0  0  0  0  0  0  0  0  0  0  0  0
   10.5820   -0.1920    8.9540 H   0  0  0  0  0  0  0  0  0  0  0  0
   12.9930   -0.3830    8.5000 H   0  0  0  0  0  0  0  0  0  0  0  0
   11.7140    6.7430   11.0970 H   0  0  0  0  0  0  0  0  0  0  0  0
    9.4690    8.7460   12.4440 H   0  0  0  0  0  0  0  0  0  0  0  0
    6.9800    5.4170   13.4040 H   0  0  0  0  0  0  0  0  0  0  0  0
   10.3510    8.3200   16.1690 H   0  0  0  0  0  0  0  0  0  0  0  0
   11.2550    7.1150   15.1080 H   0  0  0  0  0  0  0  0  0  0  0  0
   10.8090    6.7210   16.7870 H   0  0  0  0  0  0  0  0  0  0  0  0
    6.2050    4.0230   16.2140 H   0  0  0  0  0  0  0  0  0  0  0  0
    5.1530    5.2270   15.3210 H   0  0  0  0  0  0  0  0  0  0  0  0
    5.7820    5.5410   17.0310 H   0  0  0  0  0  0  0  0  0  0  0  0
  1  2  1  0  0  0  0
  2  3  1  0  0  0  0
  3 25  1  0  0  0  0
  3  4  2  0  0  0  0
  4  8  1  0  0  0  0
  5 26  1  0  0  0  0
  5  4  1  0  0  0  0
  6  5  2  0  0  0  0
  7  6  1  0  0  0  0
  7  2  2  0  0  0  0
  8 16  1  0  0  0  0
  9  8  1  0  0  0  0
  9 11  1  0  0  0  0
 10  9  2  0  0  0  0
 11 29  1  1  0  0  0
 11 15  1  0  0  0  0
 12 11  1  0  0  0  0
 12 13  1  0  0  0  0
 13 30  1  0  0  0  0
 13 14  1  0  0  0  0
 14 18  1  0  0  0  0
 15 14  2  0  0  0  0
 16 15  1  0  0  0  0
 16 17  2  0  0  0  0
 18 19  2  0  0  0  0
 18 22  1  0  0  0  0
 19 20  1  0  0  0  0
 20 24  1  0  0  0  0
 20 21  1  0  0  0  0
 22 23  1  0  0  0  0
 22 21  2  0  0  0  0
 23 32  1  0  0  0  0
 23 34  1  0  0  0  0
 24 35  1  0  0  0  0
 24 37  1  0  0  0  0
 27  6  1  0  0  0  0
 28  7  1  0  0  0  0
 31 19  1  0  0  0  0
 33 23  1  0  0  0  0
 36 24  1  0  0  0  0
M  END
>  <Pose>
1

>  <Score>
-6.02

$$$$
