
 OpenBabel03172210413D

 45 48  0  0  1  0  0  0  0  0999 V2000
   11.4250   -0.6190    8.5260 B   0  0  0  0  0  0  0  0  0  0  0  0
   12.5530    0.8120    9.0960 C   0  0  0  0  0  0  0  0  0  0  0  0
   12.0490    1.9560    9.6510 C   0  0  0  0  0  0  0  0  0  0  0  0
   12.8560    3.0250   10.0800 C   0  0  0  0  0  0  0  0  0  0  0  0
   14.2400    2.8290    9.8950 C   0  0  0  0  0  0  0  0  0  0  0  0
   14.7490    1.6820    9.3390 C   0  0  0  0  0  0  0  0  0  0  0  0
   13.9050    0.6670    8.9360 C   0  0  0  0  0  0  0  0  0  0  0  0
   12.3210    4.0710   10.5930 O   0  0  0  0  0  0  0  0  0  0  0  0
   11.7700    5.0760   11.1930 C   0  0  0  0  0  0  0  0  0  0  0  0
   10.5200    4.6580   11.9820 C   0  0  0  0  0  0  0  0  0  0  0  0
    9.3410    4.8590   11.1950 N   0  0  0  0  0  0  0  0  0  0  0  0
    8.4030    5.8940   11.4640 C   0  0  0  0  0  0  0  0  0  0  0  0
    8.8780    7.0820   11.4070 O   0  0  0  0  0  0  0  0  0  0  0  0
    6.9780    5.6830   11.7910 C   0  0  0  0  0  0  0  0  0  0  0  0
    6.5280    6.3560   12.9780 N   0  0  0  0  0  0  0  0  0  0  0  0
    5.9630    7.6780   12.9370 C   0  0  0  0  0  0  0  0  0  0  0  0
    6.0440    8.5210   12.0100 O   0  0  0  0  0  0  0  0  0  0  0  0
    5.2520    7.8940   14.1970 C   0  0  1  0  0  0  0  0  0  0  0  0
    5.4080    6.6050   15.0280 C   0  0  2  0  0  0  0  0  0  0  0  0
    5.8690    7.0340   16.3760 C   0  0  2  0  0  0  0  0  0  0  0  0
    5.2530    8.4470   16.4550 C   0  0  0  0  0  0  0  0  0  0  0  0
    5.8920    8.8910   15.1240 C   0  0  1  0  0  0  0  0  0  0  0  0
    7.3010    8.4430   15.3920 C   0  0  0  0  0  0  0  0  0  0  0  0
    7.2940    7.4320   16.2540 C   0  0  0  0  0  0  0  0  0  0  0  0
    6.5220    5.9030   14.3380 C   0  0  0  0  0  0  0  0  0  0  0  0
    7.3160    5.0760   14.8190 O   0  0  0  0  0  0  0  0  0  0  0  0
   10.9700    2.0750    9.7800 H   0  0  0  0  0  0  0  0  0  0  0  0
   14.8650    3.6380   10.2190 H   0  0  0  0  0  0  0  0  0  0  0  0
   15.8090    1.5410    9.2010 H   0  0  0  0  0  0  0  0  0  0  0  0
   14.3200   -0.2270    8.5020 H   0  0  0  0  0  0  0  0  0  0  0  0
   12.4680    5.5010   11.9980 H   0  0  0  0  0  0  0  0  0  0  0  0
   11.4920    5.9830   10.5630 H   0  0  0  0  0  0  0  0  0  0  0  0
   10.6260    3.6270   12.3610 H   0  0  0  0  0  0  0  0  0  0  0  0
   10.5430    5.3220   12.8960 H   0  0  0  0  0  0  0  0  0  0  0  0
    9.1580    4.2240   10.3900 H   0  0  0  0  0  0  0  0  0  0  0  0
    6.8640    4.5710   11.9700 H   0  0  0  0  0  0  0  0  0  0  0  0
    6.3220    5.9310   10.9030 H   0  0  0  0  0  0  0  0  0  0  0  0
    4.1710    8.1430   14.0680 H   0  0  0  0  0  0  0  0  0  0  0  0
    4.4750    6.0180   15.0210 H   0  0  0  0  0  0  0  0  0  0  0  0
    5.6230    6.4130   17.2060 H   0  0  0  0  0  0  0  0  0  0  0  0
    4.1660    8.4250   16.4040 H   0  0  0  0  0  0  0  0  0  0  0  0
    5.6760    9.0190   17.2910 H   0  0  0  0  0  0  0  0  0  0  0  0
    5.7630    9.9220   14.9000 H   0  0  0  0  0  0  0  0  0  0  0  0
    8.2160    8.8460   14.9770 H   0  0  0  0  0  0  0  0  0  0  0  0
    8.0850    6.9400   16.7970 H   0  0  0  0  0  0  0  0  0  0  0  0
  1  2  1  0  0  0  0
  2  3  1  0  0  0  0
  3 27  1  0  0  0  0
  3  4  2  0  0  0  0
  4  8  1  0  0  0  0
  5  4  1  0  0  0  0
  5 28  1  0  0  0  0
  6  5  2  0  0  0  0
  7  2  2  0  0  0  0
  7  6  1  0  0  0  0
  8  9  1  0  0  0  0
  9 10  1  0  0  0  0
  9 31  1  0  0  0  0
 10 33  1  0  0  0  0
 10 34  1  0  0  0  0
 11 12  1  0  0  0  0
 11 10  1  0  0  0  0
 12 14  1  0  0  0  0
 13 12  2  0  0  0  0
 14 36  1  0  0  0  0
 14 15  1  0  0  0  0
 15 25  1  0  0  0  0
 16 15  1  0  0  0  0
 16 18  1  0  0  0  0
 17 16  2  0  0  0  0
 18 38  1  6  0  0  0
 18 19  1  0  0  0  0
 18 22  1  0  0  0  0
 19 39  1  1  0  0  0
 19 20  1  0  0  0  0
 20 21  1  0  0  0  0
 20 40  1  1  0  0  0
 21 42  1  0  0  0  0
 22 43  1  6  0  0  0
 22 23  1  0  0  0  0
 22 21  1  0  0  0  0
 23 24  2  0  0  0  0
 24 20  1  0  0  0  0
 24 45  1  0  0  0  0
 25 26  2  0  0  0  0
 25 19  1  0  0  0  0
 29  6  1  0  0  0  0
 30  7  1  0  0  0  0
 32  9  1  0  0  0  0
 35 11  1  0  0  0  0
 37 14  1  0  0  0  0
 41 21  1  0  0  0  0
 44 23  1  0  0  0  0
M  END
>  <Pose>
1

>  <Score>
-5.83

$$$$
