
 OpenBabel03172210413D

 50 53  0  0  0  0  0  0  0  0999 V2000
   21.4760    5.6760   11.1410 B   0  0  0  0  0  0  0  0  0  0  0  0
   19.6740    5.0700   11.0970 C   0  0  0  0  0  0  0  0  0  0  0  0
   19.3810    3.7320   11.3190 C   0  0  0  0  0  0  0  0  0  0  0  0
   18.0790    3.2610   11.2920 C   0  0  0  0  0  0  0  0  0  0  0  0
   17.0180    4.0960   11.0440 C   0  0  0  0  0  0  0  0  0  0  0  0
   17.3230    5.4280   10.8240 C   0  0  0  0  0  0  0  0  0  0  0  0
   18.6110    5.9100   10.8480 C   0  0  0  0  0  0  0  0  0  0  0  0
   15.6430    3.6030   11.0180 C   0  0  0  0  0  0  0  0  0  0  0  0
   15.2860    2.7960   11.8910 O   0  0  0  0  0  0  0  0  0  0  0  0
   14.6850    4.0600    9.9630 C   0  0  0  0  0  0  0  0  0  0  0  0
   13.6170    3.1300    9.7290 N   0  0  0  0  0  0  0  0  0  0  0  0
   13.6850    1.9620    9.0690 C   0  0  0  0  0  0  0  0  0  0  0  0
   12.4400    1.3620    9.0540 C   0  0  0  0  0  0  0  0  0  0  0  0
   11.6410    2.2060    9.7180 N   0  0  0  0  0  0  0  0  0  0  0  0
   12.3260    3.2840   10.1390 C   0  0  0  0  0  0  0  0  0  0  0  0
   11.8600    4.4060   10.8650 N   0  0  0  0  0  0  0  0  0  0  0  0
   11.7020    5.6530   10.1890 C   0  0  0  0  0  0  0  0  0  0  0  0
   10.8930    6.6940   10.8680 C   0  0  0  0  0  0  0  0  0  0  0  0
   10.8170    6.5940   12.2960 N   0  0  0  0  0  0  0  0  0  0  0  0
   10.4190    5.2410   12.6290 C   0  0  0  0  0  0  0  0  0  0  0  0
   11.5500    4.2810   12.2560 C   0  0  0  0  0  0  0  0  0  0  0  0
   12.0180    7.0040   12.9670 C   0  0  0  0  0  0  0  0  0  0  0  0
   12.2680    0.1770    8.4410 N   0  0  0  0  0  0  0  0  0  0  0  0
   13.3000   -0.4410    7.8400 C   0  0  0  0  0  0  0  0  0  0  0  0
   13.1840   -1.5470    7.2570 O   0  0  0  0  0  0  0  0  0  0  0  0
   14.5320    0.1390    7.8470 N   0  0  0  0  0  0  0  0  0  0  0  0
   14.7540    1.3230    8.4460 C   0  0  0  0  0  0  0  0  0  0  0  0
   15.9220    1.8320    8.4330 O   0  0  0  0  0  0  0  0  0  0  0  0
   10.9760   -0.4780    8.4090 C   0  0  0  0  0  0  0  0  0  0  0  0
   20.2200    3.0670   11.5160 H   0  0  0  0  0  0  0  0  0  0  0  0
   17.8800    2.1950   11.4720 H   0  0  0  0  0  0  0  0  0  0  0  0
   16.4940    6.1060   10.6270 H   0  0  0  0  0  0  0  0  0  0  0  0
   18.8210    6.9510   10.6730 H   0  0  0  0  0  0  0  0  0  0  0  0
   14.3230    5.0820   10.2050 H   0  0  0  0  0  0  0  0  0  0  0  0
   15.2750    4.1740    9.0340 H   0  0  0  0  0  0  0  0  0  0  0  0
   12.7420    6.0440   10.0270 H   0  0  0  0  0  0  0  0  0  0  0  0
   11.2690    5.4870    9.1720 H   0  0  0  0  0  0  0  0  0  0  0  0
    9.8540    6.7520   10.4580 H   0  0  0  0  0  0  0  0  0  0  0  0
   11.3910    7.6930   10.6710 H   0  0  0  0  0  0  0  0  0  0  0  0
    9.5740    4.9850   11.9460 H   0  0  0  0  0  0  0  0  0  0  0  0
   10.1200    5.0810   13.6590 H   0  0  0  0  0  0  0  0  0  0  0  0
   12.4370    4.4580   12.9150 H   0  0  0  0  0  0  0  0  0  0  0  0
   11.1720    3.2760   12.5390 H   0  0  0  0  0  0  0  0  0  0  0  0
   12.8990    6.8070   12.2900 H   0  0  0  0  0  0  0  0  0  0  0  0
   12.1750    6.4850   13.9320 H   0  0  0  0  0  0  0  0  0  0  0  0
   12.0480    8.0930   13.1610 H   0  0  0  0  0  0  0  0  0  0  0  0
   15.3070   -0.3740    7.3670 H   0  0  0  0  0  0  0  0  0  0  0  0
   10.8350   -0.9400    9.4080 H   0  0  0  0  0  0  0  0  0  0  0  0
   10.1860    0.2890    8.2870 H   0  0  0  0  0  0  0  0  0  0  0  0
   10.9370   -1.2460    7.6130 H   0  0  0  0  0  0  0  0  0  0  0  0
  2  1  1  0  0  0  0
  2  3  1  0  0  0  0
  3 30  1  0  0  0  0
  4  3  2  0  0  0  0
  4 31  1  0  0  0  0
  5  4  1  0  0  0  0
  6  7  1  0  0  0  0
  6  5  2  0  0  0  0
  7  2  2  0  0  0  0
  8  5  1  0  0  0  0
  8  9  2  0  0  0  0
 10 34  1  0  0  0  0
 10  8  1  0  0  0  0
 11 10  1  0  0  0  0
 11 15  1  0  0  0  0
 12 11  1  0  0  0  0
 13 12  2  0  0  0  0
 13 14  1  0  0  0  0
 14 15  2  0  0  0  0
 15 16  1  0  0  0  0
 16 21  1  0  0  0  0
 17 16  1  0  0  0  0
 17 18  1  0  0  0  0
 18 19  1  0  0  0  0
 19 20  1  0  0  0  0
 19 22  1  0  0  0  0
 20 41  1  0  0  0  0
 21 43  1  0  0  0  0
 21 20  1  0  0  0  0
 21 42  1  0  0  0  0
 22 46  1  0  0  0  0
 22 45  1  0  0  0  0
 23 13  1  0  0  0  0
 24 26  1  0  0  0  0
 24 23  1  0  0  0  0
 25 24  2  0  0  0  0
 26 27  1  0  0  0  0
 27 12  1  0  0  0  0
 28 27  2  0  0  0  0
 29 23  1  0  0  0  0
 29 48  1  0  0  0  0
 32  6  1  0  0  0  0
 33  7  1  0  0  0  0
 35 10  1  0  0  0  0
 36 17  1  0  0  0  0
 37 17  1  0  0  0  0
 38 18  1  0  0  0  0
 39 18  1  0  0  0  0
 40 20  1  0  0  0  0
 44 22  1  0  0  0  0
 47 26  1  0  0  0  0
 49 29  1  0  0  0  0
 50 29  1  0  0  0  0
M  END
>  <Pose>
1

>  <Score>
-6.66

$$$$
