
 OpenBabel03172210413D

 58 61  0  0  1  0  0  0  0  0999 V2000
   14.9320    6.1350   19.6700 B   0  0  0  0  0  0  0  0  0  0  0  0
   13.7890    6.6220   18.2360 C   0  0  0  0  0  0  0  0  0  0  0  0
   14.3450    7.1250   17.0840 C   0  0  0  0  0  0  0  0  0  0  0  0
   13.5300    7.4810   16.0410 C   0  0  0  0  0  0  0  0  0  0  0  0
   12.1390    7.3470   16.1120 C   0  0  0  0  0  0  0  0  0  0  0  0
   11.6440    6.8370   17.2950 C   0  0  0  0  0  0  0  0  0  0  0  0
   12.4340    6.4670   18.3680 C   0  0  0  0  0  0  0  0  0  0  0  0
   11.2990    7.7260   14.9910 C   0  0  0  0  0  0  0  0  0  0  0  0
   11.7950    7.7350   13.8460 O   0  0  0  0  0  0  0  0  0  0  0  0
    9.9110    8.0860   15.2120 C   0  0  2  0  0  0  0  0  0  0  0  0
    8.8990    7.1990   14.5280 C   0  0  1  0  0  0  0  0  0  0  0  0
    7.6870    7.9770   14.6400 N   0  0  0  0  0  0  0  0  0  0  0  0
    8.0780    9.3430   14.5470 C   0  0  0  0  0  0  0  0  0  0  0  0
    7.2920   10.3360   14.4580 O   0  0  0  0  0  0  0  0  0  0  0  0
    9.5520    9.4030   14.5680 C   0  0  0  0  0  0  0  0  0  0  0  0
   10.2770   10.3210   14.1520 O   0  0  0  0  0  0  0  0  0  0  0  0
    6.3230    7.5450   14.8150 C   0  0  0  0  0  0  0  0  0  0  0  0
    5.6750    8.0900   16.0510 C   0  0  0  0  0  0  0  0  0  0  0  0
    4.8280    7.1950   16.7420 N   0  0  0  0  0  4  0  0  0  0  0  0
    3.5260    7.1900   16.0680 C   0  0  0  0  0  0  0  0  0  0  0  0
    2.7720    8.4630   16.2680 C   0  0  0  0  0  0  0  0  0  0  0  0
    3.2580    9.2700   17.2680 O   0  0  0  0  0  0  0  0  0  0  0  0
    3.5830    8.5400   18.3850 C   0  0  0  0  0  0  0  0  0  0  0  0
    4.5990    7.4630   18.1170 C   0  0  0  0  0  0  0  0  0  0  0  0
    9.2490    6.8260   13.1660 C   0  0  0  0  0  0  0  0  0  0  0  0
    9.5530    5.5030   12.8120 C   0  0  0  0  0  0  0  0  0  0  0  0
    9.8800    5.1560   11.5180 C   0  0  0  0  0  0  0  0  0  0  0  0
    9.9180    6.1050   10.5130 C   0  0  0  0  0  0  0  0  0  0  0  0
    9.6210    7.4110   10.8390 C   0  0  0  0  0  0  0  0  0  0  0  0
    9.2960    7.7440   12.1440 C   0  0  0  0  0  0  0  0  0  0  0  0
   10.2440    5.7820    9.2020 O   0  0  0  0  0  0  0  0  0  0  0  0
   10.1810    3.8530   11.1630 O   0  0  0  0  0  0  0  0  0  0  0  0
   11.3850    3.2130   11.5000 C   0  0  0  0  0  0  0  0  0  0  0  0
   15.4130    7.2260   17.0340 H   0  0  0  0  0  0  0  0  0  0  0  0
   13.9160    7.8810   15.1150 H   0  0  0  0  0  0  0  0  0  0  0  0
   10.5810    6.6980   17.4290 H   0  0  0  0  0  0  0  0  0  0  0  0
   12.0330    6.0720   19.2770 H   0  0  0  0  0  0  0  0  0  0  0  0
    9.6350    8.1970   16.2830 H   0  0  0  0  0  0  0  0  0  0  0  0
    8.8560    6.2680   15.1340 H   0  0  0  0  0  0  0  0  0  0  0  0
    6.3620    6.4290   14.9360 H   0  0  0  0  0  0  0  0  0  0  0  0
    5.6760    7.7460   13.9610 H   0  0  0  0  0  0  0  0  0  0  0  0
    5.0780    9.0200   15.8180 H   0  0  0  0  0  0  0  0  0  0  0  0
    6.4860    8.4390   16.7240 H   0  0  0  0  0  0  0  0  0  0  0  0
    5.1750    6.2000   16.6550 H   0  0  0  0  0  0  0  0  0  0  0  0
    3.6170    6.8910   15.0070 H   0  0  0  0  0  0  0  0  0  0  0  0
    2.9370    6.3750   16.5710 H   0  0  0  0  0  0  0  0  0  0  0  0
    2.8230    9.0490   15.3170 H   0  0  0  0  0  0  0  0  0  0  0  0
    1.6860    8.2750   16.5070 H   0  0  0  0  0  0  0  0  0  0  0  0
    3.9330    9.2510   19.1890 H   0  0  0  0  0  0  0  0  0  0  0  0
    2.6210    8.1270   18.7960 H   0  0  0  0  0  0  0  0  0  0  0  0
    5.5030    7.6990   18.7090 H   0  0  0  0  0  0  0  0  0  0  0  0
    4.1860    6.5170   18.5770 H   0  0  0  0  0  0  0  0  0  0  0  0
    9.5230    4.7550   13.6030 H   0  0  0  0  0  0  0  0  0  0  0  0
    9.6560    8.1440   10.0440 H   0  0  0  0  0  0  0  0  0  0  0  0
    9.0740    8.7620   12.3440 H   0  0  0  0  0  0  0  0  0  0  0  0
   12.2790    3.8430   11.2490 H   0  0  0  0  0  0  0  0  0  0  0  0
   11.4830    2.3050   10.8670 H   0  0  0  0  0  0  0  0  0  0  0  0
   11.4510    2.8980   12.5480 H   0  0  0  0  0  0  0  0  0  0  0  0
  2  7  1  0  0  0  0
  2  1  1  0  0  0  0
  3  2  2  0  0  0  0
  4  5  2  0  0  0  0
  4  3  1  0  0  0  0
  5  6  1  0  0  0  0
  6 36  1  0  0  0  0
  6  7  2  0  0  0  0
  7 37  1  0  0  0  0
  8 10  1  0  0  0  0
  8  5  1  0  0  0  0
  9  8  2  0  0  0  0
 10 38  1  1  0  0  0
 11 12  1  0  0  0  0
 11 39  1  1  0  0  0
 11 10  1  0  0  0  0
 12 17  1  0  0  0  0
 13 15  1  0  0  0  0
 13 12  1  0  0  0  0
 14 13  2  0  0  0  0
 15 10  1  0  0  0  0
 16 15  2  0  0  0  0
 17 40  1  0  0  0  0
 17 18  1  0  0  0  0
 18 43  1  0  0  0  0
 18 19  1  0  0  0  0
 19 24  1  0  0  0  0
 20 21  1  0  0  0  0
 20 46  1  0  0  0  0
 20 19  1  0  0  0  0
 21 48  1  0  0  0  0
 21 22  1  0  0  0  0
 22 23  1  0  0  0  0
 23 50  1  0  0  0  0
 23 49  1  0  0  0  0
 24 23  1  0  0  0  0
 24 52  1  0  0  0  0
 24 51  1  0  0  0  0
 25 11  1  0  0  0  0
 26 25  1  0  0  0  0
 26 53  1  0  0  0  0
 27 26  2  0  0  0  0
 28 29  2  0  0  0  0
 28 27  1  0  0  0  0
 29 30  1  0  0  0  0
 30 55  1  0  0  0  0
 30 25  2  0  0  0  0
 31 28  1  0  0  0  0
 32 33  1  0  0  0  0
 32 27  1  0  0  0  0
 33 58  1  0  0  0  0
 34  3  1  0  0  0  0
 35  4  1  0  0  0  0
 41 17  1  0  0  0  0
 42 18  1  0  0  0  0
 44 19  1  0  0  0  0
 45 20  1  0  0  0  0
 47 21  1  0  0  0  0
 54 29  1  0  0  0  0
 56 33  1  0  0  0  0
 57 33  1  0  0  0  0
M  END
>  <Pose>
1

>  <Score>
-5.55

$$$$
