
 OpenBabel03172210413D

 41 44  0  0  1  0  0  0  0  0999 V2000
   11.2830   -1.1560    8.4390 B   0  0  0  0  0  0  0  0  0  0  0  0
   11.4910    0.6240    9.0980 C   0  0  0  0  0  0  0  0  0  0  0  0
   10.4100    1.3480    9.5510 C   0  0  0  0  0  0  0  0  0  0  0  0
   10.5100    2.6330   10.0340 C   0  0  0  0  0  0  0  0  0  0  0  0
   11.7310    3.2550   10.0840 C   0  0  0  0  0  0  0  0  0  0  0  0
   12.8260    2.5360    9.6320 C   0  0  0  0  0  0  0  0  0  0  0  0
   12.7170    1.2520    9.1500 C   0  0  0  0  0  0  0  0  0  0  0  0
   11.8980    4.6040   10.5770 C   0  0  0  0  0  0  0  0  0  0  0  0
   12.0360    5.5410    9.7260 O   0  0  0  0  0  0  0  0  0  0  0  0
   11.9240    4.9970   11.9930 C   0  0  1  0  0  0  0  0  0  0  0  0
   12.2920    6.3950   12.1490 N   0  0  0  0  0  0  0  0  0  0  0  0
   12.7350    7.4200   11.3390 N   0  0  0  0  0  0  0  0  0  0  0  0
   12.8810    8.6340   11.7410 C   0  0  0  0  0  0  0  0  0  0  0  0
   12.5840    8.9720   13.1140 C   0  0  0  0  0  0  0  0  0  0  0  0
   12.1850    8.0450   13.9540 C   0  0  0  0  0  0  0  0  0  0  0  0
   12.0330    6.6560   13.5620 C   0  0  1  0  0  0  0  0  0  0  0  0
   10.6750    6.0700   13.7200 C   0  0  2  0  0  0  0  0  0  0  0  0
   10.5510    5.0020   12.6280 C   0  0  1  0  0  0  0  0  0  0  0  0
    9.5120    5.5230   11.7420 C   0  0  0  0  0  0  0  0  0  0  0  0
    9.2670    5.1070   10.5750 O   0  0  0  0  0  0  0  0  0  0  0  0
    8.8280    6.5690   12.4030 N   0  0  0  0  0  0  0  0  0  0  0  0
    9.5850    7.0310   13.5140 C   0  0  0  0  0  0  0  0  0  0  0  0
    9.3700    8.0630   14.1950 O   0  0  0  0  0  0  0  0  0  0  0  0
    7.5430    7.1090   12.0240 C   0  0  0  0  0  0  0  0  0  0  0  0
    6.5320    6.0600   11.6730 C   0  0  0  0  0  0  0  0  0  0  0  0
    9.4150    0.8900    9.5300 H   0  0  0  0  0  0  0  0  0  0  0  0
    9.6320    3.1840   10.3920 H   0  0  0  0  0  0  0  0  0  0  0  0
   13.8200    3.0090    9.6590 H   0  0  0  0  0  0  0  0  0  0  0  0
   13.5930    0.7270    8.8070 H   0  0  0  0  0  0  0  0  0  0  0  0
   12.5660    4.3170   12.5470 H   0  0  0  0  0  0  0  0  0  0  0  0
   13.2270    9.4380   11.0750 H   0  0  0  0  0  0  0  0  0  0  0  0
   12.7010   10.0120   13.4310 H   0  0  0  0  0  0  0  0  0  0  0  0
   11.9590    8.3230   14.9770 H   0  0  0  0  0  0  0  0  0  0  0  0
   12.8130    6.0510   14.1120 H   0  0  0  0  0  0  0  0  0  0  0  0
   10.5400    5.6340   14.7350 H   0  0  0  0  0  0  0  0  0  0  0  0
   10.2830    4.0770   13.1480 H   0  0  0  0  0  0  0  0  0  0  0  0
    7.6180    7.8130   11.1640 H   0  0  0  0  0  0  0  0  0  0  0  0
    7.1000    7.7160   12.8600 H   0  0  0  0  0  0  0  0  0  0  0  0
    6.9980    5.1290   11.2800 H   0  0  0  0  0  0  0  0  0  0  0  0
    5.8650    5.8450   12.5440 H   0  0  0  0  0  0  0  0  0  0  0  0
    5.8500    6.4360   10.8670 H   0  0  0  0  0  0  0  0  0  0  0  0
  1  2  1  0  0  0  0
  2  7  2  0  0  0  0
  2  3  1  0  0  0  0
  3  4  2  0  0  0  0
  4  5  1  0  0  0  0
  4 27  1  0  0  0  0
  5  8  1  0  0  0  0
  6 28  1  0  0  0  0
  6  5  2  0  0  0  0
  7  6  1  0  0  0  0
  8 10  1  0  0  0  0
  9  8  2  0  0  0  0
 10 11  1  0  0  0  0
 10 30  1  1  0  0  0
 10 18  1  0  0  0  0
 11 16  1  0  0  0  0
 12 13  2  0  0  0  0
 12 11  1  0  0  0  0
 13 14  1  0  0  0  0
 14 32  1  0  0  0  0
 14 15  2  0  0  0  0
 15 33  1  0  0  0  0
 16 17  1  0  0  0  0
 16 15  1  0  0  0  0
 16 34  1  1  0  0  0
 17 35  1  1  0  0  0
 18 36  1  1  0  0  0
 18 17  1  0  0  0  0
 19 21  1  0  0  0  0
 19 18  1  0  0  0  0
 20 19  2  0  0  0  0
 21 22  1  0  0  0  0
 22 17  1  0  0  0  0
 22 23  2  0  0  0  0
 24 21  1  0  0  0  0
 24 38  1  0  0  0  0
 25 24  1  0  0  0  0
 25 40  1  0  0  0  0
 26  3  1  0  0  0  0
 29  7  1  0  0  0  0
 31 13  1  0  0  0  0
 37 24  1  0  0  0  0
 39 25  1  0  0  0  0
 41 25  1  0  0  0  0
M  END
>  <Pose>
1

>  <Score>
-5.34

$$$$
