
 OpenBabel03172210413D

 42 45  0  0  1  0  0  0  0  0999 V2000
    6.4930    7.7620   12.9350 B   0  0  0  0  0  0  0  0  0  0  0  0
    7.9050    6.9780   11.9370 C   0  0  0  0  0  0  0  0  0  0  0  0
    8.9910    7.7500   11.5620 C   0  0  0  0  0  0  0  0  0  0  0  0
   10.0420    7.2320   10.8380 C   0  0  0  0  0  0  0  0  0  0  0  0
   10.0450    5.9070   10.4590 C   0  0  0  0  0  0  0  0  0  0  0  0
    8.9790    5.1420   10.8250 C   0  0  0  0  0  0  0  0  0  0  0  0
    7.9080    5.6490   11.5570 C   0  0  0  0  0  0  0  0  0  0  0  0
   11.1870    5.3840    9.6840 C   0  0  0  0  0  0  0  0  0  0  0  0
   11.8510    6.1720    8.9770 O   0  0  0  0  0  0  0  0  0  0  0  0
   11.5410    4.0120    9.7280 N   0  0  0  0  0  0  0  0  0  0  0  0
   12.5280    3.5660   10.6560 C   0  0  2  0  0  0  0  0  0  0  0  0
   13.8720    3.3010   10.0190 C   0  0  0  0  0  0  0  0  0  0  0  0
   13.7310    1.9480    9.5110 N   0  0  0  0  0  0  0  0  0  0  0  0
   12.7380    1.2470   10.3020 C   0  0  1  0  0  0  0  0  0  0  0  0
   12.0850    2.2340   11.2100 C   0  0  0  0  0  0  0  0  0  0  0  0
   11.7930    0.6260    9.3400 C   0  0  0  0  0  0  0  0  0  0  0  0
   10.5470    0.6760    9.4610 O   0  0  0  0  0  0  0  0  0  0  0  0
   12.2970   -0.0680    8.2140 N   0  0  0  0  0  0  0  0  0  0  0  0
   13.5850    0.2370    7.6250 C   0  0  2  0  0  0  0  0  0  0  0  0
   14.1950   -1.1270    7.5570 C   0  0  0  0  0  0  0  0  0  0  0  0
   13.0000   -1.9730    7.1020 C   0  0  0  0  0  0  0  0  0  0  0  0
   11.7550   -1.1420    7.4290 C   0  0  0  0  0  0  0  0  0  0  0  0
   14.3370    1.2100    8.4570 C   0  0  0  0  0  0  0  0  0  0  0  0
   15.5800    1.4090    8.2340 O   0  0  0  0  0  0  0  0  0  0  0  0
    9.0390    8.7910   11.8320 H   0  0  0  0  0  0  0  0  0  0  0  0
   10.8990    7.8510   10.5440 H   0  0  0  0  0  0  0  0  0  0  0  0
    8.9270    4.1170   10.5620 H   0  0  0  0  0  0  0  0  0  0  0  0
    7.0680    5.0300   11.8410 H   0  0  0  0  0  0  0  0  0  0  0  0
   11.0970    3.2990    9.0960 H   0  0  0  0  0  0  0  0  0  0  0  0
   12.6080    4.2980   11.4820 H   0  0  0  0  0  0  0  0  0  0  0  0
   14.6410    3.3510   10.8030 H   0  0  0  0  0  0  0  0  0  0  0  0
   14.0920    4.0410    9.2550 H   0  0  0  0  0  0  0  0  0  0  0  0
   13.1920    0.4080   10.8910 H   0  0  0  0  0  0  0  0  0  0  0  0
   11.0040    2.1420   11.3060 H   0  0  0  0  0  0  0  0  0  0  0  0
   12.5340    2.1570   12.2390 H   0  0  0  0  0  0  0  0  0  0  0  0
   13.4880    0.6390    6.5950 H   0  0  0  0  0  0  0  0  0  0  0  0
   15.0020   -1.1460    6.8160 H   0  0  0  0  0  0  0  0  0  0  0  0
   14.5480   -1.4640    8.5700 H   0  0  0  0  0  0  0  0  0  0  0  0
   12.9850   -2.9490    7.6280 H   0  0  0  0  0  0  0  0  0  0  0  0
   13.0090   -2.1270    6.0140 H   0  0  0  0  0  0  0  0  0  0  0  0
   11.2690   -0.7790    6.5030 H   0  0  0  0  0  0  0  0  0  0  0  0
   11.0180   -1.7590    7.9780 H   0  0  0  0  0  0  0  0  0  0  0  0
  2  1  1  0  0  0  0
  3 25  1  0  0  0  0
  3  2  1  0  0  0  0
  4  3  2  0  0  0  0
  5  6  2  0  0  0  0
  5  4  1  0  0  0  0
  6  7  1  0  0  0  0
  7 28  1  0  0  0  0
  7  2  2  0  0  0  0
  8 10  1  0  0  0  0
  8  5  1  0  0  0  0
  9  8  2  0  0  0  0
 10 11  1  0  0  0  0
 11 15  1  0  0  0  0
 11 30  1  1  0  0  0
 12 11  1  0  0  0  0
 12 31  1  0  0  0  0
 13 12  1  0  0  0  0
 13 14  1  0  0  0  0
 14 33  1  1  0  0  0
 14 15  1  0  0  0  0
 15 34  1  0  0  0  0
 15 35  1  0  0  0  0
 16 17  2  0  0  0  0
 16 14  1  0  0  0  0
 18 16  1  0  0  0  0
 19 36  1  6  0  0  0
 19 18  1  0  0  0  0
 19 23  1  0  0  0  0
 20 19  1  0  0  0  0
 20 38  1  0  0  0  0
 21 22  1  0  0  0  0
 21 20  1  0  0  0  0
 21 39  1  0  0  0  0
 22 42  1  0  0  0  0
 22 18  1  0  0  0  0
 23 13  1  0  0  0  0
 24 23  2  0  0  0  0
 26  4  1  0  0  0  0
 27  6  1  0  0  0  0
 29 10  1  0  0  0  0
 32 12  1  0  0  0  0
 37 20  1  0  0  0  0
 40 21  1  0  0  0  0
 41 22  1  0  0  0  0
M  END
>  <Pose>
1

>  <Score>
-5.43

$$$$
