
 OpenBabel03172210413D

 35 38  0  0  1  0  0  0  0  0999 V2000
   12.4480   -0.1690    8.1360 B   0  0  0  0  0  0  0  0  0  0  0  0
   13.7510    0.9590    8.9630 C   0  0  0  0  0  0  0  0  0  0  0  0
   14.9260    1.2200    8.3200 C   0  0  0  0  0  0  0  0  0  0  0  0
   15.8770    2.0340    8.9010 C   0  0  0  0  0  0  0  0  0  0  0  0
   15.6630    2.6070   10.1510 C   0  0  0  0  0  0  0  0  0  0  0  0
   14.4730    2.3330   10.7840 C   0  0  0  0  0  0  0  0  0  0  0  0
   13.5220    1.5250   10.2170 C   0  0  0  0  0  0  0  0  0  0  0  0
   16.6820    3.4610   10.7120 C   0  0  0  0  0  0  0  0  0  0  0  0
   16.9890    3.2910   11.9360 O   0  0  0  0  0  0  0  0  0  0  0  0
   17.3080    4.4480    9.9210 N   0  0  0  0  0  0  0  0  0  0  0  0
   17.5750    5.7460   10.4310 N   0  0  0  0  0  0  0  0  0  0  0  0
   16.7840    6.5460   11.3020 C   0  0  0  0  0  0  0  0  0  0  0  0
   15.5910    6.2130   11.6160 O   0  0  0  0  0  0  0  0  0  0  0  0
   17.5440    7.7450   11.7430 C   0  0  2  0  0  0  0  0  0  0  0  0
   18.9200    7.4740   11.1670 C   0  0  1  0  0  0  0  0  0  0  0  0
   19.6320    6.9270   12.3860 C   0  0  1  0  0  0  0  0  0  0  0  0
   19.2430    8.0570   13.3620 C   0  0  0  0  0  0  0  0  0  0  0  0
   17.7390    7.7510   13.2320 C   0  0  2  0  0  0  0  0  0  0  0  0
   17.7930    6.3040   13.6470 C   0  0  0  0  0  0  0  0  0  0  0  0
   18.8540    5.8220   13.0120 C   0  0  0  0  0  0  0  0  0  0  0  0
   18.7530    6.4590   10.1120 C   0  0  0  0  0  0  0  0  0  0  0  0
   19.5170    6.2850    9.1390 O   0  0  0  0  0  0  0  0  0  0  0  0
   15.1230    0.7980    7.3610 H   0  0  0  0  0  0  0  0  0  0  0  0
   16.7980    2.2090    8.3570 H   0  0  0  0  0  0  0  0  0  0  0  0
   14.2860    2.7760   11.7700 H   0  0  0  0  0  0  0  0  0  0  0  0
   12.5790    1.2960   10.6980 H   0  0  0  0  0  0  0  0  0  0  0  0
   17.5770    4.2360    8.9430 H   0  0  0  0  0  0  0  0  0  0  0  0
   17.0930    8.6800   11.3600 H   0  0  0  0  0  0  0  0  0  0  0  0
   19.3830    8.4010   10.8420 H   0  0  0  0  0  0  0  0  0  0  0  0
   20.6820    6.7860   12.2940 H   0  0  0  0  0  0  0  0  0  0  0  0
   19.6220    7.8460   14.3670 H   0  0  0  0  0  0  0  0  0  0  0  0
   19.5080    9.0280   12.9520 H   0  0  0  0  0  0  0  0  0  0  0  0
   17.1140    8.3760   13.8180 H   0  0  0  0  0  0  0  0  0  0  0  0
   17.0810    5.8620   14.3140 H   0  0  0  0  0  0  0  0  0  0  0  0
   19.1030    4.7740   12.9660 H   0  0  0  0  0  0  0  0  0  0  0  0
  1  2  1  0  0  0  0
  2  7  1  0  0  0  0
  3  4  1  0  0  0  0
  3  2  2  0  0  0  0
  4  5  2  0  0  0  0
  5  8  1  0  0  0  0
  5  6  1  0  0  0  0
  6 25  1  0  0  0  0
  7 26  1  0  0  0  0
  7  6  2  0  0  0  0
  8  9  2  0  0  0  0
 10 11  1  0  0  0  0
 10  8  1  0  0  0  0
 11 12  1  0  0  0  0
 12 13  2  0  0  0  0
 12 14  1  0  0  0  0
 14 28  1  6  0  0  0
 14 18  1  0  0  0  0
 15 29  1  6  0  0  0
 15 14  1  0  0  0  0
 15 16  1  0  0  0  0
 16 30  1  6  0  0  0
 16 20  1  0  0  0  0
 16 17  1  0  0  0  0
 17 31  1  0  0  0  0
 18 17  1  0  0  0  0
 18 19  1  0  0  0  0
 18 33  1  1  0  0  0
 19 34  1  0  0  0  0
 20 19  2  0  0  0  0
 21 11  1  0  0  0  0
 21 15  1  0  0  0  0
 22 21  2  0  0  0  0
 23  3  1  0  0  0  0
 24  4  1  0  0  0  0
 27 10  1  0  0  0  0
 32 17  1  0  0  0  0
 35 20  1  0  0  0  0
M  END
>  <Pose>
1

>  <Score>
-5.41

$$$$
