
 OpenBabel03172210413D

 49 52  0  0  1  0  0  0  0  0999 V2000
    2.9740    9.4850   14.5590 B   0  0  0  0  0  0  0  0  0  0  0  0
    4.8170    9.2340   14.1450 C   0  0  0  0  0  0  0  0  0  0  0  0
    5.6350   10.2500   13.6990 C   0  0  0  0  0  0  0  0  0  0  0  0
    6.9660   10.0500   13.4050 C   0  0  0  0  0  0  0  0  0  0  0  0
    7.5520    8.7850   13.5500 C   0  0  0  0  0  0  0  0  0  0  0  0
    6.7200    7.7810   13.9970 C   0  0  0  0  0  0  0  0  0  0  0  0
    5.3740    7.9810   14.2950 C   0  0  0  0  0  0  0  0  0  0  0  0
    8.9650    8.6130   13.2610 C   0  0  0  0  0  0  0  0  0  0  0  0
    9.3540    7.7060   12.4020 C   0  0  0  0  0  0  0  0  0  0  0  0
   10.7470    7.3670   11.9710 C   0  0  2  0  0  0  0  0  0  0  0  0
   10.6560    5.9150   11.8700 N   0  0  0  0  0  0  0  0  0  0  0  0
    9.3580    5.6790   11.2890 C   0  0  0  0  0  0  0  0  0  0  0  0
    9.0570    4.6700   10.6310 O   0  0  0  0  0  0  0  0  0  0  0  0
    8.4990    6.8270   11.6190 C   0  0  0  0  0  0  0  0  0  0  0  0
    7.2970    7.0120   11.2970 O   0  0  0  0  0  0  0  0  0  0  0  0
   11.6490    4.9540   12.2560 C   0  0  0  0  0  0  0  0  0  0  0  0
   12.3840    4.3790   11.0550 C   0  0  0  0  0  0  0  0  0  0  0  0
   13.6680    3.7280   11.5680 C   0  0  0  0  0  0  0  0  0  0  0  0
   14.4780    3.2140   10.4810 N   0  0  0  0  0  0  0  0  0  0  0  0
   15.7980    3.4230   10.2670 C   0  0  0  0  0  0  0  0  0  0  0  0
   16.1670    2.7700    9.1520 N   0  0  0  0  0  0  0  0  0  0  0  0
   15.1070    2.1360    8.6300 C   0  0  0  0  0  0  0  0  0  0  0  0
   14.0570    2.4270    9.4780 C   0  0  0  0  0  0  0  0  0  0  0  0
   11.7360    7.8170   12.9810 C   0  0  0  0  0  0  0  0  0  0  0  0
   12.6600    8.7130   12.6000 N   0  0  0  0  0  0  0  0  0  0  0  0
   13.5920    9.1990   13.4240 C   0  0  0  0  0  0  0  0  0  0  0  0
   13.6010    8.7540   14.7250 C   0  0  0  0  0  0  0  0  0  0  0  0
   12.6730    7.8370   15.1590 C   0  0  0  0  0  0  0  0  0  0  0  0
   11.7370    7.3690   14.2730 C   0  0  0  0  0  0  0  0  0  0  0  0
    9.9420    9.4080   13.8910 O   0  0  0  0  0  0  0  0  0  0  0  0
    5.1800   11.2280   13.5880 H   0  0  0  0  0  0  0  0  0  0  0  0
    7.6080   10.8520   13.0530 H   0  0  0  0  0  0  0  0  0  0  0  0
    7.1300    6.7900   14.1440 H   0  0  0  0  0  0  0  0  0  0  0  0
    4.7610    7.1410   14.6480 H   0  0  0  0  0  0  0  0  0  0  0  0
   10.9840    7.8230   10.9970 H   0  0  0  0  0  0  0  0  0  0  0  0
   11.1140    4.0760   12.7080 H   0  0  0  0  0  0  0  0  0  0  0  0
   12.3910    5.2940   12.9740 H   0  0  0  0  0  0  0  0  0  0  0  0
   11.8160    3.5950   10.5420 H   0  0  0  0  0  0  0  0  0  0  0  0
   12.6990    5.1810   10.3670 H   0  0  0  0  0  0  0  0  0  0  0  0
   14.2170    4.5120   12.1380 H   0  0  0  0  0  0  0  0  0  0  0  0
   13.4210    2.9230   12.3120 H   0  0  0  0  0  0  0  0  0  0  0  0
   16.4690    4.0110   10.8770 H   0  0  0  0  0  0  0  0  0  0  0  0
   17.1380    2.7460    8.7310 H   0  0  0  0  0  0  0  0  0  0  0  0
   15.0450    1.5220    7.7440 H   0  0  0  0  0  0  0  0  0  0  0  0
   13.0300    2.0740    9.3610 H   0  0  0  0  0  0  0  0  0  0  0  0
   14.3420    9.9310   13.1040 H   0  0  0  0  0  0  0  0  0  0  0  0
   14.3610    9.1440   15.4110 H   0  0  0  0  0  0  0  0  0  0  0  0
   12.6710    7.4810   16.1800 H   0  0  0  0  0  0  0  0  0  0  0  0
   10.9710    6.6480   14.5570 H   0  0  0  0  0  0  0  0  0  0  0  0
  2  7  1  0  0  0  0
  2  1  1  0  0  0  0
  3  2  2  0  0  0  0
  4  5  2  0  0  0  0
  4  3  1  0  0  0  0
  5  6  1  0  0  0  0
  6 33  1  0  0  0  0
  6  7  2  0  0  0  0
  7 34  1  0  0  0  0
  8  5  1  0  0  0  0
  8 30  1  0  0  0  0
  9  8  2  0  0  0  0
 10 35  1  6  0  0  0
 10  9  1  0  0  0  0
 10 24  1  0  0  0  0
 11 10  1  0  0  0  0
 11 16  1  0  0  0  0
 12 14  1  0  0  0  0
 12 11  1  0  0  0  0
 13 12  2  0  0  0  0
 14  9  1  0  0  0  0
 15 14  2  0  0  0  0
 16 36  1  0  0  0  0
 16 37  1  0  0  0  0
 17 18  1  0  0  0  0
 17 16  1  0  0  0  0
 18 40  1  0  0  0  0
 18 41  1  0  0  0  0
 19 18  1  0  0  0  0
 20 19  1  0  0  0  0
 20 42  1  0  0  0  0
 21 20  1  0  0  0  0
 22 21  1  0  0  0  0
 22 23  2  0  0  0  0
 23 19  1  0  0  0  0
 24 29  1  0  0  0  0
 25 24  2  0  0  0  0
 25 26  1  0  0  0  0
 26 27  2  0  0  0  0
 27 28  1  0  0  0  0
 27 47  1  0  0  0  0
 28 48  1  0  0  0  0
 29 49  1  0  0  0  0
 29 28  2  0  0  0  0
 31  3  1  0  0  0  0
 32  4  1  0  0  0  0
 38 17  1  0  0  0  0
 39 17  1  0  0  0  0
 43 21  1  0  0  0  0
 44 22  1  0  0  0  0
 45 23  1  0  0  0  0
 46 26  1  0  0  0  0
M  END
>  <Pose>
1

>  <Score>
-6.51

$$$$
