
 OpenBabel03172210413D

 55 58  0  0  0  0  0  0  0  0999 V2000
    4.9460    8.5720   12.5990 B   0  0  0  0  0  0  0  0  0  0  0  0
    6.4960    7.5370   12.1320 C   0  0  0  0  0  0  0  0  0  0  0  0
    6.3650    6.2490   11.6550 C   0  0  0  0  0  0  0  0  0  0  0  0
    7.4810    5.4990   11.3200 C   0  0  0  0  0  0  0  0  0  0  0  0
    8.7370    6.0320   11.4590 C   0  0  0  0  0  0  0  0  0  0  0  0
    8.8870    7.3180   11.9320 C   0  0  0  0  0  0  0  0  0  0  0  0
    7.7660    8.0530   12.2620 C   0  0  0  0  0  0  0  0  0  0  0  0
    9.8950    5.1890   11.1020 C   0  0  0  0  0  0  0  0  0  0  0  0
   11.1640    5.7710   11.3890 N   0  0  0  0  0  0  0  0  0  0  0  0
   11.8070    5.3130   12.5470 C   0  0  0  0  0  0  0  0  0  0  0  0
   13.0860    4.5410   12.2400 C   0  0  0  0  0  0  0  0  0  0  0  0
   13.1700    4.4140   10.8260 N   0  0  0  0  0  0  0  0  0  0  0  0
   13.2400    5.6440   10.0740 C   0  0  0  0  0  0  0  0  0  0  0  0
   11.8900    6.3260   10.3220 C   0  0  0  0  0  0  0  0  0  0  0  0
   13.1670    3.1800   10.1530 C   0  0  0  0  0  0  0  0  0  0  0  0
   14.1860    2.5770    9.5200 N   0  0  0  0  0  0  0  0  0  0  0  0
   13.7460    1.4240    8.9630 C   0  0  0  0  0  0  0  0  0  0  0  0
   12.4050    1.2830    9.2480 C   0  0  0  0  0  0  0  0  0  0  0  0
   12.0810    2.3560    9.9690 N   0  0  0  0  0  0  0  0  0  0  0  0
   11.7410    0.2040    8.7940 N   0  0  0  0  0  0  0  0  0  0  0  0
   12.3450   -0.7450    8.0680 C   0  0  0  0  0  0  0  0  0  0  0  0
   11.6830   -1.7500    7.6540 O   0  0  0  0  0  0  0  0  0  0  0  0
   13.6520   -0.6260    7.7780 N   0  0  0  0  0  0  0  0  0  0  0  0
   14.3440    0.4350    8.2150 C   0  0  0  0  0  0  0  0  0  0  0  0
   15.5650    0.5440    7.9420 O   0  0  0  0  0  0  0  0  0  0  0  0
   10.3130    0.0900    9.1130 C   0  0  0  0  0  0  0  0  0  0  0  0
   15.5610    2.9910    9.4400 C   0  0  0  0  0  0  0  0  0  0  0  0
   16.1460    3.2920   10.8010 C   0  0  0  0  0  0  0  0  0  0  0  0
   17.3340    3.9940   10.7580 O   0  0  0  0  0  0  0  0  0  0  0  0
   18.2520    3.2430   11.5290 C   0  0  0  0  0  0  0  0  0  0  0  0
    5.3760    5.8450   11.5540 H   0  0  0  0  0  0  0  0  0  0  0  0
    7.2910    4.4960   10.9520 H   0  0  0  0  0  0  0  0  0  0  0  0
    9.8810    7.7760   12.0520 H   0  0  0  0  0  0  0  0  0  0  0  0
    7.9090    9.0680   12.6380 H   0  0  0  0  0  0  0  0  0  0  0  0
    9.8240    4.8290   10.0600 H   0  0  0  0  0  0  0  0  0  0  0  0
    9.8170    4.2690   11.7550 H   0  0  0  0  0  0  0  0  0  0  0  0
   11.1340    4.5370   13.0320 H   0  0  0  0  0  0  0  0  0  0  0  0
   11.9740    6.0730   13.3510 H   0  0  0  0  0  0  0  0  0  0  0  0
   13.9210    5.1960   12.6480 H   0  0  0  0  0  0  0  0  0  0  0  0
   13.1620    3.6170   12.8290 H   0  0  0  0  0  0  0  0  0  0  0  0
   13.4050    5.4410    9.0130 H   0  0  0  0  0  0  0  0  0  0  0  0
   14.0460    6.3300   10.4640 H   0  0  0  0  0  0  0  0  0  0  0  0
   11.3080    6.1770    9.3850 H   0  0  0  0  0  0  0  0  0  0  0  0
   12.0380    7.4230   10.3960 H   0  0  0  0  0  0  0  0  0  0  0  0
   14.1380   -1.3750    7.2030 H   0  0  0  0  0  0  0  0  0  0  0  0
    9.7700    0.7380    8.3860 H   0  0  0  0  0  0  0  0  0  0  0  0
    9.9570   -0.9370    9.1050 H   0  0  0  0  0  0  0  0  0  0  0  0
   10.1750    0.5670   10.1140 H   0  0  0  0  0  0  0  0  0  0  0  0
   16.2270    2.2530    8.9500 H   0  0  0  0  0  0  0  0  0  0  0  0
   15.6570    3.9260    8.8080 H   0  0  0  0  0  0  0  0  0  0  0  0
   16.2380    2.3400   11.3830 H   0  0  0  0  0  0  0  0  0  0  0  0
   15.4320    3.9050   11.3780 H   0  0  0  0  0  0  0  0  0  0  0  0
   18.3460    2.2310   11.0480 H   0  0  0  0  0  0  0  0  0  0  0  0
   17.8840    3.0460   12.5440 H   0  0  0  0  0  0  0  0  0  0  0  0
   19.2260    3.7670   11.5230 H   0  0  0  0  0  0  0  0  0  0  0  0
  2  7  1  0  0  0  0
  2  1  1  0  0  0  0
  3  2  2  0  0  0  0
  4  5  2  0  0  0  0
  4  3  1  0  0  0  0
  5  6  1  0  0  0  0
  6 33  1  0  0  0  0
  6  7  2  0  0  0  0
  7 34  1  0  0  0  0
  8  9  1  0  0  0  0
  8  5  1  0  0  0  0
  8 36  1  0  0  0  0
  9 10  1  0  0  0  0
 10 37  1  0  0  0  0
 10 38  1  0  0  0  0
 11 10  1  0  0  0  0
 11 39  1  0  0  0  0
 11 40  1  0  0  0  0
 12 11  1  0  0  0  0
 13 14  1  0  0  0  0
 13 42  1  0  0  0  0
 13 12  1  0  0  0  0
 14 44  1  0  0  0  0
 14  9  1  0  0  0  0
 15 12  1  0  0  0  0
 16 15  1  0  0  0  0
 17 18  2  0  0  0  0
 17 16  1  0  0  0  0
 18 19  1  0  0  0  0
 19 15  2  0  0  0  0
 20 26  1  0  0  0  0
 20 18  1  0  0  0  0
 21 20  1  0  0  0  0
 22 21  2  0  0  0  0
 23 21  1  0  0  0  0
 23 24  1  0  0  0  0
 24 17  1  0  0  0  0
 25 24  2  0  0  0  0
 26 48  1  0  0  0  0
 27 16  1  0  0  0  0
 27 28  1  0  0  0  0
 28 52  1  0  0  0  0
 28 51  1  0  0  0  0
 29 28  1  0  0  0  0
 29 30  1  0  0  0  0
 30 54  1  0  0  0  0
 31  3  1  0  0  0  0
 32  4  1  0  0  0  0
 35  8  1  0  0  0  0
 41 13  1  0  0  0  0
 43 14  1  0  0  0  0
 45 23  1  0  0  0  0
 46 26  1  0  0  0  0
 47 26  1  0  0  0  0
 49 27  1  0  0  0  0
 50 27  1  0  0  0  0
 53 30  1  0  0  0  0
 55 30  1  0  0  0  0
M  END
>  <Pose>
1

>  <Score>
-7.72

$$$$
