
 OpenBabel03172210413D

 42 45  0  0  0  0  0  0  0  0999 V2000
    8.2160   11.3120   17.2140 B   0  0  0  0  0  0  0  0  0  0  0  0
    9.4490   10.7210   15.8810 C   0  0  0  0  0  0  0  0  0  0  0  0
    9.0160   10.0060   14.7750 C   0  0  0  0  0  0  0  0  0  0  0  0
    9.8920    9.5670   13.7980 C   0  0  0  0  0  0  0  0  0  0  0  0
   11.2410    9.8330   13.8960 C   0  0  0  0  0  0  0  0  0  0  0  0
   11.6620   10.5440   14.9990 C   0  0  0  0  0  0  0  0  0  0  0  0
   10.7990   10.9870   15.9800 C   0  0  0  0  0  0  0  0  0  0  0  0
   12.1840    9.3810   12.8780 C   0  0  0  0  0  0  0  0  0  0  0  0
   11.9450    8.4160   12.0800 N   0  0  0  0  0  0  0  0  0  0  0  0
   12.7980    7.9510   11.1030 N   0  0  0  0  0  0  0  0  0  0  0  0
   13.8600    7.0840   11.4600 C   0  0  0  0  0  0  0  0  0  0  0  0
   15.0330    7.3990   11.1580 O   0  0  0  0  0  0  0  0  0  0  0  0
   13.5980    5.8130   12.1840 C   0  0  0  0  0  0  0  0  0  0  0  0
   13.1600    4.7700   11.2780 N   0  0  0  0  0  0  0  0  0  0  0  0
   14.0840    3.9420   10.7020 N   0  0  0  0  0  0  0  0  0  0  0  0
   13.4480    3.0800    9.8970 C   0  0  0  0  0  0  0  0  0  0  0  0
   12.1560    3.3880    9.9890 N   0  0  0  0  0  0  0  0  0  0  0  0
   11.9640    4.4510   10.8580 C   0  0  0  0  0  0  0  0  0  0  0  0
   10.6510    4.9910   11.1440 C   0  0  0  0  0  0  0  0  0  0  0  0
    9.6690    5.0940   10.1620 N   0  0  0  0  0  0  0  0  0  0  0  0
    8.6050    5.5810   10.6690 O   0  0  0  0  0  0  0  0  0  0  0  0
    8.7790    5.8180   11.9090 N   0  0  0  0  0  0  0  0  0  0  0  0
   10.0560    5.4580   12.2440 C   0  0  0  0  0  0  0  0  0  0  0  0
   10.5130    5.6010   13.5590 N   0  0  0  0  0  0  0  0  0  0  0  0
   14.0390    2.0220    9.0850 C   0  0  0  0  0  0  0  0  0  0  0  0
   13.3930    1.1160    8.3460 N   0  0  0  0  0  0  0  0  0  0  0  0
   14.2760    0.3270    7.7570 O   0  0  0  0  0  0  0  0  0  0  0  0
   15.4870    0.6810    8.0820 N   0  0  0  0  0  0  0  0  0  0  0  0
   15.3740    1.7540    8.9230 C   0  0  0  0  0  0  0  0  0  0  0  0
   16.4850    2.4260    9.4950 N   0  0  0  0  0  0  0  0  0  0  0  0
    7.9730    9.7920   14.6830 H   0  0  0  0  0  0  0  0  0  0  0  0
    9.5380    9.0020   12.9270 H   0  0  0  0  0  0  0  0  0  0  0  0
   12.7400   10.7440   15.0580 H   0  0  0  0  0  0  0  0  0  0  0  0
   11.1790   11.5510   16.8450 H   0  0  0  0  0  0  0  0  0  0  0  0
   13.1320    9.8910   12.7990 H   0  0  0  0  0  0  0  0  0  0  0  0
   12.6490    8.2470   10.0910 H   0  0  0  0  0  0  0  0  0  0  0  0
   14.2880    5.5300   12.9580 H   0  0  0  0  0  0  0  0  0  0  0  0
   12.6450    6.0520   12.8160 H   0  0  0  0  0  0  0  0  0  0  0  0
   10.2120    6.4330   14.1170 H   0  0  0  0  0  0  0  0  0  0  0  0
   11.1370    4.9220   14.0420 H   0  0  0  0  0  0  0  0  0  0  0  0
   17.3200    2.6680    8.8920 H   0  0  0  0  0  0  0  0  0  0  0  0
   16.5400    2.7070   10.4930 H   0  0  0  0  0  0  0  0  0  0  0  0
  2  7  1  0  0  0  0
  2  1  1  0  0  0  0
  3  2  2  0  0  0  0
  4  5  2  0  0  0  0
  4  3  1  0  0  0  0
  5  6  1  0  0  0  0
  6 33  1  0  0  0  0
  6  7  2  0  0  0  0
  7 34  1  0  0  0  0
  8  5  1  0  0  0  0
  9  8  2  0  0  0  0
 10 11  1  0  0  0  0
 10  9  1  0  0  0  0
 11 13  1  0  0  0  0
 12 11  2  0  0  0  0
 13 38  1  0  0  0  0
 13 37  1  0  0  0  0
 14 13  1  0  0  0  0
 15 14  1  0  0  0  0
 16 17  1  0  0  0  0
 16 15  2  0  0  0  0
 17 18  2  0  0  0  0
 18 19  1  0  0  0  0
 18 14  1  0  0  0  0
 19 23  1  0  0  0  0
 20 21  1  0  0  0  0
 20 19  2  0  0  0  0
 21 22  1  0  0  0  0
 22 23  2  0  0  0  0
 23 24  1  0  0  0  0
 24 40  1  0  0  0  0
 24 39  1  0  0  0  0
 25 16  1  0  0  0  0
 26 25  2  0  0  0  0
 27 28  1  0  0  0  0
 27 26  1  0  0  0  0
 28 29  2  0  0  0  0
 29 25  1  0  0  0  0
 29 30  1  0  0  0  0
 30 42  1  0  0  0  0
 31  3  1  0  0  0  0
 32  4  1  0  0  0  0
 35  8  1  0  0  0  0
 36 10  1  0  0  0  0
 41 30  1  0  0  0  0
M  END
>  <Pose>
1

>  <Score>
-8.43

$$$$
