
 OpenBabel03172210413D

 41 43  0  0  0  0  0  0  0  0999 V2000
    9.1220   -1.4690    7.2530 B   0  0  0  0  0  0  0  0  0  0  0  0
   10.7150   -0.6510    7.8700 C   0  0  0  0  0  0  0  0  0  0  0  0
   10.6490    0.3310    8.8360 C   0  0  0  0  0  0  0  0  0  0  0  0
   11.7910    0.9200    9.2810 C   0  0  0  0  0  0  0  0  0  0  0  0
   13.0530    0.5670    8.7950 C   0  0  0  0  0  0  0  0  0  0  0  0
   13.0470   -0.4130    7.8360 C   0  0  0  0  0  0  0  0  0  0  0  0
   11.9290   -1.0410    7.3500 C   0  0  0  0  0  0  0  0  0  0  0  0
   14.1840    1.3700    9.2190 C   0  0  0  0  0  0  0  0  0  0  0  0
   14.4100    2.3290   10.1070 N   0  0  0  0  0  0  0  0  0  0  0  0
   15.7080    2.7200   10.0700 C   0  0  0  0  0  0  0  0  0  0  0  0
   16.2970    1.9760    9.1150 N   0  0  0  0  0  0  0  0  0  0  0  0
   15.4210    1.1780    8.5980 N   0  0  0  0  0  0  0  0  0  0  0  0
   15.9640    3.6910   10.9550 N   0  0  0  0  0  0  0  0  0  0  0  0
   14.7980    3.9290   11.5630 C   0  0  0  0  0  0  0  0  0  0  0  0
   13.7950    3.0940   11.0510 C   0  0  0  0  0  0  0  0  0  0  0  0
   12.5470    3.1810   11.4810 N   0  0  0  0  0  0  0  0  0  0  0  0
   12.2760    4.1080   12.4510 C   0  0  0  0  0  0  0  0  0  0  0  0
   11.1060    4.2200   12.8880 O   0  0  0  0  0  0  0  0  0  0  0  0
   13.2120    4.9140   12.9660 N   0  0  0  0  0  0  0  0  0  0  0  0
   14.4840    4.8470   12.5380 C   0  0  0  0  0  0  0  0  0  0  0  0
   15.3910    5.5890   12.9970 O   0  0  0  0  0  0  0  0  0  0  0  0
   11.4000    2.4810   10.9620 C   0  0  0  0  0  0  0  0  0  0  0  0
   17.2310    4.3420   11.2040 C   0  0  0  0  0  0  0  0  0  0  0  0
   18.3870    3.3670   11.2590 C   0  0  0  0  0  0  0  0  0  0  0  0
   18.6590    2.9580   12.5590 O   0  0  0  0  0  0  0  0  0  0  0  0
   20.0260    2.6900   12.6330 C   0  0  0  0  0  0  0  0  0  0  0  0
    9.6960    0.6440    9.2490 H   0  0  0  0  0  0  0  0  0  0  0  0
   11.7180    1.6950   10.0470 H   0  0  0  0  0  0  0  0  0  0  0  0
   14.0220   -0.6930    7.3930 H   0  0  0  0  0  0  0  0  0  0  0  0
   12.0050   -1.7970    6.6020 H   0  0  0  0  0  0  0  0  0  0  0  0
   13.0070    5.6170   13.7040 H   0  0  0  0  0  0  0  0  0  0  0  0
   11.3800    2.4480    9.8610 H   0  0  0  0  0  0  0  0  0  0  0  0
   11.1290    1.5630   11.4980 H   0  0  0  0  0  0  0  0  0  0  0  0
   10.4620    3.1400   11.1600 H   0  0  0  0  0  0  0  0  0  0  0  0
   17.2160    4.9090   12.1260 H   0  0  0  0  0  0  0  0  0  0  0  0
   17.3850    5.0320   10.3430 H   0  0  0  0  0  0  0  0  0  0  0  0
   19.3020    3.8770   10.8650 H   0  0  0  0  0  0  0  0  0  0  0  0
   18.1670    2.5270   10.5990 H   0  0  0  0  0  0  0  0  0  0  0  0
   20.6080    3.6140   12.3860 H   0  0  0  0  0  0  0  0  0  0  0  0
   20.3340    1.8510   11.9760 H   0  0  0  0  0  0  0  0  0  0  0  0
   20.3120    2.3900   13.6790 H   0  0  0  0  0  0  0  0  0  0  0  0
  1  2  1  0  0  0  0
  2  3  1  0  0  0  0
  3 27  1  0  0  0  0
  3  4  2  0  0  0  0
  4 28  1  0  0  0  0
  5  8  1  0  0  0  0
  5  4  1  0  0  0  0
  6  5  2  0  0  0  0
  7  6  1  0  0  0  0
  7  2  2  0  0  0  0
  8  9  1  0  0  0  0
  9 15  1  0  0  0  0
 10  9  1  0  0  0  0
 10 13  1  0  0  0  0
 11 10  2  0  0  0  0
 12 11  1  0  0  0  0
 12  8  2  0  0  0  0
 13 23  1  0  0  0  0
 13 14  1  0  0  0  0
 14 20  1  0  0  0  0
 15 16  1  0  0  0  0
 15 14  2  0  0  0  0
 16 17  1  0  0  0  0
 17 18  2  0  0  0  0
 17 19  1  0  0  0  0
 19 31  1  0  0  0  0
 20 19  1  0  0  0  0
 20 21  2  0  0  0  0
 22 34  1  0  0  0  0
 22 33  1  0  0  0  0
 23 24  1  0  0  0  0
 23 35  1  0  0  0  0
 24 25  1  0  0  0  0
 25 26  1  0  0  0  0
 26 41  1  0  0  0  0
 29  6  1  0  0  0  0
 30  7  1  0  0  0  0
 32 22  1  0  0  0  0
 36 23  1  0  0  0  0
 37 24  1  0  0  0  0
 38 24  1  0  0  0  0
 39 26  1  0  0  0  0
 40 26  1  0  0  0  0
M  END
>  <Pose>
1

>  <Score>
-6.84

$$$$
