
 OpenBabel03172210413D

 58 62  0  0  1  0  0  0  0  0999 V2000
   13.4420   -0.0870    8.1670 B   0  0  0  0  0  0  0  0  0  0  0  0
   12.5220    1.3710    9.0260 C   0  0  0  0  0  0  0  0  0  0  0  0
   13.1240    2.5740    9.2290 C   0  0  0  0  0  0  0  0  0  0  0  0
   12.4670    3.6040    9.8380 C   0  0  0  0  0  0  0  0  0  0  0  0
   11.1650    3.4840   10.2800 C   0  0  0  0  0  0  0  0  0  0  0  0
   10.5640    2.2880   10.0780 C   0  0  0  0  0  0  0  0  0  0  0  0
   11.2320    1.2100    9.4480 C   0  0  0  0  0  0  0  0  0  0  0  0
   10.5440    4.6210   10.9250 C   0  0  0  0  0  0  0  0  0  0  0  0
    9.1690    4.8910   10.8320 C   0  0  0  0  0  0  0  0  0  0  0  0
    8.9470    5.9850   11.5500 N   0  0  0  0  0  0  0  0  0  0  0  0
    7.9030    6.7940   11.9090 C   0  0  0  0  0  0  0  0  0  0  0  0
    8.4550    7.7650   12.7060 C   0  0  0  0  0  0  0  0  0  0  0  0
    9.7530    7.5140   12.7930 N   0  0  0  0  0  0  0  0  0  0  0  0
   10.0750    6.4020   12.0720 C   0  0  1  0  0  0  0  0  0  0  0  0
   11.0900    5.5670   11.6970 N   0  0  0  0  0  0  0  0  0  0  0  0
   12.4330    5.7820   12.1420 C   0  0  0  0  0  0  0  0  0  0  0  0
   13.0230    7.1130   11.9030 C   0  0  0  0  0  0  0  0  0  0  0  0
   14.2300    7.5110   12.6730 C   0  0  0  0  0  0  0  0  0  0  0  0
   14.9270    8.6170   12.0550 N   0  0  0  0  0  4  0  0  0  0  0  0
   16.3070    8.3380   11.7870 C   0  0  0  0  0  0  0  0  0  0  0  0
   17.0770    7.7670   12.9450 C   0  0  0  0  0  0  0  0  0  0  0  0
   18.5610    8.0040   12.6280 C   0  0  0  0  0  0  0  0  0  0  0  0
   18.9040    7.2590   11.3850 C   0  0  0  0  0  0  0  0  0  0  0  0
   17.9900    7.5610   10.2200 C   0  0  0  0  0  0  0  0  0  0  0  0
   16.5240    7.3770   10.6250 C   0  0  0  0  0  0  0  0  0  0  0  0
    7.6730    8.7800   13.2650 C   0  0  0  0  0  0  0  0  0  0  0  0
    6.3190    8.8140   13.0140 C   0  0  0  0  0  0  0  0  0  0  0  0
    5.7890    7.8290   12.2110 C   0  0  0  0  0  0  0  0  0  0  0  0
    6.5600    6.8160   11.6520 C   0  0  0  0  0  0  0  0  0  0  0  0
   14.1630    2.7190    8.8940 H   0  0  0  0  0  0  0  0  0  0  0  0
   13.0150    4.5590    9.9700 H   0  0  0  0  0  0  0  0  0  0  0  0
    9.5800    2.0410   10.3620 H   0  0  0  0  0  0  0  0  0  0  0  0
   10.7470    0.2630    9.2920 H   0  0  0  0  0  0  0  0  0  0  0  0
    8.4280    4.3200   10.2800 H   0  0  0  0  0  0  0  0  0  0  0  0
   10.4030    8.0990   13.3510 H   0  0  0  0  0  0  0  0  0  0  0  0
   13.1000    4.9730   11.8600 H   0  0  0  0  0  0  0  0  0  0  0  0
   12.3920    5.7080   13.3050 H   0  0  0  0  0  0  0  0  0  0  0  0
   13.3690    7.0900   10.8140 H   0  0  0  0  0  0  0  0  0  0  0  0
   12.2680    7.9570   11.8630 H   0  0  0  0  0  0  0  0  0  0  0  0
   14.9690    6.6930   12.8010 H   0  0  0  0  0  0  0  0  0  0  0  0
   13.8610    7.8970   13.6650 H   0  0  0  0  0  0  0  0  0  0  0  0
   14.4630    9.0630   11.2680 H   0  0  0  0  0  0  0  0  0  0  0  0
   14.9460    9.3950   12.8110 H   0  0  0  0  0  0  0  0  0  0  0  0
   16.8580    9.2750   11.4720 H   0  0  0  0  0  0  0  0  0  0  0  0
   16.8110    8.1820   13.9160 H   0  0  0  0  0  0  0  0  0  0  0  0
   16.9610    6.6450   12.9320 H   0  0  0  0  0  0  0  0  0  0  0  0
   18.7290    9.1040   12.5070 H   0  0  0  0  0  0  0  0  0  0  0  0
   19.1730    7.6000   13.4520 H   0  0  0  0  0  0  0  0  0  0  0  0
   19.9270    7.5550   11.0760 H   0  0  0  0  0  0  0  0  0  0  0  0
   18.9020    6.1740   11.5980 H   0  0  0  0  0  0  0  0  0  0  0  0
   18.2260    6.8370    9.4240 H   0  0  0  0  0  0  0  0  0  0  0  0
   18.1470    8.5970    9.9150 H   0  0  0  0  0  0  0  0  0  0  0  0
   16.3830    6.3210   10.9670 H   0  0  0  0  0  0  0  0  0  0  0  0
   15.8890    7.6790    9.7930 H   0  0  0  0  0  0  0  0  0  0  0  0
    8.0970    9.5450   13.8910 H   0  0  0  0  0  0  0  0  0  0  0  0
    5.6710    9.5960   13.4350 H   0  0  0  0  0  0  0  0  0  0  0  0
    4.7340    7.8550   12.0150 H   0  0  0  0  0  0  0  0  0  0  0  0
    6.1460    6.0500   11.0270 H   0  0  0  0  0  0  0  0  0  0  0  0
  1  2  1  0  0  0  0
  2  3  2  0  0  0  0
  2  7  1  0  0  0  0
  3  4  1  0  0  0  0
  4 31  1  0  0  0  0
  4  5  2  0  0  0  0
  5  8  1  0  0  0  0
  6  5  1  0  0  0  0
  6 32  1  0  0  0  0
  7  6  2  0  0  0  0
  8 15  1  0  0  0  0
  9  8  2  0  0  0  0
  9 10  1  0  0  0  0
 10 11  1  0  0  0  0
 11 12  1  0  0  0  0
 12 13  1  0  0  0  0
 12 26  2  0  0  0  0
 13 35  1  0  0  0  0
 14 10  1  1  0  0  0
 14 13  1  0  0  0  0
 15 14  1  0  0  0  0
 15 16  1  0  0  0  0
 16 37  1  0  0  0  0
 17 16  1  0  0  0  0
 17 18  1  0  0  0  0
 18 40  1  0  0  0  0
 18 41  1  0  0  0  0
 19 18  1  0  0  0  0
 19 43  1  0  0  0  0
 20 19  1  0  0  0  0
 20 21  1  0  0  0  0
 21 45  1  0  0  0  0
 22 21  1  0  0  0  0
 22 48  1  0  0  0  0
 23 50  1  0  0  0  0
 23 22  1  0  0  0  0
 24 25  1  0  0  0  0
 24 23  1  0  0  0  0
 25 53  1  0  0  0  0
 25 20  1  0  0  0  0
 26 55  1  0  0  0  0
 27 26  1  0  0  0  0
 27 56  1  0  0  0  0
 28 27  2  0  0  0  0
 29 11  2  0  0  0  0
 29 28  1  0  0  0  0
 30  3  1  0  0  0  0
 33  7  1  0  0  0  0
 34  9  1  0  0  0  0
 36 16  1  0  0  0  0
 38 17  1  0  0  0  0
 39 17  1  0  0  0  0
 42 19  1  0  0  0  0
 44 20  1  0  0  0  0
 46 21  1  0  0  0  0
 47 22  1  0  0  0  0
 49 23  1  0  0  0  0
 51 24  1  0  0  0  0
 52 24  1  0  0  0  0
 54 25  1  0  0  0  0
 57 28  1  0  0  0  0
 58 29  1  0  0  0  0
M  END
>  <Pose>
1

>  <Score>
-6.14

$$$$
