
 OpenBabel03172210413D

 61 65  0  0  1  0  0  0  0  0999 V2000
   16.8830    9.1550   14.3300 B   0  0  0  0  0  0  0  0  0  0  0  0
   15.7370    7.8780   13.4740 C   0  0  0  0  0  0  0  0  0  0  0  0
   15.5520    6.6280   14.0080 C   0  0  0  0  0  0  0  0  0  0  0  0
   14.7120    5.6940   13.3800 C   0  0  0  0  0  0  0  0  0  0  0  0
   14.0440    5.9590   12.2280 C   0  0  0  0  0  0  0  0  0  0  0  0
   14.2450    7.2370   11.7030 C   0  0  0  0  0  0  0  0  0  0  0  0
   15.0720    8.1660   12.3160 C   0  0  0  0  0  0  0  0  0  0  0  0
   13.1900    5.0280   11.4910 C   0  0  0  0  0  0  0  0  0  0  0  0
   13.5840    3.7220   11.1430 C   0  0  0  0  0  0  0  0  0  0  0  0
   12.5970    3.0820   10.5060 N   0  0  0  0  0  0  0  0  0  0  0  0
   12.2480    1.9110    9.9190 C   0  0  0  0  0  0  0  0  0  0  0  0
   10.9600    2.0750    9.4740 C   0  0  0  0  0  0  0  0  0  0  0  0
   10.5600    3.3360    9.7990 N   0  0  0  0  0  0  0  0  0  0  0  0
   11.5830    3.9390   10.4340 C   0  0  1  0  0  0  0  0  0  0  0  0
   11.9400    5.1300   11.0350 N   0  0  0  0  0  0  0  0  0  0  0  0
   11.0360    6.2560   11.1350 C   0  0  0  0  0  0  0  0  0  0  0  0
    9.9920    6.1110   12.2160 C   0  0  0  0  0  0  0  0  0  0  0  0
    9.0210    7.2660   12.1970 C   0  0  0  0  0  0  0  0  0  0  0  0
    7.7640    6.9890   11.5590 N   0  0  0  0  0  0  0  0  0  0  0  0
    7.0960    8.2730   11.4210 C   0  0  0  0  0  0  0  0  0  0  0  0
    5.6660    8.2750   11.8120 C   0  0  0  0  0  0  0  0  0  0  0  0
    5.3460    7.5980   13.0390 N   0  0  0  0  0  4  0  0  0  0  0  0
    6.3390    6.6240   13.4390 C   0  0  0  0  0  0  0  0  0  0  0  0
    6.9380    6.0130   12.1890 C   0  0  0  0  0  0  0  0  0  0  0  0
    4.9480    8.5060   14.0670 C   0  0  0  0  0  0  0  0  0  0  0  0
    5.9990    9.4440   14.5550 C   0  0  0  0  0  0  0  0  0  0  0  0
    5.5540   10.7570   14.7040 O   0  0  0  0  0  0  0  0  0  0  0  0
   10.3560    1.0160    8.8290 C   0  0  0  0  0  0  0  0  0  0  0  0
   11.0160   -0.1900    8.6290 C   0  0  0  0  0  0  0  0  0  0  0  0
   12.3030   -0.3530    9.0750 C   0  0  0  0  0  0  0  0  0  0  0  0
   12.9140    0.7230    9.7290 C   0  0  0  0  0  0  0  0  0  0  0  0
   16.0600    6.3620   14.9230 H   0  0  0  0  0  0  0  0  0  0  0  0
   14.6230    4.7630   13.8840 H   0  0  0  0  0  0  0  0  0  0  0  0
   13.7350    7.4840   10.7880 H   0  0  0  0  0  0  0  0  0  0  0  0
   15.1970    9.1370   11.8720 H   0  0  0  0  0  0  0  0  0  0  0  0
   14.5700    3.3020   11.3680 H   0  0  0  0  0  0  0  0  0  0  0  0
    9.6210    3.7340    9.5800 H   0  0  0  0  0  0  0  0  0  0  0  0
   11.6560    7.1710   11.4790 H   0  0  0  0  0  0  0  0  0  0  0  0
   10.6040    6.5880   10.2110 H   0  0  0  0  0  0  0  0  0  0  0  0
    9.3810    5.2120   11.9060 H   0  0  0  0  0  0  0  0  0  0  0  0
   10.3720    5.8840   13.2060 H   0  0  0  0  0  0  0  0  0  0  0  0
    9.4620    8.1390   11.6720 H   0  0  0  0  0  0  0  0  0  0  0  0
    8.8750    7.6240   13.2580 H   0  0  0  0  0  0  0  0  0  0  0  0
    7.6380    9.1080   11.8960 H   0  0  0  0  0  0  0  0  0  0  0  0
    7.1350    8.4990   10.3150 H   0  0  0  0  0  0  0  0  0  0  0  0
    5.0450    7.9120   10.9400 H   0  0  0  0  0  0  0  0  0  0  0  0
    5.3620    9.3580   11.9110 H   0  0  0  0  0  0  0  0  0  0  0  0
    4.4760    7.0140   12.8260 H   0  0  0  0  0  0  0  0  0  0  0  0
    5.8390    5.7970   13.9970 H   0  0  0  0  0  0  0  0  0  0  0  0
    7.1480    7.0130   14.0500 H   0  0  0  0  0  0  0  0  0  0  0  0
    6.1330    5.7020   11.4720 H   0  0  0  0  0  0  0  0  0  0  0  0
    7.4660    5.1050   12.4670 H   0  0  0  0  0  0  0  0  0  0  0  0
    4.5300    7.9920   14.9810 H   0  0  0  0  0  0  0  0  0  0  0  0
    4.0890    9.1300   13.6940 H   0  0  0  0  0  0  0  0  0  0  0  0
    6.2570    9.1040   15.6020 H   0  0  0  0  0  0  0  0  0  0  0  0
    6.9500    9.3840   13.9950 H   0  0  0  0  0  0  0  0  0  0  0  0
    5.8990   11.3060   13.9800 H   0  0  0  0  0  0  0  0  0  0  0  0
    9.3450    1.1040    8.4640 H   0  0  0  0  0  0  0  0  0  0  0  0
   10.5520   -1.0190    8.1280 H   0  0  0  0  0  0  0  0  0  0  0  0
   12.8200   -1.2890    8.9220 H   0  0  0  0  0  0  0  0  0  0  0  0
   13.9250    0.6150   10.0860 H   0  0  0  0  0  0  0  0  0  0  0  0
  2  3  1  0  0  0  0
  2  1  1  0  0  0  0
  3 32  1  0  0  0  0
  4 33  1  0  0  0  0
  4  3  2  0  0  0  0
  5  4  1  0  0  0  0
  6  5  2  0  0  0  0
  6  7  1  0  0  0  0
  7  2  2  0  0  0  0
  8  5  1  0  0  0  0
  9 36  1  0  0  0  0
  9  8  2  0  0  0  0
 10  9  1  0  0  0  0
 11 10  1  0  0  0  0
 12 13  1  0  0  0  0
 12 11  2  0  0  0  0
 14 13  1  1  0  0  0
 14 10  1  0  0  0  0
 14 15  1  0  0  0  0
 15 16  1  0  0  0  0
 15  8  1  0  0  0  0
 16 38  1  0  0  0  0
 16 17  1  0  0  0  0
 17 41  1  0  0  0  0
 18 17  1  0  0  0  0
 18 43  1  0  0  0  0
 19 24  1  0  0  0  0
 19 18  1  0  0  0  0
 20 19  1  0  0  0  0
 20 21  1  0  0  0  0
 20 44  1  0  0  0  0
 21 47  1  0  0  0  0
 21 22  1  0  0  0  0
 22 23  1  0  0  0  0
 22 25  1  0  0  0  0
 23 49  1  0  0  0  0
 23 50  1  0  0  0  0
 24 52  1  0  0  0  0
 24 23  1  0  0  0  0
 25 26  1  0  0  0  0
 25 53  1  0  0  0  0
 26 27  1  0  0  0  0
 26 55  1  0  0  0  0
 28 12  1  0  0  0  0
 29 28  2  0  0  0  0
 29 30  1  0  0  0  0
 30 31  2  0  0  0  0
 31 11  1  0  0  0  0
 31 61  1  0  0  0  0
 34  6  1  0  0  0  0
 35  7  1  0  0  0  0
 37 13  1  0  0  0  0
 39 16  1  0  0  0  0
 40 17  1  0  0  0  0
 42 18  1  0  0  0  0
 45 20  1  0  0  0  0
 46 21  1  0  0  0  0
 48 22  1  0  0  0  0
 51 24  1  0  0  0  0
 54 25  1  0  0  0  0
 56 26  1  0  0  0  0
 57 27  1  0  0  0  0
 58 28  1  0  0  0  0
 59 29  1  0  0  0  0
 60 30  1  0  0  0  0
M  END
>  <Pose>
1

>  <Score>
-6.52

$$$$
