
 OpenBabel03172210413D

 63 66  0  0  1  0  0  0  0  0999 V2000
   11.7000   -0.6750    8.8000 B   0  0  0  0  0  0  0  0  0  0  0  0
   12.0540    1.0640    9.5350 C   0  0  0  0  0  0  0  0  0  0  0  0
   11.1410    1.6390   10.3910 C   0  0  0  0  0  0  0  0  0  0  0  0
   11.3760    2.9030   10.9410 C   0  0  0  0  0  0  0  0  0  0  0  0
   12.5220    3.6070   10.6410 C   0  0  0  0  0  0  0  0  0  0  0  0
   13.4090    2.9980    9.7820 C   0  0  0  0  0  0  0  0  0  0  0  0
   13.1940    1.7560    9.2320 C   0  0  0  0  0  0  0  0  0  0  0  0
   12.7660    4.9300   11.2200 C   0  0  2  0  0  0  0  0  0  0  0  0
   13.6040    4.8960   12.3870 N   0  0  0  0  0  0  0  0  0  0  0  0
   12.9690    5.5150   13.4890 C   0  0  0  0  0  0  0  0  0  0  0  0
   13.4210    5.6840   14.6640 O   0  0  0  0  0  0  0  0  0  0  0  0
   11.6220    5.9690   13.0750 C   0  0  0  0  0  0  0  0  0  0  0  0
   10.8010    6.5590   13.8130 O   0  0  0  0  0  0  0  0  0  0  0  0
   11.5000    5.5870   11.6840 C   0  0  0  0  0  0  0  0  0  0  0  0
   10.4310    5.8470   10.9650 C   0  0  0  0  0  0  0  0  0  0  0  0
   10.4550    5.4840    9.6020 O   0  0  0  0  0  0  0  0  0  0  0  0
    9.2180    6.4660   11.4350 C   0  0  0  0  0  0  0  0  0  0  0  0
    9.0990    7.6840   12.0070 C   0  0  0  0  0  0  0  0  0  0  0  0
    7.8660    8.1730   12.3830 C   0  0  0  0  0  0  0  0  0  0  0  0
    6.6910    7.4740   12.2060 C   0  0  0  0  0  0  0  0  0  0  0  0
    6.8390    6.2320   11.6210 C   0  0  0  0  0  0  0  0  0  0  0  0
    8.0470    5.7180   11.2380 C   0  0  0  0  0  0  0  0  0  0  0  0
    5.4520    7.9730   12.5870 O   0  0  0  0  0  0  0  0  0  0  0  0
    4.4510    8.2140   11.6090 C   0  0  0  0  0  0  0  0  0  0  0  0
    7.7870    9.5330   13.0130 C   0  0  0  0  0  0  0  0  0  0  0  0
   14.9290    4.3040   12.4050 C   0  0  0  0  0  0  0  0  0  0  0  0
   15.8010    4.7580   11.2660 C   0  0  0  0  0  0  0  0  0  0  0  0
   17.1750    4.1670   11.3490 C   0  0  0  0  0  0  0  0  0  0  0  0
   18.1880    5.0070   10.7790 N   0  0  0  0  0  4  0  0  0  0  0  0
   19.4220    5.0140   11.5370 C   0  0  0  0  0  0  0  0  0  0  0  0
   20.4620    5.7430   10.6800 C   0  0  0  0  0  0  0  0  0  0  0  0
   19.8570    6.3700    9.6020 O   0  0  0  0  0  0  0  0  0  0  0  0
   18.8010    7.1960   10.0470 C   0  0  0  0  0  0  0  0  0  0  0  0
   17.6660    6.3290   10.5810 C   0  0  0  0  0  0  0  0  0  0  0  0
   10.2380    1.0980   10.6360 H   0  0  0  0  0  0  0  0  0  0  0  0
   10.6630    3.3570   11.6120 H   0  0  0  0  0  0  0  0  0  0  0  0
   14.3220    3.5700    9.5490 H   0  0  0  0  0  0  0  0  0  0  0  0
   13.9170    1.3280    8.5690 H   0  0  0  0  0  0  0  0  0  0  0  0
   13.2880    5.5530   10.4670 H   0  0  0  0  0  0  0  0  0  0  0  0
   10.0140    8.2600   12.1830 H   0  0  0  0  0  0  0  0  0  0  0  0
    5.8970    5.6750   11.4840 H   0  0  0  0  0  0  0  0  0  0  0  0
    8.0850    4.7320   10.7830 H   0  0  0  0  0  0  0  0  0  0  0  0
    4.2570    7.2430   11.0820 H   0  0  0  0  0  0  0  0  0  0  0  0
    3.5060    8.5420   12.0430 H   0  0  0  0  0  0  0  0  0  0  0  0
    4.8480    8.9050   10.8130 H   0  0  0  0  0  0  0  0  0  0  0  0
    8.6960    9.7610   13.6040 H   0  0  0  0  0  0  0  0  0  0  0  0
    6.8660    9.5590   13.6210 H   0  0  0  0  0  0  0  0  0  0  0  0
    7.6340   10.2440   12.1670 H   0  0  0  0  0  0  0  0  0  0  0  0
   14.8280    3.1930   12.3360 H   0  0  0  0  0  0  0  0  0  0  0  0
   15.4660    4.5300   13.3490 H   0  0  0  0  0  0  0  0  0  0  0  0
   15.8350    5.8730   11.2790 H   0  0  0  0  0  0  0  0  0  0  0  0
   15.3260    4.3950   10.3350 H   0  0  0  0  0  0  0  0  0  0  0  0
   17.4820    3.9760   12.3980 H   0  0  0  0  0  0  0  0  0  0  0  0
   17.1720    3.1850   10.8350 H   0  0  0  0  0  0  0  0  0  0  0  0
   18.4390    4.6250    9.8190 H   0  0  0  0  0  0  0  0  0  0  0  0
   19.7730    3.9880   11.6600 H   0  0  0  0  0  0  0  0  0  0  0  0
   19.3170    5.5870   12.4660 H   0  0  0  0  0  0  0  0  0  0  0  0
   21.0500    6.4540   11.2760 H   0  0  0  0  0  0  0  0  0  0  0  0
   21.1910    5.0090   10.2360 H   0  0  0  0  0  0  0  0  0  0  0  0
   18.4470    7.7200    9.1240 H   0  0  0  0  0  0  0  0  0  0  0  0
   19.1330    7.9550   10.7590 H   0  0  0  0  0  0  0  0  0  0  0  0
   17.3050    6.7040   11.5640 H   0  0  0  0  0  0  0  0  0  0  0  0
   16.8550    6.2540    9.8210 H   0  0  0  0  0  0  0  0  0  0  0  0
  1  2  1  0  0  0  0
  2  3  1  0  0  0  0
  3 35  1  0  0  0  0
  3  4  2  0  0  0  0
  4 36  1  0  0  0  0
  5  4  1  0  0  0  0
  5  8  1  0  0  0  0
  6  5  2  0  0  0  0
  7  2  2  0  0  0  0
  7  6  1  0  0  0  0
  8 39  1  6  0  0  0
  8 14  1  0  0  0  0
  8  9  1  0  0  0  0
  9 26  1  0  0  0  0
  9 10  1  0  0  0  0
 10 11  2  0  0  0  0
 12 10  1  0  0  0  0
 12 13  2  0  0  0  0
 14 12  1  0  0  0  0
 15 17  1  0  0  0  0
 15 14  2  0  0  0  0
 16 15  1  0  0  0  0
 17 18  1  0  0  0  0
 18 40  1  0  0  0  0
 18 19  2  0  0  0  0
 19 25  1  0  0  0  0
 20 19  1  0  0  0  0
 20 23  1  0  0  0  0
 21 20  2  0  0  0  0
 22 17  2  0  0  0  0
 22 21  1  0  0  0  0
 24 44  1  0  0  0  0
 24 23  1  0  0  0  0
 25 46  1  0  0  0  0
 25 47  1  0  0  0  0
 26 50  1  0  0  0  0
 27 51  1  0  0  0  0
 27 28  1  0  0  0  0
 27 26  1  0  0  0  0
 28 53  1  0  0  0  0
 29 28  1  0  0  0  0
 29 30  1  0  0  0  0
 30 56  1  0  0  0  0
 30 57  1  0  0  0  0
 31 58  1  0  0  0  0
 31 30  1  0  0  0  0
 32 33  1  0  0  0  0
 32 31  1  0  0  0  0
 33 34  1  0  0  0  0
 33 61  1  0  0  0  0
 34 29  1  0  0  0  0
 34 62  1  0  0  0  0
 37  6  1  0  0  0  0
 38  7  1  0  0  0  0
 41 21  1  0  0  0  0
 42 22  1  0  0  0  0
 43 24  1  0  0  0  0
 45 24  1  0  0  0  0
 48 25  1  0  0  0  0
 49 26  1  0  0  0  0
 52 27  1  0  0  0  0
 54 28  1  0  0  0  0
 55 29  1  0  0  0  0
 59 31  1  0  0  0  0
 60 33  1  0  0  0  0
 63 34  1  0  0  0  0
M  END
>  <Pose>
1

>  <Score>
-6.10

$$$$
