
 OpenBabel03172210413D

 55 58  0  0  1  0  0  0  0  0999 V2000
    7.4640    6.4550   12.2680 B   0  0  0  0  0  0  0  0  0  0  0  0
    9.1960    5.8490   11.7410 C   0  0  0  0  0  0  0  0  0  0  0  0
    9.7230    6.1220   10.4970 C   0  0  0  0  0  0  0  0  0  0  0  0
   10.9780    5.6760   10.1310 C   0  0  0  0  0  0  0  0  0  0  0  0
   11.7610    4.9480   10.9620 C   0  0  0  0  0  0  0  0  0  0  0  0
   11.2130    4.6760   12.2270 C   0  0  0  0  0  0  0  0  0  0  0  0
    9.9660    5.1110   12.6130 C   0  0  0  0  0  0  0  0  0  0  0  0
   13.0770    4.4080   10.6820 C   0  0  1  0  0  0  0  0  0  0  0  0
   14.0240    4.3350   11.7480 N   0  0  0  0  0  0  0  0  0  0  0  0
   14.9990    3.3440   11.3330 C   0  0  0  0  0  0  0  0  0  0  0  0
   16.1630    3.2470   11.8040 O   0  0  0  0  0  0  0  0  0  0  0  0
   14.3890    2.5190   10.3080 C   0  0  0  0  0  0  0  0  0  0  0  0
   14.9060    1.5390    9.6910 O   0  0  0  0  0  0  0  0  0  0  0  0
   13.0480    3.0320   10.1180 C   0  0  0  0  0  0  0  0  0  0  0  0
   12.0340    2.3750    9.5840 C   0  0  0  0  0  0  0  0  0  0  0  0
   10.7970    3.0640    9.5430 O   0  0  0  0  0  0  0  0  0  0  0  0
   12.1180    1.0310    9.0470 C   0  0  0  0  0  0  0  0  0  0  0  0
   10.9780    0.2340    9.2040 C   0  0  0  0  0  0  0  0  0  0  0  0
   10.9030   -1.0500    8.7040 C   0  0  0  0  0  0  0  0  0  0  0  0
   11.9550   -1.5660    8.0420 N   0  0  0  0  0  0  0  0  0  0  0  0
   13.0660   -0.8200    7.8770 C   0  0  0  0  0  0  0  0  0  0  0  0
   13.1530    0.4780    8.3760 C   0  0  0  0  0  0  0  0  0  0  0  0
   14.1570    5.0890   12.9960 C   0  0  0  0  0  0  0  0  0  0  0  0
   13.5900    6.4670   12.9670 C   0  0  0  0  0  0  0  0  0  0  0  0
   14.2500    7.3750   13.9930 C   0  0  0  0  0  0  0  0  0  0  0  0
   13.9400    6.9570   15.3400 N   0  0  0  0  0  4  0  0  0  0  0  0
   15.1050    6.4990   16.0620 C   0  0  0  0  0  0  0  0  0  0  0  0
   14.7310    6.5040   17.5460 C   0  0  0  0  0  0  0  0  0  0  0  0
   14.7370    7.8230   17.9970 O   0  0  0  0  0  0  0  0  0  0  0  0
   14.1870    8.6910   17.0540 C   0  0  0  0  0  0  0  0  0  0  0  0
   13.2620    7.9610   16.1010 C   0  0  0  0  0  0  0  0  0  0  0  0
    9.1110    6.7010    9.8210 H   0  0  0  0  0  0  0  0  0  0  0  0
   11.3670    5.9300    9.1350 H   0  0  0  0  0  0  0  0  0  0  0  0
   11.7710    4.1020   12.9550 H   0  0  0  0  0  0  0  0  0  0  0  0
    9.5770    4.8760   13.6120 H   0  0  0  0  0  0  0  0  0  0  0  0
   13.5780    5.0170    9.8790 H   0  0  0  0  0  0  0  0  0  0  0  0
   10.1090    0.6050    9.7280 H   0  0  0  0  0  0  0  0  0  0  0  0
   10.0280   -1.6720    8.8200 H   0  0  0  0  0  0  0  0  0  0  0  0
   13.9190   -1.2340    7.3420 H   0  0  0  0  0  0  0  0  0  0  0  0
   14.0530    1.0370    8.1870 H   0  0  0  0  0  0  0  0  0  0  0  0
   15.2350    5.1560   13.2160 H   0  0  0  0  0  0  0  0  0  0  0  0
   13.6950    4.5480   13.8470 H   0  0  0  0  0  0  0  0  0  0  0  0
   13.7190    6.9350   11.9380 H   0  0  0  0  0  0  0  0  0  0  0  0
   12.5170    6.4660   13.1700 H   0  0  0  0  0  0  0  0  0  0  0  0
   15.3310    7.3060   13.8650 H   0  0  0  0  0  0  0  0  0  0  0  0
   13.8330    8.3840   13.8480 H   0  0  0  0  0  0  0  0  0  0  0  0
   13.2950    6.1350   15.2540 H   0  0  0  0  0  0  0  0  0  0  0  0
   15.3980    5.4670   15.8220 H   0  0  0  0  0  0  0  0  0  0  0  0
   15.9640    7.1670   15.9120 H   0  0  0  0  0  0  0  0  0  0  0  0
   15.3830    5.8510   18.1240 H   0  0  0  0  0  0  0  0  0  0  0  0
   13.6890    6.1350   17.6000 H   0  0  0  0  0  0  0  0  0  0  0  0
   13.5770    9.4690   17.5530 H   0  0  0  0  0  0  0  0  0  0  0  0
   15.0030    9.1700   16.4660 H   0  0  0  0  0  0  0  0  0  0  0  0
   12.8170    8.6940   15.4310 H   0  0  0  0  0  0  0  0  0  0  0  0
   12.4390    7.5390   16.7330 H   0  0  0  0  0  0  0  0  0  0  0  0
  2  1  1  0  0  0  0
  2  7  1  0  0  0  0
  3  2  2  0  0  0  0
  4  3  1  0  0  0  0
  4  5  2  0  0  0  0
  5  6  1  0  0  0  0
  6  7  2  0  0  0  0
  6 34  1  0  0  0  0
  7 35  1  0  0  0  0
  8 36  1  6  0  0  0
  8  5  1  0  0  0  0
  8  9  1  0  0  0  0
  9 23  1  0  0  0  0
 10  9  1  0  0  0  0
 10 11  2  0  0  0  0
 12 10  1  0  0  0  0
 13 12  2  0  0  0  0
 14 12  1  0  0  0  0
 14  8  1  0  0  0  0
 15 14  2  0  0  0  0
 16 15  1  0  0  0  0
 17 18  1  0  0  0  0
 17 15  1  0  0  0  0
 18 37  1  0  0  0  0
 19 38  1  0  0  0  0
 19 18  2  0  0  0  0
 20 19  1  0  0  0  0
 21 20  2  0  0  0  0
 21 22  1  0  0  0  0
 22 17  2  0  0  0  0
 23 41  1  0  0  0  0
 23 42  1  0  0  0  0
 24 23  1  0  0  0  0
 24 44  1  0  0  0  0
 24 25  1  0  0  0  0
 25 26  1  0  0  0  0
 26 27  1  0  0  0  0
 26 31  1  0  0  0  0
 27 28  1  0  0  0  0
 28 51  1  0  0  0  0
 28 29  1  0  0  0  0
 28 50  1  0  0  0  0
 30 52  1  0  0  0  0
 30 29  1  0  0  0  0
 31 55  1  0  0  0  0
 31 30  1  0  0  0  0
 32  3  1  0  0  0  0
 33  4  1  0  0  0  0
 39 21  1  0  0  0  0
 40 22  1  0  0  0  0
 43 24  1  0  0  0  0
 45 25  1  0  0  0  0
 46 25  1  0  0  0  0
 47 26  1  0  0  0  0
 48 27  1  0  0  0  0
 49 27  1  0  0  0  0
 53 30  1  0  0  0  0
 54 31  1  0  0  0  0
M  END
>  <Pose>
1

>  <Score>
-6.05

$$$$
