
 OpenBabel03172210413D

 57 60  0  0  1  0  0  0  0  0999 V2000
    6.3710    6.4980   12.9320 B   0  0  0  0  0  0  0  0  0  0  0  0
    8.2100    6.1200   12.5230 C   0  0  0  0  0  0  0  0  0  0  0  0
    9.1970    6.3010   13.4750 C   0  0  0  0  0  0  0  0  0  0  0  0
   10.5270    6.0230   13.1640 C   0  0  0  0  0  0  0  0  0  0  0  0
   10.9100    5.5660   11.9250 C   0  0  0  0  0  0  0  0  0  0  0  0
    9.9110    5.3930   10.9920 C   0  0  0  0  0  0  0  0  0  0  0  0
    8.5960    5.6640   11.2880 C   0  0  0  0  0  0  0  0  0  0  0  0
   12.3290    5.2900   11.6110 C   0  0  1  0  0  0  0  0  0  0  0  0
   13.1240    5.1670   12.8470 N   0  0  0  0  0  0  0  0  0  0  0  0
   12.7640    3.8960   13.3760 C   0  0  0  0  0  0  0  0  0  0  0  0
   12.8480    3.5850   14.5990 O   0  0  0  0  0  0  0  0  0  0  0  0
   12.2970    3.0470   12.2850 C   0  0  0  0  0  0  0  0  0  0  0  0
   11.9050    1.8650   12.3680 O   0  0  0  0  0  0  0  0  0  0  0  0
   12.3950    3.8730   11.0960 C   0  0  0  0  0  0  0  0  0  0  0  0
   12.5460    3.4900    9.8540 C   0  0  0  0  0  0  0  0  0  0  0  0
   12.6740    4.4180    8.8300 O   0  0  0  0  0  0  0  0  0  0  0  0
   12.5840    2.0880    9.4850 C   0  0  0  0  0  0  0  0  0  0  0  0
   11.6030    1.1740    9.3380 N   0  0  0  0  0  0  0  0  0  0  0  0
   12.1110   -0.0250    9.0190 C   0  0  0  0  0  0  0  0  0  0  0  0
   13.4500    0.1400    8.9640 N   0  0  0  0  0  0  0  0  0  0  0  0
   13.7840    1.3870    9.2350 C   0  0  0  0  0  0  0  0  0  0  0  0
   15.1390    2.0230    9.2880 C   0  0  0  0  0  0  0  0  0  0  0  0
   11.3190   -1.1510    8.7890 C   0  0  0  0  0  0  0  0  0  0  0  0
    9.9500   -1.0590    8.8850 C   0  0  0  0  0  0  0  0  0  0  0  0
    9.4460    0.1790    9.2110 C   0  0  0  0  0  0  0  0  0  0  0  0
   10.2510    1.2700    9.4330 C   0  0  0  0  0  0  0  0  0  0  0  0
   14.0370    6.1460   13.3760 C   0  0  0  0  0  0  0  0  0  0  0  0
   14.7190    7.0770   12.4520 C   0  0  0  0  0  0  0  0  0  0  0  0
   15.4870    8.2270   12.9710 C   0  0  0  0  0  0  0  0  0  0  0  0
   16.2310    9.0170   12.0380 N   0  0  0  0  0  4  0  0  0  0  0  0
   17.1960    9.8230   12.8370 C   0  0  0  0  0  0  0  0  0  0  0  0
   17.0730    8.1610   11.2270 C   0  0  0  0  0  0  0  0  0  0  0  0
    8.9110    6.6650   14.4700 H   0  0  0  0  0  0  0  0  0  0  0  0
   11.2750    6.1710   13.9240 H   0  0  0  0  0  0  0  0  0  0  0  0
   10.2050    5.0450   10.0130 H   0  0  0  0  0  0  0  0  0  0  0  0
    7.8500    5.5170   10.5340 H   0  0  0  0  0  0  0  0  0  0  0  0
   12.7700    5.9980   10.9060 H   0  0  0  0  0  0  0  0  0  0  0  0
   15.2070    2.7620   10.0940 H   0  0  0  0  0  0  0  0  0  0  0  0
   15.3760    2.5030    8.2910 H   0  0  0  0  0  0  0  0  0  0  0  0
   15.9130    1.2460    9.4520 H   0  0  0  0  0  0  0  0  0  0  0  0
   11.7650   -2.1020    8.5350 H   0  0  0  0  0  0  0  0  0  0  0  0
    9.3130   -1.9230    8.7110 H   0  0  0  0  0  0  0  0  0  0  0  0
    8.3580    0.2500    9.2860 H   0  0  0  0  0  0  0  0  0  0  0  0
    9.8490    2.2310    9.6890 H   0  0  0  0  0  0  0  0  0  0  0  0
   14.8000    5.6560   14.0490 H   0  0  0  0  0  0  0  0  0  0  0  0
   13.4070    6.7920   14.0780 H   0  0  0  0  0  0  0  0  0  0  0  0
   14.0470    7.3790   11.5930 H   0  0  0  0  0  0  0  0  0  0  0  0
   15.4960    6.4230   11.9040 H   0  0  0  0  0  0  0  0  0  0  0  0
   16.1550    7.9230   13.8370 H   0  0  0  0  0  0  0  0  0  0  0  0
   14.7550    8.9230   13.4940 H   0  0  0  0  0  0  0  0  0  0  0  0
   15.6990    9.6510   11.4420 H   0  0  0  0  0  0  0  0  0  0  0  0
   17.8130   10.4480   12.1780 H   0  0  0  0  0  0  0  0  0  0  0  0
   16.6370   10.4290   13.5790 H   0  0  0  0  0  0  0  0  0  0  0  0
   17.8610    9.0680   13.3050 H   0  0  0  0  0  0  0  0  0  0  0  0
   16.6480    7.1340   11.1390 H   0  0  0  0  0  0  0  0  0  0  0  0
   17.0910    8.5790   10.2010 H   0  0  0  0  0  0  0  0  0  0  0  0
   18.1240    8.1370   11.5660 H   0  0  0  0  0  0  0  0  0  0  0  0
  2  1  1  0  0  0  0
  2  3  1  0  0  0  0
  3 33  1  0  0  0  0
  4  3  2  0  0  0  0
  4 34  1  0  0  0  0
  5  4  1  0  0  0  0
  6  7  1  0  0  0  0
  6  5  2  0  0  0  0
  7  2  2  0  0  0  0
  8 37  1  6  0  0  0
  8  5  1  0  0  0  0
  8  9  1  0  0  0  0
  9 27  1  0  0  0  0
  9 10  1  0  0  0  0
 10 11  2  0  0  0  0
 12 13  2  0  0  0  0
 12 10  1  0  0  0  0
 14  8  1  0  0  0  0
 14 12  1  0  0  0  0
 15 14  2  0  0  0  0
 16 15  1  0  0  0  0
 17 15  1  0  0  0  0
 18 26  1  0  0  0  0
 18 17  1  0  0  0  0
 19 18  1  0  0  0  0
 20 19  2  0  0  0  0
 20 21  1  0  0  0  0
 21 22  1  0  0  0  0
 21 17  2  0  0  0  0
 22 40  1  0  0  0  0
 22 38  1  0  0  0  0
 23 24  2  0  0  0  0
 23 19  1  0  0  0  0
 24 25  1  0  0  0  0
 25 43  1  0  0  0  0
 25 26  2  0  0  0  0
 26 44  1  0  0  0  0
 27 45  1  0  0  0  0
 27 46  1  0  0  0  0
 28 29  1  0  0  0  0
 28 27  1  0  0  0  0
 29 50  1  0  0  0  0
 29 49  1  0  0  0  0
 30 31  1  0  0  0  0
 30 29  1  0  0  0  0
 31 54  1  0  0  0  0
 31 53  1  0  0  0  0
 32 57  1  0  0  0  0
 32 30  1  0  0  0  0
 35  6  1  0  0  0  0
 36  7  1  0  0  0  0
 39 22  1  0  0  0  0
 41 23  1  0  0  0  0
 42 24  1  0  0  0  0
 47 28  1  0  0  0  0
 48 28  1  0  0  0  0
 51 30  1  0  0  0  0
 52 31  1  0  0  0  0
 55 32  1  0  0  0  0
 56 32  1  0  0  0  0
M  END
>  <Pose>
1

>  <Score>
-6.13

$$$$
