
 OpenBabel03172210413D

 54 57  0  0  1  0  0  0  0  0999 V2000
    7.0840    6.4260   14.3030 B   0  0  0  0  0  0  0  0  0  0  0  0
    8.7070    6.2020   13.3200 C   0  0  0  0  0  0  0  0  0  0  0  0
    8.6370    5.9950   11.9720 C   0  0  0  0  0  0  0  0  0  0  0  0
    9.7970    5.8320   11.2520 C   0  0  0  0  0  0  0  0  0  0  0  0
   11.0590    5.8640   11.8000 C   0  0  0  0  0  0  0  0  0  0  0  0
   11.0960    6.0770   13.1790 C   0  0  0  0  0  0  0  0  0  0  0  0
    9.9450    6.2420   13.9150 C   0  0  0  0  0  0  0  0  0  0  0  0
   12.2930    5.6840   10.9890 C   0  0  1  0  0  0  0  0  0  0  0  0
   13.4550    6.2200   11.6420 N   0  0  0  0  0  0  0  0  0  0  0  0
   14.2120    5.1250   12.1290 C   0  0  0  0  0  0  0  0  0  0  0  0
   15.1900    5.2030   12.9270 O   0  0  0  0  0  0  0  0  0  0  0  0
   13.6800    3.8830   11.5620 C   0  0  0  0  0  0  0  0  0  0  0  0
   14.0920    2.7130   11.7580 O   0  0  0  0  0  0  0  0  0  0  0  0
   12.5660    4.2570   10.7100 C   0  0  0  0  0  0  0  0  0  0  0  0
   11.9710    3.4720    9.8260 C   0  0  0  0  0  0  0  0  0  0  0  0
   10.9550    4.0450    9.0380 O   0  0  0  0  0  0  0  0  0  0  0  0
   12.2550    2.0770    9.5950 C   0  0  0  0  0  0  0  0  0  0  0  0
   11.4780    1.0080    9.3830 N   0  0  0  0  0  0  0  0  0  0  0  0
   12.2190   -0.1070    9.2610 C   0  0  0  0  0  0  0  0  0  0  0  0
   13.5050    0.2590    9.3980 N   0  0  0  0  0  0  0  0  0  0  0  0
   13.5640    1.5760    9.6020 C   0  0  0  0  0  0  0  0  0  0  0  0
   14.8170    2.3590    9.7980 C   0  0  0  0  0  0  0  0  0  0  0  0
   11.6800   -1.3660    9.0170 C   0  0  0  0  0  0  0  0  0  0  0  0
   10.3220   -1.4750    8.8950 C   0  0  0  0  0  0  0  0  0  0  0  0
    9.5570   -0.3300    9.0180 C   0  0  0  0  0  0  0  0  0  0  0  0
   10.1390    0.8930    9.2600 C   0  0  0  0  0  0  0  0  0  0  0  0
   13.8080    7.6490   11.7850 C   0  0  0  0  0  0  0  0  0  0  0  0
   12.5680    8.4580   12.0980 C   0  0  0  0  0  0  0  0  0  0  0  0
   12.7510    9.3880   13.1570 N   0  0  0  0  0  4  0  0  0  0  0  0
   11.4360    9.6700   13.7330 C   0  0  0  0  0  0  0  0  0  0  0  0
   13.6260    8.9570   14.2030 C   0  0  0  0  0  0  0  0  0  0  0  0
    7.6730    5.9550   11.4440 H   0  0  0  0  0  0  0  0  0  0  0  0
    9.7000    5.6710   10.1890 H   0  0  0  0  0  0  0  0  0  0  0  0
   12.0480    6.1150   13.6880 H   0  0  0  0  0  0  0  0  0  0  0  0
    9.9880    6.4060   14.9820 H   0  0  0  0  0  0  0  0  0  0  0  0
   12.1280    6.2700   10.0570 H   0  0  0  0  0  0  0  0  0  0  0  0
   15.0320    3.0030    8.9160 H   0  0  0  0  0  0  0  0  0  0  0  0
   14.6310    3.0080   10.6950 H   0  0  0  0  0  0  0  0  0  0  0  0
   15.6370    1.6870   10.0480 H   0  0  0  0  0  0  0  0  0  0  0  0
   12.3640   -2.2110    8.9360 H   0  0  0  0  0  0  0  0  0  0  0  0
    9.8980   -2.4530    8.7050 H   0  0  0  0  0  0  0  0  0  0  0  0
    8.4710   -0.3870    8.9240 H   0  0  0  0  0  0  0  0  0  0  0  0
    9.5640    1.8070    9.3620 H   0  0  0  0  0  0  0  0  0  0  0  0
   14.2940    8.0150   10.8600 H   0  0  0  0  0  0  0  0  0  0  0  0
   14.5190    7.6960   12.6200 H   0  0  0  0  0  0  0  0  0  0  0  0
   11.7660    7.7160   12.3460 H   0  0  0  0  0  0  0  0  0  0  0  0
   12.2260    8.9370   11.1410 H   0  0  0  0  0  0  0  0  0  0  0  0
   13.1170   10.3180   12.8090 H   0  0  0  0  0  0  0  0  0  0  0  0
   11.0220    8.7800   14.2270 H   0  0  0  0  0  0  0  0  0  0  0  0
   11.5020   10.5460   14.4380 H   0  0  0  0  0  0  0  0  0  0  0  0
   10.7040    9.9790   12.9560 H   0  0  0  0  0  0  0  0  0  0  0  0
   13.2530    9.3930   15.1620 H   0  0  0  0  0  0  0  0  0  0  0  0
   13.6320    7.8570   14.3510 H   0  0  0  0  0  0  0  0  0  0  0  0
   14.6560    9.3770   14.0790 H   0  0  0  0  0  0  0  0  0  0  0  0
  2  7  1  0  0  0  0
  2  1  1  0  0  0  0
  3  2  2  0  0  0  0
  4  5  2  0  0  0  0
  4  3  1  0  0  0  0
  5  6  1  0  0  0  0
  6 34  1  0  0  0  0
  6  7  2  0  0  0  0
  7 35  1  0  0  0  0
  8 36  1  6  0  0  0
  8  9  1  0  0  0  0
  8  5  1  0  0  0  0
  9 27  1  0  0  0  0
  9 10  1  0  0  0  0
 10 11  2  0  0  0  0
 12 13  2  0  0  0  0
 12 10  1  0  0  0  0
 14  8  1  0  0  0  0
 14 12  1  0  0  0  0
 15 14  2  0  0  0  0
 16 15  1  0  0  0  0
 17 21  2  0  0  0  0
 17 15  1  0  0  0  0
 18 17  1  0  0  0  0
 19 18  1  0  0  0  0
 19 20  2  0  0  0  0
 20 21  1  0  0  0  0
 21 22  1  0  0  0  0
 22 39  1  0  0  0  0
 22 38  1  0  0  0  0
 23 19  1  0  0  0  0
 24 23  2  0  0  0  0
 24 25  1  0  0  0  0
 25 26  2  0  0  0  0
 26 43  1  0  0  0  0
 26 18  1  0  0  0  0
 27 28  1  0  0  0  0
 27 45  1  0  0  0  0
 28 46  1  0  0  0  0
 28 29  1  0  0  0  0
 29 30  1  0  0  0  0
 29 31  1  0  0  0  0
 30 49  1  0  0  0  0
 30 50  1  0  0  0  0
 31 53  1  0  0  0  0
 31 52  1  0  0  0  0
 32  3  1  0  0  0  0
 33  4  1  0  0  0  0
 37 22  1  0  0  0  0
 40 23  1  0  0  0  0
 41 24  1  0  0  0  0
 42 25  1  0  0  0  0
 44 27  1  0  0  0  0
 47 28  1  0  0  0  0
 48 29  1  0  0  0  0
 51 30  1  0  0  0  0
 54 31  1  0  0  0  0
M  END
>  <Pose>
1

>  <Score>
-5.94

$$$$
