
 OpenBabel03172210413D

 44 47  0  0  0  0  0  0  0  0999 V2000
    3.7520    9.5900   14.3700 B   0  0  0  0  0  0  0  0  0  0  0  0
    4.8150    8.3450   13.3830 C   0  0  0  0  0  0  0  0  0  0  0  0
    4.8740    8.3690   12.0150 C   0  0  0  0  0  0  0  0  0  0  0  0
    5.6550    7.4480   11.3030 C   0  0  0  0  0  0  0  0  0  0  0  0
    6.4040    6.4740   11.9140 C   0  0  0  0  0  0  0  0  0  0  0  0
    6.3210    6.4790   13.3210 C   0  0  0  0  0  0  0  0  0  0  0  0
    5.5600    7.3740   14.0220 C   0  0  0  0  0  0  0  0  0  0  0  0
    7.1900    5.4980   11.2960 N   0  0  0  0  0  0  0  0  0  0  0  0
    8.5890    5.4470   11.3060 C   0  0  0  0  0  0  0  0  0  0  0  0
    9.1940    5.0400   12.3760 O   0  0  0  0  0  0  0  0  0  0  0  0
    9.5090    5.8050   10.2280 C   0  0  0  0  0  0  0  0  0  0  0  0
   10.8120    5.1450   10.4130 N   0  0  0  0  0  0  0  0  0  0  0  0
   11.0430    3.8990   10.0110 N   0  0  0  0  0  0  0  0  0  0  0  0
   12.2450    3.2890   10.2170 C   0  0  0  0  0  0  0  0  0  0  0  0
   13.2240    3.9630   10.8410 N   0  0  0  0  0  0  0  0  0  0  0  0
   14.4160    3.1500   10.9360 C   0  0  0  0  0  0  0  0  0  0  0  0
   14.0970    1.8310   10.2980 C   0  0  0  0  0  0  0  0  0  0  0  0
   12.7050    1.9770    9.9180 N   0  0  0  0  0  0  0  0  0  0  0  0
   11.9570    0.9270    9.3360 C   0  0  0  0  0  0  0  0  0  0  0  0
   12.5040   -0.0610    8.5610 C   0  0  0  0  0  0  0  0  0  0  0  0
   11.7420   -1.0660    7.9920 C   0  0  0  0  0  0  0  0  0  0  0  0
   10.3760   -1.0900    8.2050 C   0  0  0  0  0  0  0  0  0  0  0  0
    9.8130   -0.1200    8.9720 C   0  0  0  0  0  0  0  0  0  0  0  0
   10.5800    0.8790    9.5340 C   0  0  0  0  0  0  0  0  0  0  0  0
   13.0520    5.2210   11.2690 C   0  0  0  0  0  0  0  0  0  0  0  0
   13.9680    5.8480   11.8520 O   0  0  0  0  0  0  0  0  0  0  0  0
   11.8150    5.7890   11.0360 C   0  0  0  0  0  0  0  0  0  0  0  0
   11.6070    6.9680   11.4180 O   0  0  0  0  0  0  0  0  0  0  0  0
    4.3040    9.1160   11.4810 H   0  0  0  0  0  0  0  0  0  0  0  0
    5.6840    7.5110   10.2180 H   0  0  0  0  0  0  0  0  0  0  0  0
    6.8950    5.7290   13.8480 H   0  0  0  0  0  0  0  0  0  0  0  0
    5.5010    7.3640   15.1130 H   0  0  0  0  0  0  0  0  0  0  0  0
    6.6950    4.7250   10.7670 H   0  0  0  0  0  0  0  0  0  0  0  0
    9.7390    6.8980   10.1990 H   0  0  0  0  0  0  0  0  0  0  0  0
    9.1110    5.4850    9.2490 H   0  0  0  0  0  0  0  0  0  0  0  0
   15.1820    3.6370   10.2870 H   0  0  0  0  0  0  0  0  0  0  0  0
   14.7860    3.0510   11.9830 H   0  0  0  0  0  0  0  0  0  0  0  0
   14.1730    1.0670   11.1170 H   0  0  0  0  0  0  0  0  0  0  0  0
   14.7420    1.5670    9.4350 H   0  0  0  0  0  0  0  0  0  0  0  0
   13.5540   -0.0430    8.3970 H   0  0  0  0  0  0  0  0  0  0  0  0
   12.2020   -1.8320    7.3800 H   0  0  0  0  0  0  0  0  0  0  0  0
    9.7780   -1.8900    7.7490 H   0  0  0  0  0  0  0  0  0  0  0  0
    8.7540   -0.1150    9.1510 H   0  0  0  0  0  0  0  0  0  0  0  0
   10.1290    1.6330   10.1290 H   0  0  0  0  0  0  0  0  0  0  0  0
  2  7  1  0  0  0  0
  2  1  1  0  0  0  0
  3  2  2  0  0  0  0
  4  5  2  0  0  0  0
  4  3  1  0  0  0  0
  5  6  1  0  0  0  0
  6 31  1  0  0  0  0
  6  7  2  0  0  0  0
  7 32  1  0  0  0  0
  8  9  1  0  0  0  0
  8  5  1  0  0  0  0
  9 10  2  0  0  0  0
 11 12  1  0  0  0  0
 11  9  1  0  0  0  0
 12 27  1  0  0  0  0
 13 14  2  0  0  0  0
 13 12  1  0  0  0  0
 14 15  1  0  0  0  0
 15 16  1  0  0  0  0
 15 25  1  0  0  0  0
 16 37  1  0  0  0  0
 17 16  1  0  0  0  0
 17 38  1  0  0  0  0
 18 14  1  0  0  0  0
 18 17  1  0  0  0  0
 19 24  1  0  0  0  0
 19 18  1  0  0  0  0
 20 19  2  0  0  0  0
 21 22  2  0  0  0  0
 21 20  1  0  0  0  0
 22 23  1  0  0  0  0
 23 43  1  0  0  0  0
 23 24  2  0  0  0  0
 24 44  1  0  0  0  0
 25 26  2  0  0  0  0
 27 25  1  0  0  0  0
 27 28  2  0  0  0  0
 29  3  1  0  0  0  0
 30  4  1  0  0  0  0
 33  8  1  0  0  0  0
 34 11  1  0  0  0  0
 35 11  1  0  0  0  0
 36 16  1  0  0  0  0
 39 17  1  0  0  0  0
 40 20  1  0  0  0  0
 41 21  1  0  0  0  0
 42 22  1  0  0  0  0
M  END
>  <Pose>
1

>  <Score>
-7.25

$$$$
