
 OpenBabel03172210413D

 44 47  0  0  0  0  0  0  0  0999 V2000
    8.3640    6.7750   12.1300 B   0  0  0  0  0  0  0  0  0  0  0  0
   10.2090    7.1850   11.9370 C   0  0  0  0  0  0  0  0  0  0  0  0
   10.9810    6.6660   10.9290 C   0  0  0  0  0  0  0  0  0  0  0  0
   12.3260    6.9960   10.8330 C   0  0  0  0  0  0  0  0  0  0  0  0
   12.9600    7.8420   11.7170 C   0  0  0  0  0  0  0  0  0  0  0  0
   12.1370    8.3550   12.7380 C   0  0  0  0  0  0  0  0  0  0  0  0
   10.8210    8.0330   12.8340 C   0  0  0  0  0  0  0  0  0  0  0  0
   14.3300    8.1900   11.6800 N   0  0  0  0  0  0  0  0  0  0  0  0
   15.4030    7.3010   11.5360 C   0  0  0  0  0  0  0  0  0  0  0  0
   16.3590    7.5610   10.7760 O   0  0  0  0  0  0  0  0  0  0  0  0
   15.4130    5.9930   12.3100 C   0  0  0  0  0  0  0  0  0  0  0  0
   15.8920    4.9430   11.4330 N   0  0  0  0  0  0  0  0  0  0  0  0
   17.1630    4.7930   11.0600 N   0  0  0  0  0  0  0  0  0  0  0  0
   17.2660    3.7500   10.2690 N   0  0  0  0  0  0  0  0  0  0  0  0
   16.0360    3.2040   10.1170 C   0  0  0  0  0  0  0  0  0  0  0  0
   15.1980    3.9530   10.8440 C   0  0  0  0  0  0  0  0  0  0  0  0
   13.9630    3.3670   10.6640 C   0  0  0  0  0  0  0  0  0  0  0  0
   12.9100    3.8140   11.2100 O   0  0  0  0  0  0  0  0  0  0  0  0
   14.0250    2.2950    9.8590 N   0  0  0  0  0  0  0  0  0  0  0  0
   15.3390    2.1860    9.5090 C   0  0  0  0  0  0  0  0  0  0  0  0
   15.7700    1.2770    8.7490 O   0  0  0  0  0  0  0  0  0  0  0  0
   12.9670    1.4260    9.4310 C   0  0  0  0  0  0  0  0  0  0  0  0
   13.2410    0.2340    8.7960 C   0  0  0  0  0  0  0  0  0  0  0  0
   12.2290   -0.6130    8.3920 C   0  0  0  0  0  0  0  0  0  0  0  0
   10.8950   -0.3120    8.5990 C   0  0  0  0  0  0  0  0  0  0  0  0
   10.6170    0.8800    9.2340 C   0  0  0  0  0  0  0  0  0  0  0  0
   11.6370    1.7260    9.6380 C   0  0  0  0  0  0  0  0  0  0  0  0
    9.8280   -1.2500    8.1540 C   0  0  0  0  0  0  0  0  0  0  0  0
   10.5260    6.0030   10.2170 H   0  0  0  0  0  0  0  0  0  0  0  0
   12.9220    6.5740   10.0080 H   0  0  0  0  0  0  0  0  0  0  0  0
   12.6360    9.0350   13.4510 H   0  0  0  0  0  0  0  0  0  0  0  0
   10.2200    8.4540   13.6430 H   0  0  0  0  0  0  0  0  0  0  0  0
   14.5430    9.2340   11.7700 H   0  0  0  0  0  0  0  0  0  0  0  0
   14.3970    5.7480   12.6340 H   0  0  0  0  0  0  0  0  0  0  0  0
   16.1340    6.1180   13.1550 H   0  0  0  0  0  0  0  0  0  0  0  0
   17.9250    5.4290   11.3720 H   0  0  0  0  0  0  0  0  0  0  0  0
   18.1250    3.3620    9.8060 H   0  0  0  0  0  0  0  0  0  0  0  0
   14.2830   -0.0160    8.6270 H   0  0  0  0  0  0  0  0  0  0  0  0
   12.4360   -1.5640    7.8880 H   0  0  0  0  0  0  0  0  0  0  0  0
    9.5680    1.1400    9.4100 H   0  0  0  0  0  0  0  0  0  0  0  0
   11.4210    2.6650   10.1380 H   0  0  0  0  0  0  0  0  0  0  0  0
    9.8740   -1.4530    7.0600 H   0  0  0  0  0  0  0  0  0  0  0  0
    8.8520   -0.7330    8.3200 H   0  0  0  0  0  0  0  0  0  0  0  0
    9.8140   -2.1820    8.7410 H   0  0  0  0  0  0  0  0  0  0  0  0
  2  1  1  0  0  0  0
  2  7  1  0  0  0  0
  3  2  2  0  0  0  0
  4  3  1  0  0  0  0
  4  5  2  0  0  0  0
  5  6  1  0  0  0  0
  6  7  2  0  0  0  0
  6 31  1  0  0  0  0
  7 32  1  0  0  0  0
  8  5  1  0  0  0  0
  8 33  1  0  0  0  0
  9  8  1  0  0  0  0
  9 11  1  0  0  0  0
 10  9  2  0  0  0  0
 11 34  1  0  0  0  0
 11 35  1  0  0  0  0
 12 11  1  0  0  0  0
 13 36  1  0  0  0  0
 13 12  1  0  0  0  0
 14 13  1  0  0  0  0
 15 14  1  0  0  0  0
 15 16  2  0  0  0  0
 16 12  1  0  0  0  0
 17 16  1  0  0  0  0
 17 18  2  0  0  0  0
 19 17  1  0  0  0  0
 20 19  1  0  0  0  0
 20 15  1  0  0  0  0
 21 20  2  0  0  0  0
 22 27  1  0  0  0  0
 22 19  1  0  0  0  0
 23 22  2  0  0  0  0
 24 25  2  0  0  0  0
 24 23  1  0  0  0  0
 25 26  1  0  0  0  0
 26 40  1  0  0  0  0
 26 27  2  0  0  0  0
 27 41  1  0  0  0  0
 28 43  1  0  0  0  0
 28 25  1  0  0  0  0
 28 44  1  0  0  0  0
 29  3  1  0  0  0  0
 30  4  1  0  0  0  0
 37 14  1  0  0  0  0
 38 23  1  0  0  0  0
 39 24  1  0  0  0  0
 42 28  1  0  0  0  0
M  END
>  <Pose>
1

>  <Score>
-7.07

$$$$
