
 OpenBabel03172210413D

 47 50  0  0  1  0  0  0  0  0999 V2000
    7.7420    7.6570   11.9020 B   0  0  0  0  0  0  0  0  0  0  0  0
    9.6500    7.4410   11.9140 C   0  0  0  0  0  0  0  0  0  0  0  0
   10.2850    6.7140   10.9380 C   0  0  0  0  0  0  0  0  0  0  0  0
   11.6230    6.5510   10.9380 C   0  0  0  0  0  0  0  0  0  0  0  0
   12.4490    7.1250   11.9560 C   0  0  0  0  0  0  0  0  0  0  0  0
   11.7710    7.8460   12.9150 C   0  0  0  0  0  0  0  0  0  0  0  0
   10.4080    8.0120   12.9120 C   0  0  0  0  0  0  0  0  0  0  0  0
   13.7870    6.8270   11.8950 N   0  0  0  0  0  0  0  0  0  0  0  0
   15.0760    6.5410   11.8350 C   0  0  0  0  0  0  0  0  0  0  0  0
   16.0860    7.2620   11.4670 O   0  0  0  0  0  0  0  0  0  0  0  0
   15.5700    5.1370   12.2470 C   0  0  2  0  0  0  0  0  0  0  0  0
   17.0630    5.1920   12.1170 C   0  0  0  0  0  0  0  0  0  0  0  0
   17.5820    4.7210   10.8270 C   0  0  0  0  0  0  0  0  0  0  0  0
   18.6480    5.2380   10.3960 O   0  0  0  0  0  0  0  0  0  0  0  0
   16.8900    3.7200   10.1030 N   0  0  0  0  0  0  0  0  0  0  0  0
   15.5540    3.4040   10.4320 C   0  0  0  0  0  0  0  0  0  0  0  0
   14.9100    2.4230    9.7270 N   0  0  0  0  0  0  0  0  0  0  0  0
   13.6530    2.0650    9.9950 C   0  0  0  0  0  0  0  0  0  0  0  0
   13.0230    2.7030   10.9890 N   0  0  0  0  0  0  0  0  0  0  0  0
   13.6180    3.6890   11.7220 C   0  0  0  0  0  0  0  0  0  0  0  0
   14.9180    4.0780   11.4660 C   0  0  0  0  0  0  0  0  0  0  0  0
   12.9010    4.3460   12.7610 N   0  0  0  0  0  0  0  0  0  0  0  0
   12.9920    1.0270    9.2340 N   0  0  0  0  0  0  0  0  0  0  0  0
   11.6320    0.7610    9.5470 C   0  0  0  0  0  0  0  0  0  0  0  0
   10.8820    0.0280    8.4730 C   0  0  0  0  0  0  0  0  0  0  0  0
   11.6490   -0.1700    7.3300 O   0  0  0  0  0  0  0  0  0  0  0  0
   12.8810   -0.7380    7.6250 C   0  0  0  0  0  0  0  0  0  0  0  0
   13.7540    0.3400    8.2120 C   0  0  0  0  0  0  0  0  0  0  0  0
    9.6740    6.2580   10.1480 H   0  0  0  0  0  0  0  0  0  0  0  0
   12.1330    5.9680   10.1670 H   0  0  0  0  0  0  0  0  0  0  0  0
   12.3430    8.3110   13.7400 H   0  0  0  0  0  0  0  0  0  0  0  0
    9.9020    8.5960   13.6900 H   0  0  0  0  0  0  0  0  0  0  0  0
   13.7680    7.0430   10.5500 H   0  0  0  0  0  0  0  0  0  0  0  0
   15.3360    5.0440   13.3550 H   0  0  0  0  0  0  0  0  0  0  0  0
   17.5000    4.5760   12.9510 H   0  0  0  0  0  0  0  0  0  0  0  0
   17.3870    6.2540   12.2730 H   0  0  0  0  0  0  0  0  0  0  0  0
   17.3500    3.1890    9.3070 H   0  0  0  0  0  0  0  0  0  0  0  0
   13.0150    4.1180   13.7540 H   0  0  0  0  0  0  0  0  0  0  0  0
   12.2150    5.0990   12.4980 H   0  0  0  0  0  0  0  0  0  0  0  0
   11.6430    0.1140   10.4720 H   0  0  0  0  0  0  0  0  0  0  0  0
   11.1430    1.7200    9.8610 H   0  0  0  0  0  0  0  0  0  0  0  0
   10.5040   -0.9620    8.8300 H   0  0  0  0  0  0  0  0  0  0  0  0
   10.0000    0.6230    8.1830 H   0  0  0  0  0  0  0  0  0  0  0  0
   13.2910   -1.0940    6.6350 H   0  0  0  0  0  0  0  0  0  0  0  0
   12.7660   -1.6060    8.3020 H   0  0  0  0  0  0  0  0  0  0  0  0
   14.7050   -0.0670    8.6220 H   0  0  0  0  0  0  0  0  0  0  0  0
   14.0490    1.0320    7.3790 H   0  0  0  0  0  0  0  0  0  0  0  0
  1  2  1  0  0  0  0
  2  7  1  0  0  0  0
  3  4  1  0  0  0  0
  3  2  2  0  0  0  0
  4  5  2  0  0  0  0
  5  6  1  0  0  0  0
  6 31  1  0  0  0  0
  7  6  2  0  0  0  0
  7 32  1  0  0  0  0
  8  5  1  0  0  0  0
  9  8  1  0  0  0  0
  9 11  1  0  0  0  0
 10  9  2  0  0  0  0
 11 34  1  1  0  0  0
 12 11  1  0  0  0  0
 12 36  1  0  0  0  0
 12 35  1  0  0  0  0
 13 12  1  0  0  0  0
 14 13  2  0  0  0  0
 15 16  1  0  0  0  0
 15 13  1  0  0  0  0
 16 21  2  0  0  0  0
 17 18  2  0  0  0  0
 17 16  1  0  0  0  0
 18 19  1  0  0  0  0
 19 20  2  0  0  0  0
 20 22  1  0  0  0  0
 21 20  1  0  0  0  0
 21 11  1  0  0  0  0
 22 38  1  0  0  0  0
 23 24  1  0  0  0  0
 23 18  1  0  0  0  0
 24 41  1  0  0  0  0
 24 40  1  0  0  0  0
 25 42  1  0  0  0  0
 25 24  1  0  0  0  0
 26 27  1  0  0  0  0
 26 25  1  0  0  0  0
 27 28  1  0  0  0  0
 27 45  1  0  0  0  0
 28 46  1  0  0  0  0
 28 23  1  0  0  0  0
 29  3  1  0  0  0  0
 30  4  1  0  0  0  0
 33  8  1  0  0  0  0
 37 15  1  0  0  0  0
 39 22  1  0  0  0  0
 43 25  1  0  0  0  0
 44 27  1  0  0  0  0
 47 28  1  0  0  0  0
M  END
>  <Pose>
1

>  <Score>
-6.24

$$$$
