
 OpenBabel03172210413D

 52 55  0  0  1  0  0  0  0  0999 V2000
    7.3610   -2.3560    6.1870 B   0  0  0  0  0  0  0  0  0  0  0  0
    8.4020   -1.1900    7.2540 C   0  0  0  0  0  0  0  0  0  0  0  0
    9.6780   -1.5650    7.6390 C   0  0  0  0  0  0  0  0  0  0  0  0
   10.4840   -0.7880    8.4010 C   0  0  0  0  0  0  0  0  0  0  0  0
    9.9780    0.4840    8.8210 C   0  0  0  0  0  0  0  0  0  0  0  0
    8.7080    0.8260    8.4210 C   0  0  0  0  0  0  0  0  0  0  0  0
    7.9050    0.0200    7.6450 C   0  0  0  0  0  0  0  0  0  0  0  0
   10.8780    1.2420    9.5280 N   0  0  0  0  0  0  0  0  0  0  0  0
   11.7600    1.9850   10.2230 C   0  0  0  0  0  0  0  0  0  0  0  0
   11.5640    2.6300   11.3410 O   0  0  0  0  0  0  0  0  0  0  0  0
   13.1680    2.1710    9.7800 C   0  0  2  0  0  0  0  0  0  0  0  0
   13.8840    0.8800    9.4310 C   0  0  0  0  0  0  0  0  0  0  0  0
   15.1200    1.2350    8.6680 C   0  0  0  0  0  0  0  0  0  0  0  0
   15.3890    0.6740    7.6210 O   0  0  0  0  0  0  0  0  0  0  0  0
   15.9340    2.2310    9.2260 N   0  0  0  0  0  0  0  0  0  0  0  0
   15.4100    3.1580   10.1560 C   0  0  0  0  0  0  0  0  0  0  0  0
   16.2020    4.0570   10.7730 N   0  0  0  0  0  0  0  0  0  0  0  0
   15.8120    4.9040   11.7270 C   0  0  0  0  0  0  0  0  0  0  0  0
   14.5020    4.8160   12.0720 N   0  0  0  0  0  0  0  0  0  0  0  0
   13.6450    3.9360   11.4930 C   0  0  0  0  0  0  0  0  0  0  0  0
   14.0440    3.0760   10.5160 C   0  0  0  0  0  0  0  0  0  0  0  0
   12.3170    3.9100   11.9100 O   0  0  0  0  0  0  0  0  0  0  0  0
   16.6530    5.8740   12.3220 N   0  0  0  0  0  0  0  0  0  0  0  0
   17.8790    5.6260   13.0340 C   0  0  0  0  0  0  0  0  0  0  0  0
   18.8700    6.7310   12.6800 C   0  0  0  0  0  0  0  0  0  0  0  0
   18.6390    7.2790   11.3020 C   0  0  2  0  0  0  0  0  0  0  0  0
   17.2740    7.8550   11.1630 C   0  0  0  0  0  0  0  0  0  0  0  0
   16.2880    7.2900   12.2120 C   0  0  0  0  0  0  0  0  0  0  0  0
   18.9590    6.2870   10.2490 C   0  0  0  0  0  0  0  0  0  0  0  0
   20.0230    5.6440   10.3630 O   0  0  0  0  0  0  0  0  0  0  0  0
   18.1360    6.0340    9.1290 N   0  0  0  0  0  0  0  0  0  0  0  0
   10.0650   -2.5500    7.3140 H   0  0  0  0  0  0  0  0  0  0  0  0
   11.4870   -1.0930    8.7030 H   0  0  0  0  0  0  0  0  0  0  0  0
    8.2990    1.7960    8.7110 H   0  0  0  0  0  0  0  0  0  0  0  0
    6.9060    0.3130    7.3420 H   0  0  0  0  0  0  0  0  0  0  0  0
   11.1610    0.1710   10.2950 H   0  0  0  0  0  0  0  0  0  0  0  0
   13.0020    2.6170    8.7090 H   0  0  0  0  0  0  0  0  0  0  0  0
   13.2770    0.2290    8.7730 H   0  0  0  0  0  0  0  0  0  0  0  0
   14.1660    0.3130   10.3220 H   0  0  0  0  0  0  0  0  0  0  0  0
   16.9570    2.3340    8.9880 H   0  0  0  0  0  0  0  0  0  0  0  0
   12.0270    4.2430   12.8270 H   0  0  0  0  0  0  0  0  0  0  0  0
   18.3320    4.6610   12.7470 H   0  0  0  0  0  0  0  0  0  0  0  0
   17.7950    5.6170   14.1340 H   0  0  0  0  0  0  0  0  0  0  0  0
   18.8840    7.4980   13.4700 H   0  0  0  0  0  0  0  0  0  0  0  0
   19.8900    6.2790   12.7030 H   0  0  0  0  0  0  0  0  0  0  0  0
   19.3640    8.1260   11.1560 H   0  0  0  0  0  0  0  0  0  0  0  0
   16.8460    7.5990   10.1520 H   0  0  0  0  0  0  0  0  0  0  0  0
   17.2380    8.9560   11.2270 H   0  0  0  0  0  0  0  0  0  0  0  0
   16.4350    7.8220   13.1520 H   0  0  0  0  0  0  0  0  0  0  0  0
   15.2820    7.4070   11.7660 H   0  0  0  0  0  0  0  0  0  0  0  0
   17.3460    6.6500    8.8650 H   0  0  0  0  0  0  0  0  0  0  0  0
   18.3320    5.1940    8.5460 H   0  0  0  0  0  0  0  0  0  0  0  0
  1  2  1  0  0  0  0
  2  3  2  0  0  0  0
  2  7  1  0  0  0  0
  3  4  1  0  0  0  0
  4 33  1  0  0  0  0
  4  5  2  0  0  0  0
  5  8  1  0  0  0  0
  6 34  1  0  0  0  0
  6  5  1  0  0  0  0
  7  6  2  0  0  0  0
  8  9  1  0  0  0  0
  8 36  1  0  0  0  0
  9 10  2  0  0  0  0
 11 37  1  6  0  0  0
 11  9  1  0  0  0  0
 11 21  1  0  0  0  0
 12 11  1  0  0  0  0
 12 39  1  0  0  0  0
 13 15  1  0  0  0  0
 13 12  1  0  0  0  0
 14 13  2  0  0  0  0
 15 16  1  0  0  0  0
 16 21  2  0  0  0  0
 16 17  1  0  0  0  0
 17 18  2  0  0  0  0
 18 19  1  0  0  0  0
 18 23  1  0  0  0  0
 20 22  1  0  0  0  0
 20 19  2  0  0  0  0
 21 20  1  0  0  0  0
 22 41  1  0  0  0  0
 23 24  1  0  0  0  0
 24 43  1  0  0  0  0
 25 45  1  0  0  0  0
 25 24  1  0  0  0  0
 25 44  1  0  0  0  0
 26 46  1  6  0  0  0
 26 25  1  0  0  0  0
 27 48  1  0  0  0  0
 27 26  1  0  0  0  0
 27 28  1  0  0  0  0
 28 23  1  0  0  0  0
 28 49  1  0  0  0  0
 29 30  2  0  0  0  0
 29 26  1  0  0  0  0
 31 29  1  0  0  0  0
 32  3  1  0  0  0  0
 35  7  1  0  0  0  0
 38 12  1  0  0  0  0
 40 15  1  0  0  0  0
 42 24  1  0  0  0  0
 47 27  1  0  0  0  0
 50 28  1  0  0  0  0
 51 31  1  0  0  0  0
 52 31  1  0  0  0  0
M  END
>  <Pose>
1

>  <Score>
-6.53

$$$$
