
 OpenBabel03172210413D

 42 45  0  0  0  0  0  0  0  0999 V2000
   13.9050    2.3980   10.3220 B   0  0  0  0  0  0  0  0  0  0  0  0
   12.3490    3.4510   10.6770 C   0  0  0  0  0  0  0  0  0  0  0  0
   11.6910    4.0960    9.6510 C   0  0  0  0  0  0  0  0  0  0  0  0
   10.5690    4.8520    9.9260 C   0  0  0  0  0  0  0  0  0  0  0  0
   10.0550    5.0030   11.2000 C   0  0  0  0  0  0  0  0  0  0  0  0
   10.7240    4.3490   12.2180 C   0  0  0  0  0  0  0  0  0  0  0  0
   11.8470    3.5890   11.9590 C   0  0  0  0  0  0  0  0  0  0  0  0
    8.8900    5.7910   11.4590 N   0  0  0  0  0  0  0  0  0  0  0  0
    7.6560    5.4380   11.1990 N   0  0  0  0  0  0  0  0  0  0  0  0
    6.7640    6.3850   11.5510 C   0  0  0  0  0  0  0  0  0  0  0  0
    7.4980    7.4150   12.0730 C   0  0  0  0  0  0  0  0  0  0  0  0
    8.8180    7.0230   12.0060 C   0  0  0  0  0  0  0  0  0  0  0  0
    9.9600    7.7930   12.4450 N   0  0  0  0  0  0  0  0  0  0  0  0
   11.2380    7.6090   12.1520 C   0  0  0  0  0  0  0  0  0  0  0  0
   12.0170    8.5600   12.7710 C   0  0  0  0  0  0  0  0  0  0  0  0
   11.1370    9.3500   13.4710 C   0  0  0  0  0  0  0  0  0  0  0  0
    9.8690    8.8600   13.2560 C   0  0  0  0  0  0  0  0  0  0  0  0
    6.9490    8.6630   12.5890 C   0  0  0  0  0  0  0  0  0  0  0  0
    7.2680    9.7100   11.9760 O   0  0  0  0  0  0  0  0  0  0  0  0
    6.1010    8.7350   13.7140 N   0  0  0  0  0  0  0  0  0  0  0  0
    6.6870    8.8060   15.0310 C   0  0  0  0  0  0  0  0  0  0  0  0
    6.3760   10.1560   15.6040 C   0  0  0  0  0  0  0  0  0  0  0  0
    5.2260   10.7780   14.9580 N   0  0  0  0  0  0  0  0  0  0  0  0
    4.2270   10.0230   14.2800 C   0  0  0  0  0  0  0  0  0  0  0  0
    3.0490   10.4540   14.2240 O   0  0  0  0  0  0  0  0  0  0  0  0
    4.6560    8.7440   13.6680 C   0  0  0  0  0  0  0  0  0  0  0  0
   12.0770    3.9960    8.6270 H   0  0  0  0  0  0  0  0  0  0  0  0
   10.0720    5.3490    9.1050 H   0  0  0  0  0  0  0  0  0  0  0  0
   10.3210    4.4660   13.2230 H   0  0  0  0  0  0  0  0  0  0  0  0
   12.3600    3.0860   12.7550 H   0  0  0  0  0  0  0  0  0  0  0  0
    5.6810    6.2960   11.4220 H   0  0  0  0  0  0  0  0  0  0  0  0
   11.6290    6.8220   11.5140 H   0  0  0  0  0  0  0  0  0  0  0  0
   13.1110    8.6660   12.7180 H   0  0  0  0  0  0  0  0  0  0  0  0
   11.3970   10.2060   14.0820 H   0  0  0  0  0  0  0  0  0  0  0  0
    8.9430    9.2790   13.6840 H   0  0  0  0  0  0  0  0  0  0  0  0
    7.7510    8.5380   15.0530 H   0  0  0  0  0  0  0  0  0  0  0  0
    6.1590    8.0530   15.6870 H   0  0  0  0  0  0  0  0  0  0  0  0
    7.2610   10.8170   15.5240 H   0  0  0  0  0  0  0  0  0  0  0  0
    6.1180   10.1030   16.6940 H   0  0  0  0  0  0  0  0  0  0  0  0
    5.1510   11.8380   15.0060 H   0  0  0  0  0  0  0  0  0  0  0  0
    4.2880    7.8990   14.2850 H   0  0  0  0  0  0  0  0  0  0  0  0
    4.2550    8.5930   12.6540 H   0  0  0  0  0  0  0  0  0  0  0  0
  1  2  1  0  0  0  0
  2  7  1  0  0  0  0
  3  4  1  0  0  0  0
  3  2  2  0  0  0  0
  4  5  2  0  0  0  0
  5  8  1  0  0  0  0
  5  6  1  0  0  0  0
  6 29  1  0  0  0  0
  7  6  2  0  0  0  0
  7 30  1  0  0  0  0
  8 12  1  0  0  0  0
  9  8  1  0  0  0  0
  9 10  2  0  0  0  0
 10 11  1  0  0  0  0
 11 18  1  0  0  0  0
 12 11  2  0  0  0  0
 12 13  1  0  0  0  0
 13 17  1  0  0  0  0
 14 13  1  0  0  0  0
 14 15  2  0  0  0  0
 15 16  1  0  0  0  0
 16 34  1  0  0  0  0
 17 16  2  0  0  0  0
 17 35  1  0  0  0  0
 18 20  1  0  0  0  0
 19 18  2  0  0  0  0
 20 21  1  0  0  0  0
 21 36  1  0  0  0  0
 21 22  1  0  0  0  0
 21 37  1  0  0  0  0
 22 39  1  0  0  0  0
 23 40  1  0  0  0  0
 23 22  1  0  0  0  0
 24 23  1  0  0  0  0
 25 24  2  0  0  0  0
 26 20  1  0  0  0  0
 26 24  1  0  0  0  0
 26 41  1  0  0  0  0
 27  3  1  0  0  0  0
 28  4  1  0  0  0  0
 31 10  1  0  0  0  0
 32 14  1  0  0  0  0
 33 15  1  0  0  0  0
 38 22  1  0  0  0  0
 42 26  1  0  0  0  0
M  END
>  <Pose>
1

>  <Score>
-6.00

$$$$
