
 OpenBabel03172210413D

 47 50  0  0  1  0  0  0  0  0999 V2000
    2.9360    9.7860   14.5580 B   0  0  0  0  0  0  0  0  0  0  0  0
    4.6820    9.3080   13.9330 C   0  0  0  0  0  0  0  0  0  0  0  0
    5.6280   10.2700   13.6500 C   0  0  0  0  0  0  0  0  0  0  0  0
    6.8970    9.9420   13.1970 C   0  0  0  0  0  0  0  0  0  0  0  0
    7.2570    8.6240   13.0130 C   0  0  0  0  0  0  0  0  0  0  0  0
    6.3040    7.6660   13.2980 C   0  0  0  0  0  0  0  0  0  0  0  0
    5.0410    7.9890   13.7490 C   0  0  0  0  0  0  0  0  0  0  0  0
    8.5670    8.2940   12.5440 N   0  0  0  0  0  0  0  0  0  0  0  0
    9.6690    9.0200   12.6210 N   0  0  0  0  0  0  0  0  0  0  0  0
   10.7000    8.3920   12.0810 N   0  0  0  0  0  0  0  0  0  0  0  0
   10.2780    7.1850   11.6170 C   0  0  0  0  0  0  0  0  0  0  0  0
    8.9300    7.1560   11.9270 C   0  0  0  0  0  0  0  0  0  0  0  0
    8.2500    6.0590   11.5760 N   0  0  0  0  0  0  0  0  0  0  0  0
    8.8630    5.0380   10.9520 C   0  0  0  0  0  0  0  0  0  0  0  0
   10.1800    5.0580   10.6470 N   0  0  0  0  0  0  0  0  0  0  0  0
   10.8990    6.1370   10.9800 C   0  0  0  0  0  0  0  0  0  0  0  0
   12.1170    6.1580   10.6990 O   0  0  0  0  0  0  0  0  0  0  0  0
   10.7520    3.9060    9.9740 C   0  0  0  0  0  0  0  0  0  0  0  0
   11.6700    3.1610   10.9080 C   0  0  0  0  0  0  0  0  0  0  0  0
   11.3670    3.0130   12.1220 O   0  0  0  0  0  0  0  0  0  0  0  0
   12.8900    2.6150   10.4430 N   0  0  0  0  0  0  0  0  0  0  0  0
   14.1370    2.8800   11.1200 C   0  0  0  0  0  0  0  0  0  0  0  0
   15.1610    3.2050   10.0460 C   0  0  2  0  0  0  0  0  0  0  0  0
   15.2760    2.2330    9.0850 O   0  0  0  0  0  0  0  0  0  0  0  0
   14.3240    1.2460    9.1440 C   0  0  1  0  0  0  0  0  0  0  0  0
   12.9100    1.7740    9.2690 C   0  0  0  0  0  0  0  0  0  0  0  0
   14.4000    0.2730    8.0040 C   0  0  0  0  0  0  0  0  0  0  0  0
   16.5130    3.2920   10.7610 C   0  0  0  0  0  0  0  0  0  0  0  0
    5.3550   11.3000   13.7920 H   0  0  0  0  0  0  0  0  0  0  0  0
    7.6310   10.7020   12.9770 H   0  0  0  0  0  0  0  0  0  0  0  0
    6.5570    6.6280   13.1630 H   0  0  0  0  0  0  0  0  0  0  0  0
    4.2900    7.2300   13.9740 H   0  0  0  0  0  0  0  0  0  0  0  0
    8.2770    4.1510   10.6790 H   0  0  0  0  0  0  0  0  0  0  0  0
    9.9690    3.1950    9.6480 H   0  0  0  0  0  0  0  0  0  0  0  0
   11.3920    4.2280    9.1270 H   0  0  0  0  0  0  0  0  0  0  0  0
   14.4690    2.0200   11.7390 H   0  0  0  0  0  0  0  0  0  0  0  0
   13.9810    3.7540   11.7720 H   0  0  0  0  0  0  0  0  0  0  0  0
   14.9140    4.2140    9.6430 H   0  0  0  0  0  0  0  0  0  0  0  0
   14.5070    0.6560   10.0890 H   0  0  0  0  0  0  0  0  0  0  0  0
   12.2400    0.9000    9.3640 H   0  0  0  0  0  0  0  0  0  0  0  0
   12.6090    2.3920    8.4060 H   0  0  0  0  0  0  0  0  0  0  0  0
   14.1070   -0.7390    8.3560 H   0  0  0  0  0  0  0  0  0  0  0  0
   13.6990    0.5350    7.1730 H   0  0  0  0  0  0  0  0  0  0  0  0
   15.4480    0.1790    7.6250 H   0  0  0  0  0  0  0  0  0  0  0  0
   16.3110    3.7330   11.7540 H   0  0  0  0  0  0  0  0  0  0  0  0
   16.9630    2.3050   10.9050 H   0  0  0  0  0  0  0  0  0  0  0  0
   17.1900    4.0000   10.2140 H   0  0  0  0  0  0  0  0  0  0  0  0
  2  1  1  0  0  0  0
  3 29  1  0  0  0  0
  3  2  2  0  0  0  0
  4  3  1  0  0  0  0
  5  4  2  0  0  0  0
  5  6  1  0  0  0  0
  6  7  2  0  0  0  0
  7  2  1  0  0  0  0
  7 32  1  0  0  0  0
  8  9  1  0  0  0  0
  8  5  1  0  0  0  0
 10  9  2  0  0  0  0
 11 12  2  0  0  0  0
 11 10  1  0  0  0  0
 12  8  1  0  0  0  0
 13 12  1  0  0  0  0
 14 13  2  0  0  0  0
 15 14  1  0  0  0  0
 15 16  1  0  0  0  0
 16 11  1  0  0  0  0
 17 16  2  0  0  0  0
 18 15  1  0  0  0  0
 18 19  1  0  0  0  0
 19 20  2  0  0  0  0
 21 19  1  0  0  0  0
 21 22  1  0  0  0  0
 22 36  1  0  0  0  0
 22 37  1  0  0  0  0
 23 38  1  6  0  0  0
 23 28  1  0  0  0  0
 23 22  1  0  0  0  0
 24 25  1  0  0  0  0
 24 23  1  0  0  0  0
 25 26  1  0  0  0  0
 25 39  1  1  0  0  0
 26 40  1  0  0  0  0
 26 21  1  0  0  0  0
 27 42  1  0  0  0  0
 27 25  1  0  0  0  0
 28 46  1  0  0  0  0
 28 45  1  0  0  0  0
 30  4  1  0  0  0  0
 31  6  1  0  0  0  0
 33 14  1  0  0  0  0
 34 18  1  0  0  0  0
 35 18  1  0  0  0  0
 41 26  1  0  0  0  0
 43 27  1  0  0  0  0
 44 27  1  0  0  0  0
 47 28  1  0  0  0  0
M  END
>  <Pose>
1

>  <Score>
-6.06

$$$$
