
 OpenBabel03172210413D

 56 59  0  0  1  0  0  0  0  0999 V2000
   12.0580   -0.2070    8.7920 B   0  0  0  0  0  0  0  0  0  0  0  0
   11.7940    1.4430    9.7220 C   0  0  0  0  0  0  0  0  0  0  0  0
   10.5400    1.9580    9.9570 C   0  0  0  0  0  0  0  0  0  0  0  0
   10.3560    3.1680   10.6380 C   0  0  0  0  0  0  0  0  0  0  0  0
   11.4290    3.8840   11.0970 C   0  0  0  0  0  0  0  0  0  0  0  0
   12.6790    3.3600   10.8550 C   0  0  0  0  0  0  0  0  0  0  0  0
   12.8740    2.1640   10.1830 C   0  0  0  0  0  0  0  0  0  0  0  0
   11.2200    5.1180   11.7890 N   0  0  0  0  0  0  0  0  0  0  0  0
   11.0490    6.4120   11.2020 C   0  0  0  0  0  0  0  0  0  0  0  0
   11.4710    6.8110   10.0890 O   0  0  0  0  0  0  0  0  0  0  0  0
   10.2620    7.2380   12.1530 C   0  0  2  0  0  0  0  0  0  0  0  0
   10.2450    6.4890   13.4670 C   0  0  0  0  0  0  0  0  0  0  0  0
   11.1400    5.3330   13.1930 C   0  0  0  0  0  0  0  0  0  0  0  0
   11.7530    4.6270   14.0690 O   0  0  0  0  0  0  0  0  0  0  0  0
    8.9870    7.4930   11.6180 N   0  0  2  0  0  0  0  0  0  0  0  0
    8.4120    8.7670   11.7770 C   0  0  0  0  0  0  0  0  0  0  0  0
    6.9790    8.7290   11.2280 C   0  0  0  0  0  0  0  0  0  0  0  0
    6.0910    7.8470   12.0780 C   0  0  1  0  0  0  0  0  0  0  0  0
    6.8310    6.6320   12.4710 C   0  0  0  0  0  0  0  0  0  0  0  0
    8.0640    6.4220   11.6280 C   0  0  0  0  0  0  0  0  0  0  0  0
    5.5540    8.6260   13.1160 N   0  0  0  0  0  0  0  0  0  0  0  0
    4.6660    8.0280   14.0210 C   0  0  0  0  0  0  0  0  0  0  0  0
    3.3820    8.8760   14.0100 C   0  0  0  0  0  0  0  0  0  0  0  0
    3.7770   10.2250   14.5760 C   0  0  0  0  0  0  0  0  0  0  0  0
    5.2510   10.4590   14.5810 C   0  0  0  0  0  0  0  0  0  0  0  0
    5.9430    9.9370   13.3130 C   0  0  0  0  0  0  0  0  0  0  0  0
    4.9560    7.4390   11.1780 C   0  0  0  0  0  0  0  0  0  0  0  0
    5.1760    6.6700   10.1930 O   0  0  0  0  0  0  0  0  0  0  0  0
    3.6240    7.8750   11.3740 N   0  0  0  0  0  0  0  0  0  0  0  0
    9.7060    1.3920    9.5930 H   0  0  0  0  0  0  0  0  0  0  0  0
    9.3370    3.5090   10.7830 H   0  0  0  0  0  0  0  0  0  0  0  0
   13.5420    3.9000   11.2020 H   0  0  0  0  0  0  0  0  0  0  0  0
   13.8760    1.7670   10.0040 H   0  0  0  0  0  0  0  0  0  0  0  0
   10.8720    8.1670   12.3250 H   0  0  0  0  0  0  0  0  0  0  0  0
    9.2500    6.0620   13.7120 H   0  0  0  0  0  0  0  0  0  0  0  0
   10.6940    7.0670   14.2830 H   0  0  0  0  0  0  0  0  0  0  0  0
    8.3520    9.0240   12.8640 H   0  0  0  0  0  0  0  0  0  0  0  0
    8.9050    9.5900   11.1990 H   0  0  0  0  0  0  0  0  0  0  0  0
    7.0780    8.2010   10.2420 H   0  0  0  0  0  0  0  0  0  0  0  0
    6.5930    9.7350   11.0760 H   0  0  0  0  0  0  0  0  0  0  0  0
    6.1780    5.7330   12.2500 H   0  0  0  0  0  0  0  0  0  0  0  0
    7.0310    6.5320   13.5540 H   0  0  0  0  0  0  0  0  0  0  0  0
    8.5420    5.4280   11.8740 H   0  0  0  0  0  0  0  0  0  0  0  0
    7.7440    6.2690   10.5500 H   0  0  0  0  0  0  0  0  0  0  0  0
    4.4140    7.0090   13.7220 H   0  0  0  0  0  0  0  0  0  0  0  0
    5.0860    8.0930   15.0470 H   0  0  0  0  0  0  0  0  0  0  0  0
    3.0380    9.0340   12.9560 H   0  0  0  0  0  0  0  0  0  0  0  0
    2.6060    8.3690   14.6040 H   0  0  0  0  0  0  0  0  0  0  0  0
    3.2030   11.0530   14.1100 H   0  0  0  0  0  0  0  0  0  0  0  0
    3.4290   10.2100   15.6470 H   0  0  0  0  0  0  0  0  0  0  0  0
    5.4220   11.5700   14.5860 H   0  0  0  0  0  0  0  0  0  0  0  0
    5.7680   10.0450   15.4830 H   0  0  0  0  0  0  0  0  0  0  0  0
    7.0100   10.1550   13.4410 H   0  0  0  0  0  0  0  0  0  0  0  0
    5.5900   10.5890   12.4810 H   0  0  0  0  0  0  0  0  0  0  0  0
    3.0370    7.4170   12.0810 H   0  0  0  0  0  0  0  0  0  0  0  0
    3.2300    8.6550   10.8140 H   0  0  0  0  0  0  0  0  0  0  0  0
  1  2  1  0  0  0  0
  2  3  2  0  0  0  0
  2  7  1  0  0  0  0
  3  4  1  0  0  0  0
  4 31  1  0  0  0  0
  4  5  2  0  0  0  0
  5  8  1  0  0  0  0
  6  5  1  0  0  0  0
  6 32  1  0  0  0  0
  7  6  2  0  0  0  0
  8 13  1  0  0  0  0
  9  8  1  0  0  0  0
  9 11  1  0  0  0  0
 10  9  2  0  0  0  0
 11 34  1  1  0  0  0
 11 12  1  0  0  0  0
 12 35  1  0  0  0  0
 12 36  1  0  0  0  0
 13 12  1  0  0  0  0
 13 14  2  0  0  0  0
 15 20  1  1  0  0  0
 15 16  1  0  0  0  0
 15 11  1  0  0  0  0
 16 37  1  0  0  0  0
 17 16  1  0  0  0  0
 17 18  1  0  0  0  0
 18 27  1  6  0  0  0
 18 19  1  0  0  0  0
 18 21  1  0  0  0  0
 19 42  1  0  0  0  0
 20 43  1  0  0  0  0
 20 19  1  0  0  0  0
 21 26  1  0  0  0  0
 21 22  1  0  0  0  0
 22 46  1  0  0  0  0
 23 22  1  0  0  0  0
 23 24  1  0  0  0  0
 23 48  1  0  0  0  0
 24 25  1  0  0  0  0
 24 50  1  0  0  0  0
 25 51  1  0  0  0  0
 25 52  1  0  0  0  0
 26 53  1  0  0  0  0
 26 25  1  0  0  0  0
 27 29  1  0  0  0  0
 28 27  2  0  0  0  0
 29 55  1  0  0  0  0
 30  3  1  0  0  0  0
 33  7  1  0  0  0  0
 38 16  1  0  0  0  0
 39 17  1  0  0  0  0
 40 17  1  0  0  0  0
 41 19  1  0  0  0  0
 44 20  1  0  0  0  0
 45 22  1  0  0  0  0
 47 23  1  0  0  0  0
 49 24  1  0  0  0  0
 54 26  1  0  0  0  0
 56 29  1  0  0  0  0
M  END
>  <Pose>
1

>  <Score>
-5.47

$$$$
