
 OpenBabel03172210413D

 49 52  0  0  0  0  0  0  0  0999 V2000
   15.3140    7.4770   12.8110 B   0  0  0  0  0  0  0  0  0  0  0  0
   13.4020    7.3780   12.5840 C   0  0  0  0  0  0  0  0  0  0  0  0
   12.8480    6.9920   11.3870 C   0  0  0  0  0  0  0  0  0  0  0  0
   11.4550    6.9230   11.2240 C   0  0  0  0  0  0  0  0  0  0  0  0
   10.6140    7.2420   12.2620 C   0  0  0  0  0  0  0  0  0  0  0  0
   11.1940    7.6250   13.4520 C   0  0  0  0  0  0  0  0  0  0  0  0
   12.5570    7.6960   13.6220 C   0  0  0  0  0  0  0  0  0  0  0  0
    9.1940    7.1760   12.1020 N   0  0  0  0  0  0  0  0  0  0  0  0
    8.2560    8.0820   12.3890 C   0  0  0  0  0  0  0  0  0  0  0  0
    8.5000    9.2280   12.8930 O   0  0  0  0  0  0  0  0  0  0  0  0
    6.9800    7.6620   12.0910 C   0  0  0  0  0  0  0  0  0  0  0  0
    7.1520    6.4240   11.5900 C   0  0  0  0  0  0  0  0  0  0  0  0
    5.9060    5.9860   11.2860 N   0  0  0  0  0  0  0  0  0  0  0  0
    5.0140    6.9120   11.5860 N   0  0  0  0  0  0  0  0  0  0  0  0
    5.6680    7.9440   12.0800 N   0  0  0  0  0  0  0  0  0  0  0  0
    5.0550    9.1620   12.5240 C   0  0  0  0  0  0  0  0  0  0  0  0
    4.2970    9.0230   13.7650 C   0  0  0  0  0  0  0  0  0  0  0  0
    3.6860    9.9920   14.3020 O   0  0  0  0  0  0  0  0  0  0  0  0
    4.2560    7.7530   14.3830 N   0  0  0  0  0  0  0  0  0  0  0  0
    4.7260    7.6230   15.7150 C   0  0  0  0  0  0  0  0  0  0  0  0
    6.0290    7.2190   15.8700 C   0  0  0  0  0  0  0  0  0  0  0  0
    6.5590    7.0370   17.1520 C   0  0  0  0  0  0  0  0  0  0  0  0
    5.7740    7.2620   18.2530 C   0  0  0  0  0  0  0  0  0  0  0  0
    4.4500    7.6720   18.1120 C   0  0  0  0  0  0  0  0  0  0  0  0
    3.9560    7.8440   16.8280 C   0  0  0  0  0  0  0  0  0  0  0  0
    3.7200    7.8740   19.2630 O   0  0  0  0  0  0  0  0  0  0  0  0
    3.9180    7.2690   20.5030 C   0  0  0  0  0  0  0  0  0  0  0  0
    7.8730    6.6350   17.1890 O   0  0  0  0  0  0  0  0  0  0  0  0
    8.6730    6.4710   16.0760 C   0  0  0  0  0  0  0  0  0  0  0  0
    8.4930    6.1170   11.5910 C   0  0  0  0  0  0  0  0  0  0  0  0
    9.0530    5.0630   11.2050 O   0  0  0  0  0  0  0  0  0  0  0  0
   13.5020    6.7400   10.5700 H   0  0  0  0  0  0  0  0  0  0  0  0
   11.0440    6.6210   10.2710 H   0  0  0  0  0  0  0  0  0  0  0  0
   10.5040    7.8740   14.2600 H   0  0  0  0  0  0  0  0  0  0  0  0
   13.0010    7.9980   14.5670 H   0  0  0  0  0  0  0  0  0  0  0  0
    5.7080    5.0430   10.8770 H   0  0  0  0  0  0  0  0  0  0  0  0
    3.9780    6.7830   11.4340 H   0  0  0  0  0  0  0  0  0  0  0  0
    5.8080    9.9830   12.6620 H   0  0  0  0  0  0  0  0  0  0  0  0
    4.3490    9.5810   11.7500 H   0  0  0  0  0  0  0  0  0  0  0  0
    3.8810    6.9050   13.8560 H   0  0  0  0  0  0  0  0  0  0  0  0
    6.6520    7.0400   14.9840 H   0  0  0  0  0  0  0  0  0  0  0  0
    6.2070    7.1160   19.2330 H   0  0  0  0  0  0  0  0  0  0  0  0
    2.9270    8.1670   16.7130 H   0  0  0  0  0  0  0  0  0  0  0  0
    2.9420    7.1510   21.0290 H   0  0  0  0  0  0  0  0  0  0  0  0
    4.5250    7.9280   21.1920 H   0  0  0  0  0  0  0  0  0  0  0  0
    4.4010    6.2760   20.4550 H   0  0  0  0  0  0  0  0  0  0  0  0
    9.7090    6.8230   16.2970 H   0  0  0  0  0  0  0  0  0  0  0  0
    8.3190    6.9940   15.1910 H   0  0  0  0  0  0  0  0  0  0  0  0
    8.7700    5.3590   15.8880 H   0  0  0  0  0  0  0  0  0  0  0  0
  2  1  1  0  0  0  0
  2  7  1  0  0  0  0
  3  2  2  0  0  0  0
  4  3  1  0  0  0  0
  4  5  2  0  0  0  0
  5  6  1  0  0  0  0
  6  7  2  0  0  0  0
  6 34  1  0  0  0  0
  7 35  1  0  0  0  0
  8  5  1  0  0  0  0
  8  9  1  0  0  0  0
  9 10  2  0  0  0  0
 11  9  1  0  0  0  0
 12 30  1  0  0  0  0
 12 11  2  0  0  0  0
 13 14  1  0  0  0  0
 13 12  1  0  0  0  0
 14 15  1  0  0  0  0
 15 11  1  0  0  0  0
 15 16  1  0  0  0  0
 16 38  1  0  0  0  0
 16 17  1  0  0  0  0
 17 18  2  0  0  0  0
 17 19  1  0  0  0  0
 19 20  1  0  0  0  0
 20 21  2  0  0  0  0
 20 25  1  0  0  0  0
 21 22  1  0  0  0  0
 22 28  1  0  0  0  0
 22 23  2  0  0  0  0
 23 42  1  0  0  0  0
 24 23  1  0  0  0  0
 24 26  1  0  0  0  0
 25 24  2  0  0  0  0
 26 27  1  0  0  0  0
 27 44  1  0  0  0  0
 27 45  1  0  0  0  0
 29 47  1  0  0  0  0
 29 28  1  0  0  0  0
 30  8  1  0  0  0  0
 31 30  2  0  0  0  0
 32  3  1  0  0  0  0
 33  4  1  0  0  0  0
 36 13  1  0  0  0  0
 37 14  1  0  0  0  0
 39 16  1  0  0  0  0
 40 19  1  0  0  0  0
 41 21  1  0  0  0  0
 43 25  1  0  0  0  0
 46 27  1  0  0  0  0
 48 29  1  0  0  0  0
 49 29  1  0  0  0  0
M  END
>  <Pose>
1

>  <Score>
-6.72

$$$$
