
 OpenBabel03172210413D

 50 53  0  0  0  0  0  0  0  0999 V2000
    1.4720    8.6600   16.7570 B   0  0  0  0  0  0  0  0  0  0  0  0
    3.2900    8.2550   16.3720 C   0  0  0  0  0  0  0  0  0  0  0  0
    3.7300    6.9870   16.0570 C   0  0  0  0  0  0  0  0  0  0  0  0
    5.0380    6.7290   15.7870 C   0  0  0  0  0  0  0  0  0  0  0  0
    5.9890    7.7380   15.8180 C   0  0  0  0  0  0  0  0  0  0  0  0
    5.5650    9.0040   16.1300 C   0  0  0  0  0  0  0  0  0  0  0  0
    4.2450    9.2480   16.3990 C   0  0  0  0  0  0  0  0  0  0  0  0
    7.3500    7.4300   15.5290 N   0  0  0  0  0  0  0  0  0  0  0  0
    7.9870    7.8260   14.3980 C   0  0  0  0  0  0  0  0  0  0  0  0
    7.4830    8.5110   13.4540 O   0  0  0  0  0  0  0  0  0  0  0  0
    9.2940    7.3690   14.4170 C   0  0  0  0  0  0  0  0  0  0  0  0
    9.4220    6.7030   15.5630 C   0  0  0  0  0  0  0  0  0  0  0  0
   10.6960    6.2430   15.6060 N   0  0  0  0  0  0  0  0  0  0  0  0
   11.3020    6.6420   14.4920 N   0  0  0  0  0  0  0  0  0  0  0  0
   10.4710    7.3350   13.7370 N   0  0  0  0  0  0  0  0  0  0  0  0
   10.7040    7.9610   12.4400 C   0  0  0  0  0  0  0  0  0  0  0  0
   10.1280    7.0810   11.3580 C   0  0  0  0  0  0  0  0  0  0  0  0
    9.8640    7.7180   10.3090 O   0  0  0  0  0  0  0  0  0  0  0  0
    9.9460    5.7190   11.5930 N   0  0  0  0  0  0  0  0  0  0  0  0
   10.8520    4.6690   11.3020 C   0  0  0  0  0  0  0  0  0  0  0  0
   11.3600    3.7830   12.2210 C   0  0  0  0  0  0  0  0  0  0  0  0
   12.2550    2.7690   11.8530 C   0  0  0  0  0  0  0  0  0  0  0  0
   12.6650    2.6160   10.5500 C   0  0  0  0  0  0  0  0  0  0  0  0
   12.1630    3.4960    9.6220 C   0  0  0  0  0  0  0  0  0  0  0  0
   11.2810    4.4950    9.9880 C   0  0  0  0  0  0  0  0  0  0  0  0
   13.5980    1.5460   10.2130 C   0  0  0  0  0  0  0  0  0  0  0  0
   14.8260    1.7570   10.3770 O   0  0  0  0  0  0  0  0  0  0  0  0
   13.2280    0.3230    9.7270 O   0  0  0  0  0  0  0  0  0  0  0  0
   12.8540    0.0330    8.4110 C   0  0  0  0  0  0  0  0  0  0  0  0
   11.4630   -0.6130    8.4860 C   0  0  0  0  0  0  0  0  0  0  0  0
    8.2350    6.7330   16.2550 C   0  0  0  0  0  0  0  0  0  0  0  0
    7.9960    6.2110   17.3660 O   0  0  0  0  0  0  0  0  0  0  0  0
    2.9860    6.1990   16.0320 H   0  0  0  0  0  0  0  0  0  0  0  0
    5.3490    5.7020   15.5390 H   0  0  0  0  0  0  0  0  0  0  0  0
    6.2800    9.8150   16.1620 H   0  0  0  0  0  0  0  0  0  0  0  0
    3.8920   10.2560   16.6500 H   0  0  0  0  0  0  0  0  0  0  0  0
   11.1110    5.6830   16.3780 H   0  0  0  0  0  0  0  0  0  0  0  0
   12.2870    6.4330   14.2560 H   0  0  0  0  0  0  0  0  0  0  0  0
   10.2800    8.9810   12.3960 H   0  0  0  0  0  0  0  0  0  0  0  0
   11.8050    8.0570   12.3320 H   0  0  0  0  0  0  0  0  0  0  0  0
    9.0140    5.4500   12.0430 H   0  0  0  0  0  0  0  0  0  0  0  0
   11.0590    3.8790   13.2430 H   0  0  0  0  0  0  0  0  0  0  0  0
   12.6370    2.0840   12.6130 H   0  0  0  0  0  0  0  0  0  0  0  0
   12.4950    3.3640    8.5910 H   0  0  0  0  0  0  0  0  0  0  0  0
   10.9000    5.1810    9.2180 H   0  0  0  0  0  0  0  0  0  0  0  0
   12.7480    0.9270    7.7660 H   0  0  0  0  0  0  0  0  0  0  0  0
   13.5290   -0.6720    7.8910 H   0  0  0  0  0  0  0  0  0  0  0  0
   10.7230    0.1910    8.7670 H   0  0  0  0  0  0  0  0  0  0  0  0
   11.4170   -1.3690    9.2880 H   0  0  0  0  0  0  0  0  0  0  0  0
   11.1750   -1.0860    7.5450 H   0  0  0  0  0  0  0  0  0  0  0  0
  2  7  1  0  0  0  0
  2  1  1  0  0  0  0
  3  2  2  0  0  0  0
  4  5  2  0  0  0  0
  4  3  1  0  0  0  0
  5  6  1  0  0  0  0
  6 35  1  0  0  0  0
  6  7  2  0  0  0  0
  7 36  1  0  0  0  0
  8  5  1  0  0  0  0
  8 31  1  0  0  0  0
  9 11  1  0  0  0  0
  9  8  1  0  0  0  0
 10  9  2  0  0  0  0
 11 12  2  0  0  0  0
 12 13  1  0  0  0  0
 12 31  1  0  0  0  0
 13 37  1  0  0  0  0
 14 13  1  0  0  0  0
 15 11  1  0  0  0  0
 15 14  1  0  0  0  0
 16 15  1  0  0  0  0
 17 19  1  0  0  0  0
 17 16  1  0  0  0  0
 18 17  2  0  0  0  0
 19 41  1  0  0  0  0
 20 19  1  0  0  0  0
 20 21  1  0  0  0  0
 21 42  1  0  0  0  0
 22 21  2  0  0  0  0
 22 43  1  0  0  0  0
 23 22  1  0  0  0  0
 24 25  1  0  0  0  0
 24 23  2  0  0  0  0
 25 20  2  0  0  0  0
 26 27  2  0  0  0  0
 26 23  1  0  0  0  0
 28 26  1  0  0  0  0
 29 30  1  0  0  0  0
 29 28  1  0  0  0  0
 30 48  1  0  0  0  0
 30 49  1  0  0  0  0
 31 32  2  0  0  0  0
 33  3  1  0  0  0  0
 34  4  1  0  0  0  0
 38 14  1  0  0  0  0
 39 16  1  0  0  0  0
 40 16  1  0  0  0  0
 44 24  1  0  0  0  0
 45 25  1  0  0  0  0
 46 29  1  0  0  0  0
 47 29  1  0  0  0  0
 50 30  1  0  0  0  0
M  END
>  <Pose>
1

>  <Score>
-6.86

$$$$
