
 OpenBabel03172210413D

 48 51  0  0  0  0  0  0  0  0999 V2000
    2.7250    9.4110   15.2060 B   0  0  0  0  0  0  0  0  0  0  0  0
    4.3850    8.5830   14.7580 C   0  0  0  0  0  0  0  0  0  0  0  0
    5.1950    7.9990   15.7080 C   0  0  0  0  0  0  0  0  0  0  0  0
    6.3960    7.3980   15.3650 C   0  0  0  0  0  0  0  0  0  0  0  0
    6.8430    7.3530   14.0600 C   0  0  0  0  0  0  0  0  0  0  0  0
    6.0330    7.9390   13.1040 C   0  0  0  0  0  0  0  0  0  0  0  0
    4.8380    8.5370   13.4450 C   0  0  0  0  0  0  0  0  0  0  0  0
    8.0680    6.7420   13.6650 N   0  0  0  0  0  0  0  0  0  0  0  0
    8.3110    6.0090   12.5420 C   0  0  0  0  0  0  0  0  0  0  0  0
    7.4470    5.7690   11.6660 O   0  0  0  0  0  0  0  0  0  0  0  0
    9.6200    5.5770   12.5110 C   0  0  0  0  0  0  0  0  0  0  0  0
   10.1820    6.0450   13.6160 C   0  0  0  0  0  0  0  0  0  0  0  0
   11.4640    5.6360   13.6130 N   0  0  0  0  0  0  0  0  0  0  0  0
   11.6660    4.9280   12.5120 N   0  0  0  0  0  0  0  0  0  0  0  0
   10.5500    4.8710   11.8090 N   0  0  0  0  0  0  0  0  0  0  0  0
   10.3200    4.2000   10.5630 C   0  0  0  0  0  0  0  0  0  0  0  0
   11.5690    4.0420    9.7270 C   0  0  0  0  0  0  0  0  0  0  0  0
   11.7450    4.9130    8.8490 O   0  0  0  0  0  0  0  0  0  0  0  0
   12.4630    2.9930    9.9310 N   0  0  0  0  0  0  0  0  0  0  0  0
   13.8610    3.0110   10.0780 C   0  0  0  0  0  0  0  0  0  0  0  0
   14.6600    2.2220    9.2510 C   0  0  0  0  0  0  0  0  0  0  0  0
   16.0240    2.1950    9.3720 C   0  0  0  0  0  0  0  0  0  0  0  0
   16.6600    2.9680   10.3440 C   0  0  0  0  0  0  0  0  0  0  0  0
   15.8460    3.7340   11.1410 C   0  0  0  0  0  0  0  0  0  0  0  0
   14.4760    3.7670   11.0240 C   0  0  0  0  0  0  0  0  0  0  0  0
   18.0320    2.9080   10.4330 O   0  0  0  0  0  0  0  0  0  0  0  0
   18.8150    3.2880   11.5170 C   0  0  0  0  0  0  0  0  0  0  0  0
   20.2810    3.2930   11.2480 C   0  0  0  0  0  0  0  0  0  0  0  0
    9.2370    6.7560   14.3200 C   0  0  0  0  0  0  0  0  0  0  0  0
    9.4070    7.3520   15.4300 O   0  0  0  0  0  0  0  0  0  0  0  0
    4.8440    8.0330   16.7380 H   0  0  0  0  0  0  0  0  0  0  0  0
    7.0280    6.9420   16.1100 H   0  0  0  0  0  0  0  0  0  0  0  0
    6.3880    7.9020   12.0790 H   0  0  0  0  0  0  0  0  0  0  0  0
    4.2240    8.9860   12.6810 H   0  0  0  0  0  0  0  0  0  0  0  0
   12.1920    5.8250   14.3230 H   0  0  0  0  0  0  0  0  0  0  0  0
   12.5910    4.4800   12.2440 H   0  0  0  0  0  0  0  0  0  0  0  0
    9.9180    3.1680   10.7490 H   0  0  0  0  0  0  0  0  0  0  0  0
    9.5960    4.7500    9.9030 H   0  0  0  0  0  0  0  0  0  0  0  0
   12.0160    2.0120    9.9820 H   0  0  0  0  0  0  0  0  0  0  0  0
   14.1930    1.6180    8.4950 H   0  0  0  0  0  0  0  0  0  0  0  0
   16.6240    1.5630    8.7040 H   0  0  0  0  0  0  0  0  0  0  0  0
   16.2920    4.3470   11.9060 H   0  0  0  0  0  0  0  0  0  0  0  0
   13.8840    4.4070   11.6920 H   0  0  0  0  0  0  0  0  0  0  0  0
   18.5280    4.3480   11.7930 H   0  0  0  0  0  0  0  0  0  0  0  0
   18.6160    2.6630   12.4140 H   0  0  0  0  0  0  0  0  0  0  0  0
   20.7600    4.2920   11.2690 H   0  0  0  0  0  0  0  0  0  0  0  0
   20.8210    2.6950   12.0180 H   0  0  0  0  0  0  0  0  0  0  0  0
   20.5640    2.8210   10.2700 H   0  0  0  0  0  0  0  0  0  0  0  0
  2  1  1  0  0  0  0
  2  3  1  0  0  0  0
  3 31  1  0  0  0  0
  4  3  2  0  0  0  0
  4 32  1  0  0  0  0
  5  4  1  0  0  0  0
  6  7  1  0  0  0  0
  6  5  2  0  0  0  0
  7  2  2  0  0  0  0
  8  5  1  0  0  0  0
  8 29  1  0  0  0  0
  9  8  1  0  0  0  0
 10  9  2  0  0  0  0
 11  9  1  0  0  0  0
 11 12  2  0  0  0  0
 12 29  1  0  0  0  0
 13 12  1  0  0  0  0
 13 35  1  0  0  0  0
 14 13  1  0  0  0  0
 15 11  1  0  0  0  0
 15 14  1  0  0  0  0
 16 37  1  0  0  0  0
 16 15  1  0  0  0  0
 17 19  1  0  0  0  0
 17 16  1  0  0  0  0
 18 17  2  0  0  0  0
 19 39  1  0  0  0  0
 19 20  1  0  0  0  0
 20 25  1  0  0  0  0
 21 22  1  0  0  0  0
 21 20  2  0  0  0  0
 22 23  2  0  0  0  0
 23 26  1  0  0  0  0
 23 24  1  0  0  0  0
 24 42  1  0  0  0  0
 25 24  2  0  0  0  0
 25 43  1  0  0  0  0
 26 27  1  0  0  0  0
 27 44  1  0  0  0  0
 27 45  1  0  0  0  0
 28 46  1  0  0  0  0
 28 27  1  0  0  0  0
 28 47  1  0  0  0  0
 29 30  2  0  0  0  0
 33  6  1  0  0  0  0
 34  7  1  0  0  0  0
 36 14  1  0  0  0  0
 38 16  1  0  0  0  0
 40 21  1  0  0  0  0
 41 22  1  0  0  0  0
 48 28  1  0  0  0  0
M  END
>  <Pose>
1

>  <Score>
-6.68

$$$$
