
 OpenBabel03172210413D

 38 42  0  0  1  0  0  0  0  0999 V2000
    6.4930    8.4890   13.5670 B   0  0  0  0  0  0  0  0  0  0  0  0
    7.8850    7.4960   12.7460 C   0  0  0  0  0  0  0  0  0  0  0  0
    7.6100    6.2620   12.2080 C   0  0  0  0  0  0  0  0  0  0  0  0
    8.6390    5.5640   11.6170 C   0  0  0  0  0  0  0  0  0  0  0  0
    9.9220    6.0610   11.5530 C   0  0  0  0  0  0  0  0  0  0  0  0
   10.2010    7.3080   12.0960 C   0  0  0  0  0  0  0  0  0  0  0  0
    9.1550    8.0140   12.6930 C   0  0  0  0  0  0  0  0  0  0  0  0
   10.9840    5.3250   10.9340 N   0  0  0  0  0  0  0  0  0  0  0  0
   10.8230    4.6250    9.7100 C   0  0  0  0  0  0  0  0  0  0  0  0
    9.8990    4.8440    8.8900 O   0  0  0  0  0  0  0  0  0  0  0  0
   11.9110    3.6190    9.5780 C   0  0  2  0  0  0  0  0  0  0  0  0
   11.4950    2.2680   10.0710 C   0  0  1  0  0  0  0  0  0  0  0  0
   12.7320    1.7780   10.5460 O   0  0  0  0  0  0  0  0  0  0  0  0
   12.9610    2.7960   11.5060 C   0  0  1  0  0  0  0  0  0  0  0  0
   12.9320    4.0120   10.6460 C   0  0  2  0  0  0  0  0  0  0  0  0
   12.3270    5.1530   11.3850 C   0  0  0  0  0  0  0  0  0  0  0  0
   12.9090    5.8250   12.2410 O   0  0  0  0  0  0  0  0  0  0  0  0
   11.6790    2.7160   12.2530 C   0  0  0  0  0  0  0  0  0  0  0  0
   10.7580    2.4480   11.3320 C   0  0  0  0  0  0  0  0  0  0  0  0
   10.8770    1.3880    9.0710 C   0  0  0  0  0  0  0  0  0  0  0  0
   10.1000    0.3970    9.6050 O   0  0  0  0  0  0  0  0  0  0  0  0
   10.7240   -0.8090    9.4040 C   0  0  0  0  0  0  0  0  0  0  0  0
   11.9910   -0.5130    8.6730 C   0  0  0  0  0  0  0  0  0  0  0  0
   11.8210    0.8000    8.2490 O   0  0  0  0  0  0  0  0  0  0  0  0
    6.6090    5.8210   12.2330 H   0  0  0  0  0  0  0  0  0  0  0  0
    8.4530    4.5720   11.1770 H   0  0  0  0  0  0  0  0  0  0  0  0
   11.2080    7.6850   12.0380 H   0  0  0  0  0  0  0  0  0  0  0  0
    9.3720    8.9840   13.1160 H   0  0  0  0  0  0  0  0  0  0  0  0
   12.3200    3.6230    8.5690 H   0  0  0  0  0  0  0  0  0  0  0  0
   13.8480    2.6380   12.0940 H   0  0  0  0  0  0  0  0  0  0  0  0
   13.8880    4.2840   10.1980 H   0  0  0  0  0  0  0  0  0  0  0  0
   11.5990    2.8600   13.3230 H   0  0  0  0  0  0  0  0  0  0  0  0
    9.7020    2.3980   11.5760 H   0  0  0  0  0  0  0  0  0  0  0  0
   10.2310    2.0260    8.4100 H   0  0  0  0  0  0  0  0  0  0  0  0
   10.1140   -1.5310    8.8270 H   0  0  0  0  0  0  0  0  0  0  0  0
   10.9910   -1.2250   10.4100 H   0  0  0  0  0  0  0  0  0  0  0  0
   12.1130   -1.2060    7.7890 H   0  0  0  0  0  0  0  0  0  0  0  0
   12.9010   -0.5680    9.3220 H   0  0  0  0  0  0  0  0  0  0  0  0
  2  1  1  0  0  0  0
  3 25  1  0  0  0  0
  3  2  2  0  0  0  0
  4  3  1  0  0  0  0
  5  4  2  0  0  0  0
  5  6  1  0  0  0  0
  6  7  2  0  0  0  0
  7  2  1  0  0  0  0
  7 28  1  0  0  0  0
  8 16  1  0  0  0  0
  8  5  1  0  0  0  0
  9  8  1  0  0  0  0
 10  9  2  0  0  0  0
 11 29  1  6  0  0  0
 11  9  1  0  0  0  0
 11 12  1  0  0  0  0
 11 15  1  0  0  0  0
 12 20  1  6  0  0  0
 12 13  1  0  0  0  0
 12 19  1  0  0  0  0
 13 14  1  0  0  0  0
 14 30  1  1  0  0  0
 14 18  1  0  0  0  0
 15 31  1  6  0  0  0
 15 16  1  0  0  0  0
 15 14  1  0  0  0  0
 16 17  2  0  0  0  0
 18 32  1  0  0  0  0
 19 33  1  0  0  0  0
 19 18  2  0  0  0  0
 20 21  1  0  0  0  0
 22 21  1  0  0  0  0
 22 36  1  0  0  0  0
 23 38  1  0  0  0  0
 23 22  1  0  0  0  0
 24 23  1  0  0  0  0
 24 20  1  0  0  0  0
 26  4  1  0  0  0  0
 27  6  1  0  0  0  0
 34 20  1  0  0  0  0
 35 22  1  0  0  0  0
 37 23  1  0  0  0  0
M  END
>  <Pose>
1

>  <Score>
-4.55

$$$$
