
 OpenBabel03172210413D

 50 53  0  0  0  0  0  0  0  0999 V2000
   20.3390    3.2050   11.6250 B   0  0  0  0  0  0  0  0  0  0  0  0
   18.8280    4.3280   11.9720 C   0  0  0  0  0  0  0  0  0  0  0  0
   17.8690    4.5480   10.9970 C   0  0  0  0  0  0  0  0  0  0  0  0
   16.7820    5.3590   11.2570 C   0  0  0  0  0  0  0  0  0  0  0  0
   16.6060    5.9780   12.4790 C   0  0  0  0  0  0  0  0  0  0  0  0
   17.5520    5.7690   13.4600 C   0  0  0  0  0  0  0  0  0  0  0  0
   18.6320    4.9550   13.1840 C   0  0  0  0  0  0  0  0  0  0  0  0
   15.4890    6.7930   12.6950 N   0  0  0  0  0  0  0  0  0  0  0  0
   15.6590    8.2050   12.8290 C   0  0  0  0  0  0  0  0  0  0  0  0
   16.8430    8.6640   12.7430 O   0  0  0  0  0  0  0  0  0  0  0  0
   14.5300    9.0310   13.0500 N   0  0  0  0  0  0  0  0  0  0  0  0
   13.1970    8.5390   13.1510 C   0  0  0  0  0  0  0  0  0  0  0  0
   12.2100    9.3010   13.3480 O   0  0  0  0  0  0  0  0  0  0  0  0
   12.9850    7.0870   13.0170 C   0  0  0  0  0  0  0  0  0  0  0  0
   11.7690    6.5690   13.1020 C   0  0  0  0  0  0  0  0  0  0  0  0
   11.5970    5.1650   12.9690 N   0  0  0  0  0  0  0  0  0  0  0  0
   10.7820    4.5430   12.0380 N   0  0  0  0  0  0  0  0  0  0  0  0
   11.1850    3.4650   11.2030 C   0  0  0  0  0  0  0  0  0  0  0  0
   10.3610    2.5670   10.6520 N   0  0  0  0  0  0  0  0  0  0  0  0
   11.0730    1.6920    9.9230 C   0  0  0  0  0  0  0  0  0  0  0  0
   12.4080    2.0620   10.0250 C   0  0  0  0  0  0  0  0  0  0  0  0
   12.4170    3.1380   10.8100 N   0  0  0  0  0  0  0  0  0  0  0  0
   13.3810    1.3740    9.4010 N   0  0  0  0  0  0  0  0  0  0  0  0
   13.0500    0.3110    8.6680 C   0  0  0  0  0  0  0  0  0  0  0  0
   13.9370   -0.3660    8.0630 O   0  0  0  0  0  0  0  0  0  0  0  0
   11.7630   -0.1060    8.5250 N   0  0  0  0  0  0  0  0  0  0  0  0
   10.7910    0.5930    9.1570 C   0  0  0  0  0  0  0  0  0  0  0  0
    9.6090    0.2130    9.0300 O   0  0  0  0  0  0  0  0  0  0  0  0
   11.4560   -1.2610    7.7200 C   0  0  0  0  0  0  0  0  0  0  0  0
   14.7350    1.8150    9.5550 C   0  0  0  0  0  0  0  0  0  0  0  0
    8.9020    2.4630   10.7580 C   0  0  0  0  0  0  0  0  0  0  0  0
   14.1670    6.2640   12.7900 C   0  0  0  0  0  0  0  0  0  0  0  0
   14.0360    5.0190   12.6690 O   0  0  0  0  0  0  0  0  0  0  0  0
   18.0280    4.0530   10.0490 H   0  0  0  0  0  0  0  0  0  0  0  0
   16.0750    5.4780   10.4290 H   0  0  0  0  0  0  0  0  0  0  0  0
   17.4680    6.2330   14.4550 H   0  0  0  0  0  0  0  0  0  0  0  0
   19.3510    4.8160   13.9780 H   0  0  0  0  0  0  0  0  0  0  0  0
   14.6980   10.0600   13.1420 H   0  0  0  0  0  0  0  0  0  0  0  0
   10.9050    7.1730   13.2700 H   0  0  0  0  0  0  0  0  0  0  0  0
   12.1490    4.5750   13.6490 H   0  0  0  0  0  0  0  0  0  0  0  0
    9.7950    4.9310   11.9790 H   0  0  0  0  0  0  0  0  0  0  0  0
   12.3650   -1.5550    7.1550 H   0  0  0  0  0  0  0  0  0  0  0  0
   10.6850   -1.0290    6.9510 H   0  0  0  0  0  0  0  0  0  0  0  0
   11.1040   -2.0850    8.3650 H   0  0  0  0  0  0  0  0  0  0  0  0
   15.2870    1.2530   10.3340 H   0  0  0  0  0  0  0  0  0  0  0  0
   15.2400    1.7340    8.5690 H   0  0  0  0  0  0  0  0  0  0  0  0
   14.7620    2.8880    9.8390 H   0  0  0  0  0  0  0  0  0  0  0  0
    8.4610    2.9710    9.8530 H   0  0  0  0  0  0  0  0  0  0  0  0
    8.5650    1.4260   10.7340 H   0  0  0  0  0  0  0  0  0  0  0  0
    8.5550    3.0340   11.6410 H   0  0  0  0  0  0  0  0  0  0  0  0
  1  2  1  0  0  0  0
  2  7  1  0  0  0  0
  3  4  1  0  0  0  0
  3  2  2  0  0  0  0
  4  5  2  0  0  0  0
  5  8  1  0  0  0  0
  5  6  1  0  0  0  0
  6 36  1  0  0  0  0
  7  6  2  0  0  0  0
  7 37  1  0  0  0  0
  8 32  1  0  0  0  0
  8  9  1  0  0  0  0
  9 11  1  0  0  0  0
 10  9  2  0  0  0  0
 11 38  1  0  0  0  0
 11 12  1  0  0  0  0
 12 13  2  0  0  0  0
 14 15  2  0  0  0  0
 14 12  1  0  0  0  0
 15 39  1  0  0  0  0
 16 15  1  0  0  0  0
 16 40  1  0  0  0  0
 17 16  1  0  0  0  0
 18 17  1  0  0  0  0
 19 31  1  0  0  0  0
 19 18  1  0  0  0  0
 20 21  2  0  0  0  0
 20 19  1  0  0  0  0
 21 22  1  0  0  0  0
 22 18  2  0  0  0  0
 23 30  1  0  0  0  0
 23 21  1  0  0  0  0
 24 23  1  0  0  0  0
 25 24  2  0  0  0  0
 26 24  1  0  0  0  0
 26 27  1  0  0  0  0
 27 20  1  0  0  0  0
 28 27  2  0  0  0  0
 29 44  1  0  0  0  0
 29 26  1  0  0  0  0
 30 47  1  0  0  0  0
 30 45  1  0  0  0  0
 31 50  1  0  0  0  0
 32 14  1  0  0  0  0
 33 32  2  0  0  0  0
 34  3  1  0  0  0  0
 35  4  1  0  0  0  0
 41 17  1  0  0  0  0
 42 29  1  0  0  0  0
 43 29  1  0  0  0  0
 46 30  1  0  0  0  0
 48 31  1  0  0  0  0
 49 31  1  0  0  0  0
M  END
>  <Pose>
1

>  <Score>
-7.12

$$$$
