
 OpenBabel03172210413D

 44 47  0  0  0  0  0  0  0  0999 V2000
   12.3050   -0.7340    8.3290 B   0  0  0  0  0  0  0  0  0  0  0  0
   11.8910    0.8310    9.2970 C   0  0  0  0  0  0  0  0  0  0  0  0
   10.5920    1.2280    9.5340 C   0  0  0  0  0  0  0  0  0  0  0  0
   10.3110    2.3910   10.2540 C   0  0  0  0  0  0  0  0  0  0  0  0
   11.3420    3.1610   10.7400 C   0  0  0  0  0  0  0  0  0  0  0  0
   12.6250    2.7340   10.4840 C   0  0  0  0  0  0  0  0  0  0  0  0
   12.9300    1.6000    9.7820 C   0  0  0  0  0  0  0  0  0  0  0  0
   11.1600    4.3540   11.4760 N   0  0  0  0  0  0  0  0  0  0  0  0
   12.2990    4.9550   12.1420 C   0  0  0  0  0  0  0  0  0  0  0  0
   11.9340    6.1830   12.9420 C   0  0  0  0  0  0  0  0  0  0  0  0
   10.6520    5.8440   13.7170 C   0  0  0  0  0  0  0  0  0  0  0  0
    9.6210    5.7690   12.7150 N   0  0  0  0  0  0  0  0  0  0  0  0
    9.9090    5.0160   11.6100 C   0  0  0  0  0  0  0  0  0  0  0  0
    8.8510    5.0540   10.7830 N   0  0  0  0  0  0  0  0  0  0  0  0
    7.9160    5.8300   11.3870 C   0  0  0  0  0  0  0  0  0  0  0  0
    8.3930    6.2850   12.6060 C   0  0  0  0  0  0  0  0  0  0  0  0
    7.6160    7.0980   13.4080 C   0  0  0  0  0  0  0  0  0  0  0  0
    8.0920    7.4950   14.5240 O   0  0  0  0  0  0  0  0  0  0  0  0
    6.3850    7.4470   12.9960 N   0  0  0  0  0  0  0  0  0  0  0  0
    5.9470    6.9920   11.8090 C   0  0  0  0  0  0  0  0  0  0  0  0
    4.7870    7.3430   11.4610 O   0  0  0  0  0  0  0  0  0  0  0  0
    6.6790    6.2070   11.0190 N   0  0  0  0  0  0  0  0  0  0  0  0
    6.1730    5.7320    9.7390 C   0  0  0  0  0  0  0  0  0  0  0  0
    5.5600    8.3010   13.8320 C   0  0  0  0  0  0  0  0  0  0  0  0
    5.1030    7.5070   15.0200 C   0  0  0  0  0  0  0  0  0  0  0  0
    4.6730    8.0850   16.0460 O   0  0  0  0  0  0  0  0  0  0  0  0
    5.1410    6.0940   15.0200 N   0  0  0  0  0  0  0  0  0  0  0  0
    9.7620    0.6370    9.1610 H   0  0  0  0  0  0  0  0  0  0  0  0
    9.2790    2.6630   10.4180 H   0  0  0  0  0  0  0  0  0  0  0  0
   13.4850    3.3150   10.8520 H   0  0  0  0  0  0  0  0  0  0  0  0
   13.9580    1.3150    9.6130 H   0  0  0  0  0  0  0  0  0  0  0  0
   12.7150    4.2150   12.8870 H   0  0  0  0  0  0  0  0  0  0  0  0
   13.1280    5.1700   11.4290 H   0  0  0  0  0  0  0  0  0  0  0  0
   11.7250    7.0420   12.2460 H   0  0  0  0  0  0  0  0  0  0  0  0
   12.7240    6.4160   13.6510 H   0  0  0  0  0  0  0  0  0  0  0  0
   10.4460    6.5680   14.5060 H   0  0  0  0  0  0  0  0  0  0  0  0
   10.8220    4.8000   14.1040 H   0  0  0  0  0  0  0  0  0  0  0  0
    6.9780    5.3620    9.1070 H   0  0  0  0  0  0  0  0  0  0  0  0
    5.3380    5.0300    9.8970 H   0  0  0  0  0  0  0  0  0  0  0  0
    5.7250    6.6410    9.2450 H   0  0  0  0  0  0  0  0  0  0  0  0
    4.6940    8.6770   13.2650 H   0  0  0  0  0  0  0  0  0  0  0  0
    6.1750    9.1370   14.1950 H   0  0  0  0  0  0  0  0  0  0  0  0
    5.4730    5.5380   15.8400 H   0  0  0  0  0  0  0  0  0  0  0  0
    4.8320    5.5400   14.1830 H   0  0  0  0  0  0  0  0  0  0  0  0
  1  2  1  0  0  0  0
  2  3  2  0  0  0  0
  2  7  1  0  0  0  0
  3  4  1  0  0  0  0
  4 29  1  0  0  0  0
  4  5  2  0  0  0  0
  5  8  1  0  0  0  0
  6  5  1  0  0  0  0
  6 30  1  0  0  0  0
  7  6  2  0  0  0  0
  8 13  1  0  0  0  0
  8  9  1  0  0  0  0
  9 32  1  0  0  0  0
  9 10  1  0  0  0  0
 10 35  1  0  0  0  0
 10 11  1  0  0  0  0
 11 37  1  0  0  0  0
 11 36  1  0  0  0  0
 12 11  1  0  0  0  0
 13 12  1  0  0  0  0
 14 15  1  0  0  0  0
 14 13  2  0  0  0  0
 15 16  2  0  0  0  0
 16 12  1  0  0  0  0
 16 17  1  0  0  0  0
 17 18  2  0  0  0  0
 19 17  1  0  0  0  0
 19 24  1  0  0  0  0
 20 19  1  0  0  0  0
 21 20  2  0  0  0  0
 22 15  1  0  0  0  0
 22 20  1  0  0  0  0
 23 39  1  0  0  0  0
 23 22  1  0  0  0  0
 24 42  1  0  0  0  0
 24 25  1  0  0  0  0
 25 27  1  0  0  0  0
 25 26  2  0  0  0  0
 27 43  1  0  0  0  0
 28  3  1  0  0  0  0
 31  7  1  0  0  0  0
 33  9  1  0  0  0  0
 34 10  1  0  0  0  0
 38 23  1  0  0  0  0
 40 23  1  0  0  0  0
 41 24  1  0  0  0  0
 44 27  1  0  0  0  0
M  END
>  <Pose>
1

>  <Score>
-6.17

$$$$
