
 OpenBabel03172210413D

 49 52  0  0  1  0  0  0  0  0999 V2000
   14.8010    1.2580    8.7920 B   0  0  0  0  0  0  0  0  0  0  0  0
   13.2790    2.1460    9.5560 C   0  0  0  0  0  0  0  0  0  0  0  0
   12.0290    1.5810    9.4370 C   0  0  0  0  0  0  0  0  0  0  0  0
   10.9220    2.2280    9.9930 C   0  0  0  0  0  0  0  0  0  0  0  0
   11.0610    3.4230   10.6600 C   0  0  0  0  0  0  0  0  0  0  0  0
   12.3160    3.9690   10.7680 C   0  0  0  0  0  0  0  0  0  0  0  0
   13.4150    3.3440   10.2260 C   0  0  0  0  0  0  0  0  0  0  0  0
    9.9640    4.0520   11.2050 O   0  0  0  0  0  0  0  0  0  0  0  0
    9.9040    5.4490   11.2180 C   0  0  0  0  0  0  0  0  0  0  0  0
    8.8290    5.9780   12.0770 C   0  0  0  0  0  0  0  0  0  0  0  0
    9.1120    6.6440   13.0880 O   0  0  0  0  0  0  0  0  0  0  0  0
    7.4820    5.7250   11.7450 N   0  0  0  0  0  0  0  0  0  0  0  0
    6.4460    6.6840   11.9460 C   0  0  0  0  0  0  0  0  0  0  0  0
    6.2170    7.2200   13.1590 N   0  0  0  0  0  0  0  0  0  0  0  0
    5.2490    8.1100   13.3080 C   0  0  0  0  0  0  0  0  0  0  0  0
    4.8360    8.7750   14.3950 N   0  0  0  0  0  0  0  0  0  0  0  0
    3.8140    9.5570   13.9780 C   0  0  0  0  0  0  0  0  0  0  0  0
    3.6020    9.3800   12.6710 N   0  0  0  0  0  0  0  0  0  0  0  0
    4.4740    8.4840   12.2030 C   0  0  0  0  0  0  0  0  0  0  0  0
    4.7040    7.9370   10.9550 C   0  0  0  0  0  0  0  0  0  0  0  0
    5.6930    7.0440   10.8650 N   0  0  0  0  0  0  0  0  0  0  0  0
    3.9060    8.3440    9.8960 O   0  0  0  0  0  0  0  0  0  0  0  0
    5.2890    8.7470   15.7330 C   0  0  2  0  0  0  0  0  0  0  0  0
    6.5210    9.3980   15.8810 O   0  0  0  0  0  0  0  0  0  0  0  0
    7.4270    8.3410   15.8680 C   0  0  2  0  0  0  0  0  0  0  0  0
    6.8000    7.4340   16.9160 C   0  0  1  0  0  0  0  0  0  0  0  0
    5.3620    7.4420   16.4050 C   0  0  1  0  0  0  0  0  0  0  0  0
    4.4650    7.3540   17.4930 O   0  0  0  0  0  0  0  0  0  0  0  0
    7.3540    6.1850   16.9630 O   0  0  0  0  0  0  0  0  0  0  0  0
    8.8160    8.7690   16.2460 C   0  0  0  0  0  0  0  0  0  0  0  0
    9.7590    7.7890   16.0950 O   0  0  0  0  0  0  0  0  0  0  0  0
   11.9290    0.6470    8.9150 H   0  0  0  0  0  0  0  0  0  0  0  0
    9.9780    1.7270    9.8600 H   0  0  0  0  0  0  0  0  0  0  0  0
   12.5070    4.9160   11.2820 H   0  0  0  0  0  0  0  0  0  0  0  0
   14.4150    3.7560   10.2980 H   0  0  0  0  0  0  0  0  0  0  0  0
    9.6660    5.7820   10.1700 H   0  0  0  0  0  0  0  0  0  0  0  0
   10.8810    5.9200   11.4510 H   0  0  0  0  0  0  0  0  0  0  0  0
    7.1990    4.7920   11.3290 H   0  0  0  0  0  0  0  0  0  0  0  0
    3.2220   10.2480   14.5960 H   0  0  0  0  0  0  0  0  0  0  0  0
    3.1840    9.0360   10.1250 H   0  0  0  0  0  0  0  0  0  0  0  0
    4.5860    9.3940   16.3440 H   0  0  0  0  0  0  0  0  0  0  0  0
    7.4040    7.7700   14.9200 H   0  0  0  0  0  0  0  0  0  0  0  0
    6.8000    7.9380   17.9060 H   0  0  0  0  0  0  0  0  0  0  0  0
    5.2130    6.5540   15.8160 H   0  0  0  0  0  0  0  0  0  0  0  0
    4.5140    6.4130   17.7980 H   0  0  0  0  0  0  0  0  0  0  0  0
    6.8970    5.5710   17.6230 H   0  0  0  0  0  0  0  0  0  0  0  0
    8.7590    9.1990   17.2660 H   0  0  0  0  0  0  0  0  0  0  0  0
    9.0820    9.6230   15.5740 H   0  0  0  0  0  0  0  0  0  0  0  0
   10.5210    8.1620   15.5800 H   0  0  0  0  0  0  0  0  0  0  0  0
  1  2  1  0  0  0  0
  2  7  1  0  0  0  0
  3  2  2  0  0  0  0
  3  4  1  0  0  0  0
  4  5  2  0  0  0  0
  5  6  1  0  0  0  0
  5  8  1  0  0  0  0
  6 34  1  0  0  0  0
  7 35  1  0  0  0  0
  7  6  2  0  0  0  0
  8  9  1  0  0  0  0
  9 37  1  0  0  0  0
  9 10  1  0  0  0  0
 10 11  2  0  0  0  0
 12 13  1  0  0  0  0
 12 10  1  0  0  0  0
 13 14  2  0  0  0  0
 14 15  1  0  0  0  0
 15 16  1  0  0  0  0
 16 23  1  0  0  0  0
 17 16  1  0  0  0  0
 17 39  1  0  0  0  0
 18 17  2  0  0  0  0
 19 18  1  0  0  0  0
 19 15  2  0  0  0  0
 20 19  1  0  0  0  0
 21 20  2  0  0  0  0
 21 13  1  0  0  0  0
 22 40  1  0  0  0  0
 22 20  1  0  0  0  0
 23 24  1  0  0  0  0
 23 41  1  1  0  0  0
 23 27  1  0  0  0  0
 25 42  1  6  0  0  0
 25 24  1  0  0  0  0
 25 30  1  0  0  0  0
 25 26  1  0  0  0  0
 26 29  1  0  0  0  0
 26 43  1  1  0  0  0
 27 44  1  6  0  0  0
 27 26  1  0  0  0  0
 27 28  1  0  0  0  0
 28 45  1  0  0  0  0
 29 46  1  0  0  0  0
 30 47  1  0  0  0  0
 31 30  1  0  0  0  0
 32  3  1  0  0  0  0
 33  4  1  0  0  0  0
 36  9  1  0  0  0  0
 38 12  1  0  0  0  0
 48 30  1  0  0  0  0
 49 31  1  0  0  0  0
M  END
>  <Pose>
1

>  <Score>
-8.74

$$$$
