
 OpenBabel03172210413D

 56 59  0  0  1  0  0  0  0  0999 V2000
   23.4080    1.7920   13.9460 B   0  0  0  0  0  0  0  0  0  0  0  0
   21.8000    2.4230   13.1560 C   0  0  0  0  0  0  0  0  0  0  0  0
   21.8620    3.0660   11.9490 C   0  0  0  0  0  0  0  0  0  0  0  0
   20.6990    3.5250   11.3720 C   0  0  0  0  0  0  0  0  0  0  0  0
   19.4640    3.3600   11.9680 C   0  0  0  0  0  0  0  0  0  0  0  0
   19.4330    2.6940   13.2140 C   0  0  0  0  0  0  0  0  0  0  0  0
   20.5800    2.2440   13.7770 C   0  0  0  0  0  0  0  0  0  0  0  0
   18.3260    3.7740   11.4650 O   0  0  0  0  0  0  0  0  0  0  0  0
   17.4620    4.0590   10.5150 C   0  0  0  0  0  0  0  0  0  0  0  0
   16.0610    3.5900   10.7510 C   0  0  1  0  0  0  0  0  0  0  0  0
   15.7450    3.8680   12.0890 O   0  0  0  0  0  0  0  0  0  0  0  0
   15.0100    4.0910    9.8050 C   0  0  0  0  0  0  0  0  0  0  0  0
   13.8580    3.2300    9.6410 N   0  0  0  0  0  0  0  0  0  0  0  0
   13.8480    2.0250    9.0260 C   0  0  0  0  0  0  0  0  0  0  0  0
   12.5560    1.5520    9.0190 C   0  0  0  0  0  0  0  0  0  0  0  0
   11.8430    2.4790    9.6260 N   0  0  0  0  0  0  0  0  0  0  0  0
   12.6120    3.5380   10.0320 C   0  0  0  0  0  0  0  0  0  0  0  0
   12.0980    4.6560   10.7820 N   0  0  0  0  0  0  0  0  0  0  0  0
   11.1770    5.5130   10.0030 C   0  0  0  0  0  0  0  0  0  0  0  0
   10.4040    6.4770   10.8090 C   0  0  0  0  0  0  0  0  0  0  0  0
   11.1320    6.9940   11.9410 N   0  0  0  0  0  0  0  0  0  0  0  0
   11.3920    5.8760   12.7900 C   0  0  0  0  0  0  0  0  0  0  0  0
   12.3820    4.9030   12.1510 C   0  0  0  0  0  0  0  0  0  0  0  0
   12.2770    7.7540   11.5590 C   0  0  0  0  0  0  0  0  0  0  0  0
   12.1830    0.3570    8.4760 N   0  0  0  0  0  0  0  0  0  0  0  0
   13.1400   -0.3900    7.9220 C   0  0  0  0  0  0  0  0  0  0  0  0
   12.8140   -1.4970    7.4150 O   0  0  0  0  0  0  0  0  0  0  0  0
   14.4080    0.0440    7.9150 N   0  0  0  0  0  0  0  0  0  0  0  0
   14.8070    1.2230    8.4450 C   0  0  0  0  0  0  0  0  0  0  0  0
   15.9880    1.5980    8.4250 O   0  0  0  0  0  0  0  0  0  0  0  0
   10.7790   -0.0550    8.5100 C   0  0  0  0  0  0  0  0  0  0  0  0
   22.8210    3.2070   11.4510 H   0  0  0  0  0  0  0  0  0  0  0  0
   20.8080    4.0310   10.4310 H   0  0  0  0  0  0  0  0  0  0  0  0
   18.4750    2.5620   13.6880 H   0  0  0  0  0  0  0  0  0  0  0  0
   20.5280    1.7240   14.7430 H   0  0  0  0  0  0  0  0  0  0  0  0
   17.4190    5.1900   10.2520 H   0  0  0  0  0  0  0  0  0  0  0  0
   17.7440    3.5910    9.4880 H   0  0  0  0  0  0  0  0  0  0  0  0
   16.0600    2.4610   10.6010 H   0  0  0  0  0  0  0  0  0  0  0  0
   16.0780    3.1080   12.6660 H   0  0  0  0  0  0  0  0  0  0  0  0
   15.4370    4.4700    8.8610 H   0  0  0  0  0  0  0  0  0  0  0  0
   14.6410    5.0520   10.2970 H   0  0  0  0  0  0  0  0  0  0  0  0
   11.7490    5.9710    9.1630 H   0  0  0  0  0  0  0  0  0  0  0  0
   10.4440    4.8180    9.4980 H   0  0  0  0  0  0  0  0  0  0  0  0
   10.0210    7.2630   10.1470 H   0  0  0  0  0  0  0  0  0  0  0  0
    9.5120    5.9430   11.2520 H   0  0  0  0  0  0  0  0  0  0  0  0
   11.8330    6.2310   13.7560 H   0  0  0  0  0  0  0  0  0  0  0  0
   10.4560    5.3730   13.0310 H   0  0  0  0  0  0  0  0  0  0  0  0
   12.1520    3.9350   12.6990 H   0  0  0  0  0  0  0  0  0  0  0  0
   13.3610    5.3210   12.4020 H   0  0  0  0  0  0  0  0  0  0  0  0
   12.0450    8.8470   11.7090 H   0  0  0  0  0  0  0  0  0  0  0  0
   13.2050    7.5180   12.1080 H   0  0  0  0  0  0  0  0  0  0  0  0
   12.5340    7.6790   10.4710 H   0  0  0  0  0  0  0  0  0  0  0  0
   15.1270   -0.5670    7.4740 H   0  0  0  0  0  0  0  0  0  0  0  0
   10.5630   -0.8280    7.7690 H   0  0  0  0  0  0  0  0  0  0  0  0
   10.1830    0.8360    8.2150 H   0  0  0  0  0  0  0  0  0  0  0  0
   10.5000   -0.4130    9.5140 H   0  0  0  0  0  0  0  0  0  0  0  0
  2  7  1  0  0  0  0
  2  1  1  0  0  0  0
  3  2  2  0  0  0  0
  4  3  1  0  0  0  0
  4  5  2  0  0  0  0
  5  6  1  0  0  0  0
  6 34  1  0  0  0  0
  6  7  2  0  0  0  0
  7 35  1  0  0  0  0
  8  5  1  0  0  0  0
  9 10  1  0  0  0  0
  9  8  1  0  0  0  0
 10 38  1  6  0  0  0
 10 11  1  0  0  0  0
 11 39  1  0  0  0  0
 12 41  1  0  0  0  0
 12 10  1  0  0  0  0
 13 12  1  0  0  0  0
 13 17  1  0  0  0  0
 14 13  1  0  0  0  0
 15 14  2  0  0  0  0
 15 16  1  0  0  0  0
 16 17  2  0  0  0  0
 17 18  1  0  0  0  0
 18 23  1  0  0  0  0
 19 18  1  0  0  0  0
 19 20  1  0  0  0  0
 20 45  1  0  0  0  0
 20 21  1  0  0  0  0
 21 22  1  0  0  0  0
 22 47  1  0  0  0  0
 22 46  1  0  0  0  0
 23 49  1  0  0  0  0
 23 48  1  0  0  0  0
 23 22  1  0  0  0  0
 24 50  1  0  0  0  0
 24 21  1  0  0  0  0
 24 51  1  0  0  0  0
 25 31  1  0  0  0  0
 25 15  1  0  0  0  0
 26 25  1  0  0  0  0
 27 26  2  0  0  0  0
 28 26  1  0  0  0  0
 28 29  1  0  0  0  0
 29 14  1  0  0  0  0
 30 29  2  0  0  0  0
 31 56  1  0  0  0  0
 32  3  1  0  0  0  0
 33  4  1  0  0  0  0
 36  9  1  0  0  0  0
 37  9  1  0  0  0  0
 40 12  1  0  0  0  0
 42 19  1  0  0  0  0
 43 19  1  0  0  0  0
 44 20  1  0  0  0  0
 52 24  1  0  0  0  0
 53 28  1  0  0  0  0
 54 31  1  0  0  0  0
 55 31  1  0  0  0  0
M  END
>  <Pose>
1

>  <Score>
-6.96

$$$$
