
 OpenBabel03172210413D

 49 52  0  0  0  0  0  0  0  0999 V2000
    2.8930    9.5970   14.7520 B   0  0  0  0  0  0  0  0  0  0  0  0
    3.9660    8.9850   16.2080 C   0  0  0  0  0  0  0  0  0  0  0  0
    3.4560    8.0920   17.1230 C   0  0  0  0  0  0  0  0  0  0  0  0
    4.2150    7.6420   18.1750 C   0  0  0  0  0  0  0  0  0  0  0  0
    5.4940    8.1070   18.2860 C   0  0  0  0  0  0  0  0  0  0  0  0
    6.0080    9.0120   17.3580 C   0  0  0  0  0  0  0  0  0  0  0  0
    5.2660    9.4790   16.2930 C   0  0  0  0  0  0  0  0  0  0  0  0
    5.7960   10.4230   15.2770 C   0  0  0  0  0  0  0  0  0  0  0  0
    6.6100    9.7180   14.3060 N   0  0  0  0  0  0  0  0  0  0  0  0
    6.6250   10.4810   13.0310 C   0  0  0  0  0  0  0  0  0  0  0  0
    7.3110    9.5240   12.0620 C   0  0  0  0  0  0  0  0  0  0  0  0
    7.9230    8.4110   12.6900 N   0  0  0  0  0  0  0  0  0  0  0  0
    8.7480    8.7790   13.8110 C   0  0  0  0  0  0  0  0  0  0  0  0
    8.0200    9.7450   14.6990 C   0  0  0  0  0  0  0  0  0  0  0  0
    7.1600    7.2300   12.8440 C   0  0  0  0  0  0  0  0  0  0  0  0
    6.7070    6.5890   11.6240 C   0  0  0  0  0  0  0  0  0  0  0  0
    5.7050    7.0090   11.0070 O   0  0  0  0  0  0  0  0  0  0  0  0
    7.3900    5.4700   11.0940 N   0  0  0  0  0  0  0  0  0  0  0  0
    8.8110    5.2400   11.3210 C   0  0  0  0  0  0  0  0  0  0  0  0
    9.7500    6.3700   11.3940 C   0  0  0  0  0  0  0  0  0  0  0  0
    9.7080    5.5670   10.1300 C   0  0  0  0  0  0  0  0  0  0  0  0
    6.2770    7.6650   19.3410 O   0  0  0  0  0  0  0  0  0  0  0  0
    5.7660    6.9740   20.4520 C   0  0  0  0  0  0  0  0  0  0  0  0
    4.5710    6.1540   20.0840 C   0  0  0  0  0  0  0  0  0  0  0  0
    3.7370    6.7410   19.1170 O   0  0  0  0  0  0  0  0  0  0  0  0
    2.4370    7.7070   17.0520 H   0  0  0  0  0  0  0  0  0  0  0  0
    7.0140    9.3100   17.5160 H   0  0  0  0  0  0  0  0  0  0  0  0
    6.3450   11.2630   15.7190 H   0  0  0  0  0  0  0  0  0  0  0  0
    4.9160   10.8370   14.7250 H   0  0  0  0  0  0  0  0  0  0  0  0
    5.6270   10.7770   12.7180 H   0  0  0  0  0  0  0  0  0  0  0  0
    7.2450   11.3800   13.2250 H   0  0  0  0  0  0  0  0  0  0  0  0
    8.1300   10.1300   11.5730 H   0  0  0  0  0  0  0  0  0  0  0  0
    6.6380    9.2510   11.2250 H   0  0  0  0  0  0  0  0  0  0  0  0
    9.7180    9.1920   13.4420 H   0  0  0  0  0  0  0  0  0  0  0  0
    9.0540    7.8530   14.3810 H   0  0  0  0  0  0  0  0  0  0  0  0
    8.2010    9.6570   15.7640 H   0  0  0  0  0  0  0  0  0  0  0  0
    8.4320   10.7690   14.4280 H   0  0  0  0  0  0  0  0  0  0  0  0
    7.7080    6.4870   13.4710 H   0  0  0  0  0  0  0  0  0  0  0  0
    6.2460    7.4750   13.4580 H   0  0  0  0  0  0  0  0  0  0  0  0
    6.9040    4.7350   10.5030 H   0  0  0  0  0  0  0  0  0  0  0  0
    9.0150    4.3280   11.8890 H   0  0  0  0  0  0  0  0  0  0  0  0
    9.4230    7.4320   11.2930 H   0  0  0  0  0  0  0  0  0  0  0  0
   10.6650    6.2550   12.0090 H   0  0  0  0  0  0  0  0  0  0  0  0
    9.2260    6.0350    9.2510 H   0  0  0  0  0  0  0  0  0  0  0  0
   10.4870    4.7970    9.9550 H   0  0  0  0  0  0  0  0  0  0  0  0
    5.5750    7.7000   21.2580 H   0  0  0  0  0  0  0  0  0  0  0  0
    6.5710    6.2530   20.7720 H   0  0  0  0  0  0  0  0  0  0  0  0
    4.9170    5.1540   19.7010 H   0  0  0  0  0  0  0  0  0  0  0  0
    3.9530    6.0260   21.0030 H   0  0  0  0  0  0  0  0  0  0  0  0
  1  2  1  0  0  0  0
  2  7  2  0  0  0  0
  2  3  1  0  0  0  0
  3  4  2  0  0  0  0
  4  5  1  0  0  0  0
  4 25  1  0  0  0  0
  5 22  1  0  0  0  0
  6 27  1  0  0  0  0
  6  5  2  0  0  0  0
  7  6  1  0  0  0  0
  8 28  1  0  0  0  0
  8  7  1  0  0  0  0
  9 14  1  0  0  0  0
  9  8  1  0  0  0  0
 10 31  1  0  0  0  0
 10  9  1  0  0  0  0
 11 12  1  0  0  0  0
 11 10  1  0  0  0  0
 12 15  1  0  0  0  0
 12 13  1  0  0  0  0
 13 35  1  0  0  0  0
 13 14  1  0  0  0  0
 14 36  1  0  0  0  0
 15 39  1  0  0  0  0
 15 38  1  0  0  0  0
 16 15  1  0  0  0  0
 17 16  2  0  0  0  0
 18 19  1  0  0  0  0
 18 16  1  0  0  0  0
 19 20  1  0  0  0  0
 19 41  1  0  0  0  0
 20 43  1  0  0  0  0
 21 19  1  0  0  0  0
 21 20  1  0  0  0  0
 22 23  1  0  0  0  0
 23 47  1  0  0  0  0
 23 46  1  0  0  0  0
 24 23  1  0  0  0  0
 24 49  1  0  0  0  0
 25 24  1  0  0  0  0
 26  3  1  0  0  0  0
 29  8  1  0  0  0  0
 30 10  1  0  0  0  0
 32 11  1  0  0  0  0
 33 11  1  0  0  0  0
 34 13  1  0  0  0  0
 37 14  1  0  0  0  0
 40 18  1  0  0  0  0
 42 20  1  0  0  0  0
 44 21  1  0  0  0  0
 45 21  1  0  0  0  0
 48 24  1  0  0  0  0
M  END
>  <Pose>
1

>  <Score>
-5.70

$$$$
