
 OpenBabel03172210413D

 44 47  0  0  1  0  0  0  0  0999 V2000
   20.8500    2.5420   12.5590 B   0  0  0  0  0  0  0  0  0  0  0  0
   19.6660    3.8310   13.2850 C   0  0  0  0  0  0  0  0  0  0  0  0
   19.8550    4.3010   14.5710 C   0  0  0  0  0  0  0  0  0  0  0  0
   19.0080    5.2490   15.1480 C   0  0  0  0  0  0  0  0  0  0  0  0
   17.9470    5.7220   14.3800 C   0  0  0  0  0  0  0  0  0  0  0  0
   17.7790    5.2380   13.0990 C   0  0  0  0  0  0  0  0  0  0  0  0
   18.6200    4.2920   12.5170 C   0  0  0  0  0  0  0  0  0  0  0  0
   18.3910    3.8170   11.1680 C   0  0  0  0  0  0  0  0  0  0  0  0
   17.4250    3.0510   10.8860 N   0  0  0  0  0  0  0  0  0  0  0  0
   17.0840    2.5190    9.6580 N   0  0  0  0  0  0  0  0  0  0  0  0
   15.7740    2.0920    9.3500 C   0  0  1  0  0  0  0  0  0  0  0  0
   14.7700    2.8460    9.8280 N   0  0  0  0  0  0  0  0  0  0  0  0
   13.4610    2.5700    9.5820 C   0  0  0  0  0  0  0  0  0  0  0  0
   13.2250    1.4950    8.8310 N   0  0  0  0  0  0  0  0  0  0  0  0
   14.1720    0.7080    8.3280 C   0  0  0  0  0  0  0  0  0  0  0  0
   15.4710    1.0290    8.6050 N   0  0  0  0  0  0  0  0  0  0  0  0
   13.8940   -0.4030    7.5500 O   0  0  0  0  0  0  0  0  0  0  0  0
   12.6070   -0.9610    7.5330 C   0  0  0  0  0  0  0  0  0  0  0  0
   12.4790    3.4000   10.1260 N   0  0  0  0  0  0  0  0  0  0  0  0
   12.0740    4.6180    9.4660 C   0  0  0  0  0  0  0  0  0  0  0  0
   10.7540    5.1210   10.0100 C   0  0  0  0  0  0  0  0  0  0  0  0
    9.8710    4.1650   10.3950 O   0  0  0  0  0  0  0  0  0  0  0  0
   10.3320    3.0430   11.0100 C   0  0  0  0  0  0  0  0  0  0  0  0
   11.8170    3.0650   11.3610 C   0  0  0  0  0  0  0  0  0  0  0  0
   17.2730    6.6310   15.1640 O   0  0  0  0  0  0  0  0  0  0  0  0
   17.7660    6.6240   16.4890 C   0  0  0  0  0  0  0  0  0  0  0  0
   18.9530    5.8830   16.3790 O   0  0  0  0  0  0  0  0  0  0  0  0
   20.6940    3.9240   15.1720 H   0  0  0  0  0  0  0  0  0  0  0  0
   16.9240    5.6470   12.5360 H   0  0  0  0  0  0  0  0  0  0  0  0
   19.0570    4.1190   10.3830 H   0  0  0  0  0  0  0  0  0  0  0  0
   17.8240    2.4290    8.9290 H   0  0  0  0  0  0  0  0  0  0  0  0
   12.6500   -1.9110    8.1310 H   0  0  0  0  0  0  0  0  0  0  0  0
   12.2970   -1.2760    6.5050 H   0  0  0  0  0  0  0  0  0  0  0  0
   11.8430   -0.2480    7.9060 H   0  0  0  0  0  0  0  0  0  0  0  0
   12.0660    4.5760    8.3700 H   0  0  0  0  0  0  0  0  0  0  0  0
   12.8400    5.4070    9.7460 H   0  0  0  0  0  0  0  0  0  0  0  0
   10.8920    5.8710   10.8420 H   0  0  0  0  0  0  0  0  0  0  0  0
   10.2820    5.7180    9.1740 H   0  0  0  0  0  0  0  0  0  0  0  0
    9.7070    2.7280   11.8800 H   0  0  0  0  0  0  0  0  0  0  0  0
   10.2410    2.2000   10.2620 H   0  0  0  0  0  0  0  0  0  0  0  0
   11.9970    3.9320   12.0470 H   0  0  0  0  0  0  0  0  0  0  0  0
   12.0870    2.1090   11.7990 H   0  0  0  0  0  0  0  0  0  0  0  0
   17.0490    6.2070   17.2250 H   0  0  0  0  0  0  0  0  0  0  0  0
   18.0210    7.6840   16.7300 H   0  0  0  0  0  0  0  0  0  0  0  0
  1  2  1  0  0  0  0
  2  3  1  0  0  0  0
  3  4  2  0  0  0  0
  3 28  1  0  0  0  0
  4 27  1  0  0  0  0
  5  4  1  0  0  0  0
  5 25  1  0  0  0  0
  6  5  2  0  0  0  0
  7  6  1  0  0  0  0
  7  2  2  0  0  0  0
  8  7  1  0  0  0  0
  9  8  2  0  0  0  0
 10  9  1  0  0  0  0
 11 10  1  6  0  0  0
 11 12  1  0  0  0  0
 13 12  2  0  0  0  0
 13 19  1  0  0  0  0
 14 13  1  0  0  0  0
 15 16  2  0  0  0  0
 15 14  2  0  0  0  0
 16 11  1  0  0  0  0
 17 15  1  0  0  0  0
 18 17  1  0  0  0  0
 18 34  1  0  0  0  0
 18 32  1  0  0  0  0
 19 24  1  0  0  0  0
 20 36  1  0  0  0  0
 20 21  1  0  0  0  0
 20 19  1  0  0  0  0
 21 22  1  0  0  0  0
 21 37  1  0  0  0  0
 22 23  1  0  0  0  0
 23 24  1  0  0  0  0
 23 39  1  0  0  0  0
 24 42  1  0  0  0  0
 24 41  1  0  0  0  0
 25 26  1  0  0  0  0
 26 44  1  0  0  0  0
 26 43  1  0  0  0  0
 27 26  1  0  0  0  0
 29  6  1  0  0  0  0
 30  8  1  0  0  0  0
 31 10  1  0  0  0  0
 33 18  1  0  0  0  0
 35 20  1  0  0  0  0
 38 21  1  0  0  0  0
 40 23  1  0  0  0  0
M  END
>  <Pose>
1

>  <Score>
-6.30

$$$$
