
 OpenBabel03172210413D

 44 47  0  0  0  0  0  0  0  0999 V2000
    4.3190    8.1910   10.8240 B   0  0  0  0  0  0  0  0  0  0  0  0
    4.9840    7.8970   12.5800 C   0  0  0  0  0  0  0  0  0  0  0  0
    6.1830    7.2120   12.8080 C   0  0  0  0  0  0  0  0  0  0  0  0
    6.6700    6.9960   14.0800 C   0  0  0  0  0  0  0  0  0  0  0  0
    5.9440    7.4750   15.1780 C   0  0  0  0  0  0  0  0  0  0  0  0
    4.7580    8.1520   14.9390 C   0  0  0  0  0  0  0  0  0  0  0  0
    4.2880    8.3570   13.6630 C   0  0  0  0  0  0  0  0  0  0  0  0
    6.6100    7.1520   16.3930 N   0  0  0  0  0  0  0  0  0  0  0  0
    7.7910    6.4470   16.0420 C   0  0  0  0  0  0  0  0  0  0  0  0
    8.6930    5.9620   16.7790 O   0  0  0  0  0  0  0  0  0  0  0  0
    7.8660    6.3270   14.5700 C   0  0  0  0  0  0  0  0  0  0  0  0
    8.7940    5.7520   13.8850 N   0  0  0  0  0  0  0  0  0  0  0  0
    8.7630    5.6960   12.4890 N   0  0  0  0  0  0  0  0  0  0  0  0
    9.8610    6.0930   11.6860 C   0  0  0  0  0  0  0  0  0  0  0  0
    9.6760    6.9280   10.7720 O   0  0  0  0  0  0  0  0  0  0  0  0
   11.1840    5.5350   11.9230 C   0  0  0  0  0  0  0  0  0  0  0  0
   11.3500    4.2070   11.3640 N   0  0  0  0  0  0  0  0  0  0  0  0
   10.5980    3.1440   11.5910 N   0  0  0  0  0  0  0  0  0  0  0  0
   11.0490    2.1050   10.9070 N   0  0  0  0  0  0  0  0  0  0  0  0
   12.1290    2.5040   10.2130 C   0  0  0  0  0  0  0  0  0  0  0  0
   12.2840    3.7990   10.5160 N   0  0  0  0  0  0  0  0  0  0  0  0
   12.9270    1.6600    9.3290 C   0  0  0  0  0  0  0  0  0  0  0  0
   14.2470    1.9690    9.0850 C   0  0  0  0  0  0  0  0  0  0  0  0
   15.0140    1.1630    8.2400 C   0  0  0  0  0  0  0  0  0  0  0  0
   14.4850    0.0490    7.6300 C   0  0  0  0  0  0  0  0  0  0  0  0
   13.1590   -0.2640    7.8740 C   0  0  0  0  0  0  0  0  0  0  0  0
   12.4050    0.5420    8.7160 C   0  0  0  0  0  0  0  0  0  0  0  0
    6.2310    7.4440   17.7610 C   0  0  0  0  0  0  0  0  0  0  0  0
    6.1800    8.8810   17.9780 C   0  0  0  0  0  0  0  0  0  0  0  0
    6.1340   10.0730   18.1420 C   0  0  0  0  0  0  0  0  0  0  0  0
    6.7170    6.8560   11.9350 H   0  0  0  0  0  0  0  0  0  0  0  0
    4.1650    8.5390   15.7540 H   0  0  0  0  0  0  0  0  0  0  0  0
    3.3500    8.8930   13.4720 H   0  0  0  0  0  0  0  0  0  0  0  0
    7.8940    5.3570   12.0290 H   0  0  0  0  0  0  0  0  0  0  0  0
   11.4110    5.5090   13.0060 H   0  0  0  0  0  0  0  0  0  0  0  0
   11.9380    6.2250   11.4710 H   0  0  0  0  0  0  0  0  0  0  0  0
   14.6880    2.8470    9.5550 H   0  0  0  0  0  0  0  0  0  0  0  0
   16.0580    1.4060    8.0450 H   0  0  0  0  0  0  0  0  0  0  0  0
   15.1060   -0.5690    6.9710 H   0  0  0  0  0  0  0  0  0  0  0  0
   12.7360   -1.1430    7.3970 H   0  0  0  0  0  0  0  0  0  0  0  0
   11.3620    0.3090    8.9170 H   0  0  0  0  0  0  0  0  0  0  0  0
    5.2290    7.0190   18.0150 H   0  0  0  0  0  0  0  0  0  0  0  0
    6.9570    6.9310   18.4380 H   0  0  0  0  0  0  0  0  0  0  0  0
    6.1030   11.1410   18.2790 H   0  0  0  0  0  0  0  0  0  0  0  0
  1  2  1  0  0  0  0
  2  3  2  0  0  0  0
  2  7  1  0  0  0  0
  3  4  1  0  0  0  0
  4 11  1  0  0  0  0
  4  5  2  0  0  0  0
  5  8  1  0  0  0  0
  6  5  1  0  0  0  0
  6 32  1  0  0  0  0
  7  6  2  0  0  0  0
  8 28  1  0  0  0  0
  9  8  1  0  0  0  0
  9 10  2  0  0  0  0
 11  9  1  0  0  0  0
 12 11  2  0  0  0  0
 13 12  1  0  0  0  0
 14 16  1  0  0  0  0
 14 13  1  0  0  0  0
 15 14  2  0  0  0  0
 16 35  1  0  0  0  0
 17 18  1  0  0  0  0
 17 16  1  0  0  0  0
 19 18  1  0  0  0  0
 20 21  1  0  0  0  0
 20 19  2  0  0  0  0
 21 17  1  0  0  0  0
 22 20  1  0  0  0  0
 23 22  1  0  0  0  0
 23 37  1  0  0  0  0
 24 23  2  0  0  0  0
 25 26  2  0  0  0  0
 25 24  1  0  0  0  0
 26 27  1  0  0  0  0
 27 41  1  0  0  0  0
 27 22  2  0  0  0  0
 28 29  1  0  0  0  0
 28 42  1  0  0  0  0
 28 43  1  0  0  0  0
 29 30  3  0  0  0  0
 30 44  1  0  0  0  0
 31  3  1  0  0  0  0
 33  7  1  0  0  0  0
 34 13  1  0  0  0  0
 36 16  1  0  0  0  0
 38 24  1  0  0  0  0
 39 25  1  0  0  0  0
 40 26  1  0  0  0  0
M  END
>  <Pose>
1

>  <Score>
-7.26

$$$$
