
 OpenBabel03172210413D

 59 62  0  0  0  0  0  0  0  0999 V2000
   13.7070    7.0380   17.0910 B   0  0  0  0  0  0  0  0  0  0  0  0
   12.2780    7.8330   16.0800 C   0  0  0  0  0  0  0  0  0  0  0  0
   12.0340    7.4730   14.7750 C   0  0  0  0  0  0  0  0  0  0  0  0
   11.0140    8.0200   14.0040 C   0  0  0  0  0  0  0  0  0  0  0  0
   10.1920    8.9880   14.5890 C   0  0  0  0  0  0  0  0  0  0  0  0
   10.4360    9.3490   15.8990 C   0  0  0  0  0  0  0  0  0  0  0  0
   11.4640    8.7880   16.6520 C   0  0  0  0  0  0  0  0  0  0  0  0
    9.2050    9.4280   13.6460 N   0  0  0  0  0  0  0  0  0  0  0  0
    9.4370    8.7020   12.4460 C   0  0  0  0  0  0  0  0  0  0  0  0
    8.7720    8.8150   11.3920 O   0  0  0  0  0  0  0  0  0  0  0  0
   10.5640    7.8110   12.6400 C   0  0  0  0  0  0  0  0  0  0  0  0
   11.0710    6.9970   11.7850 N   0  0  0  0  0  0  0  0  0  0  0  0
   10.5840    6.8520   10.4910 N   0  0  0  0  0  0  0  0  0  0  0  0
   10.3550    5.5620    9.9690 C   0  0  0  0  0  0  0  0  0  0  0  0
    9.1790    5.0580    9.9210 O   0  0  0  0  0  0  0  0  0  0  0  0
   11.4340    4.6920    9.4370 C   0  0  0  0  0  0  0  0  0  0  0  0
   11.9310    3.8420   10.4690 O   0  0  0  0  0  0  0  0  0  0  0  0
   12.9820    2.9790   10.2060 C   0  0  0  0  0  0  0  0  0  0  0  0
   12.7370    1.7320    9.6730 C   0  0  0  0  0  0  0  0  0  0  0  0
   13.7980    0.8700    9.4110 C   0  0  0  0  0  0  0  0  0  0  0  0
   15.0970    1.2550    9.6810 C   0  0  0  0  0  0  0  0  0  0  0  0
   15.3230    2.4920   10.2080 C   0  0  0  0  0  0  0  0  0  0  0  0
   14.2670    3.3480   10.4690 C   0  0  0  0  0  0  0  0  0  0  0  0
   11.4590    1.3190    9.3930 O   0  0  0  0  0  0  0  0  0  0  0  0
   11.2320    0.1650    8.6240 C   0  0  0  0  0  0  0  0  0  0  0  0
    8.1840   10.4260   13.9160 C   0  0  0  0  0  0  0  0  0  0  0  0
    6.9440    9.9050   14.3670 N   0  0  0  0  0  0  0  0  0  0  0  0
    6.6440   10.1140   15.7420 C   0  0  0  0  0  0  0  0  0  0  0  0
    5.3260    9.4490   16.1490 C   0  0  0  0  0  0  0  0  0  0  0  0
    4.9620    8.5610   15.0830 N   0  0  0  0  0  0  0  0  0  0  0  0
    4.6360    9.2440   13.8700 C   0  0  0  0  0  0  0  0  0  0  0  0
    5.8340   10.0900   13.4770 C   0  0  0  0  0  0  0  0  0  0  0  0
    4.0240    7.5450   15.4650 C   0  0  0  0  0  0  0  0  0  0  0  0
   12.6770    6.7180   14.3230 H   0  0  0  0  0  0  0  0  0  0  0  0
    9.8190   10.1020   16.4010 H   0  0  0  0  0  0  0  0  0  0  0  0
   11.6600    9.0650   17.6750 H   0  0  0  0  0  0  0  0  0  0  0  0
   10.3940    7.6890    9.9220 H   0  0  0  0  0  0  0  0  0  0  0  0
   11.1000    4.0470    8.6090 H   0  0  0  0  0  0  0  0  0  0  0  0
   12.2720    5.3000    9.0510 H   0  0  0  0  0  0  0  0  0  0  0  0
   13.5900   -0.1140    8.9890 H   0  0  0  0  0  0  0  0  0  0  0  0
   15.9460    0.5990    9.4860 H   0  0  0  0  0  0  0  0  0  0  0  0
   16.3190    2.8040   10.4220 H   0  0  0  0  0  0  0  0  0  0  0  0
   14.5060    4.3120   10.8850 H   0  0  0  0  0  0  0  0  0  0  0  0
   11.7490    0.2000    7.6400 H   0  0  0  0  0  0  0  0  0  0  0  0
   11.6940   -0.7010    9.1660 H   0  0  0  0  0  0  0  0  0  0  0  0
   10.1330    0.0350    8.5310 H   0  0  0  0  0  0  0  0  0  0  0  0
    8.5690   11.2200   14.6000 H   0  0  0  0  0  0  0  0  0  0  0  0
    7.9980   10.9520   12.9440 H   0  0  0  0  0  0  0  0  0  0  0  0
    7.4220    9.6120   16.3540 H   0  0  0  0  0  0  0  0  0  0  0  0
    6.6400   11.1820   16.0430 H   0  0  0  0  0  0  0  0  0  0  0  0
    5.4210    8.8760   17.0820 H   0  0  0  0  0  0  0  0  0  0  0  0
    4.5930   10.2610   16.3220 H   0  0  0  0  0  0  0  0  0  0  0  0
    3.7400    9.8880   13.9320 H   0  0  0  0  0  0  0  0  0  0  0  0
    4.4180    8.4590   13.1020 H   0  0  0  0  0  0  0  0  0  0  0  0
    5.5490   11.1760   13.4900 H   0  0  0  0  0  0  0  0  0  0  0  0
    6.1380    9.7650   12.4630 H   0  0  0  0  0  0  0  0  0  0  0  0
    4.2820    6.5610   14.9870 H   0  0  0  0  0  0  0  0  0  0  0  0
    2.9740    7.7960   15.2290 H   0  0  0  0  0  0  0  0  0  0  0  0
    4.1510    7.3750   16.5650 H   0  0  0  0  0  0  0  0  0  0  0  0
  2  7  1  0  0  0  0
  2  1  1  0  0  0  0
  3  2  2  0  0  0  0
  4  5  2  0  0  0  0
  4  3  1  0  0  0  0
  5  6  1  0  0  0  0
  6 35  1  0  0  0  0
  6  7  2  0  0  0  0
  7 36  1  0  0  0  0
  8 26  1  0  0  0  0
  8  5  1  0  0  0  0
  9 11  1  0  0  0  0
  9  8  1  0  0  0  0
 10  9  2  0  0  0  0
 11  4  1  0  0  0  0
 12 11  2  0  0  0  0
 13 12  1  0  0  0  0
 14 13  1  0  0  0  0
 15 14  2  0  0  0  0
 16 14  1  0  0  0  0
 16 17  1  0  0  0  0
 18 17  1  0  0  0  0
 18 23  1  0  0  0  0
 19 18  2  0  0  0  0
 20 19  1  0  0  0  0
 20 21  2  0  0  0  0
 21 22  1  0  0  0  0
 22 42  1  0  0  0  0
 22 23  2  0  0  0  0
 23 43  1  0  0  0  0
 24 19  1  0  0  0  0
 25 45  1  0  0  0  0
 25 24  1  0  0  0  0
 26 27  1  0  0  0  0
 26 47  1  0  0  0  0
 27 28  1  0  0  0  0
 28 50  1  0  0  0  0
 28 29  1  0  0  0  0
 28 49  1  0  0  0  0
 29 52  1  0  0  0  0
 29 51  1  0  0  0  0
 30 33  1  0  0  0  0
 30 29  1  0  0  0  0
 31 53  1  0  0  0  0
 31 30  1  0  0  0  0
 32 55  1  0  0  0  0
 32 31  1  0  0  0  0
 32 27  1  0  0  0  0
 33 59  1  0  0  0  0
 34  3  1  0  0  0  0
 37 13  1  0  0  0  0
 38 16  1  0  0  0  0
 39 16  1  0  0  0  0
 40 20  1  0  0  0  0
 41 21  1  0  0  0  0
 44 25  1  0  0  0  0
 46 25  1  0  0  0  0
 48 26  1  0  0  0  0
 54 31  1  0  0  0  0
 56 32  1  0  0  0  0
 57 33  1  0  0  0  0
 58 33  1  0  0  0  0
M  END
>  <Pose>
1

>  <Score>
-6.07

$$$$
