
 OpenBabel03172210413D

 45 48  0  0  1  0  0  0  0  0999 V2000
   10.5440    6.8440    8.8800 B   0  0  0  0  0  0  0  0  0  0  0  0
   11.0750    5.3270    9.9410 C   0  0  0  0  0  0  0  0  0  0  0  0
   11.7100    4.2340    9.4270 C   0  0  0  0  0  0  0  0  0  0  0  0
   12.0440    3.1610   10.2120 C   0  0  0  0  0  0  0  0  0  0  0  0
   11.7170    3.2280   11.5370 C   0  0  0  0  0  0  0  0  0  0  0  0
   11.0680    4.3390   12.0900 C   0  0  0  0  0  0  0  0  0  0  0  0
   10.7350    5.4130   11.2900 C   0  0  0  0  0  0  0  0  0  0  0  0
   12.0820    2.0420   12.2170 N   0  0  0  0  0  0  0  0  0  0  0  0
   12.6620    1.1880   11.2820 C   0  0  0  0  0  0  0  0  0  0  0  0
   13.0810    0.0330   11.5560 O   0  0  0  0  0  0  0  0  0  0  0  0
   12.6970    1.8690    9.9350 C   0  0  2  0  0  0  0  0  0  0  0  0
   14.1060    1.9090    9.5750 C   0  0  0  0  0  0  0  0  0  0  0  0
   14.5610    1.1890    8.5130 C   0  0  0  0  0  0  0  0  0  0  0  0
   15.9020    1.4190    8.4340 N   0  0  0  0  0  0  0  0  0  0  0  0
   16.2590    2.2350    9.3920 N   0  0  0  0  0  0  0  0  0  0  0  0
   15.1930    2.5860   10.1490 C   0  0  0  0  0  0  0  0  0  0  0  0
   15.2390    3.5150   11.3070 C   0  0  0  0  0  0  0  0  0  0  0  0
   16.5570    4.1770   11.4190 C   0  0  0  0  0  0  0  0  0  0  0  0
   16.8020    5.3700   11.1030 O   0  0  0  0  0  0  0  0  0  0  0  0
   17.6010    3.4260   11.9090 O   0  0  0  0  0  0  0  0  0  0  0  0
   18.9500    3.5350   11.5390 C   0  0  0  0  0  0  0  0  0  0  0  0
   19.8270    2.9950   12.6430 C   0  0  0  0  0  0  0  0  0  0  0  0
   13.7210    0.3860    7.7160 O   0  0  0  0  0  0  0  0  0  0  0  0
   12.3840    0.3530    8.0630 C   0  0  0  0  0  0  0  0  0  0  0  0
   11.8920    1.0190    9.0700 C   0  0  0  0  0  0  0  0  0  0  0  0
   10.4590    0.9130    9.3600 C   0  0  0  0  0  0  0  0  0  0  0  0
    9.3420    0.8100    9.5930 N   0  0  0  0  0  0  0  0  0  0  0  0
   11.5180   -0.4720    7.2470 N   0  0  0  0  0  0  0  0  0  0  0  0
   11.8860    1.7640   13.6540 C   0  0  0  0  0  0  0  0  0  0  0  0
   11.9500    4.2160    8.3920 H   0  0  0  0  0  0  0  0  0  0  0  0
   10.8070    4.4060   13.1360 H   0  0  0  0  0  0  0  0  0  0  0  0
   10.2340    6.2770   11.7020 H   0  0  0  0  0  0  0  0  0  0  0  0
   17.2350    2.6000    9.5910 H   0  0  0  0  0  0  0  0  0  0  0  0
   14.4840    4.3160   11.2330 H   0  0  0  0  0  0  0  0  0  0  0  0
   14.9980    2.9740   12.2570 H   0  0  0  0  0  0  0  0  0  0  0  0
   19.2330    4.6330   11.4470 H   0  0  0  0  0  0  0  0  0  0  0  0
   19.1320    3.0570   10.5680 H   0  0  0  0  0  0  0  0  0  0  0  0
   19.1710    2.7790   13.5370 H   0  0  0  0  0  0  0  0  0  0  0  0
   20.5700    3.7170   12.9790 H   0  0  0  0  0  0  0  0  0  0  0  0
   20.2640    2.0030   12.3750 H   0  0  0  0  0  0  0  0  0  0  0  0
   10.6880   -0.1090    6.7460 H   0  0  0  0  0  0  0  0  0  0  0  0
   11.7500   -1.4740    7.1650 H   0  0  0  0  0  0  0  0  0  0  0  0
   12.6730    2.3170   14.2310 H   0  0  0  0  0  0  0  0  0  0  0  0
   10.8650    2.0600   13.9680 H   0  0  0  0  0  0  0  0  0  0  0  0
   12.0590    0.6930   13.8250 H   0  0  0  0  0  0  0  0  0  0  0  0
  1  2  1  0  0  0  0
  2  7  1  0  0  0  0
  3  2  2  0  0  0  0
  3  4  1  0  0  0  0
  4  5  2  0  0  0  0
  5  6  1  0  0  0  0
  5  8  1  0  0  0  0
  6 31  1  0  0  0  0
  7 32  1  0  0  0  0
  7  6  2  0  0  0  0
  8 29  1  0  0  0  0
  9 10  2  0  0  0  0
  9  8  1  0  0  0  0
 11 25  1  6  0  0  0
 11  4  1  0  0  0  0
 11  9  1  0  0  0  0
 12 11  1  0  0  0  0
 12 16  2  0  0  0  0
 13 12  1  0  0  0  0
 14 13  2  0  0  0  0
 14 15  1  0  0  0  0
 15 33  1  0  0  0  0
 15 16  1  0  0  0  0
 16 17  1  0  0  0  0
 17 18  1  0  0  0  0
 17 35  1  0  0  0  0
 18 20  1  0  0  0  0
 19 18  2  0  0  0  0
 21 20  1  0  0  0  0
 21 22  1  0  0  0  0
 22 39  1  0  0  0  0
 22 38  1  0  0  0  0
 23 24  1  0  0  0  0
 23 13  1  0  0  0  0
 24 25  2  0  0  0  0
 25 26  1  0  0  0  0
 26 27  3  0  0  0  0
 28 24  1  0  0  0  0
 29 45  1  0  0  0  0
 29 44  1  0  0  0  0
 29 43  1  0  0  0  0
 30  3  1  0  0  0  0
 34 17  1  0  0  0  0
 36 21  1  0  0  0  0
 37 21  1  0  0  0  0
 40 22  1  0  0  0  0
 41 28  1  0  0  0  0
 42 28  1  0  0  0  0
M  END
>  <Pose>
1

>  <Score>
-5.40

$$$$
