
 OpenBabel03172210413D

 36 39  0  0  1  0  0  0  0  0999 V2000
   20.0400    5.9350   16.7040 B   0  0  0  0  0  0  0  0  0  0  0  0
   20.2930    6.2580   14.8210 C   0  0  0  0  0  0  0  0  0  0  0  0
   19.3040    5.9740   13.9170 C   0  0  0  0  0  0  0  0  0  0  0  0
   19.5080    6.2150   12.5740 C   0  0  0  0  0  0  0  0  0  0  0  0
   20.7160    6.7360   12.1980 C   0  0  0  0  0  0  0  0  0  0  0  0
   21.7320    7.0280   13.1300 C   0  0  0  0  0  0  0  0  0  0  0  0
   21.5130    6.7830   14.4590 C   0  0  0  0  0  0  0  0  0  0  0  0
   20.7740    6.9270   10.7870 N   0  0  0  0  0  0  0  0  0  0  0  0
   19.5530    6.5090   10.2450 C   0  0  0  0  0  0  0  0  0  0  0  0
   19.2530    6.5360    9.0120 O   0  0  0  0  0  0  0  0  0  0  0  0
   18.6690    6.0270   11.3640 C   0  0  2  0  0  0  0  0  0  0  0  0
   17.4930    6.8880   11.3430 C   0  0  0  0  0  0  0  0  0  0  0  0
   16.2560    6.3870   11.0820 C   0  0  0  0  0  0  0  0  0  0  0  0
   15.3880    7.4400   11.1380 N   0  0  0  0  0  0  0  0  0  0  0  0
   16.0380    8.5500   11.4190 N   0  0  0  0  0  0  0  0  0  0  0  0
   17.3310    8.2610   11.5530 C   0  0  0  0  0  0  0  0  0  0  0  0
   18.4760    9.1700   11.8710 C   0  0  0  0  0  0  0  0  0  0  0  0
   16.0270    5.0320   10.8200 O   0  0  0  0  0  0  0  0  0  0  0  0
   17.1520    4.2140   10.8400 C   0  0  0  0  0  0  0  0  0  0  0  0
   18.3650    4.6360   11.0840 C   0  0  0  0  0  0  0  0  0  0  0  0
   19.4370    3.6260   11.0650 C   0  0  0  0  0  0  0  0  0  0  0  0
   20.2990    2.8370   11.0670 N   0  0  0  0  0  0  0  0  0  0  0  0
   16.9760    2.7930   10.5750 N   0  0  0  0  0  0  0  0  0  0  0  0
   21.9100    7.4660   10.0230 C   0  0  0  0  0  0  0  0  0  0  0  0
   18.3580    5.5640   14.2310 H   0  0  0  0  0  0  0  0  0  0  0  0
   22.6860    7.4400   12.8280 H   0  0  0  0  0  0  0  0  0  0  0  0
   22.2890    7.0010   15.2090 H   0  0  0  0  0  0  0  0  0  0  0  0
   15.6540    9.5240   11.5300 H   0  0  0  0  0  0  0  0  0  0  0  0
   18.0360   10.1940   11.9820 H   0  0  0  0  0  0  0  0  0  0  0  0
   18.9170    8.9380   12.8710 H   0  0  0  0  0  0  0  0  0  0  0  0
   19.2080    9.2310   11.0660 H   0  0  0  0  0  0  0  0  0  0  0  0
   17.5140    2.4340    9.7600 H   0  0  0  0  0  0  0  0  0  0  0  0
   16.3780    2.1870   11.1320 H   0  0  0  0  0  0  0  0  0  0  0  0
   22.2270    6.6830    9.3070 H   0  0  0  0  0  0  0  0  0  0  0  0
   21.4780    8.2970    9.4180 H   0  0  0  0  0  0  0  0  0  0  0  0
   22.7040    7.8210   10.6790 H   0  0  0  0  0  0  0  0  0  0  0  0
  2  1  1  0  0  0  0
  3 25  1  0  0  0  0
  3  2  2  0  0  0  0
  4  3  1  0  0  0  0
  5  4  2  0  0  0  0
  5  6  1  0  0  0  0
  6  7  2  0  0  0  0
  7  2  1  0  0  0  0
  7 27  1  0  0  0  0
  8  5  1  0  0  0  0
  9  8  1  0  0  0  0
 10  9  2  0  0  0  0
 11  9  1  6  0  0  0
 11  4  1  0  0  0  0
 12 11  1  0  0  0  0
 12 16  2  0  0  0  0
 13 14  2  0  0  0  0
 13 12  1  0  0  0  0
 14 15  1  0  0  0  0
 15 28  1  0  0  0  0
 15 16  1  0  0  0  0
 16 17  1  0  0  0  0
 17 29  1  0  0  0  0
 17 30  1  0  0  0  0
 18 19  1  0  0  0  0
 18 13  1  0  0  0  0
 19 20  2  0  0  0  0
 20 11  1  0  0  0  0
 21 22  3  0  0  0  0
 21 20  1  0  0  0  0
 23 19  1  0  0  0  0
 23 33  1  0  0  0  0
 24 36  1  0  0  0  0
 24  8  1  0  0  0  0
 26  6  1  0  0  0  0
 31 17  1  0  0  0  0
 32 23  1  0  0  0  0
 34 24  1  0  0  0  0
 35 24  1  0  0  0  0
M  END
>  <Pose>
1

>  <Score>
-4.79

$$$$
