
 OpenBabel03172210413D

 39 42  0  0  1  0  0  0  0  0999 V2000
    6.7320    6.7490   18.4860 B   0  0  0  0  0  0  0  0  0  0  0  0
    7.1650    8.1450   17.2670 C   0  0  0  0  0  0  0  0  0  0  0  0
    6.9230    7.9780   15.9200 C   0  0  0  0  0  0  0  0  0  0  0  0
    7.2330    8.9880   15.0040 C   0  0  0  0  0  0  0  0  0  0  0  0
    7.7770   10.1340   15.4890 C   0  0  0  0  0  0  0  0  0  0  0  0
    8.0250   10.3020   16.8670 C   0  0  0  0  0  0  0  0  0  0  0  0
    7.7170    9.3040   17.7620 C   0  0  0  0  0  0  0  0  0  0  0  0
    8.0160   11.0240   14.4060 N   0  0  0  0  0  0  0  0  0  0  0  0
    7.6100   10.4250   13.2000 C   0  0  0  0  0  0  0  0  0  0  0  0
    7.6680   10.9120   12.0430 O   0  0  0  0  0  0  0  0  0  0  0  0
    7.0780    9.0680   13.5210 C   0  0  1  0  0  0  0  0  0  0  0  0
    7.8610    8.0250   12.8500 C   0  0  0  0  0  0  0  0  0  0  0  0
    7.2770    7.1000   12.0470 C   0  0  0  0  0  0  0  0  0  0  0  0
    5.8950    7.1220   11.8370 O   0  0  0  0  0  0  0  0  0  0  0  0
    5.1120    8.0840   12.4450 C   0  0  0  0  0  0  0  0  0  0  0  0
    5.6460    8.9800   13.2180 C   0  0  0  0  0  0  0  0  0  0  0  0
    4.7380    9.9650   13.8230 C   0  0  0  0  0  0  0  0  0  0  0  0
    4.0280   10.7210   14.2940 N   0  0  0  0  0  0  0  0  0  0  0  0
    3.7000    8.0440   12.1830 N   0  0  0  0  0  0  0  0  0  0  0  0
    8.0640    6.1240   11.4290 C   0  0  0  0  0  0  0  0  0  0  0  0
    7.5140    5.2800   10.6920 O   0  0  0  0  0  0  0  0  0  0  0  0
    9.4220    6.1150   11.6440 C   0  0  0  0  0  0  0  0  0  0  0  0
    9.9610    7.0790   12.4700 C   0  0  0  0  0  0  0  0  0  0  0  0
    9.1850    7.9550   13.0140 O   0  0  0  0  0  0  0  0  0  0  0  0
   11.4540    7.0900   12.7230 C   0  0  0  0  0  0  0  0  0  0  0  0
   11.7780    6.0400   13.5820 O   0  0  0  0  0  0  0  0  0  0  0  0
    8.6040   12.3660   14.5830 C   0  0  0  0  0  0  0  0  0  0  0  0
    6.4900    7.0780   15.4990 H   0  0  0  0  0  0  0  0  0  0  0  0
    8.4620   11.2250   17.2460 H   0  0  0  0  0  0  0  0  0  0  0  0
    7.9090    9.4360   18.8300 H   0  0  0  0  0  0  0  0  0  0  0  0
    3.1460    7.2990   12.6020 H   0  0  0  0  0  0  0  0  0  0  0  0
    3.2980    8.7640   11.5840 H   0  0  0  0  0  0  0  0  0  0  0  0
   10.0870    5.3910   11.1990 H   0  0  0  0  0  0  0  0  0  0  0  0
   12.0160    6.9970   11.7940 H   0  0  0  0  0  0  0  0  0  0  0  0
   11.7310    8.0290   13.2800 H   0  0  0  0  0  0  0  0  0  0  0  0
   11.9190    6.4050   14.5060 H   0  0  0  0  0  0  0  0  0  0  0  0
    8.5280   12.6790   15.6410 H   0  0  0  0  0  0  0  0  0  0  0  0
    9.6650   12.3110   14.2890 H   0  0  0  0  0  0  0  0  0  0  0  0
    8.0220   13.1030   13.9720 H   0  0  0  0  0  0  0  0  0  0  0  0
  2  7  1  0  0  0  0
  2  1  1  0  0  0  0
  3  2  2  0  0  0  0
  4  5  2  0  0  0  0
  4  3  1  0  0  0  0
  5  6  1  0  0  0  0
  6 29  1  0  0  0  0
  6  7  2  0  0  0  0
  7 30  1  0  0  0  0
  8 27  1  0  0  0  0
  8  5  1  0  0  0  0
  9 11  1  0  0  0  0
  9  8  1  0  0  0  0
 10  9  2  0  0  0  0
 11 12  1  6  0  0  0
 11  4  1  0  0  0  0
 12 24  1  0  0  0  0
 13 12  2  0  0  0  0
 14 13  1  0  0  0  0
 14 15  1  0  0  0  0
 15 16  2  0  0  0  0
 16 11  1  0  0  0  0
 16 17  1  0  0  0  0
 17 18  3  0  0  0  0
 19 15  1  0  0  0  0
 19 31  1  0  0  0  0
 20 22  1  0  0  0  0
 20 13  1  0  0  0  0
 21 20  2  0  0  0  0
 22 23  2  0  0  0  0
 23 25  1  0  0  0  0
 23 24  1  0  0  0  0
 25 35  1  0  0  0  0
 25 26  1  0  0  0  0
 26 36  1  0  0  0  0
 27 37  1  0  0  0  0
 28  3  1  0  0  0  0
 32 19  1  0  0  0  0
 33 22  1  0  0  0  0
 34 25  1  0  0  0  0
 38 27  1  0  0  0  0
 39 27  1  0  0  0  0
M  END
>  <Pose>
1

>  <Score>
-4.99

$$$$
