
 OpenBabel03172210413D

 46 49  0  0  0  0  0  0  0  0999 V2000
    7.9940    6.9340   18.4330 B   0  0  0  0  0  0  0  0  0  0  0  0
    7.1170    6.9300   16.7310 C   0  0  0  0  0  0  0  0  0  0  0  0
    7.8210    6.6020   15.5730 C   0  0  0  0  0  0  0  0  0  0  0  0
    7.2460    6.5860   14.3210 C   0  0  0  0  0  0  0  0  0  0  0  0
    5.9130    6.9120   14.2450 C   0  0  0  0  0  0  0  0  0  0  0  0
    5.1740    7.2470   15.3890 C   0  0  0  0  0  0  0  0  0  0  0  0
    5.7890    7.2490   16.6140 C   0  0  0  0  0  0  0  0  0  0  0  0
    5.5310    6.8360   12.8790 N   0  0  0  0  0  0  0  0  0  0  0  0
    6.6340    6.4560   12.0780 C   0  0  0  0  0  0  0  0  0  0  0  0
    6.6800    6.2860   10.8350 O   0  0  0  0  0  0  0  0  0  0  0  0
    7.7780    6.2840   12.9880 C   0  0  0  0  0  0  0  0  0  0  0  0
    8.9970    5.9330   12.6390 C   0  0  0  0  0  0  0  0  0  0  0  0
   10.0760    5.7710   13.5190 N   0  0  0  0  0  0  0  0  0  0  0  0
   11.3530    5.4130   13.1280 N   0  0  0  0  0  0  0  0  0  0  0  0
   11.8430    5.5610   11.8020 C   0  0  0  0  0  0  0  0  0  0  0  0
   11.7240    6.6790   11.2760 O   0  0  0  0  0  0  0  0  0  0  0  0
   12.4790    4.4600   11.0450 C   0  0  0  0  0  0  0  0  0  0  0  0
   13.8480    4.3880   11.2610 N   0  0  0  0  0  0  0  0  0  0  0  0
   14.7970    3.6190   10.7310 C   0  0  0  0  0  0  0  0  0  0  0  0
   16.0070    3.9100   11.3460 C   0  0  0  0  0  0  0  0  0  0  0  0
   15.7570    4.8720   12.2540 N   0  0  0  0  0  0  0  0  0  0  0  0
   14.4760    5.1580   12.2050 C   0  0  0  0  0  0  0  0  0  0  0  0
   17.1550    3.2460   10.9610 C   0  0  0  0  0  0  0  0  0  0  0  0
   18.2360    3.5300   11.5380 O   0  0  0  0  0  0  0  0  0  0  0  0
   17.0450    2.3410   10.0000 N   0  0  0  0  0  0  0  0  0  0  0  0
   15.8680    2.0690    9.4090 C   0  0  0  0  0  0  0  0  0  0  0  0
   15.8080    1.2050    8.5020 O   0  0  0  0  0  0  0  0  0  0  0  0
   14.7070    2.6950    9.7520 N   0  0  0  0  0  0  0  0  0  0  0  0
   13.4730    2.4080    9.0780 C   0  0  0  0  0  0  0  0  0  0  0  0
   18.2380    1.6020    9.5530 C   0  0  0  0  0  0  0  0  0  0  0  0
    8.8640    6.3430   15.6600 H   0  0  0  0  0  0  0  0  0  0  0  0
    4.1320    7.4960   15.2900 H   0  0  0  0  0  0  0  0  0  0  0  0
    5.1950    7.5130   17.4990 H   0  0  0  0  0  0  0  0  0  0  0  0
    4.5730    7.0290   12.5030 H   0  0  0  0  0  0  0  0  0  0  0  0
    9.1870    5.7500   11.5910 H   0  0  0  0  0  0  0  0  0  0  0  0
    9.8710    5.9420   14.5410 H   0  0  0  0  0  0  0  0  0  0  0  0
   12.0070    5.0070   13.8320 H   0  0  0  0  0  0  0  0  0  0  0  0
   11.8530    3.5870   11.1770 H   0  0  0  0  0  0  0  0  0  0  0  0
   12.3050    4.7410    9.9490 H   0  0  0  0  0  0  0  0  0  0  0  0
   14.0070    5.9020   12.8310 H   0  0  0  0  0  0  0  0  0  0  0  0
   13.7210    1.5460    8.3630 H   0  0  0  0  0  0  0  0  0  0  0  0
   12.6700    1.9790    9.6560 H   0  0  0  0  0  0  0  0  0  0  0  0
   13.1980    3.1860    8.3280 H   0  0  0  0  0  0  0  0  0  0  0  0
   18.7660    1.2280   10.4530 H   0  0  0  0  0  0  0  0  0  0  0  0
   18.9480    2.2790    9.0290 H   0  0  0  0  0  0  0  0  0  0  0  0
   17.9620    0.7610    8.8860 H   0  0  0  0  0  0  0  0  0  0  0  0
  2  1  1  0  0  0  0
  3 31  1  0  0  0  0
  3  2  2  0  0  0  0
  4  3  1  0  0  0  0
  5  4  2  0  0  0  0
  5  6  1  0  0  0  0
  6  7  2  0  0  0  0
  7  2  1  0  0  0  0
  7 33  1  0  0  0  0
  8  5  1  0  0  0  0
  9  8  1  0  0  0  0
  9 11  1  0  0  0  0
 10  9  2  0  0  0  0
 11  4  1  0  0  0  0
 12 11  2  0  0  0  0
 12 13  1  0  0  0  0
 13 36  1  0  0  0  0
 14 13  1  0  0  0  0
 14 37  1  0  0  0  0
 15 14  1  0  0  0  0
 16 15  2  0  0  0  0
 17 38  1  0  0  0  0
 17 18  1  0  0  0  0
 17 15  1  0  0  0  0
 18 22  1  0  0  0  0
 19 18  1  0  0  0  0
 19 20  2  0  0  0  0
 20 21  1  0  0  0  0
 22 21  2  0  0  0  0
 22 40  1  0  0  0  0
 23 20  1  0  0  0  0
 23 24  2  0  0  0  0
 25 23  1  0  0  0  0
 26 28  1  0  0  0  0
 26 25  1  0  0  0  0
 27 26  2  0  0  0  0
 28 19  1  0  0  0  0
 29 42  1  0  0  0  0
 29 28  1  0  0  0  0
 30 25  1  0  0  0  0
 30 44  1  0  0  0  0
 32  6  1  0  0  0  0
 34  8  1  0  0  0  0
 35 12  1  0  0  0  0
 39 17  1  0  0  0  0
 41 29  1  0  0  0  0
 43 29  1  0  0  0  0
 45 30  1  0  0  0  0
 46 30  1  0  0  0  0
M  END
>  <Pose>
1

>  <Score>
-7.26

$$$$
