
 OpenBabel03172210413D

 41 44  0  0  0  0  0  0  0  0999 V2000
    6.1740   11.4680   13.4500 B   0  0  0  0  0  0  0  0  0  0  0  0
    6.3150    9.6570   12.8970 C   0  0  0  0  0  0  0  0  0  0  0  0
    7.4390    9.1700   12.2930 C   0  0  0  0  0  0  0  0  0  0  0  0
    7.5270    7.8540   11.8930 C   0  0  0  0  0  0  0  0  0  0  0  0
    6.5120    6.9690   12.0750 C   0  0  0  0  0  0  0  0  0  0  0  0
    5.3580    7.4600   12.6930 C   0  0  0  0  0  0  0  0  0  0  0  0
    5.2650    8.7690   13.0940 C   0  0  0  0  0  0  0  0  0  0  0  0
    6.8390    5.6870   11.5830 N   0  0  0  0  0  0  0  0  0  0  0  0
    8.1580    5.7210   11.0330 C   0  0  0  0  0  0  0  0  0  0  0  0
    8.8340    4.8380   10.5010 O   0  0  0  0  0  0  0  0  0  0  0  0
    8.6170    7.1280   11.2280 C   0  0  0  0  0  0  0  0  0  0  0  0
    9.7030    7.4680   10.8770 N   0  0  0  0  0  0  0  0  0  0  0  0
   10.8220    7.0090   10.2780 N   0  0  0  0  0  0  0  0  0  0  0  0
   11.1270    5.6360   10.2920 C   0  0  0  0  0  0  0  0  0  0  0  0
   11.5340    5.0960    9.2030 O   0  0  0  0  0  0  0  0  0  0  0  0
   11.0450    4.7160   11.4310 C   0  0  0  0  0  0  0  0  0  0  0  0
   12.2340    4.5780   12.2230 N   0  0  0  0  0  0  0  0  0  0  0  0
   13.5050    4.3380   11.6290 C   0  0  0  0  0  0  0  0  0  0  0  0
   14.4290    5.1930   11.9220 O   0  0  0  0  0  0  0  0  0  0  0  0
   13.8430    3.2600   10.7520 C   0  0  0  0  0  0  0  0  0  0  0  0
   12.9780    2.2570   10.3380 C   0  0  0  0  0  0  0  0  0  0  0  0
   13.3610    1.2680    9.4990 C   0  0  0  0  0  0  0  0  0  0  0  0
   14.6500    1.2080    9.0070 C   0  0  0  0  0  0  0  0  0  0  0  0
   15.5340    2.1670    9.3890 C   0  0  0  0  0  0  0  0  0  0  0  0
   15.1540    3.2030   10.2560 C   0  0  0  0  0  0  0  0  0  0  0  0
   14.7530    0.0910    8.1630 O   0  0  0  0  0  0  0  0  0  0  0  0
   13.4130   -0.0020    7.6210 C   0  0  0  0  0  0  0  0  0  0  0  0
   12.7020    0.1280    8.9030 O   0  0  0  0  0  0  0  0  0  0  0  0
    8.2690    9.8160   12.1240 H   0  0  0  0  0  0  0  0  0  0  0  0
    4.5540    6.7910   12.8440 H   0  0  0  0  0  0  0  0  0  0  0  0
    4.3980    9.1890   13.5780 H   0  0  0  0  0  0  0  0  0  0  0  0
    6.2410    4.8270   11.5930 H   0  0  0  0  0  0  0  0  0  0  0  0
   11.4820    7.6760    9.7930 H   0  0  0  0  0  0  0  0  0  0  0  0
   10.2520    5.1170   12.1180 H   0  0  0  0  0  0  0  0  0  0  0  0
   10.7050    3.7150   11.0840 H   0  0  0  0  0  0  0  0  0  0  0  0
   12.2160    4.6280   13.2530 H   0  0  0  0  0  0  0  0  0  0  0  0
   11.9400    2.2660   10.7170 H   0  0  0  0  0  0  0  0  0  0  0  0
   16.5690    2.1260    9.0050 H   0  0  0  0  0  0  0  0  0  0  0  0
   15.8230    3.9450   10.5570 H   0  0  0  0  0  0  0  0  0  0  0  0
   13.1820   -0.9030    7.1100 H   0  0  0  0  0  0  0  0  0  0  0  0
   13.2100    0.8900    7.0250 H   0  0  0  0  0  0  0  0  0  0  0  0
  2  7  1  0  0  0  0
  2  1  1  0  0  0  0
  3  2  2  0  0  0  0
  4  5  2  0  0  0  0
  4  3  1  0  0  0  0
  5  6  1  0  0  0  0
  6 30  1  0  0  0  0
  6  7  2  0  0  0  0
  7 31  1  0  0  0  0
  8 32  1  0  0  0  0
  8  5  1  0  0  0  0
  9 11  1  0  0  0  0
  9  8  1  0  0  0  0
 10  9  2  0  0  0  0
 11  4  1  0  0  0  0
 12 11  2  0  0  0  0
 13 14  1  0  0  0  0
 13 12  1  0  0  0  0
 14 16  1  0  0  0  0
 15 14  2  0  0  0  0
 16 34  1  0  0  0  0
 16 17  1  0  0  0  0
 17 36  1  0  0  0  0
 18 19  2  0  0  0  0
 18 17  1  0  0  0  0
 20 18  1  0  0  0  0
 21 37  1  0  0  0  0
 21 20  1  0  0  0  0
 22 21  2  0  0  0  0
 23 24  2  0  0  0  0
 23 22  1  0  0  0  0
 24 25  1  0  0  0  0
 25 39  1  0  0  0  0
 25 20  2  0  0  0  0
 26 23  1  0  0  0  0
 27 26  1  0  0  0  0
 27 28  1  0  0  0  0
 28 22  1  0  0  0  0
 29  3  1  0  0  0  0
 33 13  1  0  0  0  0
 35 16  1  0  0  0  0
 38 24  1  0  0  0  0
 40 27  1  0  0  0  0
 41 27  1  0  0  0  0
M  END
>  <Pose>
1

>  <Score>
-7.10

$$$$
