
 OpenBabel03172210413D

 38 41  0  0  1  0  0  0  0  0999 V2000
    7.7980   12.0350   12.5800 B   0  0  0  0  0  0  0  0  0  0  0  0
    7.1120   10.3540   13.1360 C   0  0  0  0  0  0  0  0  0  0  0  0
    7.9450    9.2600   13.3920 C   0  0  0  0  0  0  0  0  0  0  0  0
    7.4430    8.0510   13.7940 C   0  0  0  0  0  0  0  0  0  0  0  0
    6.0950    7.9050   13.9470 C   0  0  0  0  0  0  0  0  0  0  0  0
    5.2190    8.9720   13.7030 C   0  0  0  0  0  0  0  0  0  0  0  0
    5.7520   10.1730   13.3020 C   0  0  0  0  0  0  0  0  0  0  0  0
    5.7740    6.5890   14.3650 N   0  0  0  0  0  0  0  0  0  0  0  0
    6.9810    5.8770   14.4770 C   0  0  0  0  0  0  0  0  0  0  0  0
    7.1430    4.6760   14.8200 O   0  0  0  0  0  0  0  0  0  0  0  0
    8.1020    6.7730   14.1180 C   0  0  1  0  0  0  0  0  0  0  0  0
    8.8170    6.2230   12.9210 C   0  0  0  0  0  0  0  0  0  0  0  0
   10.0930    5.9490   12.8600 C   0  0  0  0  0  0  0  0  0  0  0  0
   10.8840    6.1840   14.0100 N   0  0  0  0  0  0  0  0  0  0  0  0
   10.2940    6.7030   15.1920 C   0  0  0  0  0  0  0  0  0  0  0  0
    9.0150    6.9790   15.2560 C   0  0  0  0  0  0  0  0  0  0  0  0
    8.4850    7.5130   16.5140 C   0  0  0  0  0  0  0  0  0  0  0  0
    8.0510    7.9220   17.5050 N   0  0  0  0  0  0  0  0  0  0  0  0
   11.1260    6.9360   16.3600 N   0  0  0  0  0  0  0  0  0  0  0  0
   10.3990    5.4270   11.5060 C   0  0  0  0  0  0  0  0  0  0  0  0
    9.1940    5.4220   10.7850 O   0  0  0  0  0  0  0  0  0  0  0  0
    8.2040    5.9020   11.6200 C   0  0  0  0  0  0  0  0  0  0  0  0
    6.9730    6.0380   11.3000 O   0  0  0  0  0  0  0  0  0  0  0  0
   10.8630    3.9710   11.5770 C   0  0  0  0  0  0  0  0  0  0  0  0
   11.4580    6.2770   10.8180 C   0  0  0  0  0  0  0  0  0  0  0  0
    9.0060    9.4290   13.2540 H   0  0  0  0  0  0  0  0  0  0  0  0
    4.1540    8.8950   13.8140 H   0  0  0  0  0  0  0  0  0  0  0  0
    5.0730   11.0040   13.1120 H   0  0  0  0  0  0  0  0  0  0  0  0
    4.7880    6.2260   14.5550 H   0  0  0  0  0  0  0  0  0  0  0  0
   11.9170    5.9830   14.0190 H   0  0  0  0  0  0  0  0  0  0  0  0
   11.0490    7.7770   16.9550 H   0  0  0  0  0  0  0  0  0  0  0  0
   11.8280    6.2170   16.6010 H   0  0  0  0  0  0  0  0  0  0  0  0
   10.6710    3.5470   10.5680 H   0  0  0  0  0  0  0  0  0  0  0  0
   11.9390    3.8970   11.7600 H   0  0  0  0  0  0  0  0  0  0  0  0
   10.2380    3.4230   12.2890 H   0  0  0  0  0  0  0  0  0  0  0  0
   12.4020    5.6990   10.6770 H   0  0  0  0  0  0  0  0  0  0  0  0
   11.0370    6.5640    9.8170 H   0  0  0  0  0  0  0  0  0  0  0  0
   11.6250    7.2020   11.3890 H   0  0  0  0  0  0  0  0  0  0  0  0
  1  2  1  0  0  0  0
  2  7  2  0  0  0  0
  2  3  1  0  0  0  0
  3  4  2  0  0  0  0
  4  5  1  0  0  0  0
  4 11  1  0  0  0  0
  5  8  1  0  0  0  0
  6 27  1  0  0  0  0
  6  5  2  0  0  0  0
  7  6  1  0  0  0  0
  8  9  1  0  0  0  0
  8 29  1  0  0  0  0
  9 10  2  0  0  0  0
 11 12  1  6  0  0  0
 11  9  1  0  0  0  0
 11 16  1  0  0  0  0
 13 12  2  0  0  0  0
 13 14  1  0  0  0  0
 14 30  1  0  0  0  0
 14 15  1  0  0  0  0
 15 16  2  0  0  0  0
 15 19  1  0  0  0  0
 16 17  1  0  0  0  0
 17 18  3  0  0  0  0
 19 32  1  0  0  0  0
 19 31  1  0  0  0  0
 20 24  1  0  0  0  0
 20 13  1  0  0  0  0
 21 20  1  0  0  0  0
 21 22  1  0  0  0  0
 22 12  1  0  0  0  0
 23 22  2  0  0  0  0
 24 34  1  0  0  0  0
 24 35  1  0  0  0  0
 25 38  1  0  0  0  0
 25 20  1  0  0  0  0
 26  3  1  0  0  0  0
 28  7  1  0  0  0  0
 33 24  1  0  0  0  0
 36 25  1  0  0  0  0
 37 25  1  0  0  0  0
M  END
>  <Pose>
1

>  <Score>
-5.01

$$$$
