
 OpenBabel03172210413D

 49 52  0  0  1  0  0  0  0  0999 V2000
   16.0700    4.3190   11.8030 B   0  0  0  0  0  0  0  0  0  0  0  0
   14.2230    4.1980   11.2940 C   0  0  0  0  0  0  0  0  0  0  0  0
   13.2510    4.9760   11.8940 C   0  0  0  0  0  0  0  0  0  0  0  0
   11.9210    4.8960   11.5360 C   0  0  0  0  0  0  0  0  0  0  0  0
   11.6070    3.9930   10.5410 C   0  0  0  0  0  0  0  0  0  0  0  0
   12.5830    3.2070    9.9350 C   0  0  0  0  0  0  0  0  0  0  0  0
   13.8880    3.3060   10.3070 C   0  0  0  0  0  0  0  0  0  0  0  0
   10.1910    4.0390   10.3050 N   0  0  0  0  0  0  0  0  0  0  0  0
    9.6080    4.9940   11.1750 C   0  0  0  0  0  0  0  0  0  0  0  0
    8.3830    5.2550   11.2130 O   0  0  0  0  0  0  0  0  0  0  0  0
   10.6910    5.5870   11.9870 C   0  0  1  0  0  0  0  0  0  0  0  0
   10.4420    5.4100   13.3920 N   0  0  0  0  0  0  0  0  0  0  0  0
    9.5040    6.4660   13.7140 C   0  0  2  0  0  0  0  0  0  0  0  0
   10.0450    7.6590   12.9730 C   0  0  2  0  0  0  0  0  0  0  0  0
   10.7180    7.0570   11.7630 C   0  0  1  0  0  0  0  0  0  0  0  0
   12.0540    7.6690   11.7160 C   0  0  0  0  0  0  0  0  0  0  0  0
   12.9070    7.5450   10.8010 O   0  0  0  0  0  0  0  0  0  0  0  0
   12.2690    8.4620   12.9060 N   0  0  0  0  0  0  0  0  0  0  0  0
   11.1080    8.3700   13.7160 C   0  0  0  0  0  0  0  0  0  0  0  0
   11.0250    8.8300   14.8800 O   0  0  0  0  0  0  0  0  0  0  0  0
   13.4490    9.2230   13.2330 C   0  0  0  0  0  0  0  0  0  0  0  0
   13.2990    9.9640   14.5390 C   0  0  0  0  0  0  0  0  0  0  0  0
   14.6450    8.2700   13.3160 C   0  0  0  0  0  0  0  0  0  0  0  0
   13.7370   10.2550   12.1640 C   0  0  0  0  0  0  0  0  0  0  0  0
    9.4280    6.6630   15.2040 C   0  0  0  0  0  0  0  0  0  0  0  0
    8.2060    6.0560   15.7560 C   0  0  0  0  0  0  0  0  0  0  0  0
    7.9860    6.1560   16.9950 O   0  0  0  0  0  0  0  0  0  0  0  0
    7.2380    5.3550   14.9930 N   0  0  0  0  0  0  0  0  0  0  0  0
   13.5880    5.6500   12.6610 H   0  0  0  0  0  0  0  0  0  0  0  0
   12.3260    2.5000    9.1550 H   0  0  0  0  0  0  0  0  0  0  0  0
   14.6310    2.6740    9.8110 H   0  0  0  0  0  0  0  0  0  0  0  0
    9.7130    3.4430    9.5950 H   0  0  0  0  0  0  0  0  0  0  0  0
   11.3170    5.5800   13.9120 H   0  0  0  0  0  0  0  0  0  0  0  0
    8.4680    6.2220   13.3740 H   0  0  0  0  0  0  0  0  0  0  0  0
    9.2720    8.3640   12.6340 H   0  0  0  0  0  0  0  0  0  0  0  0
   10.1550    7.2900   10.8320 H   0  0  0  0  0  0  0  0  0  0  0  0
   12.4400   10.6590   14.4470 H   0  0  0  0  0  0  0  0  0  0  0  0
   14.1860   10.6200   14.7160 H   0  0  0  0  0  0  0  0  0  0  0  0
   13.2210    9.2700   15.4030 H   0  0  0  0  0  0  0  0  0  0  0  0
   14.3620    7.4930   14.0540 H   0  0  0  0  0  0  0  0  0  0  0  0
   15.5490    8.7990   13.6350 H   0  0  0  0  0  0  0  0  0  0  0  0
   14.7290    7.8050   12.3060 H   0  0  0  0  0  0  0  0  0  0  0  0
   14.2690   11.1030   12.6370 H   0  0  0  0  0  0  0  0  0  0  0  0
   14.3670    9.8720   11.3480 H   0  0  0  0  0  0  0  0  0  0  0  0
   12.7730   10.5850   11.7410 H   0  0  0  0  0  0  0  0  0  0  0  0
   10.2870    6.0590   15.6240 H   0  0  0  0  0  0  0  0  0  0  0  0
    9.6200    7.6910   15.5330 H   0  0  0  0  0  0  0  0  0  0  0  0
    6.4420    4.8270   15.3800 H   0  0  0  0  0  0  0  0  0  0  0  0
    7.3490    5.3800   13.9460 H   0  0  0  0  0  0  0  0  0  0  0  0
  2  1  1  0  0  0  0
  2  3  1  0  0  0  0
  3 29  1  0  0  0  0
  4  3  2  0  0  0  0
  4 11  1  0  0  0  0
  5  4  1  0  0  0  0
  6  7  1  0  0  0  0
  6  5  2  0  0  0  0
  7  2  2  0  0  0  0
  8  5  1  0  0  0  0
  8  9  1  0  0  0  0
  9 10  2  0  0  0  0
 11  9  1  6  0  0  0
 11 12  1  0  0  0  0
 12 13  1  0  0  0  0
 12 33  1  0  0  0  0
 13 34  1  6  0  0  0
 13 25  1  0  0  0  0
 14 35  1  6  0  0  0
 14 13  1  0  0  0  0
 14 19  1  0  0  0  0
 15 36  1  6  0  0  0
 15 11  1  0  0  0  0
 15 14  1  0  0  0  0
 16 15  1  0  0  0  0
 16 18  1  0  0  0  0
 17 16  2  0  0  0  0
 18 21  1  0  0  0  0
 18 19  1  0  0  0  0
 19 20  2  0  0  0  0
 21 23  1  0  0  0  0
 21 22  1  0  0  0  0
 22 38  1  0  0  0  0
 22 39  1  0  0  0  0
 23 41  1  0  0  0  0
 23 40  1  0  0  0  0
 24 43  1  0  0  0  0
 24 21  1  0  0  0  0
 25 47  1  0  0  0  0
 25 46  1  0  0  0  0
 25 26  1  0  0  0  0
 26 27  2  0  0  0  0
 28 48  1  0  0  0  0
 28 26  1  0  0  0  0
 30  6  1  0  0  0  0
 31  7  1  0  0  0  0
 32  8  1  0  0  0  0
 37 22  1  0  0  0  0
 42 23  1  0  0  0  0
 44 24  1  0  0  0  0
 45 24  1  0  0  0  0
 49 28  1  0  0  0  0
M  END
>  <Pose>
1

>  <Score>
-5.43

$$$$
