
 OpenBabel03172210413D

 49 52  0  0  1  0  0  0  0  0999 V2000
   12.9060    2.2480   11.1780 B   0  0  0  0  0  0  0  0  0  0  0  0
   12.0380    3.9280   10.9230 C   0  0  0  0  0  0  0  0  0  0  0  0
   11.4100    4.5590   11.9670 C   0  0  0  0  0  0  0  0  0  0  0  0
   10.7670    5.7970   11.7900 C   0  0  0  0  0  0  0  0  0  0  0  0
   10.7460    6.4160   10.5720 C   0  0  0  0  0  0  0  0  0  0  0  0
   11.3890    5.7720    9.5050 C   0  0  0  0  0  0  0  0  0  0  0  0
   12.0110    4.5610    9.7000 C   0  0  0  0  0  0  0  0  0  0  0  0
   10.0420    7.6480   10.6400 N   0  0  0  0  0  0  0  0  0  0  0  0
    9.6000    7.8080   11.9730 C   0  0  0  0  0  0  0  0  0  0  0  0
    8.9330    8.8280   12.3480 O   0  0  0  0  0  0  0  0  0  0  0  0
   10.0340    6.6570   12.7460 C   0  0  2  0  0  0  0  0  0  0  0  0
   10.8450    7.0040   13.8970 N   0  0  0  0  0  0  0  0  0  0  0  0
    9.9100    7.2030   14.9900 C   0  0  1  0  0  0  0  0  0  0  0  0
    8.9400    6.0760   14.7810 C   0  0  2  0  0  0  0  0  0  0  0  0
    8.8220    5.9380   13.3020 C   0  0  1  0  0  0  0  0  0  0  0  0
    7.5530    6.5870   12.9390 C   0  0  0  0  0  0  0  0  0  0  0  0
    7.1510    6.9680   11.7910 O   0  0  0  0  0  0  0  0  0  0  0  0
    6.7570    6.7590   14.1050 N   0  0  0  0  0  0  0  0  0  0  0  0
    7.5680    6.4200   15.2120 C   0  0  0  0  0  0  0  0  0  0  0  0
    7.2080    6.3990   16.4280 O   0  0  0  0  0  0  0  0  0  0  0  0
    5.3760    7.1960   14.1570 C   0  0  0  0  0  0  0  0  0  0  0  0
    5.1930    8.5770   13.6150 C   0  0  0  0  0  0  0  0  0  0  0  0
    3.6850    8.8570   13.6150 C   0  0  0  0  0  0  0  0  0  0  0  0
    3.2440    9.3530   14.9650 C   0  0  0  0  0  0  0  0  0  0  0  0
   10.6470    7.1190   16.2900 C   0  0  2  0  0  0  0  0  0  0  0  0
   10.7750    5.7650   16.6220 O   0  0  0  0  0  0  0  0  0  0  0  0
    9.8430    7.7720   17.3870 C   0  0  0  0  0  0  0  0  0  0  0  0
   11.3910    4.1150   12.9700 H   0  0  0  0  0  0  0  0  0  0  0  0
   11.3740    6.2630    8.5300 H   0  0  0  0  0  0  0  0  0  0  0  0
   12.5120    4.0520    8.8810 H   0  0  0  0  0  0  0  0  0  0  0  0
    9.9060    8.2860    9.8150 H   0  0  0  0  0  0  0  0  0  0  0  0
   11.4520    7.8260   13.7290 H   0  0  0  0  0  0  0  0  0  0  0  0
    9.3520    8.1480   14.9010 H   0  0  0  0  0  0  0  0  0  0  0  0
    9.2840    5.1250   15.2370 H   0  0  0  0  0  0  0  0  0  0  0  0
    8.8220    4.8560   13.0170 H   0  0  0  0  0  0  0  0  0  0  0  0
    4.6980    6.5190   13.6060 H   0  0  0  0  0  0  0  0  0  0  0  0
    5.0460    7.1820   15.2220 H   0  0  0  0  0  0  0  0  0  0  0  0
    5.4890    8.6080   12.5350 H   0  0  0  0  0  0  0  0  0  0  0  0
    5.7480    9.3610   14.1250 H   0  0  0  0  0  0  0  0  0  0  0  0
    3.5450    9.6820   12.8700 H   0  0  0  0  0  0  0  0  0  0  0  0
    3.1170    7.9840   13.2610 H   0  0  0  0  0  0  0  0  0  0  0  0
    3.8160    8.9240   15.8000 H   0  0  0  0  0  0  0  0  0  0  0  0
    3.3650   10.4680   15.0350 H   0  0  0  0  0  0  0  0  0  0  0  0
    2.1560    9.1690   15.0690 H   0  0  0  0  0  0  0  0  0  0  0  0
   11.6380    7.6130   16.2070 H   0  0  0  0  0  0  0  0  0  0  0  0
   11.7300    5.5130   16.7190 H   0  0  0  0  0  0  0  0  0  0  0  0
   10.0220    8.8660   17.3750 H   0  0  0  0  0  0  0  0  0  0  0  0
    8.7870    7.5140   17.2320 H   0  0  0  0  0  0  0  0  0  0  0  0
   10.2490    7.3910   18.3600 H   0  0  0  0  0  0  0  0  0  0  0  0
  2  1  1  0  0  0  0
  2  3  1  0  0  0  0
  3 28  1  0  0  0  0
  4  3  2  0  0  0  0
  5  8  1  0  0  0  0
  5  4  1  0  0  0  0
  6  7  1  0  0  0  0
  6  5  2  0  0  0  0
  7  2  2  0  0  0  0
  8  9  1  0  0  0  0
  9 10  2  0  0  0  0
  9 11  1  0  0  0  0
 11  4  1  6  0  0  0
 11 15  1  0  0  0  0
 11 12  1  0  0  0  0
 12 13  1  0  0  0  0
 13 33  1  6  0  0  0
 13 25  1  0  0  0  0
 14 13  1  0  0  0  0
 14 19  1  0  0  0  0
 14 34  1  1  0  0  0
 15 35  1  6  0  0  0
 15 14  1  0  0  0  0
 16 15  1  0  0  0  0
 16 18  1  0  0  0  0
 17 16  2  0  0  0  0
 18 21  1  0  0  0  0
 18 19  1  0  0  0  0
 19 20  2  0  0  0  0
 21 37  1  0  0  0  0
 22 23  1  0  0  0  0
 22 39  1  0  0  0  0
 22 21  1  0  0  0  0
 23 24  1  0  0  0  0
 24 43  1  0  0  0  0
 24 44  1  0  0  0  0
 24 42  1  0  0  0  0
 25 45  1  6  0  0  0
 25 26  1  0  0  0  0
 25 27  1  0  0  0  0
 26 46  1  0  0  0  0
 27 49  1  0  0  0  0
 29  6  1  0  0  0  0
 30  7  1  0  0  0  0
 31  8  1  0  0  0  0
 32 12  1  0  0  0  0
 36 21  1  0  0  0  0
 38 22  1  0  0  0  0
 40 23  1  0  0  0  0
 41 23  1  0  0  0  0
 47 27  1  0  0  0  0
 48 27  1  0  0  0  0
M  END
>  <Pose>
1

>  <Score>
-5.48

$$$$
