
 OpenBabel03172210413D

 53 57  0  0  1  0  0  0  0  0999 V2000
    5.3540   10.6120   13.6250 B   0  0  0  0  0  0  0  0  0  0  0  0
    5.9910    8.9910   12.8410 C   0  0  0  0  0  0  0  0  0  0  0  0
    7.3030    8.5860   12.9380 C   0  0  0  0  0  0  0  0  0  0  0  0
    7.7670    7.3980   12.3540 C   0  0  0  0  0  0  0  0  0  0  0  0
    6.8540    6.6330   11.6700 C   0  0  0  0  0  0  0  0  0  0  0  0
    5.5290    7.0350   11.5690 C   0  0  0  0  0  0  0  0  0  0  0  0
    5.0850    8.2040   12.1460 C   0  0  0  0  0  0  0  0  0  0  0  0
    7.4650    5.4790   11.1260 N   0  0  0  0  0  0  0  0  0  0  0  0
    8.8290    5.5150   11.4820 C   0  0  0  0  0  0  0  0  0  0  0  0
    9.6450    4.6140   11.1380 O   0  0  0  0  0  0  0  0  0  0  0  0
    9.0710    6.7370   12.2770 C   0  0  1  0  0  0  0  0  0  0  0  0
   10.0540    7.5950   11.6090 N   0  0  0  0  0  0  0  0  0  0  0  0
   10.7790    8.2540   12.6720 C   0  0  1  0  0  0  0  0  0  0  0  0
   10.7090    7.4000   13.8760 C   0  0  2  0  0  0  0  0  0  0  0  0
    9.6860    6.3240   13.5610 C   0  0  1  0  0  0  0  0  0  0  0  0
    8.8270    6.2440   14.7360 C   0  0  0  0  0  0  0  0  0  0  0  0
    7.7750    5.5670   14.8470 O   0  0  0  0  0  0  0  0  0  0  0  0
    9.3550    7.0710   15.7950 N   0  0  0  0  0  0  0  0  0  0  0  0
   10.1730    8.0330   15.0980 C   0  0  0  0  0  0  0  0  0  0  0  0
   10.3800    9.1940   15.4800 O   0  0  0  0  0  0  0  0  0  0  0  0
    9.1630    6.9670   17.2060 C   0  0  0  0  0  0  0  0  0  0  0  0
    7.7660    6.6560   17.6610 C   0  0  0  0  0  0  0  0  0  0  0  0
    6.7390    7.6120   17.2140 C   0  0  0  0  0  0  0  0  0  0  0  0
    6.8300    8.9420   17.6030 C   0  0  0  0  0  0  0  0  0  0  0  0
    5.9050    9.8360   17.1760 C   0  0  0  0  0  0  0  0  0  0  0  0
    4.8650    9.4880   16.3640 C   0  0  0  0  0  0  0  0  0  0  0  0
    4.7840    8.1580   15.9810 C   0  0  0  0  0  0  0  0  0  0  0  0
    5.7030    7.2380   16.3980 C   0  0  0  0  0  0  0  0  0  0  0  0
   12.1880    8.5690   12.2280 C   0  0  1  0  0  0  0  0  0  0  0  0
   12.8080    9.3780   13.1610 O   0  0  0  0  0  0  0  0  0  0  0  0
   12.9850    7.3240   11.9210 C   0  0  0  0  0  0  0  0  0  0  0  0
    7.9860    9.2170   13.4860 H   0  0  0  0  0  0  0  0  0  0  0  0
    4.7960    6.4360   11.0290 H   0  0  0  0  0  0  0  0  0  0  0  0
    4.0480    8.5360   12.0770 H   0  0  0  0  0  0  0  0  0  0  0  0
    6.9830    4.7290   10.5580 H   0  0  0  0  0  0  0  0  0  0  0  0
    9.5910    8.2880   10.9770 H   0  0  0  0  0  0  0  0  0  0  0  0
   10.2850    9.2230   12.8680 H   0  0  0  0  0  0  0  0  0  0  0  0
   11.6810    6.9430   14.1680 H   0  0  0  0  0  0  0  0  0  0  0  0
   10.2400    5.3550   13.4930 H   0  0  0  0  0  0  0  0  0  0  0  0
    9.8730    6.1620   17.5700 H   0  0  0  0  0  0  0  0  0  0  0  0
    9.4640    7.9230   17.7120 H   0  0  0  0  0  0  0  0  0  0  0  0
    7.7230    6.5890   18.7800 H   0  0  0  0  0  0  0  0  0  0  0  0
    7.5090    5.6070   17.3310 H   0  0  0  0  0  0  0  0  0  0  0  0
    7.6470    9.2610   18.2530 H   0  0  0  0  0  0  0  0  0  0  0  0
    6.0230   10.8780   17.5140 H   0  0  0  0  0  0  0  0  0  0  0  0
    4.1270   10.1920   16.0190 H   0  0  0  0  0  0  0  0  0  0  0  0
    3.9560    7.8800   15.3280 H   0  0  0  0  0  0  0  0  0  0  0  0
    5.6430    6.2080   16.1030 H   0  0  0  0  0  0  0  0  0  0  0  0
   12.1030    9.1420   11.2760 H   0  0  0  0  0  0  0  0  0  0  0  0
   13.5160    9.9240   12.7710 H   0  0  0  0  0  0  0  0  0  0  0  0
   12.7820    6.9200   10.9200 H   0  0  0  0  0  0  0  0  0  0  0  0
   12.8670    6.5380   12.6760 H   0  0  0  0  0  0  0  0  0  0  0  0
   14.0640    7.6200   11.9310 H   0  0  0  0  0  0  0  0  0  0  0  0
  2  3  1  0  0  0  0
  2  1  1  0  0  0  0
  3 32  1  0  0  0  0
  4  3  2  0  0  0  0
  5  4  1  0  0  0  0
  6  5  2  0  0  0  0
  6  7  1  0  0  0  0
  7  2  2  0  0  0  0
  8  9  1  0  0  0  0
  8  5  1  0  0  0  0
 10  9  2  0  0  0  0
 11  9  1  6  0  0  0
 11  4  1  0  0  0  0
 11 15  1  0  0  0  0
 12 11  1  0  0  0  0
 12 13  1  0  0  0  0
 13 37  1  1  0  0  0
 13 14  1  0  0  0  0
 14 38  1  1  0  0  0
 14 19  1  0  0  0  0
 15 39  1  6  0  0  0
 15 14  1  0  0  0  0
 15 16  1  0  0  0  0
 16 17  2  0  0  0  0
 16 18  1  0  0  0  0
 18 21  1  0  0  0  0
 19 20  2  0  0  0  0
 19 18  1  0  0  0  0
 21 40  1  0  0  0  0
 21 22  1  0  0  0  0
 21 41  1  0  0  0  0
 22 42  1  0  0  0  0
 23 24  1  0  0  0  0
 23 22  1  0  0  0  0
 24 44  1  0  0  0  0
 25 45  1  0  0  0  0
 25 24  2  0  0  0  0
 26 25  1  0  0  0  0
 27 26  2  0  0  0  0
 27 28  1  0  0  0  0
 28 23  2  0  0  0  0
 29 49  1  6  0  0  0
 29 13  1  0  0  0  0
 29 30  1  0  0  0  0
 31 53  1  0  0  0  0
 31 29  1  0  0  0  0
 31 52  1  0  0  0  0
 33  6  1  0  0  0  0
 34  7  1  0  0  0  0
 35  8  1  0  0  0  0
 36 12  1  0  0  0  0
 43 22  1  0  0  0  0
 46 26  1  0  0  0  0
 47 27  1  0  0  0  0
 48 28  1  0  0  0  0
 50 30  1  0  0  0  0
 51 31  1  0  0  0  0
M  END
>  <Pose>
1

>  <Score>
-6.42

$$$$
