
 OpenBabel03172210413D

 47 50  0  0  1  0  0  0  0  0999 V2000
   13.2490    7.2380   11.2340 B   0  0  0  0  0  0  0  0  0  0  0  0
   11.4380    6.6410   11.2620 C   0  0  0  0  0  0  0  0  0  0  0  0
   10.4370    7.3190   11.9210 C   0  0  0  0  0  0  0  0  0  0  0  0
    9.1150    6.8770   11.9370 C   0  0  0  0  0  0  0  0  0  0  0  0
    8.7870    5.7210   11.2740 C   0  0  0  0  0  0  0  0  0  0  0  0
    9.7730    5.0160   10.6020 C   0  0  0  0  0  0  0  0  0  0  0  0
   11.0930    5.4820   10.6020 C   0  0  0  0  0  0  0  0  0  0  0  0
    7.3880    5.4540   11.4130 N   0  0  0  0  0  0  0  0  0  0  0  0
    6.8160    6.4880   12.1960 C   0  0  0  0  0  0  0  0  0  0  0  0
    5.6040    6.5380   12.4810 O   0  0  0  0  0  0  0  0  0  0  0  0
    7.8740    7.4130   12.5680 C   0  0  2  0  0  0  0  0  0  0  0  0
    7.5300    8.7150   11.9980 N   0  0  0  0  0  0  0  0  0  0  0  0
    7.9230    9.6830   12.9790 C   0  0  2  0  0  0  0  0  0  0  0  0
    7.6130    9.0250   14.2730 C   0  0  2  0  0  0  0  0  0  0  0  0
    8.0750    7.6060   14.0410 C   0  0  1  0  0  0  0  0  0  0  0  0
    7.2300    6.7970   14.9090 C   0  0  0  0  0  0  0  0  0  0  0  0
    7.4600    5.6220   15.2680 O   0  0  0  0  0  0  0  0  0  0  0  0
    6.1010    7.5820   15.2730 N   0  0  0  0  0  0  0  0  0  0  0  0
    6.1680    8.8370   14.5560 C   0  0  0  0  0  0  0  0  0  0  0  0
    5.1610    9.5150   14.2960 O   0  0  0  0  0  0  0  0  0  0  0  0
    5.0900    7.1640   16.2010 C   0  0  0  0  0  0  0  0  0  0  0  0
    5.1990    7.7470   17.5700 C   0  0  0  0  0  0  0  0  0  0  0  0
    4.1420    7.4050   18.3970 O   0  0  0  0  0  0  0  0  0  0  0  0
    4.5830    6.8090   19.5760 C   0  0  0  0  0  0  0  0  0  0  0  0
    7.3100   11.0260   12.7790 C   0  0  0  0  0  0  0  0  0  0  0  0
    8.0700   11.7760   11.7720 C   0  0  0  0  0  0  0  0  0  0  0  0
    9.2750   12.0800   11.9970 O   0  0  0  0  0  0  0  0  0  0  0  0
    7.4660   12.1670   10.5400 N   0  0  0  0  0  0  0  0  0  0  0  0
   10.7310    8.2280   12.4340 H   0  0  0  0  0  0  0  0  0  0  0  0
    9.5010    4.1080   10.0850 H   0  0  0  0  0  0  0  0  0  0  0  0
   11.8480    4.9170   10.0710 H   0  0  0  0  0  0  0  0  0  0  0  0
    6.8950    4.6190   10.9910 H   0  0  0  0  0  0  0  0  0  0  0  0
    6.4930    8.7930   11.8680 H   0  0  0  0  0  0  0  0  0  0  0  0
    9.0370    9.8400   12.9630 H   0  0  0  0  0  0  0  0  0  0  0  0
    8.1370    9.4920   15.1380 H   0  0  0  0  0  0  0  0  0  0  0  0
    9.1530    7.5860   14.3240 H   0  0  0  0  0  0  0  0  0  0  0  0
    5.1540    6.0590   16.3220 H   0  0  0  0  0  0  0  0  0  0  0  0
    4.0720    7.4460   15.8190 H   0  0  0  0  0  0  0  0  0  0  0  0
    5.3360    8.8520   17.5630 H   0  0  0  0  0  0  0  0  0  0  0  0
    6.1180    7.3350   18.0350 H   0  0  0  0  0  0  0  0  0  0  0  0
    3.6540    6.5730   20.1680 H   0  0  0  0  0  0  0  0  0  0  0  0
    5.0890    5.8520   19.4200 H   0  0  0  0  0  0  0  0  0  0  0  0
    5.1530    7.5210   20.2150 H   0  0  0  0  0  0  0  0  0  0  0  0
    6.2340   11.0240   12.5510 H   0  0  0  0  0  0  0  0  0  0  0  0
    7.4140   11.5850   13.7460 H   0  0  0  0  0  0  0  0  0  0  0  0
    6.7180   12.8900   10.5290 H   0  0  0  0  0  0  0  0  0  0  0  0
    7.7790   11.7230    9.6530 H   0  0  0  0  0  0  0  0  0  0  0  0
  1  2  1  0  0  0  0
  2  3  1  0  0  0  0
  3  4  2  0  0  0  0
  3 29  1  0  0  0  0
  5  8  1  0  0  0  0
  5  4  1  0  0  0  0
  6  7  1  0  0  0  0
  6  5  2  0  0  0  0
  7  2  2  0  0  0  0
  8  9  1  0  0  0  0
  9 10  2  0  0  0  0
  9 11  1  0  0  0  0
 11  4  1  6  0  0  0
 11 15  1  0  0  0  0
 12 11  1  0  0  0  0
 12 13  1  0  0  0  0
 13 34  1  6  0  0  0
 13 14  1  0  0  0  0
 14 19  1  0  0  0  0
 14 35  1  1  0  0  0
 15 14  1  0  0  0  0
 15 36  1  1  0  0  0
 15 16  1  0  0  0  0
 16 17  2  0  0  0  0
 16 18  1  0  0  0  0
 18 21  1  0  0  0  0
 19 18  1  0  0  0  0
 20 19  2  0  0  0  0
 21 37  1  0  0  0  0
 21 22  1  0  0  0  0
 22 40  1  0  0  0  0
 22 23  1  0  0  0  0
 23 24  1  0  0  0  0
 24 41  1  0  0  0  0
 24 43  1  0  0  0  0
 25 13  1  0  0  0  0
 25 45  1  0  0  0  0
 26 27  2  0  0  0  0
 26 25  1  0  0  0  0
 28 26  1  0  0  0  0
 30  6  1  0  0  0  0
 31  7  1  0  0  0  0
 32  8  1  0  0  0  0
 33 12  1  0  0  0  0
 38 21  1  0  0  0  0
 39 22  1  0  0  0  0
 42 24  1  0  0  0  0
 44 25  1  0  0  0  0
 46 28  1  0  0  0  0
 47 28  1  0  0  0  0
M  END
>  <Pose>
1

>  <Score>
-5.63

$$$$
