
 OpenBabel03172210413D

 39 42  0  0  1  0  0  0  0  0999 V2000
   10.9540    6.4240   10.5150 B   0  0  0  0  0  0  0  0  0  0  0  0
   10.0310    6.4640   12.1820 C   0  0  0  0  0  0  0  0  0  0  0  0
    8.6710    6.3480   12.1720 C   0  0  0  0  0  0  0  0  0  0  0  0
    7.9750    6.3740   13.3690 C   0  0  0  0  0  0  0  0  0  0  0  0
    8.6540    6.5170   14.5720 C   0  0  0  0  0  0  0  0  0  0  0  0
   10.0290    6.6350   14.5980 C   0  0  0  0  0  0  0  0  0  0  0  0
   10.6790    6.6040   13.3850 C   0  0  0  0  0  0  0  0  0  0  0  0
    8.0520    6.5560   15.8500 N   0  0  0  0  0  0  0  0  0  0  0  0
    8.7480    6.2490   16.9510 N   0  0  0  0  0  0  0  0  0  0  0  0
    7.9170    6.3810   17.9490 N   0  0  0  0  0  0  0  0  0  0  0  0
    6.7260    6.7590   17.5130 N   0  0  0  0  0  0  0  0  0  0  0  0
    6.8060    6.8750   16.1560 C   0  0  0  0  0  0  0  0  0  0  0  0
    5.6210    7.2920   15.3280 C   0  0  2  0  0  0  0  0  0  0  0  0
    5.5300    6.4850   14.1130 N   0  0  0  0  0  0  0  0  0  0  0  0
    6.5320    6.2350   13.1350 C   0  0  0  0  0  0  0  0  0  0  0  0
    6.1610    5.8670   11.9850 O   0  0  0  0  0  0  0  0  0  0  0  0
    5.9030    8.6990   14.8770 C   0  0  0  0  0  0  0  0  0  0  0  0
    4.6270    9.3700   14.4890 C   0  0  0  0  0  0  0  0  0  0  0  0
    3.8460    9.4400   15.6130 O   0  0  0  0  0  0  0  0  0  0  0  0
    3.4130    8.2400   16.1080 C   0  0  0  0  0  0  0  0  0  0  0  0
    4.3810    7.1360   16.1290 C   0  0  0  0  0  0  0  0  0  0  0  0
    4.9230   10.8140   14.0640 C   0  0  0  0  0  0  0  0  0  0  0  0
    3.9390    8.7210   13.3180 C   0  0  0  0  0  0  0  0  0  0  0  0
    8.0850    6.2340   11.2670 H   0  0  0  0  0  0  0  0  0  0  0  0
   10.5220    6.7450   15.5540 H   0  0  0  0  0  0  0  0  0  0  0  0
   11.7510    6.6960   13.3910 H   0  0  0  0  0  0  0  0  0  0  0  0
    4.5960    6.0140   13.9150 H   0  0  0  0  0  0  0  0  0  0  0  0
    6.5700    8.6470   13.9860 H   0  0  0  0  0  0  0  0  0  0  0  0
    6.3670    9.3000   15.6870 H   0  0  0  0  0  0  0  0  0  0  0  0
    2.4850    7.9680   15.5200 H   0  0  0  0  0  0  0  0  0  0  0  0
    3.0060    8.4500   17.1430 H   0  0  0  0  0  0  0  0  0  0  0  0
    4.6400    6.9000   17.2050 H   0  0  0  0  0  0  0  0  0  0  0  0
    3.8530    6.1960   15.7900 H   0  0  0  0  0  0  0  0  0  0  0  0
    5.7490   11.2470   14.6510 H   0  0  0  0  0  0  0  0  0  0  0  0
    4.0150   11.4180   14.0220 H   0  0  0  0  0  0  0  0  0  0  0  0
    5.3030   10.7280   13.0060 H   0  0  0  0  0  0  0  0  0  0  0  0
    3.3230    9.5140   12.7990 H   0  0  0  0  0  0  0  0  0  0  0  0
    3.2050    7.9450   13.6130 H   0  0  0  0  0  0  0  0  0  0  0  0
    4.6550    8.3690   12.5640 H   0  0  0  0  0  0  0  0  0  0  0  0
  1  2  1  0  0  0  0
  2  7  1  0  0  0  0
  3  2  2  0  0  0  0
  3  4  1  0  0  0  0
  4  5  2  0  0  0  0
  5  6  1  0  0  0  0
  5  8  1  0  0  0  0
  6 25  1  0  0  0  0
  7 26  1  0  0  0  0
  7  6  2  0  0  0  0
  8 12  1  0  0  0  0
  8  9  1  0  0  0  0
  9 10  2  0  0  0  0
 11 10  1  0  0  0  0
 12 11  2  0  0  0  0
 13 21  1  0  0  0  0
 13 12  1  1  0  0  0
 14 13  1  0  0  0  0
 15  4  1  0  0  0  0
 15 14  1  0  0  0  0
 16 15  2  0  0  0  0
 17 13  1  0  0  0  0
 17 29  1  0  0  0  0
 18 17  1  0  0  0  0
 18 19  1  0  0  0  0
 19 20  1  0  0  0  0
 20 21  1  0  0  0  0
 20 31  1  0  0  0  0
 21 32  1  0  0  0  0
 22 18  1  0  0  0  0
 22 34  1  0  0  0  0
 23 38  1  0  0  0  0
 23 18  1  0  0  0  0
 24  3  1  0  0  0  0
 27 14  1  0  0  0  0
 28 17  1  0  0  0  0
 30 20  1  0  0  0  0
 33 21  1  0  0  0  0
 35 22  1  0  0  0  0
 36 22  1  0  0  0  0
 37 23  1  0  0  0  0
 39 23  1  0  0  0  0
M  END
>  <Pose>
1

>  <Score>
-5.78

$$$$
