
 OpenBabel03172210413D

 37 40  0  0  0  0  0  0  0  0999 V2000
   10.8330   -0.0840    8.3650 B   0  0  0  0  0  0  0  0  0  0  0  0
   12.0420    1.0670    9.3150 C   0  0  0  0  0  0  0  0  0  0  0  0
   13.3900    1.0550    9.0250 C   0  0  0  0  0  0  0  0  0  0  0  0
   14.2540    1.8840    9.7100 C   0  0  0  0  0  0  0  0  0  0  0  0
   13.8320    2.7500   10.7000 C   0  0  0  0  0  0  0  0  0  0  0  0
   12.4680    2.7480   10.9810 C   0  0  0  0  0  0  0  0  0  0  0  0
   11.5980    1.9230   10.3000 C   0  0  0  0  0  0  0  0  0  0  0  0
   14.5740    3.6530   11.4880 N   0  0  0  0  0  0  0  0  0  0  0  0
   14.0970    4.2350   12.5760 N   0  0  0  0  0  0  0  0  0  0  0  0
   15.0480    5.0150   13.0660 N   0  0  0  0  0  0  0  0  0  0  0  0
   16.1050    4.9210   12.2950 N   0  0  0  0  0  0  0  0  0  0  0  0
   15.8420    4.0630   11.2790 C   0  0  0  0  0  0  0  0  0  0  0  0
   16.8570    3.7750   10.2650 C   0  0  0  0  0  0  0  0  0  0  0  0
   16.7910    2.5000    9.6380 N   0  0  0  0  0  0  0  0  0  0  0  0
   15.6460    1.7450    9.2770 C   0  0  0  0  0  0  0  0  0  0  0  0
   15.7840    0.7940    8.4610 O   0  0  0  0  0  0  0  0  0  0  0  0
   16.8340    4.8140    9.1330 C   0  0  0  0  0  0  0  0  0  0  0  0
   18.2410    5.0140    8.6300 C   0  0  0  0  0  0  0  0  0  0  0  0
   18.9280    5.8550    9.5830 N   0  0  0  0  0  0  0  0  0  0  0  0
   18.7020    5.3440   10.9090 C   0  0  0  0  0  0  0  0  0  0  0  0
   18.2270    3.9120   10.9210 C   0  0  0  0  0  0  0  0  0  0  0  0
   18.4060    7.2130    9.4310 C   0  0  0  0  0  0  0  0  0  0  0  0
   13.8060    0.4060    8.2610 H   0  0  0  0  0  0  0  0  0  0  0  0
   12.1320    3.4240   11.7550 H   0  0  0  0  0  0  0  0  0  0  0  0
   10.5470    1.9440   10.5380 H   0  0  0  0  0  0  0  0  0  0  0  0
   17.7100    2.0650    9.4150 H   0  0  0  0  0  0  0  0  0  0  0  0
   16.2430    4.4170    8.2630 H   0  0  0  0  0  0  0  0  0  0  0  0
   16.3390    5.7230    9.4670 H   0  0  0  0  0  0  0  0  0  0  0  0
   18.7380    4.0310    8.5940 H   0  0  0  0  0  0  0  0  0  0  0  0
   18.2440    5.4360    7.6240 H   0  0  0  0  0  0  0  0  0  0  0  0
   18.0320    6.0250   11.4400 H   0  0  0  0  0  0  0  0  0  0  0  0
   19.6750    5.3620   11.4390 H   0  0  0  0  0  0  0  0  0  0  0  0
   18.9810    3.2610   10.4820 H   0  0  0  0  0  0  0  0  0  0  0  0
   18.1050    3.6210   11.9860 H   0  0  0  0  0  0  0  0  0  0  0  0
   17.9180    7.4760   10.3960 H   0  0  0  0  0  0  0  0  0  0  0  0
   19.2050    7.9360    9.1670 H   0  0  0  0  0  0  0  0  0  0  0  0
   17.6530    7.2670    8.6080 H   0  0  0  0  0  0  0  0  0  0  0  0
  1  2  1  0  0  0  0
  2  7  1  0  0  0  0
  3  2  2  0  0  0  0
  3  4  1  0  0  0  0
  4  5  2  0  0  0  0
  5  6  1  0  0  0  0
  5  8  1  0  0  0  0
  6 24  1  0  0  0  0
  7 25  1  0  0  0  0
  7  6  2  0  0  0  0
  8  9  1  0  0  0  0
  9 10  2  0  0  0  0
 11 10  1  0  0  0  0
 12  8  1  0  0  0  0
 12 11  2  0  0  0  0
 13 21  1  0  0  0  0
 13 12  1  0  0  0  0
 14 13  1  0  0  0  0
 15 14  1  0  0  0  0
 15  4  1  0  0  0  0
 16 15  2  0  0  0  0
 17 28  1  0  0  0  0
 17 13  1  0  0  0  0
 18 17  1  0  0  0  0
 18 19  1  0  0  0  0
 19 20  1  0  0  0  0
 20 21  1  0  0  0  0
 20 32  1  0  0  0  0
 20 31  1  0  0  0  0
 21 34  1  0  0  0  0
 22 19  1  0  0  0  0
 22 35  1  0  0  0  0
 23  3  1  0  0  0  0
 26 14  1  0  0  0  0
 27 17  1  0  0  0  0
 29 18  1  0  0  0  0
 30 18  1  0  0  0  0
 33 21  1  0  0  0  0
 36 22  1  0  0  0  0
 37 22  1  0  0  0  0
M  END
>  <Pose>
1

>  <Score>
-5.25

$$$$
