
 OpenBabel03172210413D

 33 36  0  0  1  0  0  0  0  0999 V2000
    7.6070   11.0070   18.9970 B   0  0  0  0  0  0  0  0  0  0  0  0
    7.8600   10.6340   17.1520 C   0  0  0  0  0  0  0  0  0  0  0  0
    6.8160   10.1270   16.4300 C   0  0  0  0  0  0  0  0  0  0  0  0
    7.0040    9.8520   15.0710 C   0  0  0  0  0  0  0  0  0  0  0  0
    8.2150   10.0980   14.5140 C   0  0  0  0  0  0  0  0  0  0  0  0
    9.2900   10.6210   15.2630 C   0  0  0  0  0  0  0  0  0  0  0  0
    9.1020   10.8890   16.5970 C   0  0  0  0  0  0  0  0  0  0  0  0
    8.4510    9.8440   13.1750 O   0  0  0  0  0  0  0  0  0  0  0  0
    7.4250    9.3320   12.4110 C   0  0  0  0  0  0  0  0  0  0  0  0
    6.2280    9.0700   12.8790 C   0  0  0  0  0  0  0  0  0  0  0  0
    5.8860    9.3040   14.2750 C   0  0  1  0  0  0  0  0  0  0  0  0
    5.2870    8.1160   14.9280 C   0  0  0  0  0  0  0  0  0  0  0  0
    4.0050    8.4190   15.2940 C   0  0  0  0  0  0  0  0  0  0  0  0
    3.4570    7.3220   15.8950 N   0  0  0  0  0  0  0  0  0  0  0  0
    4.3900    6.3870   15.8870 N   0  0  0  0  0  0  0  0  0  0  0  0
    5.5170    6.8240   15.3110 C   0  0  0  0  0  0  0  0  0  0  0  0
    6.7540    6.0010   15.1500 C   0  0  0  0  0  0  0  0  0  0  0  0
    3.6730    9.7440   14.9360 N   0  0  0  0  0  0  0  0  0  0  0  0
    4.8000   10.3080   14.3140 C   0  0  0  0  0  0  0  0  0  0  0  0
    4.9080   11.4750   13.8520 O   0  0  0  0  0  0  0  0  0  0  0  0
    5.2040    8.5340   12.0140 C   0  0  0  0  0  0  0  0  0  0  0  0
    4.3760    8.1230   11.3160 N   0  0  0  0  0  0  0  0  0  0  0  0
    7.6860    9.0730   11.0210 N   0  0  0  0  0  0  0  0  0  0  0  0
    5.8370    9.9170   16.8290 H   0  0  0  0  0  0  0  0  0  0  0  0
   10.2490   10.8080   14.7890 H   0  0  0  0  0  0  0  0  0  0  0  0
    9.8790   11.2910   17.2310 H   0  0  0  0  0  0  0  0  0  0  0  0
    4.2150    5.4310   16.2990 H   0  0  0  0  0  0  0  0  0  0  0  0
    7.5540    6.5970   14.7010 H   0  0  0  0  0  0  0  0  0  0  0  0
    6.5020    5.0970   14.5420 H   0  0  0  0  0  0  0  0  0  0  0  0
    7.1130    5.6060   16.1340 H   0  0  0  0  0  0  0  0  0  0  0  0
    2.7250   10.2130   15.1180 H   0  0  0  0  0  0  0  0  0  0  0  0
    7.3360    9.7400   10.3000 H   0  0  0  0  0  0  0  0  0  0  0  0
    8.2190    8.2340   10.6990 H   0  0  0  0  0  0  0  0  0  0  0  0
  2  1  1  0  0  0  0
  3 24  1  0  0  0  0
  3  2  2  0  0  0  0
  4  3  1  0  0  0  0
  5  4  2  0  0  0  0
  5  6  1  0  0  0  0
  6  7  2  0  0  0  0
  7  2  1  0  0  0  0
  7 26  1  0  0  0  0
  8  5  1  0  0  0  0
  9 10  2  0  0  0  0
  9  8  1  0  0  0  0
 11 10  1  6  0  0  0
 11 19  1  0  0  0  0
 11 12  1  0  0  0  0
 11  4  1  0  0  0  0
 12 13  1  0  0  0  0
 12 16  2  0  0  0  0
 13 14  2  0  0  0  0
 15 14  1  0  0  0  0
 15 27  1  0  0  0  0
 16 15  1  0  0  0  0
 17 16  1  0  0  0  0
 17 30  1  0  0  0  0
 18 31  1  0  0  0  0
 18 13  1  0  0  0  0
 19 18  1  0  0  0  0
 20 19  2  0  0  0  0
 21 10  1  0  0  0  0
 22 21  3  0  0  0  0
 23  9  1  0  0  0  0
 25  6  1  0  0  0  0
 28 17  1  0  0  0  0
 29 17  1  0  0  0  0
 32 23  1  0  0  0  0
 33 23  1  0  0  0  0
M  END
>  <Pose>
1

>  <Score>
-5.66

$$$$
