
 OpenBabel03172210413D

 44 47  0  0  0  0  0  0  0  0999 V2000
    7.4120    6.5120   15.5770 B   0  0  0  0  0  0  0  0  0  0  0  0
    8.1840    6.2840   13.8620 C   0  0  0  0  0  0  0  0  0  0  0  0
    9.3960    5.6390   13.6950 C   0  0  0  0  0  0  0  0  0  0  0  0
    9.9910    5.4400   12.4630 C   0  0  0  0  0  0  0  0  0  0  0  0
    9.3280    5.9130   11.3480 C   0  0  0  0  0  0  0  0  0  0  0  0
    8.1090    6.5670   11.4530 C   0  0  0  0  0  0  0  0  0  0  0  0
    7.5530    6.7460   12.6980 C   0  0  0  0  0  0  0  0  0  0  0  0
    9.8800    5.7340   10.1470 O   0  0  0  0  0  0  0  0  0  0  0  0
   11.0060    5.1390    9.9700 C   0  0  0  0  0  0  0  0  0  0  0  0
   11.5380    4.9630    8.8300 O   0  0  0  0  0  0  0  0  0  0  0  0
   11.7190    4.6450   11.0420 C   0  0  0  0  0  0  0  0  0  0  0  0
   11.1960    4.8030   12.3060 C   0  0  0  0  0  0  0  0  0  0  0  0
   13.0160    4.0000   10.8470 C   0  0  0  0  0  0  0  0  0  0  0  0
   13.1680    2.9590    9.9450 C   0  0  0  0  0  0  0  0  0  0  0  0
   14.4090    2.3980    9.7300 C   0  0  0  0  0  0  0  0  0  0  0  0
   14.4680    1.4490    8.8860 O   0  0  0  0  0  0  0  0  0  0  0  0
   15.4530    2.8310   10.3670 O   0  0  0  0  0  0  0  0  0  0  0  0
   15.3810    3.7870   11.2120 C   0  0  0  0  0  0  0  0  0  0  0  0
   14.1540    4.4170   11.4920 C   0  0  0  0  0  0  0  0  0  0  0  0
   14.1060    5.4260   12.4090 C   0  0  0  0  0  0  0  0  0  0  0  0
   15.3010    5.7980   13.0350 C   0  0  0  0  0  0  0  0  0  0  0  0
   16.4900    5.1630   12.7350 C   0  0  0  0  0  0  0  0  0  0  0  0
   16.5730    4.1390   11.8180 C   0  0  0  0  0  0  0  0  0  0  0  0
   17.8620    3.5950   11.4870 C   0  0  0  0  0  0  0  0  0  0  0  0
   18.8100    4.2470   10.6790 N   0  0  0  0  0  4  0  0  0  0  0  0
   18.6010    5.6410   10.4000 C   0  0  0  0  0  0  0  0  0  0  0  0
   20.2050    3.9510   11.0950 C   0  0  0  0  0  0  0  0  0  0  0  0
   17.6370    5.6180   13.4200 O   0  0  0  0  0  0  0  0  0  0  0  0
    9.9380    5.2420   14.5660 H   0  0  0  0  0  0  0  0  0  0  0  0
    7.6520    6.9190   10.5420 H   0  0  0  0  0  0  0  0  0  0  0  0
    6.6060    7.2490   12.8560 H   0  0  0  0  0  0  0  0  0  0  0  0
   11.7260    4.4500   13.2150 H   0  0  0  0  0  0  0  0  0  0  0  0
   12.2790    2.5990    9.4290 H   0  0  0  0  0  0  0  0  0  0  0  0
   13.1720    5.9080   12.6680 H   0  0  0  0  0  0  0  0  0  0  0  0
   15.2310    6.6070   13.7490 H   0  0  0  0  0  0  0  0  0  0  0  0
   17.6480    2.5940   10.9490 H   0  0  0  0  0  0  0  0  0  0  0  0
   18.3800    3.2150   12.4130 H   0  0  0  0  0  0  0  0  0  0  0  0
   18.7560    3.7980    9.7190 H   0  0  0  0  0  0  0  0  0  0  0  0
   19.2070    6.3290   11.0450 H   0  0  0  0  0  0  0  0  0  0  0  0
   17.5320    5.9530   10.3750 H   0  0  0  0  0  0  0  0  0  0  0  0
   18.9690    5.9350    9.3570 H   0  0  0  0  0  0  0  0  0  0  0  0
   20.2140    3.3150   12.0180 H   0  0  0  0  0  0  0  0  0  0  0  0
   20.7350    3.2920   10.3590 H   0  0  0  0  0  0  0  0  0  0  0  0
   20.7940    4.8700   11.1570 H   0  0  0  0  0  0  0  0  0  0  0  0
  2  1  1  0  0  0  0
  3  2  1  0  0  0  0
  3 29  1  0  0  0  0
  4  3  2  0  0  0  0
  5  6  2  0  0  0  0
  5  4  1  0  0  0  0
  6  7  1  0  0  0  0
  7 31  1  0  0  0  0
  7  2  2  0  0  0  0
  8  5  1  0  0  0  0
  9  8  1  0  0  0  0
  9 11  1  0  0  0  0
 10  9  2  0  0  0  0
 11 12  2  0  0  0  0
 12  4  1  0  0  0  0
 12 32  1  0  0  0  0
 13 11  1  0  0  0  0
 13 19  1  0  0  0  0
 14 13  2  0  0  0  0
 15 14  1  0  0  0  0
 15 17  1  0  0  0  0
 16 15  2  0  0  0  0
 17 18  1  0  0  0  0
 18 19  2  0  0  0  0
 18 23  1  0  0  0  0
 19 20  1  0  0  0  0
 20 34  1  0  0  0  0
 20 21  2  0  0  0  0
 21 35  1  0  0  0  0
 22 21  1  0  0  0  0
 22 28  1  0  0  0  0
 23 22  2  0  0  0  0
 24 23  1  0  0  0  0
 24 37  1  0  0  0  0
 25 27  1  0  0  0  0
 25 24  1  0  0  0  0
 26 25  1  0  0  0  0
 26 39  1  0  0  0  0
 27 44  1  0  0  0  0
 27 42  1  0  0  0  0
 30  6  1  0  0  0  0
 33 14  1  0  0  0  0
 36 24  1  0  0  0  0
 38 25  1  0  0  0  0
 40 26  1  0  0  0  0
 41 26  1  0  0  0  0
 43 27  1  0  0  0  0
M  END
>  <Pose>
1

>  <Score>
-5.95

$$$$
