
 OpenBabel03172210413D

 51 54  0  0  0  0  0  0  0  0999 V2000
   14.7460    1.5220    8.2530 B   0  0  0  0  0  0  0  0  0  0  0  0
   15.1350    2.6600    9.7350 C   0  0  0  0  0  0  0  0  0  0  0  0
   14.1630    3.5130   10.2500 C   0  0  0  0  0  0  0  0  0  0  0  0
   14.4440    4.3400   11.3290 C   0  0  0  0  0  0  0  0  0  0  0  0
   15.6970    4.3220   11.9020 C   0  0  0  0  0  0  0  0  0  0  0  0
   15.9730    5.1270   12.9590 N   0  0  0  0  0  0  0  0  0  0  0  0
   15.0500    5.9570   13.4770 C   0  0  0  0  0  0  0  0  0  0  0  0
   13.8390    5.9610   12.9080 N   0  0  0  0  0  0  0  0  0  0  0  0
   13.4960    5.1910   11.8590 C   0  0  0  0  0  0  0  0  0  0  0  0
   12.1500    5.2710   11.3140 C   0  0  0  0  0  0  0  0  0  0  0  0
   11.2680    4.2100   11.4660 C   0  0  0  0  0  0  0  0  0  0  0  0
    9.9800    4.2540   10.9760 C   0  0  0  0  0  0  0  0  0  0  0  0
    9.5110    5.3660   10.3080 C   0  0  0  0  0  0  0  0  0  0  0  0
   10.3960    6.4270   10.1570 C   0  0  0  0  0  0  0  0  0  0  0  0
   11.6810    6.3750   10.6490 C   0  0  0  0  0  0  0  0  0  0  0  0
   11.8400    2.7730   12.3160 Cl  0  0  0  0  0  0  0  0  0  0  0  0
   15.3770    6.7910   14.5960 N   0  0  0  0  0  4  0  0  0  0  0  0
   15.1390    8.1700   14.2690 C   0  0  0  0  0  0  0  0  0  0  0  0
   16.1640    8.7770   13.3710 C   0  0  0  0  0  0  0  0  0  0  0  0
   17.3530    7.9630   13.2570 N   0  0  0  0  0  0  0  0  0  0  0  0
   17.7920    7.2800   14.4540 C   0  0  0  0  0  0  0  0  0  0  0  0
   16.6810    6.5370   15.1280 C   0  0  0  0  0  0  0  0  0  0  0  0
   18.0050    7.8840   12.0030 C   0  0  0  0  0  0  0  0  0  0  0  0
   18.0060    8.8560   11.2160 O   0  0  0  0  0  0  0  0  0  0  0  0
   18.6800    6.5930   11.6830 C   0  0  0  0  0  0  0  0  0  0  0  0
   20.1530    6.7780   11.4730 C   0  0  0  0  0  0  0  0  0  0  0  0
   20.5830    6.5110   10.0920 C   0  0  0  0  0  0  0  0  0  0  0  0
   19.8020    6.6450    9.1280 O   0  0  0  0  0  0  0  0  0  0  0  0
   21.8790    6.1020    9.8550 O   0  0  0  0  0  0  0  0  0  0  0  0
   16.6500    3.4630   11.3700 C   0  0  0  0  0  0  0  0  0  0  0  0
   16.3920    2.6340   10.3000 C   0  0  0  0  0  0  0  0  0  0  0  0
   13.1920    3.5260    9.8140 H   0  0  0  0  0  0  0  0  0  0  0  0
    9.2940    3.4270   11.0940 H   0  0  0  0  0  0  0  0  0  0  0  0
    8.4990    5.4100    9.9190 H   0  0  0  0  0  0  0  0  0  0  0  0
   10.0500    7.3070    9.6360 H   0  0  0  0  0  0  0  0  0  0  0  0
   12.3100    7.2340   10.5010 H   0  0  0  0  0  0  0  0  0  0  0  0
   14.6490    6.5420   15.3300 H   0  0  0  0  0  0  0  0  0  0  0  0
   14.1310    8.2480   13.8230 H   0  0  0  0  0  0  0  0  0  0  0  0
   15.1100    8.7270   15.2410 H   0  0  0  0  0  0  0  0  0  0  0  0
   16.5050    9.7580   13.8060 H   0  0  0  0  0  0  0  0  0  0  0  0
   15.7010    8.9880   12.3870 H   0  0  0  0  0  0  0  0  0  0  0  0
   18.6590    6.6150   14.2620 H   0  0  0  0  0  0  0  0  0  0  0  0
   18.1100    8.1060   15.1560 H   0  0  0  0  0  0  0  0  0  0  0  0
   16.6430    6.7960   16.2220 H   0  0  0  0  0  0  0  0  0  0  0  0
   16.8640    5.4390   15.0680 H   0  0  0  0  0  0  0  0  0  0  0  0
   18.5440    5.9120   12.5490 H   0  0  0  0  0  0  0  0  0  0  0  0
   18.2150    6.0920   10.8100 H   0  0  0  0  0  0  0  0  0  0  0  0
   20.6800    6.0440   12.1320 H   0  0  0  0  0  0  0  0  0  0  0  0
   20.4640    7.7890   11.8070 H   0  0  0  0  0  0  0  0  0  0  0  0
   17.6220    3.4480   11.8100 H   0  0  0  0  0  0  0  0  0  0  0  0
   17.1210    1.9580    9.8720 H   0  0  0  0  0  0  0  0  0  0  0  0
  1  2  1  0  0  0  0
  2  3  2  0  0  0  0
  2 31  1  0  0  0  0
  3  4  1  0  0  0  0
  4  9  1  0  0  0  0
  4  5  2  0  0  0  0
  5  6  1  0  0  0  0
  6  7  2  0  0  0  0
  7 17  1  0  0  0  0
  8  7  1  0  0  0  0
  9  8  2  0  0  0  0
 10 11  1  0  0  0  0
 10  9  1  0  0  0  0
 11 16  1  0  0  0  0
 12 33  1  0  0  0  0
 12 11  2  0  0  0  0
 13 12  1  0  0  0  0
 14 13  2  0  0  0  0
 14 15  1  0  0  0  0
 15 10  2  0  0  0  0
 17 22  1  0  0  0  0
 17 37  1  0  0  0  0
 18 17  1  0  0  0  0
 18 39  1  0  0  0  0
 19 40  1  0  0  0  0
 19 18  1  0  0  0  0
 20 19  1  0  0  0  0
 20 21  1  0  0  0  0
 21 22  1  0  0  0  0
 21 43  1  0  0  0  0
 22 44  1  0  0  0  0
 23 20  1  0  0  0  0
 24 23  2  0  0  0  0
 25 23  1  0  0  0  0
 25 46  1  0  0  0  0
 26 25  1  0  0  0  0
 26 49  1  0  0  0  0
 26 48  1  0  0  0  0
 27 26  1  0  0  0  0
 28 27  2  0  0  0  0
 29 27  1  0  0  0  0
 30 50  1  0  0  0  0
 30  5  1  0  0  0  0
 31 30  2  0  0  0  0
 32  3  1  0  0  0  0
 34 13  1  0  0  0  0
 35 14  1  0  0  0  0
 36 15  1  0  0  0  0
 38 18  1  0  0  0  0
 41 19  1  0  0  0  0
 42 21  1  0  0  0  0
 45 22  1  0  0  0  0
 47 25  1  0  0  0  0
 51 31  1  0  0  0  0
M  END
>  <Pose>
1

>  <Score>
-5.16

$$$$
