
 OpenBabel03172210413D

 54 57  0  0  0  0  0  0  0  0999 V2000
   11.0250   -0.9560    8.1010 B   0  0  0  0  0  0  0  0  0  0  0  0
   12.5420    0.1140    8.5610 C   0  0  0  0  0  0  0  0  0  0  0  0
   12.4670    1.1300    9.4970 C   0  0  0  0  0  0  0  0  0  0  0  0
   13.5410    1.9170    9.8500 C   0  0  0  0  0  0  0  0  0  0  0  0
   14.7700    1.7050    9.2550 C   0  0  0  0  0  0  0  0  0  0  0  0
   15.8380    2.4740    9.5820 N   0  0  0  0  0  0  0  0  0  0  0  0
   15.7630    3.4650   10.4860 C   0  0  0  0  0  0  0  0  0  0  0  0
   14.5680    3.6720   11.0670 N   0  0  0  0  0  0  0  0  0  0  0  0
   13.4710    2.9330   10.7760 C   0  0  0  0  0  0  0  0  0  0  0  0
   12.2020    3.2020   11.4330 C   0  0  0  0  0  0  0  0  0  0  0  0
   11.3610    4.2220   11.0140 C   0  0  0  0  0  0  0  0  0  0  0  0
   10.1610    4.5000   11.6430 C   0  0  0  0  0  0  0  0  0  0  0  0
    9.8080    3.7050   12.7400 C   0  0  0  0  0  0  0  0  0  0  0  0
   10.6210    2.6820   13.1830 C   0  0  0  0  0  0  0  0  0  0  0  0
   11.7910    2.4460   12.5350 C   0  0  0  0  0  0  0  0  0  0  0  0
   11.8290    5.2040    9.6350 Cl  0  0  0  0  0  0  0  0  0  0  0  0
   16.9050    4.2510   10.8050 N   0  0  0  0  0  4  0  0  0  0  0  0
   17.9970    3.4200   11.2600 C   0  0  0  0  0  0  0  0  0  0  0  0
   19.2680    4.2000   11.1460 C   0  0  0  0  0  0  0  0  0  0  0  0
   18.9390    5.6000   10.9770 N   0  0  0  0  0  0  0  0  0  0  0  0
   17.9030    6.1470   11.8340 C   0  0  0  0  0  0  0  0  0  0  0  0
   16.6610    5.2470   11.8160 C   0  0  0  0  0  0  0  0  0  0  0  0
   19.6250    6.3510   10.0080 C   0  0  0  0  0  0  0  0  0  0  0  0
   19.3920    6.1020    8.7990 O   0  0  0  0  0  0  0  0  0  0  0  0
   20.5890    7.3960   10.3590 C   0  0  0  0  0  0  0  0  0  0  0  0
   21.9870    6.8600   10.2440 C   0  0  0  0  0  0  0  0  0  0  0  0
   23.0380    7.9360   10.4110 C   0  0  0  0  0  0  0  0  0  0  0  0
   23.5090    8.4900    9.1260 C   0  0  0  0  0  0  0  0  0  0  0  0
   22.7110    9.2090    8.4800 O   0  0  0  0  0  0  0  0  0  0  0  0
   24.7910    8.2090    8.6760 O   0  0  0  0  0  0  0  0  0  0  0  0
   14.8550    0.6950    8.3220 C   0  0  0  0  0  0  0  0  0  0  0  0
   13.7680   -0.0960    7.9690 C   0  0  0  0  0  0  0  0  0  0  0  0
   11.4960    1.2880    9.9440 H   0  0  0  0  0  0  0  0  0  0  0  0
    9.5050    5.2990   11.3110 H   0  0  0  0  0  0  0  0  0  0  0  0
    8.8570    3.9300   13.2340 H   0  0  0  0  0  0  0  0  0  0  0  0
   10.3330    2.0660   14.0410 H   0  0  0  0  0  0  0  0  0  0  0  0
   12.4340    1.6500   12.8800 H   0  0  0  0  0  0  0  0  0  0  0  0
   17.1890    4.7470    9.9340 H   0  0  0  0  0  0  0  0  0  0  0  0
   18.0010    2.5130   10.6200 H   0  0  0  0  0  0  0  0  0  0  0  0
   17.7610    3.1060   12.2990 H   0  0  0  0  0  0  0  0  0  0  0  0
   19.8310    3.8030   10.2740 H   0  0  0  0  0  0  0  0  0  0  0  0
   19.9020    4.0520   12.0460 H   0  0  0  0  0  0  0  0  0  0  0  0
   18.2990    6.1090   12.8710 H   0  0  0  0  0  0  0  0  0  0  0  0
   17.6610    7.1900   11.6170 H   0  0  0  0  0  0  0  0  0  0  0  0
   16.4520    4.8220   12.8040 H   0  0  0  0  0  0  0  0  0  0  0  0
   15.8170    5.8920   11.5410 H   0  0  0  0  0  0  0  0  0  0  0  0
   20.5370    8.2810    9.6610 H   0  0  0  0  0  0  0  0  0  0  0  0
   20.3970    7.8270   11.3630 H   0  0  0  0  0  0  0  0  0  0  0  0
   22.2000    6.1020   11.0410 H   0  0  0  0  0  0  0  0  0  0  0  0
   22.1540    6.3490    9.2850 H   0  0  0  0  0  0  0  0  0  0  0  0
   23.9030    7.4730   10.9240 H   0  0  0  0  0  0  0  0  0  0  0  0
   22.6390    8.7330   11.0880 H   0  0  0  0  0  0  0  0  0  0  0  0
   15.8170    0.5270    7.8540 H   0  0  0  0  0  0  0  0  0  0  0  0
   13.8240   -0.8890    7.2420 H   0  0  0  0  0  0  0  0  0  0  0  0
  1  2  1  0  0  0  0
  2  3  1  0  0  0  0
  3  4  2  0  0  0  0
  3 33  1  0  0  0  0
  4  9  1  0  0  0  0
  5  6  1  0  0  0  0
  5  4  1  0  0  0  0
  6  7  2  0  0  0  0
  7 17  1  0  0  0  0
  7  8  1  0  0  0  0
  9  8  2  0  0  0  0
  9 10  1  0  0  0  0
 10 15  1  0  0  0  0
 11 10  2  0  0  0  0
 11 12  1  0  0  0  0
 12 13  2  0  0  0  0
 13 14  1  0  0  0  0
 13 35  1  0  0  0  0
 14 36  1  0  0  0  0
 15 37  1  0  0  0  0
 15 14  2  0  0  0  0
 16 11  1  0  0  0  0
 17 18  1  0  0  0  0
 17 22  1  0  0  0  0
 18 40  1  0  0  0  0
 19 18  1  0  0  0  0
 19 42  1  0  0  0  0
 20 19  1  0  0  0  0
 20 21  1  0  0  0  0
 21 43  1  0  0  0  0
 22 21  1  0  0  0  0
 22 45  1  0  0  0  0
 23 25  1  0  0  0  0
 23 20  1  0  0  0  0
 24 23  2  0  0  0  0
 25 48  1  0  0  0  0
 26 25  1  0  0  0  0
 26 27  1  0  0  0  0
 26 49  1  0  0  0  0
 27 51  1  0  0  0  0
 27 52  1  0  0  0  0
 28 27  1  0  0  0  0
 29 28  2  0  0  0  0
 30 28  1  0  0  0  0
 31  5  2  0  0  0  0
 32 31  1  0  0  0  0
 32  2  2  0  0  0  0
 34 12  1  0  0  0  0
 38 17  1  0  0  0  0
 39 18  1  0  0  0  0
 41 19  1  0  0  0  0
 44 21  1  0  0  0  0
 46 22  1  0  0  0  0
 47 25  1  0  0  0  0
 50 26  1  0  0  0  0
 53 31  1  0  0  0  0
 54 32  1  0  0  0  0
M  END
>  <Pose>
1

>  <Score>
-6.35

$$$$
