
 OpenBabel03172210413D

 50 53  0  0  0  0  0  0  0  0999 V2000
   11.2620   -0.5710    8.6180 B   0  0  0  0  0  0  0  0  0  0  0  0
   12.8780    0.4530    8.7540 C   0  0  0  0  0  0  0  0  0  0  0  0
   13.1460    1.2440    9.8410 C   0  0  0  0  0  0  0  0  0  0  0  0
   14.3260    1.9870    9.9320 C   0  0  0  0  0  0  0  0  0  0  0  0
   15.2430    1.9320    8.9190 C   0  0  0  0  0  0  0  0  0  0  0  0
   16.2970    2.7410    9.2470 N   0  0  0  0  0  0  0  0  0  0  0  0
   16.1070    3.3240   10.4340 C   0  0  0  0  0  0  0  0  0  0  0  0
   14.8470    2.8370   10.8650 C   0  0  0  0  0  0  0  0  0  0  0  0
   16.9120    4.2550   11.2000 C   0  0  0  0  0  0  0  0  0  0  0  0
   16.5480    4.5330   12.4050 O   0  0  0  0  0  0  0  0  0  0  0  0
   18.0670    4.8980   10.7540 N   0  0  0  0  0  0  0  0  0  0  0  0
   18.1550    5.8500    9.6790 C   0  0  0  0  0  0  0  0  0  0  0  0
   19.5780    6.3970    9.5050 C   0  0  0  0  0  0  0  0  0  0  0  0
   20.0820    6.7970   10.8100 N   0  0  0  0  0  0  0  0  0  0  0  0
   19.8630    5.9320   11.9700 C   0  0  0  0  0  0  0  0  0  0  0  0
   19.3660    4.5960   11.4120 C   0  0  0  0  0  0  0  0  0  0  0  0
   20.7800    8.0120   10.9830 C   0  0  0  0  0  0  0  0  0  0  0  0
   21.9170    8.0990   10.4610 O   0  0  0  0  0  0  0  0  0  0  0  0
   20.1630    9.0880   11.7420 C   0  0  0  0  0  0  0  0  0  0  0  0
   18.9820    9.6640   11.1380 N   0  0  0  0  0  0  0  0  0  0  0  0
   18.8980   11.0770   11.5120 C   0  0  0  0  0  0  0  0  0  0  0  0
   17.9900   11.2710   12.6770 C   0  0  0  0  0  0  0  0  0  0  0  0
   18.0880   10.2000   13.5620 O   0  0  0  0  0  0  0  0  0  0  0  0
   17.5360    9.0390   13.0160 C   0  0  0  0  0  0  0  0  0  0  0  0
   17.7600    8.9790   11.5220 C   0  0  0  0  0  0  0  0  0  0  0  0
   14.9810    1.1370    7.8190 C   0  0  0  0  0  0  0  0  0  0  0  0
   13.8070    0.4030    7.7370 C   0  0  0  0  0  0  0  0  0  0  0  0
   12.4390    1.3050   10.6570 H   0  0  0  0  0  0  0  0  0  0  0  0
   17.1050    2.8390    8.6150 H   0  0  0  0  0  0  0  0  0  0  0  0
   14.3790    3.1020   11.7900 H   0  0  0  0  0  0  0  0  0  0  0  0
   17.4790    6.7050    9.9510 H   0  0  0  0  0  0  0  0  0  0  0  0
   17.9110    5.3750    8.7160 H   0  0  0  0  0  0  0  0  0  0  0  0
   20.2480    5.6270    9.0830 H   0  0  0  0  0  0  0  0  0  0  0  0
   19.5240    7.2500    8.8320 H   0  0  0  0  0  0  0  0  0  0  0  0
   20.8140    5.7480   12.5180 H   0  0  0  0  0  0  0  0  0  0  0  0
   19.0960    6.3120   12.6540 H   0  0  0  0  0  0  0  0  0  0  0  0
   20.0700    4.1780   10.6800 H   0  0  0  0  0  0  0  0  0  0  0  0
   19.2150    3.8820   12.2210 H   0  0  0  0  0  0  0  0  0  0  0  0
   20.9120    9.9260   11.8040 H   0  0  0  0  0  0  0  0  0  0  0  0
   19.9280    8.8200   12.7940 H   0  0  0  0  0  0  0  0  0  0  0  0
   19.9180   11.4330   11.7960 H   0  0  0  0  0  0  0  0  0  0  0  0
   18.5700   11.6460   10.6200 H   0  0  0  0  0  0  0  0  0  0  0  0
   18.3330   12.1770   13.2270 H   0  0  0  0  0  0  0  0  0  0  0  0
   16.9190   11.3970   12.3850 H   0  0  0  0  0  0  0  0  0  0  0  0
   17.9170    8.1770   13.5680 H   0  0  0  0  0  0  0  0  0  0  0  0
   16.4420    9.0910   13.1860 H   0  0  0  0  0  0  0  0  0  0  0  0
   17.7410    7.9540   11.1860 H   0  0  0  0  0  0  0  0  0  0  0  0
   16.9300    9.5370   11.0400 H   0  0  0  0  0  0  0  0  0  0  0  0
   15.7150    1.0950    7.0100 H   0  0  0  0  0  0  0  0  0  0  0  0
   13.5960   -0.2290    6.8660 H   0  0  0  0  0  0  0  0  0  0  0  0
  1  2  1  0  0  0  0
  2  3  1  0  0  0  0
  3  4  2  0  0  0  0
  3 28  1  0  0  0  0
  4  8  1  0  0  0  0
  5  6  1  0  0  0  0
  5  4  1  0  0  0  0
  6  7  1  0  0  0  0
  7  8  2  0  0  0  0
  7  9  1  0  0  0  0
  8 30  1  0  0  0  0
  9 10  2  0  0  0  0
 11  9  1  0  0  0  0
 11 16  1  0  0  0  0
 12 31  1  0  0  0  0
 12 11  1  0  0  0  0
 13 12  1  0  0  0  0
 13 14  1  0  0  0  0
 14 17  1  0  0  0  0
 14 15  1  0  0  0  0
 15 35  1  0  0  0  0
 15 36  1  0  0  0  0
 16 15  1  0  0  0  0
 16 38  1  0  0  0  0
 17 19  1  0  0  0  0
 18 17  2  0  0  0  0
 19 39  1  0  0  0  0
 19 40  1  0  0  0  0
 20 21  1  0  0  0  0
 20 25  1  0  0  0  0
 20 19  1  0  0  0  0
 21 41  1  0  0  0  0
 21 22  1  0  0  0  0
 22 43  1  0  0  0  0
 22 23  1  0  0  0  0
 24 46  1  0  0  0  0
 24 23  1  0  0  0  0
 24 45  1  0  0  0  0
 25 24  1  0  0  0  0
 26  5  2  0  0  0  0
 27 26  1  0  0  0  0
 27  2  2  0  0  0  0
 29  6  1  0  0  0  0
 32 12  1  0  0  0  0
 33 13  1  0  0  0  0
 34 13  1  0  0  0  0
 37 16  1  0  0  0  0
 42 21  1  0  0  0  0
 44 22  1  0  0  0  0
 47 25  1  0  0  0  0
 48 25  1  0  0  0  0
 49 26  1  0  0  0  0
 50 27  1  0  0  0  0
M  END
>  <Pose>
1

>  <Score>
-6.16

$$$$
