
 OpenBabel03172210413D

 37 40  0  0  0  0  0  0  0  0999 V2000
    9.6340   -1.1610    8.1160 B   0  0  0  0  0  0  0  0  0  0  0  0
   11.0910   -0.0420    8.6190 C   0  0  0  0  0  0  0  0  0  0  0  0
   12.3500   -0.3280    8.1350 C   0  0  0  0  0  0  0  0  0  0  0  0
   13.4420    0.4750    8.4870 C   0  0  0  0  0  0  0  0  0  0  0  0
   13.2210    1.5320    9.3100 C   0  0  0  0  0  0  0  0  0  0  0  0
   11.9830    1.8570    9.8190 C   0  0  0  0  0  0  0  0  0  0  0  0
   10.9300    1.0560    9.4610 C   0  0  0  0  0  0  0  0  0  0  0  0
   11.9030    2.9510   10.6390 C   0  0  0  0  0  0  0  0  0  0  0  0
   10.7930    3.2560   11.1040 O   0  0  0  0  0  0  0  0  0  0  0  0
   13.0070    3.7240   10.9660 C   0  0  0  0  0  0  0  0  0  0  0  0
   14.2160    3.3450   10.4240 C   0  0  0  0  0  0  0  0  0  0  0  0
   14.3070    2.2510    9.6020 N   0  0  0  0  0  0  0  0  0  0  0  0
   15.4220    1.6420    8.9120 C   0  0  0  0  0  0  0  0  0  0  0  0
   14.8780    0.4570    8.1620 C   0  0  0  0  0  0  0  0  0  0  0  0
   12.9050    4.8870   11.8410 C   0  0  0  0  0  0  0  0  0  0  0  0
   13.3820    4.8250   12.9970 O   0  0  0  0  0  0  0  0  0  0  0  0
   12.2680    6.0910   11.3910 N   0  0  0  0  0  0  0  0  0  0  0  0
   12.2990    7.3100   12.1700 C   0  0  0  0  0  0  0  0  0  0  0  0
   10.8370    7.7440   12.3350 C   0  0  0  0  0  0  0  0  0  0  0  0
   10.2400    7.8130   11.0990 O   0  0  0  0  0  0  0  0  0  0  0  0
   10.1400    6.6000   10.4510 C   0  0  0  0  0  0  0  0  0  0  0  0
   11.5620    6.1340   10.1260 C   0  0  0  0  0  0  0  0  0  0  0  0
   12.5450   -1.1640    7.4790 H   0  0  0  0  0  0  0  0  0  0  0  0
    9.9580    1.2910    9.8440 H   0  0  0  0  0  0  0  0  0  0  0  0
   15.1290    3.8820   10.6190 H   0  0  0  0  0  0  0  0  0  0  0  0
   16.1800    1.2860    9.6670 H   0  0  0  0  0  0  0  0  0  0  0  0
   15.9330    2.3610    8.2360 H   0  0  0  0  0  0  0  0  0  0  0  0
   15.0680    0.5590    7.0680 H   0  0  0  0  0  0  0  0  0  0  0  0
   15.3220   -0.5080    8.5390 H   0  0  0  0  0  0  0  0  0  0  0  0
   12.7580    8.1210   11.5330 H   0  0  0  0  0  0  0  0  0  0  0  0
   12.7960    7.2000   13.1400 H   0  0  0  0  0  0  0  0  0  0  0  0
   10.7670    8.7190   12.8270 H   0  0  0  0  0  0  0  0  0  0  0  0
   10.3020    7.0130   12.9550 H   0  0  0  0  0  0  0  0  0  0  0  0
    9.6410    6.7790    9.4770 H   0  0  0  0  0  0  0  0  0  0  0  0
    9.6210    5.8160   11.0580 H   0  0  0  0  0  0  0  0  0  0  0  0
   12.0130    6.9960    9.5530 H   0  0  0  0  0  0  0  0  0  0  0  0
   11.5780    5.1970    9.5750 H   0  0  0  0  0  0  0  0  0  0  0  0
  1  2  1  0  0  0  0
  2  7  1  0  0  0  0
  3  4  1  0  0  0  0
  3  2  2  0  0  0  0
  4  5  2  0  0  0  0
  5 12  1  0  0  0  0
  5  6  1  0  0  0  0
  6  8  1  0  0  0  0
  7  6  2  0  0  0  0
  7 24  1  0  0  0  0
  8 10  1  0  0  0  0
  8  9  2  0  0  0  0
 10 15  1  0  0  0  0
 11 25  1  0  0  0  0
 11 10  2  0  0  0  0
 12 11  1  0  0  0  0
 13 12  1  0  0  0  0
 13 26  1  0  0  0  0
 14  4  1  0  0  0  0
 14 29  1  0  0  0  0
 14 13  1  0  0  0  0
 15 16  2  0  0  0  0
 17 15  1  0  0  0  0
 17 18  1  0  0  0  0
 18 19  1  0  0  0  0
 18 31  1  0  0  0  0
 19 32  1  0  0  0  0
 19 33  1  0  0  0  0
 20 19  1  0  0  0  0
 21 35  1  0  0  0  0
 21 20  1  0  0  0  0
 22 21  1  0  0  0  0
 22 17  1  0  0  0  0
 23  3  1  0  0  0  0
 27 13  1  0  0  0  0
 28 14  1  0  0  0  0
 30 18  1  0  0  0  0
 34 21  1  0  0  0  0
 36 22  1  0  0  0  0
 37 22  1  0  0  0  0
M  END
>  <Pose>
1

>  <Score>
-5.57

$$$$
