
 OpenBabel03172210413D

 51 54  0  0  0  0  0  0  0  0999 V2000
   11.4340    7.3960   14.1470 B   0  0  0  0  0  0  0  0  0  0  0  0
    9.5570    7.0200   14.0190 C   0  0  0  0  0  0  0  0  0  0  0  0
    8.8070    6.9830   15.1720 C   0  0  0  0  0  0  0  0  0  0  0  0
    7.4620    6.7080   15.1210 C   0  0  0  0  0  0  0  0  0  0  0  0
    6.4630    6.5970   16.0160 N   0  0  0  0  0  0  0  0  0  0  0  0
    5.3050    6.3050   15.3940 C   0  0  0  0  0  0  0  0  0  0  0  0
    5.6150    6.2370   14.0870 N   0  0  0  0  0  0  0  0  0  0  0  0
    6.9270    6.4790   13.8850 C   0  0  0  0  0  0  0  0  0  0  0  0
    7.6870    6.5160   12.7070 C   0  0  0  0  0  0  0  0  0  0  0  0
    9.0340    6.7920   12.7560 C   0  0  0  0  0  0  0  0  0  0  0  0
    9.8910    6.8660   11.6360 N   0  0  0  0  0  0  0  0  0  0  0  0
    9.9320    6.0030   10.5330 C   0  0  0  0  0  0  0  0  0  0  0  0
    8.9480    5.2650   10.2710 O   0  0  0  0  0  0  0  0  0  0  0  0
   11.0780    5.8890    9.6240 C   0  0  0  0  0  0  0  0  0  0  0  0
   11.8300    4.6990    9.6470 N   0  0  0  0  0  0  0  0  0  0  0  0
   11.1840    3.5020   10.0470 C   0  0  0  0  0  0  0  0  0  0  0  0
   12.1790    2.4220   10.4710 C   0  0  0  0  0  0  0  0  0  0  0  0
   13.0940    2.2420    9.4270 N   0  0  0  0  0  0  0  0  0  0  0  0
   13.0450    3.1160    8.3210 C   0  0  0  0  0  0  0  0  0  0  0  0
   12.8090    4.5660    8.6210 C   0  0  0  0  0  0  0  0  0  0  0  0
   14.2670    1.5560    9.7310 C   0  0  0  0  0  0  0  0  0  0  0  0
   15.4950    1.9110    9.0180 C   0  0  0  0  0  0  0  0  0  0  0  0
   15.6150    1.3900    7.8420 O   0  0  0  0  0  0  0  0  0  0  0  0
   16.5310    2.7320    9.4470 N   0  0  0  0  0  0  0  0  0  0  0  0
   16.5650    3.3570   10.7660 C   0  0  0  0  0  0  0  0  0  0  0  0
   17.7840    3.3230   11.5890 C   0  0  0  0  0  0  0  0  0  0  0  0
   17.3790    4.6240   10.9210 C   0  0  0  0  0  0  0  0  0  0  0  0
    4.0470    6.1140   15.9990 O   0  0  0  0  0  0  0  0  0  0  0  0
    9.2430    7.1670   16.1430 H   0  0  0  0  0  0  0  0  0  0  0  0
    4.9300    6.0240   13.3100 H   0  0  0  0  0  0  0  0  0  0  0  0
    7.2010    6.3260   11.7790 H   0  0  0  0  0  0  0  0  0  0  0  0
   10.5870    7.6720   11.5960 H   0  0  0  0  0  0  0  0  0  0  0  0
   10.6440    5.9990    8.5820 H   0  0  0  0  0  0  0  0  0  0  0  0
   11.7890    6.7470    9.7240 H   0  0  0  0  0  0  0  0  0  0  0  0
   10.7230    3.0690    9.0980 H   0  0  0  0  0  0  0  0  0  0  0  0
   10.3610    3.6450   10.7320 H   0  0  0  0  0  0  0  0  0  0  0  0
   11.5650    1.4880   10.5760 H   0  0  0  0  0  0  0  0  0  0  0  0
   12.6460    2.7180   11.3990 H   0  0  0  0  0  0  0  0  0  0  0  0
   13.9130    2.9650    7.6370 H   0  0  0  0  0  0  0  0  0  0  0  0
   12.1570    2.7940    7.6920 H   0  0  0  0  0  0  0  0  0  0  0  0
   13.7530    5.1160    8.8350 H   0  0  0  0  0  0  0  0  0  0  0  0
   12.3930    5.0310    7.6920 H   0  0  0  0  0  0  0  0  0  0  0  0
   14.4400    1.6760   10.8600 H   0  0  0  0  0  0  0  0  0  0  0  0
   14.0930    0.4200    9.6850 H   0  0  0  0  0  0  0  0  0  0  0  0
   17.3430    2.9240    8.8260 H   0  0  0  0  0  0  0  0  0  0  0  0
   15.5990    3.3950   11.3070 H   0  0  0  0  0  0  0  0  0  0  0  0
   17.7040    3.3370   12.7040 H   0  0  0  0  0  0  0  0  0  0  0  0
   18.7320    2.9070   11.2490 H   0  0  0  0  0  0  0  0  0  0  0  0
   18.0010    4.9890   10.0760 H   0  0  0  0  0  0  0  0  0  0  0  0
   16.9780    5.4510   11.5560 H   0  0  0  0  0  0  0  0  0  0  0  0
    3.9430    5.2330   16.5190 H   0  0  0  0  0  0  0  0  0  0  0  0
  2  1  1  0  0  0  0
  2  3  1  0  0  0  0
  3 29  1  0  0  0  0
  4  3  2  0  0  0  0
  4  5  1  0  0  0  0
  6 28  1  0  0  0  0
  6  5  2  0  0  0  0
  7  6  1  0  0  0  0
  8  7  1  0  0  0  0
  8  4  1  0  0  0  0
  9 10  1  0  0  0  0
  9  8  2  0  0  0  0
 10  2  2  0  0  0  0
 11 10  1  0  0  0  0
 12 11  1  0  0  0  0
 13 12  2  0  0  0  0
 14 15  1  0  0  0  0
 14 34  1  0  0  0  0
 14 12  1  0  0  0  0
 15 16  1  0  0  0  0
 16 17  1  0  0  0  0
 16 36  1  0  0  0  0
 17 37  1  0  0  0  0
 17 38  1  0  0  0  0
 18 21  1  0  0  0  0
 18 17  1  0  0  0  0
 19 20  1  0  0  0  0
 19 18  1  0  0  0  0
 20 41  1  0  0  0  0
 20 15  1  0  0  0  0
 21 43  1  0  0  0  0
 22 24  1  0  0  0  0
 22 21  1  0  0  0  0
 23 22  2  0  0  0  0
 24 25  1  0  0  0  0
 25 27  1  0  0  0  0
 25 46  1  0  0  0  0
 25 26  1  0  0  0  0
 26 47  1  0  0  0  0
 27 50  1  0  0  0  0
 27 26  1  0  0  0  0
 28 51  1  0  0  0  0
 30  7  1  0  0  0  0
 31  9  1  0  0  0  0
 32 11  1  0  0  0  0
 33 14  1  0  0  0  0
 35 16  1  0  0  0  0
 39 19  1  0  0  0  0
 40 19  1  0  0  0  0
 42 20  1  0  0  0  0
 44 21  1  0  0  0  0
 45 24  1  0  0  0  0
 48 26  1  0  0  0  0
 49 27  1  0  0  0  0
M  END
>  <Pose>
1

>  <Score>
-6.92

$$$$
