
 OpenBabel03172210413D

 43 46  0  0  1  0  0  0  0  0999 V2000
    2.8450    8.6340   15.6890 B   0  0  0  0  0  0  0  0  0  0  0  0
    4.4980    7.9490   15.0040 C   0  0  0  0  0  0  0  0  0  0  0  0
    5.3350    7.1700   15.8000 C   0  0  0  0  0  0  0  0  0  0  0  0
    6.5050    6.7160   15.2360 C   0  0  0  0  0  0  0  0  0  0  0  0
    7.5140    5.9640   15.7090 N   0  0  0  0  0  0  0  0  0  0  0  0
    8.4320    5.8000   14.7600 N   0  0  0  0  0  0  0  0  0  0  0  0
    8.0740    6.4280   13.6300 C   0  0  0  0  0  0  0  0  0  0  0  0
    6.8330    7.0160   13.9430 C   0  0  0  0  0  0  0  0  0  0  0  0
    6.0190    7.7780   13.1530 C   0  0  0  0  0  0  0  0  0  0  0  0
    4.8460    8.2440   13.6940 C   0  0  0  0  0  0  0  0  0  0  0  0
    8.7340    6.5250   12.3910 N   0  0  0  0  0  0  0  0  0  0  0  0
    8.9510    5.3390   11.5330 C   0  0  0  0  0  0  0  0  0  0  0  0
   10.3450    5.5740   10.9740 C   0  0  2  0  0  0  0  0  0  0  0  0
   10.4100    7.0820   10.8600 C   0  0  0  0  0  0  0  0  0  0  0  0
    9.3260    7.6310   11.7140 C   0  0  0  0  0  0  0  0  0  0  0  0
    8.9850    8.8160   11.8280 O   0  0  0  0  0  0  0  0  0  0  0  0
   10.3770    4.8620    9.6870 C   0  0  0  0  0  0  0  0  0  0  0  0
    9.5730    5.1450    8.7680 O   0  0  0  0  0  0  0  0  0  0  0  0
   11.3490    3.8400    9.5110 N   0  0  0  0  0  0  0  0  0  0  0  0
   12.1600    3.3650   10.6100 C   0  0  0  0  0  0  0  0  0  0  0  0
   12.6990    1.9700   10.3770 C   0  0  0  0  0  0  0  0  0  0  0  0
   13.9260    2.0110    9.5590 C   0  0  0  0  0  0  0  0  0  0  0  0
   14.0520    1.4030    8.3690 N   0  0  0  0  0  0  0  0  0  0  0  0
   15.2690    1.6210    7.8690 C   0  0  0  0  0  0  0  0  0  0  0  0
   15.9480    2.3900    8.7610 N   0  0  0  0  0  0  0  0  0  0  0  0
   15.1210    2.6220    9.7850 C   0  0  0  0  0  0  0  0  0  0  0  0
    5.0120    6.9770   16.8070 H   0  0  0  0  0  0  0  0  0  0  0  0
    9.3000    5.2500   14.9110 H   0  0  0  0  0  0  0  0  0  0  0  0
    6.3200    7.9890   12.1280 H   0  0  0  0  0  0  0  0  0  0  0  0
    4.1810    8.8470   13.0960 H   0  0  0  0  0  0  0  0  0  0  0  0
    8.9050    4.4400   12.1390 H   0  0  0  0  0  0  0  0  0  0  0  0
    8.1640    5.3390   10.7720 H   0  0  0  0  0  0  0  0  0  0  0  0
   11.1220    5.1700   11.6310 H   0  0  0  0  0  0  0  0  0  0  0  0
   11.3650    7.3890   11.3860 H   0  0  0  0  0  0  0  0  0  0  0  0
   10.4500    7.4740    9.8500 H   0  0  0  0  0  0  0  0  0  0  0  0
   11.4690    3.4380    8.5610 H   0  0  0  0  0  0  0  0  0  0  0  0
   13.0200    4.0370   10.7370 H   0  0  0  0  0  0  0  0  0  0  0  0
   11.5840    3.3740   11.5610 H   0  0  0  0  0  0  0  0  0  0  0  0
   12.9650    1.5600   11.3720 H   0  0  0  0  0  0  0  0  0  0  0  0
   11.9240    1.2750    9.9800 H   0  0  0  0  0  0  0  0  0  0  0  0
   15.6420    1.2540    6.9280 H   0  0  0  0  0  0  0  0  0  0  0  0
   16.9340    2.6990    8.5980 H   0  0  0  0  0  0  0  0  0  0  0  0
   15.3900    3.2100   10.6450 H   0  0  0  0  0  0  0  0  0  0  0  0
  2  1  1  0  0  0  0
  2  3  2  0  0  0  0
  3 27  1  0  0  0  0
  4  5  2  0  0  0  0
  4  3  1  0  0  0  0
  6 28  1  0  0  0  0
  6  5  1  0  0  0  0
  7  8  2  0  0  0  0
  7  6  1  0  0  0  0
  8  4  1  0  0  0  0
  9 10  2  0  0  0  0
  9  8  1  0  0  0  0
 10  2  1  0  0  0  0
 11  7  1  0  0  0  0
 12 31  1  0  0  0  0
 12 11  1  0  0  0  0
 13 12  1  0  0  0  0
 13 33  1  1  0  0  0
 14 13  1  0  0  0  0
 14 34  1  0  0  0  0
 14 15  1  0  0  0  0
 15 16  2  0  0  0  0
 15 11  1  0  0  0  0
 17 13  1  0  0  0  0
 18 17  2  0  0  0  0
 19 17  1  0  0  0  0
 19 20  1  0  0  0  0
 20 37  1  0  0  0  0
 20 38  1  0  0  0  0
 21 20  1  0  0  0  0
 21 39  1  0  0  0  0
 22 26  2  0  0  0  0
 22 21  1  0  0  0  0
 23 22  1  0  0  0  0
 24 23  2  0  0  0  0
 24 25  1  0  0  0  0
 25 26  1  0  0  0  0
 26 43  1  0  0  0  0
 29  9  1  0  0  0  0
 30 10  1  0  0  0  0
 32 12  1  0  0  0  0
 35 14  1  0  0  0  0
 36 19  1  0  0  0  0
 40 21  1  0  0  0  0
 41 24  1  0  0  0  0
 42 25  1  0  0  0  0
M  END
>  <Pose>
1

>  <Score>
-7.22

$$$$
