
 OpenBabel03172210413D

 58 61  0  0  0  0  0  0  0  0999 V2000
   10.0400    8.3990   13.2070 B   0  0  0  0  0  0  0  0  0  0  0  0
    8.4260    7.6610   12.4650 C   0  0  0  0  0  0  0  0  0  0  0  0
    7.1980    8.2610   12.4000 C   0  0  0  0  0  0  0  0  0  0  0  0
    6.3680    7.3960   11.8090 N   0  0  0  0  0  0  0  0  0  0  0  0
    7.0270    6.3070   11.5130 N   0  0  0  0  0  0  0  0  0  0  0  0
    8.3360    6.3880   11.8920 C   0  0  0  0  0  0  0  0  0  0  0  0
    9.3860    5.4120   11.7470 C   0  0  0  0  0  0  0  0  0  0  0  0
    9.8120    4.8910   12.8400 O   0  0  0  0  0  0  0  0  0  0  0  0
    9.9630    4.9950   10.5770 N   0  0  0  0  0  0  0  0  0  0  0  0
   11.0130    5.6660    9.8750 C   0  0  0  0  0  0  0  0  0  0  0  0
   12.2720    4.8780   10.0270 C   0  0  0  0  0  0  0  0  0  0  0  0
   11.9960    3.4640   10.2370 N   0  0  0  0  0  0  0  0  0  0  0  0
   10.7740    2.8380    9.8550 C   0  0  0  0  0  0  0  0  0  0  0  0
    9.5480    3.7430    9.9110 C   0  0  0  0  0  0  0  0  0  0  0  0
   13.0490    2.7700   10.9250 C   0  0  0  0  0  0  0  0  0  0  0  0
   12.6990    2.0420   11.9460 O   0  0  0  0  0  0  0  0  0  0  0  0
   14.4240    2.8200   10.5710 C   0  0  0  0  0  0  0  0  0  0  0  0
   14.9820    2.0210    9.5810 N   0  0  0  0  0  0  0  0  0  0  0  0
   16.2560    2.2310    9.5150 N   0  0  0  0  0  0  0  0  0  0  0  0
   16.6440    3.1390   10.4060 C   0  0  0  0  0  0  0  0  0  0  0  0
   15.4650    3.5130   11.0820 C   0  0  0  0  0  0  0  0  0  0  0  0
   17.9660    3.6840   10.6580 C   0  0  0  0  0  0  0  0  0  0  0  0
   18.9220    2.8350   10.7530 O   0  0  0  0  0  0  0  0  0  0  0  0
   18.2690    5.0290   10.8030 N   0  0  0  0  0  0  0  0  0  0  0  0
   18.1040    5.6340   12.1280 C   0  0  0  0  0  0  0  0  0  0  0  0
   17.2270    6.8500   11.9190 C   0  0  0  0  0  0  0  0  0  0  0  0
   18.0000    7.7380   11.1480 O   0  0  0  0  0  0  0  0  0  0  0  0
   18.1040    7.2740    9.8670 C   0  0  0  0  0  0  0  0  0  0  0  0
   18.7150    5.8840    9.7470 C   0  0  0  0  0  0  0  0  0  0  0  0
   14.2580    1.0950    8.7430 C   0  0  0  0  0  0  0  0  0  0  0  0
    4.9620    7.7110   11.5830 C   0  0  0  0  0  0  0  0  0  0  0  0
    4.7100    8.3330   10.2360 C   0  0  0  0  0  0  0  0  0  0  0  0
    6.9650    9.2580   12.7720 H   0  0  0  0  0  0  0  0  0  0  0  0
   10.7660    5.6390    8.7690 H   0  0  0  0  0  0  0  0  0  0  0  0
   11.2200    6.7010   10.1910 H   0  0  0  0  0  0  0  0  0  0  0  0
   12.8660    5.2170   10.9230 H   0  0  0  0  0  0  0  0  0  0  0  0
   12.8700    5.0280    9.0960 H   0  0  0  0  0  0  0  0  0  0  0  0
   10.5510    2.1030   10.7000 H   0  0  0  0  0  0  0  0  0  0  0  0
   10.7720    2.2780    8.9240 H   0  0  0  0  0  0  0  0  0  0  0  0
    8.6900    3.3130   10.4110 H   0  0  0  0  0  0  0  0  0  0  0  0
    9.2980    4.0160    8.8770 H   0  0  0  0  0  0  0  0  0  0  0  0
   15.4760    4.2180   11.8850 H   0  0  0  0  0  0  0  0  0  0  0  0
   19.1260    5.9260   12.4510 H   0  0  0  0  0  0  0  0  0  0  0  0
   17.6450    4.9540   12.8490 H   0  0  0  0  0  0  0  0  0  0  0  0
   16.3420    6.5580   11.3360 H   0  0  0  0  0  0  0  0  0  0  0  0
   16.9810    7.3220   12.8970 H   0  0  0  0  0  0  0  0  0  0  0  0
   17.0920    7.2340    9.4100 H   0  0  0  0  0  0  0  0  0  0  0  0
   18.6830    7.9930    9.2610 H   0  0  0  0  0  0  0  0  0  0  0  0
   18.3650    5.4840    8.7760 H   0  0  0  0  0  0  0  0  0  0  0  0
   19.8080    5.9770    9.7680 H   0  0  0  0  0  0  0  0  0  0  0  0
   13.9930    0.1750    9.2680 H   0  0  0  0  0  0  0  0  0  0  0  0
   13.3610    1.5880    8.3020 H   0  0  0  0  0  0  0  0  0  0  0  0
   14.8930    0.8160    7.8800 H   0  0  0  0  0  0  0  0  0  0  0  0
    4.3280    6.8010   11.6870 H   0  0  0  0  0  0  0  0  0  0  0  0
    4.6010    8.4240   12.3610 H   0  0  0  0  0  0  0  0  0  0  0  0
    5.3590    7.8640    9.4620 H   0  0  0  0  0  0  0  0  0  0  0  0
    3.6600    8.1100    9.9510 H   0  0  0  0  0  0  0  0  0  0  0  0
    4.8230    9.4300   10.3020 H   0  0  0  0  0  0  0  0  0  0  0  0
  2  1  1  0  0  0  0
  3  2  2  0  0  0  0
  3 33  1  0  0  0  0
  4  3  1  0  0  0  0
  5  4  1  0  0  0  0
  5  6  2  0  0  0  0
  6  2  1  0  0  0  0
  7  6  1  0  0  0  0
  7  8  2  0  0  0  0
  9  7  1  0  0  0  0
 10 11  1  0  0  0  0
 10 35  1  0  0  0  0
 10  9  1  0  0  0  0
 11 12  1  0  0  0  0
 11 36  1  0  0  0  0
 12 15  1  0  0  0  0
 13 14  1  0  0  0  0
 13 12  1  0  0  0  0
 13 38  1  0  0  0  0
 14 40  1  0  0  0  0
 14  9  1  0  0  0  0
 15 16  2  0  0  0  0
 17 15  1  0  0  0  0
 17 21  2  0  0  0  0
 18 17  1  0  0  0  0
 19 18  1  0  0  0  0
 19 20  2  0  0  0  0
 20 22  1  0  0  0  0
 20 21  1  0  0  0  0
 21 42  1  0  0  0  0
 22 23  2  0  0  0  0
 22 24  1  0  0  0  0
 24 25  1  0  0  0  0
 25 43  1  0  0  0  0
 25 44  1  0  0  0  0
 26 25  1  0  0  0  0
 26 46  1  0  0  0  0
 27 26  1  0  0  0  0
 28 27  1  0  0  0  0
 29 50  1  0  0  0  0
 29 28  1  0  0  0  0
 29 24  1  0  0  0  0
 30 51  1  0  0  0  0
 30 18  1  0  0  0  0
 31 54  1  0  0  0  0
 31  4  1  0  0  0  0
 31 55  1  0  0  0  0
 32 58  1  0  0  0  0
 32 31  1  0  0  0  0
 34 10  1  0  0  0  0
 37 11  1  0  0  0  0
 39 13  1  0  0  0  0
 41 14  1  0  0  0  0
 45 26  1  0  0  0  0
 47 28  1  0  0  0  0
 48 28  1  0  0  0  0
 49 29  1  0  0  0  0
 52 30  1  0  0  0  0
 53 30  1  0  0  0  0
 56 32  1  0  0  0  0
 57 32  1  0  0  0  0
M  END
>  <Pose>
1

>  <Score>
-6.22

$$$$
