
 OpenBabel03172210413D

 38 41  0  0  0  0  0  0  0  0999 V2000
   11.9360   -0.7420    7.8890 B   0  0  0  0  0  0  0  0  0  0  0  0
   13.3580    0.3950    8.4790 C   0  0  0  0  0  0  0  0  0  0  0  0
   13.1110    1.4180    9.3660 C   0  0  0  0  0  0  0  0  0  0  0  0
   14.1110    2.1940    9.7630 N   0  0  0  0  0  0  0  0  0  0  0  0
   15.3940    2.0680    9.3620 C   0  0  0  0  0  0  0  0  0  0  0  0
   15.6320    1.0520    8.4810 N   0  0  0  0  0  0  0  0  0  0  0  0
   14.6560    0.2340    8.0460 C   0  0  0  0  0  0  0  0  0  0  0  0
   16.4330    2.9000    9.7940 N   0  0  0  0  0  0  0  0  0  0  0  0
   16.6600    3.7850   10.9000 C   0  0  0  0  0  0  0  0  0  0  0  0
   18.0990    3.3150   10.8280 C   0  0  0  0  0  0  0  0  0  0  0  0
   17.7470    3.2650    9.3460 C   0  0  0  0  0  0  0  0  0  0  0  0
   19.1340    4.3290   11.2000 C   0  0  0  0  0  0  0  0  0  0  0  0
   18.5080    5.6250   11.1950 N   0  0  0  0  0  0  0  0  0  0  0  0
   17.8870    6.1120   12.3440 N   0  0  0  0  0  0  0  0  0  0  0  0
   17.2560    7.3850   12.3880 C   0  0  0  0  0  0  0  0  0  0  0  0
   16.6830    7.7980   13.5020 C   0  0  0  0  0  0  0  0  0  0  0  0
   16.2550    7.7080   14.9120 C   0  0  0  0  0  0  0  0  0  0  0  0
   15.9160    8.9160   14.1770 C   0  0  0  0  0  0  0  0  0  0  0  0
   17.2380    8.2320   11.2120 C   0  0  0  0  0  0  0  0  0  0  0  0
   17.8210    7.7900   10.1090 C   0  0  0  0  0  0  0  0  0  0  0  0
   18.4810    6.4700   10.0540 C   0  0  0  0  0  0  0  0  0  0  0  0
   19.0280    6.0720    8.9920 O   0  0  0  0  0  0  0  0  0  0  0  0
   12.0840    1.5320    9.6980 H   0  0  0  0  0  0  0  0  0  0  0  0
   14.8330   -0.5760    7.3490 H   0  0  0  0  0  0  0  0  0  0  0  0
   16.6430    4.8800   10.6360 H   0  0  0  0  0  0  0  0  0  0  0  0
   16.1370    3.5450   11.8410 H   0  0  0  0  0  0  0  0  0  0  0  0
   18.2020    2.3180   11.2680 H   0  0  0  0  0  0  0  0  0  0  0  0
   17.8340    4.2750    8.8910 H   0  0  0  0  0  0  0  0  0  0  0  0
   18.2960    2.5050    8.7640 H   0  0  0  0  0  0  0  0  0  0  0  0
   19.9700    4.3130   10.4640 H   0  0  0  0  0  0  0  0  0  0  0  0
   19.5530    4.1540   12.1890 H   0  0  0  0  0  0  0  0  0  0  0  0
   17.9040    5.4850   13.2010 H   0  0  0  0  0  0  0  0  0  0  0  0
   15.4130    7.0190   15.1660 H   0  0  0  0  0  0  0  0  0  0  0  0
   17.0000    7.7750   15.7210 H   0  0  0  0  0  0  0  0  0  0  0  0
   14.8590    9.0580   13.8380 H   0  0  0  0  0  0  0  0  0  0  0  0
   16.4970    9.8580   14.3090 H   0  0  0  0  0  0  0  0  0  0  0  0
   16.7510    9.2270   11.2270 H   0  0  0  0  0  0  0  0  0  0  0  0
   17.7990    8.4330    9.2430 H   0  0  0  0  0  0  0  0  0  0  0  0
  1  2  1  0  0  0  0
  2  3  2  0  0  0  0
  3 23  1  0  0  0  0
  3  4  1  0  0  0  0
  5  4  2  0  0  0  0
  5  8  1  0  0  0  0
  6  5  1  0  0  0  0
  7  2  1  0  0  0  0
  7  6  2  0  0  0  0
  8  9  1  0  0  0  0
  9 26  1  0  0  0  0
 10  9  1  0  0  0  0
 10 12  1  0  0  0  0
 10 27  1  0  0  0  0
 11  8  1  0  0  0  0
 11 10  1  0  0  0  0
 12 31  1  0  0  0  0
 13 12  1  0  0  0  0
 13 14  1  0  0  0  0
 14 15  1  0  0  0  0
 14 32  1  0  0  0  0
 15 16  2  0  0  0  0
 16 18  1  0  0  0  0
 16 17  1  0  0  0  0
 17 33  1  0  0  0  0
 17 34  1  0  0  0  0
 18 36  1  0  0  0  0
 18 17  1  0  0  0  0
 19 37  1  0  0  0  0
 19 15  1  0  0  0  0
 20 19  2  0  0  0  0
 21 20  1  0  0  0  0
 21 13  1  0  0  0  0
 22 21  2  0  0  0  0
 24  7  1  0  0  0  0
 25  9  1  0  0  0  0
 28 11  1  0  0  0  0
 29 11  1  0  0  0  0
 30 12  1  0  0  0  0
 35 18  1  0  0  0  0
 38 20  1  0  0  0  0
M  END
>  <Pose>
1

>  <Score>
-5.60

$$$$
