
 OpenBabel03172210413D

 40 43  0  0  1  0  0  0  0  0999 V2000
   11.9440   -0.6270    7.9090 B   0  0  0  0  0  0  0  0  0  0  0  0
   13.3710    0.5060    8.4610 C   0  0  0  0  0  0  0  0  0  0  0  0
   14.6100    0.3500    7.8890 C   0  0  0  0  0  0  0  0  0  0  0  0
   15.6390    1.1500    8.2690 N   0  0  0  0  0  0  0  0  0  0  0  0
   15.4710    2.0950    9.2010 C   0  0  0  0  0  0  0  0  0  0  0  0
   14.2430    2.3230    9.8360 C   0  0  0  0  0  0  0  0  0  0  0  0
   13.2260    1.4940    9.4220 C   0  0  0  0  0  0  0  0  0  0  0  0
   14.1150    3.3690   10.8240 C   0  0  0  0  0  0  0  0  0  0  0  0
   15.1640    3.5820   11.5350 O   0  0  0  0  0  0  0  0  0  0  0  0
   12.9840    4.1640   11.0860 N   0  0  0  0  0  0  0  0  0  0  0  0
   12.0220    4.9560   10.3850 C   0  0  0  0  0  0  0  0  0  0  0  0
   11.0420    4.6580   11.5330 C   0  0  0  0  0  0  0  0  0  0  0  0
   12.2880    4.5590   12.3280 C   0  0  0  0  0  0  0  0  0  0  0  0
   10.1720    5.7710   11.7960 N   0  0  0  0  0  0  0  0  0  0  0  0
   10.4850    7.0140   12.4530 C   0  0  0  0  0  0  0  0  0  0  0  0
   11.6200    7.5180   12.5160 O   0  0  0  0  0  0  0  0  0  0  0  0
    9.1800    7.5170   13.0050 C   0  0  1  0  0  0  0  0  0  0  0  0
    8.2520    7.1390   11.8750 C   0  0  2  0  0  0  0  0  0  0  0  0
    6.8250    7.0620   12.3420 C   0  0  0  0  0  0  0  0  0  0  0  0
    6.7100    6.0550   13.4310 C   0  0  0  0  0  0  0  0  0  0  0  0
    7.7040    5.9650   14.2910 C   0  0  0  0  0  0  0  0  0  0  0  0
    8.9290    6.7770   14.2750 C   0  0  0  0  0  0  0  0  0  0  0  0
    8.7970    5.8390   11.4370 C   0  0  0  0  0  0  0  0  0  0  0  0
    8.1110    4.9680   10.8480 O   0  0  0  0  0  0  0  0  0  0  0  0
   14.7390   -0.4170    7.1350 H   0  0  0  0  0  0  0  0  0  0  0  0
   16.3150    2.7050    9.4710 H   0  0  0  0  0  0  0  0  0  0  0  0
   12.2570    1.5980    9.8410 H   0  0  0  0  0  0  0  0  0  0  0  0
   11.5550    4.5320    9.4710 H   0  0  0  0  0  0  0  0  0  0  0  0
   12.2760    6.0430   10.2980 H   0  0  0  0  0  0  0  0  0  0  0  0
   10.5620    3.6840   11.3940 H   0  0  0  0  0  0  0  0  0  0  0  0
   12.7370    5.5140   12.6680 H   0  0  0  0  0  0  0  0  0  0  0  0
   12.3400    3.7770   13.1060 H   0  0  0  0  0  0  0  0  0  0  0  0
    9.2130    8.6140   13.1530 H   0  0  0  0  0  0  0  0  0  0  0  0
    8.3200    7.9220   11.0930 H   0  0  0  0  0  0  0  0  0  0  0  0
    6.1820    6.8410   11.4810 H   0  0  0  0  0  0  0  0  0  0  0  0
    6.5720    8.0580   12.7710 H   0  0  0  0  0  0  0  0  0  0  0  0
    5.8110    5.4350   13.4710 H   0  0  0  0  0  0  0  0  0  0  0  0
    7.6110    5.2200   15.0900 H   0  0  0  0  0  0  0  0  0  0  0  0
    9.7810    6.0900   14.5490 H   0  0  0  0  0  0  0  0  0  0  0  0
    8.8650    7.4860   15.1270 H   0  0  0  0  0  0  0  0  0  0  0  0
  1  2  1  0  0  0  0
  2  7  1  0  0  0  0
  3  4  1  0  0  0  0
  3  2  2  0  0  0  0
  4  5  2  0  0  0  0
  5 26  1  0  0  0  0
  5  6  1  0  0  0  0
  6  8  1  0  0  0  0
  7  6  2  0  0  0  0
  7 27  1  0  0  0  0
  8 10  1  0  0  0  0
  8  9  2  0  0  0  0
 10 13  1  0  0  0  0
 11 10  1  0  0  0  0
 11 12  1  0  0  0  0
 12 14  1  0  0  0  0
 12 13  1  0  0  0  0
 13 31  1  0  0  0  0
 13 32  1  0  0  0  0
 14 15  1  0  0  0  0
 15 16  2  0  0  0  0
 15 17  1  0  0  0  0
 17 33  1  1  0  0  0
 17 22  1  0  0  0  0
 18 34  1  6  0  0  0
 18 19  1  0  0  0  0
 18 17  1  0  0  0  0
 19 36  1  0  0  0  0
 19 20  1  0  0  0  0
 20 37  1  0  0  0  0
 20 21  2  0  0  0  0
 21 38  1  0  0  0  0
 22 21  1  0  0  0  0
 22 39  1  0  0  0  0
 22 40  1  0  0  0  0
 23 14  1  0  0  0  0
 23 18  1  0  0  0  0
 24 23  2  0  0  0  0
 25  3  1  0  0  0  0
 28 11  1  0  0  0  0
 29 11  1  0  0  0  0
 30 12  1  0  0  0  0
 35 19  1  0  0  0  0
M  END
>  <Pose>
1

>  <Score>
-6.55

$$$$
