
 OpenBabel03172210413D

 37 40  0  0  1  0  0  0  0  0999 V2000
   11.1000    7.5610   15.9160 B   0  0  0  0  0  0  0  0  0  0  0  0
   11.6280    7.8190   14.0850 C   0  0  0  0  0  0  0  0  0  0  0  0
   12.5460    8.8030   13.7990 C   0  0  0  0  0  0  0  0  0  0  0  0
   12.8970    8.9620   12.5180 N   0  0  0  0  0  0  0  0  0  0  0  0
   12.3790    8.1930   11.5170 C   0  0  0  0  0  0  0  0  0  0  0  0
   11.4620    7.1970   11.7390 C   0  0  0  0  0  0  0  0  0  0  0  0
   11.0990    7.0370   13.0900 C   0  0  0  0  0  0  0  0  0  0  0  0
   10.8590    6.3460   10.7440 C   0  0  0  0  0  0  0  0  0  0  0  0
   10.1470    6.8920    9.8450 O   0  0  0  0  0  0  0  0  0  0  0  0
   11.0180    4.9550   10.7200 N   0  0  0  0  0  0  0  0  0  0  0  0
   11.1780    3.8660    9.7930 C   0  0  0  0  0  0  0  0  0  0  0  0
   11.0250    2.8240   10.8900 C   0  0  0  0  0  0  0  0  0  0  0  0
   11.1090    3.9870   11.8310 C   0  0  0  0  0  0  0  0  0  0  0  0
   12.0330    1.8690   10.9990 O   0  0  0  0  0  0  0  0  0  0  0  0
   12.7160    1.2840    9.9520 C   0  0  2  0  0  0  0  0  0  0  0  0
   12.0940    0.4100    9.1640 C   0  0  0  0  0  0  0  0  0  0  0  0
   12.7600   -0.2400    8.0430 C   0  0  0  0  0  0  0  0  0  0  0  0
   12.1120   -1.1030    7.2800 C   0  0  0  0  0  0  0  0  0  0  0  0
   14.1220    0.0880    7.8080 N   0  0  0  0  0  0  0  0  0  0  0  0
   14.7670    1.0340    8.6750 C   0  0  0  0  0  0  0  0  0  0  0  0
   14.0980    1.5990    9.6900 N   0  0  0  0  0  0  0  0  0  0  0  0
   14.9210    2.4300   10.3380 N   0  0  0  0  0  0  0  0  0  0  0  0
   16.1040    2.3750    9.7170 C   0  0  0  0  0  0  0  0  0  0  0  0
   16.0130    1.5190    8.6940 N   0  0  0  0  0  0  0  0  0  0  0  0
   12.9760    9.4360   14.5900 H   0  0  0  0  0  0  0  0  0  0  0  0
   12.7030    8.3560   10.4920 H   0  0  0  0  0  0  0  0  0  0  0  0
   10.3790    6.2680   13.3320 H   0  0  0  0  0  0  0  0  0  0  0  0
   10.3340    3.7520    9.0640 H   0  0  0  0  0  0  0  0  0  0  0  0
   12.1710    3.8960    9.3270 H   0  0  0  0  0  0  0  0  0  0  0  0
   10.0200    2.3290   10.8600 H   0  0  0  0  0  0  0  0  0  0  0  0
   12.0710    4.1270   12.3190 H   0  0  0  0  0  0  0  0  0  0  0  0
   10.2670    4.0510   12.5320 H   0  0  0  0  0  0  0  0  0  0  0  0
   11.0410    0.1800    9.3900 H   0  0  0  0  0  0  0  0  0  0  0  0
   12.6320   -1.5620    6.4660 H   0  0  0  0  0  0  0  0  0  0  0  0
   11.0940   -1.3460    7.4600 H   0  0  0  0  0  0  0  0  0  0  0  0
   14.6050   -0.3670    7.0150 H   0  0  0  0  0  0  0  0  0  0  0  0
   17.0200    2.9230    9.9710 H   0  0  0  0  0  0  0  0  0  0  0  0
  2  1  1  0  0  0  0
  3  2  1  0  0  0  0
  3 25  1  0  0  0  0
  4  3  2  0  0  0  0
  5  6  2  0  0  0  0
  5  4  1  0  0  0  0
  6  7  1  0  0  0  0
  7 27  1  0  0  0  0
  7  2  2  0  0  0  0
  8  6  1  0  0  0  0
  9  8  2  0  0  0  0
 10  8  1  0  0  0  0
 10 13  1  0  0  0  0
 11 10  1  0  0  0  0
 11 12  1  0  0  0  0
 12 14  1  0  0  0  0
 12 13  1  0  0  0  0
 13 31  1  0  0  0  0
 13 32  1  0  0  0  0
 15 14  1  1  0  0  0
 16 33  1  0  0  0  0
 16 15  1  0  0  0  0
 17 16  2  0  0  0  0
 18 35  1  0  0  0  0
 18 17  1  0  0  0  0
 19 17  1  0  0  0  0
 19 20  1  0  0  0  0
 20 24  2  0  0  0  0
 20 21  1  0  0  0  0
 21 15  1  0  0  0  0
 21 22  1  0  0  0  0
 23 37  1  0  0  0  0
 23 22  2  0  0  0  0
 24 23  1  0  0  0  0
 26  5  1  0  0  0  0
 28 11  1  0  0  0  0
 29 11  1  0  0  0  0
 30 12  1  0  0  0  0
 34 18  1  0  0  0  0
 36 19  1  0  0  0  0
M  END
>  <Pose>
1

>  <Score>
-7.25

$$$$
