
 OpenBabel03172210413D

 57 60  0  0  0  0  0  0  0  0999 V2000
    4.0570    7.5380   16.5380 B   0  0  0  0  0  0  0  0  0  0  0  0
    5.0870    7.8110   14.9650 C   0  0  0  0  0  0  0  0  0  0  0  0
    6.4520    7.9940   15.0690 C   0  0  0  0  0  0  0  0  0  0  0  0
    7.2700    8.2010   13.9480 C   0  0  0  0  0  0  0  0  0  0  0  0
    6.6980    8.2250   12.7000 C   0  0  0  0  0  0  0  0  0  0  0  0
    5.3330    8.0430   12.5890 C   0  0  0  0  0  0  0  0  0  0  0  0
    4.5300    7.8390   13.6900 C   0  0  0  0  0  0  0  0  0  0  0  0
    4.5070    8.0700   10.8740 B   0  0  0  0  0  0  0  0  0  0  0  0
    8.7040    8.4030   14.1100 C   0  0  0  0  0  0  0  0  0  0  0  0
    9.2850    9.0080   13.1670 O   0  0  0  0  0  0  0  0  0  0  0  0
    9.4330    7.9390   15.2850 C   0  0  0  0  0  0  0  0  0  0  0  0
    8.4100    7.3960   16.3190 C   0  0  0  0  0  0  0  0  0  0  0  0
    7.1680    7.9940   16.2540 O   0  0  0  0  0  0  0  0  0  0  0  0
   10.3760    6.8380   15.1120 C   0  0  0  0  0  0  0  0  0  0  0  0
   10.9260    6.3930   13.9170 N   0  0  0  0  0  4  0  0  0  0  0  0
   11.8740    7.1900   13.2030 C   0  0  0  0  0  0  0  0  0  0  0  0
   12.7040    6.2030   12.3440 C   0  0  0  0  0  0  0  0  0  0  0  0
   11.7760    5.7760   11.2260 C   0  0  0  0  0  0  0  0  0  0  0  0
   10.3300    6.0730   11.5530 C   0  0  0  0  0  0  0  0  0  0  0  0
   10.0000    5.7510   12.9950 C   0  0  0  0  0  0  0  0  0  0  0  0
   10.1450    9.1360   15.8950 C   0  0  0  0  0  0  0  0  0  0  0  0
   11.0600    9.7730   14.9800 N   0  0  0  0  0  4  0  0  0  0  0  0
   12.4010    9.2980   15.2880 C   0  0  0  0  0  0  0  0  0  0  0  0
   12.6790    9.5260   16.7360 C   0  0  0  0  0  0  0  0  0  0  0  0
   12.4680   10.9170   17.2100 C   0  0  0  0  0  0  0  0  0  0  0  0
   11.3420   11.6510   16.5650 C   0  0  0  0  0  0  0  0  0  0  0  0
   11.1470   11.2140   15.1300 C   0  0  0  0  0  0  0  0  0  0  0  0
    7.3190    8.3870   11.8070 H   0  0  0  0  0  0  0  0  0  0  0  0
    3.4600    7.6960   13.6080 H   0  0  0  0  0  0  0  0  0  0  0  0
    8.8750    7.4180   17.3320 H   0  0  0  0  0  0  0  0  0  0  0  0
    8.3120    6.3150   16.0940 H   0  0  0  0  0  0  0  0  0  0  0  0
    9.9480    5.9060   15.6140 H   0  0  0  0  0  0  0  0  0  0  0  0
   11.2410    7.0650   15.8280 H   0  0  0  0  0  0  0  0  0  0  0  0
   11.5410    5.5520   14.2240 H   0  0  0  0  0  0  0  0  0  0  0  0
   12.5820    7.6970   13.8680 H   0  0  0  0  0  0  0  0  0  0  0  0
   11.4430    7.8350   12.4050 H   0  0  0  0  0  0  0  0  0  0  0  0
   13.0200    5.3410   12.9610 H   0  0  0  0  0  0  0  0  0  0  0  0
   13.5820    6.7600   11.9620 H   0  0  0  0  0  0  0  0  0  0  0  0
   12.0320    6.4320   10.3470 H   0  0  0  0  0  0  0  0  0  0  0  0
   11.9450    4.7420   10.8970 H   0  0  0  0  0  0  0  0  0  0  0  0
    9.7330    5.3330   10.9400 H   0  0  0  0  0  0  0  0  0  0  0  0
    9.9840    7.0560   11.2250 H   0  0  0  0  0  0  0  0  0  0  0  0
   10.0460    4.6210   13.0530 H   0  0  0  0  0  0  0  0  0  0  0  0
    8.9500    5.9780   13.1760 H   0  0  0  0  0  0  0  0  0  0  0  0
    9.4350    9.8300   16.3530 H   0  0  0  0  0  0  0  0  0  0  0  0
   10.7700    8.7050   16.7000 H   0  0  0  0  0  0  0  0  0  0  0  0
   10.8000    9.5960   13.9930 H   0  0  0  0  0  0  0  0  0  0  0  0
   12.5400    8.2410   15.0430 H   0  0  0  0  0  0  0  0  0  0  0  0
   13.1110    9.9490   14.7130 H   0  0  0  0  0  0  0  0  0  0  0  0
   13.7670    9.2660   16.8960 H   0  0  0  0  0  0  0  0  0  0  0  0
   12.1340    8.8410   17.4160 H   0  0  0  0  0  0  0  0  0  0  0  0
   12.2570   10.9040   18.3190 H   0  0  0  0  0  0  0  0  0  0  0  0
   13.4400   11.4810   17.1330 H   0  0  0  0  0  0  0  0  0  0  0  0
   11.6640   12.7340   16.4990 H   0  0  0  0  0  0  0  0  0  0  0  0
   10.4060   11.6770   17.1480 H   0  0  0  0  0  0  0  0  0  0  0  0
   10.3730   11.7840   14.6260 H   0  0  0  0  0  0  0  0  0  0  0  0
   12.1100   11.5010   14.6080 H   0  0  0  0  0  0  0  0  0  0  0  0
  2  3  1  0  0  0  0
  2  1  1  0  0  0  0
  3 13  1  0  0  0  0
  4  9  1  0  0  0  0
  4  3  2  0  0  0  0
  5  4  1  0  0  0  0
  6  5  2  0  0  0  0
  6  7  1  0  0  0  0
  7  2  2  0  0  0  0
  8  6  1  0  0  0  0
  9 11  1  0  0  0  0
 10  9  2  0  0  0  0
 11 21  1  0  0  0  0
 11 12  1  0  0  0  0
 12 30  1  0  0  0  0
 13 12  1  0  0  0  0
 14 11  1  0  0  0  0
 14 32  1  0  0  0  0
 14 33  1  0  0  0  0
 15 34  1  0  0  0  0
 15 14  1  0  0  0  0
 16 35  1  0  0  0  0
 16 15  1  0  0  0  0
 17 37  1  0  0  0  0
 17 16  1  0  0  0  0
 18 19  1  0  0  0  0
 18 17  1  0  0  0  0
 19 20  1  0  0  0  0
 20 43  1  0  0  0  0
 20 44  1  0  0  0  0
 20 15  1  0  0  0  0
 21 45  1  0  0  0  0
 21 46  1  0  0  0  0
 22 27  1  0  0  0  0
 22 23  1  0  0  0  0
 22 21  1  0  0  0  0
 23 24  1  0  0  0  0
 24 50  1  0  0  0  0
 24 25  1  0  0  0  0
 24 51  1  0  0  0  0
 25 52  1  0  0  0  0
 26 55  1  0  0  0  0
 26 25  1  0  0  0  0
 27 26  1  0  0  0  0
 28  5  1  0  0  0  0
 29  7  1  0  0  0  0
 31 12  1  0  0  0  0
 36 16  1  0  0  0  0
 38 17  1  0  0  0  0
 39 18  1  0  0  0  0
 40 18  1  0  0  0  0
 41 19  1  0  0  0  0
 42 19  1  0  0  0  0
 47 22  1  0  0  0  0
 48 23  1  0  0  0  0
 49 23  1  0  0  0  0
 53 25  1  0  0  0  0
 54 26  1  0  0  0  0
 56 27  1  0  0  0  0
 57 27  1  0  0  0  0
M  END
>  <Pose>
1

>  <Score>
-4.73

$$$$
