
 OpenBabel03172210413D

 56 59  0  0  1  0  0  0  0  0999 V2000
    6.4600    6.2400   11.6200 B   0  0  0  0  0  0  0  0  0  0  0  0
    7.6520    6.5990   13.0540 C   0  0  0  0  0  0  0  0  0  0  0  0
    9.0070    6.8250   12.7770 C   0  0  0  0  0  0  0  0  0  0  0  0
    9.9060    7.0960   13.7620 C   0  0  0  0  0  0  0  0  0  0  0  0
    9.4590    7.1450   15.0710 C   0  0  0  0  0  0  0  0  0  0  0  0
    8.1160    6.9220   15.3550 C   0  0  0  0  0  0  0  0  0  0  0  0
    7.2100    6.6500   14.3570 C   0  0  0  0  0  0  0  0  0  0  0  0
    7.5940    6.9660   16.7510 C   0  0  0  0  0  0  0  0  0  0  0  0
   11.3320    7.3740   13.4390 C   0  0  1  0  0  0  0  0  0  0  0  0
   11.8890    6.6960   12.2400 C   0  0  0  0  0  0  0  0  0  0  0  0
   10.7640    6.0750   11.3780 C   0  0  0  0  0  0  0  0  0  0  0  0
    9.5460    6.7910   11.4980 O   0  0  0  0  0  0  0  0  0  0  0  0
   12.7450    5.4910   12.5850 C   0  0  0  0  0  0  0  0  0  0  0  0
   13.0050    4.6000   11.4750 N   0  0  0  0  0  4  0  0  0  0  0  0
   12.2680    3.3510   11.6680 C   0  0  0  0  0  0  0  0  0  0  0  0
   12.9650    2.2910   10.8990 C   0  0  0  0  0  0  0  0  0  0  0  0
   14.2360    2.9350   10.4600 C   0  0  0  0  0  0  0  0  0  0  0  0
   14.3630    4.0810   11.4730 C   0  0  0  0  0  0  0  0  0  0  0  0
   12.5580    7.6380   11.3120 C   0  0  0  0  0  0  0  0  0  0  0  0
   13.7210    8.3470   11.4640 N   0  0  0  0  0  4  0  0  0  0  0  0
   14.2970    8.1020   12.8050 C   0  0  0  0  0  0  0  0  0  0  0  0
   15.7670    8.1400   12.6470 C   0  0  0  0  0  0  0  0  0  0  0  0
   16.0500    7.8180   11.2300 C   0  0  0  0  0  0  0  0  0  0  0  0
   14.7510    8.1950   10.5210 C   0  0  0  0  0  0  0  0  0  0  0  0
   11.3510    8.7940   13.3490 O   0  0  0  0  0  0  0  0  0  0  0  0
   10.1070    7.3500   15.8950 H   0  0  0  0  0  0  0  0  0  0  0  0
    6.1630    6.4720   14.5380 H   0  0  0  0  0  0  0  0  0  0  0  0
    8.3890    6.7600   17.4910 H   0  0  0  0  0  0  0  0  0  0  0  0
    7.1300    7.9760   16.9070 H   0  0  0  0  0  0  0  0  0  0  0  0
    6.7380    6.2440   16.8620 H   0  0  0  0  0  0  0  0  0  0  0  0
   11.9360    7.1720   14.3720 H   0  0  0  0  0  0  0  0  0  0  0  0
   10.6730    5.0000   11.5260 H   0  0  0  0  0  0  0  0  0  0  0  0
   11.0730    6.1940   10.3040 H   0  0  0  0  0  0  0  0  0  0  0  0
   13.7740    5.8800   12.8780 H   0  0  0  0  0  0  0  0  0  0  0  0
   12.4460    4.9000   13.4300 H   0  0  0  0  0  0  0  0  0  0  0  0
   12.8390    4.9960   10.5390 H   0  0  0  0  0  0  0  0  0  0  0  0
   11.2230    3.4150   11.3880 H   0  0  0  0  0  0  0  0  0  0  0  0
   12.3120    3.1460   12.7680 H   0  0  0  0  0  0  0  0  0  0  0  0
   12.3420    1.8970   10.0820 H   0  0  0  0  0  0  0  0  0  0  0  0
   13.1870    1.4080   11.5650 H   0  0  0  0  0  0  0  0  0  0  0  0
   14.0770    3.3920    9.4470 H   0  0  0  0  0  0  0  0  0  0  0  0
   15.1200    2.2860   10.4910 H   0  0  0  0  0  0  0  0  0  0  0  0
   14.6180    3.6300   12.4590 H   0  0  0  0  0  0  0  0  0  0  0  0
   15.1260    4.7790   11.1470 H   0  0  0  0  0  0  0  0  0  0  0  0
   12.6610    7.1040   10.2680 H   0  0  0  0  0  0  0  0  0  0  0  0
   11.7690    8.4230   10.9540 H   0  0  0  0  0  0  0  0  0  0  0  0
   13.5150    9.4350   11.5770 H   0  0  0  0  0  0  0  0  0  0  0  0
   14.0280    8.9200   13.5250 H   0  0  0  0  0  0  0  0  0  0  0  0
   13.9320    7.1870   13.2680 H   0  0  0  0  0  0  0  0  0  0  0  0
   16.1950    9.1420   12.8820 H   0  0  0  0  0  0  0  0  0  0  0  0
   16.2800    7.3770   13.2900 H   0  0  0  0  0  0  0  0  0  0  0  0
   16.8590    8.4300   10.7960 H   0  0  0  0  0  0  0  0  0  0  0  0
   16.3110    6.7470   11.0530 H   0  0  0  0  0  0  0  0  0  0  0  0
   14.6390    7.4510    9.7410 H   0  0  0  0  0  0  0  0  0  0  0  0
   14.9390    9.1720    9.9520 H   0  0  0  0  0  0  0  0  0  0  0  0
   12.1050    9.1040   12.8180 H   0  0  0  0  0  0  0  0  0  0  0  0
  1  2  1  0  0  0  0
  2  7  1  0  0  0  0
  3  2  2  0  0  0  0
  3  4  1  0  0  0  0
  4  5  2  0  0  0  0
  5  6  1  0  0  0  0
  5 26  1  0  0  0  0
  6  8  1  0  0  0  0
  7 27  1  0  0  0  0
  7  6  2  0  0  0  0
  8 30  1  0  0  0  0
  8 29  1  0  0  0  0
  8 28  1  0  0  0  0
  9  4  1  0  0  0  0
  9 31  1  1  0  0  0
 10 13  1  0  0  0  0
 10  9  1  0  0  0  0
 11 12  1  0  0  0  0
 11 32  1  0  0  0  0
 11 10  1  0  0  0  0
 12  3  1  0  0  0  0
 13 34  1  0  0  0  0
 13 35  1  0  0  0  0
 14 15  1  0  0  0  0
 14 13  1  0  0  0  0
 15 38  1  0  0  0  0
 16 40  1  0  0  0  0
 16 15  1  0  0  0  0
 17 42  1  0  0  0  0
 17 16  1  0  0  0  0
 17 18  1  0  0  0  0
 18 14  1  0  0  0  0
 18 43  1  0  0  0  0
 19 20  1  0  0  0  0
 19 10  1  0  0  0  0
 20 47  1  0  0  0  0
 20 21  1  0  0  0  0
 21 49  1  0  0  0  0
 21 48  1  0  0  0  0
 22 21  1  0  0  0  0
 22 50  1  0  0  0  0
 22 51  1  0  0  0  0
 23 22  1  0  0  0  0
 24 23  1  0  0  0  0
 24 20  1  0  0  0  0
 25  9  1  0  0  0  0
 33 11  1  0  0  0  0
 36 14  1  0  0  0  0
 37 15  1  0  0  0  0
 39 16  1  0  0  0  0
 41 17  1  0  0  0  0
 44 18  1  0  0  0  0
 45 19  1  0  0  0  0
 46 19  1  0  0  0  0
 52 23  1  0  0  0  0
 53 23  1  0  0  0  0
 54 24  1  0  0  0  0
 55 24  1  0  0  0  0
 56 25  1  0  0  0  0
M  END
>  <Pose>
1

>  <Score>
-4.37

$$$$
