
 OpenBabel03172210413D

 46 49  0  0  0  0  0  0  0  0999 V2000
   16.8980    3.5530   10.4380 B   0  0  0  0  0  0  0  0  0  0  0  0
   15.5430    2.3700    9.7420 C   0  0  0  0  0  0  0  0  0  0  0  0
   14.2560    2.2930   10.1310 N   0  0  0  0  0  0  0  0  0  0  0  0
   13.6280    1.3490    9.4110 C   0  0  0  0  0  0  0  0  0  0  0  0
   14.5550    0.8140    8.5380 C   0  0  0  0  0  0  0  0  0  0  0  0
   15.7070    1.4580    8.7680 N   0  0  0  0  0  0  0  0  0  0  0  0
   14.1630   -0.1620    7.6950 N   0  0  0  0  0  0  0  0  0  0  0  0
   12.8990   -0.6400    7.6660 C   0  0  0  0  0  0  0  0  0  0  0  0
   12.5720   -1.5590    6.8580 O   0  0  0  0  0  0  0  0  0  0  0  0
   11.9710   -0.1410    8.5020 N   0  0  0  0  0  0  0  0  0  0  0  0
   12.3510    0.8330    9.3470 C   0  0  0  0  0  0  0  0  0  0  0  0
   11.4970    1.3040   10.1250 O   0  0  0  0  0  0  0  0  0  0  0  0
   10.6210   -0.6690    8.4520 C   0  0  0  0  0  0  0  0  0  0  0  0
   15.1420   -0.7180    6.7840 C   0  0  0  0  0  0  0  0  0  0  0  0
   13.7010    3.1190   11.1480 C   0  0  0  0  0  0  0  0  0  0  0  0
   13.6140    4.5760   10.8710 C   0  0  0  0  0  0  0  0  0  0  0  0
   12.6770    5.3350   11.6280 N   0  0  0  0  0  0  0  0  0  0  0  0
   11.3610    5.4800   11.3350 C   0  0  0  0  0  0  0  0  0  0  0  0
   10.7710    6.2850   12.2780 C   0  0  0  0  0  0  0  0  0  0  0  0
   11.7580    6.6090   13.1300 N   0  0  0  0  0  0  0  0  0  0  0  0
   12.9060    6.0390   12.7400 C   0  0  0  0  0  0  0  0  0  0  0  0
   14.6290    6.1770   13.5930 B   0  0  0  0  0  0  0  0  0  0  0  0
    9.4520    6.6160   12.2550 N   0  0  0  0  0  0  0  0  0  0  0  0
    8.7200    6.1140   11.2450 C   0  0  0  0  0  0  0  0  0  0  0  0
    7.4950    6.4130   11.2120 O   0  0  0  0  0  0  0  0  0  0  0  0
    9.2430    5.3210   10.2940 N   0  0  0  0  0  0  0  0  0  0  0  0
   10.5360    5.0020   10.3240 C   0  0  0  0  0  0  0  0  0  0  0  0
   11.0890    4.2650    9.4640 O   0  0  0  0  0  0  0  0  0  0  0  0
    8.4110    4.8060    9.2270 C   0  0  0  0  0  0  0  0  0  0  0  0
    8.8590    7.4720   13.2740 C   0  0  0  0  0  0  0  0  0  0  0  0
   10.0820   -0.4480    9.3920 H   0  0  0  0  0  0  0  0  0  0  0  0
   10.0230   -0.2260    7.6230 H   0  0  0  0  0  0  0  0  0  0  0  0
   10.7010   -1.7660    8.2960 H   0  0  0  0  0  0  0  0  0  0  0  0
   14.9440   -1.8210    6.7080 H   0  0  0  0  0  0  0  0  0  0  0  0
   16.1540   -0.5840    7.1760 H   0  0  0  0  0  0  0  0  0  0  0  0
   14.9990   -0.2780    5.7720 H   0  0  0  0  0  0  0  0  0  0  0  0
   12.6560    2.8010   11.4430 H   0  0  0  0  0  0  0  0  0  0  0  0
   14.2940    2.9130   12.0880 H   0  0  0  0  0  0  0  0  0  0  0  0
   13.4100    4.6850    9.7730 H   0  0  0  0  0  0  0  0  0  0  0  0
   14.6300    5.0700   10.9780 H   0  0  0  0  0  0  0  0  0  0  0  0
    9.0090    4.5000    8.3440 H   0  0  0  0  0  0  0  0  0  0  0  0
    7.8440    3.8860    9.5440 H   0  0  0  0  0  0  0  0  0  0  0  0
    7.7010    5.5840    8.8480 H   0  0  0  0  0  0  0  0  0  0  0  0
    9.2570    7.2510   14.2870 H   0  0  0  0  0  0  0  0  0  0  0  0
    8.9700    8.5470   13.0090 H   0  0  0  0  0  0  0  0  0  0  0  0
    7.7780    7.2210   13.3130 H   0  0  0  0  0  0  0  0  0  0  0  0
  2  3  1  0  0  0  0
  2  1  1  0  0  0  0
  3 15  1  0  0  0  0
  4  3  1  0  0  0  0
  5  6  1  0  0  0  0
  5  4  2  0  0  0  0
  6  2  2  0  0  0  0
  7  5  1  0  0  0  0
  8  7  1  0  0  0  0
  8 10  1  0  0  0  0
  9  8  2  0  0  0  0
 10 11  1  0  0  0  0
 11  4  1  0  0  0  0
 11 12  2  0  0  0  0
 13 10  1  0  0  0  0
 13 31  1  0  0  0  0
 14 35  1  0  0  0  0
 14  7  1  0  0  0  0
 15 37  1  0  0  0  0
 15 38  1  0  0  0  0
 16 40  1  0  0  0  0
 16 15  1  0  0  0  0
 16 17  1  0  0  0  0
 17 21  1  0  0  0  0
 18 17  1  0  0  0  0
 18 19  2  0  0  0  0
 19 20  1  0  0  0  0
 21 20  2  0  0  0  0
 21 22  1  0  0  0  0
 23 19  1  0  0  0  0
 23 30  1  0  0  0  0
 24 23  1  0  0  0  0
 25 24  2  0  0  0  0
 26 27  1  0  0  0  0
 26 24  1  0  0  0  0
 27 18  1  0  0  0  0
 28 27  2  0  0  0  0
 29 42  1  0  0  0  0
 29 26  1  0  0  0  0
 30 46  1  0  0  0  0
 30 44  1  0  0  0  0
 32 13  1  0  0  0  0
 33 13  1  0  0  0  0
 34 14  1  0  0  0  0
 36 14  1  0  0  0  0
 39 16  1  0  0  0  0
 41 29  1  0  0  0  0
 43 29  1  0  0  0  0
 45 30  1  0  0  0  0
M  END
>  <Pose>
1

>  <Score>
-6.79

$$$$
