
 OpenBabel03162216323D

 43 46  0  0  0  0  0  0  0  0999 V2000
   12.0330    8.1730   12.3320 B   0  0  0  0  0  0  0  0  0  0  0  0
   10.1580    7.8810   12.4880 C   0  0  0  0  0  0  0  0  0  0  0  0
    9.4860    6.9600   11.7310 N   0  0  0  0  0  0  0  0  0  0  0  0
    8.2030    7.0580   12.1350 C   0  0  0  0  0  0  0  0  0  0  0  0
    8.0680    8.0200   13.1230 C   0  0  0  0  0  0  0  0  0  0  0  0
    9.3110    8.5100   13.3150 N   0  0  0  0  0  0  0  0  0  0  0  0
    6.9040    8.3320   13.7190 N   0  0  0  0  0  0  0  0  0  0  0  0
    5.8180    7.6500   13.3130 C   0  0  0  0  0  0  0  0  0  0  0  0
    4.6890    7.9110   13.8480 O   0  0  0  0  0  0  0  0  0  0  0  0
    5.9050    6.7070   12.3570 N   0  0  0  0  0  0  0  0  0  0  0  0
    7.0830    6.3880   11.7500 C   0  0  0  0  0  0  0  0  0  0  0  0
    7.1460    5.5090   10.8660 O   0  0  0  0  0  0  0  0  0  0  0  0
    6.7710    9.3390   14.7500 C   0  0  0  0  0  0  0  0  0  0  0  0
   10.0980    6.0930   10.7460 C   0  0  0  0  0  0  0  0  0  0  0  0
    9.7830    4.6380   10.9370 C   0  0  0  0  0  0  0  0  0  0  0  0
   10.8640    3.8470   11.6160 C   0  0  0  0  0  0  0  0  0  0  0  0
   11.3760    2.8250   10.7140 N   0  0  0  0  0  0  0  0  0  0  0  0
   12.6550    2.6010   10.3370 C   0  0  0  0  0  0  0  0  0  0  0  0
   12.7170    1.5340    9.4710 C   0  0  0  0  0  0  0  0  0  0  0  0
   11.4470    1.1110    9.3270 N   0  0  0  0  0  0  0  0  0  0  0  0
   10.6450    1.8940   10.0790 C   0  0  0  0  0  0  0  0  0  0  0  0
    8.7490    1.7510   10.2590 B   0  0  0  0  0  0  0  0  0  0  0  0
   13.8620    1.0790    8.9280 N   0  0  0  0  0  0  0  0  0  0  0  0
   14.9970    1.7330    9.2760 C   0  0  0  0  0  0  0  0  0  0  0  0
   16.0790    1.3060    8.7670 O   0  0  0  0  0  0  0  0  0  0  0  0
   14.9810    2.7840   10.1220 N   0  0  0  0  0  0  0  0  0  0  0  0
   13.8280    3.2310   10.6610 C   0  0  0  0  0  0  0  0  0  0  0  0
   13.7780    4.2050   11.4500 O   0  0  0  0  0  0  0  0  0  0  0  0
   13.8790   -0.0580    8.0110 C   0  0  0  0  0  0  0  0  0  0  0  0
    5.0740    6.1700   12.0300 H   0  0  0  0  0  0  0  0  0  0  0  0
    7.6590   10.0050   14.7850 H   0  0  0  0  0  0  0  0  0  0  0  0
    5.9170   10.0150   14.4610 H   0  0  0  0  0  0  0  0  0  0  0  0
    6.6300    8.9050   15.7590 H   0  0  0  0  0  0  0  0  0  0  0  0
   11.1920    6.2890   10.6940 H   0  0  0  0  0  0  0  0  0  0  0  0
    9.6440    6.3760    9.7520 H   0  0  0  0  0  0  0  0  0  0  0  0
    9.4600    4.1560    9.9880 H   0  0  0  0  0  0  0  0  0  0  0  0
    8.8780    4.5710   11.6120 H   0  0  0  0  0  0  0  0  0  0  0  0
   11.7440    4.5330   11.8010 H   0  0  0  0  0  0  0  0  0  0  0  0
   10.5280    3.4010   12.5510 H   0  0  0  0  0  0  0  0  0  0  0  0
   15.8830    3.2450   10.3530 H   0  0  0  0  0  0  0  0  0  0  0  0
   13.5730   -0.9920    8.5280 H   0  0  0  0  0  0  0  0  0  0  0  0
   13.1870    0.0960    7.1610 H   0  0  0  0  0  0  0  0  0  0  0  0
   14.9210   -0.1890    7.6830 H   0  0  0  0  0  0  0  0  0  0  0  0
  1  2  1  0  0  0  0
  2  6  2  0  0  0  0
  3  4  1  0  0  0  0
  3  2  1  0  0  0  0
  4  5  2  0  0  0  0
  5  6  1  0  0  0  0
  5  7  1  0  0  0  0
  7 13  1  0  0  0  0
  8  7  1  0  0  0  0
  8  9  2  0  0  0  0
 10  8  1  0  0  0  0
 11  4  1  0  0  0  0
 11 10  1  0  0  0  0
 12 11  2  0  0  0  0
 13 31  1  0  0  0  0
 13 33  1  0  0  0  0
 14 15  1  0  0  0  0
 14  3  1  0  0  0  0
 15 37  1  0  0  0  0
 15 16  1  0  0  0  0
 16 38  1  0  0  0  0
 16 39  1  0  0  0  0
 17 16  1  0  0  0  0
 18 27  1  0  0  0  0
 18 17  1  0  0  0  0
 19 18  2  0  0  0  0
 20 19  1  0  0  0  0
 20 21  2  0  0  0  0
 21 22  1  0  0  0  0
 21 17  1  0  0  0  0
 23 24  1  0  0  0  0
 23 19  1  0  0  0  0
 24 26  1  0  0  0  0
 25 24  2  0  0  0  0
 26 40  1  0  0  0  0
 26 27  1  0  0  0  0
 27 28  2  0  0  0  0
 29 41  1  0  0  0  0
 29 23  1  0  0  0  0
 30 10  1  0  0  0  0
 32 13  1  0  0  0  0
 34 14  1  0  0  0  0
 35 14  1  0  0  0  0
 36 15  1  0  0  0  0
 42 29  1  0  0  0  0
 43 29  1  0  0  0  0
M  END
>  <Pose>
1

>  <Score>
-6.78

$$$$
