
 OpenBabel03172210413D

 43 46  0  0  0  0  0  0  0  0999 V2000
   19.5050    3.4360   11.4890 B   0  0  0  0  0  0  0  0  0  0  0  0
   18.7380    5.1750   11.6050 C   0  0  0  0  0  0  0  0  0  0  0  0
   17.3960    5.3840   11.7700 N   0  0  0  0  0  0  0  0  0  0  0  0
   17.2610    6.7250   11.8050 C   0  0  0  0  0  0  0  0  0  0  0  0
   18.4900    7.3490   11.6640 C   0  0  0  0  0  0  0  0  0  0  0  0
   19.3870    6.3470   11.5420 N   0  0  0  0  0  0  0  0  0  0  0  0
   18.6660    8.6820   11.6670 N   0  0  0  0  0  0  0  0  0  0  0  0
   17.5610    9.4330   11.8210 C   0  0  0  0  0  0  0  0  0  0  0  0
   17.6750   10.7050   11.8290 O   0  0  0  0  0  0  0  0  0  0  0  0
   16.3480    8.8680   11.9620 N   0  0  0  0  0  0  0  0  0  0  0  0
   16.1660    7.5180   11.9590 C   0  0  0  0  0  0  0  0  0  0  0  0
   15.0340    7.0100   12.0930 O   0  0  0  0  0  0  0  0  0  0  0  0
   19.9530    9.3260   11.5180 C   0  0  0  0  0  0  0  0  0  0  0  0
   16.4040    4.3360   11.8920 C   0  0  0  0  0  0  0  0  0  0  0  0
   16.1980    3.5440   10.6340 C   0  0  0  0  0  0  0  0  0  0  0  0
   15.1290    4.0790    9.7250 C   0  0  0  0  0  0  0  0  0  0  0  0
   13.9930    3.1680    9.7000 N   0  0  0  0  0  0  0  0  0  0  0  0
   13.8760    1.9890    9.0490 C   0  0  0  0  0  0  0  0  0  0  0  0
   12.6400    1.4340    9.2850 C   0  0  0  0  0  0  0  0  0  0  0  0
   12.0040    2.3000   10.0950 N   0  0  0  0  0  0  0  0  0  0  0  0
   12.8260    3.3430   10.3410 C   0  0  0  0  0  0  0  0  0  0  0  0
   12.4470    4.8660   11.4280 B   0  0  0  0  0  0  0  0  0  0  0  0
   12.2380    0.2590    8.7660 N   0  0  0  0  0  0  0  0  0  0  0  0
   13.1270   -0.3870    7.9710 C   0  0  0  0  0  0  0  0  0  0  0  0
   12.7520   -1.4960    7.4800 O   0  0  0  0  0  0  0  0  0  0  0  0
   14.3490    0.1220    7.7130 N   0  0  0  0  0  0  0  0  0  0  0  0
   14.7420    1.3010    8.2390 C   0  0  0  0  0  0  0  0  0  0  0  0
   15.8710    1.8020    8.0190 O   0  0  0  0  0  0  0  0  0  0  0  0
   10.9140   -0.2920    9.0450 C   0  0  0  0  0  0  0  0  0  0  0  0
   15.4820    9.4360   12.0810 H   0  0  0  0  0  0  0  0  0  0  0  0
   20.7170    8.6230   11.1230 H   0  0  0  0  0  0  0  0  0  0  0  0
   19.8520   10.1160   10.7210 H   0  0  0  0  0  0  0  0  0  0  0  0
   20.3360    9.7470   12.4690 H   0  0  0  0  0  0  0  0  0  0  0  0
   15.4540    4.7550   12.2910 H   0  0  0  0  0  0  0  0  0  0  0  0
   16.8110    3.6050   12.6500 H   0  0  0  0  0  0  0  0  0  0  0  0
   16.0500    2.4620   10.8450 H   0  0  0  0  0  0  0  0  0  0  0  0
   17.1610    3.5890   10.0410 H   0  0  0  0  0  0  0  0  0  0  0  0
   14.7220    5.0330   10.1760 H   0  0  0  0  0  0  0  0  0  0  0  0
   15.4940    4.2630    8.7160 H   0  0  0  0  0  0  0  0  0  0  0  0
   14.9890   -0.4170    7.0970 H   0  0  0  0  0  0  0  0  0  0  0  0
   10.8090   -0.5550   10.1180 H   0  0  0  0  0  0  0  0  0  0  0  0
   10.1140    0.4320    8.7970 H   0  0  0  0  0  0  0  0  0  0  0  0
   10.8270   -1.2250    8.4660 H   0  0  0  0  0  0  0  0  0  0  0  0
  1  2  1  0  0  0  0
  2  3  1  0  0  0  0
  3  4  1  0  0  0  0
  3 14  1  0  0  0  0
  4 11  1  0  0  0  0
  5  7  1  0  0  0  0
  5  4  2  0  0  0  0
  6  2  2  0  0  0  0
  6  5  1  0  0  0  0
  7  8  1  0  0  0  0
  8  9  2  0  0  0  0
  8 10  1  0  0  0  0
 10 30  1  0  0  0  0
 11 10  1  0  0  0  0
 11 12  2  0  0  0  0
 13  7  1  0  0  0  0
 13 33  1  0  0  0  0
 14 34  1  0  0  0  0
 14 35  1  0  0  0  0
 15 36  1  0  0  0  0
 15 14  1  0  0  0  0
 16 38  1  0  0  0  0
 16 15  1  0  0  0  0
 17 16  1  0  0  0  0
 17 21  1  0  0  0  0
 18 19  2  0  0  0  0
 18 17  1  0  0  0  0
 19 20  1  0  0  0  0
 20 21  2  0  0  0  0
 21 22  1  0  0  0  0
 23 29  1  0  0  0  0
 23 19  1  0  0  0  0
 24 23  1  0  0  0  0
 25 24  2  0  0  0  0
 26 24  1  0  0  0  0
 26 27  1  0  0  0  0
 27 18  1  0  0  0  0
 28 27  2  0  0  0  0
 29 41  1  0  0  0  0
 31 13  1  0  0  0  0
 32 13  1  0  0  0  0
 37 15  1  0  0  0  0
 39 16  1  0  0  0  0
 40 26  1  0  0  0  0
 42 29  1  0  0  0  0
 43 29  1  0  0  0  0
M  END
>  <Pose>
1

>  <Score>
-7.43

$$$$
