
 OpenBabel03172210413D

 35 38  0  0  0  0  0  0  0  0999 V2000
   10.2620    0.3670    9.1930 B   0  0  0  0  0  0  0  0  0  0  0  0
   12.0190    0.0820    8.5180 C   0  0  0  0  0  0  0  0  0  0  0  0
   12.4100   -0.9490    7.7130 N   0  0  0  0  0  0  0  0  0  0  0  0
   13.6840   -0.8040    7.4330 N   0  0  0  0  0  0  0  0  0  0  0  0
   14.1610    0.3000    8.0310 C   0  0  0  0  0  0  0  0  0  0  0  0
   15.3640    0.8950    8.0600 N   0  0  0  0  0  0  0  0  0  0  0  0
   15.5760    2.0200    8.7370 C   0  0  0  0  0  0  0  0  0  0  0  0
   14.5770    2.5830    9.4110 N   0  0  0  0  0  0  0  0  0  0  0  0
   13.3070    2.0570    9.4490 C   0  0  0  0  0  0  0  0  0  0  0  0
   13.1080    0.8980    8.7430 C   0  0  0  0  0  0  0  0  0  0  0  0
   12.3020    2.6620   10.2030 N   0  0  0  0  0  0  0  0  0  0  0  0
   12.4130    2.7870   11.6400 C   0  0  0  0  0  0  0  0  0  0  0  0
   12.6740    4.2770   11.9490 C   0  0  0  0  0  0  0  0  0  0  0  0
   11.8880    5.1130   11.0170 C   0  0  0  0  0  0  0  0  0  0  0  0
   11.7470    6.4580   11.0540 N   0  0  0  0  0  0  0  0  0  0  0  0
   10.9530    6.8160   10.0310 C   0  0  0  0  0  0  0  0  0  0  0  0
   10.5810    5.7410    9.3390 N   0  0  0  0  0  0  0  0  0  0  0  0
   11.1600    4.6830    9.9490 C   0  0  0  0  0  0  0  0  0  0  0  0
   11.1100    3.2350    9.6320 C   0  0  0  0  0  0  0  0  0  0  0  0
   12.3190    7.3890   11.9930 C   0  0  0  0  0  0  0  0  0  0  0  0
   14.5330   -1.6710    6.6030 C   0  0  0  0  0  0  0  0  0  0  0  0
   16.5440    2.4680    8.7390 H   0  0  0  0  0  0  0  0  0  0  0  0
   13.2500    2.2320   12.0810 H   0  0  0  0  0  0  0  0  0  0  0  0
   11.4800    2.4800   12.1680 H   0  0  0  0  0  0  0  0  0  0  0  0
   13.7500    4.5170   11.8480 H   0  0  0  0  0  0  0  0  0  0  0  0
   12.3980    4.4180   13.0090 H   0  0  0  0  0  0  0  0  0  0  0  0
   10.6330    7.8360    9.7670 H   0  0  0  0  0  0  0  0  0  0  0  0
   11.0080    3.0340    8.5480 H   0  0  0  0  0  0  0  0  0  0  0  0
   10.2190    2.8330   10.1990 H   0  0  0  0  0  0  0  0  0  0  0  0
   12.7050    8.2980   11.4850 H   0  0  0  0  0  0  0  0  0  0  0  0
   11.5290    7.7480   12.6960 H   0  0  0  0  0  0  0  0  0  0  0  0
   13.1750    6.9300   12.5420 H   0  0  0  0  0  0  0  0  0  0  0  0
   15.0110   -1.0700    5.8050 H   0  0  0  0  0  0  0  0  0  0  0  0
   13.9190   -2.4920    6.1940 H   0  0  0  0  0  0  0  0  0  0  0  0
   15.3150   -2.1390    7.2430 H   0  0  0  0  0  0  0  0  0  0  0  0
  2 10  1  0  0  0  0
  2  1  1  0  0  0  0
  3  2  2  0  0  0  0
  4  3  1  0  0  0  0
  4  5  1  0  0  0  0
  5  6  1  0  0  0  0
  5 10  2  0  0  0  0
  6  7  2  0  0  0  0
  7 22  1  0  0  0  0
  7  8  1  0  0  0  0
  8  9  2  0  0  0  0
  9 11  1  0  0  0  0
 10  9  1  0  0  0  0
 11 12  1  0  0  0  0
 12 13  1  0  0  0  0
 12 23  1  0  0  0  0
 12 24  1  0  0  0  0
 13 26  1  0  0  0  0
 14 15  1  0  0  0  0
 14 13  1  0  0  0  0
 15 20  1  0  0  0  0
 16 15  1  0  0  0  0
 17 18  1  0  0  0  0
 17 16  2  0  0  0  0
 18 14  2  0  0  0  0
 19 18  1  0  0  0  0
 19 29  1  0  0  0  0
 19 11  1  0  0  0  0
 20 32  1  0  0  0  0
 20 31  1  0  0  0  0
 21 35  1  0  0  0  0
 21  4  1  0  0  0  0
 25 13  1  0  0  0  0
 27 16  1  0  0  0  0
 28 19  1  0  0  0  0
 30 20  1  0  0  0  0
 33 21  1  0  0  0  0
 34 21  1  0  0  0  0
M  END
>  <Pose>
1

>  <Score>
-6.54

$$$$
