
 OpenBabel03172210413D

 32 35  0  0  1  0  0  0  0  0999 V2000
    8.8570    6.0880   13.7050 B   0  0  0  0  0  0  0  0  0  0  0  0
    9.6130    5.8080   11.9660 C   0  0  0  0  0  0  0  0  0  0  0  0
   10.6380    5.0190   11.6250 N   0  0  0  0  0  0  0  0  0  0  0  0
   10.8500    5.1060   10.3130 C   0  0  0  0  0  0  0  0  0  0  0  0
    9.9310    5.9750    9.8170 N   0  0  0  0  0  0  0  0  0  0  0  0
    9.1530    6.4220   10.8190 C   0  0  0  0  0  0  0  0  0  0  0  0
   11.9450    4.3240    9.6650 C   0  0  0  0  0  0  0  0  0  0  0  0
   12.1740    3.0940   10.3810 N   0  0  2  0  0  0  0  0  0  0  0  0
   11.8600    2.9030   11.7780 C   0  0  0  0  0  0  0  0  0  0  0  0
   11.4520    4.1700   12.4710 C   0  0  0  0  0  0  0  0  0  0  0  0
   12.7400    2.0150    9.6750 C   0  0  1  0  0  0  0  0  0  0  0  0
   11.9680    1.0290    9.2790 C   0  0  0  0  0  0  0  0  0  0  0  0
   12.5040   -0.1240    8.5380 C   0  0  0  0  0  0  0  0  0  0  0  0
   11.7400   -1.1220    8.1330 C   0  0  0  0  0  0  0  0  0  0  0  0
   13.9010   -0.0880    8.2870 N   0  0  0  0  0  0  0  0  0  0  0  0
   14.7270    0.9980    8.7280 C   0  0  0  0  0  0  0  0  0  0  0  0
   14.1280    2.0140    9.4060 N   0  0  0  0  0  0  0  0  0  0  0  0
   15.1050    2.8800    9.6960 N   0  0  0  0  0  0  0  0  0  0  0  0
   16.2860    2.4490    9.2290 C   0  0  0  0  0  0  0  0  0  0  0  0
   16.0390    1.2740    8.6270 N   0  0  0  0  0  0  0  0  0  0  0  0
    8.3200    7.1330   10.7460 H   0  0  0  0  0  0  0  0  0  0  0  0
   11.6920    4.1580    8.5990 H   0  0  0  0  0  0  0  0  0  0  0  0
   12.9000    4.9110    9.7120 H   0  0  0  0  0  0  0  0  0  0  0  0
   12.7980    2.5350   12.2740 H   0  0  0  0  0  0  0  0  0  0  0  0
   11.1180    2.1070   11.8620 H   0  0  0  0  0  0  0  0  0  0  0  0
   10.8990    3.8800   13.3890 H   0  0  0  0  0  0  0  0  0  0  0  0
   12.3160    4.7750   12.8130 H   0  0  0  0  0  0  0  0  0  0  0  0
   10.8920    1.0060    9.4750 H   0  0  0  0  0  0  0  0  0  0  0  0
   10.6730   -1.1570    8.3210 H   0  0  0  0  0  0  0  0  0  0  0  0
   12.1350   -1.9680    7.5900 H   0  0  0  0  0  0  0  0  0  0  0  0
   14.3420   -0.8750    7.7660 H   0  0  0  0  0  0  0  0  0  0  0  0
   17.2580    2.9600    9.3230 H   0  0  0  0  0  0  0  0  0  0  0  0
  2  1  1  0  0  0  0
  3  2  1  0  0  0  0
  3 10  1  0  0  0  0
  4  3  1  0  0  0  0
  5  4  2  0  0  0  0
  5  6  1  0  0  0  0
  6  2  2  0  0  0  0
  7 23  1  0  0  0  0
  7  4  1  0  0  0  0
  8  7  1  1  0  0  0
  8  9  1  0  0  0  0
  9 25  1  0  0  0  0
  9 24  1  0  0  0  0
  9 10  1  0  0  0  0
 10 27  1  0  0  0  0
 10 26  1  0  0  0  0
 11 12  1  6  0  0  0
 11  8  1  0  0  0  0
 12 28  1  0  0  0  0
 13 12  2  0  0  0  0
 14 29  1  0  0  0  0
 14 13  1  0  0  0  0
 15 13  1  0  0  0  0
 15 16  1  0  0  0  0
 16 17  1  0  0  0  0
 17 11  1  0  0  0  0
 17 18  1  0  0  0  0
 19 32  1  0  0  0  0
 19 18  2  0  0  0  0
 20 16  2  0  0  0  0
 20 19  1  0  0  0  0
 21  6  1  0  0  0  0
 22  7  1  0  0  0  0
 30 14  1  0  0  0  0
 31 15  1  0  0  0  0
M  END
>  <Pose>
1

>  <Score>
-6.73

$$$$
