
 OpenBabel03172210413D

 49 52  0  0  0  0  0  0  0  0999 V2000
   10.1570   -0.7720    8.3100 B   0  0  0  0  0  0  0  0  0  0  0  0
   11.2260    0.5590    9.1980 C   0  0  0  0  0  0  0  0  0  0  0  0
   10.8380    1.5800    9.9020 O   0  0  0  0  0  0  0  0  0  0  0  0
   11.8290    2.2730   10.3560 C   0  0  0  0  0  0  0  0  0  0  0  0
   13.0140    1.6670    9.9210 C   0  0  0  0  0  0  0  0  0  0  0  0
   12.6020    0.5770    9.1840 C   0  0  0  0  0  0  0  0  0  0  0  0
   11.7520    3.4610   11.1690 C   0  0  0  0  0  0  0  0  0  0  0  0
   11.6330    3.3340   12.4240 O   0  0  0  0  0  0  0  0  0  0  0  0
   11.8020    4.7790   10.6400 N   0  0  0  0  0  0  0  0  0  0  0  0
   10.6390    5.6010   10.5130 C   0  0  0  0  0  0  0  0  0  0  0  0
    9.8910    5.7790   11.7980 C   0  0  0  0  0  0  0  0  0  0  0  0
    8.4330    5.8610   11.6120 C   0  0  0  0  0  0  0  0  0  0  0  0
    7.9780    5.4700   10.4860 O   0  0  0  0  0  0  0  0  0  0  0  0
    7.5500    6.3470   12.6140 N   0  0  0  0  0  0  0  0  0  0  0  0
    7.7800    6.0050   13.9900 C   0  0  0  0  0  0  0  0  0  0  0  0
    7.3750    7.0720   14.9600 C   0  0  0  0  0  0  0  0  0  0  0  0
    6.3240    8.0010   14.4280 C   0  0  0  0  0  0  0  0  0  0  0  0
    5.5170    8.5180   15.4910 N   0  0  0  0  0  0  0  0  0  0  0  0
    4.4640    9.3770   15.0680 C   0  0  0  0  0  0  0  0  0  0  0  0
    4.8350   10.3810   14.0270 C   0  0  0  0  0  0  0  0  0  0  0  0
    6.2590   10.2940   13.6130 C   0  0  0  0  0  0  0  0  0  0  0  0
    7.0700   11.1820   13.0360 N   0  0  0  0  0  0  0  0  0  0  0  0
    8.2780   10.6290   12.8600 C   0  0  0  0  0  0  0  0  0  0  0  0
    8.2520    9.3730   13.3250 N   0  0  0  0  0  0  0  0  0  0  0  0
    7.0140    9.1600   13.7900 C   0  0  0  0  0  0  0  0  0  0  0  0
    5.5100    7.3070   13.3480 C   0  0  0  0  0  0  0  0  0  0  0  0
    6.4420    7.1820   12.1600 C   0  0  0  0  0  0  0  0  0  0  0  0
   14.0140    1.9810   10.1160 H   0  0  0  0  0  0  0  0  0  0  0  0
   13.2360   -0.1590    8.6690 H   0  0  0  0  0  0  0  0  0  0  0  0
   12.7240    5.1460   10.3370 H   0  0  0  0  0  0  0  0  0  0  0  0
   10.8610    6.5800   10.0500 H   0  0  0  0  0  0  0  0  0  0  0  0
    9.9590    5.0820    9.7740 H   0  0  0  0  0  0  0  0  0  0  0  0
   10.0870    4.8620   12.4200 H   0  0  0  0  0  0  0  0  0  0  0  0
   10.3180    6.6270   12.3690 H   0  0  0  0  0  0  0  0  0  0  0  0
    8.8480    5.7300   14.1020 H   0  0  0  0  0  0  0  0  0  0  0  0
    7.1880    5.0920   14.2120 H   0  0  0  0  0  0  0  0  0  0  0  0
    8.2740    7.6770   15.1980 H   0  0  0  0  0  0  0  0  0  0  0  0
    7.0230    6.6570   15.9300 H   0  0  0  0  0  0  0  0  0  0  0  0
    5.1050    7.7100   16.0070 H   0  0  0  0  0  0  0  0  0  0  0  0
    4.1290    9.9600   15.9760 H   0  0  0  0  0  0  0  0  0  0  0  0
    3.5560    8.8070   14.7580 H   0  0  0  0  0  0  0  0  0  0  0  0
    4.1970   10.2240   13.1160 H   0  0  0  0  0  0  0  0  0  0  0  0
    4.6450   11.4300   14.3360 H   0  0  0  0  0  0  0  0  0  0  0  0
    9.1740   11.0710   12.4190 H   0  0  0  0  0  0  0  0  0  0  0  0
    9.0610    8.6720   13.3270 H   0  0  0  0  0  0  0  0  0  0  0  0
    4.5870    7.8560   13.1050 H   0  0  0  0  0  0  0  0  0  0  0  0
    5.2720    6.2480   13.6550 H   0  0  0  0  0  0  0  0  0  0  0  0
    6.8620    8.1450   11.8390 H   0  0  0  0  0  0  0  0  0  0  0  0
    5.8620    6.6720   11.3650 H   0  0  0  0  0  0  0  0  0  0  0  0
  1  2  1  0  0  0  0
  2  3  1  0  0  0  0
  3  4  1  0  0  0  0
  4  7  1  0  0  0  0
  5 28  1  0  0  0  0
  5  4  2  0  0  0  0
  6  2  2  0  0  0  0
  6  5  1  0  0  0  0
  7  8  2  0  0  0  0
  9  7  1  0  0  0  0
 10  9  1  0  0  0  0
 10 11  1  0  0  0  0
 11 34  1  0  0  0  0
 11 33  1  0  0  0  0
 12 11  1  0  0  0  0
 12 14  1  0  0  0  0
 13 12  2  0  0  0  0
 14 15  1  0  0  0  0
 15 35  1  0  0  0  0
 15 36  1  0  0  0  0
 15 16  1  0  0  0  0
 16 37  1  0  0  0  0
 16 38  1  0  0  0  0
 17 16  1  0  0  0  0
 17 18  1  0  0  0  0
 18 39  1  0  0  0  0
 19 18  1  0  0  0  0
 19 40  1  0  0  0  0
 20 43  1  0  0  0  0
 20 19  1  0  0  0  0
 21 25  2  0  0  0  0
 21 20  1  0  0  0  0
 22 21  1  0  0  0  0
 23 22  2  0  0  0  0
 23 24  1  0  0  0  0
 24 45  1  0  0  0  0
 24 25  1  0  0  0  0
 25 17  1  0  0  0  0
 26 47  1  0  0  0  0
 26 17  1  0  0  0  0
 27 14  1  0  0  0  0
 27 26  1  0  0  0  0
 29  6  1  0  0  0  0
 30  9  1  0  0  0  0
 31 10  1  0  0  0  0
 32 10  1  0  0  0  0
 41 19  1  0  0  0  0
 42 20  1  0  0  0  0
 44 23  1  0  0  0  0
 46 26  1  0  0  0  0
 48 27  1  0  0  0  0
 49 27  1  0  0  0  0
M  END
>  <Pose>
1

>  <Score>
-6.32

$$$$
