
 OpenBabel03172210413D

 49 52  0  0  0  0  0  0  0  0999 V2000
   10.1760   -0.7820    8.5670 B   0  0  0  0  0  0  0  0  0  0  0  0
   11.6840    0.3270    9.0510 C   0  0  0  0  0  0  0  0  0  0  0  0
   12.9150    0.1820    8.7160 O   0  0  0  0  0  0  0  0  0  0  0  0
   13.6710    1.1110    9.2190 C   0  0  0  0  0  0  0  0  0  0  0  0
   12.8550    1.9420    9.9520 C   0  0  0  0  0  0  0  0  0  0  0  0
   11.5830    1.4410    9.8470 C   0  0  0  0  0  0  0  0  0  0  0  0
   15.1250    1.2900    9.0650 C   0  0  0  0  0  0  0  0  0  0  0  0
   15.6700    0.8750    8.0320 O   0  0  0  0  0  0  0  0  0  0  0  0
   15.9030    1.9210   10.0660 N   0  0  0  0  0  0  0  0  0  0  0  0
   15.9620    1.3530   11.3980 C   0  0  0  0  0  0  0  0  0  0  0  0
   15.4440    2.3050   12.4480 C   0  0  0  0  0  0  0  0  0  0  0  0
   15.7110    3.6630   11.9460 N   0  0  0  0  0  0  0  0  0  0  0  0
   16.9160    3.8320   11.2090 C   0  0  0  0  0  0  0  0  0  0  0  0
   16.6710    3.1340    9.8580 C   0  0  0  0  0  0  0  0  0  0  0  0
   14.7470    4.6560   12.2470 C   0  0  0  0  0  0  0  0  0  0  0  0
   13.4340    4.4960   11.9240 N   0  0  0  0  0  0  0  0  0  0  0  0
   12.5110    5.4290   12.2020 C   0  0  0  0  0  0  0  0  0  0  0  0
   12.8710    6.5750   12.8210 N   0  0  0  0  0  0  0  0  0  0  0  0
   14.1430    6.8200   13.1780 C   0  0  0  0  0  0  0  0  0  0  0  0
   15.0810    5.8230   12.8720 C   0  0  0  0  0  0  0  0  0  0  0  0
   14.5620    8.0730   13.8620 C   0  0  0  0  0  0  0  0  0  0  0  0
   11.1560    5.2150   11.8450 N   0  0  0  0  0  0  0  0  0  0  0  0
   10.0450    5.6600   12.6510 C   0  0  0  0  0  0  0  0  0  0  0  0
    9.0940    6.4640   11.8160 C   0  0  0  0  0  0  0  0  0  0  0  0
    9.3710    6.3930   10.4520 O   0  0  0  0  0  0  0  0  0  0  0  0
    9.5640    5.0720   10.0570 C   0  0  0  0  0  0  0  0  0  0  0  0
   10.8520    4.5160   10.6150 C   0  0  0  0  0  0  0  0  0  0  0  0
   13.1610    2.8390   10.5180 H   0  0  0  0  0  0  0  0  0  0  0  0
   10.6850    1.8610   10.3090 H   0  0  0  0  0  0  0  0  0  0  0  0
   16.9830    1.0150   11.6640 H   0  0  0  0  0  0  0  0  0  0  0  0
   15.3010    0.4390   11.4600 H   0  0  0  0  0  0  0  0  0  0  0  0
   14.3780    2.1880   12.6400 H   0  0  0  0  0  0  0  0  0  0  0  0
   16.0550    2.2350   13.3940 H   0  0  0  0  0  0  0  0  0  0  0  0
   17.1330    4.8880   11.0410 H   0  0  0  0  0  0  0  0  0  0  0  0
   17.7620    3.3040   11.7170 H   0  0  0  0  0  0  0  0  0  0  0  0
   16.1850    3.8820    9.2400 H   0  0  0  0  0  0  0  0  0  0  0  0
   17.6240    2.8450    9.3760 H   0  0  0  0  0  0  0  0  0  0  0  0
   16.0910    6.0430   13.1670 H   0  0  0  0  0  0  0  0  0  0  0  0
   15.2950    8.6250   13.2400 H   0  0  0  0  0  0  0  0  0  0  0  0
   13.6690    8.6410   14.1200 H   0  0  0  0  0  0  0  0  0  0  0  0
   15.0720    7.7660   14.8040 H   0  0  0  0  0  0  0  0  0  0  0  0
   10.4020    6.3130   13.4940 H   0  0  0  0  0  0  0  0  0  0  0  0
    9.5110    4.7810   13.0950 H   0  0  0  0  0  0  0  0  0  0  0  0
    8.0460    6.0770   11.9510 H   0  0  0  0  0  0  0  0  0  0  0  0
    9.0900    7.5290   12.1220 H   0  0  0  0  0  0  0  0  0  0  0  0
    9.5990    5.0270    8.9550 H   0  0  0  0  0  0  0  0  0  0  0  0
    8.6850    4.4500   10.3770 H   0  0  0  0  0  0  0  0  0  0  0  0
   11.6640    4.6260    9.8600 H   0  0  0  0  0  0  0  0  0  0  0  0
   10.6890    3.4310   10.8380 H   0  0  0  0  0  0  0  0  0  0  0  0
  1  2  1  0  0  0  0
  2  6  2  0  0  0  0
  3  2  1  0  0  0  0
  3  4  1  0  0  0  0
  4  5  2  0  0  0  0
  5 28  1  0  0  0  0
  6  5  1  0  0  0  0
  6 29  1  0  0  0  0
  7  4  1  0  0  0  0
  7  9  1  0  0  0  0
  8  7  2  0  0  0  0
  9 10  1  0  0  0  0
 10 31  1  0  0  0  0
 10 30  1  0  0  0  0
 10 11  1  0  0  0  0
 11 32  1  0  0  0  0
 11 33  1  0  0  0  0
 12 15  1  0  0  0  0
 12 11  1  0  0  0  0
 13 35  1  0  0  0  0
 13 12  1  0  0  0  0
 14  9  1  0  0  0  0
 14 13  1  0  0  0  0
 15 20  2  0  0  0  0
 16 17  2  0  0  0  0
 16 15  1  0  0  0  0
 17 18  1  0  0  0  0
 18 19  2  0  0  0  0
 19 21  1  0  0  0  0
 20 38  1  0  0  0  0
 20 19  1  0  0  0  0
 21 40  1  0  0  0  0
 21 41  1  0  0  0  0
 22 17  1  0  0  0  0
 22 23  1  0  0  0  0
 23 43  1  0  0  0  0
 23 42  1  0  0  0  0
 24 44  1  0  0  0  0
 24 45  1  0  0  0  0
 24 23  1  0  0  0  0
 25 24  1  0  0  0  0
 26 47  1  0  0  0  0
 26 25  1  0  0  0  0
 26 27  1  0  0  0  0
 27 49  1  0  0  0  0
 27 22  1  0  0  0  0
 34 13  1  0  0  0  0
 36 14  1  0  0  0  0
 37 14  1  0  0  0  0
 39 21  1  0  0  0  0
 46 26  1  0  0  0  0
 48 27  1  0  0  0  0
M  END
>  <Pose>
1

>  <Score>
-5.38

$$$$
