
 OpenBabel03172210413D

 53 56  0  0  0  0  0  0  0  0999 V2000
    5.7540    6.5170   15.2140 B   0  0  0  0  0  0  0  0  0  0  0  0
    6.9350    6.3160   13.7250 C   0  0  0  0  0  0  0  0  0  0  0  0
    8.2340    6.1730   13.7900 O   0  0  0  0  0  0  0  0  0  0  0  0
    8.7810    6.0570   12.6050 C   0  0  0  0  0  0  0  0  0  0  0  0
    7.7530    6.1290   11.6970 C   0  0  0  0  0  0  0  0  0  0  0  0
    6.5830    6.2920   12.3920 C   0  0  0  0  0  0  0  0  0  0  0  0
   10.2220    5.8830   12.3080 C   0  0  0  0  0  0  0  0  0  0  0  0
   11.0370    6.7320   12.6990 O   0  0  0  0  0  0  0  0  0  0  0  0
   10.6480    4.7420   11.5780 N   0  0  0  0  0  0  0  0  0  0  0  0
   11.3090    3.6290   12.2560 C   0  0  0  0  0  0  0  0  0  0  0  0
   11.7210    2.5690   11.2370 C   0  0  0  0  0  0  0  0  0  0  0  0
   12.4330    3.2500   10.1730 N   0  0  0  0  0  0  0  0  0  0  0  0
   11.7670    4.3100    9.4660 C   0  0  0  0  0  0  0  0  0  0  0  0
   10.4580    4.6190   10.1470 C   0  0  0  0  0  0  0  0  0  0  0  0
   13.7740    2.8870    9.8200 C   0  0  0  0  0  0  0  0  0  0  0  0
   14.0320    2.0510    8.8040 N   0  0  0  0  0  0  0  0  0  0  0  0
   15.2940    1.7290    8.4980 C   0  0  0  0  0  0  0  0  0  0  0  0
   16.3400    2.2240    9.1890 N   0  0  0  0  0  0  0  0  0  0  0  0
   16.1500    3.0670   10.2190 C   0  0  0  0  0  0  0  0  0  0  0  0
   14.8430    3.3870   10.5180 C   0  0  0  0  0  0  0  0  0  0  0  0
   17.2160    3.6140   10.9750 N   0  0  0  0  0  0  0  0  0  0  0  0
   17.1960    5.0090   11.3670 C   0  0  0  0  0  0  0  0  0  0  0  0
   18.2840    5.2010   12.4030 C   0  0  0  0  0  0  0  0  0  0  0  0
   19.5530    4.8880   11.8040 N   0  0  0  0  0  0  0  0  0  0  0  0
   19.5900    3.6630   11.0700 C   0  0  0  0  0  0  0  0  0  0  0  0
   18.3650    2.8340   11.3930 C   0  0  0  0  0  0  0  0  0  0  0  0
   20.0540    6.0320   11.0850 C   0  0  0  0  0  0  0  0  0  0  0  0
   15.5690    0.8040    7.3710 C   0  0  0  0  0  0  0  0  0  0  0  0
    7.8370    6.0690   10.6240 H   0  0  0  0  0  0  0  0  0  0  0  0
    5.5600    6.3870   11.9920 H   0  0  0  0  0  0  0  0  0  0  0  0
   10.6530    3.1880   13.0220 H   0  0  0  0  0  0  0  0  0  0  0  0
   12.2160    4.0140   12.7690 H   0  0  0  0  0  0  0  0  0  0  0  0
   12.3650    1.8230   11.7060 H   0  0  0  0  0  0  0  0  0  0  0  0
   10.7800    2.1290   10.8380 H   0  0  0  0  0  0  0  0  0  0  0  0
   12.4220    5.2130    9.4110 H   0  0  0  0  0  0  0  0  0  0  0  0
   11.5230    3.9480    8.4270 H   0  0  0  0  0  0  0  0  0  0  0  0
    9.9770    5.5020    9.7090 H   0  0  0  0  0  0  0  0  0  0  0  0
    9.7890    3.7380    9.9850 H   0  0  0  0  0  0  0  0  0  0  0  0
   14.6390    4.0630   11.3370 H   0  0  0  0  0  0  0  0  0  0  0  0
   17.3920    5.6440   10.4930 H   0  0  0  0  0  0  0  0  0  0  0  0
   16.1890    5.2210   11.7820 H   0  0  0  0  0  0  0  0  0  0  0  0
   18.2670    6.2670   12.6890 H   0  0  0  0  0  0  0  0  0  0  0  0
   18.0670    4.5810   13.2890 H   0  0  0  0  0  0  0  0  0  0  0  0
   20.4940    3.0740   11.3250 H   0  0  0  0  0  0  0  0  0  0  0  0
   19.6050    3.8410    9.9830 H   0  0  0  0  0  0  0  0  0  0  0  0
   18.2990    2.7120   12.5020 H   0  0  0  0  0  0  0  0  0  0  0  0
   18.3740    1.8570   10.8720 H   0  0  0  0  0  0  0  0  0  0  0  0
   19.4750    6.9380   11.2870 H   0  0  0  0  0  0  0  0  0  0  0  0
   21.1110    6.2080   11.4140 H   0  0  0  0  0  0  0  0  0  0  0  0
   20.0560    5.8160    9.9960 H   0  0  0  0  0  0  0  0  0  0  0  0
   16.4960    1.1350    6.8590 H   0  0  0  0  0  0  0  0  0  0  0  0
   15.7010   -0.2300    7.7530 H   0  0  0  0  0  0  0  0  0  0  0  0
   14.7580    0.8710    6.6260 H   0  0  0  0  0  0  0  0  0  0  0  0
  2  3  1  0  0  0  0
  2  1  1  0  0  0  0
  4  3  1  0  0  0  0
  5  6  1  0  0  0  0
  5  4  2  0  0  0  0
  6  2  2  0  0  0  0
  7  4  1  0  0  0  0
  7  8  2  0  0  0  0
  9 10  1  0  0  0  0
  9  7  1  0  0  0  0
 10 32  1  0  0  0  0
 10 31  1  0  0  0  0
 11 33  1  0  0  0  0
 11 10  1  0  0  0  0
 12 11  1  0  0  0  0
 13 14  1  0  0  0  0
 13 12  1  0  0  0  0
 14  9  1  0  0  0  0
 15 12  1  0  0  0  0
 15 20  2  0  0  0  0
 16 15  1  0  0  0  0
 17 16  2  0  0  0  0
 17 18  1  0  0  0  0
 18 19  2  0  0  0  0
 19 20  1  0  0  0  0
 19 21  1  0  0  0  0
 20 39  1  0  0  0  0
 21 22  1  0  0  0  0
 21 26  1  0  0  0  0
 22 41  1  0  0  0  0
 22 23  1  0  0  0  0
 23 42  1  0  0  0  0
 23 43  1  0  0  0  0
 24 23  1  0  0  0  0
 25 44  1  0  0  0  0
 25 26  1  0  0  0  0
 25 24  1  0  0  0  0
 26 46  1  0  0  0  0
 27 48  1  0  0  0  0
 27 49  1  0  0  0  0
 27 24  1  0  0  0  0
 28 52  1  0  0  0  0
 28 17  1  0  0  0  0
 29  5  1  0  0  0  0
 30  6  1  0  0  0  0
 34 11  1  0  0  0  0
 35 13  1  0  0  0  0
 36 13  1  0  0  0  0
 37 14  1  0  0  0  0
 38 14  1  0  0  0  0
 40 22  1  0  0  0  0
 45 25  1  0  0  0  0
 47 26  1  0  0  0  0
 50 27  1  0  0  0  0
 51 28  1  0  0  0  0
 53 28  1  0  0  0  0
M  END
>  <Pose>
1

>  <Score>
-5.74

$$$$
