
 OpenBabel03172210413D

 43 46  0  0  0  0  0  0  0  0999 V2000
   19.9490    2.8320   12.8220 B   0  0  0  0  0  0  0  0  0  0  0  0
   19.0130    4.1810   11.8730 C   0  0  0  0  0  0  0  0  0  0  0  0
   17.9000    4.7740   12.1830 O   0  0  0  0  0  0  0  0  0  0  0  0
   17.5430    5.6610   11.2900 C   0  0  0  0  0  0  0  0  0  0  0  0
   18.5150    5.6440   10.3070 C   0  0  0  0  0  0  0  0  0  0  0  0
   19.4690    4.7010   10.6600 C   0  0  0  0  0  0  0  0  0  0  0  0
   16.3600    6.5150   11.3010 C   0  0  0  0  0  0  0  0  0  0  0  0
   16.1980    7.7110   10.6920 N   0  0  0  0  0  0  0  0  0  0  0  0
   15.0010    8.1640   10.9350 O   0  0  0  0  0  0  0  0  0  0  0  0
   14.3410    7.3210   11.6870 C   0  0  0  0  0  0  0  0  0  0  0  0
   15.1820    6.3050   11.9120 N   0  0  0  0  0  0  0  0  0  0  0  0
   12.9710    7.5390   12.1350 C   0  0  0  0  0  0  0  0  0  0  0  0
   12.6800    7.4220   13.3740 O   0  0  0  0  0  0  0  0  0  0  0  0
   11.9270    7.8840   11.2320 N   0  0  0  0  0  0  0  0  0  0  0  0
   10.5820    7.4690   11.4430 C   0  0  0  0  0  0  0  0  0  0  0  0
   10.4380    5.9660   11.5480 C   0  0  0  0  0  0  0  0  0  0  0  0
   11.2420    5.2860   10.5420 N   0  0  0  0  0  0  0  0  0  0  0  0
   11.9890    4.1560   10.9150 C   0  0  0  0  0  0  0  0  0  0  0  0
   12.5450    4.2240   12.0690 O   0  0  0  0  0  0  0  0  0  0  0  0
   12.2010    2.9450   10.1640 C   0  0  0  0  0  0  0  0  0  0  0  0
   11.0990    2.1460    9.8620 C   0  0  0  0  0  0  0  0  0  0  0  0
   11.2720    0.9920    9.1400 C   0  0  0  0  0  0  0  0  0  0  0  0
   12.5120    0.6250    8.7180 C   0  0  0  0  0  0  0  0  0  0  0  0
   12.6820   -0.5500    7.9820 C   0  0  0  0  0  0  0  0  0  0  0  0
   11.6210   -1.3630    7.6640 C   0  0  0  0  0  0  0  0  0  0  0  0
   10.3740   -0.9880    8.0930 C   0  0  0  0  0  0  0  0  0  0  0  0
   10.1890    0.1670    8.8190 C   0  0  0  0  0  0  0  0  0  0  0  0
   13.5210    1.3920    9.0140 O   0  0  0  0  0  0  0  0  0  0  0  0
   13.4250    2.5200    9.7090 C   0  0  0  0  0  0  0  0  0  0  0  0
   14.4770    3.1660    9.9270 O   0  0  0  0  0  0  0  0  0  0  0  0
   18.4920    6.2650    9.4470 H   0  0  0  0  0  0  0  0  0  0  0  0
   20.3660    4.4360   10.1070 H   0  0  0  0  0  0  0  0  0  0  0  0
   12.1620    8.4540   10.3980 H   0  0  0  0  0  0  0  0  0  0  0  0
    9.9900    7.7780   10.5380 H   0  0  0  0  0  0  0  0  0  0  0  0
   10.1130    7.9890   12.3010 H   0  0  0  0  0  0  0  0  0  0  0  0
   10.8520    5.6680   12.5340 H   0  0  0  0  0  0  0  0  0  0  0  0
    9.3770    5.6580   11.5200 H   0  0  0  0  0  0  0  0  0  0  0  0
   11.2730    5.6130    9.5590 H   0  0  0  0  0  0  0  0  0  0  0  0
   10.0960    2.4240   10.1930 H   0  0  0  0  0  0  0  0  0  0  0  0
   13.6770   -0.8120    7.6630 H   0  0  0  0  0  0  0  0  0  0  0  0
   11.7960   -2.2610    7.0950 H   0  0  0  0  0  0  0  0  0  0  0  0
    9.5350   -1.6190    7.8500 H   0  0  0  0  0  0  0  0  0  0  0  0
    9.2120    0.4700    9.1610 H   0  0  0  0  0  0  0  0  0  0  0  0
  2  3  1  0  0  0  0
  2  1  1  0  0  0  0
  4  7  1  0  0  0  0
  4  3  1  0  0  0  0
  5  6  1  0  0  0  0
  5  4  2  0  0  0  0
  6  2  2  0  0  0  0
  7 11  1  0  0  0  0
  8  9  1  0  0  0  0
  8  7  2  0  0  0  0
  9 10  1  0  0  0  0
 10 11  2  0  0  0  0
 10 12  1  0  0  0  0
 12 13  2  0  0  0  0
 14 15  1  0  0  0  0
 14 12  1  0  0  0  0
 15 16  1  0  0  0  0
 15 35  1  0  0  0  0
 16 36  1  0  0  0  0
 17 18  1  0  0  0  0
 17 16  1  0  0  0  0
 18 19  2  0  0  0  0
 20 18  1  0  0  0  0
 21 20  2  0  0  0  0
 21 39  1  0  0  0  0
 22 21  1  0  0  0  0
 23 28  1  0  0  0  0
 23 22  2  0  0  0  0
 24 23  1  0  0  0  0
 25 24  2  0  0  0  0
 25 26  1  0  0  0  0
 26 27  2  0  0  0  0
 27 22  1  0  0  0  0
 27 43  1  0  0  0  0
 28 29  1  0  0  0  0
 29 30  2  0  0  0  0
 29 20  1  0  0  0  0
 31  5  1  0  0  0  0
 32  6  1  0  0  0  0
 33 14  1  0  0  0  0
 34 15  1  0  0  0  0
 37 16  1  0  0  0  0
 38 17  1  0  0  0  0
 40 24  1  0  0  0  0
 41 25  1  0  0  0  0
 42 26  1  0  0  0  0
M  END
>  <Pose>
1

>  <Score>
-6.28

$$$$
