
 OpenBabel03172210413D

 43 46  0  0  0  0  0  0  0  0999 V2000
    3.3050    8.2240   16.5750 B   0  0  0  0  0  0  0  0  0  0  0  0
    4.3800    8.0060   15.0430 C   0  0  0  0  0  0  0  0  0  0  0  0
    5.4890    7.1540   15.0410 C   0  0  0  0  0  0  0  0  0  0  0  0
    6.2390    7.0290   13.9020 C   0  0  0  0  0  0  0  0  0  0  0  0
    5.8360    7.7790   12.7930 C   0  0  0  0  0  0  0  0  0  0  0  0
    4.8010    8.5540   12.8440 O   0  0  0  0  0  0  0  0  0  0  0  0
    4.0740    8.6960   13.8960 C   0  0  0  0  0  0  0  0  0  0  0  0
    3.0870    9.4750   13.8460 O   0  0  0  0  0  0  0  0  0  0  0  0
    7.4060    6.1740   13.7990 C   0  0  0  0  0  0  0  0  0  0  0  0
    7.5460    5.3950   14.8560 O   0  0  0  0  0  0  0  0  0  0  0  0
    8.3750    6.0290   12.8180 N   0  0  0  0  0  0  0  0  0  0  0  0
    9.8060    6.1300   13.2030 C   0  0  0  0  0  0  0  0  0  0  0  0
   10.5140    4.8700   12.7660 C   0  0  0  0  0  0  0  0  0  0  0  0
   10.3590    4.6960   11.3760 N   0  0  0  0  0  0  0  0  0  0  0  0
    9.5690    5.7230   10.7880 C   0  0  0  0  0  0  0  0  0  0  0  0
    8.1670    5.7870   11.4420 C   0  0  0  0  0  0  0  0  0  0  0  0
   11.5500    4.4300   10.6340 C   0  0  0  0  0  0  0  0  0  0  0  0
   11.6920    3.0520   10.1300 C   0  0  0  0  0  0  0  0  0  0  0  0
   10.6590    2.2240    9.8360 C   0  0  0  0  0  0  0  0  0  0  0  0
   10.8920    0.9520    9.3730 C   0  0  0  0  0  0  0  0  0  0  0  0
   12.1790    0.5180    9.2090 C   0  0  0  0  0  0  0  0  0  0  0  0
   13.2440    1.3400    9.5010 C   0  0  0  0  0  0  0  0  0  0  0  0
   12.9850    2.5920    9.9560 C   0  0  0  0  0  0  0  0  0  0  0  0
   12.1720   -0.7840    8.7380 O   0  0  0  0  0  0  0  0  0  0  0  0
   10.8600   -1.2780    8.9630 C   0  0  0  0  0  0  0  0  0  0  0  0
   10.0600   -0.1120    8.9920 O   0  0  0  0  0  0  0  0  0  0  0  0
    5.6860    6.6410   15.9520 H   0  0  0  0  0  0  0  0  0  0  0  0
    6.4010    7.7230   11.8360 H   0  0  0  0  0  0  0  0  0  0  0  0
    9.8460    6.2290   14.3130 H   0  0  0  0  0  0  0  0  0  0  0  0
   10.2550    7.0020   12.7340 H   0  0  0  0  0  0  0  0  0  0  0  0
   11.6080    4.9730   13.0460 H   0  0  0  0  0  0  0  0  0  0  0  0
   10.1900    3.9920   13.3840 H   0  0  0  0  0  0  0  0  0  0  0  0
    9.9630    6.7340   10.7980 H   0  0  0  0  0  0  0  0  0  0  0  0
    9.4090    5.4210    9.7150 H   0  0  0  0  0  0  0  0  0  0  0  0
    7.6510    4.8560   11.1680 H   0  0  0  0  0  0  0  0  0  0  0  0
    7.6100    6.6370   10.9570 H   0  0  0  0  0  0  0  0  0  0  0  0
   11.5150    5.0940    9.7190 H   0  0  0  0  0  0  0  0  0  0  0  0
   12.4770    4.7190   11.1560 H   0  0  0  0  0  0  0  0  0  0  0  0
    9.6410    2.5450    9.9530 H   0  0  0  0  0  0  0  0  0  0  0  0
   14.2540    0.9880    9.3690 H   0  0  0  0  0  0  0  0  0  0  0  0
   13.8350    3.2290   10.1810 H   0  0  0  0  0  0  0  0  0  0  0  0
   10.7770   -1.8820    9.8650 H   0  0  0  0  0  0  0  0  0  0  0  0
   10.5010   -1.8830    8.1020 H   0  0  0  0  0  0  0  0  0  0  0  0
  2  1  1  0  0  0  0
  3  2  2  0  0  0  0
  3 27  1  0  0  0  0
  4  3  1  0  0  0  0
  5  6  1  0  0  0  0
  5  4  2  0  0  0  0
  6  7  1  0  0  0  0
  7  2  1  0  0  0  0
  8  7  2  0  0  0  0
  9  4  1  0  0  0  0
  9 10  2  0  0  0  0
 11 12  1  0  0  0  0
 11  9  1  0  0  0  0
 12 29  1  0  0  0  0
 13 31  1  0  0  0  0
 13 12  1  0  0  0  0
 13 32  1  0  0  0  0
 14 13  1  0  0  0  0
 15 33  1  0  0  0  0
 15 14  1  0  0  0  0
 15 16  1  0  0  0  0
 16 11  1  0  0  0  0
 17 38  1  0  0  0  0
 17 14  1  0  0  0  0
 18 17  1  0  0  0  0
 19 39  1  0  0  0  0
 19 18  2  0  0  0  0
 20 19  1  0  0  0  0
 21 20  2  0  0  0  0
 21 22  1  0  0  0  0
 22 23  2  0  0  0  0
 23 18  1  0  0  0  0
 23 41  1  0  0  0  0
 24 25  1  0  0  0  0
 24 21  1  0  0  0  0
 25 26  1  0  0  0  0
 25 42  1  0  0  0  0
 26 20  1  0  0  0  0
 28  5  1  0  0  0  0
 30 12  1  0  0  0  0
 34 15  1  0  0  0  0
 35 16  1  0  0  0  0
 36 16  1  0  0  0  0
 37 17  1  0  0  0  0
 40 22  1  0  0  0  0
 43 25  1  0  0  0  0
M  END
>  <Pose>
1

>  <Score>
-6.04

$$$$
