
 OpenBabel03172210413D

 63 66  0  0  1  0  0  0  0  0999 V2000
    9.5070   -0.3780    9.0040 B   0  0  0  0  0  0  0  0  0  0  0  0
   11.0980    0.6630    9.2850 C   0  0  0  0  0  0  0  0  0  0  0  0
   11.0120    1.9360    9.8000 C   0  0  0  0  0  0  0  0  0  0  0  0
   12.1020    2.6690    9.9990 N   0  0  0  0  0  0  0  0  0  0  0  0
   13.3060    2.1850    9.7040 C   0  0  0  0  0  0  0  0  0  0  0  0
   14.3750    2.8570    9.8800 O   0  0  0  0  0  0  0  0  0  0  0  0
   13.4100    0.9460    9.1990 N   0  0  0  0  0  0  0  0  0  0  0  0
   12.3430    0.1570    8.9750 C   0  0  0  0  0  0  0  0  0  0  0  0
   12.4740   -1.0080    8.4980 O   0  0  0  0  0  0  0  0  0  0  0  0
   11.9780    4.0030   10.5510 C   0  0  1  0  0  0  0  0  0  0  0  0
   10.7430    4.7150   10.1680 C   0  0  1  0  0  0  0  0  0  0  0  0
   10.2690    5.7450   11.2000 C   0  0  0  0  0  0  0  0  0  0  0  0
   10.1250    5.1060   12.5590 C   0  0  2  0  0  0  0  0  0  0  0  0
   10.8820    3.9550   12.6690 O   0  0  0  0  0  0  0  0  0  0  0  0
   12.0940    3.9870   12.0500 C   0  0  0  0  0  0  0  0  0  0  0  0
    8.6480    4.8280   12.7760 C   0  0  0  0  0  0  0  0  0  0  0  0
    8.0120    5.9440   13.5600 C   0  0  0  0  0  0  0  0  0  0  0  0
    8.5520    7.1980   13.1010 N   0  0  0  0  0  0  0  0  0  0  0  0
    9.9510    7.4390   13.4180 C   0  0  0  0  0  0  0  0  0  0  0  0
   10.6140    6.0920   13.5930 C   0  0  0  0  0  0  0  0  0  0  0  0
    7.7570    8.1190   12.4130 C   0  0  0  0  0  0  0  0  0  0  0  0
    7.6430    7.9120   11.1500 O   0  0  0  0  0  0  0  0  0  0  0  0
    7.0410    9.2850   12.9190 C   0  0  1  0  0  0  0  0  0  0  0  0
    7.3530   10.4940   12.1550 N   0  0  0  0  0  0  0  0  0  0  0  0
    5.5330    9.1700   12.9130 C   0  0  0  0  0  0  0  0  0  0  0  0
    5.1640    8.5040   14.2180 C   0  0  0  0  0  0  0  0  0  0  0  0
    4.6880    9.2510   15.2630 C   0  0  0  0  0  0  0  0  0  0  0  0
    4.3600    8.5970   16.4480 C   0  0  0  0  0  0  0  0  0  0  0  0
    4.5010    7.2350   16.5870 C   0  0  0  0  0  0  0  0  0  0  0  0
    4.9820    6.5170   15.5110 C   0  0  0  0  0  0  0  0  0  0  0  0
    5.3180    7.1370   14.3240 C   0  0  0  0  0  0  0  0  0  0  0  0
    4.1590    6.6400   17.7860 O   0  0  0  0  0  0  0  0  0  0  0  0
   11.0550    5.5040    9.0310 O   0  0  0  0  0  0  0  0  0  0  0  0
    9.5970    3.8490    9.7570 C   0  0  0  0  0  0  0  0  0  0  0  0
   10.0030    2.2900   10.0270 H   0  0  0  0  0  0  0  0  0  0  0  0
   14.3730    0.5590    8.9620 H   0  0  0  0  0  0  0  0  0  0  0  0
   12.8940    4.5560   10.1670 H   0  0  0  0  0  0  0  0  0  0  0  0
   10.9740    6.5820   11.2730 H   0  0  0  0  0  0  0  0  0  0  0  0
    9.2970    6.1320   10.8820 H   0  0  0  0  0  0  0  0  0  0  0  0
   12.7200    3.1360   12.4100 H   0  0  0  0  0  0  0  0  0  0  0  0
   12.6190    4.9400   12.3580 H   0  0  0  0  0  0  0  0  0  0  0  0
    8.1080    4.7070   11.8260 H   0  0  0  0  0  0  0  0  0  0  0  0
    8.4940    3.9060   13.3800 H   0  0  0  0  0  0  0  0  0  0  0  0
    6.9040    5.8800   13.5200 H   0  0  0  0  0  0  0  0  0  0  0  0
    8.2540    5.7660   14.6400 H   0  0  0  0  0  0  0  0  0  0  0  0
   10.4940    7.9970   12.6590 H   0  0  0  0  0  0  0  0  0  0  0  0
   10.0300    7.9830   14.3760 H   0  0  0  0  0  0  0  0  0  0  0  0
   10.4760    5.6910   14.6200 H   0  0  0  0  0  0  0  0  0  0  0  0
   11.6980    6.2740   13.4900 H   0  0  0  0  0  0  0  0  0  0  0  0
    7.3540    9.4740   13.9660 H   0  0  0  0  0  0  0  0  0  0  0  0
    6.9490   10.4460   11.1950 H   0  0  0  0  0  0  0  0  0  0  0  0
    8.3940   10.5490   12.0330 H   0  0  0  0  0  0  0  0  0  0  0  0
    5.0190   10.1280   12.8920 H   0  0  0  0  0  0  0  0  0  0  0  0
    5.1500    8.5490   12.1040 H   0  0  0  0  0  0  0  0  0  0  0  0
    4.5830   10.3120   15.1390 H   0  0  0  0  0  0  0  0  0  0  0  0
    3.9860    9.1830   17.2720 H   0  0  0  0  0  0  0  0  0  0  0  0
    5.0980    5.4600   15.6070 H   0  0  0  0  0  0  0  0  0  0  0  0
    5.6950    6.5830   13.4750 H   0  0  0  0  0  0  0  0  0  0  0  0
    4.5710    5.7730   18.1310 H   0  0  0  0  0  0  0  0  0  0  0  0
   10.2840    5.5860    8.4230 H   0  0  0  0  0  0  0  0  0  0  0  0
    9.2670    3.1150   10.4950 H   0  0  0  0  0  0  0  0  0  0  0  0
    8.7340    4.5030    9.5210 H   0  0  0  0  0  0  0  0  0  0  0  0
    9.8560    3.3650    8.7680 H   0  0  0  0  0  0  0  0  0  0  0  0
  1  2  1  0  0  0  0
  2  3  2  0  0  0  0
  3  4  1  0  0  0  0
  3 35  1  0  0  0  0
  4 10  1  0  0  0  0
  5  6  2  0  0  0  0
  5  4  1  0  0  0  0
  7  5  1  0  0  0  0
  8  7  1  0  0  0  0
  8  2  1  0  0  0  0
  9  8  2  0  0  0  0
 10 37  1  6  0  0  0
 10 15  1  0  0  0  0
 11 33  1  6  0  0  0
 11 10  1  0  0  0  0
 11 12  1  0  0  0  0
 12 38  1  0  0  0  0
 12 13  1  0  0  0  0
 13 14  1  1  0  0  0
 13 16  1  0  0  0  0
 13 20  1  0  0  0  0
 15 41  1  0  0  0  0
 15 40  1  0  0  0  0
 15 14  1  0  0  0  0
 16 43  1  0  0  0  0
 16 17  1  0  0  0  0
 17 45  1  0  0  0  0
 18 19  1  0  0  0  0
 18 17  1  0  0  0  0
 19 20  1  0  0  0  0
 19 47  1  0  0  0  0
 20 48  1  0  0  0  0
 21 23  1  0  0  0  0
 21 18  1  0  0  0  0
 22 21  2  0  0  0  0
 23 50  1  1  0  0  0
 24 23  1  0  0  0  0
 25 23  1  0  0  0  0
 25 26  1  0  0  0  0
 26 31  2  0  0  0  0
 26 27  1  0  0  0  0
 27 28  2  0  0  0  0
 28 29  1  0  0  0  0
 28 56  1  0  0  0  0
 29 32  1  0  0  0  0
 30 57  1  0  0  0  0
 30 29  2  0  0  0  0
 31 30  1  0  0  0  0
 32 59  1  0  0  0  0
 34 11  1  0  0  0  0
 34 61  1  0  0  0  0
 36  7  1  0  0  0  0
 39 12  1  0  0  0  0
 42 16  1  0  0  0  0
 44 17  1  0  0  0  0
 46 19  1  0  0  0  0
 49 20  1  0  0  0  0
 51 24  1  0  0  0  0
 52 24  1  0  0  0  0
 53 25  1  0  0  0  0
 54 25  1  0  0  0  0
 55 27  1  0  0  0  0
 58 31  1  0  0  0  0
 60 33  1  0  0  0  0
 62 34  1  0  0  0  0
 63 34  1  0  0  0  0
M  END
>  <Pose>
1

>  <Score>
-6.58

$$$$
