
 OpenBabel03172210413D

 64 67  0  0  1  0  0  0  0  0999 V2000
    3.0760    9.5490   14.3030 B   0  0  0  0  0  0  0  0  0  0  0  0
    4.2530    8.0960   14.6000 C   0  0  0  0  0  0  0  0  0  0  0  0
    5.4850    8.0870   13.9450 C   0  0  0  0  0  0  0  0  0  0  0  0
    6.3670    7.0990   14.1050 N   0  0  0  0  0  0  0  0  0  0  0  0
    5.9990    6.0880   14.9490 C   0  0  0  0  0  0  0  0  0  0  0  0
    6.7980    5.1310   15.1340 O   0  0  0  0  0  0  0  0  0  0  0  0
    4.8200    6.0700   15.5940 N   0  0  0  0  0  0  0  0  0  0  0  0
    3.9210    7.0580   15.4430 C   0  0  0  0  0  0  0  0  0  0  0  0
    2.8040    7.0410   16.0540 O   0  0  0  0  0  0  0  0  0  0  0  0
    7.6260    7.0140   13.4830 C   0  0  1  0  0  0  0  0  0  0  0  0
    7.5380    7.0550   11.9480 C   0  0  1  0  0  0  0  0  0  0  0  0
    8.8610    6.4280   11.4860 C   0  0  0  0  0  0  0  0  0  0  0  0
   10.0290    7.1050   12.1470 C   0  0  2  0  0  0  0  0  0  0  0  0
    9.5830    8.2110   12.8290 O   0  0  0  0  0  0  0  0  0  0  0  0
    8.7030    7.9400   13.8740 C   0  0  0  0  0  0  0  0  0  0  0  0
   10.9180    7.6130   11.0200 C   0  0  0  0  0  0  0  0  0  0  0  0
   11.8390    6.5110   10.5620 C   0  0  0  0  0  0  0  0  0  0  0  0
   11.2840    5.1960   10.9250 N   0  0  0  0  0  0  0  0  0  0  0  0
   11.2450    4.9150   12.3290 C   0  0  0  0  0  0  0  0  0  0  0  0
   10.8560    6.2230   13.0130 C   0  0  0  0  0  0  0  0  0  0  0  0
   10.7940    4.3020    9.9730 C   0  0  0  0  0  0  0  0  0  0  0  0
    9.9410    4.6840    9.0810 O   0  0  0  0  0  0  0  0  0  0  0  0
   11.1930    2.9050    9.9110 C   0  0  1  0  0  0  0  0  0  0  0  0
   10.1870    2.0530   10.4980 N   0  0  0  0  0  0  0  0  0  0  0  0
    9.1670    1.3500    9.8690 C   0  0  0  0  0  0  0  0  0  0  0  0
    9.2620    0.1980    9.3960 O   0  0  0  0  0  0  0  0  0  0  0  0
    7.7900    1.9670    9.7030 C   0  0  0  0  0  0  0  0  0  0  0  0
   11.4420    2.4430    8.4410 C   0  0  0  0  0  0  0  0  0  0  0  0
   12.7350    1.7410    8.3480 C   0  0  0  0  0  0  0  0  0  0  0  0
   13.0240    0.5630    7.8190 N   0  0  0  0  0  0  0  0  0  0  0  0
   14.3490    0.2740    7.9380 C   0  0  0  0  0  0  0  0  0  0  0  0
   14.9050    1.3250    8.5700 N   0  0  0  0  0  0  0  0  0  0  0  0
   13.9380    2.2290    8.8290 C   0  0  0  0  0  0  0  0  0  0  0  0
    6.4970    6.2920   11.4670 O   0  0  0  0  0  0  0  0  0  0  0  0
    7.3770    8.4560   11.4490 C   0  0  0  0  0  0  0  0  0  0  0  0
    5.7670    8.8910   13.2750 H   0  0  0  0  0  0  0  0  0  0  0  0
    4.6130    5.2530   16.2280 H   0  0  0  0  0  0  0  0  0  0  0  0
    8.0240    5.9700   13.6870 H   0  0  0  0  0  0  0  0  0  0  0  0
    8.8790    6.4820   10.3800 H   0  0  0  0  0  0  0  0  0  0  0  0
    8.7850    5.3620   11.7710 H   0  0  0  0  0  0  0  0  0  0  0  0
    9.3370    7.4960   14.6990 H   0  0  0  0  0  0  0  0  0  0  0  0
    8.4090    8.9260   14.2740 H   0  0  0  0  0  0  0  0  0  0  0  0
   10.3540    7.9650   10.1520 H   0  0  0  0  0  0  0  0  0  0  0  0
   11.4800    8.4830   11.4230 H   0  0  0  0  0  0  0  0  0  0  0  0
   12.8360    6.5470   11.0520 H   0  0  0  0  0  0  0  0  0  0  0  0
   11.9760    6.5160    9.4720 H   0  0  0  0  0  0  0  0  0  0  0  0
   10.5260    4.1120   12.6210 H   0  0  0  0  0  0  0  0  0  0  0  0
   12.2480    4.5870   12.6590 H   0  0  0  0  0  0  0  0  0  0  0  0
   10.4110    5.9370   13.9700 H   0  0  0  0  0  0  0  0  0  0  0  0
   11.8080    6.7490   13.2310 H   0  0  0  0  0  0  0  0  0  0  0  0
   12.1720    2.6380   10.3750 H   0  0  0  0  0  0  0  0  0  0  0  0
   10.2510    1.9660   11.5590 H   0  0  0  0  0  0  0  0  0  0  0  0
    7.3160    1.6300    8.7800 H   0  0  0  0  0  0  0  0  0  0  0  0
    7.1580    1.6720   10.5680 H   0  0  0  0  0  0  0  0  0  0  0  0
    7.8810    3.0640    9.7160 H   0  0  0  0  0  0  0  0  0  0  0  0
   10.6440    1.7960    8.0980 H   0  0  0  0  0  0  0  0  0  0  0  0
   11.4560    3.3640    7.8010 H   0  0  0  0  0  0  0  0  0  0  0  0
   14.8390   -0.6310    7.5840 H   0  0  0  0  0  0  0  0  0  0  0  0
   15.9270    1.3810    8.8010 H   0  0  0  0  0  0  0  0  0  0  0  0
   14.1220    3.1670    9.3330 H   0  0  0  0  0  0  0  0  0  0  0  0
    6.8410    5.3990   11.2110 H   0  0  0  0  0  0  0  0  0  0  0  0
    6.3930    8.6130   10.9240 H   0  0  0  0  0  0  0  0  0  0  0  0
    7.3960    9.2200   12.2650 H   0  0  0  0  0  0  0  0  0  0  0  0
    8.1580    8.7320   10.7380 H   0  0  0  0  0  0  0  0  0  0  0  0
  1  2  1  0  0  0  0
  2  8  1  0  0  0  0
  3  4  1  0  0  0  0
  3  2  2  0  0  0  0
  4  5  1  0  0  0  0
  5  6  2  0  0  0  0
  5  7  1  0  0  0  0
  7 37  1  0  0  0  0
  8  7  1  0  0  0  0
  8  9  2  0  0  0  0
 10 38  1  1  0  0  0
 10 15  1  0  0  0  0
 10  4  1  0  0  0  0
 11 34  1  6  0  0  0
 11 10  1  0  0  0  0
 12 40  1  0  0  0  0
 12 11  1  0  0  0  0
 12 13  1  0  0  0  0
 13 14  1  1  0  0  0
 13 20  1  0  0  0  0
 14 15  1  0  0  0  0
 15 42  1  0  0  0  0
 15 41  1  0  0  0  0
 16 44  1  0  0  0  0
 16 13  1  0  0  0  0
 17 18  1  0  0  0  0
 17 16  1  0  0  0  0
 17 45  1  0  0  0  0
 18 19  1  0  0  0  0
 19 47  1  0  0  0  0
 19 48  1  0  0  0  0
 19 20  1  0  0  0  0
 20 50  1  0  0  0  0
 20 49  1  0  0  0  0
 21 18  1  0  0  0  0
 22 21  2  0  0  0  0
 23 21  1  0  0  0  0
 23 51  1  1  0  0  0
 23 24  1  0  0  0  0
 24 52  1  0  0  0  0
 25 24  1  0  0  0  0
 26 25  2  0  0  0  0
 27 55  1  0  0  0  0
 27 25  1  0  0  0  0
 27 54  1  0  0  0  0
 28 23  1  0  0  0  0
 29 28  1  0  0  0  0
 29 33  2  0  0  0  0
 30 31  2  0  0  0  0
 30 29  1  0  0  0  0
 31 32  1  0  0  0  0
 32 59  1  0  0  0  0
 32 33  1  0  0  0  0
 33 60  1  0  0  0  0
 35 11  1  0  0  0  0
 35 63  1  0  0  0  0
 36  3  1  0  0  0  0
 39 12  1  0  0  0  0
 43 16  1  0  0  0  0
 46 17  1  0  0  0  0
 53 27  1  0  0  0  0
 56 28  1  0  0  0  0
 57 28  1  0  0  0  0
 58 31  1  0  0  0  0
 61 34  1  0  0  0  0
 62 35  1  0  0  0  0
 64 35  1  0  0  0  0
M  END
>  <Pose>
1

>  <Score>
-7.18

$$$$
