
 OpenBabel03172210413D

 41 44  0  0  1  0  0  0  0  0999 V2000
   14.8990    0.8580    8.4150 B   0  0  0  0  0  0  0  0  0  0  0  0
   13.9720    2.0810    9.5630 C   0  0  0  0  0  0  0  0  0  0  0  0
   12.6270    2.3420    9.4200 C   0  0  0  0  0  0  0  0  0  0  0  0
   11.9650    3.2110   10.2350 N   0  0  0  0  0  0  0  0  0  0  0  0
   12.6520    3.8310   11.2110 C   0  0  0  0  0  0  0  0  0  0  0  0
   11.8070    4.6320   11.8830 N   0  0  0  0  0  0  0  0  0  0  0  0
   10.5750    4.5330   11.3490 C   0  0  0  0  0  0  0  0  0  0  0  0
   10.6890    3.6340   10.3100 C   0  0  0  0  0  0  0  0  0  0  0  0
    9.3420    5.2420   11.7760 C   0  0  0  0  0  0  0  0  0  0  0  0
    9.2750    6.5680   11.2030 N   0  0  0  0  0  0  0  0  0  0  0  0
    8.3310    7.4860   11.6880 C   0  0  0  0  0  0  0  0  0  0  0  0
    7.1530    7.4490   11.2750 O   0  0  0  0  0  0  0  0  0  0  0  0
    8.7170    8.5000   12.6870 C   0  0  1  0  0  0  0  0  0  0  0  0
    7.6320    8.6640   13.7210 C   0  0  0  0  0  0  0  0  0  0  0  0
    7.4640    7.3750   14.3650 N   0  0  0  0  0  0  0  0  0  0  0  0
    8.5300    6.5910   14.5900 C   0  0  0  0  0  0  0  0  0  0  0  0
    8.0740    5.4740   15.1920 N   0  0  0  0  0  0  0  0  0  0  0  0
    6.7840    5.5560   15.3380 N   0  0  0  0  0  0  0  0  0  0  0  0
    6.3930    6.7310   14.8300 C   0  0  0  0  0  0  0  0  0  0  0  0
    4.9630    7.1700   14.8230 C   0  0  0  0  0  0  0  0  0  0  0  0
    9.9140    6.9330   14.2270 C   0  0  0  0  0  0  0  0  0  0  0  0
   10.0260    8.1090   13.3230 C   0  0  0  0  0  0  0  0  0  0  0  0
   14.0120    3.5880   11.3810 C   0  0  0  0  0  0  0  0  0  0  0  0
   14.6810    2.7150   10.5610 C   0  0  0  0  0  0  0  0  0  0  0  0
   12.0900    1.8460    8.6420 H   0  0  0  0  0  0  0  0  0  0  0  0
    9.9320    3.2770    9.6250 H   0  0  0  0  0  0  0  0  0  0  0  0
    8.4540    4.6200   11.5060 H   0  0  0  0  0  0  0  0  0  0  0  0
    9.3290    5.3210   12.8980 H   0  0  0  0  0  0  0  0  0  0  0  0
    9.9140    6.8520   10.4370 H   0  0  0  0  0  0  0  0  0  0  0  0
    8.9020    9.4580   12.1470 H   0  0  0  0  0  0  0  0  0  0  0  0
    7.9690    9.4160   14.4740 H   0  0  0  0  0  0  0  0  0  0  0  0
    6.7100    9.0110   13.2150 H   0  0  0  0  0  0  0  0  0  0  0  0
    4.8180    7.9600   14.0800 H   0  0  0  0  0  0  0  0  0  0  0  0
    4.2950    6.3110   14.5420 H   0  0  0  0  0  0  0  0  0  0  0  0
    4.6870    7.4830   15.8490 H   0  0  0  0  0  0  0  0  0  0  0  0
   10.5020    7.1650   15.1580 H   0  0  0  0  0  0  0  0  0  0  0  0
   10.3910    6.0270   13.7980 H   0  0  0  0  0  0  0  0  0  0  0  0
   10.7400    7.8670   12.4890 H   0  0  0  0  0  0  0  0  0  0  0  0
   10.4420    9.0020   13.8380 H   0  0  0  0  0  0  0  0  0  0  0  0
   14.5060    4.1190   12.1850 H   0  0  0  0  0  0  0  0  0  0  0  0
   15.7410    2.5570   10.7330 H   0  0  0  0  0  0  0  0  0  0  0  0
  1  2  1  0  0  0  0
  2 24  1  0  0  0  0
  3  2  2  0  0  0  0
  3  4  1  0  0  0  0
  4  8  1  0  0  0  0
  4  5  1  0  0  0  0
  5 23  1  0  0  0  0
  5  6  2  0  0  0  0
  7  9  1  0  0  0  0
  7  6  1  0  0  0  0
  8  7  2  0  0  0  0
  9 28  1  0  0  0  0
 10 11  1  0  0  0  0
 10  9  1  0  0  0  0
 11 13  1  0  0  0  0
 12 11  2  0  0  0  0
 13 30  1  6  0  0  0
 13 22  1  0  0  0  0
 13 14  1  0  0  0  0
 14 15  1  0  0  0  0
 14 31  1  0  0  0  0
 15 16  1  0  0  0  0
 15 19  1  0  0  0  0
 16 17  2  0  0  0  0
 17 18  1  0  0  0  0
 19 18  2  0  0  0  0
 20 19  1  0  0  0  0
 20 35  1  0  0  0  0
 21 16  1  0  0  0  0
 21 36  1  0  0  0  0
 22 39  1  0  0  0  0
 22 21  1  0  0  0  0
 23 40  1  0  0  0  0
 24 41  1  0  0  0  0
 24 23  2  0  0  0  0
 25  3  1  0  0  0  0
 26  8  1  0  0  0  0
 27  9  1  0  0  0  0
 29 10  1  0  0  0  0
 32 14  1  0  0  0  0
 33 20  1  0  0  0  0
 34 20  1  0  0  0  0
 37 21  1  0  0  0  0
 38 22  1  0  0  0  0
M  END
>  <Pose>
1

>  <Score>
-5.44

$$$$
