
 OpenBabel03172210413D

 37 40  0  0  1  0  0  0  0  0999 V2000
    4.2650    6.9880   15.9130 B   0  0  0  0  0  0  0  0  0  0  0  0
    5.9750    6.5450   15.1560 C   0  0  0  0  0  0  0  0  0  0  0  0
    6.1780    6.5300   13.7940 C   0  0  0  0  0  0  0  0  0  0  0  0
    7.3810    6.2190   13.2450 N   0  0  0  0  0  0  0  0  0  0  0  0
    7.8260    6.1340   12.0010 N   0  0  0  0  0  0  0  0  0  0  0  0
    9.1190    5.7840   11.9590 C   0  0  0  0  0  0  0  0  0  0  0  0
    9.4770    5.6500   13.3000 C   0  0  0  0  0  0  0  0  0  0  0  0
    8.3810    5.9230   14.0940 C   0  0  0  0  0  0  0  0  0  0  0  0
    8.1930    5.9370   15.4400 N   0  0  0  0  0  0  0  0  0  0  0  0
    7.0140    6.2400   16.0060 C   0  0  0  0  0  0  0  0  0  0  0  0
   10.0050    5.5780   10.8040 C   0  0  0  0  0  0  0  0  0  0  0  0
    9.9810    6.4060    9.8550 O   0  0  0  0  0  0  0  0  0  0  0  0
   10.8970    4.4800   10.7100 N   0  0  0  0  0  0  0  0  0  0  0  0
   12.2880    4.7040   10.5590 C   0  0  0  0  0  0  0  0  0  0  0  0
   13.0030    3.6080    9.8620 C   0  0  2  0  0  0  0  0  0  0  0  0
   12.2010    2.4840    9.4700 N   0  0  2  0  0  0  0  0  0  0  0  0
   11.3360    2.0470   10.5500 C   0  0  0  0  0  0  0  0  0  0  0  0
   10.3300    3.1600   10.7720 C   0  0  0  0  0  0  0  0  0  0  0  0
   13.1640    1.5110    9.0520 C   0  0  0  0  0  0  0  0  0  0  0  0
   14.3270    1.6640   10.0000 C   0  0  0  0  0  0  0  0  0  0  0  0
   14.0690    2.9620   10.7320 C   0  0  0  0  0  0  0  0  0  0  0  0
    5.3470    6.7730   13.1500 H   0  0  0  0  0  0  0  0  0  0  0  0
   10.4730    5.3710   13.6080 H   0  0  0  0  0  0  0  0  0  0  0  0
    6.8720    6.2480   17.0910 H   0  0  0  0  0  0  0  0  0  0  0  0
   12.7500    4.8780   11.5620 H   0  0  0  0  0  0  0  0  0  0  0  0
   12.4580    5.6860   10.0180 H   0  0  0  0  0  0  0  0  0  0  0  0
   13.4930    3.9910    8.9370 H   0  0  0  0  0  0  0  0  0  0  0  0
   10.7870    1.1570   10.1880 H   0  0  0  0  0  0  0  0  0  0  0  0
   11.8760    1.7600   11.4600 H   0  0  0  0  0  0  0  0  0  0  0  0
    9.8300    3.0390   11.7550 H   0  0  0  0  0  0  0  0  0  0  0  0
    9.5030    3.0520   10.0010 H   0  0  0  0  0  0  0  0  0  0  0  0
   13.4830    1.7960    8.0100 H   0  0  0  0  0  0  0  0  0  0  0  0
   12.7690    0.4770    9.0420 H   0  0  0  0  0  0  0  0  0  0  0  0
   14.3630    0.7900   10.6820 H   0  0  0  0  0  0  0  0  0  0  0  0
   15.2940    1.6890    9.4550 H   0  0  0  0  0  0  0  0  0  0  0  0
   14.9600    3.6010   10.8040 H   0  0  0  0  0  0  0  0  0  0  0  0
   13.6360    2.7820   11.7340 H   0  0  0  0  0  0  0  0  0  0  0  0
  2  1  1  0  0  0  0
  2 10  1  0  0  0  0
  3  2  2  0  0  0  0
  4  3  1  0  0  0  0
  4  8  1  0  0  0  0
  5  4  1  0  0  0  0
  6  5  2  0  0  0  0
  6  7  1  0  0  0  0
  7 23  1  0  0  0  0
  7  8  2  0  0  0  0
  8  9  1  0  0  0  0
  9 10  2  0  0  0  0
 10 24  1  0  0  0  0
 11  6  1  0  0  0  0
 12 11  2  0  0  0  0
 13 18  1  0  0  0  0
 13 11  1  0  0  0  0
 14 13  1  0  0  0  0
 14 25  1  0  0  0  0
 15 27  1  6  0  0  0
 15 14  1  0  0  0  0
 15 21  1  0  0  0  0
 16 19  1  1  0  0  0
 16 15  1  0  0  0  0
 16 17  1  0  0  0  0
 17 18  1  0  0  0  0
 17 29  1  0  0  0  0
 18 30  1  0  0  0  0
 19 20  1  0  0  0  0
 20 34  1  0  0  0  0
 20 21  1  0  0  0  0
 21 36  1  0  0  0  0
 21 37  1  0  0  0  0
 22  3  1  0  0  0  0
 26 14  1  0  0  0  0
 28 17  1  0  0  0  0
 31 18  1  0  0  0  0
 32 19  1  0  0  0  0
 33 19  1  0  0  0  0
 35 20  1  0  0  0  0
M  END
>  <Pose>
1

>  <Score>
-5.58

$$$$
