
 OpenBabel03172210413D

 39 42  0  0  0  0  0  0  0  0999 V2000
    3.8520    8.9730   13.0210 B   0  0  0  0  0  0  0  0  0  0  0  0
    5.6610    8.3780   12.9890 C   0  0  0  0  0  0  0  0  0  0  0  0
    6.6830    9.2450   13.2150 C   0  0  0  0  0  0  0  0  0  0  0  0
    7.9460    8.8360   13.1940 N   0  0  0  0  0  0  0  0  0  0  0  0
    9.0940    9.4900   13.3830 N   0  0  0  0  0  0  0  0  0  0  0  0
   10.1010    8.6100   13.2540 C   0  0  0  0  0  0  0  0  0  0  0  0
    9.5850    7.3660   12.9760 C   0  0  0  0  0  0  0  0  0  0  0  0
    8.2060    7.5410   12.9440 C   0  0  0  0  0  0  0  0  0  0  0  0
    7.2070    6.6730   12.7190 N   0  0  0  0  0  0  0  0  0  0  0  0
    5.9300    7.0620   12.7350 C   0  0  0  0  0  0  0  0  0  0  0  0
   10.2780    6.1210   12.7570 C   0  0  0  0  0  0  0  0  0  0  0  0
   10.3240    5.2920   13.7110 O   0  0  0  0  0  0  0  0  0  0  0  0
   10.8890    5.8310   11.5100 N   0  0  0  0  0  0  0  0  0  0  0  0
   12.2920    5.3880   11.5310 C   0  0  0  0  0  0  0  0  0  0  0  0
   12.4360    4.5620   10.2530 C   0  0  0  0  0  0  0  0  0  0  0  0
   11.2080    3.8370   10.1150 N   0  0  0  0  0  0  0  0  0  0  0  0
   10.1410    4.6500    9.4620 C   0  0  0  0  0  0  0  0  0  0  0  0
   10.1690    5.9620   10.2520 C   0  0  0  0  0  0  0  0  0  0  0  0
   10.9110    2.5520   10.5400 C   0  0  0  0  0  0  0  0  0  0  0  0
   10.7360    2.3780   11.8170 O   0  0  0  0  0  0  0  0  0  0  0  0
   10.7590    1.3300    9.7690 C   0  0  0  0  0  0  0  0  0  0  0  0
    9.5830    0.7540    9.4810 O   0  0  0  0  0  0  0  0  0  0  0  0
    9.7280   -0.3220    8.7870 C   0  0  0  0  0  0  0  0  0  0  0  0
   11.0640   -0.5410    8.5580 C   0  0  0  0  0  0  0  0  0  0  0  0
   11.7010    0.5160    9.1880 C   0  0  0  0  0  0  0  0  0  0  0  0
    6.4690   10.2990   13.4180 H   0  0  0  0  0  0  0  0  0  0  0  0
   11.1470    8.8730   13.3590 H   0  0  0  0  0  0  0  0  0  0  0  0
    5.1040    6.3870   12.5590 H   0  0  0  0  0  0  0  0  0  0  0  0
   12.4410    4.7060   12.3700 H   0  0  0  0  0  0  0  0  0  0  0  0
   12.9510    6.2580   11.4940 H   0  0  0  0  0  0  0  0  0  0  0  0
   13.3610    4.0280   10.1480 H   0  0  0  0  0  0  0  0  0  0  0  0
   12.4920    5.3460    9.4060 H   0  0  0  0  0  0  0  0  0  0  0  0
    9.1740    4.1440    9.5190 H   0  0  0  0  0  0  0  0  0  0  0  0
   10.5040    4.7940    8.4240 H   0  0  0  0  0  0  0  0  0  0  0  0
   10.6100    6.7770    9.6560 H   0  0  0  0  0  0  0  0  0  0  0  0
    9.1210    6.2050   10.4990 H   0  0  0  0  0  0  0  0  0  0  0  0
    8.9320   -0.9870    8.4170 H   0  0  0  0  0  0  0  0  0  0  0  0
   11.5370   -1.3570    8.0070 H   0  0  0  0  0  0  0  0  0  0  0  0
   12.7770    0.6170    9.1960 H   0  0  0  0  0  0  0  0  0  0  0  0
  2  1  1  0  0  0  0
  2  3  2  0  0  0  0
  3 26  1  0  0  0  0
  4  3  1  0  0  0  0
  4  5  1  0  0  0  0
  6 27  1  0  0  0  0
  6  5  2  0  0  0  0
  7  6  1  0  0  0  0
  8  7  2  0  0  0  0
  8  4  1  0  0  0  0
  9 10  2  0  0  0  0
  9  8  1  0  0  0  0
 10  2  1  0  0  0  0
 11  7  1  0  0  0  0
 11 12  2  0  0  0  0
 13 14  1  0  0  0  0
 13 11  1  0  0  0  0
 14 29  1  0  0  0  0
 15 14  1  0  0  0  0
 16 15  1  0  0  0  0
 16 19  1  0  0  0  0
 17 33  1  0  0  0  0
 17 16  1  0  0  0  0
 17 18  1  0  0  0  0
 18 36  1  0  0  0  0
 18 13  1  0  0  0  0
 19 20  2  0  0  0  0
 21 19  1  0  0  0  0
 22 21  1  0  0  0  0
 23 22  1  0  0  0  0
 24 23  2  0  0  0  0
 24 25  1  0  0  0  0
 25 39  1  0  0  0  0
 25 21  2  0  0  0  0
 28 10  1  0  0  0  0
 30 14  1  0  0  0  0
 31 15  1  0  0  0  0
 32 15  1  0  0  0  0
 34 17  1  0  0  0  0
 35 18  1  0  0  0  0
 37 23  1  0  0  0  0
 38 24  1  0  0  0  0
M  END
>  <Pose>
1

>  <Score>
-5.53

$$$$
