
 OpenBabel03172210413D

 40 43  0  0  0  0  0  0  0  0999 V2000
   10.6050   -0.7890    8.1230 B   0  0  0  0  0  0  0  0  0  0  0  0
   11.7510    0.4610    9.0200 C   0  0  0  0  0  0  0  0  0  0  0  0
   13.0930    0.5530    8.7240 C   0  0  0  0  0  0  0  0  0  0  0  0
   13.9310    1.4180    9.3340 N   0  0  0  0  0  0  0  0  0  0  0  0
   13.4970    2.2610   10.2880 C   0  0  0  0  0  0  0  0  0  0  0  0
   14.3170    3.1290   10.9060 N   0  0  0  0  0  0  0  0  0  0  0  0
   15.6370    3.2240   10.6190 C   0  0  0  0  0  0  0  0  0  0  0  0
   16.1040    2.3690    9.6440 C   0  0  0  0  0  0  0  0  0  0  0  0
   15.2400    1.4770    9.0140 C   0  0  0  0  0  0  0  0  0  0  0  0
   15.6500    0.7020    8.1350 O   0  0  0  0  0  0  0  0  0  0  0  0
   16.5190    4.1960   11.3150 C   0  0  0  0  0  0  0  0  0  0  0  0
   16.3430    5.5220   10.8900 O   0  0  0  0  0  0  0  0  0  0  0  0
   16.7410    6.6460   11.5830 C   0  0  0  0  0  0  0  0  0  0  0  0
   17.9560    6.9060   11.6910 O   0  0  0  0  0  0  0  0  0  0  0  0
   15.7030    7.5150   12.1830 C   0  0  0  0  0  0  0  0  0  0  0  0
   14.3950    6.9490   12.0150 N   0  0  0  0  0  0  0  0  0  0  0  0
   13.8960    5.8000   12.6630 C   0  0  0  0  0  0  0  0  0  0  0  0
   14.4610    5.0450   13.4960 O   0  0  0  0  0  0  0  0  0  0  0  0
   12.5100    5.5730   12.1990 C   0  0  0  0  0  0  0  0  0  0  0  0
   12.2070    6.5640   11.3050 C   0  0  0  0  0  0  0  0  0  0  0  0
   10.9870    6.6290   10.6950 C   0  0  0  0  0  0  0  0  0  0  0  0
   10.0510    5.6700   10.9970 C   0  0  0  0  0  0  0  0  0  0  0  0
   10.3560    4.6700   11.9000 C   0  0  0  0  0  0  0  0  0  0  0  0
   11.5850    4.5950   12.5200 C   0  0  0  0  0  0  0  0  0  0  0  0
   13.3750    7.4380   11.1750 C   0  0  0  0  0  0  0  0  0  0  0  0
   13.4260    8.4570   10.4210 O   0  0  0  0  0  0  0  0  0  0  0  0
   12.1390    2.1910   10.6100 C   0  0  0  0  0  0  0  0  0  0  0  0
   11.2750    1.3120    9.9950 C   0  0  0  0  0  0  0  0  0  0  0  0
   13.4710   -0.1210    7.9520 H   0  0  0  0  0  0  0  0  0  0  0  0
   17.1610    2.3930    9.3570 H   0  0  0  0  0  0  0  0  0  0  0  0
   16.3650    4.1650   12.4120 H   0  0  0  0  0  0  0  0  0  0  0  0
   17.6040    3.9400   11.1550 H   0  0  0  0  0  0  0  0  0  0  0  0
   15.7330    8.4690   11.5830 H   0  0  0  0  0  0  0  0  0  0  0  0
   15.9300    7.7610   13.2430 H   0  0  0  0  0  0  0  0  0  0  0  0
   10.7600    7.4130    9.9950 H   0  0  0  0  0  0  0  0  0  0  0  0
    9.0940    5.7410   10.5040 H   0  0  0  0  0  0  0  0  0  0  0  0
    9.5800    3.9440   12.0960 H   0  0  0  0  0  0  0  0  0  0  0  0
   11.8300    3.8180   13.2240 H   0  0  0  0  0  0  0  0  0  0  0  0
   11.8010    2.8690   11.3750 H   0  0  0  0  0  0  0  0  0  0  0  0
   10.2250    1.2610   10.2480 H   0  0  0  0  0  0  0  0  0  0  0  0
  1  2  1  0  0  0  0
  2 28  2  0  0  0  0
  3  2  1  0  0  0  0
  3  4  1  0  0  0  0
  4  5  1  0  0  0  0
  5 27  2  0  0  0  0
  5  6  1  0  0  0  0
  7  6  2  0  0  0  0
  7 11  1  0  0  0  0
  8  7  1  0  0  0  0
  9  4  1  0  0  0  0
  9  8  1  0  0  0  0
 10  9  2  0  0  0  0
 11 31  1  0  0  0  0
 12 11  1  0  0  0  0
 12 13  1  0  0  0  0
 13 14  2  0  0  0  0
 13 15  1  0  0  0  0
 15 34  1  0  0  0  0
 16 15  1  0  0  0  0
 16 17  1  0  0  0  0
 17 18  2  0  0  0  0
 19 24  1  0  0  0  0
 19 17  1  0  0  0  0
 20 19  2  0  0  0  0
 21 22  2  0  0  0  0
 21 20  1  0  0  0  0
 22 23  1  0  0  0  0
 23 37  1  0  0  0  0
 23 24  2  0  0  0  0
 24 38  1  0  0  0  0
 25 20  1  0  0  0  0
 25 16  1  0  0  0  0
 26 25  2  0  0  0  0
 27 39  1  0  0  0  0
 28 40  1  0  0  0  0
 28 27  1  0  0  0  0
 29  3  1  0  0  0  0
 30  8  1  0  0  0  0
 32 11  1  0  0  0  0
 33 15  1  0  0  0  0
 35 21  1  0  0  0  0
 36 22  1  0  0  0  0
M  END
>  <Pose>
1

>  <Score>
-6.51

$$$$
