
 OpenBabel03172210413D

 45 48  0  0  0  0  0  0  0  0999 V2000
   10.8930   -0.4240    8.5370 B   0  0  0  0  0  0  0  0  0  0  0  0
   12.0000    0.8610    9.4160 C   0  0  0  0  0  0  0  0  0  0  0  0
   13.3250    0.9610    9.0520 C   0  0  0  0  0  0  0  0  0  0  0  0
   14.1070    1.8640    9.6680 N   0  0  0  0  0  0  0  0  0  0  0  0
   13.6290    2.6760   10.6330 C   0  0  0  0  0  0  0  0  0  0  0  0
   14.4350    3.5790   11.2410 N   0  0  0  0  0  0  0  0  0  0  0  0
   15.7330    3.7110   10.9190 C   0  0  0  0  0  0  0  0  0  0  0  0
   16.2390    2.8920    9.9360 C   0  0  0  0  0  0  0  0  0  0  0  0
   15.4070    1.9590    9.3090 C   0  0  0  0  0  0  0  0  0  0  0  0
   15.8530    1.2140    8.4200 O   0  0  0  0  0  0  0  0  0  0  0  0
   16.6060    4.7050   11.5920 C   0  0  0  0  0  0  0  0  0  0  0  0
   15.8160    5.8150   11.9760 O   0  0  0  0  0  0  0  0  0  0  0  0
   15.3180    5.9740   13.2470 C   0  0  0  0  0  0  0  0  0  0  0  0
   15.9920    5.5260   14.2110 O   0  0  0  0  0  0  0  0  0  0  0  0
   14.0310    6.6430   13.5700 C   0  0  0  0  0  0  0  0  0  0  0  0
   13.1280    6.6630   12.4580 N   0  0  0  0  0  0  0  0  0  0  0  0
   13.2630    7.4380   11.2670 C   0  0  0  0  0  0  0  0  0  0  0  0
   14.2180    8.2300   11.0220 O   0  0  0  0  0  0  0  0  0  0  0  0
   12.1490    7.1570   10.4290 N   0  0  0  0  0  0  0  0  0  0  0  0
   11.2200    6.3250   11.1520 C   0  0  0  0  0  0  0  0  0  0  0  0
    9.9630    7.0550   11.5450 C   0  0  0  0  0  0  0  0  0  0  0  0
    8.9930    5.9480   11.8130 C   0  0  0  0  0  0  0  0  0  0  0  0
    9.5520    4.6890   11.2180 C   0  0  0  0  0  0  0  0  0  0  0  0
   10.7050    5.1700   10.3640 C   0  0  0  0  0  0  0  0  0  0  0  0
   11.9240    5.8980   12.3590 C   0  0  0  0  0  0  0  0  0  0  0  0
   11.5850    5.0260   13.1930 O   0  0  0  0  0  0  0  0  0  0  0  0
   12.3020    2.5800   11.0020 C   0  0  0  0  0  0  0  0  0  0  0  0
   11.4590    1.6710   10.4020 C   0  0  0  0  0  0  0  0  0  0  0  0
   13.7540    0.3300    8.2830 H   0  0  0  0  0  0  0  0  0  0  0  0
   17.2810    2.9770    9.6570 H   0  0  0  0  0  0  0  0  0  0  0  0
   17.0440    4.2510   12.5000 H   0  0  0  0  0  0  0  0  0  0  0  0
   17.4190    5.0200   10.8990 H   0  0  0  0  0  0  0  0  0  0  0  0
   13.5770    6.1770   14.4730 H   0  0  0  0  0  0  0  0  0  0  0  0
   14.2990    7.6900   13.8740 H   0  0  0  0  0  0  0  0  0  0  0  0
   12.0530    7.5090    9.4610 H   0  0  0  0  0  0  0  0  0  0  0  0
   10.1880    7.5950   12.5100 H   0  0  0  0  0  0  0  0  0  0  0  0
    9.6130    7.7730   10.8010 H   0  0  0  0  0  0  0  0  0  0  0  0
    8.0330    6.1810   11.2740 H   0  0  0  0  0  0  0  0  0  0  0  0
    8.7910    5.8570   12.9050 H   0  0  0  0  0  0  0  0  0  0  0  0
    8.7980    4.1530   10.5980 H   0  0  0  0  0  0  0  0  0  0  0  0
    9.8990    3.9550   11.9870 H   0  0  0  0  0  0  0  0  0  0  0  0
   11.4470    4.3660   10.1910 H   0  0  0  0  0  0  0  0  0  0  0  0
   10.2840    5.5150    9.3900 H   0  0  0  0  0  0  0  0  0  0  0  0
   11.9480    3.2420   11.7760 H   0  0  0  0  0  0  0  0  0  0  0  0
   10.4190    1.5820   10.6760 H   0  0  0  0  0  0  0  0  0  0  0  0
  1  2  1  0  0  0  0
  2 28  2  0  0  0  0
  3  2  1  0  0  0  0
  3  4  1  0  0  0  0
  4  5  1  0  0  0  0
  5 27  2  0  0  0  0
  5  6  1  0  0  0  0
  7  6  2  0  0  0  0
  7 11  1  0  0  0  0
  8  7  1  0  0  0  0
  9  4  1  0  0  0  0
  9  8  1  0  0  0  0
 10  9  2  0  0  0  0
 11 12  1  0  0  0  0
 11 31  1  0  0  0  0
 12 13  1  0  0  0  0
 13 15  1  0  0  0  0
 13 14  2  0  0  0  0
 15 34  1  0  0  0  0
 15 33  1  0  0  0  0
 16 15  1  0  0  0  0
 17 16  1  0  0  0  0
 18 17  2  0  0  0  0
 19 20  1  0  0  0  0
 19 17  1  0  0  0  0
 20 21  1  0  0  0  0
 20 25  1  0  0  0  0
 21 22  1  0  0  0  0
 21 36  1  0  0  0  0
 22 39  1  0  0  0  0
 23 22  1  0  0  0  0
 23 41  1  0  0  0  0
 24 20  1  0  0  0  0
 24 23  1  0  0  0  0
 25 16  1  0  0  0  0
 25 26  2  0  0  0  0
 27 44  1  0  0  0  0
 28 45  1  0  0  0  0
 28 27  1  0  0  0  0
 29  3  1  0  0  0  0
 30  8  1  0  0  0  0
 32 11  1  0  0  0  0
 35 19  1  0  0  0  0
 37 21  1  0  0  0  0
 38 22  1  0  0  0  0
 40 23  1  0  0  0  0
 42 24  1  0  0  0  0
 43 24  1  0  0  0  0
M  END
>  <Pose>
1

>  <Score>
-7.20

$$$$
