
 OpenBabel03172210413D

 47 50  0  0  0  0  0  0  0  0999 V2000
   17.2730    4.7670   11.4410 B   0  0  0  0  0  0  0  0  0  0  0  0
   15.6510    3.8500   11.0700 C   0  0  0  0  0  0  0  0  0  0  0  0
   15.5340    2.9010   10.1160 C   0  0  0  0  0  0  0  0  0  0  0  0
   14.4200    2.1920    9.9080 N   0  0  0  0  0  0  0  0  0  0  0  0
   13.3640    2.4320   10.6840 C   0  0  0  0  0  0  0  0  0  0  0  0
   12.2150    1.7270   10.4850 N   0  0  0  0  0  0  0  0  0  0  0  0
   12.0860    0.8000    9.5460 C   0  0  0  0  0  0  0  0  0  0  0  0
   13.1640    0.5330    8.7320 C   0  0  0  0  0  0  0  0  0  0  0  0
   13.0900   -0.4150    7.7320 C   0  0  0  0  0  0  0  0  0  0  0  0
   11.9300   -1.1520    7.4900 C   0  0  0  0  0  0  0  0  0  0  0  0
   10.8580   -0.8770    8.3110 C   0  0  0  0  0  0  0  0  0  0  0  0
   10.9280    0.0730    9.3150 C   0  0  0  0  0  0  0  0  0  0  0  0
   14.3270    1.2620    8.9510 C   0  0  0  0  0  0  0  0  0  0  0  0
   15.3130    1.0300    8.2180 O   0  0  0  0  0  0  0  0  0  0  0  0
   13.4550    3.3790   11.6460 N   0  0  0  0  0  0  0  0  0  0  0  0
   14.5210    4.1220   11.9110 C   0  0  0  0  0  0  0  0  0  0  0  0
   14.6510    5.1560   12.7830 N   0  0  0  0  0  0  0  0  0  0  0  0
   14.7800    6.1740   13.6430 C   0  0  0  0  0  0  0  0  0  0  0  0
   13.8910    7.2550   13.5700 C   0  0  0  0  0  0  0  0  0  0  0  0
   14.1320    8.3990   14.2580 C   0  0  0  0  0  0  0  0  0  0  0  0
   15.2520    8.5160   15.0450 C   0  0  0  0  0  0  0  0  0  0  0  0
   16.1600    7.4880   15.1650 C   0  0  0  0  0  0  0  0  0  0  0  0
   15.8950    6.3400   14.4560 C   0  0  0  0  0  0  0  0  0  0  0  0
   12.6010    7.1500   12.8770 C   0  0  0  0  0  0  0  0  0  0  0  0
   11.5630    7.0940   13.5840 O   0  0  0  0  0  0  0  0  0  0  0  0
   12.4280    7.1020   11.5240 O   0  0  0  0  0  0  0  0  0  0  0  0
   11.1790    6.8290   10.9190 C   0  0  0  0  0  0  0  0  0  0  0  0
   11.3450    5.7890    9.8070 C   0  0  0  0  0  0  0  0  0  0  0  0
   10.1500    4.8670    9.8260 C   0  0  0  0  0  0  0  0  0  0  0  0
   16.3850    2.6880    9.4690 H   0  0  0  0  0  0  0  0  0  0  0  0
   13.9620   -0.5760    7.1350 H   0  0  0  0  0  0  0  0  0  0  0  0
   11.8930   -1.8940    6.6970 H   0  0  0  0  0  0  0  0  0  0  0  0
    9.9360   -1.4330    8.1510 H   0  0  0  0  0  0  0  0  0  0  0  0
   10.0950    0.3000    9.9630 H   0  0  0  0  0  0  0  0  0  0  0  0
   12.5410    3.4730   12.1980 H   0  0  0  0  0  0  0  0  0  0  0  0
   13.4990    4.8140   13.4340 H   0  0  0  0  0  0  0  0  0  0  0  0
   13.4580    9.2700   14.2230 H   0  0  0  0  0  0  0  0  0  0  0  0
   15.4170    9.4440   15.5740 H   0  0  0  0  0  0  0  0  0  0  0  0
   17.0180    7.6410   15.7990 H   0  0  0  0  0  0  0  0  0  0  0  0
   16.6250    5.5480   14.5630 H   0  0  0  0  0  0  0  0  0  0  0  0
   10.4250    6.4120   11.6090 H   0  0  0  0  0  0  0  0  0  0  0  0
   10.7420    7.7370   10.4480 H   0  0  0  0  0  0  0  0  0  0  0  0
   11.3960    6.2750    8.8140 H   0  0  0  0  0  0  0  0  0  0  0  0
   12.2540    5.1690    9.9910 H   0  0  0  0  0  0  0  0  0  0  0  0
   10.3940    3.9400   10.3740 H   0  0  0  0  0  0  0  0  0  0  0  0
    9.2760    5.3540   10.3360 H   0  0  0  0  0  0  0  0  0  0  0  0
    9.8650    4.5720    8.7950 H   0  0  0  0  0  0  0  0  0  0  0  0
  2  1  1  0  0  0  0
  2 16  2  0  0  0  0
  3  2  1  0  0  0  0
  4  3  1  0  0  0  0
  4  5  1  0  0  0  0
  5 15  1  0  0  0  0
  6  5  2  0  0  0  0
  7  6  1  0  0  0  0
  8 13  1  0  0  0  0
  8  7  2  0  0  0  0
  9  8  1  0  0  0  0
 10  9  2  0  0  0  0
 10 11  1  0  0  0  0
 11 12  2  0  0  0  0
 12  7  1  0  0  0  0
 12 34  1  0  0  0  0
 13  4  1  0  0  0  0
 14 13  2  0  0  0  0
 15 16  1  0  0  0  0
 15 35  1  0  0  0  0
 16 17  1  0  0  0  0
 17 36  1  0  0  0  0
 17 18  1  0  0  0  0
 18 23  1  0  0  0  0
 19 18  2  0  0  0  0
 19 20  1  0  0  0  0
 20 21  2  0  0  0  0
 21 22  1  0  0  0  0
 21 38  1  0  0  0  0
 22 39  1  0  0  0  0
 23 40  1  0  0  0  0
 23 22  2  0  0  0  0
 24 19  1  0  0  0  0
 24 25  2  0  0  0  0
 26 24  1  0  0  0  0
 27 26  1  0  0  0  0
 27 41  1  0  0  0  0
 28 29  1  0  0  0  0
 28 44  1  0  0  0  0
 28 27  1  0  0  0  0
 29 46  1  0  0  0  0
 29 45  1  0  0  0  0
 30  3  1  0  0  0  0
 31  9  1  0  0  0  0
 32 10  1  0  0  0  0
 33 11  1  0  0  0  0
 37 20  1  0  0  0  0
 42 27  1  0  0  0  0
 43 28  1  0  0  0  0
 47 29  1  0  0  0  0
M  END
>  <Pose>
1

>  <Score>
-6.64

$$$$
