
 OpenBabel03172210413D

 56 59  0  0  1  0  0  0  0  0999 V2000
   20.2680    3.2790   11.4940 B   0  0  0  0  0  0  0  0  0  0  0  0
   18.7700    4.4880   11.5120 C   0  0  0  0  0  0  0  0  0  0  0  0
   18.9690    5.8270   11.8020 C   0  0  0  0  0  0  0  0  0  0  0  0
   17.8900    6.7060   11.8170 C   0  0  0  0  0  0  0  0  0  0  0  0
   16.6120    6.2750   11.5470 C   0  0  0  0  0  0  0  0  0  0  0  0
   16.4500    4.9370   11.2640 C   0  0  0  0  0  0  0  0  0  0  0  0
   17.4960    4.0480   11.2420 C   0  0  0  0  0  0  0  0  0  0  0  0
   15.4800    7.1770   11.5590 C   0  0  0  0  0  0  0  0  0  0  0  0
   15.3590    8.0280   10.6380 O   0  0  0  0  0  0  0  0  0  0  0  0
   14.4350    7.1550   12.6170 C   0  0  0  0  0  0  0  0  0  0  0  0
   13.1760    6.6950   12.1120 N   0  0  0  0  0  0  0  0  0  0  0  0
   12.1530    7.4360   11.7530 N   0  0  0  0  0  0  0  0  0  0  0  0
   11.1390    6.6670   11.3290 C   0  0  0  0  0  0  0  0  0  0  0  0
   11.5470    5.3940   11.4280 N   0  0  0  0  0  0  0  0  0  0  0  0
   12.8220    5.4200   11.9180 C   0  0  2  0  0  0  0  0  0  0  0  0
   13.6640    4.2560   12.1890 C   0  0  0  0  0  0  0  0  0  0  0  0
   13.8910    3.3950   10.9690 C   0  0  0  0  0  0  0  0  0  0  0  0
   12.6500    2.6210   10.5830 C   0  0  0  0  0  0  0  0  0  0  0  0
   11.5730    3.4850   10.0040 C   0  0  0  0  0  0  0  0  0  0  0  0
   10.7790    4.2150   11.0790 C   0  0  0  0  0  0  0  0  0  0  0  0
    9.8210    7.1000   10.8430 C   0  0  0  0  0  0  0  0  0  0  0  0
    8.7500    6.6310   11.6680 N   0  0  0  0  0  0  0  0  0  0  0  0
    7.6450    7.4490   12.0420 C   0  0  0  0  0  0  0  0  0  0  0  0
    7.8090    8.7020   12.5870 C   0  0  0  0  0  0  0  0  0  0  0  0
    6.7370    9.4820   12.9390 C   0  0  0  0  0  0  0  0  0  0  0  0
    5.4750    9.0130   12.7490 C   0  0  0  0  0  0  0  0  0  0  0  0
    5.3070    7.7590   12.2050 C   0  0  0  0  0  0  0  0  0  0  0  0
    6.3780    6.9660   11.8470 C   0  0  0  0  0  0  0  0  0  0  0  0
    4.3820    9.7720   13.0930 O   0  0  0  0  0  0  0  0  0  0  0  0
    3.8390    9.7880   14.3900 C   0  0  0  0  0  0  0  0  0  0  0  0
   19.9690    6.1550   12.0110 H   0  0  0  0  0  0  0  0  0  0  0  0
   18.0690    7.7410   12.0450 H   0  0  0  0  0  0  0  0  0  0  0  0
   15.4360    4.5740   11.0460 H   0  0  0  0  0  0  0  0  0  0  0  0
   17.3070    3.0180   11.0140 H   0  0  0  0  0  0  0  0  0  0  0  0
   14.7740    6.6040   13.5150 H   0  0  0  0  0  0  0  0  0  0  0  0
   14.2990    8.2340   12.9230 H   0  0  0  0  0  0  0  0  0  0  0  0
   14.6580    4.5560   12.5620 H   0  0  0  0  0  0  0  0  0  0  0  0
   13.2360    3.5730   12.9780 H   0  0  0  0  0  0  0  0  0  0  0  0
   14.2890    3.9390   10.1120 H   0  0  0  0  0  0  0  0  0  0  0  0
   14.6590    2.6350   11.2590 H   0  0  0  0  0  0  0  0  0  0  0  0
   12.2900    1.9860   11.3950 H   0  0  0  0  0  0  0  0  0  0  0  0
   12.9740    1.9190    9.7620 H   0  0  0  0  0  0  0  0  0  0  0  0
   11.9700    4.2320    9.3180 H   0  0  0  0  0  0  0  0  0  0  0  0
   10.8740    2.8140    9.4340 H   0  0  0  0  0  0  0  0  0  0  0  0
   10.5680    3.5690   11.9440 H   0  0  0  0  0  0  0  0  0  0  0  0
    9.8170    4.5300   10.6470 H   0  0  0  0  0  0  0  0  0  0  0  0
    9.6920    6.7040    9.8020 H   0  0  0  0  0  0  0  0  0  0  0  0
    9.7630    8.1980   10.7640 H   0  0  0  0  0  0  0  0  0  0  0  0
    8.7540    5.6630   12.0200 H   0  0  0  0  0  0  0  0  0  0  0  0
    8.8480    9.0310   12.7180 H   0  0  0  0  0  0  0  0  0  0  0  0
    6.9140   10.4530   13.3590 H   0  0  0  0  0  0  0  0  0  0  0  0
    4.3050    7.3540   12.0400 H   0  0  0  0  0  0  0  0  0  0  0  0
    6.2230    5.9690   11.4110 H   0  0  0  0  0  0  0  0  0  0  0  0
    2.8410   10.2440   14.3910 H   0  0  0  0  0  0  0  0  0  0  0  0
    3.7630    8.7420   14.7510 H   0  0  0  0  0  0  0  0  0  0  0  0
    4.4940   10.3380   15.1030 H   0  0  0  0  0  0  0  0  0  0  0  0
  1  2  1  0  0  0  0
  2  3  1  0  0  0  0
  3  4  2  0  0  0  0
  3 31  1  0  0  0  0
  4 32  1  0  0  0  0
  5  8  1  0  0  0  0
  5  4  1  0  0  0  0
  6  5  2  0  0  0  0
  7  6  1  0  0  0  0
  7  2  2  0  0  0  0
  8 10  1  0  0  0  0
  9  8  2  0  0  0  0
 10 36  1  0  0  0  0
 10 35  1  0  0  0  0
 11 10  1  0  0  0  0
 12 11  1  0  0  0  0
 13 14  1  0  0  0  0
 13 12  2  0  0  0  0
 15 14  1  1  0  0  0
 15 11  1  0  0  0  0
 15 16  1  0  0  0  0
 16 37  1  0  0  0  0
 16 38  1  0  0  0  0
 17 40  1  0  0  0  0
 17 16  1  0  0  0  0
 18 17  1  0  0  0  0
 18 41  1  0  0  0  0
 19 18  1  0  0  0  0
 19 20  1  0  0  0  0
 20 14  1  0  0  0  0
 20 45  1  0  0  0  0
 21 13  1  0  0  0  0
 21 22  1  0  0  0  0
 22 49  1  0  0  0  0
 22 23  1  0  0  0  0
 23 24  1  0  0  0  0
 24 50  1  0  0  0  0
 24 25  2  0  0  0  0
 25 51  1  0  0  0  0
 26 25  1  0  0  0  0
 26 29  1  0  0  0  0
 27 26  2  0  0  0  0
 28 23  2  0  0  0  0
 28 27  1  0  0  0  0
 29 30  1  0  0  0  0
 30 54  1  0  0  0  0
 30 55  1  0  0  0  0
 30 56  1  0  0  0  0
 33  6  1  0  0  0  0
 34  7  1  0  0  0  0
 39 17  1  0  0  0  0
 42 18  1  0  0  0  0
 43 19  1  0  0  0  0
 44 19  1  0  0  0  0
 46 20  1  0  0  0  0
 47 21  1  0  0  0  0
 48 21  1  0  0  0  0
 52 27  1  0  0  0  0
 53 28  1  0  0  0  0
M  END
>  <Pose>
1

>  <Score>
-5.46

$$$$
