
 OpenBabel03172210413D

 50 53  0  0  1  0  0  0  0  0999 V2000
    5.1660   10.2760   20.3060 B   0  0  0  0  0  0  0  0  0  0  0  0
    5.2970    9.1570   18.7580 C   0  0  0  0  0  0  0  0  0  0  0  0
    4.4160    8.1120   18.6040 C   0  0  0  0  0  0  0  0  0  0  0  0
    4.4860    7.2790   17.4870 C   0  0  0  0  0  0  0  0  0  0  0  0
    5.4870    7.5560   16.5510 C   0  0  0  0  0  0  0  0  0  0  0  0
    6.3640    8.5850   16.6950 C   0  0  0  0  0  0  0  0  0  0  0  0
    6.2770    9.4000   17.8100 C   0  0  0  0  0  0  0  0  0  0  0  0
    5.5620    6.7160   15.3390 C   0  0  1  0  0  0  0  0  0  0  0  0
    5.4030    7.5300   14.1420 N   0  0  0  0  0  0  0  0  0  0  0  0
    4.5810    8.7340   14.1140 C   0  0  0  0  0  0  0  0  0  0  0  0
    4.3130    9.2290   12.7400 C   0  0  0  0  0  0  0  0  0  0  0  0
    3.7750    8.1800   11.8020 C   0  0  0  0  0  0  0  0  0  0  0  0
    4.9710    7.6580   11.0280 C   0  0  0  0  0  0  0  0  0  0  0  0
    5.9660    6.9750   11.8020 C   0  0  0  0  0  0  0  0  0  0  0  0
    6.1540    6.9180   13.1410 C   0  0  0  0  0  0  0  0  0  0  0  0
    7.2250    6.1840   13.6870 N   0  0  0  0  0  4  0  0  0  0  0  0
    6.9140    6.1460   15.0860 C   0  0  0  0  0  0  0  0  0  0  0  0
    8.4050    6.9410   13.4120 C   0  0  0  0  0  0  0  0  0  0  0  0
    9.2250    6.6120   12.3460 C   0  0  0  0  0  0  0  0  0  0  0  0
   10.3870    7.3610   12.2100 C   0  0  0  0  0  0  0  0  0  0  0  0
   10.7540    8.3870   13.0610 C   0  0  0  0  0  0  0  0  0  0  0  0
    9.8850    8.6860   14.1330 C   0  0  0  0  0  0  0  0  0  0  0  0
    8.7600    7.9530   14.2520 C   0  0  0  0  0  0  0  0  0  0  0  0
    8.8740    5.6060   11.4990 O   0  0  0  0  0  0  0  0  0  0  0  0
    9.7980    5.0350   10.6100 C   0  0  0  0  0  0  0  0  0  0  0  0
    4.5520    5.7900   15.3430 O   0  0  0  0  0  0  0  0  0  0  0  0
    3.6330    7.9010   19.3350 H   0  0  0  0  0  0  0  0  0  0  0  0
    3.7620    6.4920   17.4050 H   0  0  0  0  0  0  0  0  0  0  0  0
    7.1490    8.7910   15.9470 H   0  0  0  0  0  0  0  0  0  0  0  0
    6.9920   10.2280   17.9210 H   0  0  0  0  0  0  0  0  0  0  0  0
    3.6060    8.4690   14.5810 H   0  0  0  0  0  0  0  0  0  0  0  0
    5.1020    9.5800   14.6420 H   0  0  0  0  0  0  0  0  0  0  0  0
    3.5130   10.0180   12.8050 H   0  0  0  0  0  0  0  0  0  0  0  0
    5.2350    9.7190   12.3640 H   0  0  0  0  0  0  0  0  0  0  0  0
    3.0970    8.6600   11.0190 H   0  0  0  0  0  0  0  0  0  0  0  0
    3.2630    7.3510   12.3300 H   0  0  0  0  0  0  0  0  0  0  0  0
    5.4200    8.5610   10.5040 H   0  0  0  0  0  0  0  0  0  0  0  0
    4.5740    6.9910   10.2140 H   0  0  0  0  0  0  0  0  0  0  0  0
    6.6840    6.4030   11.2370 H   0  0  0  0  0  0  0  0  0  0  0  0
    7.3030    5.2030   13.3340 H   0  0  0  0  0  0  0  0  0  0  0  0
    7.7050    6.6150   15.7140 H   0  0  0  0  0  0  0  0  0  0  0  0
    6.9100    5.0910   15.4090 H   0  0  0  0  0  0  0  0  0  0  0  0
   11.0170    7.0780   11.3690 H   0  0  0  0  0  0  0  0  0  0  0  0
   11.6550    8.9610   12.9450 H   0  0  0  0  0  0  0  0  0  0  0  0
   10.1620    9.4690   14.8010 H   0  0  0  0  0  0  0  0  0  0  0  0
    8.1290    8.2250   15.1240 H   0  0  0  0  0  0  0  0  0  0  0  0
   10.3240    5.8450   10.0580 H   0  0  0  0  0  0  0  0  0  0  0  0
   10.5210    4.4500   11.1950 H   0  0  0  0  0  0  0  0  0  0  0  0
    9.2280    4.3840    9.8800 H   0  0  0  0  0  0  0  0  0  0  0  0
    4.7020    5.0320   15.9460 H   0  0  0  0  0  0  0  0  0  0  0  0
  2  1  1  0  0  0  0
  3  2  1  0  0  0  0
  3 27  1  0  0  0  0
  4  3  2  0  0  0  0
  5  6  2  0  0  0  0
  5  4  1  0  0  0  0
  6  7  1  0  0  0  0
  7 30  1  0  0  0  0
  7  2  2  0  0  0  0
  8 26  1  1  0  0  0
  8  5  1  0  0  0  0
  9  8  1  0  0  0  0
 10  9  1  0  0  0  0
 10 31  1  0  0  0  0
 10 32  1  0  0  0  0
 11 33  1  0  0  0  0
 11 10  1  0  0  0  0
 12 36  1  0  0  0  0
 12 11  1  0  0  0  0
 13 14  1  0  0  0  0
 13 12  1  0  0  0  0
 14 15  2  0  0  0  0
 15 16  1  0  0  0  0
 15  9  1  0  0  0  0
 16 17  1  0  0  0  0
 17  8  1  0  0  0  0
 17 42  1  0  0  0  0
 17 41  1  0  0  0  0
 18 16  1  0  0  0  0
 18 23  1  0  0  0  0
 19 18  2  0  0  0  0
 20 19  1  0  0  0  0
 20 21  2  0  0  0  0
 21 22  1  0  0  0  0
 22 23  2  0  0  0  0
 22 45  1  0  0  0  0
 23 46  1  0  0  0  0
 24 19  1  0  0  0  0
 25 48  1  0  0  0  0
 25 24  1  0  0  0  0
 26 50  1  0  0  0  0
 28  4  1  0  0  0  0
 29  6  1  0  0  0  0
 34 11  1  0  0  0  0
 35 12  1  0  0  0  0
 37 13  1  0  0  0  0
 38 13  1  0  0  0  0
 39 14  1  0  0  0  0
 40 16  1  0  0  0  0
 43 20  1  0  0  0  0
 44 21  1  0  0  0  0
 47 25  1  0  0  0  0
 49 25  1  0  0  0  0
M  END
>  <Pose>
1

>  <Score>
-4.86

$$$$
