
 OpenBabel03172210413D

 50 53  0  0  1  0  0  0  0  0999 V2000
   19.0360    3.4570   11.2660 B   0  0  0  0  0  0  0  0  0  0  0  0
   17.2960    4.2060   11.5270 C   0  0  0  0  0  0  0  0  0  0  0  0
   16.1630    3.5400   11.1110 C   0  0  0  0  0  0  0  0  0  0  0  0
   14.9080    4.1030   11.3070 C   0  0  0  0  0  0  0  0  0  0  0  0
   14.7420    5.3080   11.9040 C   0  0  0  0  0  0  0  0  0  0  0  0
   15.8980    5.9950   12.3310 C   0  0  0  0  0  0  0  0  0  0  0  0
   17.1310    5.4290   12.1330 C   0  0  0  0  0  0  0  0  0  0  0  0
   13.4930    6.0190   12.1710 C   0  0  2  0  0  0  0  0  0  0  0  0
   12.2690    5.3690   11.8320 N   0  0  0  0  0  0  0  0  0  0  0  0
   11.7670    4.1230   12.3250 C   0  0  0  0  0  0  0  0  0  0  0  0
   11.2170    3.1700   11.3360 C   0  0  0  0  0  0  0  0  0  0  0  0
   11.1850    3.6050    9.9160 C   0  0  0  0  0  0  0  0  0  0  0  0
   10.1110    4.6620    9.6590 C   0  0  0  0  0  0  0  0  0  0  0  0
   10.7310    5.9860    9.9770 C   0  0  0  0  0  0  0  0  0  0  0  0
   11.6390    6.2800   10.8910 C   0  0  0  0  0  0  0  0  0  0  0  0
   12.1740    7.5820   11.0940 N   0  0  0  0  0  4  0  0  0  0  0  0
   13.5580    7.2670   11.2850 C   0  0  0  0  0  0  0  0  0  0  0  0
   11.5670    8.1590   12.2210 C   0  0  0  0  0  0  0  0  0  0  0  0
   12.2540    9.1030   13.0060 C   0  0  0  0  0  0  0  0  0  0  0  0
   11.6920    9.6800   14.1120 C   0  0  0  0  0  0  0  0  0  0  0  0
   10.4110    9.3560   14.5050 C   0  0  0  0  0  0  0  0  0  0  0  0
    9.7200    8.4390   13.7560 C   0  0  0  0  0  0  0  0  0  0  0  0
   10.2880    7.8570   12.6410 C   0  0  0  0  0  0  0  0  0  0  0  0
    9.8400    9.9560   15.6450 O   0  0  0  0  0  0  0  0  0  0  0  0
    8.4790   10.2940   15.6520 C   0  0  0  0  0  0  0  0  0  0  0  0
   13.5450    6.3900   13.5290 O   0  0  0  0  0  0  0  0  0  0  0  0
   16.2180    2.5850   10.6300 H   0  0  0  0  0  0  0  0  0  0  0  0
   14.0240    3.5840   10.9750 H   0  0  0  0  0  0  0  0  0  0  0  0
   15.8330    6.9690   12.8180 H   0  0  0  0  0  0  0  0  0  0  0  0
   18.0290    5.9420   12.4540 H   0  0  0  0  0  0  0  0  0  0  0  0
   12.5800    3.6650   12.9620 H   0  0  0  0  0  0  0  0  0  0  0  0
   10.9420    4.2760   13.0950 H   0  0  0  0  0  0  0  0  0  0  0  0
   10.2020    2.7740   11.5870 H   0  0  0  0  0  0  0  0  0  0  0  0
   11.8670    2.2420   11.3590 H   0  0  0  0  0  0  0  0  0  0  0  0
   12.1730    3.9530    9.5400 H   0  0  0  0  0  0  0  0  0  0  0  0
   10.9030    2.7310    9.2900 H   0  0  0  0  0  0  0  0  0  0  0  0
    9.9380    4.6400    8.5440 H   0  0  0  0  0  0  0  0  0  0  0  0
    9.2220    4.4490   10.2450 H   0  0  0  0  0  0  0  0  0  0  0  0
   10.3830    6.8130    9.3690 H   0  0  0  0  0  0  0  0  0  0  0  0
   12.0040    8.1380   10.2180 H   0  0  0  0  0  0  0  0  0  0  0  0
   14.1860    8.0550   11.6750 H   0  0  0  0  0  0  0  0  0  0  0  0
   13.9680    6.9500   10.2930 H   0  0  0  0  0  0  0  0  0  0  0  0
   13.2430    9.3280   12.6720 H   0  0  0  0  0  0  0  0  0  0  0  0
   12.2320   10.4050   14.7070 H   0  0  0  0  0  0  0  0  0  0  0  0
    8.6960    8.1810   14.0670 H   0  0  0  0  0  0  0  0  0  0  0  0
    9.6910    7.1330   12.0750 H   0  0  0  0  0  0  0  0  0  0  0  0
    7.8240    9.4780   15.2840 H   0  0  0  0  0  0  0  0  0  0  0  0
    8.3400   11.2150   15.0430 H   0  0  0  0  0  0  0  0  0  0  0  0
    8.1490   10.5240   16.6800 H   0  0  0  0  0  0  0  0  0  0  0  0
   13.2090    5.5990   14.0230 H   0  0  0  0  0  0  0  0  0  0  0  0
  1  2  1  0  0  0  0
  2  7  1  0  0  0  0
  3  4  1  0  0  0  0
  3  2  2  0  0  0  0
  4  5  2  0  0  0  0
  5  8  1  0  0  0  0
  5  6  1  0  0  0  0
  6 29  1  0  0  0  0
  7  6  2  0  0  0  0
  7 30  1  0  0  0  0
  8 26  1  1  0  0  0
  9  8  1  0  0  0  0
  9 10  1  0  0  0  0
 10 31  1  0  0  0  0
 10 32  1  0  0  0  0
 11 34  1  0  0  0  0
 11 33  1  0  0  0  0
 11 10  1  0  0  0  0
 12 11  1  0  0  0  0
 13 12  1  0  0  0  0
 13 14  1  0  0  0  0
 13 38  1  0  0  0  0
 14 15  2  0  0  0  0
 15 16  1  0  0  0  0
 15  9  1  0  0  0  0
 16 17  1  0  0  0  0
 16 18  1  0  0  0  0
 17 41  1  0  0  0  0
 17  8  1  0  0  0  0
 18 23  2  0  0  0  0
 18 19  1  0  0  0  0
 19 20  2  0  0  0  0
 20 21  1  0  0  0  0
 20 44  1  0  0  0  0
 21 24  1  0  0  0  0
 22 45  1  0  0  0  0
 22 21  2  0  0  0  0
 23 22  1  0  0  0  0
 24 25  1  0  0  0  0
 25 49  1  0  0  0  0
 26 50  1  0  0  0  0
 27  3  1  0  0  0  0
 28  4  1  0  0  0  0
 35 12  1  0  0  0  0
 36 12  1  0  0  0  0
 37 13  1  0  0  0  0
 39 14  1  0  0  0  0
 40 16  1  0  0  0  0
 42 17  1  0  0  0  0
 43 19  1  0  0  0  0
 46 23  1  0  0  0  0
 47 25  1  0  0  0  0
 48 25  1  0  0  0  0
M  END
>  <Pose>
1

>  <Score>
-5.20

$$$$
