
 OpenBabel03172210413D

 47 50  0  0  1  0  0  0  0  0999 V2000
    4.1940    8.1210   11.3120 B   0  0  0  0  0  0  0  0  0  0  0  0
    6.0610    7.7330   11.5310 C   0  0  0  0  0  0  0  0  0  0  0  0
    6.4660    6.4230   11.6590 C   0  0  0  0  0  0  0  0  0  0  0  0
    7.8250    6.1520   11.8120 C   0  0  0  0  0  0  0  0  0  0  0  0
    8.7820    7.1430   11.8400 C   0  0  0  0  0  0  0  0  0  0  0  0
    8.3510    8.4500   11.7090 C   0  0  0  0  0  0  0  0  0  0  0  0
    7.0070    8.7350   11.5560 C   0  0  0  0  0  0  0  0  0  0  0  0
   10.2110    6.7880   12.0160 C   0  0  2  0  0  0  0  0  0  0  0  0
   10.5620    5.5220   11.4080 N   0  0  0  0  0  0  0  0  0  0  0  0
   10.1160    4.7060   10.2980 C   0  0  0  0  0  0  0  0  0  0  0  0
   11.2610    3.9750    9.6280 C   0  0  0  0  0  0  0  0  0  0  0  0
   11.9390    3.1290   10.6530 C   0  0  0  0  0  0  0  0  0  0  0  0
   12.2860    3.9080   11.8600 C   0  0  0  0  0  0  0  0  0  0  0  0
   11.6360    5.0240   12.2030 C   0  0  0  0  0  0  0  0  0  0  0  0
   11.8520    5.8380   13.3340 N   0  0  0  0  0  4  0  0  0  0  0  0
   10.5660    6.5560   13.4560 C   0  0  0  0  0  0  0  0  0  0  0  0
   12.9210    6.7260   13.2840 C   0  0  0  0  0  0  0  0  0  0  0  0
   14.2210    6.3410   13.0690 C   0  0  0  0  0  0  0  0  0  0  0  0
   15.2490    7.2850   13.0500 C   0  0  0  0  0  0  0  0  0  0  0  0
   14.9850    8.6170   13.2450 C   0  0  0  0  0  0  0  0  0  0  0  0
   13.6830    9.0130   13.4590 C   0  0  0  0  0  0  0  0  0  0  0  0
   12.6770    8.0800   13.4760 C   0  0  0  0  0  0  0  0  0  0  0  0
   14.5760    5.0230   12.8620 O   0  0  0  0  0  0  0  0  0  0  0  0
   15.2130    4.6220   11.6940 C   0  0  0  0  0  0  0  0  0  0  0  0
   10.9850    7.8430   11.5450 O   0  0  0  0  0  0  0  0  0  0  0  0
    5.7640    5.5750   11.6400 H   0  0  0  0  0  0  0  0  0  0  0  0
    8.1800    5.1160   11.9170 H   0  0  0  0  0  0  0  0  0  0  0  0
    9.1150    9.2390   11.7340 H   0  0  0  0  0  0  0  0  0  0  0  0
    6.6790    9.7620   11.4530 H   0  0  0  0  0  0  0  0  0  0  0  0
    9.4520    3.8980   10.7220 H   0  0  0  0  0  0  0  0  0  0  0  0
    9.5340    5.3050    9.5650 H   0  0  0  0  0  0  0  0  0  0  0  0
   11.9150    4.6490    9.0540 H   0  0  0  0  0  0  0  0  0  0  0  0
   10.7890    3.2810    8.8830 H   0  0  0  0  0  0  0  0  0  0  0  0
   12.8050    2.5670   10.2460 H   0  0  0  0  0  0  0  0  0  0  0  0
   11.1710    2.3760   10.9950 H   0  0  0  0  0  0  0  0  0  0  0  0
   13.1100    3.5250   12.4660 H   0  0  0  0  0  0  0  0  0  0  0  0
   11.8650    5.2510   14.2320 H   0  0  0  0  0  0  0  0  0  0  0  0
    9.8200    5.9100   13.9170 H   0  0  0  0  0  0  0  0  0  0  0  0
   10.7420    7.4950   14.0100 H   0  0  0  0  0  0  0  0  0  0  0  0
   16.2860    7.0290   12.8880 H   0  0  0  0  0  0  0  0  0  0  0  0
   15.7630    9.3980   13.2340 H   0  0  0  0  0  0  0  0  0  0  0  0
   13.4900   10.0670   13.6060 H   0  0  0  0  0  0  0  0  0  0  0  0
   11.6710    8.3920   13.6450 H   0  0  0  0  0  0  0  0  0  0  0  0
   14.7730    5.0190   10.7470 H   0  0  0  0  0  0  0  0  0  0  0  0
   15.1870    3.4920   11.5520 H   0  0  0  0  0  0  0  0  0  0  0  0
   16.2960    4.9050   11.7190 H   0  0  0  0  0  0  0  0  0  0  0  0
   10.9060    7.8350   10.5610 H   0  0  0  0  0  0  0  0  0  0  0  0
  1  2  1  0  0  0  0
  2  7  2  0  0  0  0
  2  3  1  0  0  0  0
  3  4  2  0  0  0  0
  4  5  1  0  0  0  0
  4 27  1  0  0  0  0
  5  8  1  0  0  0  0
  6 28  1  0  0  0  0
  6  5  2  0  0  0  0
  7  6  1  0  0  0  0
  8 25  1  6  0  0  0
  8 16  1  0  0  0  0
  9  8  1  0  0  0  0
  9 14  1  0  0  0  0
 10 30  1  0  0  0  0
 10  9  1  0  0  0  0
 11 10  1  0  0  0  0
 11 12  1  0  0  0  0
 12 35  1  0  0  0  0
 12 13  1  0  0  0  0
 13 14  2  0  0  0  0
 13 36  1  0  0  0  0
 14 15  1  0  0  0  0
 15 16  1  0  0  0  0
 15 37  1  0  0  0  0
 16 38  1  0  0  0  0
 16 39  1  0  0  0  0
 17 15  1  0  0  0  0
 17 22  1  0  0  0  0
 18 17  2  0  0  0  0
 19 18  1  0  0  0  0
 19 20  2  0  0  0  0
 20 21  1  0  0  0  0
 21 22  2  0  0  0  0
 21 42  1  0  0  0  0
 22 43  1  0  0  0  0
 23 18  1  0  0  0  0
 24 46  1  0  0  0  0
 24 23  1  0  0  0  0
 26  3  1  0  0  0  0
 29  7  1  0  0  0  0
 31 10  1  0  0  0  0
 32 11  1  0  0  0  0
 33 11  1  0  0  0  0
 34 12  1  0  0  0  0
 40 19  1  0  0  0  0
 41 20  1  0  0  0  0
 44 24  1  0  0  0  0
 45 24  1  0  0  0  0
 47 25  1  0  0  0  0
M  END
>  <Pose>
1

>  <Score>
-5.16

$$$$
