
 OpenBabel03172210413D

 53 56  0  0  1  0  0  0  0  0999 V2000
   12.5790    0.8870    9.3910 B   0  0  0  0  0  0  0  0  0  0  0  0
   14.1320    1.9710    9.6910 C   0  0  0  0  0  0  0  0  0  0  0  0
   14.2090    2.8320   10.7620 C   0  0  0  0  0  0  0  0  0  0  0  0
   15.3340    3.6200   10.9580 C   0  0  0  0  0  0  0  0  0  0  0  0
   16.4270    3.5840   10.0950 C   0  0  0  0  0  0  0  0  0  0  0  0
   16.3000    2.7150    9.0520 C   0  0  0  0  0  0  0  0  0  0  0  0
   15.1840    1.9120    8.8300 C   0  0  0  0  0  0  0  0  0  0  0  0
   17.5030    4.4130   10.3310 N   0  0  0  0  0  4  0  0  0  0  0  0
   18.6670    3.8460   10.9440 C   0  0  1  0  0  0  0  0  0  0  0  0
   18.1940    3.7840   12.3960 C   0  0  0  0  0  0  0  0  0  0  0  0
   17.4480    5.0430   12.5520 N   0  0  0  0  0  0  0  0  0  0  0  0
   17.1800    5.5770   13.8400 C   0  0  0  0  0  0  0  0  0  0  0  0
   16.4630    6.8940   13.8420 C   0  0  0  0  0  0  0  0  0  0  0  0
   17.1620    7.8430   12.9070 C   0  0  0  0  0  0  0  0  0  0  0  0
   16.3260    7.8200   11.6190 C   0  0  0  0  0  0  0  0  0  0  0  0
   16.7190    6.6370   10.8260 C   0  0  0  0  0  0  0  0  0  0  0  0
   17.1660    5.4660   11.2190 C   0  0  0  0  0  0  0  0  0  0  0  0
   19.1430    2.6800   10.4350 O   0  0  0  0  0  0  0  0  0  0  0  0
   19.8130    4.8000   10.9510 C   0  0  0  0  0  0  0  0  0  0  0  0
   19.8630    5.9700   10.2550 C   0  0  0  0  0  0  0  0  0  0  0  0
   20.9780    6.8340   10.3110 C   0  0  0  0  0  0  0  0  0  0  0  0
   22.0710    6.5220   11.0820 C   0  0  0  0  0  0  0  0  0  0  0  0
   22.0320    5.3440   11.7880 C   0  0  0  0  0  0  0  0  0  0  0  0
   20.9430    4.5040   11.7300 C   0  0  0  0  0  0  0  0  0  0  0  0
   23.1840    7.3770   11.1480 O   0  0  0  0  0  0  0  0  0  0  0  0
   23.9410    7.6910   10.0040 C   0  0  0  0  0  0  0  0  0  0  0  0
   23.3610    8.8300    9.2260 C   0  0  0  0  0  0  0  0  0  0  0  0
   13.3540    2.8460   11.4230 H   0  0  0  0  0  0  0  0  0  0  0  0
   15.3090    4.2650   11.8210 H   0  0  0  0  0  0  0  0  0  0  0  0
   17.0710    2.6160    8.3330 H   0  0  0  0  0  0  0  0  0  0  0  0
   15.1740    1.2390    7.9540 H   0  0  0  0  0  0  0  0  0  0  0  0
   17.8020    4.7650    9.3690 H   0  0  0  0  0  0  0  0  0  0  0  0
   17.6150    2.9210   12.6620 H   0  0  0  0  0  0  0  0  0  0  0  0
   19.0130    3.8640   13.1270 H   0  0  0  0  0  0  0  0  0  0  0  0
   16.5580    4.8550   14.4100 H   0  0  0  0  0  0  0  0  0  0  0  0
   18.1740    5.7490   14.3670 H   0  0  0  0  0  0  0  0  0  0  0  0
   15.4090    6.7050   13.5600 H   0  0  0  0  0  0  0  0  0  0  0  0
   16.5570    7.3150   14.8610 H   0  0  0  0  0  0  0  0  0  0  0  0
   17.2480    8.8740   13.2840 H   0  0  0  0  0  0  0  0  0  0  0  0
   18.1750    7.5090   12.6020 H   0  0  0  0  0  0  0  0  0  0  0  0
   15.2420    7.7560   11.8390 H   0  0  0  0  0  0  0  0  0  0  0  0
   16.5000    8.7810   11.0880 H   0  0  0  0  0  0  0  0  0  0  0  0
   16.6460    6.7990    9.7680 H   0  0  0  0  0  0  0  0  0  0  0  0
   19.3660    2.7300    9.4870 H   0  0  0  0  0  0  0  0  0  0  0  0
   19.0390    6.2460    9.6280 H   0  0  0  0  0  0  0  0  0  0  0  0
   20.9520    7.7470    9.7310 H   0  0  0  0  0  0  0  0  0  0  0  0
   22.9190    5.1230   12.4020 H   0  0  0  0  0  0  0  0  0  0  0  0
   20.9340    3.5710   12.2900 H   0  0  0  0  0  0  0  0  0  0  0  0
   23.8950    6.7760    9.3390 H   0  0  0  0  0  0  0  0  0  0  0  0
   25.0320    7.8060   10.2090 H   0  0  0  0  0  0  0  0  0  0  0  0
   22.3260    9.0800    9.5640 H   0  0  0  0  0  0  0  0  0  0  0  0
   23.3320    8.6690    8.1300 H   0  0  0  0  0  0  0  0  0  0  0  0
   24.0560    9.7110    9.3550 H   0  0  0  0  0  0  0  0  0  0  0  0
  1  2  1  0  0  0  0
  2  3  1  0  0  0  0
  3  4  2  0  0  0  0
  3 28  1  0  0  0  0
  4 29  1  0  0  0  0
  5  8  1  0  0  0  0
  5  4  1  0  0  0  0
  6  5  2  0  0  0  0
  7  6  1  0  0  0  0
  7  2  2  0  0  0  0
  8  9  1  0  0  0  0
  8 17  1  0  0  0  0
  9 18  1  6  0  0  0
  9 19  1  0  0  0  0
  9 10  1  0  0  0  0
 10 11  1  0  0  0  0
 10 33  1  0  0  0  0
 10 34  1  0  0  0  0
 11 12  1  0  0  0  0
 12 13  1  0  0  0  0
 12 36  1  0  0  0  0
 12 35  1  0  0  0  0
 13 38  1  0  0  0  0
 14 39  1  0  0  0  0
 14 13  1  0  0  0  0
 15 41  1  0  0  0  0
 15 14  1  0  0  0  0
 16 17  2  0  0  0  0
 16 15  1  0  0  0  0
 17 11  1  0  0  0  0
 19 24  1  0  0  0  0
 20 21  1  0  0  0  0
 20 19  2  0  0  0  0
 21 22  2  0  0  0  0
 22 25  1  0  0  0  0
 22 23  1  0  0  0  0
 23 47  1  0  0  0  0
 24 23  2  0  0  0  0
 24 48  1  0  0  0  0
 26 50  1  0  0  0  0
 26 25  1  0  0  0  0
 27 53  1  0  0  0  0
 27 51  1  0  0  0  0
 27 26  1  0  0  0  0
 30  6  1  0  0  0  0
 31  7  1  0  0  0  0
 32  8  1  0  0  0  0
 37 13  1  0  0  0  0
 40 14  1  0  0  0  0
 42 15  1  0  0  0  0
 43 16  1  0  0  0  0
 44 18  1  0  0  0  0
 45 20  1  0  0  0  0
 46 21  1  0  0  0  0
 49 26  1  0  0  0  0
 52 27  1  0  0  0  0
M  END
>  <Pose>
1

>  <Score>
-5.03

$$$$
