
 OpenBabel03172210413D

 55 58  0  0  1  0  0  0  0  0999 V2000
    7.1730    9.2260   11.4250 B   0  0  0  0  0  0  0  0  0  0  0  0
    8.3060    7.8340   12.0970 C   0  0  0  0  0  0  0  0  0  0  0  0
    9.2640    7.2350   11.3030 C   0  0  0  0  0  0  0  0  0  0  0  0
   10.0750    6.2360   11.7900 C   0  0  0  0  0  0  0  0  0  0  0  0
    9.8830    5.8630   13.1040 C   0  0  0  0  0  0  0  0  0  0  0  0
    8.9280    6.4580   13.9020 C   0  0  0  0  0  0  0  0  0  0  0  0
    8.1170    7.4590   13.4100 C   0  0  0  0  0  0  0  0  0  0  0  0
    7.0880    8.0950   14.2820 C   0  0  0  0  0  0  0  0  0  0  0  0
   10.7170    4.8490   13.5740 O   0  0  0  0  0  0  0  0  0  0  0  0
   11.4680    4.0170   12.7560 C   0  0  0  0  0  0  0  0  0  0  0  0
   11.9640    4.6320   11.4910 C   0  0  2  0  0  0  0  0  0  0  0  0
   11.0670    5.6510   10.8810 C   0  0  2  0  0  0  0  0  0  0  0  0
   11.8160    6.7290   10.3500 O   0  0  0  0  0  0  0  0  0  0  0  0
   12.0590    3.5280   10.5300 N   0  0  0  0  0  4  0  0  0  0  0  0
   11.1340    2.4780   10.7840 C   0  0  0  0  0  0  0  0  0  0  0  0
   11.1030    1.6170    9.5130 C   0  0  0  0  0  0  0  0  0  0  0  0
   12.3690    1.0710    9.3830 O   0  0  0  0  0  0  0  0  0  0  0  0
   13.3680    2.0260    9.2420 C   0  0  0  0  0  0  0  0  0  0  0  0
   13.3810    2.9860   10.4410 C   0  0  0  0  0  0  0  0  0  0  0  0
   13.3610    5.2020   11.6260 C   0  0  0  0  0  0  0  0  0  0  0  0
   13.7500    5.4680   12.9770 N   0  0  0  0  0  4  0  0  0  0  0  0
   15.1670    5.2490   13.2070 C   0  0  0  0  0  0  0  0  0  0  0  0
   15.7870    6.3740   14.0230 C   0  0  0  0  0  0  0  0  0  0  0  0
   15.7350    7.5920   13.3660 O   0  0  0  0  0  0  0  0  0  0  0  0
   14.5760    7.7080   12.6050 C   0  0  0  0  0  0  0  0  0  0  0  0
   13.5110    6.8850   13.2990 C   0  0  0  0  0  0  0  0  0  0  0  0
    9.3760    7.5670   10.2650 H   0  0  0  0  0  0  0  0  0  0  0  0
    8.7970    6.1490   14.9300 H   0  0  0  0  0  0  0  0  0  0  0  0
    6.1630    7.4770   14.3110 H   0  0  0  0  0  0  0  0  0  0  0  0
    7.4410    8.2100   15.3190 H   0  0  0  0  0  0  0  0  0  0  0  0
    6.8060    9.0690   13.8290 H   0  0  0  0  0  0  0  0  0  0  0  0
   12.3170    3.6180   13.3550 H   0  0  0  0  0  0  0  0  0  0  0  0
   10.8300    3.1090   12.5380 H   0  0  0  0  0  0  0  0  0  0  0  0
   10.5050    5.2520    9.9860 H   0  0  0  0  0  0  0  0  0  0  0  0
   11.3090    7.2410    9.6870 H   0  0  0  0  0  0  0  0  0  0  0  0
   11.8280    3.9500    9.6030 H   0  0  0  0  0  0  0  0  0  0  0  0
   10.1060    2.7790   10.9760 H   0  0  0  0  0  0  0  0  0  0  0  0
   11.5340    1.7830   11.5770 H   0  0  0  0  0  0  0  0  0  0  0  0
   10.3840    0.8160    9.6740 H   0  0  0  0  0  0  0  0  0  0  0  0
   10.8430    2.3080    8.6920 H   0  0  0  0  0  0  0  0  0  0  0  0
   14.3240    1.4960    9.1360 H   0  0  0  0  0  0  0  0  0  0  0  0
   13.0960    2.6470    8.3630 H   0  0  0  0  0  0  0  0  0  0  0  0
   13.6700    2.3570   11.3060 H   0  0  0  0  0  0  0  0  0  0  0  0
   14.1650    3.7370   10.2290 H   0  0  0  0  0  0  0  0  0  0  0  0
   14.1320    4.5750   11.1510 H   0  0  0  0  0  0  0  0  0  0  0  0
   13.3670    6.1780   11.0600 H   0  0  0  0  0  0  0  0  0  0  0  0
   13.2430    4.9340   13.6980 H   0  0  0  0  0  0  0  0  0  0  0  0
   15.6870    5.2640   12.2240 H   0  0  0  0  0  0  0  0  0  0  0  0
   15.3700    4.3160   13.7710 H   0  0  0  0  0  0  0  0  0  0  0  0
   15.4150    6.4050   15.0570 H   0  0  0  0  0  0  0  0  0  0  0  0
   16.8770    6.1100   14.1010 H   0  0  0  0  0  0  0  0  0  0  0  0
   14.8110    7.3030   11.5970 H   0  0  0  0  0  0  0  0  0  0  0  0
   14.3060    8.7770   12.5680 H   0  0  0  0  0  0  0  0  0  0  0  0
   13.5810    7.0100   14.4000 H   0  0  0  0  0  0  0  0  0  0  0  0
   12.4840    7.1910   13.0100 H   0  0  0  0  0  0  0  0  0  0  0  0
  1  2  1  0  0  0  0
  2  7  1  0  0  0  0
  3  4  1  0  0  0  0
  3  2  2  0  0  0  0
  4  5  2  0  0  0  0
  5  9  1  0  0  0  0
  5  6  1  0  0  0  0
  6 28  1  0  0  0  0
  7  6  2  0  0  0  0
  7  8  1  0  0  0  0
  8 29  1  0  0  0  0
  8 30  1  0  0  0  0
 10 32  1  0  0  0  0
 10  9  1  0  0  0  0
 11 20  1  1  0  0  0
 11 10  1  0  0  0  0
 12 34  1  6  0  0  0
 12 11  1  0  0  0  0
 12  4  1  0  0  0  0
 13 12  1  0  0  0  0
 14 15  1  0  0  0  0
 14 11  1  0  0  0  0
 15 37  1  0  0  0  0
 15 38  1  0  0  0  0
 16 39  1  0  0  0  0
 16 15  1  0  0  0  0
 17 16  1  0  0  0  0
 18 17  1  0  0  0  0
 18 19  1  0  0  0  0
 19 14  1  0  0  0  0
 19 43  1  0  0  0  0
 20 21  1  0  0  0  0
 21 22  1  0  0  0  0
 21 26  1  0  0  0  0
 21 47  1  0  0  0  0
 22 49  1  0  0  0  0
 22 23  1  0  0  0  0
 23 51  1  0  0  0  0
 23 50  1  0  0  0  0
 24 23  1  0  0  0  0
 25 26  1  0  0  0  0
 25 24  1  0  0  0  0
 26 54  1  0  0  0  0
 27  3  1  0  0  0  0
 31  8  1  0  0  0  0
 33 10  1  0  0  0  0
 35 13  1  0  0  0  0
 36 14  1  0  0  0  0
 40 16  1  0  0  0  0
 41 18  1  0  0  0  0
 42 18  1  0  0  0  0
 44 19  1  0  0  0  0
 45 20  1  0  0  0  0
 46 20  1  0  0  0  0
 48 22  1  0  0  0  0
 52 25  1  0  0  0  0
 53 25  1  0  0  0  0
 55 26  1  0  0  0  0
M  END
>  <Pose>
1

>  <Score>
-4.82

$$$$
