
 OpenBabel03172210413D

 66 69  0  0  1  0  0  0  0  0999 V2000
   18.3360    9.1400   11.0460 B   0  0  0  0  0  0  0  0  0  0  0  0
   17.7820    7.3780   11.5580 C   0  0  0  0  0  0  0  0  0  0  0  0
   16.4450    7.1020   11.7200 C   0  0  0  0  0  0  0  0  0  0  0  0
   15.9970    5.8240   12.0940 C   0  0  0  0  0  0  0  0  0  0  0  0
   16.9670    4.8660   12.2890 C   0  0  0  0  0  0  0  0  0  0  0  0
   18.3140    5.1160   12.1340 C   0  0  0  0  0  0  0  0  0  0  0  0
   18.7280    6.3760   11.7660 C   0  0  0  0  0  0  0  0  0  0  0  0
   20.1550    6.7450   11.5730 C   0  0  0  0  0  0  0  0  0  0  0  0
   19.6350    3.7680   12.4100 B   0  0  0  0  0  0  0  0  0  0  0  0
   14.5790    5.5780   12.2570 C   0  0  0  0  0  0  0  0  0  0  0  0
   14.1690    4.4350   12.4840 O   0  0  0  0  0  0  0  0  0  0  0  0
   13.6310    6.7010   12.1500 C   0  0  1  0  0  0  0  0  0  0  0  0
   14.1990    7.6700   11.1360 C   0  0  0  0  0  0  0  0  0  0  0  0
   15.4950    8.0970   11.5140 O   0  0  0  0  0  0  0  0  0  0  0  0
   12.2380    6.2820   11.7930 C   0  0  0  0  0  0  0  0  0  0  0  0
   11.6300    6.9870   10.7320 N   0  0  0  0  0  4  0  0  0  0  0  0
   11.4120    6.1080    9.6210 C   0  0  0  0  0  0  0  0  0  0  0  0
   10.3440    5.0930    9.8150 C   0  0  2  0  0  0  0  0  0  0  0  0
    9.4950    5.2400   11.0180 C   0  0  0  0  0  0  0  0  0  0  0  0
    9.4180    6.5900   11.6160 C   0  0  0  0  0  0  0  0  0  0  0  0
   10.3640    7.5970   11.0310 C   0  0  0  0  0  0  0  0  0  0  0  0
   11.0190    3.7180    9.8890 C   0  0  0  0  0  0  0  0  0  0  0  0
   13.6370    7.3820   13.5030 C   0  0  0  0  0  0  0  0  0  0  0  0
   13.2560    8.7530   13.4970 N   0  0  0  0  0  4  0  0  0  0  0  0
   13.5640    9.3710   14.7850 C   0  0  0  0  0  0  0  0  0  0  0  0
   12.3560    9.5030   15.6650 C   0  0  1  0  0  0  0  0  0  0  0  0
   11.5220    8.2450   15.5730 C   0  0  0  0  0  0  0  0  0  0  0  0
   10.9640    8.1680   14.1850 C   0  0  0  0  0  0  0  0  0  0  0  0
   11.8450    8.9770   13.2660 C   0  0  0  0  0  0  0  0  0  0  0  0
   12.8620    9.5780   17.1120 C   0  0  0  0  0  0  0  0  0  0  0  0
   16.6760    3.8590   12.5790 H   0  0  0  0  0  0  0  0  0  0  0  0
   20.2900    7.0310   10.5060 H   0  0  0  0  0  0  0  0  0  0  0  0
   20.8470    5.9730   11.9110 H   0  0  0  0  0  0  0  0  0  0  0  0
   20.3030    7.7020   12.1490 H   0  0  0  0  0  0  0  0  0  0  0  0
   14.2950    7.2020   10.1450 H   0  0  0  0  0  0  0  0  0  0  0  0
   13.5120    8.5490   10.9870 H   0  0  0  0  0  0  0  0  0  0  0  0
   12.3010    5.2110   11.5050 H   0  0  0  0  0  0  0  0  0  0  0  0
   11.6280    6.3040   12.7190 H   0  0  0  0  0  0  0  0  0  0  0  0
   12.2660    7.7550   10.3990 H   0  0  0  0  0  0  0  0  0  0  0  0
   11.1780    6.7710    8.7350 H   0  0  0  0  0  0  0  0  0  0  0  0
   12.3850    5.6410    9.3630 H   0  0  0  0  0  0  0  0  0  0  0  0
    9.7250    5.0570    8.8890 H   0  0  0  0  0  0  0  0  0  0  0  0
    8.4490    4.9200   10.7420 H   0  0  0  0  0  0  0  0  0  0  0  0
    9.7840    4.4990   11.8230 H   0  0  0  0  0  0  0  0  0  0  0  0
    9.5610    6.5580   12.7370 H   0  0  0  0  0  0  0  0  0  0  0  0
    8.3840    7.0370   11.5060 H   0  0  0  0  0  0  0  0  0  0  0  0
   10.3880    8.4980   11.6300 H   0  0  0  0  0  0  0  0  0  0  0  0
    9.9210    7.8960   10.0330 H   0  0  0  0  0  0  0  0  0  0  0  0
   10.3560    2.9310    9.4500 H   0  0  0  0  0  0  0  0  0  0  0  0
   12.0070    3.7660    9.4130 H   0  0  0  0  0  0  0  0  0  0  0  0
   11.1690    3.4820   10.9590 H   0  0  0  0  0  0  0  0  0  0  0  0
   14.6980    7.2990   13.8760 H   0  0  0  0  0  0  0  0  0  0  0  0
   13.0490    6.7600   14.2350 H   0  0  0  0  0  0  0  0  0  0  0  0
   13.7860    9.2730   12.7920 H   0  0  0  0  0  0  0  0  0  0  0  0
   14.0220   10.3670   14.6620 H   0  0  0  0  0  0  0  0  0  0  0  0
   14.3040    8.7460   15.3530 H   0  0  0  0  0  0  0  0  0  0  0  0
   11.7780   10.4200   15.4990 H   0  0  0  0  0  0  0  0  0  0  0  0
   10.7190    8.3310   16.3320 H   0  0  0  0  0  0  0  0  0  0  0  0
   12.1570    7.3960   15.8440 H   0  0  0  0  0  0  0  0  0  0  0  0
   10.7930    7.1630   13.8060 H   0  0  0  0  0  0  0  0  0  0  0  0
    9.9620    8.6840   14.1850 H   0  0  0  0  0  0  0  0  0  0  0  0
   11.6760   10.0750   13.4620 H   0  0  0  0  0  0  0  0  0  0  0  0
   11.5070    8.8030   12.2430 H   0  0  0  0  0  0  0  0  0  0  0  0
   13.8760   10.0420   17.1340 H   0  0  0  0  0  0  0  0  0  0  0  0
   12.8560    8.5770   17.5920 H   0  0  0  0  0  0  0  0  0  0  0  0
   12.1990   10.2200   17.7290 H   0  0  0  0  0  0  0  0  0  0  0  0
  1  2  1  0  0  0  0
  2  3  2  0  0  0  0
  2  7  1  0  0  0  0
  3  4  1  0  0  0  0
  4 10  1  0  0  0  0
  4  5  2  0  0  0  0
  5 31  1  0  0  0  0
  6  5  1  0  0  0  0
  6  9  1  0  0  0  0
  7  6  2  0  0  0  0
  8  7  1  0  0  0  0
  8 33  1  0  0  0  0
  8 34  1  0  0  0  0
 10 11  2  0  0  0  0
 12 15  1  6  0  0  0
 12 10  1  0  0  0  0
 12 23  1  0  0  0  0
 13 14  1  0  0  0  0
 13 12  1  0  0  0  0
 14  3  1  0  0  0  0
 15 38  1  0  0  0  0
 16 21  1  0  0  0  0
 16 15  1  0  0  0  0
 17 18  1  0  0  0  0
 17 16  1  0  0  0  0
 18 42  1  6  0  0  0
 18 22  1  0  0  0  0
 18 19  1  0  0  0  0
 19 20  1  0  0  0  0
 19 44  1  0  0  0  0
 20 45  1  0  0  0  0
 21 20  1  0  0  0  0
 21 47  1  0  0  0  0
 22 51  1  0  0  0  0
 23 52  1  0  0  0  0
 23 53  1  0  0  0  0
 24 23  1  0  0  0  0
 24 25  1  0  0  0  0
 25 56  1  0  0  0  0
 25 26  1  0  0  0  0
 26 57  1  6  0  0  0
 26 30  1  0  0  0  0
 27 26  1  0  0  0  0
 27 59  1  0  0  0  0
 27 58  1  0  0  0  0
 28 27  1  0  0  0  0
 29 62  1  0  0  0  0
 29 24  1  0  0  0  0
 29 28  1  0  0  0  0
 30 64  1  0  0  0  0
 30 65  1  0  0  0  0
 30 66  1  0  0  0  0
 32  8  1  0  0  0  0
 35 13  1  0  0  0  0
 36 13  1  0  0  0  0
 37 15  1  0  0  0  0
 39 16  1  0  0  0  0
 40 17  1  0  0  0  0
 41 17  1  0  0  0  0
 43 19  1  0  0  0  0
 46 20  1  0  0  0  0
 48 21  1  0  0  0  0
 49 22  1  0  0  0  0
 50 22  1  0  0  0  0
 54 24  1  0  0  0  0
 55 25  1  0  0  0  0
 60 28  1  0  0  0  0
 61 28  1  0  0  0  0
 63 29  1  0  0  0  0
M  END
>  <Pose>
1

>  <Score>
-4.91

$$$$
