
 OpenBabel03172210413D

 60 63  0  0  0  0  0  0  0  0999 V2000
   19.9270    5.8740   10.8670 B   0  0  0  0  0  0  0  0  0  0  0  0
   18.7770    7.2280   11.5050 C   0  0  0  0  0  0  0  0  0  0  0  0
   17.4400    6.9350   11.6190 C   0  0  0  0  0  0  0  0  0  0  0  0
   16.4890    7.8600   12.0820 C   0  0  0  0  0  0  0  0  0  0  0  0
   16.9240    9.1410   12.4430 C   0  0  0  0  0  0  0  0  0  0  0  0
   18.2670    9.4210   12.3240 C   0  0  0  0  0  0  0  0  0  0  0  0
   19.1860    8.4950   11.8660 C   0  0  0  0  0  0  0  0  0  0  0  0
   20.6460    8.8310   11.7450 C   0  0  0  0  0  0  0  0  0  0  0  0
   18.8570   11.1640   12.8180 B   0  0  0  0  0  0  0  0  0  0  0  0
   15.0880    7.4960   12.1740 C   0  0  0  0  0  0  0  0  0  0  0  0
   14.2580    8.4210   11.9850 O   0  0  0  0  0  0  0  0  0  0  0  0
   14.7740    6.0870   12.4770 C   0  0  0  0  0  0  0  0  0  0  0  0
   15.5570    5.3770   11.2830 C   0  0  0  0  0  0  0  0  0  0  0  0
   16.9000    5.7060   11.2900 O   0  0  0  0  0  0  0  0  0  0  0  0
   13.3930    5.6720   12.3350 C   0  0  0  0  0  0  0  0  0  0  0  0
   12.8270    4.4320   12.5860 N   0  0  0  0  0  4  0  0  0  0  0  0
   13.0850    3.2940   11.7940 C   0  0  0  0  0  0  0  0  0  0  0  0
   11.9440    2.2840   11.7810 C   0  0  0  0  0  0  0  0  0  0  0  0
   10.7210    2.8340   11.1190 C   0  0  0  0  0  0  0  0  0  0  0  0
   10.6470    4.3010   11.4140 C   0  0  0  0  0  0  0  0  0  0  0  0
   11.3590    4.5850   12.6960 C   0  0  0  0  0  0  0  0  0  0  0  0
   15.4390    5.6810   13.7370 C   0  0  0  0  0  0  0  0  0  0  0  0
   14.9300    6.0770   14.9820 N   0  0  0  0  0  4  0  0  0  0  0  0
   15.9640    5.8360   15.9980 C   0  0  0  0  0  0  0  0  0  0  0  0
   15.4180    5.9520   17.4060 C   0  0  0  0  0  0  0  0  0  0  0  0
   15.0100    7.4250   17.5690 C   0  0  0  0  0  0  0  0  0  0  0  0
   13.9410    7.6330   16.5210 C   0  0  0  0  0  0  0  0  0  0  0  0
   14.6090    7.4850   15.1430 C   0  0  0  0  0  0  0  0  0  0  0  0
   16.1940    9.8440   12.7940 H   0  0  0  0  0  0  0  0  0  0  0  0
   21.0240    8.8960   12.7980 H   0  0  0  0  0  0  0  0  0  0  0  0
   21.1550    8.0670   11.1580 H   0  0  0  0  0  0  0  0  0  0  0  0
   20.7040    9.8520   11.3170 H   0  0  0  0  0  0  0  0  0  0  0  0
   15.0800    5.8220   10.3870 H   0  0  0  0  0  0  0  0  0  0  0  0
   15.3350    4.3180   11.3120 H   0  0  0  0  0  0  0  0  0  0  0  0
   13.0220    5.9790   11.2910 H   0  0  0  0  0  0  0  0  0  0  0  0
   12.7740    6.4320   12.9570 H   0  0  0  0  0  0  0  0  0  0  0  0
   13.0360    4.1050   13.6210 H   0  0  0  0  0  0  0  0  0  0  0  0
   13.9920    2.7640   12.1810 H   0  0  0  0  0  0  0  0  0  0  0  0
   13.2830    3.4770   10.7350 H   0  0  0  0  0  0  0  0  0  0  0  0
   11.7060    2.0420   12.8280 H   0  0  0  0  0  0  0  0  0  0  0  0
   12.2310    1.3610   11.2700 H   0  0  0  0  0  0  0  0  0  0  0  0
    9.7870    2.3340   11.4030 H   0  0  0  0  0  0  0  0  0  0  0  0
   10.8870    2.6900   10.0100 H   0  0  0  0  0  0  0  0  0  0  0  0
    9.5790    4.5550   11.5860 H   0  0  0  0  0  0  0  0  0  0  0  0
   10.9660    4.9450   10.5740 H   0  0  0  0  0  0  0  0  0  0  0  0
   11.1180    5.5920   13.1350 H   0  0  0  0  0  0  0  0  0  0  0  0
   11.0130    3.8380   13.4290 H   0  0  0  0  0  0  0  0  0  0  0  0
   16.5390    5.8980   13.6970 H   0  0  0  0  0  0  0  0  0  0  0  0
   15.4850    4.5150   13.7850 H   0  0  0  0  0  0  0  0  0  0  0  0
   14.1000    5.5780   15.3610 H   0  0  0  0  0  0  0  0  0  0  0  0
   16.6980    6.6880   15.8950 H   0  0  0  0  0  0  0  0  0  0  0  0
   16.5250    4.9260   15.8650 H   0  0  0  0  0  0  0  0  0  0  0  0
   14.5470    5.2870   17.5310 H   0  0  0  0  0  0  0  0  0  0  0  0
   16.2360    5.7500   18.0930 H   0  0  0  0  0  0  0  0  0  0  0  0
   14.6660    7.6300   18.5830 H   0  0  0  0  0  0  0  0  0  0  0  0
   15.8860    8.0290   17.2520 H   0  0  0  0  0  0  0  0  0  0  0  0
   13.2160    6.7720   16.5740 H   0  0  0  0  0  0  0  0  0  0  0  0
   13.3910    8.5700   16.6040 H   0  0  0  0  0  0  0  0  0  0  0  0
   13.8410    7.8690   14.4580 H   0  0  0  0  0  0  0  0  0  0  0  0
   15.5190    8.1070   15.1790 H   0  0  0  0  0  0  0  0  0  0  0  0
  1  2  1  0  0  0  0
  2  3  2  0  0  0  0
  2  7  1  0  0  0  0
  3  4  1  0  0  0  0
  4 10  1  0  0  0  0
  4  5  2  0  0  0  0
  5 29  1  0  0  0  0
  6  5  1  0  0  0  0
  6  9  1  0  0  0  0
  7  6  2  0  0  0  0
  8  7  1  0  0  0  0
  8 30  1  0  0  0  0
 10 12  1  0  0  0  0
 11 10  2  0  0  0  0
 12 22  1  0  0  0  0
 13 14  1  0  0  0  0
 13 34  1  0  0  0  0
 13 12  1  0  0  0  0
 14  3  1  0  0  0  0
 15 12  1  0  0  0  0
 15 16  1  0  0  0  0
 15 36  1  0  0  0  0
 16 21  1  0  0  0  0
 16 37  1  0  0  0  0
 17 38  1  0  0  0  0
 17 16  1  0  0  0  0
 18 17  1  0  0  0  0
 18 40  1  0  0  0  0
 19 42  1  0  0  0  0
 19 20  1  0  0  0  0
 19 18  1  0  0  0  0
 20 44  1  0  0  0  0
 20 21  1  0  0  0  0
 21 46  1  0  0  0  0
 21 47  1  0  0  0  0
 22 49  1  0  0  0  0
 22 23  1  0  0  0  0
 23 28  1  0  0  0  0
 23 50  1  0  0  0  0
 23 24  1  0  0  0  0
 24 25  1  0  0  0  0
 25 53  1  0  0  0  0
 25 26  1  0  0  0  0
 25 54  1  0  0  0  0
 26 55  1  0  0  0  0
 27 57  1  0  0  0  0
 27 58  1  0  0  0  0
 27 26  1  0  0  0  0
 28 60  1  0  0  0  0
 28 27  1  0  0  0  0
 31  8  1  0  0  0  0
 32  8  1  0  0  0  0
 33 13  1  0  0  0  0
 35 15  1  0  0  0  0
 39 17  1  0  0  0  0
 41 18  1  0  0  0  0
 43 19  1  0  0  0  0
 45 20  1  0  0  0  0
 48 22  1  0  0  0  0
 51 24  1  0  0  0  0
 52 24  1  0  0  0  0
 56 26  1  0  0  0  0
 59 28  1  0  0  0  0
M  END
>  <Pose>
1

>  <Score>
-5.36

$$$$
