
 OpenBabel03172210413D

 50 53  0  0  0  0  0  0  0  0999 V2000
    7.1090   10.0530   12.2170 F   0  0  0  0  0  0  0  0  0  0  0  0
    7.7580    8.8560   12.2060 C   0  0  0  0  0  0  0  0  0  0  0  0
    7.1130    7.6830   11.8730 C   0  0  0  0  0  0  0  0  0  0  0  0
    7.7890    6.4810   11.8690 C   0  0  0  0  0  0  0  0  0  0  0  0
    9.1320    6.3940   12.1960 C   0  0  0  0  0  0  0  0  0  0  0  0
    9.7680    7.5710   12.5270 C   0  0  0  0  0  0  0  0  0  0  0  0
    9.0920    8.7830   12.5330 C   0  0  0  0  0  0  0  0  0  0  0  0
    9.8510    5.1270   12.1930 C   0  0  0  0  0  0  0  0  0  0  0  0
   10.6830    4.8410   13.1290 N   0  0  0  0  0  0  0  0  0  0  0  0
   11.4010    3.6550   13.1910 N   0  0  0  0  0  0  0  0  0  0  0  0
   12.2620    3.2770   12.1350 C   0  0  0  0  0  0  0  0  0  0  0  0
   11.8330    2.4020   11.1990 N   0  0  0  0  0  4  0  0  0  0  0  0
   12.6070    1.9970   10.1620 C   0  0  0  0  0  0  0  0  0  0  0  0
   13.8370    2.5110   10.1010 N   0  0  0  0  0  0  0  0  0  0  0  0
   14.3310    3.3850   10.9960 C   0  0  0  0  0  0  0  0  0  0  0  0
   13.5150    3.7470   12.0010 N   0  0  0  0  0  0  0  0  0  0  0  0
   15.6530    3.8910   10.8670 N   0  0  0  0  0  0  0  0  0  0  0  0
   15.9140    5.2720   11.2240 C   0  0  0  0  0  0  0  0  0  0  0  0
   17.3680    5.5930   10.9650 C   0  0  0  0  0  0  0  0  0  0  0  0
   18.2480    4.6850   11.4820 O   0  0  0  0  0  0  0  0  0  0  0  0
   17.9160    3.3630   11.3550 C   0  0  0  0  0  0  0  0  0  0  0  0
   16.7620    3.1140   10.3980 C   0  0  0  0  0  0  0  0  0  0  0  0
   12.1030    1.0730    9.2040 N   0  0  0  0  0  0  0  0  0  0  0  0
   10.7040    0.7550    9.0420 C   0  0  0  0  0  0  0  0  0  0  0  0
   10.6570   -0.7670    9.1610 C   0  0  0  0  0  0  0  0  0  0  0  0
   11.2780   -1.3100    8.0980 O   0  0  0  0  0  0  0  0  0  0  0  0
   12.4670   -0.8440    7.6990 C   0  0  0  0  0  0  0  0  0  0  0  0
   13.0100    0.3840    8.3160 C   0  0  0  0  0  0  0  0  0  0  0  0
    5.2600    7.7730   11.4180 B   0  0  0  0  0  0  0  0  0  0  0  0
    7.2860    5.5430   11.6050 H   0  0  0  0  0  0  0  0  0  0  0  0
   10.8310    7.5100   12.7860 H   0  0  0  0  0  0  0  0  0  0  0  0
    9.6120    9.7040   12.7990 H   0  0  0  0  0  0  0  0  0  0  0  0
    9.6740    4.4330   11.3950 H   0  0  0  0  0  0  0  0  0  0  0  0
   11.3080    3.0370   14.0140 H   0  0  0  0  0  0  0  0  0  0  0  0
   15.3270    5.9710   10.5610 H   0  0  0  0  0  0  0  0  0  0  0  0
   15.6750    5.3890   12.2850 H   0  0  0  0  0  0  0  0  0  0  0  0
   17.5600    6.5710   11.4940 H   0  0  0  0  0  0  0  0  0  0  0  0
   17.5390    5.8040    9.8970 H   0  0  0  0  0  0  0  0  0  0  0  0
   17.5660    2.9930   12.3510 H   0  0  0  0  0  0  0  0  0  0  0  0
   18.8240    2.7980   11.0430 H   0  0  0  0  0  0  0  0  0  0  0  0
   17.0830    3.5290    9.4180 H   0  0  0  0  0  0  0  0  0  0  0  0
   16.5470    2.0450   10.3710 H   0  0  0  0  0  0  0  0  0  0  0  0
   10.4440    0.9800    7.9870 H   0  0  0  0  0  0  0  0  0  0  0  0
   10.0490    1.2450    9.7740 H   0  0  0  0  0  0  0  0  0  0  0  0
   11.1240   -1.0300   10.1290 H   0  0  0  0  0  0  0  0  0  0  0  0
    9.5830   -1.1080    9.1630 H   0  0  0  0  0  0  0  0  0  0  0  0
   12.4260   -0.6850    6.5790 H   0  0  0  0  0  0  0  0  0  0  0  0
   13.2280   -1.6760    7.8020 H   0  0  0  0  0  0  0  0  0  0  0  0
   13.3020    1.1530    7.5390 H   0  0  0  0  0  0  0  0  0  0  0  0
   13.9890    0.1700    8.8390 H   0  0  0  0  0  0  0  0  0  0  0  0
  2  1  1  0  0  0  0
  2  7  1  0  0  0  0
  3  2  2  0  0  0  0
  4  3  1  0  0  0  0
  4  5  2  0  0  0  0
  5  6  1  0  0  0  0
  6  7  2  0  0  0  0
  6 31  1  0  0  0  0
  7 32  1  0  0  0  0
  8  5  1  0  0  0  0
  8  9  2  0  0  0  0
  9 10  1  0  0  0  0
 10 34  1  0  0  0  0
 11 10  1  0  0  0  0
 12 11  2  0  0  0  0
 13 12  2  0  0  0  0
 14 13  1  0  0  0  0
 14 15  2  0  0  0  0
 15 16  1  0  0  0  0
 16 11  1  0  0  0  0
 17 15  1  0  0  0  0
 17 18  1  0  0  0  0
 18 36  1  0  0  0  0
 19 18  1  0  0  0  0
 19 20  1  0  0  0  0
 19 37  1  0  0  0  0
 21 20  1  0  0  0  0
 21 39  1  0  0  0  0
 22 17  1  0  0  0  0
 22 21  1  0  0  0  0
 23 13  1  0  0  0  0
 24 25  1  0  0  0  0
 24 23  1  0  0  0  0
 24 44  1  0  0  0  0
 25 46  1  0  0  0  0
 25 45  1  0  0  0  0
 26 25  1  0  0  0  0
 27 48  1  0  0  0  0
 27 26  1  0  0  0  0
 27 28  1  0  0  0  0
 28 50  1  0  0  0  0
 28 23  1  0  0  0  0
 29  3  1  0  0  0  0
 30  4  1  0  0  0  0
 33  8  1  0  0  0  0
 35 18  1  0  0  0  0
 38 19  1  0  0  0  0
 40 21  1  0  0  0  0
 41 22  1  0  0  0  0
 42 22  1  0  0  0  0
 43 24  1  0  0  0  0
 47 27  1  0  0  0  0
 49 28  1  0  0  0  0
M  END
>  <Pose>
1

>  <Score>
-6.58

$$$$
