
 OpenBabel03172210413D

 41 44  0  0  0  0  0  0  0  0999 V2000
    6.5030    5.6390   11.2380 F   0  0  0  0  0  0  0  0  0  0  0  0
    7.4670    6.5190   11.6350 C   0  0  0  0  0  0  0  0  0  0  0  0
    8.8110    6.1420   11.4850 C   0  0  0  0  0  0  0  0  0  0  0  0
    9.7440    7.0590   11.8980 C   0  0  0  0  0  0  0  0  0  0  0  0
    9.3560    8.2790   12.4280 C   0  0  0  0  0  0  0  0  0  0  0  0
    8.0480    8.6400   12.5720 C   0  0  0  0  0  0  0  0  0  0  0  0
    7.1010    7.7310   12.1630 C   0  0  0  0  0  0  0  0  0  0  0  0
    9.1220    4.8680   10.9290 N   0  0  0  0  0  0  0  0  0  0  0  0
   10.3740    4.3650   10.5890 C   0  0  0  0  0  0  0  0  0  0  0  0
   10.9430    4.6540    9.5240 O   0  0  0  0  0  0  0  0  0  0  0  0
   11.1100    3.4390   11.4960 C   0  0  0  0  0  0  0  0  0  0  0  0
   12.0460    2.6430   10.7250 N   0  0  0  0  0  0  0  0  0  0  0  0
   11.8040    1.6080    9.9490 N   0  0  0  0  0  0  0  0  0  0  0  0
   12.9310    1.1580    9.4180 N   0  0  0  0  0  0  0  0  0  0  0  0
   13.9440    1.9310    9.8660 C   0  0  0  0  0  0  0  0  0  0  0  0
   13.3910    2.8280   10.6580 C   0  0  0  0  0  0  0  0  0  0  0  0
   14.4290    3.6240   11.1180 C   0  0  0  0  0  0  0  0  0  0  0  0
   14.2820    4.5880   11.9000 O   0  0  0  0  0  0  0  0  0  0  0  0
   15.6070    3.2170   10.6130 N   0  0  0  0  0  0  0  0  0  0  0  0
   15.3060    2.1620    9.8330 C   0  0  0  0  0  0  0  0  0  0  0  0
   16.1240    1.4850    9.1730 O   0  0  0  0  0  0  0  0  0  0  0  0
   16.8890    3.7940   10.8650 C   0  0  0  0  0  0  0  0  0  0  0  0
   17.0700    5.1630   10.8600 C   0  0  0  0  0  0  0  0  0  0  0  0
   18.3020    5.7370   11.1020 C   0  0  0  0  0  0  0  0  0  0  0  0
   19.4110    4.9590   11.3600 C   0  0  0  0  0  0  0  0  0  0  0  0
   19.2540    3.5890   11.3700 C   0  0  0  0  0  0  0  0  0  0  0  0
   18.0130    3.0350   11.1250 C   0  0  0  0  0  0  0  0  0  0  0  0
   21.1300    5.7270   11.6990 B   0  0  0  0  0  0  0  0  0  0  0  0
   10.7880    6.8500   11.8170 H   0  0  0  0  0  0  0  0  0  0  0  0
   10.1110    9.0010   12.7540 H   0  0  0  0  0  0  0  0  0  0  0  0
    7.7980    9.6040   12.9920 H   0  0  0  0  0  0  0  0  0  0  0  0
    6.0580    8.0260   12.2800 H   0  0  0  0  0  0  0  0  0  0  0  0
    8.2940    4.2100   10.7480 H   0  0  0  0  0  0  0  0  0  0  0  0
   10.3510    2.7490   11.9540 H   0  0  0  0  0  0  0  0  0  0  0  0
   11.6140    3.9930   12.3110 H   0  0  0  0  0  0  0  0  0  0  0  0
   10.8390    1.2170    9.7950 H   0  0  0  0  0  0  0  0  0  0  0  0
   13.0240    0.3430    8.7640 H   0  0  0  0  0  0  0  0  0  0  0  0
   16.1830    5.7710   10.6550 H   0  0  0  0  0  0  0  0  0  0  0  0
   18.4280    6.8060   11.0960 H   0  0  0  0  0  0  0  0  0  0  0  0
   20.1390    2.9750   11.5750 H   0  0  0  0  0  0  0  0  0  0  0  0
   17.8820    1.9630   11.1310 H   0  0  0  0  0  0  0  0  0  0  0  0
  1  2  1  0  0  0  0
  2  7  1  0  0  0  0
  3  2  2  0  0  0  0
  3  4  1  0  0  0  0
  4  5  2  0  0  0  0
  5  6  1  0  0  0  0
  5 30  1  0  0  0  0
  6 31  1  0  0  0  0
  7 32  1  0  0  0  0
  7  6  2  0  0  0  0
  8  3  1  0  0  0  0
  9  8  1  0  0  0  0
  9 11  1  0  0  0  0
 10  9  2  0  0  0  0
 11 34  1  0  0  0  0
 11 35  1  0  0  0  0
 12 11  1  0  0  0  0
 13 12  1  0  0  0  0
 14 15  1  0  0  0  0
 14 13  1  0  0  0  0
 15 16  2  0  0  0  0
 16 12  1  0  0  0  0
 16 17  1  0  0  0  0
 17 18  2  0  0  0  0
 19 22  1  0  0  0  0
 19 17  1  0  0  0  0
 20 15  1  0  0  0  0
 20 19  1  0  0  0  0
 21 20  2  0  0  0  0
 22 27  1  0  0  0  0
 23 22  2  0  0  0  0
 23 24  1  0  0  0  0
 24 25  2  0  0  0  0
 25 26  1  0  0  0  0
 25 28  1  0  0  0  0
 26 40  1  0  0  0  0
 27 41  1  0  0  0  0
 27 26  2  0  0  0  0
 29  4  1  0  0  0  0
 33  8  1  0  0  0  0
 36 13  1  0  0  0  0
 37 14  1  0  0  0  0
 38 23  1  0  0  0  0
 39 24  1  0  0  0  0
M  END
>  <Pose>
1

>  <Score>
-6.57

$$$$
