
 OpenBabel03172210413D

 39 42  0  0  1  0  0  0  0  0999 V2000
   11.1000   -0.0130    9.0070 I   0  0  0  0  0  0  0  0  0  0  0  0
   11.6140    1.9300    9.6250 C   0  0  0  0  0  0  0  0  0  0  0  0
   10.7100    2.9790    9.4520 C   0  0  0  0  0  0  0  0  0  0  0  0
   11.0050    4.2630    9.8420 C   0  0  0  0  0  0  0  0  0  0  0  0
   12.2670    4.4530   10.4230 C   0  0  0  0  0  0  0  0  0  0  0  0
   13.1490    3.4180   10.5890 C   0  0  0  0  0  0  0  0  0  0  0  0
   12.8330    2.1400   10.1920 C   0  0  0  0  0  0  0  0  0  0  0  0
   14.8550    3.7150   11.3810 B   0  0  0  0  0  0  0  0  0  0  0  0
   10.0760    5.4140    9.6920 C   0  0  2  0  0  0  0  0  0  0  0  0
   10.8620    6.6080    9.9040 N   0  0  0  0  0  0  0  0  0  0  0  0
   11.2890    6.9470   11.2270 C   0  0  0  0  0  0  0  0  0  0  0  0
   12.6170    7.8840   11.8460 S   0  0  0  0  0  0  0  0  0  0  0  0
   12.3110    7.7330   13.5110 C   0  0  0  0  0  0  0  0  0  0  0  0
   11.1990    6.9660   13.5450 C   0  0  0  0  0  0  0  0  0  0  0  0
   10.6690    6.5600   12.3790 C   0  0  0  0  0  0  0  0  0  0  0  0
    9.4680    5.7240   12.0920 C   0  0  0  0  0  0  0  0  0  0  0  0
    8.7570    5.2710   13.0200 O   0  0  0  0  0  0  0  0  0  0  0  0
    9.0950    5.4180   10.7650 N   0  0  0  0  0  0  0  0  0  0  0  0
   10.6840    6.6640   14.9470 C   0  0  0  0  0  0  0  0  0  0  0  0
   11.2020    7.7160   15.8720 C   0  0  0  0  0  0  0  0  0  0  0  0
   12.6670    7.5760   15.8490 N   0  0  0  0  0  4  0  0  0  0  0  0
   13.0640    8.2950   14.6560 C   0  0  0  0  0  0  0  0  0  0  0  0
   13.2650    8.1170   17.0460 C   0  0  0  0  0  0  0  0  0  0  0  0
    9.4890    2.7130    8.8710 O   0  0  0  0  0  0  0  0  0  0  0  0
   12.5040    5.4630   10.7300 H   0  0  0  0  0  0  0  0  0  0  0  0
   13.5340    1.3050   10.3220 H   0  0  0  0  0  0  0  0  0  0  0  0
    9.5810    5.4130    8.6990 H   0  0  0  0  0  0  0  0  0  0  0  0
   11.1410    7.2530    9.1310 H   0  0  0  0  0  0  0  0  0  0  0  0
    8.0970    5.1870   10.5240 H   0  0  0  0  0  0  0  0  0  0  0  0
   11.1080    5.6920   15.2260 H   0  0  0  0  0  0  0  0  0  0  0  0
    9.5910    6.6010   14.9550 H   0  0  0  0  0  0  0  0  0  0  0  0
   10.9290    8.7270   15.5250 H   0  0  0  0  0  0  0  0  0  0  0  0
   10.8330    7.5230   16.8780 H   0  0  0  0  0  0  0  0  0  0  0  0
   12.9040    6.5730   15.7020 H   0  0  0  0  0  0  0  0  0  0  0  0
   12.8830    9.3840   14.7510 H   0  0  0  0  0  0  0  0  0  0  0  0
   14.1600    8.1690   14.5590 H   0  0  0  0  0  0  0  0  0  0  0  0
   13.8940    8.9990   16.8400 H   0  0  0  0  0  0  0  0  0  0  0  0
   13.9520    7.3230   17.4470 H   0  0  0  0  0  0  0  0  0  0  0  0
   12.5290    8.2990   17.8570 H   0  0  0  0  0  0  0  0  0  0  0  0
  1  2  1  0  0  0  0
  2  7  1  0  0  0  0
  3  2  2  0  0  0  0
  3  4  1  0  0  0  0
  4  5  2  0  0  0  0
  5  6  1  0  0  0  0
  5 25  1  0  0  0  0
  6  8  1  0  0  0  0
  7 26  1  0  0  0  0
  7  6  2  0  0  0  0
  9 27  1  6  0  0  0
  9  4  1  0  0  0  0
  9 10  1  0  0  0  0
  9 18  1  0  0  0  0
 10 11  1  0  0  0  0
 11 12  1  0  0  0  0
 11 15  2  0  0  0  0
 12 13  1  0  0  0  0
 13 14  2  0  0  0  0
 13 22  1  0  0  0  0
 14 19  1  0  0  0  0
 15 14  1  0  0  0  0
 16 15  1  0  0  0  0
 16 17  2  0  0  0  0
 18 16  1  0  0  0  0
 19 31  1  0  0  0  0
 19 30  1  0  0  0  0
 19 20  1  0  0  0  0
 20 33  1  0  0  0  0
 21 20  1  0  0  0  0
 21 23  1  0  0  0  0
 22 35  1  0  0  0  0
 22 21  1  0  0  0  0
 23 38  1  0  0  0  0
 23 39  1  0  0  0  0
 24  3  1  0  0  0  0
 28 10  1  0  0  0  0
 29 18  1  0  0  0  0
 32 20  1  0  0  0  0
 34 21  1  0  0  0  0
 36 22  1  0  0  0  0
 37 23  1  0  0  0  0
M  END
>  <Pose>
1

>  <Score>
-5.73

$$$$
