
 OpenBabel03172210413D

 43 46  0  0  1  0  0  0  0  0999 V2000
   20.7580    2.2340   12.4290 I   0  0  0  0  0  0  0  0  0  0  0  0
   19.0310    3.4320   12.2540 C   0  0  0  0  0  0  0  0  0  0  0  0
   18.7980    4.4350   13.1740 C   0  0  0  0  0  0  0  0  0  0  0  0
   17.6610    5.2340   13.0710 C   0  0  0  0  0  0  0  0  0  0  0  0
   16.8060    4.9840   12.0400 C   0  0  0  0  0  0  0  0  0  0  0  0
   17.0150    3.9830   11.1010 C   0  0  0  0  0  0  0  0  0  0  0  0
   18.1370    3.2090   11.2190 C   0  0  0  0  0  0  0  0  0  0  0  0
   16.0050    3.8110   10.0220 C   0  0  2  0  0  0  0  0  0  0  0  0
   14.7110    3.7130   10.6980 N   0  0  0  0  0  0  0  0  0  0  0  0
   13.6980    2.7840   10.2370 C   0  0  0  0  0  0  0  0  0  0  0  0
   12.0200    2.6250   10.5750 S   0  0  0  0  0  0  0  0  0  0  0  0
   11.6760    1.2820    9.5980 C   0  0  0  0  0  0  0  0  0  0  0  0
   12.8850    0.9860    9.0270 C   0  0  0  0  0  0  0  0  0  0  0  0
   13.9310    1.7710    9.3640 C   0  0  0  0  0  0  0  0  0  0  0  0
   15.3380    1.6580    8.8840 C   0  0  0  0  0  0  0  0  0  0  0  0
   15.6900    0.7550    8.0650 O   0  0  0  0  0  0  0  0  0  0  0  0
   16.3000    2.5750    9.3510 N   0  0  0  0  0  0  0  0  0  0  0  0
   12.7900   -0.2160    8.0930 C   0  0  0  0  0  0  0  0  0  0  0  0
   12.1000   -1.3470    8.8080 C   0  0  0  0  0  0  0  0  0  0  0  0
   10.9410   -0.9550    9.5370 N   0  0  0  0  0  4  0  0  0  0  0  0
   10.5110    0.4030    9.2180 C   0  0  0  0  0  0  0  0  0  0  0  0
   11.3130   -0.9210   10.9590 C   0  0  0  0  0  0  0  0  0  0  0  0
   17.4790    6.2270   14.0240 O   0  0  0  0  0  0  0  0  0  0  0  0
   16.2830    6.2270   14.7800 C   0  0  0  0  0  0  0  0  0  0  0  0
   19.6900    4.6570   14.2060 O   0  0  0  0  0  0  0  0  0  0  0  0
   15.9160    5.6020   11.9500 H   0  0  0  0  0  0  0  0  0  0  0  0
   18.2990    2.4220   10.4810 H   0  0  0  0  0  0  0  0  0  0  0  0
   15.9900    4.6780    9.3350 H   0  0  0  0  0  0  0  0  0  0  0  0
   14.4790    4.2970   11.5210 H   0  0  0  0  0  0  0  0  0  0  0  0
   17.3200    2.3560    9.2050 H   0  0  0  0  0  0  0  0  0  0  0  0
   12.2590    0.0900    7.1930 H   0  0  0  0  0  0  0  0  0  0  0  0
   13.8050   -0.5700    7.8380 H   0  0  0  0  0  0  0  0  0  0  0  0
   12.7940   -1.9430    9.4350 H   0  0  0  0  0  0  0  0  0  0  0  0
   11.7570   -2.0590    8.0010 H   0  0  0  0  0  0  0  0  0  0  0  0
   10.1270   -1.6150    9.4290 H   0  0  0  0  0  0  0  0  0  0  0  0
    9.6460    0.6250    9.8570 H   0  0  0  0  0  0  0  0  0  0  0  0
   10.3120    0.4340    8.1370 H   0  0  0  0  0  0  0  0  0  0  0  0
   12.3120   -0.4420   11.0180 H   0  0  0  0  0  0  0  0  0  0  0  0
   10.5780   -0.2990   11.5160 H   0  0  0  0  0  0  0  0  0  0  0  0
   11.2980   -1.9320   11.3950 H   0  0  0  0  0  0  0  0  0  0  0  0
   16.3200    5.3780   15.5220 H   0  0  0  0  0  0  0  0  0  0  0  0
   15.3830    6.0520   14.1600 H   0  0  0  0  0  0  0  0  0  0  0  0
   16.1230    7.1920   15.3030 H   0  0  0  0  0  0  0  0  0  0  0  0
  2  1  1  0  0  0  0
  2  3  1  0  0  0  0
  3 25  1  0  0  0  0
  4  3  2  0  0  0  0
  4 23  1  0  0  0  0
  5  4  1  0  0  0  0
  6  7  1  0  0  0  0
  6  5  2  0  0  0  0
  7  2  2  0  0  0  0
  8 28  1  6  0  0  0
  8  9  1  0  0  0  0
  8  6  1  0  0  0  0
  9 29  1  0  0  0  0
 10 11  1  0  0  0  0
 10  9  1  0  0  0  0
 12 11  1  0  0  0  0
 13 14  1  0  0  0  0
 13 12  2  0  0  0  0
 14 10  2  0  0  0  0
 15 17  1  0  0  0  0
 15 14  1  0  0  0  0
 16 15  2  0  0  0  0
 17  8  1  0  0  0  0
 18 19  1  0  0  0  0
 18 13  1  0  0  0  0
 19 33  1  0  0  0  0
 19 20  1  0  0  0  0
 20 22  1  0  0  0  0
 21 20  1  0  0  0  0
 21 12  1  0  0  0  0
 21 36  1  0  0  0  0
 22 38  1  0  0  0  0
 22 40  1  0  0  0  0
 22 39  1  0  0  0  0
 23 24  1  0  0  0  0
 24 43  1  0  0  0  0
 24 41  1  0  0  0  0
 26  5  1  0  0  0  0
 27  7  1  0  0  0  0
 30 17  1  0  0  0  0
 31 18  1  0  0  0  0
 32 18  1  0  0  0  0
 34 19  1  0  0  0  0
 35 20  1  0  0  0  0
 37 21  1  0  0  0  0
 42 24  1  0  0  0  0
M  END
>  <Pose>
1

>  <Score>
-5.92

$$$$
