
 OpenBabel03172210413D

 38 41  0  0  1  0  0  0  0  0999 V2000
   18.9790    6.6210    9.8600 I   0  0  0  0  0  0  0  0  0  0  0  0
   19.2940    4.9460   11.1080 C   0  0  0  0  0  0  0  0  0  0  0  0
   18.2500    4.0130   11.2950 C   0  0  0  0  0  0  0  0  0  0  0  0
   18.4330    2.9260   12.1010 C   0  0  0  0  0  0  0  0  0  0  0  0
   19.6770    2.7780   12.7190 C   0  0  0  0  0  0  0  0  0  0  0  0
   20.7040    3.6650   12.5570 C   0  0  0  0  0  0  0  0  0  0  0  0
   20.5030    4.7700   11.7330 C   0  0  0  0  0  0  0  0  0  0  0  0
   17.0250    4.2240   10.6300 N   0  0  0  0  0  0  0  0  0  0  0  0
   16.1160    3.2580   10.1510 C   0  0  1  0  0  0  0  0  0  0  0  0
   16.3520    2.3620    9.1990 N   0  0  0  0  0  0  0  0  0  0  0  0
   15.4790    1.4450    8.7510 C   0  0  0  0  0  0  0  0  0  0  0  0
   15.4420    0.4590    7.8460 N   0  0  0  0  0  0  0  0  0  0  0  0
   14.2760   -0.1200    7.8520 O   0  0  0  0  0  0  0  0  0  0  0  0
   13.5140    0.4460    8.7430 N   0  0  0  0  0  0  0  0  0  0  0  0
   14.2080    1.4300    9.3350 C   0  0  0  0  0  0  0  0  0  0  0  0
   13.9180    2.2980   10.2880 N   0  0  0  0  0  0  0  0  0  0  0  0
   14.8210    3.1910   10.7000 C   0  0  0  0  0  0  0  0  0  0  0  0
   14.2360    3.9070   11.6470 N   0  0  0  0  0  0  0  0  0  0  0  0
   12.9780    3.4670   11.8260 N   0  0  0  0  0  0  0  0  0  0  0  0
   12.7540    2.4510   10.9800 C   0  0  0  0  0  0  0  0  0  0  0  0
   11.5240    1.6380   10.7880 C   0  0  0  0  0  0  0  0  0  0  0  0
   10.7750    1.9940    9.5590 C   0  0  0  0  0  0  0  0  0  0  0  0
   10.3280    3.1390    9.3410 O   0  0  0  0  0  0  0  0  0  0  0  0
   10.5570    1.0250    8.6200 O   0  0  0  0  0  0  0  0  0  0  0  0
    9.9870   -0.2120    8.8620 C   0  0  0  0  0  0  0  0  0  0  0  0
    9.9060   -1.1370    7.7090 C   0  0  0  0  0  0  0  0  0  0  0  0
   17.6930    2.1720   12.2950 H   0  0  0  0  0  0  0  0  0  0  0  0
   19.8380    1.9120   13.3670 H   0  0  0  0  0  0  0  0  0  0  0  0
   21.6530    3.5260   13.0480 H   0  0  0  0  0  0  0  0  0  0  0  0
   21.3210    5.4650   11.6130 H   0  0  0  0  0  0  0  0  0  0  0  0
   16.7690    5.2630   10.4790 H   0  0  0  0  0  0  0  0  0  0  0  0
   10.8800    1.6300   11.6860 H   0  0  0  0  0  0  0  0  0  0  0  0
   11.8300    0.5560   10.6370 H   0  0  0  0  0  0  0  0  0  0  0  0
   10.5690   -0.6720    9.7100 H   0  0  0  0  0  0  0  0  0  0  0  0
    8.9530   -0.0860    9.2950 H   0  0  0  0  0  0  0  0  0  0  0  0
   10.5270   -2.0500    7.9510 H   0  0  0  0  0  0  0  0  0  0  0  0
   10.3770   -0.7200    6.7890 H   0  0  0  0  0  0  0  0  0  0  0  0
    8.8680   -1.4510    7.5440 H   0  0  0  0  0  0  0  0  0  0  0  0
  1  2  1  0  0  0  0
  2  3  2  0  0  0  0
  2  7  1  0  0  0  0
  3  4  1  0  0  0  0
  4 27  1  0  0  0  0
  4  5  2  0  0  0  0
  5 28  1  0  0  0  0
  6  5  1  0  0  0  0
  6 29  1  0  0  0  0
  7  6  2  0  0  0  0
  8  3  1  0  0  0  0
  9  8  1  1  0  0  0
  9 17  1  0  0  0  0
 10  9  1  0  0  0  0
 11 10  2  0  0  0  0
 11 15  1  0  0  0  0
 12 13  1  0  0  0  0
 12 11  1  0  0  0  0
 13 14  1  0  0  0  0
 14 15  2  0  0  0  0
 15 16  1  0  0  0  0
 16 17  1  0  0  0  0
 16 20  1  0  0  0  0
 17 18  2  0  0  0  0
 18 19  1  0  0  0  0
 20 19  2  0  0  0  0
 21 20  1  0  0  0  0
 21 32  1  0  0  0  0
 22 21  1  0  0  0  0
 23 22  2  0  0  0  0
 24 25  1  0  0  0  0
 24 22  1  0  0  0  0
 25 35  1  0  0  0  0
 25 34  1  0  0  0  0
 26 36  1  0  0  0  0
 26 25  1  0  0  0  0
 30  7  1  0  0  0  0
 31  8  1  0  0  0  0
 33 21  1  0  0  0  0
 37 26  1  0  0  0  0
 38 26  1  0  0  0  0
M  END
>  <Pose>
1

>  <Score>
-7.27

$$$$
