
 OpenBabel03172210413D

 34 37  0  0  0  0  0  0  0  0999 V2000
   11.6620    4.2320   10.1490 I   0  0  0  0  0  0  0  0  0  0  0  0
   13.5020    4.5710   11.1400 C   0  0  0  0  0  0  0  0  0  0  0  0
   14.5210    3.6700   10.9080 C   0  0  0  0  0  0  0  0  0  0  0  0
   15.7120    3.9080   11.5630 C   0  0  0  0  0  0  0  0  0  0  0  0
   15.8670    4.9960   12.4060 C   0  0  0  0  0  0  0  0  0  0  0  0
   14.8410    5.8890   12.6300 C   0  0  0  0  0  0  0  0  0  0  0  0
   13.6470    5.6580   11.9780 C   0  0  0  0  0  0  0  0  0  0  0  0
   14.3470    2.5530   10.0360 N   0  0  0  0  0  0  0  0  0  0  0  0
   13.2950    1.7220    9.9310 C   0  0  0  0  0  0  0  0  0  0  0  0
   12.2330    1.7970   10.6190 O   0  0  0  0  0  0  0  0  0  0  0  0
   13.5070    0.7590    8.9660 C   0  0  0  0  0  0  0  0  0  0  0  0
   14.7100    1.0080    8.4760 C   0  0  0  0  0  0  0  0  0  0  0  0
   14.9040    0.0570    7.5320 N   0  0  0  0  0  0  0  0  0  0  0  0
   13.8540   -0.7400    7.4530 N   0  0  0  0  0  0  0  0  0  0  0  0
   12.9780   -0.3240    8.3320 N   0  0  0  0  0  0  0  0  0  0  0  0
   11.6940   -0.8610    8.6180 C   0  0  0  0  0  0  0  0  0  0  0  0
   10.6000   -0.6100    7.8190 C   0  0  0  0  0  0  0  0  0  0  0  0
    9.3610   -1.1490    8.1250 C   0  0  0  0  0  0  0  0  0  0  0  0
    9.1690   -1.9510    9.2300 C   0  0  0  0  0  0  0  0  0  0  0  0
   10.2620   -2.2040   10.0310 C   0  0  0  0  0  0  0  0  0  0  0  0
   11.4940   -1.6740    9.7350 C   0  0  0  0  0  0  0  0  0  0  0  0
   15.2370    2.1120    9.1280 C   0  0  0  0  0  0  0  0  0  0  0  0
   16.3840    2.6100    8.8880 O   0  0  0  0  0  0  0  0  0  0  0  0
   16.5150    3.2060   11.3860 H   0  0  0  0  0  0  0  0  0  0  0  0
   16.8080    5.1630   12.9090 H   0  0  0  0  0  0  0  0  0  0  0  0
   14.9940    6.7300   13.2940 H   0  0  0  0  0  0  0  0  0  0  0  0
   12.8380    6.3690   12.1590 H   0  0  0  0  0  0  0  0  0  0  0  0
   15.7530   -0.0510    6.9380 H   0  0  0  0  0  0  0  0  0  0  0  0
   13.7420   -1.5510    6.8130 H   0  0  0  0  0  0  0  0  0  0  0  0
   10.7240    0.0170    6.9440 H   0  0  0  0  0  0  0  0  0  0  0  0
    8.5270   -0.9290    7.4750 H   0  0  0  0  0  0  0  0  0  0  0  0
    8.1820   -2.3580    9.4410 H   0  0  0  0  0  0  0  0  0  0  0  0
   10.1070   -2.8370   10.9010 H   0  0  0  0  0  0  0  0  0  0  0  0
   12.3590   -1.8560   10.3430 H   0  0  0  0  0  0  0  0  0  0  0  0
  1  2  1  0  0  0  0
  2  7  1  0  0  0  0
  3  2  2  0  0  0  0
  3  4  1  0  0  0  0
  4  5  2  0  0  0  0
  5  6  1  0  0  0  0
  5 25  1  0  0  0  0
  6 26  1  0  0  0  0
  7 27  1  0  0  0  0
  7  6  2  0  0  0  0
  8  3  1  0  0  0  0
  9  8  1  0  0  0  0
  9 10  2  0  0  0  0
 11  9  1  0  0  0  0
 12 11  2  0  0  0  0
 12 22  1  0  0  0  0
 13 12  1  0  0  0  0
 14 13  1  0  0  0  0
 14 15  1  0  0  0  0
 15 16  1  0  0  0  0
 15 11  1  0  0  0  0
 16 21  1  0  0  0  0
 17 18  1  0  0  0  0
 17 16  2  0  0  0  0
 18 19  2  0  0  0  0
 19 32  1  0  0  0  0
 19 20  1  0  0  0  0
 20 33  1  0  0  0  0
 21 20  2  0  0  0  0
 21 34  1  0  0  0  0
 22  8  1  0  0  0  0
 23 22  2  0  0  0  0
 24  4  1  0  0  0  0
 28 13  1  0  0  0  0
 29 14  1  0  0  0  0
 30 17  1  0  0  0  0
 31 18  1  0  0  0  0
M  END
>  <Pose>
1

>  <Score>
-6.18

$$$$
