
 OpenBabel03172210413D

 40 43  0  0  1  0  0  0  0  0999 V2000
    9.5080   -1.1460    8.0230 I   0  0  0  0  0  0  0  0  0  0  0  0
   11.3340   -0.2040    8.3590 C   0  0  0  0  0  0  0  0  0  0  0  0
   11.5330    0.7980    9.2890 C   0  0  0  0  0  0  0  0  0  0  0  0
   12.7480    1.3970    9.4860 C   0  0  0  0  0  0  0  0  0  0  0  0
   13.8420    1.0300    8.7630 C   0  0  0  0  0  0  0  0  0  0  0  0
   13.6610    0.0200    7.8190 C   0  0  0  0  0  0  0  0  0  0  0  0
   12.4590   -0.5740    7.6220 C   0  0  0  0  0  0  0  0  0  0  0  0
   15.1370    1.6250    8.9550 C   0  0  2  0  0  0  0  0  0  0  0  0
   15.8160    1.7840    7.8510 O   0  0  0  0  0  0  0  0  0  0  0  0
   15.8490    2.0860   10.1180 C   0  0  0  0  0  0  0  0  0  0  0  0
   15.4620    3.2540   10.8160 N   0  0  0  0  0  0  0  0  0  0  0  0
   14.2740    3.7720   10.8190 C   0  0  1  0  0  0  0  0  0  0  0  0
   12.6320    3.5040   10.1320 S   0  0  0  0  0  0  0  0  0  0  0  0
   11.9350    4.9350   10.9240 C   0  0  0  0  0  0  0  0  0  0  0  0
   12.8730    5.5290   11.6280 C   0  0  0  0  0  0  0  0  0  0  0  0
   14.1540    4.9260   11.5960 N   0  0  0  0  0  0  0  0  0  0  0  0
   15.4970    5.1680   12.1850 C   0  0  0  0  0  0  0  0  0  0  0  0
   16.3340    4.0840   11.6000 C   0  0  0  0  0  0  0  0  0  0  0  0
   12.5040    6.7670   12.3760 C   0  0  0  0  0  0  0  0  0  0  0  0
   13.4460    7.6380   12.8580 C   0  0  0  0  0  0  0  0  0  0  0  0
   13.0930    8.8110   13.5560 C   0  0  0  0  0  0  0  0  0  0  0  0
   11.7690    9.1130   13.7740 C   0  0  0  0  0  0  0  0  0  0  0  0
   10.8220    8.2440   13.2930 C   0  0  0  0  0  0  0  0  0  0  0  0
   11.1790    7.0910   12.6060 C   0  0  0  0  0  0  0  0  0  0  0  0
   10.6560    1.0980    9.8740 H   0  0  0  0  0  0  0  0  0  0  0  0
   12.7910    2.1640   10.2170 H   0  0  0  0  0  0  0  0  0  0  0  0
   14.5070   -0.2850    7.2400 H   0  0  0  0  0  0  0  0  0  0  0  0
   12.3020   -1.3740    6.8790 H   0  0  0  0  0  0  0  0  0  0  0  0
   15.9390    1.2580   10.9130 H   0  0  0  0  0  0  0  0  0  0  0  0
   16.9450    2.1770    9.8050 H   0  0  0  0  0  0  0  0  0  0  0  0
   10.8850    5.1760   10.7730 H   0  0  0  0  0  0  0  0  0  0  0  0
   15.4910    5.0680   13.2790 H   0  0  0  0  0  0  0  0  0  0  0  0
   15.9240    6.1310   11.8360 H   0  0  0  0  0  0  0  0  0  0  0  0
   16.8240    3.5170   12.4190 H   0  0  0  0  0  0  0  0  0  0  0  0
   17.1520    4.4930   10.9340 H   0  0  0  0  0  0  0  0  0  0  0  0
   14.4840    7.4230   12.7030 H   0  0  0  0  0  0  0  0  0  0  0  0
   13.8650    9.4460   13.9030 H   0  0  0  0  0  0  0  0  0  0  0  0
   11.4360    9.9940   14.2990 H   0  0  0  0  0  0  0  0  0  0  0  0
    9.7820    8.4690   13.4570 H   0  0  0  0  0  0  0  0  0  0  0  0
   10.3770    6.4480   12.2540 H   0  0  0  0  0  0  0  0  0  0  0  0
  1  2  1  0  0  0  0
  2  3  1  0  0  0  0
  3  4  2  0  0  0  0
  3 25  1  0  0  0  0
  4 26  1  0  0  0  0
  5  8  1  0  0  0  0
  5  4  1  0  0  0  0
  6  5  2  0  0  0  0
  7  6  1  0  0  0  0
  7  2  2  0  0  0  0
  8  9  1  1  0  0  0
  8 10  1  0  0  0  0
 10 11  1  0  0  0  0
 10 29  1  0  0  0  0
 11 12  1  0  0  0  0
 11 18  1  0  0  0  0
 12 13  1  1  0  0  0
 12 16  1  0  0  0  0
 13 14  1  0  0  0  0
 14 15  2  0  0  0  0
 15 19  1  0  0  0  0
 16 15  1  0  0  0  0
 16 17  1  0  0  0  0
 17 32  1  0  0  0  0
 18 17  1  0  0  0  0
 18 34  1  0  0  0  0
 19 24  2  0  0  0  0
 19 20  1  0  0  0  0
 20 21  2  0  0  0  0
 21 22  1  0  0  0  0
 21 37  1  0  0  0  0
 22 38  1  0  0  0  0
 23 39  1  0  0  0  0
 23 22  2  0  0  0  0
 24 23  1  0  0  0  0
 27  6  1  0  0  0  0
 28  7  1  0  0  0  0
 30 10  1  0  0  0  0
 31 14  1  0  0  0  0
 33 17  1  0  0  0  0
 35 18  1  0  0  0  0
 36 20  1  0  0  0  0
 40 24  1  0  0  0  0
M  END
>  <Pose>
1

>  <Score>
-5.90

$$$$
