
 OpenBabel03172210413D

 50 53  0  0  0  0  0  0  0  0999 V2000
    5.0760   10.0570   14.7520 I   0  0  0  0  0  0  0  0  0  0  0  0
    5.8950    8.5230   13.5880 C   0  0  0  0  0  0  0  0  0  0  0  0
    7.0040    7.8280   13.9600 C   0  0  0  0  0  0  0  0  0  0  0  0
    7.5030    6.8110   13.1330 C   0  0  0  0  0  0  0  0  0  0  0  0
    6.9280    6.4660   11.9460 C   0  0  0  0  0  0  0  0  0  0  0  0
    5.7860    7.2000   11.5870 C   0  0  0  0  0  0  0  0  0  0  0  0
    5.2940    8.1970   12.3930 C   0  0  0  0  0  0  0  0  0  0  0  0
    7.3560    5.4470   11.0280 C   0  0  0  0  0  0  0  0  0  0  0  0
    8.5070    5.2610   10.5510 N   0  0  0  0  0  0  0  0  0  0  0  0
    9.5870    6.0270   10.8400 N   0  0  0  0  0  0  0  0  0  0  0  0
   10.9020    5.4220   10.8590 C   0  0  0  0  0  0  0  0  0  0  0  0
   11.0920    4.2030   10.3260 N   0  0  0  0  0  4  0  0  0  0  0  0
   12.2990    3.6230   10.3340 C   0  0  0  0  0  0  0  0  0  0  0  0
   13.3010    4.3190   10.8970 N   0  0  0  0  0  0  0  0  0  0  0  0
   13.1490    5.5430   11.4410 C   0  0  0  0  0  0  0  0  0  0  0  0
   11.9200    6.0900   11.4140 N   0  0  0  0  0  0  0  0  0  0  0  0
   14.2630    6.2110   12.0160 N   0  0  0  0  0  0  0  0  0  0  0  0
   14.5460    7.5780   11.6450 C   0  0  0  0  0  0  0  0  0  0  0  0
   16.0770    7.6910   11.6460 C   0  0  0  0  0  0  0  0  0  0  0  0
   16.5000    7.5300   12.9400 O   0  0  0  0  0  0  0  0  0  0  0  0
   16.2230    6.3270   13.5260 C   0  0  0  0  0  0  0  0  0  0  0  0
   15.0990    5.5420   12.9520 C   0  0  0  0  0  0  0  0  0  0  0  0
   12.5260    2.3300    9.7730 N   0  0  0  0  0  0  0  0  0  0  0  0
   13.6200    2.0340    8.8980 C   0  0  0  0  0  0  0  0  0  0  0  0
   13.4180    0.6120    8.3710 C   0  0  0  0  0  0  0  0  0  0  0  0
   12.1330    0.4240    7.8890 O   0  0  0  0  0  0  0  0  0  0  0  0
   11.1660    0.5150    8.8600 C   0  0  0  0  0  0  0  0  0  0  0  0
   11.6080    1.2510   10.0990 C   0  0  0  0  0  0  0  0  0  0  0  0
    7.4810    8.0770   14.8950 H   0  0  0  0  0  0  0  0  0  0  0  0
    8.3640    6.3310   13.5100 H   0  0  0  0  0  0  0  0  0  0  0  0
    5.2760    6.9870   10.6620 H   0  0  0  0  0  0  0  0  0  0  0  0
    4.4060    8.7160   12.0410 H   0  0  0  0  0  0  0  0  0  0  0  0
    6.6000    4.7020   10.6640 H   0  0  0  0  0  0  0  0  0  0  0  0
    9.4790    7.0400   11.0670 H   0  0  0  0  0  0  0  0  0  0  0  0
   14.1190    8.2620   12.3910 H   0  0  0  0  0  0  0  0  0  0  0  0
   14.2090    7.8080   10.6120 H   0  0  0  0  0  0  0  0  0  0  0  0
   16.4660    6.9570   10.9380 H   0  0  0  0  0  0  0  0  0  0  0  0
   16.3100    8.7170   11.3280 H   0  0  0  0  0  0  0  0  0  0  0  0
   17.1610    5.7060   13.6480 H   0  0  0  0  0  0  0  0  0  0  0  0
   15.9400    6.5560   14.5970 H   0  0  0  0  0  0  0  0  0  0  0  0
   14.4250    5.1050   13.7460 H   0  0  0  0  0  0  0  0  0  0  0  0
   15.5550    4.6230   12.4770 H   0  0  0  0  0  0  0  0  0  0  0  0
   13.7620    2.7460    8.0790 H   0  0  0  0  0  0  0  0  0  0  0  0
   14.5470    2.0050    9.5240 H   0  0  0  0  0  0  0  0  0  0  0  0
   13.6750   -0.0920    9.2060 H   0  0  0  0  0  0  0  0  0  0  0  0
   14.1220    0.4100    7.5390 H   0  0  0  0  0  0  0  0  0  0  0  0
   10.8060   -0.4930    9.2050 H   0  0  0  0  0  0  0  0  0  0  0  0
   10.3020    1.0850    8.4230 H   0  0  0  0  0  0  0  0  0  0  0  0
   12.1010    0.5280   10.7840 H   0  0  0  0  0  0  0  0  0  0  0  0
   10.6750    1.6510   10.5750 H   0  0  0  0  0  0  0  0  0  0  0  0
  2  3  1  0  0  0  0
  2  1  1  0  0  0  0
  3 29  1  0  0  0  0
  4 30  1  0  0  0  0
  4  3  2  0  0  0  0
  5  4  1  0  0  0  0
  6  5  2  0  0  0  0
  6  7  1  0  0  0  0
  7  2  2  0  0  0  0
  8  5  1  0  0  0  0
  9 10  1  0  0  0  0
  9  8  2  0  0  0  0
 10 11  1  0  0  0  0
 10 34  1  0  0  0  0
 11 16  1  0  0  0  0
 12 13  2  0  0  0  0
 12 11  2  0  0  0  0
 13 14  1  0  0  0  0
 14 15  2  0  0  0  0
 15 17  1  0  0  0  0
 16 15  1  0  0  0  0
 17 22  1  0  0  0  0
 18 19  1  0  0  0  0
 18 17  1  0  0  0  0
 18 35  1  0  0  0  0
 19 20  1  0  0  0  0
 20 21  1  0  0  0  0
 21 39  1  0  0  0  0
 21 40  1  0  0  0  0
 22 21  1  0  0  0  0
 22 41  1  0  0  0  0
 23 28  1  0  0  0  0
 23 13  1  0  0  0  0
 24 44  1  0  0  0  0
 24 23  1  0  0  0  0
 25 24  1  0  0  0  0
 25 45  1  0  0  0  0
 26 25  1  0  0  0  0
 26 27  1  0  0  0  0
 27 47  1  0  0  0  0
 27 28  1  0  0  0  0
 28 50  1  0  0  0  0
 28 49  1  0  0  0  0
 31  6  1  0  0  0  0
 32  7  1  0  0  0  0
 33  8  1  0  0  0  0
 36 18  1  0  0  0  0
 37 19  1  0  0  0  0
 38 19  1  0  0  0  0
 42 22  1  0  0  0  0
 43 24  1  0  0  0  0
 46 25  1  0  0  0  0
 48 27  1  0  0  0  0
M  END
>  <Pose>
1

>  <Score>
-6.27

$$$$
