
 OpenBabel03172210413D

 52 56  0  0  1  0  0  0  0  0999 V2000
   11.1380   -0.8350    8.6290 I   0  0  0  0  0  0  0  0  0  0  0  0
   11.5050    1.0850    9.3950 C   0  0  0  0  0  0  0  0  0  0  0  0
   12.7930    1.6080    9.3730 C   0  0  0  0  0  0  0  0  0  0  0  0
   13.0400    2.8550    9.8690 C   0  0  0  0  0  0  0  0  0  0  0  0
   12.0460    3.6530   10.4110 C   0  0  0  0  0  0  0  0  0  0  0  0
   10.7550    3.1360   10.4360 C   0  0  0  0  0  0  0  0  0  0  0  0
   10.5160    1.8740    9.9330 C   0  0  0  0  0  0  0  0  0  0  0  0
   12.3060    4.9500   10.9260 N   0  0  0  0  0  0  0  0  0  0  0  0
   12.9480    5.1260   12.0940 C   0  0  0  0  0  0  0  0  0  0  0  0
   13.2110    6.3750   12.6120 C   0  0  2  0  0  0  0  0  0  0  0  0
   12.7740    7.4460   11.8580 C   0  0  0  0  0  0  0  0  0  0  0  0
   12.9380    8.6570   12.1950 O   0  0  0  0  0  0  0  0  0  0  0  0
   12.1190    7.2800   10.6670 N   0  0  0  0  0  0  0  0  0  0  0  0
   11.9030    6.0270   10.2320 C   0  0  0  0  0  0  0  0  0  0  0  0
   11.3060    5.8250    9.1440 O   0  0  0  0  0  0  0  0  0  0  0  0
   13.9110    6.6450   13.8540 C   0  0  1  0  0  0  0  0  0  0  0  0
   14.8430    5.6650   14.3120 N   0  0  0  0  0  4  0  0  0  0  0  0
   15.9780    5.4690   13.4530 C   0  0  0  0  0  0  0  0  0  0  0  0
   16.0880    6.5100   12.3580 C   0  0  0  0  0  0  0  0  0  0  0  0
   15.8300    7.8680   12.9660 C   0  0  0  0  0  0  0  0  0  0  0  0
   14.7100    7.9190   13.7560 C   0  0  0  0  0  0  0  0  0  0  0  0
   14.3660    9.0810   14.4030 C   0  0  0  0  0  0  0  0  0  0  0  0
   15.1930   10.1800   14.2200 C   0  0  0  0  0  0  0  0  0  0  0  0
   16.3220   10.1460   13.4280 C   0  0  0  0  0  0  0  0  0  0  0  0
   16.6340    8.9460   12.7900 C   0  0  0  0  0  0  0  0  0  0  0  0
   16.9180   11.3970   13.4570 O   0  0  0  0  0  0  0  0  0  0  0  0
   15.9740   12.3510   13.9700 C   0  0  0  0  0  0  0  0  0  0  0  0
   15.1370   11.4900   14.7210 O   0  0  0  0  0  0  0  0  0  0  0  0
   13.2500    9.1220   15.1900 O   0  0  0  0  0  0  0  0  0  0  0  0
   12.0800    9.8390   14.9540 C   0  0  0  0  0  0  0  0  0  0  0  0
   15.4080    6.2270   15.5670 C   0  0  0  0  0  0  0  0  0  0  0  0
   13.3630    4.0360   12.8140 O   0  0  0  0  0  0  0  0  0  0  0  0
   13.5730    0.9940    8.9540 H   0  0  0  0  0  0  0  0  0  0  0  0
   14.0450    3.2540    9.8480 H   0  0  0  0  0  0  0  0  0  0  0  0
    9.9780    3.7660   10.8630 H   0  0  0  0  0  0  0  0  0  0  0  0
    9.5220    1.4760    9.9520 H   0  0  0  0  0  0  0  0  0  0  0  0
   11.7930    8.0880   10.1040 H   0  0  0  0  0  0  0  0  0  0  0  0
   13.1590    6.8270   14.6420 H   0  0  0  0  0  0  0  0  0  0  0  0
   14.4470    4.7730   14.6540 H   0  0  0  0  0  0  0  0  0  0  0  0
   15.9550    4.4800   12.9690 H   0  0  0  0  0  0  0  0  0  0  0  0
   16.9610    5.5060   14.0000 H   0  0  0  0  0  0  0  0  0  0  0  0
   15.4660    6.3150   11.4780 H   0  0  0  0  0  0  0  0  0  0  0  0
   17.1400    6.5460   12.0060 H   0  0  0  0  0  0  0  0  0  0  0  0
   17.4980    8.8640   12.1640 H   0  0  0  0  0  0  0  0  0  0  0  0
   15.3590   12.7270   13.1200 H   0  0  0  0  0  0  0  0  0  0  0  0
   16.4500   13.1330   14.5590 H   0  0  0  0  0  0  0  0  0  0  0  0
   11.9580   10.5730   15.7990 H   0  0  0  0  0  0  0  0  0  0  0  0
   12.0460   10.3640   13.9850 H   0  0  0  0  0  0  0  0  0  0  0  0
   11.1560    9.2020   15.0100 H   0  0  0  0  0  0  0  0  0  0  0  0
   14.6220    6.3420   16.3120 H   0  0  0  0  0  0  0  0  0  0  0  0
   15.9570    7.1410   15.3040 H   0  0  0  0  0  0  0  0  0  0  0  0
   16.1810    5.5040   15.9420 H   0  0  0  0  0  0  0  0  0  0  0  0
  1  2  1  0  0  0  0
  2  7  1  0  0  0  0
  3  2  2  0  0  0  0
  3  4  1  0  0  0  0
  4  5  2  0  0  0  0
  5  6  1  0  0  0  0
  5  8  1  0  0  0  0
  6 35  1  0  0  0  0
  7 36  1  0  0  0  0
  7  6  2  0  0  0  0
  8  9  1  0  0  0  0
  9 10  1  0  0  0  0
  9 32  2  0  0  0  0
 10 11  1  6  0  0  0
 10 16  1  0  0  0  0
 11 12  2  0  0  0  0
 13 11  1  0  0  0  0
 14 13  1  0  0  0  0
 14  8  1  0  0  0  0
 15 14  2  0  0  0  0
 16 17  1  0  0  0  0
 16 38  1  1  0  0  0
 17 39  1  0  0  0  0
 17 31  1  0  0  0  0
 18 41  1  0  0  0  0
 18 17  1  0  0  0  0
 19 20  1  0  0  0  0
 19 18  1  0  0  0  0
 20 21  1  0  0  0  0
 21 16  1  0  0  0  0
 21 22  2  0  0  0  0
 22 29  1  0  0  0  0
 23 22  1  0  0  0  0
 23 28  1  0  0  0  0
 24 26  1  0  0  0  0
 24 23  2  0  0  0  0
 25 20  2  0  0  0  0
 25 24  1  0  0  0  0
 26 27  1  0  0  0  0
 27 46  1  0  0  0  0
 27 28  1  0  0  0  0
 30 49  1  0  0  0  0
 30 29  1  0  0  0  0
 30 47  1  0  0  0  0
 31 52  1  0  0  0  0
 31 50  1  0  0  0  0
 33  3  1  0  0  0  0
 34  4  1  0  0  0  0
 37 13  1  0  0  0  0
 40 18  1  0  0  0  0
 42 19  1  0  0  0  0
 43 19  1  0  0  0  0
 44 25  1  0  0  0  0
 45 27  1  0  0  0  0
 48 30  1  0  0  0  0
 51 31  1  0  0  0  0
M  END
>  <Pose>
1

>  <Score>
-6.62

$$$$
