
 OpenBabel03172210413D

 44 47  0  0  1  0  0  0  0  0999 V2000
    3.5140    8.8410   13.2330 I   0  0  0  0  0  0  0  0  0  0  0  0
    5.5190    8.2250   12.9820 C   0  0  0  0  0  0  0  0  0  0  0  0
    6.4320    8.9730   12.2690 C   0  0  0  0  0  0  0  0  0  0  0  0
    7.7360    8.5460   12.1210 C   0  0  0  0  0  0  0  0  0  0  0  0
    8.1780    7.3620   12.6740 C   0  0  0  0  0  0  0  0  0  0  0  0
    7.2520    6.6320   13.3800 C   0  0  0  0  0  0  0  0  0  0  0  0
    5.9430    7.0390   13.5420 C   0  0  0  0  0  0  0  0  0  0  0  0
    9.5490    6.9610   12.4920 N   0  0  0  0  0  0  0  0  0  0  0  0
   10.2530    6.7650   11.2770 C   0  0  0  0  0  0  0  0  0  0  0  0
    9.9100    7.2800   10.1810 O   0  0  0  0  0  0  0  0  0  0  0  0
   11.4270    5.8800   11.5150 C   0  0  1  0  0  0  0  0  0  0  0  0
   11.7520    6.1950   12.9660 C   0  0  0  0  0  0  0  0  0  0  0  0
   10.4790    6.6780   13.5350 C   0  0  0  0  0  0  0  0  0  0  0  0
   10.2160    6.8320   14.7640 O   0  0  0  0  0  0  0  0  0  0  0  0
   11.0300    4.5500   11.3000 N   0  0  0  0  0  0  0  0  0  0  0  0
   10.5920    4.1180   10.0490 C   0  0  0  0  0  0  0  0  0  0  0  0
   10.8670    2.5930    9.9740 C   0  0  0  0  0  0  0  0  0  0  0  0
   12.2440    2.3660   10.3870 N   0  0  0  0  0  0  0  0  0  0  0  0
   12.5890    2.7790   11.7250 C   0  0  0  0  0  0  0  0  0  0  0  0
   11.4190    3.5990   12.2610 C   0  0  0  0  0  0  0  0  0  0  0  0
   13.1830    1.7780    9.5150 C   0  0  0  0  0  0  0  0  0  0  0  0
   14.3610    2.4010    9.2410 N   0  0  0  0  0  0  0  0  0  0  0  0
   15.2900    1.8930    8.4340 C   0  0  0  0  0  0  0  0  0  0  0  0
   15.0840    0.6650    7.8190 C   0  0  0  0  0  0  0  0  0  0  0  0
   13.8830    0.0370    8.1010 C   0  0  0  0  0  0  0  0  0  0  0  0
   12.9760    0.5850    8.9210 N   0  0  0  0  0  0  0  0  0  0  0  0
    6.1060    9.8970   11.8330 H   0  0  0  0  0  0  0  0  0  0  0  0
    8.4630    9.1360   11.5540 H   0  0  0  0  0  0  0  0  0  0  0  0
    7.5760    5.6990   13.8220 H   0  0  0  0  0  0  0  0  0  0  0  0
    5.2210    6.4450   14.1060 H   0  0  0  0  0  0  0  0  0  0  0  0
   12.2960    6.2090   10.9200 H   0  0  0  0  0  0  0  0  0  0  0  0
   12.0810    5.3090   13.5370 H   0  0  0  0  0  0  0  0  0  0  0  0
   12.4880    7.0240   13.0270 H   0  0  0  0  0  0  0  0  0  0  0  0
    9.5500    4.2790    9.7700 H   0  0  0  0  0  0  0  0  0  0  0  0
   11.2990    4.5200    9.2620 H   0  0  0  0  0  0  0  0  0  0  0  0
   10.7520    2.2170    8.9400 H   0  0  0  0  0  0  0  0  0  0  0  0
   10.1400    2.0370   10.6040 H   0  0  0  0  0  0  0  0  0  0  0  0
   12.6720    1.9110   12.4200 H   0  0  0  0  0  0  0  0  0  0  0  0
   13.5100    3.3850   11.7780 H   0  0  0  0  0  0  0  0  0  0  0  0
   11.6900    4.0730   13.2330 H   0  0  0  0  0  0  0  0  0  0  0  0
   10.6030    2.8720   12.5300 H   0  0  0  0  0  0  0  0  0  0  0  0
   16.2170    2.4080    8.2340 H   0  0  0  0  0  0  0  0  0  0  0  0
   15.8340    0.2490    7.1630 H   0  0  0  0  0  0  0  0  0  0  0  0
   13.7210   -0.9250    7.6190 H   0  0  0  0  0  0  0  0  0  0  0  0
  2  1  1  0  0  0  0
  2  7  1  0  0  0  0
  3  2  2  0  0  0  0
  4  3  1  0  0  0  0
  4  5  2  0  0  0  0
  5  6  1  0  0  0  0
  6  7  2  0  0  0  0
  6 29  1  0  0  0  0
  7 30  1  0  0  0  0
  8  5  1  0  0  0  0
  8 13  1  0  0  0  0
  9 11  1  0  0  0  0
  9  8  1  0  0  0  0
 10  9  2  0  0  0  0
 11 31  1  6  0  0  0
 11 12  1  0  0  0  0
 12 33  1  0  0  0  0
 12 13  1  0  0  0  0
 12 32  1  0  0  0  0
 13 14  2  0  0  0  0
 15 11  1  0  0  0  0
 15 20  1  0  0  0  0
 16 15  1  0  0  0  0
 17 16  1  0  0  0  0
 17 18  1  0  0  0  0
 17 37  1  0  0  0  0
 18 19  1  0  0  0  0
 19 39  1  0  0  0  0
 19 20  1  0  0  0  0
 19 38  1  0  0  0  0
 20 41  1  0  0  0  0
 20 40  1  0  0  0  0
 21 18  1  0  0  0  0
 22 21  2  0  0  0  0
 23 22  1  0  0  0  0
 24 25  1  0  0  0  0
 24 23  2  0  0  0  0
 25 26  2  0  0  0  0
 26 21  1  0  0  0  0
 27  3  1  0  0  0  0
 28  4  1  0  0  0  0
 34 16  1  0  0  0  0
 35 16  1  0  0  0  0
 36 17  1  0  0  0  0
 42 23  1  0  0  0  0
 43 24  1  0  0  0  0
 44 25  1  0  0  0  0
M  END
>  <Pose>
1

>  <Score>
-6.20

$$$$
