
 OpenBabel03172210413D

 40 43  0  0  0  0  0  0  0  0999 V2000
   14.5780    1.8640    9.6050 I   0  0  0  0  0  0  0  0  0  0  0  0
   12.5330    1.4600    9.6230 C   0  0  0  0  0  0  0  0  0  0  0  0
   11.9220    0.4760    8.8470 C   0  0  0  0  0  0  0  0  0  0  0  0
   10.6100    0.5010    9.0900 N   0  0  0  0  0  0  0  0  0  0  0  0
   10.3930    1.4420    9.9660 N   0  0  0  0  0  0  0  0  0  0  0  0
   11.5590    2.0720   10.3340 C   0  0  0  0  0  0  0  0  0  0  0  0
   11.5910    3.1580   11.3310 C   0  0  0  0  0  0  0  0  0  0  0  0
   11.5930    2.7780   12.5530 O   0  0  0  0  0  0  0  0  0  0  0  0
   11.6210    4.5120   11.0290 N   0  0  0  0  0  0  0  0  0  0  0  0
   10.8970    5.5470   11.6660 C   0  0  0  0  0  0  0  0  0  0  0  0
    9.5270    5.6260   11.4020 C   0  0  0  0  0  0  0  0  0  0  0  0
    8.7250    4.8770   10.6240 N   0  0  0  0  0  0  0  0  0  0  0  0
    7.5160    5.3490   10.7060 O   0  0  0  0  0  0  0  0  0  0  0  0
    7.4840    6.3730   11.5000 N   0  0  0  0  0  0  0  0  0  0  0  0
    8.7300    6.5880   11.9650 C   0  0  0  0  0  0  0  0  0  0  0  0
    9.2780    7.5170   12.8230 C   0  0  0  0  0  0  0  0  0  0  0  0
   10.6240    7.4300   13.0760 C   0  0  0  0  0  0  0  0  0  0  0  0
   11.4470    6.4510   12.5040 C   0  0  0  0  0  0  0  0  0  0  0  0
    8.4380    8.5040   13.3950 N   0  0  0  0  0  0  0  0  0  0  0  0
    8.4820    8.7770   14.8170 C   0  0  0  0  0  0  0  0  0  0  0  0
    7.5620    9.9070   15.1230 C   0  0  0  0  0  0  0  0  0  0  0  0
    7.7150   11.0040   14.2980 O   0  0  0  0  0  0  0  0  0  0  0  0
    7.5760   10.7530   12.9700 C   0  0  0  0  0  0  0  0  0  0  0  0
    7.5010    9.2890   12.6160 C   0  0  0  0  0  0  0  0  0  0  0  0
    9.6240   -0.3880    8.4620 C   0  0  0  0  0  0  0  0  0  0  0  0
   12.4030   -0.2100    8.1540 H   0  0  0  0  0  0  0  0  0  0  0  0
   12.2790    4.7810   10.2310 H   0  0  0  0  0  0  0  0  0  0  0  0
   11.0510    8.1590   13.7480 H   0  0  0  0  0  0  0  0  0  0  0  0
   12.4950    6.4830   12.7800 H   0  0  0  0  0  0  0  0  0  0  0  0
    9.5350    9.0310   15.0560 H   0  0  0  0  0  0  0  0  0  0  0  0
    8.1340    7.8910   15.4060 H   0  0  0  0  0  0  0  0  0  0  0  0
    7.6900   10.1780   16.1900 H   0  0  0  0  0  0  0  0  0  0  0  0
    6.5110    9.5350   14.9830 H   0  0  0  0  0  0  0  0  0  0  0  0
    6.6370   11.2250   12.6130 H   0  0  0  0  0  0  0  0  0  0  0  0
    8.4010   11.2370   12.3820 H   0  0  0  0  0  0  0  0  0  0  0  0
    7.8050    9.1920   11.5530 H   0  0  0  0  0  0  0  0  0  0  0  0
    6.4750    8.8860   12.7030 H   0  0  0  0  0  0  0  0  0  0  0  0
   10.1340   -1.3280    8.2250 H   0  0  0  0  0  0  0  0  0  0  0  0
    8.8550   -0.5970    9.2420 H   0  0  0  0  0  0  0  0  0  0  0  0
    9.2110    0.1080    7.5700 H   0  0  0  0  0  0  0  0  0  0  0  0
  1  2  1  0  0  0  0
  2  6  1  0  0  0  0
  3  4  1  0  0  0  0
  3  2  2  0  0  0  0
  4  5  1  0  0  0  0
  5  6  2  0  0  0  0
  6  7  1  0  0  0  0
  7  8  2  0  0  0  0
  9  7  1  0  0  0  0
  9 10  1  0  0  0  0
 10 18  2  0  0  0  0
 11 10  1  0  0  0  0
 11 15  1  0  0  0  0
 12 13  1  0  0  0  0
 12 11  2  0  0  0  0
 13 14  1  0  0  0  0
 14 15  2  0  0  0  0
 15 16  1  0  0  0  0
 16 17  2  0  0  0  0
 16 19  1  0  0  0  0
 17 28  1  0  0  0  0
 18 29  1  0  0  0  0
 18 17  1  0  0  0  0
 19 20  1  0  0  0  0
 20 30  1  0  0  0  0
 20 21  1  0  0  0  0
 20 31  1  0  0  0  0
 21 32  1  0  0  0  0
 22 21  1  0  0  0  0
 23 22  1  0  0  0  0
 24 37  1  0  0  0  0
 24 23  1  0  0  0  0
 24 19  1  0  0  0  0
 25  4  1  0  0  0  0
 25 39  1  0  0  0  0
 26  3  1  0  0  0  0
 27  9  1  0  0  0  0
 33 21  1  0  0  0  0
 34 23  1  0  0  0  0
 35 23  1  0  0  0  0
 36 24  1  0  0  0  0
 38 25  1  0  0  0  0
 40 25  1  0  0  0  0
M  END
>  <Pose>
1

>  <Score>
-6.05

$$$$
