
 OpenBabel03172210413D

 44 47  0  0  1  0  0  0  0  0999 V2000
   10.9290    5.3660   12.3480 I   0  0  0  0  0  0  0  0  0  0  0  0
   11.9050    3.9000   11.1890 C   0  0  0  0  0  0  0  0  0  0  0  0
   13.2500    3.6830   11.1240 C   0  0  0  0  0  0  0  0  0  0  0  0
   13.3890    2.6190   10.2310 C   0  0  0  0  0  0  0  0  0  0  0  0
   12.2090    2.2020    9.7720 N   0  0  0  0  0  0  0  0  0  0  0  0
   11.2960    2.9800   10.3520 C   0  0  0  0  0  0  0  0  0  0  0  0
   11.9280    1.1440    8.8470 C   0  0  2  0  0  0  0  0  0  0  0  0
   10.6110    0.7050    8.8850 O   0  0  0  0  0  0  0  0  0  0  0  0
   10.6350   -0.3850    8.0190 C   0  0  1  0  0  0  0  0  0  0  0  0
   11.9290   -1.1220    8.2740 C   0  0  2  0  0  0  0  0  0  0  0  0
   12.6700   -0.1480    9.1980 C   0  0  0  0  0  0  0  0  0  0  0  0
   12.7030   -1.2220    7.1170 O   0  0  0  0  0  0  0  0  0  0  0  0
    9.5070   -1.3630    8.3800 C   0  0  0  0  0  0  0  0  0  0  0  0
    8.3750   -1.0440    7.6190 O   0  0  0  0  0  0  0  0  0  0  0  0
   14.6330    2.1840    9.9730 N   0  0  0  0  0  0  0  0  0  0  0  0
   15.7020    2.7530   10.5520 C   0  0  0  0  0  0  0  0  0  0  0  0
   15.5650    3.7710   11.4060 N   0  0  0  0  0  0  0  0  0  0  0  0
   14.3340    4.2780   11.7260 C   0  0  0  0  0  0  0  0  0  0  0  0
   14.2480    5.3640   12.6430 N   0  0  0  0  0  0  0  0  0  0  0  0
   14.3910    6.6910   12.1440 C   0  0  0  0  0  0  0  0  0  0  0  0
   13.3380    7.3150   11.8580 O   0  0  0  0  0  0  0  0  0  0  0  0
   15.6510    7.3530   11.9490 C   0  0  0  0  0  0  0  0  0  0  0  0
   15.9920    8.4600   12.6770 C   0  0  0  0  0  0  0  0  0  0  0  0
   17.2150    9.1120   12.5020 C   0  0  0  0  0  0  0  0  0  0  0  0
   18.1010    8.6380   11.5800 C   0  0  0  0  0  0  0  0  0  0  0  0
   17.7860    7.5300   10.8360 C   0  0  0  0  0  0  0  0  0  0  0  0
   16.5560    6.8920   11.0280 C   0  0  0  0  0  0  0  0  0  0  0  0
   10.2080    2.9480   10.2280 H   0  0  0  0  0  0  0  0  0  0  0  0
   12.2390    1.4030    7.8280 H   0  0  0  0  0  0  0  0  0  0  0  0
   10.5290   -0.0600    6.9630 H   0  0  0  0  0  0  0  0  0  0  0  0
   11.7940   -2.1050    8.7410 H   0  0  0  0  0  0  0  0  0  0  0  0
   12.4210   -0.4230   10.2390 H   0  0  0  0  0  0  0  0  0  0  0  0
   13.7380   -0.0910    8.9770 H   0  0  0  0  0  0  0  0  0  0  0  0
   13.3140   -2.0070    7.2740 H   0  0  0  0  0  0  0  0  0  0  0  0
    9.7880   -2.3950    8.1400 H   0  0  0  0  0  0  0  0  0  0  0  0
    9.2540   -1.2400    9.4390 H   0  0  0  0  0  0  0  0  0  0  0  0
    8.6340   -0.5210    6.7960 H   0  0  0  0  0  0  0  0  0  0  0  0
   16.7070    2.3700   10.3160 H   0  0  0  0  0  0  0  0  0  0  0  0
   14.0890    5.2840   13.6510 H   0  0  0  0  0  0  0  0  0  0  0  0
   15.3470    8.9120   13.4350 H   0  0  0  0  0  0  0  0  0  0  0  0
   17.4680    9.9790   13.0800 H   0  0  0  0  0  0  0  0  0  0  0  0
   19.0790    9.1170   11.4040 H   0  0  0  0  0  0  0  0  0  0  0  0
   18.4940    7.1720   10.1180 H   0  0  0  0  0  0  0  0  0  0  0  0
   16.3700    6.0380   10.4210 H   0  0  0  0  0  0  0  0  0  0  0  0
  2  1  1  0  0  0  0
  3  2  1  0  0  0  0
  3 18  1  0  0  0  0
  4  3  2  0  0  0  0
  5  4  1  0  0  0  0
  5  6  1  0  0  0  0
  6  2  2  0  0  0  0
  7 29  1  6  0  0  0
  7  8  1  0  0  0  0
  7 11  1  0  0  0  0
  7  5  1  0  0  0  0
  9 30  1  6  0  0  0
  9 10  1  0  0  0  0
  9 13  1  0  0  0  0
  9  8  1  0  0  0  0
 10 31  1  1  0  0  0
 10 11  1  0  0  0  0
 11 32  1  0  0  0  0
 12 34  1  0  0  0  0
 12 10  1  0  0  0  0
 13 36  1  0  0  0  0
 14 13  1  0  0  0  0
 15  4  1  0  0  0  0
 15 16  2  0  0  0  0
 16 17  1  0  0  0  0
 17 18  2  0  0  0  0
 18 19  1  0  0  0  0
 19 39  1  0  0  0  0
 20 19  1  0  0  0  0
 21 20  2  0  0  0  0
 22 20  1  0  0  0  0
 22 23  1  0  0  0  0
 23 40  1  0  0  0  0
 24 23  2  0  0  0  0
 24 41  1  0  0  0  0
 25 24  1  0  0  0  0
 26 27  1  0  0  0  0
 26 25  2  0  0  0  0
 27 22  2  0  0  0  0
 28  6  1  0  0  0  0
 33 11  1  0  0  0  0
 35 13  1  0  0  0  0
 37 14  1  0  0  0  0
 38 16  1  0  0  0  0
 42 25  1  0  0  0  0
 43 26  1  0  0  0  0
 44 27  1  0  0  0  0
M  END
>  <Pose>
1

>  <Score>
-6.43

$$$$
