
 OpenBabel03172210413D

 48 52  0  0  1  0  0  0  0  0999 V2000
   15.0940    1.0630    8.4250 B   0  0  0  0  0  0  0  0  0  0  0  0
   13.2290    0.7260    8.6240 C   0  0  0  0  0  0  0  0  0  0  0  0
   12.6500   -0.2530    7.7770 C   0  0  0  0  0  0  0  0  0  0  0  0
   11.3080   -0.5150    7.8290 C   0  0  0  0  0  0  0  0  0  0  0  0
   10.5330    0.1940    8.7210 C   0  0  0  0  0  0  0  0  0  0  0  0
   11.1050    1.1420    9.5380 C   0  0  0  0  0  0  0  0  0  0  0  0
   12.4910    1.4370    9.5110 C   0  0  0  0  0  0  0  0  0  0  0  0
   12.9800    2.4100   10.4620 C   0  0  0  0  0  0  0  0  0  0  0  0
   12.6790    3.6420   10.6740 C   0  0  0  0  0  0  0  0  0  0  0  0
   13.1640    4.6140   11.6360 C   0  0  1  0  0  0  0  0  0  0  0  0
   14.4150    4.9200   11.8840 N   0  0  0  0  0  0  0  0  0  0  0  0
   14.7110    5.9350   12.7500 C   0  0  0  0  0  0  0  0  0  0  0  0
   13.7700    6.6750   13.3990 C   0  0  0  0  0  0  0  0  0  0  0  0
   12.4440    6.3810   13.1660 C   0  0  0  0  0  0  0  0  0  0  0  0
   11.2500    6.8930   13.6230 N   0  0  0  0  0  0  0  0  0  0  0  0
   10.2480    6.2330   13.0690 C   0  0  0  0  0  0  0  0  0  0  0  0
   10.8180    5.2990   12.2590 N   0  0  0  0  0  0  0  0  0  0  0  0
   12.1540    5.3680   12.3000 C   0  0  0  0  0  0  0  0  0  0  0  0
    8.8020    6.4020   13.2600 C   0  0  0  0  0  0  0  0  0  0  0  0
    7.9370    6.8570   12.3220 C   0  0  0  0  0  0  0  0  0  0  0  0
    6.5720    7.0050   12.6300 C   0  0  0  0  0  0  0  0  0  0  0  0
    6.1060    6.6890   13.8860 C   0  0  0  0  0  0  0  0  0  0  0  0
    6.9710    6.2190   14.8650 C   0  0  0  0  0  0  0  0  0  0  0  0
    8.2770    6.0910   14.5250 C   0  0  0  0  0  0  0  0  0  0  0  0
   11.2420    7.9670   14.5760 C   0  0  0  0  0  0  0  0  0  0  0  0
   15.5100    4.1770   11.3340 C   0  0  0  0  0  0  0  0  0  0  0  0
    9.2130   -0.2620    8.5710 O   0  0  0  0  0  0  0  0  0  0  0  0
    9.3060   -1.5480    7.9950 C   0  0  0  0  0  0  0  0  0  0  0  0
   10.4480   -1.3880    7.1560 O   0  0  0  0  0  0  0  0  0  0  0  0
   13.3080   -0.7740    7.1020 H   0  0  0  0  0  0  0  0  0  0  0  0
   10.4760    1.6910   10.2360 H   0  0  0  0  0  0  0  0  0  0  0  0
   13.7940    2.0260   11.1060 H   0  0  0  0  0  0  0  0  0  0  0  0
   11.9070    4.0280    9.9760 H   0  0  0  0  0  0  0  0  0  0  0  0
   15.7620    6.1560   12.9210 H   0  0  0  0  0  0  0  0  0  0  0  0
   13.9920    7.4800   14.0860 H   0  0  0  0  0  0  0  0  0  0  0  0
    8.2590    7.1040   11.3180 H   0  0  0  0  0  0  0  0  0  0  0  0
    5.9060    7.3700   11.8670 H   0  0  0  0  0  0  0  0  0  0  0  0
    5.0530    6.8010   14.1290 H   0  0  0  0  0  0  0  0  0  0  0  0
    6.6300    5.9640   15.8560 H   0  0  0  0  0  0  0  0  0  0  0  0
    8.9660    5.7230   15.2910 H   0  0  0  0  0  0  0  0  0  0  0  0
   10.9170    8.9410   14.1940 H   0  0  0  0  0  0  0  0  0  0  0  0
   12.3020    8.1400   14.9820 H   0  0  0  0  0  0  0  0  0  0  0  0
   10.6880    7.7480   15.5170 H   0  0  0  0  0  0  0  0  0  0  0  0
   15.9380    4.5780   10.4060 H   0  0  0  0  0  0  0  0  0  0  0  0
   16.3880    4.3270   12.0760 H   0  0  0  0  0  0  0  0  0  0  0  0
   15.3870    3.0780   11.3930 H   0  0  0  0  0  0  0  0  0  0  0  0
    9.5120   -2.2830    8.8010 H   0  0  0  0  0  0  0  0  0  0  0  0
    8.4060   -1.8040    7.3950 H   0  0  0  0  0  0  0  0  0  0  0  0
  1  2  1  0  0  0  0
  2  7  1  0  0  0  0
  3  4  1  0  0  0  0
  3  2  2  0  0  0  0
  4  5  2  0  0  0  0
  5  6  1  0  0  0  0
  6 31  1  0  0  0  0
  7  6  2  0  0  0  0
  7  8  1  0  0  0  0
  8  9  2  0  0  0  0
  8 32  1  0  0  0  0
 10  9  1  6  0  0  0
 10 11  1  0  0  0  0
 10 18  1  0  0  0  0
 11 12  1  0  0  0  0
 12 34  1  0  0  0  0
 12 13  2  0  0  0  0
 13 35  1  0  0  0  0
 14 13  1  0  0  0  0
 14 15  1  0  0  0  0
 15 25  1  0  0  0  0
 16 19  1  0  0  0  0
 16 15  1  0  0  0  0
 17 18  1  0  0  0  0
 17 16  2  0  0  0  0
 18 14  2  0  0  0  0
 19 24  1  0  0  0  0
 20 21  1  0  0  0  0
 20 19  2  0  0  0  0
 21 22  2  0  0  0  0
 22 38  1  0  0  0  0
 22 23  1  0  0  0  0
 23 39  1  0  0  0  0
 24 23  2  0  0  0  0
 24 40  1  0  0  0  0
 25 42  1  0  0  0  0
 25 43  1  0  0  0  0
 26 46  1  0  0  0  0
 26 11  1  0  0  0  0
 26 45  1  0  0  0  0
 27  5  1  0  0  0  0
 28 27  1  0  0  0  0
 28 47  1  0  0  0  0
 29  4  1  0  0  0  0
 29 28  1  0  0  0  0
 30  3  1  0  0  0  0
 33  9  1  0  0  0  0
 36 20  1  0  0  0  0
 37 21  1  0  0  0  0
 41 25  1  0  0  0  0
 44 26  1  0  0  0  0
 48 28  1  0  0  0  0
M  END
>  <Pose>
1

>  <Score>
-6.68

$$$$
