
 OpenBabel03172210413D

 35 38  0  0  1  0  0  0  0  0999 V2000
   10.3140    4.4950   10.4510 B   0  0  0  0  0  0  0  0  0  0  0  0
   11.4310    5.4670   11.6430 C   0  0  0  0  0  0  0  0  0  0  0  0
   12.8030    5.2570   11.7460 C   0  0  2  0  0  0  0  0  0  0  0  0
   13.5740    5.9910   12.6330 C   0  0  0  0  0  0  0  0  0  0  0  0
   12.9850    6.9490   13.4330 C   0  0  0  0  0  0  0  0  0  0  0  0
   11.6380    7.1610   13.3380 C   0  0  0  0  0  0  0  0  0  0  0  0
   10.8810    6.4300   12.4580 C   0  0  0  0  0  0  0  0  0  0  0  0
    9.5010    6.7060   12.4160 O   0  0  0  0  0  0  0  0  0  0  0  0
   10.8830    8.5090   14.4780 B   0  0  0  0  0  0  0  0  0  0  0  0
   14.9340    5.8040   12.7540 C   0  0  0  0  0  0  0  0  0  0  0  0
   15.5160    4.8450   11.9500 C   0  0  0  0  0  0  0  0  0  0  0  0
   14.6230    4.1150   11.0420 C   0  0  0  0  0  0  0  0  0  0  0  0
   15.2260    3.1480   10.2360 C   0  0  1  0  0  0  0  0  0  0  0  0
   16.5800    2.9160   10.3120 C   0  0  0  0  0  0  0  0  0  0  0  0
   17.0780    2.0360    9.5660 O   0  0  0  0  0  0  0  0  0  0  0  0
   17.3990    3.6250   11.1840 C   0  0  0  0  0  0  0  0  0  0  0  0
   16.8760    4.5860   12.0010 C   0  0  0  0  0  0  0  0  0  0  0  0
   19.2710    3.2390   11.2240 B   0  0  0  0  0  0  0  0  0  0  0  0
   14.1170    2.1520    9.0240 B   0  0  0  0  0  0  0  0  0  0  0  0
   13.3320    4.3430   10.9740 O   0  0  0  0  0  0  0  0  0  0  0  0
   15.7460    6.5750   13.6970 C   0  0  0  0  0  0  0  0  0  0  0  0
   15.7030    6.3000   15.0520 C   0  0  0  0  0  0  0  0  0  0  0  0
   16.4530    7.0160   15.9600 C   0  0  0  0  0  0  0  0  0  0  0  0
   17.2640    8.0300   15.4930 C   0  0  0  0  0  0  0  0  0  0  0  0
   17.3360    8.3330   14.1680 C   0  0  0  0  0  0  0  0  0  0  0  0
   16.5790    7.6080   13.2750 C   0  0  0  0  0  0  0  0  0  0  0  0
   16.6450    7.9270   11.8690 C   0  0  0  0  0  0  0  0  0  0  0  0
   15.7430    8.5860   11.2830 O   0  0  0  0  0  0  0  0  0  0  0  0
   17.7290    7.5070   11.1010 O   0  0  0  0  0  0  0  0  0  0  0  0
   18.3960    9.6390   13.6600 Cl  0  0  0  0  0  0  0  0  0  0  0  0
   14.6580    4.9960   15.6250 Cl  0  0  0  0  0  0  0  0  0  0  0  0
   13.6150    7.5210   14.1310 H   0  0  0  0  0  0  0  0  0  0  0  0
   17.4640    5.1650   12.6930 H   0  0  0  0  0  0  0  0  0  0  0  0
   16.3970    6.7750   17.0280 H   0  0  0  0  0  0  0  0  0  0  0  0
   17.8570    8.5970   16.2020 H   0  0  0  0  0  0  0  0  0  0  0  0
  1  2  1  0  0  0  0
  2  3  1  0  0  0  0
  2  7  2  0  0  0  0
  3 20  1  6  0  0  0
  3  4  1  0  0  0  0
  4 10  2  0  0  0  0
  4  5  1  0  0  0  0
  5 32  1  0  0  0  0
  6  5  2  0  0  0  0
  6  9  1  0  0  0  0
  7  6  1  0  0  0  0
  8  7  1  0  0  0  0
 10 21  1  0  0  0  0
 11 17  1  0  0  0  0
 11 10  1  0  0  0  0
 12 11  2  0  0  0  0
 13 19  1  1  0  0  0
 13 14  1  0  0  0  0
 13 12  1  0  0  0  0
 14 16  1  0  0  0  0
 15 14  2  0  0  0  0
 16 18  1  0  0  0  0
 16 17  2  0  0  0  0
 17 33  1  0  0  0  0
 20 12  1  0  0  0  0
 21 22  1  0  0  0  0
 22 31  1  0  0  0  0
 22 23  2  0  0  0  0
 23 34  1  0  0  0  0
 24 23  1  0  0  0  0
 24 35  1  0  0  0  0
 25 24  2  0  0  0  0
 26 21  2  0  0  0  0
 26 25  1  0  0  0  0
 27 26  1  0  0  0  0
 28 27  1  0  0  0  0
 29 27  2  0  0  0  0
 30 25  1  0  0  0  0
M  END
>  <Pose>
1

>  <Score>
-4.77

$$$$
