
 OpenBabel03172210413D

 35 39  0  0  0  0  0  0  0  0999 V2000
   18.4070    5.1750   11.5660 B   0  0  0  0  0  0  0  0  0  0  0  0
   16.5860    5.3010   12.1160 C   0  0  0  0  0  0  0  0  0  0  0  0
   15.5930    4.4680   11.5670 C   0  0  0  0  0  0  0  0  0  0  0  0
   14.2810    4.5280   11.9330 C   0  0  0  0  0  0  0  0  0  0  0  0
   13.9240    5.4680   12.9020 C   0  0  0  0  0  0  0  0  0  0  0  0
   14.8850    6.2750   13.4340 C   0  0  0  0  0  0  0  0  0  0  0  0
   16.2140    6.2190   13.0680 C   0  0  0  0  0  0  0  0  0  0  0  0
   17.1510    7.0830   13.6600 O   0  0  0  0  0  0  0  0  0  0  0  0
   14.4050    7.5610   14.7590 B   0  0  0  0  0  0  0  0  0  0  0  0
   13.2760    3.6510   11.3460 C   0  0  0  0  0  0  0  0  0  0  0  0
   12.7660    2.8480   12.4090 O   0  0  0  0  0  0  0  0  0  0  0  0
   11.4240    3.0350   12.5960 C   0  0  0  0  0  0  0  0  0  0  0  0
   10.7220    2.4580   13.4580 O   0  0  0  0  0  0  0  0  0  0  0  0
   11.0160    4.0130   11.6070 C   0  0  0  0  0  0  0  0  0  0  0  0
   12.0920    4.4050   10.8430 C   0  0  0  0  0  0  0  0  0  0  0  0
   11.8840    5.3200    9.8650 C   0  0  0  0  0  0  0  0  0  0  0  0
   10.6200    5.8340    9.6590 C   0  0  0  0  0  0  0  0  0  0  0  0
    9.5400    5.4440   10.4220 C   0  0  0  0  0  0  0  0  0  0  0  0
    9.7340    4.5190   11.4140 C   0  0  0  0  0  0  0  0  0  0  0  0
   13.8100    2.7280   10.3500 C   0  0  0  0  0  0  0  0  0  0  0  0
   15.1380    2.7160   10.0250 C   0  0  0  0  0  0  0  0  0  0  0  0
   15.6360    1.8160    9.0600 C   0  0  0  0  0  0  0  0  0  0  0  0
   14.7610    0.9480    8.4500 C   0  0  0  0  0  0  0  0  0  0  0  0
   13.4120    0.9540    8.7750 C   0  0  0  0  0  0  0  0  0  0  0  0
   12.9360    1.8290    9.7110 C   0  0  0  0  0  0  0  0  0  0  0  0
   12.1880   -0.2420    7.9380 B   0  0  0  0  0  0  0  0  0  0  0  0
   15.2630    0.0680    7.5040 O   0  0  0  0  0  0  0  0  0  0  0  0
   17.5000    1.8300    8.6320 B   0  0  0  0  0  0  0  0  0  0  0  0
   16.0650    3.5680   10.6090 O   0  0  0  0  0  0  0  0  0  0  0  0
   12.8750    5.4950   13.1760 H   0  0  0  0  0  0  0  0  0  0  0  0
   12.7020    5.6500    9.2480 H   0  0  0  0  0  0  0  0  0  0  0  0
   10.4160    6.5730    8.8810 H   0  0  0  0  0  0  0  0  0  0  0  0
    8.5350    5.8440   10.2660 H   0  0  0  0  0  0  0  0  0  0  0  0
    8.9060    4.1990   12.0230 H   0  0  0  0  0  0  0  0  0  0  0  0
   11.8980    1.8840   10.0070 H   0  0  0  0  0  0  0  0  0  0  0  0
  1  2  1  0  0  0  0
  2  7  1  0  0  0  0
  3  4  1  0  0  0  0
  3  2  2  0  0  0  0
  4  5  2  0  0  0  0
  5 30  1  0  0  0  0
  5  6  1  0  0  0  0
  6  9  1  0  0  0  0
  7  6  2  0  0  0  0
  7  8  1  0  0  0  0
 10  4  1  0  0  0  0
 10 11  1  0  0  0  0
 11 12  1  0  0  0  0
 12 13  2  0  0  0  0
 14 12  1  0  0  0  0
 15 10  1  0  0  0  0
 15 14  2  0  0  0  0
 16 15  1  0  0  0  0
 17 16  2  0  0  0  0
 17 18  1  0  0  0  0
 18 19  2  0  0  0  0
 19 14  1  0  0  0  0
 19 34  1  0  0  0  0
 20 10  1  0  0  0  0
 21 20  1  0  0  0  0
 21 29  1  0  0  0  0
 22 21  2  0  0  0  0
 23 24  2  0  0  0  0
 23 22  1  0  0  0  0
 24 25  1  0  0  0  0
 25 35  1  0  0  0  0
 25 20  2  0  0  0  0
 26 24  1  0  0  0  0
 27 23  1  0  0  0  0
 28 22  1  0  0  0  0
 29  3  1  0  0  0  0
 31 16  1  0  0  0  0
 32 17  1  0  0  0  0
 33 18  1  0  0  0  0
M  END
>  <Pose>
1

>  <Score>
-5.59

$$$$
