
 OpenBabel03172210413D

 35 39  0  0  0  0  0  0  0  0999 V2000
   13.1370   11.3180   15.4160 I   0  0  0  0  0  0  0  0  0  0  0  0
   11.1370   11.4660   16.0770 C   0  0  0  0  0  0  0  0  0  0  0  0
   10.1980   10.6550   15.4480 C   0  0  0  0  0  0  0  0  0  0  0  0
    8.9050   10.7280   15.8520 C   0  0  0  0  0  0  0  0  0  0  0  0
    8.5620   11.6110   16.8790 C   0  0  0  0  0  0  0  0  0  0  0  0
    9.4850   12.4180   17.5080 C   0  0  0  0  0  0  0  0  0  0  0  0
   10.7980   12.3370   17.0920 C   0  0  0  0  0  0  0  0  0  0  0  0
   11.7440   13.1410   17.7110 O   0  0  0  0  0  0  0  0  0  0  0  0
    8.9140   13.7420   19.0620 I   0  0  0  0  0  0  0  0  0  0  0  0
    7.8470    9.9280   15.2640 C   0  0  0  0  0  0  0  0  0  0  0  0
    6.8210   10.7550   14.6950 O   0  0  0  0  0  0  0  0  0  0  0  0
    5.5910   10.5040   15.2430 C   0  0  0  0  0  0  0  0  0  0  0  0
    4.4710   11.0340   14.9900 O   0  0  0  0  0  0  0  0  0  0  0  0
    5.7920    9.4560   16.2330 C   0  0  0  0  0  0  0  0  0  0  0  0
    7.1110    9.1170   16.2480 C   0  0  0  0  0  0  0  0  0  0  0  0
    7.5760    8.1280   17.1150 C   0  0  0  0  0  0  0  0  0  0  0  0
    6.7170    7.4740   17.9730 C   0  0  0  0  0  0  0  0  0  0  0  0
    5.3690    7.8220   17.9560 C   0  0  0  0  0  0  0  0  0  0  0  0
    4.9090    8.7940   17.1040 C   0  0  0  0  0  0  0  0  0  0  0  0
    3.2390    9.2140   17.0950 Cl  0  0  0  0  0  0  0  0  0  0  0  0
    4.2330    7.0330   19.0140 Cl  0  0  0  0  0  0  0  0  0  0  0  0
    7.3330    6.2390   19.0460 Cl  0  0  0  0  0  0  0  0  0  0  0  0
    9.2650    7.7460   17.0820 Cl  0  0  0  0  0  0  0  0  0  0  0  0
    8.3540    9.0370   14.1860 C   0  0  0  0  0  0  0  0  0  0  0  0
    9.6520    8.9890   13.8090 C   0  0  0  0  0  0  0  0  0  0  0  0
    9.9920    8.1080   12.7840 C   0  0  0  0  0  0  0  0  0  0  0  0
    9.0710    7.3010   12.1550 C   0  0  0  0  0  0  0  0  0  0  0  0
    7.7550    7.3770   12.5670 C   0  0  0  0  0  0  0  0  0  0  0  0
    7.3850    8.2330   13.5710 C   0  0  0  0  0  0  0  0  0  0  0  0
    6.3220    6.1550   11.6240 I   0  0  0  0  0  0  0  0  0  0  0  0
    9.4050    6.4340   11.1470 O   0  0  0  0  0  0  0  0  0  0  0  0
   12.0030    8.0240   12.1890 I   0  0  0  0  0  0  0  0  0  0  0  0
   10.6050    9.7850   14.4180 O   0  0  0  0  0  0  0  0  0  0  0  0
    7.5360   11.6980   17.2290 H   0  0  0  0  0  0  0  0  0  0  0  0
    6.3610    8.2660   13.8650 H   0  0  0  0  0  0  0  0  0  0  0  0
  1  2  1  0  0  0  0
  2  7  1  0  0  0  0
  3  4  1  0  0  0  0
  3  2  2  0  0  0  0
  4  5  2  0  0  0  0
  5 34  1  0  0  0  0
  5  6  1  0  0  0  0
  6  9  1  0  0  0  0
  7  6  2  0  0  0  0
  7  8  1  0  0  0  0
 10  4  1  0  0  0  0
 10 15  1  0  0  0  0
 11 12  1  0  0  0  0
 11 10  1  0  0  0  0
 12 14  1  0  0  0  0
 13 12  2  0  0  0  0
 14 15  2  0  0  0  0
 14 19  1  0  0  0  0
 15 16  1  0  0  0  0
 16 17  2  0  0  0  0
 17 22  1  0  0  0  0
 18 17  1  0  0  0  0
 18 21  1  0  0  0  0
 19 18  2  0  0  0  0
 20 19  1  0  0  0  0
 23 16  1  0  0  0  0
 24 10  1  0  0  0  0
 25 24  1  0  0  0  0
 25 33  1  0  0  0  0
 26 25  2  0  0  0  0
 27 28  2  0  0  0  0
 27 26  1  0  0  0  0
 28 29  1  0  0  0  0
 29 35  1  0  0  0  0
 29 24  2  0  0  0  0
 30 28  1  0  0  0  0
 31 27  1  0  0  0  0
 32 26  1  0  0  0  0
 33  3  1  0  0  0  0
M  END
>  <Pose>
1

>  <Score>
-5.95

$$$$
