
 OpenBabel03172210413D

 35 39  0  0  0  0  0  0  0  0999 V2000
   17.6500    2.3140    8.4400 I   0  0  0  0  0  0  0  0  0  0  0  0
   15.6310    2.0830    9.0420 C   0  0  0  0  0  0  0  0  0  0  0  0
   15.1690    2.9800   10.0200 C   0  0  0  0  0  0  0  0  0  0  0  0
   13.8770    2.8520   10.4230 C   0  0  0  0  0  0  0  0  0  0  0  0
   13.0750    1.8470    9.8540 C   0  0  0  0  0  0  0  0  0  0  0  0
   13.5280    0.9740    8.8990 C   0  0  0  0  0  0  0  0  0  0  0  0
   14.8370    1.1040    8.4910 C   0  0  0  0  0  0  0  0  0  0  0  0
   15.3290    0.2360    7.5260 O   0  0  0  0  0  0  0  0  0  0  0  0
   12.2640   -0.5190    8.0820 I   0  0  0  0  0  0  0  0  0  0  0  0
   13.3010    3.7400   11.4400 C   0  0  0  0  0  0  0  0  0  0  0  0
   12.7040    3.0120   12.4960 O   0  0  0  0  0  0  0  0  0  0  0  0
   11.3640    3.2700   12.6180 C   0  0  0  0  0  0  0  0  0  0  0  0
   10.5400    2.7960   13.4450 O   0  0  0  0  0  0  0  0  0  0  0  0
   11.0180    4.2330   11.5830 C   0  0  0  0  0  0  0  0  0  0  0  0
   12.1480    4.5150   10.8850 C   0  0  0  0  0  0  0  0  0  0  0  0
   12.0640    5.4270    9.8270 C   0  0  0  0  0  0  0  0  0  0  0  0
   10.8600    6.0150    9.5120 C   0  0  0  0  0  0  0  0  0  0  0  0
    9.7110    5.7300   10.2190 C   0  0  0  0  0  0  0  0  0  0  0  0
    9.7820    4.8370   11.2600 C   0  0  0  0  0  0  0  0  0  0  0  0
   14.2540    4.7420   11.9460 C   0  0  0  0  0  0  0  0  0  0  0  0
   15.5300    4.8190   11.5030 C   0  0  0  0  0  0  0  0  0  0  0  0
   16.3760    5.7910   12.0270 C   0  0  0  0  0  0  0  0  0  0  0  0
   15.9300    6.6640   12.9790 C   0  0  0  0  0  0  0  0  0  0  0  0
   14.6390    6.6160   13.4510 C   0  0  0  0  0  0  0  0  0  0  0  0
   13.8270    5.6510   12.9220 C   0  0  0  0  0  0  0  0  0  0  0  0
   13.9550    7.9710   14.9240 I   0  0  0  0  0  0  0  0  0  0  0  0
   16.7960    7.6260   13.4840 O   0  0  0  0  0  0  0  0  0  0  0  0
   18.3790    5.9030   11.3250 I   0  0  0  0  0  0  0  0  0  0  0  0
   16.0400    3.9460   10.5280 O   0  0  0  0  0  0  0  0  0  0  0  0
   12.0330    1.7620   10.1950 H   0  0  0  0  0  0  0  0  0  0  0  0
   12.9810    5.6220    9.3020 H   0  0  0  0  0  0  0  0  0  0  0  0
   10.8390    6.7090    8.6940 H   0  0  0  0  0  0  0  0  0  0  0  0
    8.7430    6.1890    9.9820 H   0  0  0  0  0  0  0  0  0  0  0  0
    8.9080    4.5750   11.8510 H   0  0  0  0  0  0  0  0  0  0  0  0
   12.8080    5.5910   13.2750 H   0  0  0  0  0  0  0  0  0  0  0  0
  1  2  1  0  0  0  0
  2  3  1  0  0  0  0
  3  4  2  0  0  0  0
  3 29  1  0  0  0  0
  4 10  1  0  0  0  0
  5 30  1  0  0  0  0
  5  4  1  0  0  0  0
  6  5  2  0  0  0  0
  7  6  1  0  0  0  0
  7  2  2  0  0  0  0
  8  7  1  0  0  0  0
  9  6  1  0  0  0  0
 10 20  1  0  0  0  0
 10 11  1  0  0  0  0
 11 12  1  0  0  0  0
 12 13  2  0  0  0  0
 14 12  1  0  0  0  0
 15 10  1  0  0  0  0
 15 14  2  0  0  0  0
 16 15  1  0  0  0  0
 17 16  2  0  0  0  0
 17 18  1  0  0  0  0
 18 19  2  0  0  0  0
 19 14  1  0  0  0  0
 19 34  1  0  0  0  0
 20 25  1  0  0  0  0
 21 20  2  0  0  0  0
 21 22  1  0  0  0  0
 22 23  2  0  0  0  0
 23 24  1  0  0  0  0
 23 27  1  0  0  0  0
 24 26  1  0  0  0  0
 25 35  1  0  0  0  0
 25 24  2  0  0  0  0
 28 22  1  0  0  0  0
 29 21  1  0  0  0  0
 31 16  1  0  0  0  0
 32 17  1  0  0  0  0
 33 18  1  0  0  0  0
M  END
>  <Pose>
1

>  <Score>
-5.96

$$$$
