
 OpenBabel03172210413D

 35 38  0  0  1  0  0  0  0  0999 V2000
   17.5110    4.9680   11.2170 I   0  0  0  0  0  0  0  0  0  0  0  0
   15.6620    5.7520   11.8540 C   0  0  0  0  0  0  0  0  0  0  0  0
   14.4630    5.1070   11.6240 C   0  0  1  0  0  0  0  0  0  0  0  0
   13.2510    5.6170   12.0390 C   0  0  0  0  0  0  0  0  0  0  0  0
   13.2630    6.8250   12.7110 C   0  0  0  0  0  0  0  0  0  0  0  0
   14.4630    7.4790   12.9470 C   0  0  0  0  0  0  0  0  0  0  0  0
   15.6800    6.9590   12.5240 C   0  0  0  0  0  0  0  0  0  0  0  0
   16.8550    7.6580   12.7870 O   0  0  0  0  0  0  0  0  0  0  0  0
   12.0430    4.9870   11.8200 C   0  0  0  0  0  0  0  0  0  0  0  0
   12.1080    3.7760   11.1370 C   0  0  0  0  0  0  0  0  0  0  0  0
   13.4100    3.2700   10.7140 C   0  0  0  0  0  0  0  0  0  0  0  0
   13.4090    2.0650   10.0430 C   0  0  1  0  0  0  0  0  0  0  0  0
   12.2580    1.3570    9.7730 C   0  0  0  0  0  0  0  0  0  0  0  0
   12.2780    0.2520    9.1550 O   0  0  0  0  0  0  0  0  0  0  0  0
   11.0250    1.8350   10.1730 C   0  0  0  0  0  0  0  0  0  0  0  0
   10.9920    3.0390   10.8480 C   0  0  0  0  0  0  0  0  0  0  0  0
   15.2370    1.2550    9.3940 I   0  0  0  0  0  0  0  0  0  0  0  0
   14.4870    3.9650   10.9850 O   0  0  0  0  0  0  0  0  0  0  0  0
   10.7580    5.5230   12.2570 C   0  0  0  0  0  0  0  0  0  0  0  0
    9.8350    5.9030   11.2880 C   0  0  0  0  0  0  0  0  0  0  0  0
    8.6160    6.4110   11.6500 C   0  0  0  0  0  0  0  0  0  0  0  0
    8.3050    6.5470   12.9850 C   0  0  0  0  0  0  0  0  0  0  0  0
    9.2010    6.1780   13.9640 C   0  0  0  0  0  0  0  0  0  0  0  0
   10.4200    5.6690   13.5770 C   0  0  0  0  0  0  0  0  0  0  0  0
   10.1540    5.7630    9.8700 C   0  0  0  0  0  0  0  0  0  0  0  0
   11.2970    5.9710    9.4070 O   0  0  0  0  0  0  0  0  0  0  0  0
    9.1750    5.3870    8.9610 O   0  0  0  0  0  0  0  0  0  0  0  0
   12.3120    7.2210   13.0360 H   0  0  0  0  0  0  0  0  0  0  0  0
   14.4040    8.4230   13.4780 H   0  0  0  0  0  0  0  0  0  0  0  0
   10.1380    1.2580    9.9480 H   0  0  0  0  0  0  0  0  0  0  0  0
   10.0360    3.4260   11.1670 H   0  0  0  0  0  0  0  0  0  0  0  0
    7.8640    6.7200   10.9090 H   0  0  0  0  0  0  0  0  0  0  0  0
    7.3350    6.9510   13.2530 H   0  0  0  0  0  0  0  0  0  0  0  0
    8.9180    6.3010   15.0160 H   0  0  0  0  0  0  0  0  0  0  0  0
   11.1500    5.3690   14.3200 H   0  0  0  0  0  0  0  0  0  0  0  0
  1  2  1  0  0  0  0
  2  7  2  0  0  0  0
  3 18  1  6  0  0  0
  3  2  1  0  0  0  0
  3  4  1  0  0  0  0
  4  5  1  0  0  0  0
  5  6  2  0  0  0  0
  5 28  1  0  0  0  0
  6 29  1  0  0  0  0
  7  8  1  0  0  0  0
  7  6  1  0  0  0  0
  9  4  2  0  0  0  0
  9 19  1  0  0  0  0
 10  9  1  0  0  0  0
 11 18  1  0  0  0  0
 11 10  2  0  0  0  0
 12 17  1  6  0  0  0
 12 11  1  0  0  0  0
 13 12  1  0  0  0  0
 13 15  1  0  0  0  0
 14 13  2  0  0  0  0
 15 16  2  0  0  0  0
 16 10  1  0  0  0  0
 16 31  1  0  0  0  0
 19 24  1  0  0  0  0
 20 21  1  0  0  0  0
 20 19  2  0  0  0  0
 21 22  2  0  0  0  0
 22 33  1  0  0  0  0
 22 23  1  0  0  0  0
 23 34  1  0  0  0  0
 24 23  2  0  0  0  0
 24 35  1  0  0  0  0
 25 20  1  0  0  0  0
 26 25  1  0  0  0  0
 27 25  2  0  0  0  0
 30 15  1  0  0  0  0
 32 21  1  0  0  0  0
M  END
>  <Pose>
1

>  <Score>
-5.61

$$$$
