
 OpenBabel03172210413D

 38 41  0  0  0  0  0  0  0  0999 V2000
   17.1240    6.5530   11.0700 S   0  0  0  0  0  0  0  0  0  0  0  0
   17.5050    5.2860   10.3540 O   0  0  0  0  0  0  0  0  0  0  0  0
   17.8150    7.7190   10.4070 O   0  0  0  0  0  0  0  0  0  0  0  0
   17.6010    6.4010   12.6750 O   0  0  0  0  0  0  0  0  0  0  0  0
   15.4230    6.6950   10.9410 O   0  0  0  0  0  0  0  0  0  0  0  0
   14.6130    6.7110   12.0710 C   0  0  0  0  0  0  0  0  0  0  0  0
   14.7400    7.6780   13.0780 C   0  0  0  0  0  0  0  0  0  0  0  0
   13.7710    7.3520   14.0010 C   0  0  0  0  0  0  0  0  0  0  0  0
   13.1170    6.2650   13.5680 N   0  0  0  0  0  0  0  0  0  0  0  0
   13.6090    5.8290   12.3680 C   0  0  0  0  0  0  0  0  0  0  0  0
   13.1460    4.6490   11.6470 C   0  0  0  0  0  0  0  0  0  0  0  0
   13.9890    3.8210   10.9710 N   0  0  0  0  0  0  0  0  0  0  0  0
   13.3070    2.8250   10.3840 C   0  0  0  0  0  0  0  0  0  0  0  0
   11.9670    2.9750   10.6640 C   0  0  0  0  0  0  0  0  0  0  0  0
   11.9050    4.1280   11.4550 C   0  0  0  0  0  0  0  0  0  0  0  0
   10.7100    4.6260   11.9430 O   0  0  0  0  0  0  0  0  0  0  0  0
    9.6900    5.6260   11.0120 S   0  0  0  0  0  0  0  0  0  0  0  0
    9.7660    5.2650    9.5570 O   0  0  0  0  0  0  0  0  0  0  0  0
   10.0670    7.0750   11.1360 O   0  0  0  0  0  0  0  0  0  0  0  0
    8.0980    5.5000   11.5890 O   0  0  0  0  0  0  0  0  0  0  0  0
   11.0130    2.0950   10.1950 C   0  0  0  0  0  0  0  0  0  0  0  0
   11.3820    1.0140    9.4100 C   0  0  0  0  0  0  0  0  0  0  0  0
   12.7270    0.8480    9.1200 C   0  0  0  0  0  0  0  0  0  0  0  0
   13.6650    1.7380    9.5990 C   0  0  0  0  0  0  0  0  0  0  0  0
   15.4990    1.4520    9.1610 B   0  0  0  0  0  0  0  0  0  0  0  0
   10.0750   -0.2210    8.7460 B   0  0  0  0  0  0  0  0  0  0  0  0
   13.6440    8.1430   15.1400 C   0  0  0  0  0  0  0  0  0  0  0  0
   14.4770    9.2140   15.3120 C   0  0  0  0  0  0  0  0  0  0  0  0
   15.4620    9.5500   14.3770 C   0  0  0  0  0  0  0  0  0  0  0  0
   15.5860    8.7520   13.2350 C   0  0  0  0  0  0  0  0  0  0  0  0
   16.5880   11.0500   14.6740 B   0  0  0  0  0  0  0  0  0  0  0  0
   12.3200    7.7190   16.4260 B   0  0  0  0  0  0  0  0  0  0  0  0
   12.3180    5.7890   14.0750 H   0  0  0  0  0  0  0  0  0  0  0  0
   15.0260    3.9170   10.8990 H   0  0  0  0  0  0  0  0  0  0  0  0
    9.9890    2.2590   10.4410 H   0  0  0  0  0  0  0  0  0  0  0  0
   13.0170   -0.0090    8.4980 H   0  0  0  0  0  0  0  0  0  0  0  0
   14.4100    9.8530   16.1820 H   0  0  0  0  0  0  0  0  0  0  0  0
   16.3400    8.9830   12.4900 H   0  0  0  0  0  0  0  0  0  0  0  0
  1  4  1  0  0  0  0
  2  1  1  0  0  0  0
  3  1  1  0  0  0  0
  5  1  1  0  0  0  0
  5  6  1  0  0  0  0
  6 10  2  0  0  0  0
  6  7  1  0  0  0  0
  7 30  2  0  0  0  0
  7  8  1  0  0  0  0
  8 27  2  0  0  0  0
  9  8  1  0  0  0  0
  9 33  1  0  0  0  0
 10  9  1  0  0  0  0
 11 10  1  0  0  0  0
 12 11  1  0  0  0  0
 13 14  1  0  0  0  0
 13 12  1  0  0  0  0
 14 15  1  0  0  0  0
 15 11  2  0  0  0  0
 15 16  1  0  0  0  0
 17 19  1  0  0  0  0
 17 20  1  0  0  0  0
 17 16  1  0  0  0  0
 18 17  1  0  0  0  0
 21 35  1  0  0  0  0
 21 14  2  0  0  0  0
 22 21  1  0  0  0  0
 23 22  2  0  0  0  0
 23 24  1  0  0  0  0
 24 13  2  0  0  0  0
 25 24  1  0  0  0  0
 26 22  1  0  0  0  0
 27 28  1  0  0  0  0
 27 32  1  0  0  0  0
 28 37  1  0  0  0  0
 29 31  1  0  0  0  0
 29 28  2  0  0  0  0
 30 29  1  0  0  0  0
 34 12  1  0  0  0  0
 36 23  1  0  0  0  0
 38 30  1  0  0  0  0
M  END
>  <Pose>
1

>  <Score>
-7.84

$$$$
