
 OpenBabel03172210413D

 34 37  0  0  1  0  0  0  0  0999 V2000
    9.0800    6.1020   12.2860 P   0  0  1  0  0  0  0  0  0  0  0  0
    7.7710    5.5220   11.7970 O   0  0  0  0  0  0  0  0  0  0  0  0
   10.1320    4.8710   12.8240 O   0  0  0  0  0  0  0  0  0  0  0  0
   11.1650    4.8060   11.8920 C   0  0  2  0  0  0  0  0  0  0  0  0
   10.5040    4.9860   10.5200 C   0  0  2  0  0  0  0  0  0  0  0  0
   11.2930    4.1920    9.7250 O   0  0  0  0  0  0  0  0  0  0  0  0
   11.2480    2.9810   10.4160 C   0  0  2  0  0  0  0  0  0  0  0  0
   11.7580    3.4160   11.7890 C   0  0  2  0  0  0  0  0  0  0  0  0
   11.3540    2.5750   12.7950 O   0  0  0  0  0  0  0  0  0  0  0  0
   12.1020    1.9830    9.8200 N   0  0  0  0  0  0  0  0  0  0  0  0
   11.6400    0.9530    9.1010 C   0  0  0  0  0  0  0  0  0  0  0  0
   10.3770    0.5810    8.7550 N   0  0  0  0  0  0  0  0  0  0  0  0
   10.1090   -0.4940    8.0200 C   0  0  0  0  0  0  0  0  0  0  0  0
   11.1350   -1.2540    7.5970 N   0  0  0  0  0  0  0  0  0  0  0  0
   12.4110   -0.9430    7.9030 C   0  0  0  0  0  0  0  0  0  0  0  0
   12.6920    0.1720    8.6650 C   0  0  0  0  0  0  0  0  0  0  0  0
   13.8030    0.7550    9.1380 N   0  0  0  0  0  0  0  0  0  0  0  0
   13.4400    1.8540    9.8400 C   0  0  0  0  0  0  0  0  0  0  0  0
   14.6270    3.0630   10.7350 B   0  0  0  0  0  0  0  0  0  0  0  0
   13.4760   -1.7250    7.4670 O   0  0  0  0  0  0  0  0  0  0  0  0
    8.7680   -0.8430    7.6850 N   0  0  0  0  0  0  0  0  0  0  0  0
   10.5160    6.4310   10.1880 C   0  0  0  0  0  0  0  0  0  0  0  0
    9.8060    7.1160   11.1800 O   0  0  0  0  0  0  0  0  0  0  0  0
    8.6960    7.0200   13.6790 O   0  0  0  0  0  0  0  0  0  0  0  0
   11.9280    5.5820   12.0720 H   0  0  0  0  0  0  0  0  0  0  0  0
    9.4820    4.5660   10.5230 H   0  0  0  0  0  0  0  0  0  0  0  0
   10.2070    2.6240   10.5810 H   0  0  0  0  0  0  0  0  0  0  0  0
   12.8820    3.4850   11.7230 H   0  0  0  0  0  0  0  0  0  0  0  0
   11.7390    2.8840   13.6750 H   0  0  0  0  0  0  0  0  0  0  0  0
   13.9570   -1.3970    6.6160 H   0  0  0  0  0  0  0  0  0  0  0  0
    8.1930   -1.2660    8.4440 H   0  0  0  0  0  0  0  0  0  0  0  0
    8.3690   -0.6870    6.7260 H   0  0  0  0  0  0  0  0  0  0  0  0
   11.5670    6.8110   10.2580 H   0  0  0  0  0  0  0  0  0  0  0  0
   10.1050    6.6110    9.1780 H   0  0  0  0  0  0  0  0  0  0  0  0
  1  2  2  6  0  0  0
  1  3  1  0  0  0  0
  1 24  1  0  0  0  0
  4 25  1  1  0  0  0
  4  3  1  0  0  0  0
  5 26  1  1  0  0  0
  5  4  1  0  0  0  0
  6  7  1  0  0  0  0
  6  5  1  0  0  0  0
  7 27  1  1  0  0  0
  7  8  1  0  0  0  0
  8 28  1  6  0  0  0
  8  4  1  0  0  0  0
  8  9  1  0  0  0  0
  9 29  1  0  0  0  0
 10 18  1  0  0  0  0
 10  7  1  0  0  0  0
 11 10  1  0  0  0  0
 12 11  1  0  0  0  0
 13 12  2  0  0  0  0
 14 15  2  0  0  0  0
 14 13  1  0  0  0  0
 15 16  1  0  0  0  0
 16 11  2  0  0  0  0
 16 17  1  0  0  0  0
 17 18  2  0  0  0  0
 18 19  1  0  0  0  0
 20 15  1  0  0  0  0
 21 13  1  0  0  0  0
 21 31  1  0  0  0  0
 22 33  1  0  0  0  0
 22  5  1  0  0  0  0
 22 23  1  0  0  0  0
 23  1  1  0  0  0  0
 30 20  1  0  0  0  0
 32 21  1  0  0  0  0
 34 22  1  0  0  0  0
M  END
>  <Pose>
1

>  <Score>
-7.25

$$$$
