
 OpenBabel03172210413D

 46 51  0  0  1  0  0  0  0  0999 V2000
   10.9900   -0.8140    8.6740 P   0  0  2  0  0  0  0  0  0  0  0  0
    9.6070   -1.2560    7.7210 S   0  0  0  0  0  0  0  0  0  0  0  0
   10.5750    0.5530    9.5930 O   0  0  0  0  0  0  0  0  0  0  0  0
   11.6190    1.4620    9.4470 C   0  0  2  0  0  0  0  0  0  0  0  0
   12.9080    0.6460    9.5720 C   0  0  2  0  0  0  0  0  0  0  0  0
   13.7960    1.5120   10.1470 O   0  0  0  0  0  0  0  0  0  0  0  0
   13.1010    2.2980   11.0630 C   0  0  2  0  0  0  0  0  0  0  0  0
   11.7040    2.4510   10.5700 C   0  0  2  0  0  0  0  0  0  0  0  0
   10.7750    2.1390   11.5710 O   0  0  0  0  0  0  0  0  0  0  0  0
   13.7750    3.5770   11.2720 N   0  0  0  0  0  0  0  0  0  0  0  0
   13.2640    4.7050   11.8270 C   0  0  0  0  0  0  0  0  0  0  0  0
   14.2110    5.7070   11.8490 C   0  0  0  0  0  0  0  0  0  0  0  0
   15.3140    5.1630   11.2940 N   0  0  0  0  0  0  0  0  0  0  0  0
   15.0440    3.8870   10.9520 C   0  0  0  0  0  0  0  0  0  0  0  0
   16.2330    2.6360   10.1270 B   0  0  0  0  0  0  0  0  0  0  0  0
   13.8850    6.9400   12.3780 C   0  0  0  0  0  0  0  0  0  0  0  0
   14.7360    7.8560   12.4030 O   0  0  0  0  0  0  0  0  0  0  0  0
   12.6580    7.2070   12.8810 N   0  0  0  0  0  0  0  0  0  0  0  0
   11.7500    6.2150   12.8490 C   0  0  0  0  0  0  0  0  0  0  0  0
   10.6330    6.7250   13.3980 N   0  0  0  0  0  0  0  0  0  0  0  0
   10.8020    8.0050   13.7750 C   0  0  0  0  0  0  0  0  0  0  0  0
   12.1040    8.3160   13.4440 C   0  0  0  0  0  0  0  0  0  0  0  0
    9.8140    8.8900   14.4080 C   0  0  0  0  0  0  0  0  0  0  0  0
   10.0420    9.3960   15.6680 C   0  0  0  0  0  0  0  0  0  0  0  0
    9.1280   10.2350   16.2920 C   0  0  0  0  0  0  0  0  0  0  0  0
    7.9690   10.5620   15.6270 C   0  0  0  0  0  0  0  0  0  0  0  0
    7.7000   10.0730   14.3580 C   0  0  0  0  0  0  0  0  0  0  0  0
    8.6430    9.2460   13.7870 C   0  0  0  0  0  0  0  0  0  0  0  0
   12.0520    4.9910   12.3310 N   0  0  0  0  0  0  0  0  0  0  0  0
   13.2800    0.2250    8.1700 C   0  0  0  0  0  0  0  0  0  0  0  0
   12.2440   -0.4750    7.5940 O   0  0  0  0  0  0  0  0  0  0  0  0
   11.4940   -2.0920    9.6570 O   0  0  0  0  0  0  0  0  0  0  0  0
   11.5420    1.9650    8.4740 H   0  0  0  0  0  0  0  0  0  0  0  0
   12.7810   -0.2250   10.2250 H   0  0  0  0  0  0  0  0  0  0  0  0
   13.1530    1.7310   12.0390 H   0  0  0  0  0  0  0  0  0  0  0  0
   11.5300    3.4580   10.1890 H   0  0  0  0  0  0  0  0  0  0  0  0
   11.1800    1.6330   12.3050 H   0  0  0  0  0  0  0  0  0  0  0  0
   12.6140    9.2650   13.5950 H   0  0  0  0  0  0  0  0  0  0  0  0
   10.9510    9.1400   16.1890 H   0  0  0  0  0  0  0  0  0  0  0  0
    9.3030   10.6370   17.2840 H   0  0  0  0  0  0  0  0  0  0  0  0
    7.2410   11.2130   16.0900 H   0  0  0  0  0  0  0  0  0  0  0  0
    6.7760   10.3470   13.8520 H   0  0  0  0  0  0  0  0  0  0  0  0
    8.4510    8.8580   12.8010 H   0  0  0  0  0  0  0  0  0  0  0  0
   11.3430    4.2240   12.3090 H   0  0  0  0  0  0  0  0  0  0  0  0
   14.2560   -0.2960    8.1220 H   0  0  0  0  0  0  0  0  0  0  0  0
   13.4200    1.1720    7.5720 H   0  0  0  0  0  0  0  0  0  0  0  0
  1  2  1  6  0  0  0
  1  3  1  0  0  0  0
  1 32  2  0  0  0  0
  4 33  1  6  0  0  0
  4  5  1  0  0  0  0
  4  3  1  0  0  0  0
  4  8  1  0  0  0  0
  5  6  1  0  0  0  0
  5 34  1  1  0  0  0
  6  7  1  0  0  0  0
  7 10  1  0  0  0  0
  7 35  1  1  0  0  0
  8 36  1  6  0  0  0
  8  7  1  0  0  0  0
  8  9  1  0  0  0  0
  9 37  1  0  0  0  0
 10 11  1  0  0  0  0
 11 12  2  0  0  0  0
 11 29  1  0  0  0  0
 12 16  1  0  0  0  0
 13 12  1  0  0  0  0
 14 10  1  0  0  0  0
 14 13  2  0  0  0  0
 15 14  1  0  0  0  0
 16 17  2  0  0  0  0
 16 18  1  0  0  0  0
 18 22  1  0  0  0  0
 19 18  1  0  0  0  0
 19 20  2  0  0  0  0
 20 21  1  0  0  0  0
 21 23  1  0  0  0  0
 22 38  1  0  0  0  0
 22 21  2  0  0  0  0
 23 24  1  0  0  0  0
 24 39  1  0  0  0  0
 24 25  2  0  0  0  0
 25 40  1  0  0  0  0
 26 41  1  0  0  0  0
 26 25  1  0  0  0  0
 27 26  2  0  0  0  0
 28 27  1  0  0  0  0
 28 23  2  0  0  0  0
 29 19  1  0  0  0  0
 30  5  1  0  0  0  0
 31 30  1  0  0  0  0
 31  1  1  0  0  0  0
 42 27  1  0  0  0  0
 43 28  1  0  0  0  0
 44 29  1  0  0  0  0
 45 30  1  0  0  0  0
 46 30  1  0  0  0  0
M  END
>  <Pose>
1

>  <Score>
-7.10

$$$$
