
 OpenBabel03172210413D

 33 36  0  0  1  0  0  0  0  0999 V2000
    9.9790    5.6920   11.9570 P   0  0  2  0  0  0  0  0  0  0  0  0
   10.9470    7.0220   12.5420 S   0  0  0  0  0  0  0  0  0  0  0  0
   10.7820    4.2170   12.2680 O   0  0  0  0  0  0  0  0  0  0  0  0
   11.8390    4.1490   11.3940 C   0  0  2  0  0  0  0  0  0  0  0  0
   11.2890    4.1260    9.9610 C   0  0  2  0  0  0  0  0  0  0  0  0
   12.4260    3.7080    9.2710 O   0  0  0  0  0  0  0  0  0  0  0  0
   12.9090    2.6260    9.9670 C   0  0  2  0  0  0  0  0  0  0  0  0
   12.5460    2.8070   11.4190 C   0  0  2  0  0  0  0  0  0  0  0  0
   11.5690    1.8480   11.7200 O   0  0  0  0  0  0  0  0  0  0  0  0
   14.3520    2.5040    9.8920 N   0  0  0  0  0  0  0  0  0  0  0  0
   15.2170    3.2300   10.6460 C   0  0  0  0  0  0  0  0  0  0  0  0
   15.0200    4.1830   11.5920 N   0  0  0  0  0  0  0  0  0  0  0  0
   16.0590    4.7720   12.2140 C   0  0  0  0  0  0  0  0  0  0  0  0
   17.3270    4.4110   11.8950 N   0  0  0  0  0  0  0  0  0  0  0  0
   17.5630    3.4710   10.9630 C   0  0  0  0  0  0  0  0  0  0  0  0
   16.5050    2.8590   10.3170 C   0  0  0  0  0  0  0  0  0  0  0  0
   16.4190    1.9100    9.3670 N   0  0  0  0  0  0  0  0  0  0  0  0
   15.1070    1.7050    9.1190 C   0  0  0  0  0  0  0  0  0  0  0  0
   14.3440    0.4720    7.8610 B   0  0  0  0  0  0  0  0  0  0  0  0
   18.9070    3.1010   10.6370 N   0  0  0  0  0  0  0  0  0  0  0  0
   10.8120    5.4800    9.5400 C   0  0  0  0  0  0  0  0  0  0  0  0
    9.7150    5.8170   10.3120 O   0  0  0  0  0  0  0  0  0  0  0  0
    8.5390    5.6880   12.8020 O   0  0  0  0  0  0  0  0  0  0  0  0
   12.5240    4.9930   11.4590 H   0  0  0  0  0  0  0  0  0  0  0  0
   10.5120    3.3510    9.9270 H   0  0  0  0  0  0  0  0  0  0  0  0
   12.4810    1.6950    9.5280 H   0  0  0  0  0  0  0  0  0  0  0  0
   13.4010    2.7810   12.0950 H   0  0  0  0  0  0  0  0  0  0  0  0
   11.5180    1.6370   12.6700 H   0  0  0  0  0  0  0  0  0  0  0  0
   15.8520    5.5360   12.9700 H   0  0  0  0  0  0  0  0  0  0  0  0
   19.3520    3.5300    9.7800 H   0  0  0  0  0  0  0  0  0  0  0  0
   19.4560    2.4310   11.2100 H   0  0  0  0  0  0  0  0  0  0  0  0
   10.4980    5.4320    8.4980 H   0  0  0  0  0  0  0  0  0  0  0  0
   11.6550    6.1900    9.6400 H   0  0  0  0  0  0  0  0  0  0  0  0
  1  3  1  0  0  0  0
  1  2  1  1  0  0  0
  1 23  2  0  0  0  0
  4  8  1  0  0  0  0
  4 24  1  1  0  0  0
  4  3  1  0  0  0  0
  5 25  1  6  0  0  0
  5  4  1  0  0  0  0
  6  5  1  0  0  0  0
  6  7  1  0  0  0  0
  7 26  1  6  0  0  0
  7  8  1  0  0  0  0
  8  9  1  0  0  0  0
  8 27  1  1  0  0  0
  9 28  1  0  0  0  0
 10  7  1  0  0  0  0
 10 11  1  0  0  0  0
 11 12  1  0  0  0  0
 12 13  2  0  0  0  0
 13 29  1  0  0  0  0
 14 13  1  0  0  0  0
 15 14  2  0  0  0  0
 16 11  2  0  0  0  0
 16 15  1  0  0  0  0
 17 16  1  0  0  0  0
 18 17  2  0  0  0  0
 18 10  1  0  0  0  0
 19 18  1  0  0  0  0
 20 15  1  0  0  0  0
 20 31  1  0  0  0  0
 21 33  1  0  0  0  0
 21  5  1  0  0  0  0
 21 22  1  0  0  0  0
 22  1  1  0  0  0  0
 30 20  1  0  0  0  0
 32 21  1  0  0  0  0
M  END
>  <Pose>
1

>  <Score>
-6.88

$$$$
