
 OpenBabel03172210413D

 33 36  0  0  1  0  0  0  0  0999 V2000
    9.6850    5.6450   11.4920 P   0  0  2  0  0  0  0  0  0  0  0  0
    9.2210    6.4910   12.6790 O   0  0  0  0  0  0  0  0  0  0  0  0
   10.5570    4.3490   12.1060 O   0  0  0  0  0  0  0  0  0  0  0  0
   11.7370    4.1610   11.4330 C   0  0  2  0  0  0  0  0  0  0  0  0
   11.4730    4.5470    9.9710 C   0  0  2  0  0  0  0  0  0  0  0  0
   12.3410    3.8130    9.2200 O   0  0  0  0  0  0  0  0  0  0  0  0
   12.6920    2.6730    9.8900 C   0  0  2  0  0  0  0  0  0  0  0  0
   12.1310    2.7170   11.2690 C   0  0  2  0  0  0  0  0  0  0  0  0
   11.0360    1.8960   11.4530 O   0  0  0  0  0  0  0  0  0  0  0  0
   14.1460    2.5790    9.8760 N   0  0  0  0  0  0  0  0  0  0  0  0
   14.9960    3.3340   10.6110 C   0  0  0  0  0  0  0  0  0  0  0  0
   14.7600    4.3130   11.5010 N   0  0  0  0  0  0  0  0  0  0  0  0
   15.7960    4.9170   12.1070 C   0  0  0  0  0  0  0  0  0  0  0  0
   17.0540    4.5360   11.8190 N   0  0  0  0  0  0  0  0  0  0  0  0
   17.3640    3.5670   10.9440 C   0  0  0  0  0  0  0  0  0  0  0  0
   16.2860    2.9450   10.3180 C   0  0  0  0  0  0  0  0  0  0  0  0
   16.2250    1.9690    9.4170 N   0  0  0  0  0  0  0  0  0  0  0  0
   14.9230    1.7540    9.1550 C   0  0  0  0  0  0  0  0  0  0  0  0
   14.1910    0.4590    7.9290 B   0  0  0  0  0  0  0  0  0  0  0  0
   18.6880    3.1570   10.6320 N   0  0  0  0  0  0  0  0  0  0  0  0
   11.6550    6.0290    9.8950 C   0  0  0  0  0  0  0  0  0  0  0  0
   10.5760    6.6370   10.4890 O   0  0  0  0  0  0  0  0  0  0  0  0
    8.2560    5.0860   10.7360 O   0  0  0  0  0  0  0  0  0  0  0  0
   12.5860    4.7260   11.8280 H   0  0  0  0  0  0  0  0  0  0  0  0
   10.4340    4.2840    9.6790 H   0  0  0  0  0  0  0  0  0  0  0  0
   12.2400    1.7750    9.3790 H   0  0  0  0  0  0  0  0  0  0  0  0
   12.9030    2.4230   12.0100 H   0  0  0  0  0  0  0  0  0  0  0  0
   10.8910    1.6320   12.3760 H   0  0  0  0  0  0  0  0  0  0  0  0
   15.6260    5.7240   12.8400 H   0  0  0  0  0  0  0  0  0  0  0  0
   19.2020    2.5600   11.3450 H   0  0  0  0  0  0  0  0  0  0  0  0
   19.1810    3.3950    9.7670 H   0  0  0  0  0  0  0  0  0  0  0  0
   12.5560    6.2870   10.5250 H   0  0  0  0  0  0  0  0  0  0  0  0
   11.8900    6.4030    8.8870 H   0  0  0  0  0  0  0  0  0  0  0  0
  1 23  2  6  0  0  0
  1  3  1  0  0  0  0
  1  2  1  0  0  0  0
  4 24  1  1  0  0  0
  4  3  1  0  0  0  0
  5 25  1  6  0  0  0
  5  4  1  0  0  0  0
  6  7  1  0  0  0  0
  6  5  1  0  0  0  0
  7 26  1  6  0  0  0
  7  8  1  0  0  0  0
  8  4  1  0  0  0  0
  8  9  1  0  0  0  0
  8 27  1  1  0  0  0
  9 28  1  0  0  0  0
 10  7  1  0  0  0  0
 10 11  1  0  0  0  0
 11 12  1  0  0  0  0
 12 13  2  0  0  0  0
 13 29  1  0  0  0  0
 14 13  1  0  0  0  0
 15 14  2  0  0  0  0
 16 11  2  0  0  0  0
 16 15  1  0  0  0  0
 17 16  1  0  0  0  0
 18 17  2  0  0  0  0
 18 10  1  0  0  0  0
 19 18  1  0  0  0  0
 20 15  1  0  0  0  0
 20 30  1  0  0  0  0
 21  5  1  0  0  0  0
 21 22  1  0  0  0  0
 21 32  1  0  0  0  0
 22  1  1  0  0  0  0
 31 20  1  0  0  0  0
 33 21  1  0  0  0  0
M  END
>  <Pose>
1

>  <Score>
-6.73

$$$$
