
 OpenBabel03172210413D

 47 50  0  0  1  0  0  0  0  0999 V2000
   10.9650   -0.6210    8.4180 S   0  0  0  0  0  0  0  0  0  0  0  0
   10.9680   -1.8870    9.2490 O   0  0  0  0  0  0  0  0  0  0  0  0
   11.4160   -0.9690    7.0200 O   0  0  0  0  0  0  0  0  0  0  0  0
    9.3600   -0.0170    8.4230 N   0  0  0  0  0  0  0  0  0  0  0  0
   12.0460    0.5300    9.1450 C   0  0  0  0  0  0  0  0  0  0  0  0
   11.5500    1.4780   10.0100 C   0  0  0  0  0  0  0  0  0  0  0  0
   12.3720    2.4200   10.6190 C   0  0  0  0  0  0  0  0  0  0  0  0
   13.7180    2.3780   10.3280 C   0  0  0  0  0  0  0  0  0  0  0  0
   14.2290    1.4190    9.4540 C   0  0  0  0  0  0  0  0  0  0  0  0
   13.4000    0.4940    8.8600 C   0  0  0  0  0  0  0  0  0  0  0  0
   14.9020    3.6270   11.1190 B   0  0  0  0  0  0  0  0  0  0  0  0
   11.8340    3.4140   11.5260 C   0  0  0  0  0  0  0  0  0  0  0  0
   11.7890    3.1620   12.7550 O   0  0  0  0  0  0  0  0  0  0  0  0
   11.3600    4.6690   11.0390 N   0  0  0  0  0  0  0  0  0  0  0  0
    9.9630    4.8510   10.7100 C   0  0  0  0  0  0  0  0  0  0  0  0
    9.4280    6.1840   11.1310 C   0  0  2  0  0  0  0  0  0  0  0  0
   10.4310    6.7700   12.1290 C   0  0  0  0  0  0  0  0  0  0  0  0
   11.6710    7.0840   11.3200 C   0  0  0  0  0  0  0  0  0  0  0  0
   12.2620    5.7760   10.8610 C   0  0  0  0  0  0  0  0  0  0  0  0
    8.0600    6.1060   11.7360 C   0  0  0  0  0  0  0  0  0  0  0  0
    7.7600    6.1190   13.0620 N   0  0  0  0  0  0  0  0  0  0  0  0
    6.4390    6.0340   13.2380 C   0  0  0  0  0  0  0  0  0  0  0  0
    5.9180    5.9680   11.9760 N   0  0  0  0  0  0  0  0  0  0  0  0
    6.8900    6.0110   11.0850 N   0  0  0  0  0  0  0  0  0  0  0  0
    6.0580    6.0440   14.6810 C   0  0  0  0  0  0  0  0  0  0  0  0
    7.3300    6.4910   15.3330 C   0  0  0  0  0  0  0  0  0  0  0  0
    8.4370    6.1950   14.3440 C   0  0  0  0  0  0  0  0  0  0  0  0
    9.1030    0.4130    7.5020 H   0  0  0  0  0  0  0  0  0  0  0  0
    9.2380    0.6850    9.1950 H   0  0  0  0  0  0  0  0  0  0  0  0
   10.4670    1.4660   10.2060 H   0  0  0  0  0  0  0  0  0  0  0  0
   15.2920    1.4320    9.2610 H   0  0  0  0  0  0  0  0  0  0  0  0
   13.7740   -0.2530    8.1830 H   0  0  0  0  0  0  0  0  0  0  0  0
    9.3310    4.0060   11.0440 H   0  0  0  0  0  0  0  0  0  0  0  0
    9.9090    4.8260    9.5840 H   0  0  0  0  0  0  0  0  0  0  0  0
    9.3870    6.9280   10.3100 H   0  0  0  0  0  0  0  0  0  0  0  0
   10.0070    7.6650   12.6130 H   0  0  0  0  0  0  0  0  0  0  0  0
   10.6820    6.0140   12.8910 H   0  0  0  0  0  0  0  0  0  0  0  0
   11.3600    7.7240   10.4530 H   0  0  0  0  0  0  0  0  0  0  0  0
   12.3620    7.6680   11.9580 H   0  0  0  0  0  0  0  0  0  0  0  0
   13.1570    5.5920   11.5200 H   0  0  0  0  0  0  0  0  0  0  0  0
   12.6270    5.8670    9.8100 H   0  0  0  0  0  0  0  0  0  0  0  0
    5.2660    6.8040   14.8890 H   0  0  0  0  0  0  0  0  0  0  0  0
    5.7460    5.0220   14.9770 H   0  0  0  0  0  0  0  0  0  0  0  0
    7.3270    7.5850   15.5920 H   0  0  0  0  0  0  0  0  0  0  0  0
    7.4680    5.9180   16.2790 H   0  0  0  0  0  0  0  0  0  0  0  0
    8.8810    5.2230   14.6410 H   0  0  0  0  0  0  0  0  0  0  0  0
    9.2210    6.9510   14.3800 H   0  0  0  0  0  0  0  0  0  0  0  0
  1  4  1  0  0  0  0
  1  5  1  0  0  0  0
  1  2  2  0  0  0  0
  3  1  2  0  0  0  0
  4 29  1  0  0  0  0
  5  6  1  0  0  0  0
  6 30  1  0  0  0  0
  6  7  2  0  0  0  0
  7 12  1  0  0  0  0
  8  7  1  0  0  0  0
  8 11  1  0  0  0  0
  9  8  2  0  0  0  0
 10  5  2  0  0  0  0
 10  9  1  0  0  0  0
 12 13  2  0  0  0  0
 14 12  1  0  0  0  0
 15 14  1  0  0  0  0
 15 33  1  0  0  0  0
 15 16  1  0  0  0  0
 16 35  1  6  0  0  0
 16 20  1  0  0  0  0
 16 17  1  0  0  0  0
 17 36  1  0  0  0  0
 17 37  1  0  0  0  0
 18 39  1  0  0  0  0
 18 17  1  0  0  0  0
 19 14  1  0  0  0  0
 19 18  1  0  0  0  0
 19 40  1  0  0  0  0
 20 21  1  0  0  0  0
 21 22  1  0  0  0  0
 21 27  1  0  0  0  0
 22 25  1  0  0  0  0
 23 22  2  0  0  0  0
 24 20  2  0  0  0  0
 24 23  1  0  0  0  0
 25 42  1  0  0  0  0
 25 43  1  0  0  0  0
 25 26  1  0  0  0  0
 26 44  1  0  0  0  0
 26 45  1  0  0  0  0
 27 47  1  0  0  0  0
 27 46  1  0  0  0  0
 27 26  1  0  0  0  0
 28  4  1  0  0  0  0
 31  9  1  0  0  0  0
 32 10  1  0  0  0  0
 34 15  1  0  0  0  0
 38 18  1  0  0  0  0
 41 19  1  0  0  0  0
M  END
>  <Pose>
1

>  <Score>
-7.59

$$$$
