
 OpenBabel03172210413D

 54 57  0  0  0  0  0  0  0  0999 V2000
   10.4800    5.3450    9.5160 S   0  0  0  0  0  0  0  0  0  0  0  0
    9.3150    5.3660    8.5350 O   0  0  0  0  0  0  0  0  0  0  0  0
   11.4390    6.3820    9.0370 O   0  0  0  0  0  0  0  0  0  0  0  0
   11.1380    3.7560    9.4250 N   0  0  0  0  0  0  0  0  0  0  0  0
   10.8740    2.9710   10.6150 C   0  0  0  0  0  0  0  0  0  0  0  0
   11.5830    1.6400   10.4130 C   0  0  0  0  0  0  0  0  0  0  0  0
   12.9850    1.6890   10.9600 C   0  0  0  0  0  0  0  0  0  0  0  0
   13.8970    1.7430    9.8800 N   0  0  0  0  0  0  0  0  0  0  0  0
   15.2680    1.5580   10.1960 C   0  0  0  0  0  0  0  0  0  0  0  0
   16.1040    2.1400    9.0680 C   0  0  0  0  0  0  0  0  0  0  0  0
   15.5790    1.8220    7.8320 O   0  0  0  0  0  0  0  0  0  0  0  0
   14.6950    0.7500    7.8630 C   0  0  0  0  0  0  0  0  0  0  0  0
   13.4600    1.2150    8.6400 C   0  0  0  0  0  0  0  0  0  0  0  0
    9.9040    5.6810   11.1270 C   0  0  0  0  0  0  0  0  0  0  0  0
    8.5640    6.0300   11.3210 C   0  0  0  0  0  0  0  0  0  0  0  0
    8.0890    6.3040   12.5840 C   0  0  0  0  0  0  0  0  0  0  0  0
    8.8940    6.2490   13.7080 C   0  0  0  0  0  0  0  0  0  0  0  0
   10.2050    5.9090   13.5290 C   0  0  0  0  0  0  0  0  0  0  0  0
   10.6960    5.6300   12.2490 C   0  0  0  0  0  0  0  0  0  0  0  0
   12.5350    5.1430   12.0080 B   0  0  0  0  0  0  0  0  0  0  0  0
    8.0820    6.5830   14.9120 C   0  0  0  0  0  0  0  0  0  0  0  0
    6.6480    6.3310   14.4000 C   0  0  0  0  0  0  0  0  0  0  0  0
    6.7620    6.6840   12.9940 N   0  0  0  0  0  0  0  0  0  0  0  0
    5.8160    7.2890   12.1350 C   0  0  0  0  0  0  0  0  0  0  0  0
    5.5620    6.8520   10.9890 O   0  0  0  0  0  0  0  0  0  0  0  0
    5.0940    8.4940   12.6080 C   0  0  0  0  0  0  0  0  0  0  0  0
    4.2300    8.2790   13.7830 C   0  0  0  0  0  0  0  0  0  0  0  0
    3.6220    8.5990   12.4390 C   0  0  0  0  0  0  0  0  0  0  0  0
   10.7480    3.2940    8.5810 H   0  0  0  0  0  0  0  0  0  0  0  0
    9.8060    2.8490   10.8340 H   0  0  0  0  0  0  0  0  0  0  0  0
   11.4310    3.4850   11.4500 H   0  0  0  0  0  0  0  0  0  0  0  0
   11.0260    0.8050   10.8970 H   0  0  0  0  0  0  0  0  0  0  0  0
   11.6650    1.5070    9.3070 H   0  0  0  0  0  0  0  0  0  0  0  0
   13.2150    0.7650   11.5580 H   0  0  0  0  0  0  0  0  0  0  0  0
   13.1060    2.5440   11.6390 H   0  0  0  0  0  0  0  0  0  0  0  0
   15.4850    0.4740   10.2420 H   0  0  0  0  0  0  0  0  0  0  0  0
   15.4830    2.0630   11.1520 H   0  0  0  0  0  0  0  0  0  0  0  0
   16.1300    3.2480    9.1640 H   0  0  0  0  0  0  0  0  0  0  0  0
   17.1560    1.8040    9.1860 H   0  0  0  0  0  0  0  0  0  0  0  0
   14.4420    0.4890    6.8180 H   0  0  0  0  0  0  0  0  0  0  0  0
   15.1310   -0.1560    8.3380 H   0  0  0  0  0  0  0  0  0  0  0  0
   12.8920    1.9050    8.0110 H   0  0  0  0  0  0  0  0  0  0  0  0
   12.8420    0.2940    8.7670 H   0  0  0  0  0  0  0  0  0  0  0  0
    7.9150    6.0770   10.4410 H   0  0  0  0  0  0  0  0  0  0  0  0
   10.9050    5.8440   14.3570 H   0  0  0  0  0  0  0  0  0  0  0  0
    8.1890    7.6190   15.2370 H   0  0  0  0  0  0  0  0  0  0  0  0
    8.2600    5.9070   15.7570 H   0  0  0  0  0  0  0  0  0  0  0  0
    6.4300    5.2430   14.4320 H   0  0  0  0  0  0  0  0  0  0  0  0
    5.9280    6.9250   14.9590 H   0  0  0  0  0  0  0  0  0  0  0  0
    5.6650    9.4580   12.5510 H   0  0  0  0  0  0  0  0  0  0  0  0
    3.9630    7.2390   14.1150 H   0  0  0  0  0  0  0  0  0  0  0  0
    4.1770    9.0020   14.5970 H   0  0  0  0  0  0  0  0  0  0  0  0
    3.0490    7.8480   11.8760 H   0  0  0  0  0  0  0  0  0  0  0  0
    3.2000    9.6230   12.3890 H   0  0  0  0  0  0  0  0  0  0  0  0
  1 14  1  0  0  0  0
  2  1  2  0  0  0  0
  3  1  2  0  0  0  0
  4  1  1  0  0  0  0
  4  5  1  0  0  0  0
  5 30  1  0  0  0  0
  5 31  1  0  0  0  0
  6  5  1  0  0  0  0
  6 32  1  0  0  0  0
  6  7  1  0  0  0  0
  7 34  1  0  0  0  0
  7 35  1  0  0  0  0
  8  9  1  0  0  0  0
  8  7  1  0  0  0  0
  9 36  1  0  0  0  0
  9 37  1  0  0  0  0
 10 38  1  0  0  0  0
 10 39  1  0  0  0  0
 10  9  1  0  0  0  0
 11 12  1  0  0  0  0
 11 10  1  0  0  0  0
 12 41  1  0  0  0  0
 12 13  1  0  0  0  0
 13 43  1  0  0  0  0
 13  8  1  0  0  0  0
 14 15  2  0  0  0  0
 14 19  1  0  0  0  0
 15 16  1  0  0  0  0
 16 23  1  0  0  0  0
 16 17  2  0  0  0  0
 17 21  1  0  0  0  0
 18 17  1  0  0  0  0
 18 45  1  0  0  0  0
 19 18  2  0  0  0  0
 20 19  1  0  0  0  0
 21 46  1  0  0  0  0
 21 47  1  0  0  0  0
 22 48  1  0  0  0  0
 22 21  1  0  0  0  0
 22 49  1  0  0  0  0
 23 22  1  0  0  0  0
 24 26  1  0  0  0  0
 24 23  1  0  0  0  0
 25 24  2  0  0  0  0
 26 27  1  0  0  0  0
 27 51  1  0  0  0  0
 27 52  1  0  0  0  0
 28 26  1  0  0  0  0
 28 27  1  0  0  0  0
 29  4  1  0  0  0  0
 33  6  1  0  0  0  0
 40 12  1  0  0  0  0
 42 13  1  0  0  0  0
 44 15  1  0  0  0  0
 50 26  1  0  0  0  0
 53 28  1  0  0  0  0
 54 28  1  0  0  0  0
M  END
>  <Pose>
1

>  <Score>
-7.08

$$$$
