
 OpenBabel03172210413D

 54 57  0  0  0  0  0  0  0  0999 V2000
   12.4590    3.8260   11.4250 S   0  0  0  0  0  0  0  0  0  0  0  0
   11.2510    3.4740   12.2940 O   0  0  0  0  0  0  0  0  0  0  0  0
   13.6010    3.9350   12.4080 O   0  0  0  0  0  0  0  0  0  0  0  0
   12.1520    5.3110   10.7120 N   0  0  0  0  0  0  0  0  0  0  0  0
   12.6290    6.4970   11.2640 C   0  0  0  0  0  0  0  0  0  0  0  0
   11.7670    7.1110   12.2980 C   0  0  0  0  0  0  0  0  0  0  0  0
   12.2530    7.8410   13.1950 O   0  0  0  0  0  0  0  0  0  0  0  0
   10.3750    6.8270   12.2100 N   0  0  0  0  0  0  0  0  0  0  0  0
    9.9240    6.2330   11.0040 C   0  0  0  0  0  0  0  0  0  0  0  0
    8.7230    6.4200   10.6610 O   0  0  0  0  0  0  0  0  0  0  0  0
   10.8120    5.4140   10.1530 C   0  0  0  0  0  0  0  0  0  0  0  0
    9.4900    7.1460   13.3100 C   0  0  0  0  0  0  0  0  0  0  0  0
    9.0670    8.5730   13.3760 C   0  0  0  0  0  0  0  0  0  0  0  0
    7.6280    8.8180   13.3020 C   0  0  0  0  0  0  0  0  0  0  0  0
    6.9550    9.5090   14.2710 C   0  0  0  0  0  0  0  0  0  0  0  0
    5.6080    9.7000   14.1430 C   0  0  0  0  0  0  0  0  0  0  0  0
    4.8950    9.2110   13.0540 C   0  0  0  0  0  0  0  0  0  0  0  0
    5.5910    8.5230   12.0980 C   0  0  0  0  0  0  0  0  0  0  0  0
    6.9450    8.3130   12.1950 C   0  0  0  0  0  0  0  0  0  0  0  0
   12.7020    2.4700   10.3580 C   0  0  0  0  0  0  0  0  0  0  0  0
   11.5830    1.7240    9.9670 C   0  0  0  0  0  0  0  0  0  0  0  0
   11.6500    0.5950    9.1830 C   0  0  0  0  0  0  0  0  0  0  0  0
   12.8720    0.1410    8.7350 C   0  0  0  0  0  0  0  0  0  0  0  0
   13.9800    0.8610    9.1070 C   0  0  0  0  0  0  0  0  0  0  0  0
   13.9060    2.0130    9.9070 C   0  0  0  0  0  0  0  0  0  0  0  0
   15.5140    2.9910   10.2750 B   0  0  0  0  0  0  0  0  0  0  0  0
   12.7040   -1.0780    7.9080 C   0  0  0  0  0  0  0  0  0  0  0  0
   11.2170   -1.0100    7.5560 C   0  0  0  0  0  0  0  0  0  0  0  0
   10.6420   -0.2890    8.6870 N   0  0  0  0  0  0  0  0  0  0  0  0
    9.3360   -0.4730    9.1730 C   0  0  0  0  0  0  0  0  0  0  0  0
    8.3800   -0.5880    8.3280 O   0  0  0  0  0  0  0  0  0  0  0  0
    8.9440   -0.5510   10.6010 C   0  0  0  0  0  0  0  0  0  0  0  0
   12.6990    7.2620   10.3980 H   0  0  0  0  0  0  0  0  0  0  0  0
   13.6680    6.4250   11.5880 H   0  0  0  0  0  0  0  0  0  0  0  0
   10.3260    4.4390    9.9860 H   0  0  0  0  0  0  0  0  0  0  0  0
   10.9090    5.9150    9.1720 H   0  0  0  0  0  0  0  0  0  0  0  0
    9.9650    6.8330   14.2760 H   0  0  0  0  0  0  0  0  0  0  0  0
    8.5550    6.5350   13.2340 H   0  0  0  0  0  0  0  0  0  0  0  0
    9.5420    9.0920   12.5120 H   0  0  0  0  0  0  0  0  0  0  0  0
    9.5290    9.0320   14.2810 H   0  0  0  0  0  0  0  0  0  0  0  0
    7.4740    9.8950   15.1150 H   0  0  0  0  0  0  0  0  0  0  0  0
    5.0270   10.2450   14.8900 H   0  0  0  0  0  0  0  0  0  0  0  0
    3.8220    9.3690   12.9610 H   0  0  0  0  0  0  0  0  0  0  0  0
    5.0740    8.1220   11.2270 H   0  0  0  0  0  0  0  0  0  0  0  0
    7.4390    7.7610   11.4080 H   0  0  0  0  0  0  0  0  0  0  0  0
   10.6220    2.1000   10.3250 H   0  0  0  0  0  0  0  0  0  0  0  0
   14.9720    0.5540    8.7860 H   0  0  0  0  0  0  0  0  0  0  0  0
   12.9040   -2.0090    8.4500 H   0  0  0  0  0  0  0  0  0  0  0  0
   13.3130   -1.0430    6.9770 H   0  0  0  0  0  0  0  0  0  0  0  0
   10.7940   -2.0230    7.4980 H   0  0  0  0  0  0  0  0  0  0  0  0
   11.0800   -0.4060    6.6510 H   0  0  0  0  0  0  0  0  0  0  0  0
    7.8950   -0.9560   10.6950 H   0  0  0  0  0  0  0  0  0  0  0  0
    8.8890    0.4430   11.0880 H   0  0  0  0  0  0  0  0  0  0  0  0
    9.6470   -1.1970   11.1770 H   0  0  0  0  0  0  0  0  0  0  0  0
  1  2  2  0  0  0  0
  1  3  2  0  0  0  0
  4  5  1  0  0  0  0
  4  1  1  0  0  0  0
  5 34  1  0  0  0  0
  5  6  1  0  0  0  0
  6  7  2  0  0  0  0
  8  6  1  0  0  0  0
  8 12  1  0  0  0  0
  9  8  1  0  0  0  0
 10  9  2  0  0  0  0
 11  4  1  0  0  0  0
 11  9  1  0  0  0  0
 12 13  1  0  0  0  0
 12 37  1  0  0  0  0
 13 40  1  0  0  0  0
 14 13  1  0  0  0  0
 14 15  1  0  0  0  0
 15 41  1  0  0  0  0
 16 15  2  0  0  0  0
 16 42  1  0  0  0  0
 17 16  1  0  0  0  0
 18 19  1  0  0  0  0
 18 17  2  0  0  0  0
 19 14  2  0  0  0  0
 20  1  1  0  0  0  0
 21 46  1  0  0  0  0
 21 20  1  0  0  0  0
 22 21  2  0  0  0  0
 23 24  2  0  0  0  0
 23 22  1  0  0  0  0
 24 25  1  0  0  0  0
 25 26  1  0  0  0  0
 25 20  2  0  0  0  0
 27 48  1  0  0  0  0
 27 23  1  0  0  0  0
 28 27  1  0  0  0  0
 28 29  1  0  0  0  0
 29 30  1  0  0  0  0
 29 22  1  0  0  0  0
 30 32  1  0  0  0  0
 31 30  2  0  0  0  0
 32 52  1  0  0  0  0
 32 53  1  0  0  0  0
 32 54  1  0  0  0  0
 33  5  1  0  0  0  0
 35 11  1  0  0  0  0
 36 11  1  0  0  0  0
 38 12  1  0  0  0  0
 39 13  1  0  0  0  0
 43 17  1  0  0  0  0
 44 18  1  0  0  0  0
 45 19  1  0  0  0  0
 47 24  1  0  0  0  0
 49 27  1  0  0  0  0
 50 28  1  0  0  0  0
 51 28  1  0  0  0  0
M  END
>  <Pose>
1

>  <Score>
-6.06

$$$$
