
 OpenBabel03172210413D

 41 44  0  0  0  0  0  0  0  0999 V2000
   12.6900    2.3900   10.4520 S   0  0  0  0  0  0  0  0  0  0  0  0
   13.4740    1.7340   11.5520 O   0  0  0  0  0  0  0  0  0  0  0  0
   13.6860    3.1550    9.6150 O   0  0  0  0  0  0  0  0  0  0  0  0
   11.5250    3.4020   11.1380 N   0  0  0  0  0  0  0  0  0  0  0  0
   11.9310    4.5930   11.7940 C   0  0  0  0  0  0  0  0  0  0  0  0
   11.3110    5.4240   10.7390 C   0  0  0  0  0  0  0  0  0  0  0  0
   10.7470    4.1500   10.2150 C   0  0  0  0  0  0  0  0  0  0  0  0
   10.2860    6.3560   11.1680 N   0  0  0  0  0  0  0  0  0  0  0  0
   10.0350    7.5560   10.7130 N   0  0  0  0  0  0  0  0  0  0  0  0
    9.0040    8.0990   11.3730 N   0  0  0  0  0  0  0  0  0  0  0  0
    8.5700    7.2190   12.2920 C   0  0  0  0  0  0  0  0  0  0  0  0
    9.3980    6.1150   12.1470 C   0  0  0  0  0  0  0  0  0  0  0  0
    7.4390    7.3830   13.2650 C   0  0  0  0  0  0  0  0  0  0  0  0
    6.2460    7.7140   12.5070 N   0  0  0  0  0  0  0  0  0  0  0  0
    5.7100    6.9510   11.4210 C   0  0  0  0  0  0  0  0  0  0  0  0
    4.4390    7.6420   11.0160 C   0  0  0  0  0  0  0  0  0  0  0  0
    4.1110    8.6710   12.0490 C   0  0  0  0  0  0  0  0  0  0  0  0
    5.4330    8.8590   12.7420 C   0  0  0  0  0  0  0  0  0  0  0  0
    5.7200    9.8730   13.4040 O   0  0  0  0  0  0  0  0  0  0  0  0
   12.0100    1.0940    9.4700 C   0  0  0  0  0  0  0  0  0  0  0  0
   10.3560    0.7550    9.1730 S   0  0  0  0  0  0  0  0  0  0  0  0
   10.5330   -0.6120    8.1640 C   0  0  0  0  0  0  0  0  0  0  0  0
   11.8930   -0.7610    8.0920 C   0  0  0  0  0  0  0  0  0  0  0  0
   12.6440    0.1160    8.7620 C   0  0  0  0  0  0  0  0  0  0  0  0
    9.1810   -1.6950    7.3210 B   0  0  0  0  0  0  0  0  0  0  0  0
   13.0500    4.6380   11.8710 H   0  0  0  0  0  0  0  0  0  0  0  0
   11.4840    4.6920   12.8150 H   0  0  0  0  0  0  0  0  0  0  0  0
   12.0880    5.9140   10.1190 H   0  0  0  0  0  0  0  0  0  0  0  0
   10.8920    3.9490    9.1370 H   0  0  0  0  0  0  0  0  0  0  0  0
    9.6620    4.0530   10.4460 H   0  0  0  0  0  0  0  0  0  0  0  0
    9.3070    5.2130   12.7550 H   0  0  0  0  0  0  0  0  0  0  0  0
    7.2820    6.4480   13.8520 H   0  0  0  0  0  0  0  0  0  0  0  0
    7.6800    8.2270   13.9230 H   0  0  0  0  0  0  0  0  0  0  0  0
    6.4270    6.9320   10.5710 H   0  0  0  0  0  0  0  0  0  0  0  0
    5.4360    5.9020   11.7160 H   0  0  0  0  0  0  0  0  0  0  0  0
    4.5230    8.0640    9.9900 H   0  0  0  0  0  0  0  0  0  0  0  0
    3.5720    6.9300   10.9720 H   0  0  0  0  0  0  0  0  0  0  0  0
    3.8070    9.6320   11.5610 H   0  0  0  0  0  0  0  0  0  0  0  0
    3.3190    8.3670   12.7590 H   0  0  0  0  0  0  0  0  0  0  0  0
   12.3090   -1.5910    7.4870 H   0  0  0  0  0  0  0  0  0  0  0  0
   13.7510    0.0850    8.7710 H   0  0  0  0  0  0  0  0  0  0  0  0
  1  4  1  0  0  0  0
  1  2  2  0  0  0  0
  3  1  2  0  0  0  0
  4  5  1  0  0  0  0
  5 26  1  0  0  0  0
  5 27  1  0  0  0  0
  6  8  1  0  0  0  0
  6  5  1  0  0  0  0
  7 30  1  0  0  0  0
  7  6  1  0  0  0  0
  7  4  1  0  0  0  0
  8 12  1  0  0  0  0
  9  8  1  0  0  0  0
  9 10  2  0  0  0  0
 10 11  1  0  0  0  0
 11 13  1  0  0  0  0
 12 11  2  0  0  0  0
 12 31  1  0  0  0  0
 13 32  1  0  0  0  0
 13 33  1  0  0  0  0
 14 18  1  0  0  0  0
 14 13  1  0  0  0  0
 15 35  1  0  0  0  0
 15 14  1  0  0  0  0
 16 15  1  0  0  0  0
 16 17  1  0  0  0  0
 17 18  1  0  0  0  0
 17 39  1  0  0  0  0
 18 19  2  0  0  0  0
 20  1  1  0  0  0  0
 21 20  1  0  0  0  0
 22 21  1  0  0  0  0
 23 22  2  0  0  0  0
 23 24  1  0  0  0  0
 24 41  1  0  0  0  0
 24 20  2  0  0  0  0
 25 22  1  0  0  0  0
 28  6  1  0  0  0  0
 29  7  1  0  0  0  0
 34 15  1  0  0  0  0
 36 16  1  0  0  0  0
 37 16  1  0  0  0  0
 38 17  1  0  0  0  0
 40 23  1  0  0  0  0
M  END
>  <Pose>
1

>  <Score>
-6.73

$$$$
