
 OpenBabel03172210413D

 60 64  0  0  0  0  0  0  0  0999 V2000
   12.0850    3.8310   11.6250 S   0  0  0  0  0  0  0  0  0  0  0  0
   11.1910    3.2060   12.6250 O   0  0  0  0  0  0  0  0  0  0  0  0
   13.2560    4.3910   12.4400 O   0  0  0  0  0  0  0  0  0  0  0  0
   11.4030    5.2100   10.8520 N   0  0  0  0  0  0  0  0  0  0  0  0
   11.9470    6.4500   11.2850 C   0  0  0  0  0  0  0  0  0  0  0  0
   11.2520    7.0460   12.5020 C   0  0  0  0  0  0  0  0  0  0  0  0
    9.8500    7.0860   12.2580 N   0  0  0  0  0  0  0  0  0  0  0  0
    9.2840    5.7210   12.0090 C   0  0  0  0  0  0  0  0  0  0  0  0
    9.9810    5.1910   10.8020 C   0  0  0  0  0  0  0  0  0  0  0  0
    8.9550    8.1360   12.2120 C   0  0  0  0  0  0  0  0  0  0  0  0
    8.9950    8.9430   13.2540 O   0  0  0  0  0  0  0  0  0  0  0  0
    7.9800    8.5110   11.2290 C   0  0  0  0  0  0  0  0  0  0  0  0
    6.5980    8.4070   11.5280 N   0  0  0  0  0  0  0  0  0  0  0  0
    5.6390    7.8700   10.7760 N   0  0  0  0  0  0  0  0  0  0  0  0
    4.4580    7.9170   11.4050 C   0  0  0  0  0  0  0  0  0  0  0  0
    4.6970    8.5180   12.6160 C   0  0  0  0  0  0  0  0  0  0  0  0
    6.0240    8.8200   12.6880 C   0  0  0  0  0  0  0  0  0  0  0  0
    3.3880    8.8750   13.9790 B   0  0  0  0  0  0  0  0  0  0  0  0
   12.8000    2.7300   10.4900 C   0  0  0  0  0  0  0  0  0  0  0  0
   14.1840    2.6770   10.2720 C   0  0  0  0  0  0  0  0  0  0  0  0
   14.7450    1.8000    9.3660 C   0  0  0  0  0  0  0  0  0  0  0  0
   13.9600    0.9330    8.6340 C   0  0  0  0  0  0  0  0  0  0  0  0
   12.6090    0.9790    8.8400 C   0  0  0  0  0  0  0  0  0  0  0  0
   12.0570    1.8680    9.7560 C   0  0  0  0  0  0  0  0  0  0  0  0
   10.5890    1.8090    9.8600 C   0  0  0  0  0  0  0  0  0  0  0  0
   10.1160    0.3800   10.0150 C   0  0  0  0  0  0  0  0  0  0  0  0
   10.8040   -0.4830    9.1320 N   0  0  0  0  0  0  0  0  0  0  0  0
   11.6360    0.1130    8.1360 C   0  0  0  0  0  0  0  0  0  0  0  0
   11.2710   -1.7120    9.6700 C   0  0  0  0  0  0  0  0  0  0  0  0
   14.5260    0.0350    7.7060 O   0  0  0  0  0  0  0  0  0  0  0  0
   14.4560    0.3570    6.3090 C   0  0  0  0  0  0  0  0  0  0  0  0
   16.1080    1.9980    9.3890 O   0  0  0  0  0  0  0  0  0  0  0  0
   16.3950    3.0940   10.2110 C   0  0  0  0  0  0  0  0  0  0  0  0
   15.1860    3.4330   10.8730 O   0  0  0  0  0  0  0  0  0  0  0  0
   13.0140    6.3170   11.5520 H   0  0  0  0  0  0  0  0  0  0  0  0
   11.8640    7.2000   10.4730 H   0  0  0  0  0  0  0  0  0  0  0  0
   11.7630    7.9690   12.7260 H   0  0  0  0  0  0  0  0  0  0  0  0
   11.3990    6.3840   13.3950 H   0  0  0  0  0  0  0  0  0  0  0  0
    8.2050    5.7980   11.7860 H   0  0  0  0  0  0  0  0  0  0  0  0
    9.4340    5.0770   12.8740 H   0  0  0  0  0  0  0  0  0  0  0  0
    9.6020    4.1770   10.5760 H   0  0  0  0  0  0  0  0  0  0  0  0
    9.6660    5.8250    9.9290 H   0  0  0  0  0  0  0  0  0  0  0  0
    8.1330    7.9210   10.2480 H   0  0  0  0  0  0  0  0  0  0  0  0
    8.2210    9.5760   10.8600 H   0  0  0  0  0  0  0  0  0  0  0  0
    3.5000    7.5470   11.0200 H   0  0  0  0  0  0  0  0  0  0  0  0
    6.5120    9.2970   13.5140 H   0  0  0  0  0  0  0  0  0  0  0  0
   10.1160    2.5160   10.5290 H   0  0  0  0  0  0  0  0  0  0  0  0
   10.2200    2.1060    8.8260 H   0  0  0  0  0  0  0  0  0  0  0  0
   10.3950    0.0860   11.0660 H   0  0  0  0  0  0  0  0  0  0  0  0
    9.0090    0.3110    9.9580 H   0  0  0  0  0  0  0  0  0  0  0  0
   12.1390   -0.6880    7.5670 H   0  0  0  0  0  0  0  0  0  0  0  0
   11.0750    0.7420    7.4120 H   0  0  0  0  0  0  0  0  0  0  0  0
   11.0020   -2.6070    9.0720 H   0  0  0  0  0  0  0  0  0  0  0  0
   10.9040   -1.7980   10.7220 H   0  0  0  0  0  0  0  0  0  0  0  0
   12.3830   -1.6830    9.7530 H   0  0  0  0  0  0  0  0  0  0  0  0
   13.8730    1.2880    6.1520 H   0  0  0  0  0  0  0  0  0  0  0  0
   13.9410   -0.4510    5.7570 H   0  0  0  0  0  0  0  0  0  0  0  0
   15.4830    0.4160    5.8700 H   0  0  0  0  0  0  0  0  0  0  0  0
   16.8160    3.9590    9.6800 H   0  0  0  0  0  0  0  0  0  0  0  0
   17.0860    2.7180   11.0150 H   0  0  0  0  0  0  0  0  0  0  0  0
  1  3  2  0  0  0  0
  1  2  2  0  0  0  0
  4  5  1  0  0  0  0
  4  1  1  0  0  0  0
  5 35  1  0  0  0  0
  5  6  1  0  0  0  0
  6 37  1  0  0  0  0
  6 38  1  0  0  0  0
  7  6  1  0  0  0  0
  8  7  1  0  0  0  0
  8 40  1  0  0  0  0
  9  4  1  0  0  0  0
  9  8  1  0  0  0  0
 10  7  1  0  0  0  0
 10 11  2  0  0  0  0
 12 13  1  0  0  0  0
 12 10  1  0  0  0  0
 13 17  1  0  0  0  0
 14 15  2  0  0  0  0
 14 13  1  0  0  0  0
 15 16  1  0  0  0  0
 16 17  2  0  0  0  0
 16 18  1  0  0  0  0
 17 46  1  0  0  0  0
 19  1  1  0  0  0  0
 20 19  1  0  0  0  0
 20 34  1  0  0  0  0
 21 32  1  0  0  0  0
 21 20  2  0  0  0  0
 22 23  2  0  0  0  0
 22 21  1  0  0  0  0
 23 24  1  0  0  0  0
 24 25  1  0  0  0  0
 24 19  2  0  0  0  0
 25 26  1  0  0  0  0
 25 47  1  0  0  0  0
 26 49  1  0  0  0  0
 27 29  1  0  0  0  0
 27 26  1  0  0  0  0
 28 23  1  0  0  0  0
 28 27  1  0  0  0  0
 29 55  1  0  0  0  0
 29 54  1  0  0  0  0
 30 22  1  0  0  0  0
 31 30  1  0  0  0  0
 32 33  1  0  0  0  0
 33 34  1  0  0  0  0
 33 60  1  0  0  0  0
 36  5  1  0  0  0  0
 39  8  1  0  0  0  0
 41  9  1  0  0  0  0
 42  9  1  0  0  0  0
 43 12  1  0  0  0  0
 44 12  1  0  0  0  0
 45 15  1  0  0  0  0
 48 25  1  0  0  0  0
 50 26  1  0  0  0  0
 51 28  1  0  0  0  0
 52 28  1  0  0  0  0
 53 29  1  0  0  0  0
 56 31  1  0  0  0  0
 57 31  1  0  0  0  0
 58 31  1  0  0  0  0
 59 33  1  0  0  0  0
M  END
>  <Pose>
1

>  <Score>
-7.33

$$$$
