
 OpenBabel03172210413D

 53 56  0  0  0  0  0  0  0  0999 V2000
   18.1190    5.8890   10.7390 S   0  0  0  0  0  0  0  0  0  0  0  0
   17.9990    7.1200   11.6190 O   0  0  0  0  0  0  0  0  0  0  0  0
   18.5060    6.3990    9.3730 O   0  0  0  0  0  0  0  0  0  0  0  0
   16.5690    5.1800   10.6570 N   0  0  0  0  0  0  0  0  0  0  0  0
   16.4550    4.1770    9.6190 C   0  0  0  0  0  0  0  0  0  0  0  0
   15.6790    2.9780   10.1020 C   0  0  0  0  0  0  0  0  0  0  0  0
   14.4120    3.4860   10.6690 N   0  0  0  0  0  0  0  0  0  0  0  0
   14.5530    4.4570   11.7090 C   0  0  0  0  0  0  0  0  0  0  0  0
   16.0680    4.7060   11.8990 C   0  0  0  0  0  0  0  0  0  0  0  0
   13.1790    3.0260   10.1870 C   0  0  0  0  0  0  0  0  0  0  0  0
   13.2510    1.9260    9.4640 O   0  0  0  0  0  0  0  0  0  0  0  0
   11.8310    3.5160   10.3230 C   0  0  0  0  0  0  0  0  0  0  0  0
   11.5860    4.8930   10.6160 N   0  0  0  0  0  0  0  0  0  0  0  0
   11.5630    6.0040    9.6830 C   0  0  0  0  0  0  0  0  0  0  0  0
   11.7510    5.8560    8.4430 O   0  0  0  0  0  0  0  0  0  0  0  0
   11.3030    7.1850   10.4230 N   0  0  0  0  0  0  0  0  0  0  0  0
   11.5950    6.9040   11.7880 C   0  0  0  0  0  0  0  0  0  0  0  0
   12.9980    7.2880   12.1930 C   0  0  0  0  0  0  0  0  0  0  0  0
   12.9110    7.1950   13.7050 C   0  0  0  0  0  0  0  0  0  0  0  0
   11.4720    7.4870   14.0580 C   0  0  0  0  0  0  0  0  0  0  0  0
   10.7600    7.7320   12.7500 C   0  0  0  0  0  0  0  0  0  0  0  0
   11.3310    5.4720   11.9130 C   0  0  0  0  0  0  0  0  0  0  0  0
   10.9570    4.8320   12.9280 O   0  0  0  0  0  0  0  0  0  0  0  0
   19.3420    4.8000   11.3480 C   0  0  0  0  0  0  0  0  0  0  0  0
   20.6900    5.0830   11.2570 C   0  0  0  0  0  0  0  0  0  0  0  0
   21.6560    4.2100   11.7440 C   0  0  0  0  0  0  0  0  0  0  0  0
   21.2960    3.0270   12.3370 C   0  0  0  0  0  0  0  0  0  0  0  0
   19.9520    2.7320   12.4350 C   0  0  0  0  0  0  0  0  0  0  0  0
   18.9940    3.6080   11.9470 C   0  0  0  0  0  0  0  0  0  0  0  0
   22.6270    1.8120   13.0160 B   0  0  0  0  0  0  0  0  0  0  0  0
   15.8210    4.6480    8.8130 H   0  0  0  0  0  0  0  0  0  0  0  0
   17.4440    3.8860    9.2220 H   0  0  0  0  0  0  0  0  0  0  0  0
   16.2770    2.4240   10.8210 H   0  0  0  0  0  0  0  0  0  0  0  0
   15.4650    2.3320    9.2240 H   0  0  0  0  0  0  0  0  0  0  0  0
   14.1170    4.1840   12.6760 H   0  0  0  0  0  0  0  0  0  0  0  0
   14.1210    5.4340   11.3390 H   0  0  0  0  0  0  0  0  0  0  0  0
   16.4800    3.7760   12.2860 H   0  0  0  0  0  0  0  0  0  0  0  0
   16.2090    5.4850   12.6830 H   0  0  0  0  0  0  0  0  0  0  0  0
   11.2840    2.9130   11.1400 H   0  0  0  0  0  0  0  0  0  0  0  0
   11.2000    3.2680    9.4020 H   0  0  0  0  0  0  0  0  0  0  0  0
   10.9570    8.0740    9.9680 H   0  0  0  0  0  0  0  0  0  0  0  0
   13.1400    8.3540   11.9360 H   0  0  0  0  0  0  0  0  0  0  0  0
   13.7630    6.6330   11.7700 H   0  0  0  0  0  0  0  0  0  0  0  0
   13.5700    7.9250   14.2120 H   0  0  0  0  0  0  0  0  0  0  0  0
   13.1980    6.1520   13.9650 H   0  0  0  0  0  0  0  0  0  0  0  0
   11.3820    8.3460   14.7520 H   0  0  0  0  0  0  0  0  0  0  0  0
   11.0410    6.5580   14.4980 H   0  0  0  0  0  0  0  0  0  0  0  0
   10.8800    8.7960   12.4090 H   0  0  0  0  0  0  0  0  0  0  0  0
    9.7090    7.4230   12.7640 H   0  0  0  0  0  0  0  0  0  0  0  0
   20.9770    6.0110   10.7920 H   0  0  0  0  0  0  0  0  0  0  0  0
   22.7160    4.4200   11.6780 H   0  0  0  0  0  0  0  0  0  0  0  0
   19.6920    1.7880   12.9110 H   0  0  0  0  0  0  0  0  0  0  0  0
   17.9340    3.3310   12.0460 H   0  0  0  0  0  0  0  0  0  0  0  0
  1 24  1  0  0  0  0
  1  2  2  0  0  0  0
  3  1  2  0  0  0  0
  4  1  1  0  0  0  0
  4  9  1  0  0  0  0
  5  6  1  0  0  0  0
  5  4  1  0  0  0  0
  6  7  1  0  0  0  0
  6 33  1  0  0  0  0
  7  8  1  0  0  0  0
  8  9  1  0  0  0  0
  8 35  1  0  0  0  0
  9 37  1  0  0  0  0
  9 38  1  0  0  0  0
 10 12  1  0  0  0  0
 10  7  1  0  0  0  0
 11 10  2  0  0  0  0
 12 13  1  0  0  0  0
 12 39  1  0  0  0  0
 13 22  1  0  0  0  0
 14 16  1  0  0  0  0
 14 13  1  0  0  0  0
 15 14  2  0  0  0  0
 16 17  1  0  0  0  0
 17 22  1  0  0  0  0
 17 18  1  0  0  0  0
 17 21  1  0  0  0  0
 18 19  1  0  0  0  0
 19 45  1  0  0  0  0
 19 20  1  0  0  0  0
 19 44  1  0  0  0  0
 20 47  1  0  0  0  0
 20 46  1  0  0  0  0
 21 49  1  0  0  0  0
 21 20  1  0  0  0  0
 22 23  2  0  0  0  0
 24 29  1  0  0  0  0
 25 24  2  0  0  0  0
 25 26  1  0  0  0  0
 26 27  2  0  0  0  0
 27 28  1  0  0  0  0
 27 30  1  0  0  0  0
 28 52  1  0  0  0  0
 29 53  1  0  0  0  0
 29 28  2  0  0  0  0
 31  5  1  0  0  0  0
 32  5  1  0  0  0  0
 34  6  1  0  0  0  0
 36  8  1  0  0  0  0
 40 12  1  0  0  0  0
 41 16  1  0  0  0  0
 42 18  1  0  0  0  0
 43 18  1  0  0  0  0
 48 21  1  0  0  0  0
 50 25  1  0  0  0  0
 51 26  1  0  0  0  0
M  END
>  <Pose>
1

>  <Score>
-6.11

$$$$
