
 OpenBabel03172210413D

 47 50  0  0  0  0  0  0  0  0999 V2000
   12.4590    5.6620   12.4070 S   0  0  0  0  0  0  0  0  0  0  0  0
   13.5470    6.5550   11.9540 O   0  0  0  0  0  0  0  0  0  0  0  0
   12.8320    5.1810   13.8040 O   0  0  0  0  0  0  0  0  0  0  0  0
   10.9410    6.4010   12.5110 N   0  0  0  0  0  0  0  0  0  0  0  0
   10.1120    6.0340   13.5720 C   0  0  0  0  0  0  0  0  0  0  0  0
    8.6480    6.2070   13.3750 C   0  0  0  0  0  0  0  0  0  0  0  0
    8.2170    6.1560   12.0130 N   0  0  0  0  0  0  0  0  0  0  0  0
    9.2000    5.9380   10.9740 C   0  0  0  0  0  0  0  0  0  0  0  0
   10.3680    6.8620   11.3130 C   0  0  0  0  0  0  0  0  0  0  0  0
    6.8610    6.3110   11.6390 C   0  0  0  0  0  0  0  0  0  0  0  0
    6.3750    5.6510   10.6650 O   0  0  0  0  0  0  0  0  0  0  0  0
    5.9440    7.2140   12.3220 C   0  0  0  0  0  0  0  0  0  0  0  0
    5.7620    7.1870   13.6920 C   0  0  0  0  0  0  0  0  0  0  0  0
    4.9000    8.0360   14.3470 C   0  0  0  0  0  0  0  0  0  0  0  0
    4.1880    8.9520   13.5890 C   0  0  0  0  0  0  0  0  0  0  0  0
    4.3290    9.0250   12.2230 C   0  0  0  0  0  0  0  0  0  0  0  0
    5.2050    8.1530   11.6150 C   0  0  0  0  0  0  0  0  0  0  0  0
    6.7760    5.8990   14.6720 B   0  0  0  0  0  0  0  0  0  0  0  0
   12.3620    4.2090   11.4190 C   0  0  0  0  0  0  0  0  0  0  0  0
   13.4460    3.7590   10.6930 C   0  0  0  0  0  0  0  0  0  0  0  0
   13.4020    2.6240    9.9100 C   0  0  0  0  0  0  0  0  0  0  0  0
   12.2420    1.8810    9.8240 C   0  0  0  0  0  0  0  0  0  0  0  0
   11.1520    2.3300   10.5530 C   0  0  0  0  0  0  0  0  0  0  0  0
   11.2030    3.4650   11.3340 C   0  0  0  0  0  0  0  0  0  0  0  0
   12.1670    0.7300    9.0420 O   0  0  0  0  0  0  0  0  0  0  0  0
   13.1420    0.3530    8.0880 C   0  0  0  0  0  0  0  0  0  0  0  0
   14.4590    0.9850    8.3540 C   0  0  0  0  0  0  0  0  0  0  0  0
   15.4710    0.4400    7.8460 O   0  0  0  0  0  0  0  0  0  0  0  0
   14.5150    2.1570    9.1590 N   0  0  0  0  0  0  0  0  0  0  0  0
   10.4110    6.6220   14.4880 H   0  0  0  0  0  0  0  0  0  0  0  0
   10.3320    4.9610   13.8470 H   0  0  0  0  0  0  0  0  0  0  0  0
    8.2950    7.1270   13.9020 H   0  0  0  0  0  0  0  0  0  0  0  0
    8.1170    5.3660   13.9120 H   0  0  0  0  0  0  0  0  0  0  0  0
    8.7960    6.1580    9.9670 H   0  0  0  0  0  0  0  0  0  0  0  0
    9.5630    4.9040   10.9980 H   0  0  0  0  0  0  0  0  0  0  0  0
   11.0560    6.8110   10.4620 H   0  0  0  0  0  0  0  0  0  0  0  0
    9.9500    7.8890   11.4690 H   0  0  0  0  0  0  0  0  0  0  0  0
    4.7640    8.0040   15.4380 H   0  0  0  0  0  0  0  0  0  0  0  0
    3.5070    9.6200   14.1220 H   0  0  0  0  0  0  0  0  0  0  0  0
    3.7540    9.7580   11.6520 H   0  0  0  0  0  0  0  0  0  0  0  0
    5.3200    8.2040   10.5430 H   0  0  0  0  0  0  0  0  0  0  0  0
   14.3580    4.3300   10.7500 H   0  0  0  0  0  0  0  0  0  0  0  0
   10.2380    1.7480   10.4880 H   0  0  0  0  0  0  0  0  0  0  0  0
   10.3550    3.8130   11.8990 H   0  0  0  0  0  0  0  0  0  0  0  0
   12.8240    0.6660    7.0550 H   0  0  0  0  0  0  0  0  0  0  0  0
   13.2030   -0.7520    8.0660 H   0  0  0  0  0  0  0  0  0  0  0  0
   15.3990    2.7070    9.2130 H   0  0  0  0  0  0  0  0  0  0  0  0
  1  4  1  0  0  0  0
  1  3  2  0  0  0  0
  2  1  2  0  0  0  0
  4  5  1  0  0  0  0
  5 31  1  0  0  0  0
  5 30  1  0  0  0  0
  6  5  1  0  0  0  0
  6 32  1  0  0  0  0
  6 33  1  0  0  0  0
  7  6  1  0  0  0  0
  8 35  1  0  0  0  0
  8  9  1  0  0  0  0
  8  7  1  0  0  0  0
  9 37  1  0  0  0  0
  9  4  1  0  0  0  0
 10  7  1  0  0  0  0
 10 12  1  0  0  0  0
 11 10  2  0  0  0  0
 12 13  1  0  0  0  0
 13 14  2  0  0  0  0
 13 18  1  0  0  0  0
 14 38  1  0  0  0  0
 15 39  1  0  0  0  0
 15 14  1  0  0  0  0
 16 15  2  0  0  0  0
 17 16  1  0  0  0  0
 17 12  2  0  0  0  0
 19  1  1  0  0  0  0
 20 42  1  0  0  0  0
 20 19  2  0  0  0  0
 21 20  1  0  0  0  0
 22 21  2  0  0  0  0
 22 23  1  0  0  0  0
 23 24  2  0  0  0  0
 24 19  1  0  0  0  0
 24 44  1  0  0  0  0
 25 22  1  0  0  0  0
 26 27  1  0  0  0  0
 26 25  1  0  0  0  0
 27 29  1  0  0  0  0
 28 27  2  0  0  0  0
 29 47  1  0  0  0  0
 29 21  1  0  0  0  0
 34  8  1  0  0  0  0
 36  9  1  0  0  0  0
 40 16  1  0  0  0  0
 41 17  1  0  0  0  0
 43 23  1  0  0  0  0
 45 26  1  0  0  0  0
 46 26  1  0  0  0  0
M  END
>  <Pose>
1

>  <Score>
-5.94

$$$$
