
 OpenBabel03172210413D

 45 48  0  0  0  0  0  0  0  0999 V2000
   14.4600    2.0320    9.9260 S   0  0  0  0  0  0  0  0  0  0  0  0
   14.6790    0.6420   10.4180 O   0  0  0  0  0  0  0  0  0  0  0  0
   14.6040    2.0450    8.4380 O   0  0  0  0  0  0  0  0  0  0  0  0
   12.9850    2.6500   10.3760 N   0  0  0  0  0  0  0  0  0  0  0  0
   12.6660    2.7240   11.7440 C   0  0  0  0  0  0  0  0  0  0  0  0
   11.3250    3.3490   12.0120 C   0  0  0  0  0  0  0  0  0  0  0  0
   10.8290    4.1500   10.9510 N   0  0  0  0  0  0  0  0  0  0  0  0
   10.7450    3.4110    9.7420 C   0  0  0  0  0  0  0  0  0  0  0  0
   11.9250    2.5620    9.4460 C   0  0  0  0  0  0  0  0  0  0  0  0
   11.4420    5.4240   10.9110 C   0  0  0  0  0  0  0  0  0  0  0  0
   10.7420    6.5000   11.5270 N   0  0  0  0  0  0  0  0  0  0  0  0
    9.4440    6.6470   11.3530 N   0  0  0  0  0  0  0  0  0  0  0  0
    8.7120    7.6340   11.8910 C   0  0  0  0  0  0  0  0  0  0  0  0
    9.3800    8.5440   12.6750 C   0  0  0  0  0  0  0  0  0  0  0  0
   10.7380    8.4460   12.8950 C   0  0  0  0  0  0  0  0  0  0  0  0
   11.4000    7.3860   12.2910 C   0  0  0  0  0  0  0  0  0  0  0  0
   12.6610    7.2970   12.4990 O   0  0  0  0  0  0  0  0  0  0  0  0
    7.3010    7.7660   11.6820 N   0  0  0  0  0  0  0  0  0  0  0  0
    6.6190    8.8270   11.2370 C   0  0  0  0  0  0  0  0  0  0  0  0
    5.3120    8.5100   11.1960 N   0  0  0  0  0  0  0  0  0  0  0  0
    5.1500    7.2420   11.6170 C   0  0  0  0  0  0  0  0  0  0  0  0
    6.4150    6.7860   11.9200 C   0  0  0  0  0  0  0  0  0  0  0  0
   15.7490    3.0420   10.6160 C   0  0  0  0  0  0  0  0  0  0  0  0
   15.6190    4.4120   11.6210 S   0  0  0  0  0  0  0  0  0  0  0  0
   17.2740    4.7630   11.8180 C   0  0  0  0  0  0  0  0  0  0  0  0
   17.8940    3.7850   11.0800 C   0  0  0  0  0  0  0  0  0  0  0  0
   17.0980    2.8980   10.4610 C   0  0  0  0  0  0  0  0  0  0  0  0
   18.1000    6.1730   12.8180 B   0  0  0  0  0  0  0  0  0  0  0  0
   12.7260    1.7090   12.1930 H   0  0  0  0  0  0  0  0  0  0  0  0
   13.4350    3.3350   12.2760 H   0  0  0  0  0  0  0  0  0  0  0  0
   11.3540    3.9500   12.9410 H   0  0  0  0  0  0  0  0  0  0  0  0
   10.5940    2.5290   12.2000 H   0  0  0  0  0  0  0  0  0  0  0  0
   10.4300    4.0470    8.8640 H   0  0  0  0  0  0  0  0  0  0  0  0
    9.8580    2.7170    9.8620 H   0  0  0  0  0  0  0  0  0  0  0  0
   12.3110    2.8430    8.4310 H   0  0  0  0  0  0  0  0  0  0  0  0
   11.6520    1.4780    9.3390 H   0  0  0  0  0  0  0  0  0  0  0  0
   12.4260    5.3290   11.4620 H   0  0  0  0  0  0  0  0  0  0  0  0
   11.7620    5.7100    9.8690 H   0  0  0  0  0  0  0  0  0  0  0  0
    8.8270    9.3570   13.1280 H   0  0  0  0  0  0  0  0  0  0  0  0
   11.2740    9.1530   13.5080 H   0  0  0  0  0  0  0  0  0  0  0  0
    7.0620    9.7820   10.9570 H   0  0  0  0  0  0  0  0  0  0  0  0
    4.1980    6.6960   11.6960 H   0  0  0  0  0  0  0  0  0  0  0  0
    6.6260    5.7990   12.2870 H   0  0  0  0  0  0  0  0  0  0  0  0
   19.0110    3.7690   11.0280 H   0  0  0  0  0  0  0  0  0  0  0  0
   17.5290    2.0750    9.8450 H   0  0  0  0  0  0  0  0  0  0  0  0
  1  4  1  0  0  0  0
  1  2  2  0  0  0  0
  1 23  1  0  0  0  0
  3  1  2  0  0  0  0
  4  5  1  0  0  0  0
  5  6  1  0  0  0  0
  5 29  1  0  0  0  0
  5 30  1  0  0  0  0
  6 32  1  0  0  0  0
  6 31  1  0  0  0  0
  7  6  1  0  0  0  0
  8 34  1  0  0  0  0
  8  7  1  0  0  0  0
  9  8  1  0  0  0  0
  9  4  1  0  0  0  0
 10  7  1  0  0  0  0
 10 37  1  0  0  0  0
 10 11  1  0  0  0  0
 11 16  1  0  0  0  0
 12 11  1  0  0  0  0
 12 13  2  0  0  0  0
 13 14  1  0  0  0  0
 14 15  2  0  0  0  0
 14 39  1  0  0  0  0
 15 40  1  0  0  0  0
 16 17  2  0  0  0  0
 16 15  1  0  0  0  0
 18 13  1  0  0  0  0
 18 22  1  0  0  0  0
 19 18  1  0  0  0  0
 20 19  2  0  0  0  0
 20 21  1  0  0  0  0
 21 42  1  0  0  0  0
 21 22  2  0  0  0  0
 22 43  1  0  0  0  0
 23 24  1  0  0  0  0
 24 25  1  0  0  0  0
 25 28  1  0  0  0  0
 26 25  2  0  0  0  0
 27 23  2  0  0  0  0
 27 26  1  0  0  0  0
 33  8  1  0  0  0  0
 35  9  1  0  0  0  0
 36  9  1  0  0  0  0
 38 10  1  0  0  0  0
 41 19  1  0  0  0  0
 44 26  1  0  0  0  0
 45 27  1  0  0  0  0
M  END
>  <Pose>
1

>  <Score>
-6.46

$$$$
