
 OpenBabel03172210413D

 52 55  0  0  0  0  0  0  0  0999 V2000
   12.1050    3.0160   11.6740 S   0  0  0  0  0  0  0  0  0  0  0  0
   11.7590    2.2710   12.9360 O   0  0  0  0  0  0  0  0  0  0  0  0
   13.4220    3.7080   11.9370 O   0  0  0  0  0  0  0  0  0  0  0  0
   10.9570    4.2330   11.3100 N   0  0  0  0  0  0  0  0  0  0  0  0
   11.3280    5.5370   11.7620 C   0  0  0  0  0  0  0  0  0  0  0  0
   10.0570    6.3970   11.6520 C   0  0  0  0  0  0  0  0  0  0  0  0
    9.2380    5.9760   10.6000 N   0  0  0  0  0  0  0  0  0  0  0  0
    9.9060    5.4080    9.4610 C   0  0  0  0  0  0  0  0  0  0  0  0
   10.8990    4.3340    9.8410 C   0  0  0  0  0  0  0  0  0  0  0  0
    7.9360    5.5090   10.8330 C   0  0  0  0  0  0  0  0  0  0  0  0
    7.1170    6.2090   11.7690 N   0  0  0  0  0  0  0  0  0  0  0  0
    7.3000    6.0470   13.1670 N   0  0  0  0  0  0  0  0  0  0  0  0
    6.3340    6.8940   13.7830 C   0  0  0  0  0  0  0  0  0  0  0  0
    6.2050    7.0050   15.0990 C   0  0  0  0  0  0  0  0  0  0  0  0
    5.3150    7.7850   15.9880 C   0  0  0  0  0  0  0  0  0  0  0  0
    4.0000    8.0850   15.3090 C   0  0  0  0  0  0  0  0  0  0  0  0
    4.3010    9.1320   14.2510 C   0  0  0  0  0  0  0  0  0  0  0  0
    4.4820    8.5190   12.8970 C   0  0  0  0  0  0  0  0  0  0  0  0
    5.5570    7.5770   12.8110 N   0  0  0  0  0  0  0  0  0  0  0  0
    6.0610    7.1350   11.5550 C   0  0  0  0  0  0  0  0  0  0  0  0
    5.6110    7.5290   10.4510 O   0  0  0  0  0  0  0  0  0  0  0  0
   12.3470    1.8830   10.4010 C   0  0  0  0  0  0  0  0  0  0  0  0
   11.3840    1.1200    9.8090 C   0  0  0  0  0  0  0  0  0  0  0  0
   11.6860    0.2330    8.7860 C   0  0  0  0  0  0  0  0  0  0  0  0
   12.9620    0.0860    8.3270 C   0  0  0  0  0  0  0  0  0  0  0  0
   13.9620    0.8490    8.9090 C   0  0  0  0  0  0  0  0  0  0  0  0
   13.6510    1.7220    9.9210 C   0  0  0  0  0  0  0  0  0  0  0  0
   10.3120   -0.8320    7.9680 B   0  0  0  0  0  0  0  0  0  0  0  0
   11.7510    5.5700   12.7780 H   0  0  0  0  0  0  0  0  0  0  0  0
   12.0770    6.0140   11.0730 H   0  0  0  0  0  0  0  0  0  0  0  0
    9.5540    6.2790   12.6250 H   0  0  0  0  0  0  0  0  0  0  0  0
   10.3430    7.4750   11.5880 H   0  0  0  0  0  0  0  0  0  0  0  0
    9.1350    4.9270    8.8240 H   0  0  0  0  0  0  0  0  0  0  0  0
   10.3520    6.2260    8.8690 H   0  0  0  0  0  0  0  0  0  0  0  0
   11.9020    4.6970    9.5310 H   0  0  0  0  0  0  0  0  0  0  0  0
   10.7230    3.3730    9.3650 H   0  0  0  0  0  0  0  0  0  0  0  0
    7.9860    4.4210   11.0860 H   0  0  0  0  0  0  0  0  0  0  0  0
    7.3900    5.5200    9.8410 H   0  0  0  0  0  0  0  0  0  0  0  0
    7.9990    5.4320   13.6460 H   0  0  0  0  0  0  0  0  0  0  0  0
    6.9310    6.3660   15.6260 H   0  0  0  0  0  0  0  0  0  0  0  0
    5.8130    8.7050   16.3590 H   0  0  0  0  0  0  0  0  0  0  0  0
    5.0860    7.1210   16.8700 H   0  0  0  0  0  0  0  0  0  0  0  0
    3.2590    8.4360   16.0450 H   0  0  0  0  0  0  0  0  0  0  0  0
    3.6870    7.1650   14.7700 H   0  0  0  0  0  0  0  0  0  0  0  0
    3.4500    9.8400   14.2490 H   0  0  0  0  0  0  0  0  0  0  0  0
    5.2090    9.7020   14.5150 H   0  0  0  0  0  0  0  0  0  0  0  0
    3.5260    8.0010   12.6420 H   0  0  0  0  0  0  0  0  0  0  0  0
    4.6170    9.3470   12.1630 H   0  0  0  0  0  0  0  0  0  0  0  0
   10.3690    1.2280   10.1650 H   0  0  0  0  0  0  0  0  0  0  0  0
   13.1930   -0.6120    7.5240 H   0  0  0  0  0  0  0  0  0  0  0  0
   14.9770    0.7410    8.5540 H   0  0  0  0  0  0  0  0  0  0  0  0
   14.4590    2.3030   10.3520 H   0  0  0  0  0  0  0  0  0  0  0  0
  1  3  2  0  0  0  0
  1  2  2  0  0  0  0
  4  1  1  0  0  0  0
  4  5  1  0  0  0  0
  5 29  1  0  0  0  0
  6  5  1  0  0  0  0
  6 31  1  0  0  0  0
  7 10  1  0  0  0  0
  7  6  1  0  0  0  0
  8  9  1  0  0  0  0
  8  7  1  0  0  0  0
  9  4  1  0  0  0  0
 10 37  1  0  0  0  0
 10 11  1  0  0  0  0
 11 12  1  0  0  0  0
 12 39  1  0  0  0  0
 12 13  1  0  0  0  0
 13 14  2  0  0  0  0
 14 40  1  0  0  0  0
 14 15  1  0  0  0  0
 15 41  1  0  0  0  0
 15 42  1  0  0  0  0
 16 15  1  0  0  0  0
 16 43  1  0  0  0  0
 17 46  1  0  0  0  0
 17 16  1  0  0  0  0
 18 17  1  0  0  0  0
 19 18  1  0  0  0  0
 19 13  1  0  0  0  0
 20 11  1  0  0  0  0
 20 19  1  0  0  0  0
 21 20  2  0  0  0  0
 22  1  1  0  0  0  0
 23 49  1  0  0  0  0
 23 22  2  0  0  0  0
 24 23  1  0  0  0  0
 25 24  2  0  0  0  0
 25 26  1  0  0  0  0
 26 27  2  0  0  0  0
 27 52  1  0  0  0  0
 27 22  1  0  0  0  0
 28 24  1  0  0  0  0
 30  5  1  0  0  0  0
 32  6  1  0  0  0  0
 33  8  1  0  0  0  0
 34  8  1  0  0  0  0
 35  9  1  0  0  0  0
 36  9  1  0  0  0  0
 38 10  1  0  0  0  0
 44 16  1  0  0  0  0
 45 17  1  0  0  0  0
 47 18  1  0  0  0  0
 48 18  1  0  0  0  0
 50 25  1  0  0  0  0
 51 26  1  0  0  0  0
M  END
>  <Pose>
1

>  <Score>
-6.63

$$$$
