
 OpenBabel03172210413D

 44 47  0  0  0  0  0  0  0  0999 V2000
    9.6000    6.0690   10.9310 S   0  0  0  0  0  0  0  0  0  0  0  0
    9.9900    7.1950   10.0590 O   0  0  0  0  0  0  0  0  0  0  0  0
    8.3280    5.4810   10.3300 O   0  0  0  0  0  0  0  0  0  0  0  0
    9.2620    6.4910   12.5430 N   0  0  0  0  0  0  0  0  0  0  0  0
    8.3600    5.6620   13.2480 C   0  0  0  0  0  0  0  0  0  0  0  0
    7.0250    6.2410   13.5790 C   0  0  0  0  0  0  0  0  0  0  0  0
    6.8280    7.5940   13.1210 N   0  0  0  0  0  0  0  0  0  0  0  0
    7.9330    8.4980   13.1110 C   0  0  0  0  0  0  0  0  0  0  0  0
    9.2540    7.8780   12.8160 C   0  0  0  0  0  0  0  0  0  0  0  0
    5.5060    7.9620   12.7030 C   0  0  0  0  0  0  0  0  0  0  0  0
    4.4730    8.2410   13.5160 N   0  0  0  0  0  0  0  0  0  0  0  0
    3.4470    8.5140   12.7020 N   0  0  0  0  0  0  0  0  0  0  0  0
    3.8320    8.4080   11.4500 N   0  0  0  0  0  0  0  0  0  0  0  0
    5.1030    8.0680   11.4090 N   0  0  0  0  0  0  0  0  0  0  0  0
    4.4830    8.2530   14.9370 C   0  0  0  0  0  0  0  0  0  0  0  0
    4.8630    9.3730   15.6410 C   0  0  0  0  0  0  0  0  0  0  0  0
    4.8610    9.3530   17.0350 C   0  0  0  0  0  0  0  0  0  0  0  0
    4.4840    8.2270   17.7340 C   0  0  0  0  0  0  0  0  0  0  0  0
    4.0970    7.0870   17.0180 C   0  0  0  0  0  0  0  0  0  0  0  0
    4.1050    7.1260   15.6230 C   0  0  0  0  0  0  0  0  0  0  0  0
   10.8070    4.8140   10.8880 C   0  0  0  0  0  0  0  0  0  0  0  0
   11.1090    4.0300   11.9730 C   0  0  0  0  0  0  0  0  0  0  0  0
   12.0770    3.0270   11.9240 C   0  0  0  0  0  0  0  0  0  0  0  0
   12.7550    2.8240   10.7180 C   0  0  0  0  0  0  0  0  0  0  0  0
   12.4600    3.6050    9.6230 C   0  0  0  0  0  0  0  0  0  0  0  0
   11.5050    4.5780    9.7110 C   0  0  0  0  0  0  0  0  0  0  0  0
   14.0930    1.4630   10.5790 B   0  0  0  0  0  0  0  0  0  0  0  0
    8.2850    4.6960   12.6850 H   0  0  0  0  0  0  0  0  0  0  0  0
    8.8760    5.3820   14.2170 H   0  0  0  0  0  0  0  0  0  0  0  0
    6.2570    5.5420   13.1460 H   0  0  0  0  0  0  0  0  0  0  0  0
    6.8520    6.1640   14.6820 H   0  0  0  0  0  0  0  0  0  0  0  0
    7.7640    9.3170   12.3530 H   0  0  0  0  0  0  0  0  0  0  0  0
    7.9300    9.0090   14.1190 H   0  0  0  0  0  0  0  0  0  0  0  0
    9.9220    8.0590   13.7080 H   0  0  0  0  0  0  0  0  0  0  0  0
    9.7870    8.4220   11.9840 H   0  0  0  0  0  0  0  0  0  0  0  0
    5.1750   10.3020   15.1500 H   0  0  0  0  0  0  0  0  0  0  0  0
    5.1570   10.2260   17.6260 H   0  0  0  0  0  0  0  0  0  0  0  0
    4.4710    8.1790   18.8100 H   0  0  0  0  0  0  0  0  0  0  0  0
    3.8030    6.2120   17.5690 H   0  0  0  0  0  0  0  0  0  0  0  0
    3.7930    6.2030   15.1330 H   0  0  0  0  0  0  0  0  0  0  0  0
   10.5830    4.1810   12.9270 H   0  0  0  0  0  0  0  0  0  0  0  0
   12.3290    2.4040   12.7580 H   0  0  0  0  0  0  0  0  0  0  0  0
   13.0230    3.4030    8.7040 H   0  0  0  0  0  0  0  0  0  0  0  0
   11.2980    5.1840    8.8130 H   0  0  0  0  0  0  0  0  0  0  0  0
  1  4  1  0  0  0  0
  2  1  2  0  0  0  0
  3  1  2  0  0  0  0
  4  9  1  0  0  0  0
  4  5  1  0  0  0  0
  5  6  1  0  0  0  0
  5 29  1  0  0  0  0
  6 31  1  0  0  0  0
  7  6  1  0  0  0  0
  8  7  1  0  0  0  0
  8 33  1  0  0  0  0
  9  8  1  0  0  0  0
  9 34  1  0  0  0  0
 10  7  1  0  0  0  0
 10 11  1  0  0  0  0
 11 15  1  0  0  0  0
 12 11  1  0  0  0  0
 13 12  2  0  0  0  0
 14 13  1  0  0  0  0
 14 10  2  0  0  0  0
 15 20  2  0  0  0  0
 15 16  1  0  0  0  0
 16 17  2  0  0  0  0
 17 37  1  0  0  0  0
 17 18  1  0  0  0  0
 18 38  1  0  0  0  0
 19 39  1  0  0  0  0
 19 18  2  0  0  0  0
 20 19  1  0  0  0  0
 21  1  1  0  0  0  0
 21 22  1  0  0  0  0
 22 41  1  0  0  0  0
 23 22  2  0  0  0  0
 23 42  1  0  0  0  0
 24 23  1  0  0  0  0
 25 26  1  0  0  0  0
 25 24  2  0  0  0  0
 26 21  2  0  0  0  0
 27 24  1  0  0  0  0
 28  5  1  0  0  0  0
 30  6  1  0  0  0  0
 32  8  1  0  0  0  0
 35  9  1  0  0  0  0
 36 16  1  0  0  0  0
 40 20  1  0  0  0  0
 43 25  1  0  0  0  0
 44 26  1  0  0  0  0
M  END
>  <Pose>
1

>  <Score>
-6.12

$$$$
