
 OpenBabel03172210413D

 53 56  0  0  0  0  0  0  0  0999 V2000
    6.6740    7.4810   11.6390 S   0  0  0  0  0  0  0  0  0  0  0  0
    6.6060    8.7820   10.8550 O   0  0  0  0  0  0  0  0  0  0  0  0
    5.9280    6.4350   10.8640 O   0  0  0  0  0  0  0  0  0  0  0  0
    8.3370    7.0210   11.7530 N   0  0  0  0  0  0  0  0  0  0  0  0
    8.4570    6.0410   12.7790 C   0  0  0  0  0  0  0  0  0  0  0  0
    9.7880    6.0790   13.4980 C   0  0  0  0  0  0  0  0  0  0  0  0
   10.7540    6.6270   12.5900 N   0  0  0  0  0  0  0  0  0  0  0  0
   10.5750    7.9710   12.1270 C   0  0  0  0  0  0  0  0  0  0  0  0
    9.0950    8.2260   11.9920 C   0  0  0  0  0  0  0  0  0  0  0  0
   11.8480    5.8510   12.1720 C   0  0  0  0  0  0  0  0  0  0  0  0
   11.7140    4.5980   11.7070 N   0  0  0  0  0  0  0  0  0  0  0  0
   12.7020    3.8200   11.3010 C   0  0  0  0  0  0  0  0  0  0  0  0
   13.9860    4.3350   11.3540 C   0  0  0  0  0  0  0  0  0  0  0  0
   14.1750    5.6160   11.8230 C   0  0  0  0  0  0  0  0  0  0  0  0
   13.1120    6.3390   12.2170 N   0  0  0  0  0  0  0  0  0  0  0  0
   15.5390    6.2040   11.8960 C   0  0  0  0  0  0  0  0  0  0  0  0
   12.4280    2.5130   10.8320 N   0  0  0  0  0  0  0  0  0  0  0  0
   11.1130    2.0710   10.4150 C   0  0  0  0  0  0  0  0  0  0  0  0
   11.3390    0.8890    9.4730 C   0  0  0  0  0  0  0  0  0  0  0  0
   12.4100    1.2290    8.6440 O   0  0  0  0  0  0  0  0  0  0  0  0
   13.6300    1.1680    9.2790 C   0  0  0  0  0  0  0  0  0  0  0  0
   13.5080    1.5560   10.7570 C   0  0  0  0  0  0  0  0  0  0  0  0
    5.9740    7.7430   13.2100 C   0  0  0  0  0  0  0  0  0  0  0  0
    5.7480    6.6450   14.0290 C   0  0  0  0  0  0  0  0  0  0  0  0
    5.1980    6.7750   15.2850 C   0  0  0  0  0  0  0  0  0  0  0  0
    4.8560    8.0210   15.7520 C   0  0  0  0  0  0  0  0  0  0  0  0
    5.0650    9.1390   14.9670 C   0  0  0  0  0  0  0  0  0  0  0  0
    5.6240    8.9730   13.7030 C   0  0  0  0  0  0  0  0  0  0  0  0
    4.0960    8.1830   17.4920 B   0  0  0  0  0  0  0  0  0  0  0  0
    7.6440    6.0430   13.5240 H   0  0  0  0  0  0  0  0  0  0  0  0
    8.4060    5.0260   12.2900 H   0  0  0  0  0  0  0  0  0  0  0  0
   10.0750    5.1030   13.9120 H   0  0  0  0  0  0  0  0  0  0  0  0
    9.6430    6.7620   14.3840 H   0  0  0  0  0  0  0  0  0  0  0  0
   11.1120    8.1460   11.1680 H   0  0  0  0  0  0  0  0  0  0  0  0
   10.9690    8.7360   12.8400 H   0  0  0  0  0  0  0  0  0  0  0  0
    8.9520    8.8840   11.1090 H   0  0  0  0  0  0  0  0  0  0  0  0
    8.6710    8.7730   12.8630 H   0  0  0  0  0  0  0  0  0  0  0  0
   14.7970    3.7110   11.0250 H   0  0  0  0  0  0  0  0  0  0  0  0
   15.6720    6.9940   11.1120 H   0  0  0  0  0  0  0  0  0  0  0  0
   15.6440    6.7140   12.8720 H   0  0  0  0  0  0  0  0  0  0  0  0
   16.3200    5.4250   11.8520 H   0  0  0  0  0  0  0  0  0  0  0  0
   10.4860    1.7270   11.2590 H   0  0  0  0  0  0  0  0  0  0  0  0
   10.5930    2.8670    9.8210 H   0  0  0  0  0  0  0  0  0  0  0  0
   10.4540    0.6950    8.8670 H   0  0  0  0  0  0  0  0  0  0  0  0
   11.5880   -0.0110   10.0610 H   0  0  0  0  0  0  0  0  0  0  0  0
   14.3450    1.9150    8.8250 H   0  0  0  0  0  0  0  0  0  0  0  0
   14.0940    0.1780    9.1860 H   0  0  0  0  0  0  0  0  0  0  0  0
   13.2780    0.6450   11.3590 H   0  0  0  0  0  0  0  0  0  0  0  0
   14.4550    1.9840   11.1290 H   0  0  0  0  0  0  0  0  0  0  0  0
    6.0200    5.6620   13.6550 H   0  0  0  0  0  0  0  0  0  0  0  0
    5.0250    5.9150   15.9190 H   0  0  0  0  0  0  0  0  0  0  0  0
    4.7990   10.1260   15.3290 H   0  0  0  0  0  0  0  0  0  0  0  0
    5.7930    9.8450   13.0720 H   0  0  0  0  0  0  0  0  0  0  0  0
  1  4  1  0  0  0  0
  1 23  1  0  0  0  0
  2  1  2  0  0  0  0
  3  1  2  0  0  0  0
  4  9  1  0  0  0  0
  4  5  1  0  0  0  0
  5  6  1  0  0  0  0
  5 30  1  0  0  0  0
  6 32  1  0  0  0  0
  6 33  1  0  0  0  0
  7  6  1  0  0  0  0
  8  7  1  0  0  0  0
  8 35  1  0  0  0  0
  9  8  1  0  0  0  0
  9 37  1  0  0  0  0
 10 15  1  0  0  0  0
 10  7  1  0  0  0  0
 11 10  2  0  0  0  0
 12 13  2  0  0  0  0
 12 11  1  0  0  0  0
 13 14  1  0  0  0  0
 14 16  1  0  0  0  0
 14 15  2  0  0  0  0
 16 40  1  0  0  0  0
 17 12  1  0  0  0  0
 18 17  1  0  0  0  0
 18 42  1  0  0  0  0
 19 45  1  0  0  0  0
 19 18  1  0  0  0  0
 20 21  1  0  0  0  0
 20 19  1  0  0  0  0
 21 22  1  0  0  0  0
 22 17  1  0  0  0  0
 22 49  1  0  0  0  0
 22 48  1  0  0  0  0
 23 28  2  0  0  0  0
 23 24  1  0  0  0  0
 24 25  2  0  0  0  0
 25 26  1  0  0  0  0
 25 51  1  0  0  0  0
 26 29  1  0  0  0  0
 27 52  1  0  0  0  0
 27 26  2  0  0  0  0
 28 27  1  0  0  0  0
 31  5  1  0  0  0  0
 34  8  1  0  0  0  0
 36  9  1  0  0  0  0
 38 13  1  0  0  0  0
 39 16  1  0  0  0  0
 41 16  1  0  0  0  0
 43 18  1  0  0  0  0
 44 19  1  0  0  0  0
 46 21  1  0  0  0  0
 47 21  1  0  0  0  0
 50 24  1  0  0  0  0
 53 28  1  0  0  0  0
M  END
>  <Pose>
1

>  <Score>
-5.46

$$$$
