
 OpenBabel03172210413D

 43 46  0  0  0  0  0  0  0  0999 V2000
    9.2220    6.6130   11.5050 S   0  0  0  0  0  0  0  0  0  0  0  0
    8.8230    5.5280   10.5130 O   0  0  0  0  0  0  0  0  0  0  0  0
    9.3170    7.8840   10.7140 O   0  0  0  0  0  0  0  0  0  0  0  0
   10.7390    6.1840   12.1450 N   0  0  0  0  0  0  0  0  0  0  0  0
   10.7540    5.0340   12.9680 C   0  0  0  0  0  0  0  0  0  0  0  0
   11.1220    3.7550   12.3030 C   0  0  0  0  0  0  0  0  0  0  0  0
   12.2430    3.9370   11.3670 N   0  0  0  0  0  0  0  0  0  0  0  0
   12.8860    5.2320   11.4430 C   0  0  0  0  0  0  0  0  0  0  0  0
   11.8050    6.2650   11.1850 C   0  0  0  0  0  0  0  0  0  0  0  0
   12.6260    2.9030   10.4830 C   0  0  0  0  0  0  0  0  0  0  0  0
   13.9520    2.8290   10.0760 C   0  0  0  0  0  0  0  0  0  0  0  0
   14.3180    1.8060    9.2040 C   0  0  0  0  0  0  0  0  0  0  0  0
   13.4370    0.9160    8.7660 N   0  0  0  0  0  0  0  0  0  0  0  0
   14.0880    0.0690    7.9530 C   0  0  0  0  0  0  0  0  0  0  0  0
   15.3750    0.4620    7.9080 N   0  0  0  0  0  0  0  0  0  0  0  0
   15.5220    1.5280    8.6750 N   0  0  0  0  0  0  0  0  0  0  0  0
   13.4980   -1.1010    7.2250 C   0  0  0  0  0  0  0  0  0  0  0  0
   12.1890    0.9730    9.1390 N   0  0  0  0  0  0  0  0  0  0  0  0
   11.7800    1.9520    9.9880 C   0  0  0  0  0  0  0  0  0  0  0  0
    7.9570    6.6740   12.7030 C   0  0  0  0  0  0  0  0  0  0  0  0
    8.1270    6.1400   13.9730 C   0  0  0  0  0  0  0  0  0  0  0  0
    7.1260    6.1890   14.9180 C   0  0  0  0  0  0  0  0  0  0  0  0
    5.9230    6.7880   14.5830 C   0  0  0  0  0  0  0  0  0  0  0  0
    5.7050    7.3350   13.3330 C   0  0  0  0  0  0  0  0  0  0  0  0
    6.7310    7.2650   12.4190 C   0  0  0  0  0  0  0  0  0  0  0  0
    4.5420    6.8470   15.9100 B   0  0  0  0  0  0  0  0  0  0  0  0
   11.4740    5.2190   13.8180 H   0  0  0  0  0  0  0  0  0  0  0  0
    9.7650    4.9270   13.4520 H   0  0  0  0  0  0  0  0  0  0  0  0
   11.4860    3.0410   13.0750 H   0  0  0  0  0  0  0  0  0  0  0  0
   10.2590    3.2790   11.8060 H   0  0  0  0  0  0  0  0  0  0  0  0
   13.6790    5.3980   10.7180 H   0  0  0  0  0  0  0  0  0  0  0  0
   13.2330    5.4080   12.5030 H   0  0  0  0  0  0  0  0  0  0  0  0
   12.2160    7.2930   11.1460 H   0  0  0  0  0  0  0  0  0  0  0  0
   11.3830    6.0480   10.1830 H   0  0  0  0  0  0  0  0  0  0  0  0
   14.7090    3.5260   10.4020 H   0  0  0  0  0  0  0  0  0  0  0  0
   12.3910   -0.9770    7.1430 H   0  0  0  0  0  0  0  0  0  0  0  0
   13.8970   -1.1400    6.2100 H   0  0  0  0  0  0  0  0  0  0  0  0
   13.7110   -2.0500    7.7540 H   0  0  0  0  0  0  0  0  0  0  0  0
   10.7550    1.9500   10.2580 H   0  0  0  0  0  0  0  0  0  0  0  0
    9.0890    5.6780   14.1930 H   0  0  0  0  0  0  0  0  0  0  0  0
    7.3260    5.7560   15.8820 H   0  0  0  0  0  0  0  0  0  0  0  0
    4.7440    7.7880   13.1350 H   0  0  0  0  0  0  0  0  0  0  0  0
    6.5700    7.6830   11.4510 H   0  0  0  0  0  0  0  0  0  0  0  0
  1  4  1  0  0  0  0
  1 20  1  0  0  0  0
  2  1  2  0  0  0  0
  3  1  2  0  0  0  0
  4  5  1  0  0  0  0
  5 28  1  0  0  0  0
  5 27  1  0  0  0  0
  6  5  1  0  0  0  0
  6 29  1  0  0  0  0
  7  8  1  0  0  0  0
  7  6  1  0  0  0  0
  8 32  1  0  0  0  0
  9  8  1  0  0  0  0
  9  4  1  0  0  0  0
 10  7  1  0  0  0  0
 11 35  1  0  0  0  0
 11 10  2  0  0  0  0
 12 11  1  0  0  0  0
 13 18  1  0  0  0  0
 13 12  1  0  0  0  0
 14 13  1  0  0  0  0
 15 14  2  0  0  0  0
 15 16  1  0  0  0  0
 16 12  2  0  0  0  0
 17 38  1  0  0  0  0
 17 14  1  0  0  0  0
 18 19  2  0  0  0  0
 19 39  1  0  0  0  0
 19 10  1  0  0  0  0
 20 21  1  0  0  0  0
 21 40  1  0  0  0  0
 21 22  2  0  0  0  0
 22 41  1  0  0  0  0
 23 22  1  0  0  0  0
 23 26  1  0  0  0  0
 24 23  2  0  0  0  0
 25 20  2  0  0  0  0
 25 24  1  0  0  0  0
 30  6  1  0  0  0  0
 31  8  1  0  0  0  0
 33  9  1  0  0  0  0
 34  9  1  0  0  0  0
 36 17  1  0  0  0  0
 37 17  1  0  0  0  0
 42 24  1  0  0  0  0
 43 25  1  0  0  0  0
M  END
>  <Pose>
1

>  <Score>
-6.57

$$$$
