
 OpenBabel03172210413D

 46 49  0  0  0  0  0  0  0  0999 V2000
    6.0480    7.6230   11.7130 S   0  0  0  0  0  0  0  0  0  0  0  0
    6.3260    8.9290   10.9800 O   0  0  0  0  0  0  0  0  0  0  0  0
    4.9480    6.9510   10.9150 O   0  0  0  0  0  0  0  0  0  0  0  0
    5.5380    7.9890   13.2660 N   0  0  0  0  0  0  0  0  0  0  0  0
    4.6140    9.0310   13.4410 C   0  0  0  0  0  0  0  0  0  0  0  0
    3.5280    8.6350   14.3970 C   0  0  0  0  0  0  0  0  0  0  0  0
    4.1310    8.2690   15.5880 O   0  0  0  0  0  0  0  0  0  0  0  0
    4.8820    7.1070   15.4710 C   0  0  0  0  0  0  0  0  0  0  0  0
    5.7850    7.0790   14.2990 C   0  0  0  0  0  0  0  0  0  0  0  0
    7.4980    6.6500   11.6360 C   0  0  0  0  0  0  0  0  0  0  0  0
    7.8660    5.7890   10.6720 N   0  0  0  0  0  0  0  0  0  0  0  0
    9.0640    5.2430   11.0050 C   0  0  0  0  0  0  0  0  0  0  0  0
    9.4690    5.7500   12.1820 N   0  0  0  0  0  0  0  0  0  0  0  0
    8.5330    6.6000   12.5760 C   0  0  0  0  0  0  0  0  0  0  0  0
   10.7040    5.3970   12.8520 C   0  0  0  0  0  0  0  0  0  0  0  0
   11.6310    4.6780   11.9480 C   0  0  0  0  0  0  0  0  0  0  0  0
   12.3300    5.2470   10.9300 N   0  0  0  0  0  0  0  0  0  0  0  0
   13.0360    4.3200   10.3580 O   0  0  0  0  0  0  0  0  0  0  0  0
   12.8530    3.1570   10.9310 C   0  0  0  0  0  0  0  0  0  0  0  0
   11.9660    3.3860   11.9330 N   0  0  0  0  0  0  0  0  0  0  0  0
   13.4710    1.8430   10.5810 C   0  0  0  0  0  0  0  0  0  0  0  0
   12.4540    1.0830    9.8010 C   0  0  0  0  0  0  0  0  0  0  0  0
   12.8950    0.1380    8.8890 C   0  0  0  0  0  0  0  0  0  0  0  0
   12.0320   -0.6070    8.1290 C   0  0  0  0  0  0  0  0  0  0  0  0
   10.6880   -0.4000    8.2870 C   0  0  0  0  0  0  0  0  0  0  0  0
   10.2050    0.5160    9.1690 C   0  0  0  0  0  0  0  0  0  0  0  0
   11.1060    1.2580    9.9280 C   0  0  0  0  0  0  0  0  0  0  0  0
    9.4550   -1.4180    7.2470 B   0  0  0  0  0  0  0  0  0  0  0  0
    4.2220    9.3530   12.4530 H   0  0  0  0  0  0  0  0  0  0  0  0
    5.1460    9.9070   13.9130 H   0  0  0  0  0  0  0  0  0  0  0  0
    2.8450    9.4810   14.6310 H   0  0  0  0  0  0  0  0  0  0  0  0
    3.0000    7.7580   13.9840 H   0  0  0  0  0  0  0  0  0  0  0  0
    5.4490    7.0040   16.4320 H   0  0  0  0  0  0  0  0  0  0  0  0
    4.2020    6.2250   15.4440 H   0  0  0  0  0  0  0  0  0  0  0  0
    5.8210    6.0340   13.8680 H   0  0  0  0  0  0  0  0  0  0  0  0
    6.8390    7.2390   14.6730 H   0  0  0  0  0  0  0  0  0  0  0  0
    9.5950    4.5120   10.4000 H   0  0  0  0  0  0  0  0  0  0  0  0
    8.5250    7.1920   13.4800 H   0  0  0  0  0  0  0  0  0  0  0  0
   10.5070    4.7580   13.7370 H   0  0  0  0  0  0  0  0  0  0  0  0
   11.1880    6.3170   13.2400 H   0  0  0  0  0  0  0  0  0  0  0  0
   13.6920    1.3250   11.5310 H   0  0  0  0  0  0  0  0  0  0  0  0
   14.3980    1.9950    9.9880 H   0  0  0  0  0  0  0  0  0  0  0  0
   13.9700   -0.0070    8.7820 H   0  0  0  0  0  0  0  0  0  0  0  0
   12.3780   -1.3530    7.4090 H   0  0  0  0  0  0  0  0  0  0  0  0
    9.1370    0.6860    9.3010 H   0  0  0  0  0  0  0  0  0  0  0  0
   10.7340    1.9900   10.6340 H   0  0  0  0  0  0  0  0  0  0  0  0
  1  4  1  0  0  0  0
  2  1  2  0  0  0  0
  3  1  2  0  0  0  0
  4  5  1  0  0  0  0
  4  9  1  0  0  0  0
  5 30  1  0  0  0  0
  5  6  1  0  0  0  0
  6 31  1  0  0  0  0
  6  7  1  0  0  0  0
  8  7  1  0  0  0  0
  8 33  1  0  0  0  0
  9 36  1  0  0  0  0
  9  8  1  0  0  0  0
 10  1  1  0  0  0  0
 10 14  2  0  0  0  0
 11 12  2  0  0  0  0
 11 10  1  0  0  0  0
 12 13  1  0  0  0  0
 13 14  1  0  0  0  0
 13 15  1  0  0  0  0
 14 38  1  0  0  0  0
 15 40  1  0  0  0  0
 15 39  1  0  0  0  0
 16 15  1  0  0  0  0
 17 16  2  0  0  0  0
 18 17  1  0  0  0  0
 18 19  1  0  0  0  0
 19 20  2  0  0  0  0
 20 16  1  0  0  0  0
 21 19  1  0  0  0  0
 21 41  1  0  0  0  0
 22 27  1  0  0  0  0
 22 21  1  0  0  0  0
 23 22  2  0  0  0  0
 24 25  2  0  0  0  0
 24 23  1  0  0  0  0
 25 26  1  0  0  0  0
 26 45  1  0  0  0  0
 26 27  2  0  0  0  0
 27 46  1  0  0  0  0
 28 25  1  0  0  0  0
 29  5  1  0  0  0  0
 32  6  1  0  0  0  0
 34  8  1  0  0  0  0
 35  9  1  0  0  0  0
 37 12  1  0  0  0  0
 42 21  1  0  0  0  0
 43 23  1  0  0  0  0
 44 24  1  0  0  0  0
M  END
>  <Pose>
1

>  <Score>
-6.54

$$$$
