
 OpenBabel03172210413D

 43 46  0  0  0  0  0  0  0  0999 V2000
   12.9980    2.4630   10.2160 S   0  0  0  0  0  0  0  0  0  0  0  0
   14.4330    2.6260    9.7930 O   0  0  0  0  0  0  0  0  0  0  0  0
   12.9990    1.8620   11.5850 O   0  0  0  0  0  0  0  0  0  0  0  0
   12.2110    1.4480    9.0860 N   0  0  0  0  0  0  0  0  0  0  0  0
   10.8030    1.3970    9.2230 C   0  0  0  0  0  0  0  0  0  0  0  0
   10.1500    0.0830    8.9470 C   0  0  0  0  0  0  0  0  0  0  0  0
   10.8770   -0.5330    7.9020 O   0  0  0  0  0  0  0  0  0  0  0  0
   12.0630   -0.9550    8.5090 C   0  0  0  0  0  0  0  0  0  0  0  0
   12.8970    0.2380    8.8140 C   0  0  0  0  0  0  0  0  0  0  0  0
   12.2730    4.0760   10.2360 C   0  0  0  0  0  0  0  0  0  0  0  0
   12.0490    4.8820    9.1830 N   0  0  0  0  0  0  0  0  0  0  0  0
   11.4840    6.0190    9.6290 C   0  0  0  0  0  0  0  0  0  0  0  0
   11.3320    5.9750   10.9600 N   0  0  0  0  0  0  0  0  0  0  0  0
   11.8160    4.7810   11.3360 C   0  0  0  0  0  0  0  0  0  0  0  0
   10.7630    7.0070   11.8040 C   0  0  0  0  0  0  0  0  0  0  0  0
    9.2830    6.9710   11.8320 C   0  0  0  0  0  0  0  0  0  0  0  0
    8.5190    6.2170   11.0190 N   0  0  0  0  0  0  0  0  0  0  0  0
    7.2720    6.4280   11.3110 O   0  0  0  0  0  0  0  0  0  0  0  0
    7.1590    7.2890   12.2850 C   0  0  0  0  0  0  0  0  0  0  0  0
    8.4150    7.6310   12.6140 N   0  0  0  0  0  0  0  0  0  0  0  0
    5.8980    7.7530   12.8660 C   0  0  0  0  0  0  0  0  0  0  0  0
    5.5090    7.4040   14.1420 C   0  0  0  0  0  0  0  0  0  0  0  0
    4.3060    7.8540   14.6810 C   0  0  0  0  0  0  0  0  0  0  0  0
    3.4630    8.6660   13.9550 C   0  0  0  0  0  0  0  0  0  0  0  0
    3.8490    9.0170   12.6800 C   0  0  0  0  0  0  0  0  0  0  0  0
    5.0560    8.5630   12.1420 C   0  0  0  0  0  0  0  0  0  0  0  0
    3.7850    7.3570   16.4520 B   0  0  0  0  0  0  0  0  0  0  0  0
   10.4860    1.7920   10.2230 H   0  0  0  0  0  0  0  0  0  0  0  0
   10.3720    2.1260    8.4720 H   0  0  0  0  0  0  0  0  0  0  0  0
    9.1310    0.2470    8.5250 H   0  0  0  0  0  0  0  0  0  0  0  0
   10.0880   -0.5980    9.8050 H   0  0  0  0  0  0  0  0  0  0  0  0
   11.7610   -1.5310    9.4050 H   0  0  0  0  0  0  0  0  0  0  0  0
   12.6390   -1.6440    7.8680 H   0  0  0  0  0  0  0  0  0  0  0  0
   13.5610    0.4150    7.9230 H   0  0  0  0  0  0  0  0  0  0  0  0
   13.6150    0.0300    9.6510 H   0  0  0  0  0  0  0  0  0  0  0  0
   11.1860    6.8630    9.0180 H   0  0  0  0  0  0  0  0  0  0  0  0
   11.8490    4.4190   12.3510 H   0  0  0  0  0  0  0  0  0  0  0  0
   11.0940    7.9830   11.4150 H   0  0  0  0  0  0  0  0  0  0  0  0
   11.1080    6.9380   12.8560 H   0  0  0  0  0  0  0  0  0  0  0  0
    6.1670    6.7670   14.7150 H   0  0  0  0  0  0  0  0  0  0  0  0
    2.5230    9.0110   14.3890 H   0  0  0  0  0  0  0  0  0  0  0  0
    3.2160    9.6520   12.0780 H   0  0  0  0  0  0  0  0  0  0  0  0
    5.3790    8.8270   11.1420 H   0  0  0  0  0  0  0  0  0  0  0  0
  1 10  1  0  0  0  0
  1  3  2  0  0  0  0
  2  1  2  0  0  0  0
  4  5  1  0  0  0  0
  4  1  1  0  0  0  0
  5 28  1  0  0  0  0
  6  5  1  0  0  0  0
  6 31  1  0  0  0  0
  7  8  1  0  0  0  0
  7  6  1  0  0  0  0
  8  9  1  0  0  0  0
  8 32  1  0  0  0  0
  9  4  1  0  0  0  0
  9 35  1  0  0  0  0
 10 14  2  0  0  0  0
 11 12  2  0  0  0  0
 11 10  1  0  0  0  0
 12 13  1  0  0  0  0
 13 14  1  0  0  0  0
 13 15  1  0  0  0  0
 14 37  1  0  0  0  0
 15 16  1  0  0  0  0
 15 39  1  0  0  0  0
 16 20  1  0  0  0  0
 17 18  1  0  0  0  0
 17 16  2  0  0  0  0
 18 19  1  0  0  0  0
 19 20  2  0  0  0  0
 19 21  1  0  0  0  0
 21 22  1  0  0  0  0
 22 23  2  0  0  0  0
 22 40  1  0  0  0  0
 23 27  1  0  0  0  0
 24 41  1  0  0  0  0
 24 23  1  0  0  0  0
 25 24  2  0  0  0  0
 26 25  1  0  0  0  0
 26 21  2  0  0  0  0
 29  5  1  0  0  0  0
 30  6  1  0  0  0  0
 33  8  1  0  0  0  0
 34  9  1  0  0  0  0
 36 12  1  0  0  0  0
 38 15  1  0  0  0  0
 42 25  1  0  0  0  0
 43 26  1  0  0  0  0
M  END
>  <Pose>
1

>  <Score>
-7.09

$$$$
