
 OpenBabel03172210413D

 37 40  0  0  0  0  0  0  0  0999 V2000
    7.9400    6.5730   12.2090 S   0  0  0  0  0  0  0  0  0  0  0  0
    8.0360    6.6200   14.0190 C   0  0  0  0  0  0  0  0  0  0  0  0
    6.6810    6.3290   14.5710 C   0  0  0  0  0  0  0  0  0  0  0  0
    6.5450    5.7160   15.6770 O   0  0  0  0  0  0  0  0  0  0  0  0
    5.5080    6.7190   13.8930 N   0  0  0  0  0  0  0  0  0  0  0  0
    5.0790    8.0680   13.8720 C   0  0  0  0  0  0  0  0  0  0  0  0
    5.3930    9.0510   14.7320 N   0  0  0  0  0  0  0  0  0  0  0  0
    4.8040   10.1630   14.3880 O   0  0  0  0  0  0  0  0  0  0  0  0
    4.1140    9.9250   13.3240 N   0  0  0  0  0  0  0  0  0  0  0  0
    4.2280    8.6490   12.9380 C   0  0  0  0  0  0  0  0  0  0  0  0
    3.6090    8.0510   11.8190 N   0  0  0  0  0  0  0  0  0  0  0  0
    9.3330    5.6000   11.6000 C   0  0  0  0  0  0  0  0  0  0  0  0
    9.1660    4.6630   10.6500 N   0  0  0  0  0  0  0  0  0  0  0  0
   10.1510    3.9220   10.1680 N   0  0  0  0  0  0  0  0  0  0  0  0
   11.4150    4.0700   10.6170 C   0  0  0  0  0  0  0  0  0  0  0  0
   11.6110    5.0260   11.5920 C   0  0  0  0  0  0  0  0  0  0  0  0
   12.9280    4.9910   11.8770 N   0  0  0  0  0  0  0  0  0  0  0  0
   13.5600    4.0680   11.1340 C   0  0  0  0  0  0  0  0  0  0  0  0
   12.6250    3.4650   10.3210 C   0  0  0  0  0  0  0  0  0  0  0  0
   12.9500    2.4590    9.4230 C   0  0  0  0  0  0  0  0  0  0  0  0
   14.2770    2.0730    9.3700 C   0  0  0  0  0  0  0  0  0  0  0  0
   15.2340    2.6610   10.1720 C   0  0  0  0  0  0  0  0  0  0  0  0
   14.8900    3.6560   11.0550 C   0  0  0  0  0  0  0  0  0  0  0  0
   14.7250    0.6850    8.1320 B   0  0  0  0  0  0  0  0  0  0  0  0
   13.5470    5.8550   12.8640 C   0  0  0  0  0  0  0  0  0  0  0  0
   10.5780    5.7800   12.0740 N   0  0  0  0  0  0  0  0  0  0  0  0
    8.8070    5.9450   14.4140 H   0  0  0  0  0  0  0  0  0  0  0  0
    8.2380    7.6980   14.2890 H   0  0  0  0  0  0  0  0  0  0  0  0
    4.9540    5.9870   13.3990 H   0  0  0  0  0  0  0  0  0  0  0  0
    3.1050    8.6480   11.1370 H   0  0  0  0  0  0  0  0  0  0  0  0
    3.6350    7.0260   11.6430 H   0  0  0  0  0  0  0  0  0  0  0  0
   12.1870    2.0010    8.7960 H   0  0  0  0  0  0  0  0  0  0  0  0
   16.2760    2.3440   10.1150 H   0  0  0  0  0  0  0  0  0  0  0  0
   15.6150    4.1400   11.7000 H   0  0  0  0  0  0  0  0  0  0  0  0
   13.0910    6.8500   12.8460 H   0  0  0  0  0  0  0  0  0  0  0  0
   13.5460    5.3860   13.8700 H   0  0  0  0  0  0  0  0  0  0  0  0
   14.6150    5.9730   12.5750 H   0  0  0  0  0  0  0  0  0  0  0  0
  1  2  1  0  0  0  0
  2 28  1  0  0  0  0
  2 27  1  0  0  0  0
  2  3  1  0  0  0  0
  3  4  2  0  0  0  0
  5  3  1  0  0  0  0
  6  5  1  0  0  0  0
  6  7  2  0  0  0  0
  8  7  1  0  0  0  0
  9  8  1  0  0  0  0
 10  9  2  0  0  0  0
 10  6  1  0  0  0  0
 11 10  1  0  0  0  0
 12 26  1  0  0  0  0
 12  1  1  0  0  0  0
 13 12  2  0  0  0  0
 14 15  1  0  0  0  0
 14 13  1  0  0  0  0
 15 16  2  0  0  0  0
 16 17  1  0  0  0  0
 16 26  1  0  0  0  0
 17 25  1  0  0  0  0
 18 17  1  0  0  0  0
 19 15  1  0  0  0  0
 19 18  2  0  0  0  0
 20 19  1  0  0  0  0
 21 20  2  0  0  0  0
 21 22  1  0  0  0  0
 22 23  2  0  0  0  0
 23 18  1  0  0  0  0
 23 34  1  0  0  0  0
 24 21  1  0  0  0  0
 25 36  1  0  0  0  0
 29  5  1  0  0  0  0
 30 11  1  0  0  0  0
 31 11  1  0  0  0  0
 32 20  1  0  0  0  0
 33 22  1  0  0  0  0
 35 25  1  0  0  0  0
 37 25  1  0  0  0  0
M  END
>  <Pose>
1

>  <Score>
-8.31

$$$$
