
 OpenBabel03172210413D

 52 56  0  0  1  0  0  0  0  0999 V2000
    4.1160    7.0540   18.1820 S   0  0  0  0  0  0  0  0  0  0  0  0
    4.2930    8.0300   16.6970 C   0  0  0  0  0  0  0  0  0  0  0  0
    3.6450    7.7700   15.6200 N   0  0  0  0  0  0  0  0  0  0  0  0
    3.7340    8.4980   14.4060 C   0  0  0  0  0  0  0  0  0  0  0  0
    2.8020    8.6410   13.6110 O   0  0  0  0  0  0  0  0  0  0  0  0
    5.1260    9.1170   14.1500 C   0  0  1  0  0  0  0  0  0  0  0  0
    5.2950    9.9030   15.4100 C   0  0  0  0  0  0  0  0  0  0  0  0
    5.5150   11.1130   15.4890 O   0  0  0  0  0  0  0  0  0  0  0  0
    5.1840    9.1660   16.6180 N   0  0  0  0  0  0  0  0  0  0  0  0
    5.9410    9.5520   17.7290 C   0  0  0  0  0  0  0  0  0  0  0  0
    7.3350    9.5520   17.5940 C   0  0  0  0  0  0  0  0  0  0  0  0
    8.1470    9.9210   18.6440 C   0  0  0  0  0  0  0  0  0  0  0  0
    7.5690   10.2970   19.8530 C   0  0  0  0  0  0  0  0  0  0  0  0
    6.1730   10.2940   19.9780 C   0  0  0  0  0  0  0  0  0  0  0  0
    5.3790    9.9230   18.9190 C   0  0  0  0  0  0  0  0  0  0  0  0
    8.6450   10.8090   21.3160 B   0  0  0  0  0  0  0  0  0  0  0  0
    6.0190    7.9750   14.0040 C   0  0  1  0  0  0  0  0  0  0  0  0
    5.6250    7.0740   12.9290 N   0  0  0  0  0  4  0  0  0  0  0  0
    6.1490    5.7420   13.1790 C   0  0  0  0  0  0  0  0  0  0  0  0
    7.1990    5.6840   14.2580 C   0  0  0  0  0  0  0  0  0  0  0  0
    8.1210    6.8620   14.0750 C   0  0  0  0  0  0  0  0  0  0  0  0
    7.4630    8.1050   13.9150 C   0  0  0  0  0  0  0  0  0  0  0  0
    8.2060    9.2350   13.7170 C   0  0  0  0  0  0  0  0  0  0  0  0
    9.5930    9.1030   13.6870 C   0  0  0  0  0  0  0  0  0  0  0  0
   10.2090    7.8850   13.8470 C   0  0  0  0  0  0  0  0  0  0  0  0
    9.4710    6.7330   14.0450 C   0  0  0  0  0  0  0  0  0  0  0  0
   11.5740    8.0730   13.7700 O   0  0  0  0  0  0  0  0  0  0  0  0
   11.8230    9.3660   13.2750 C   0  0  0  0  0  0  0  0  0  0  0  0
   10.5830   10.0320   13.5120 O   0  0  0  0  0  0  0  0  0  0  0  0
    7.6140   10.4780   13.5460 O   0  0  0  0  0  0  0  0  0  0  0  0
    7.3530   10.9380   12.2240 C   0  0  0  0  0  0  0  0  0  0  0  0
    6.0310    7.4820   11.6280 C   0  0  0  0  0  0  0  0  0  0  0  0
    4.9510    9.7890   13.3260 H   0  0  0  0  0  0  0  0  0  0  0  0
    7.8110    9.2630   16.6610 H   0  0  0  0  0  0  0  0  0  0  0  0
    9.2160    9.9130   18.5180 H   0  0  0  0  0  0  0  0  0  0  0  0
    5.6830   10.5770   20.8950 H   0  0  0  0  0  0  0  0  0  0  0  0
    4.3170    9.9200   19.0120 H   0  0  0  0  0  0  0  0  0  0  0  0
    5.8280    7.3210   14.9280 H   0  0  0  0  0  0  0  0  0  0  0  0
    4.5860    7.0110   12.9580 H   0  0  0  0  0  0  0  0  0  0  0  0
    6.5900    5.3130   12.2550 H   0  0  0  0  0  0  0  0  0  0  0  0
    5.3360    5.0290   13.4840 H   0  0  0  0  0  0  0  0  0  0  0  0
    6.8110    5.6050   15.2780 H   0  0  0  0  0  0  0  0  0  0  0  0
    7.8240    4.7740   14.0510 H   0  0  0  0  0  0  0  0  0  0  0  0
    9.9440    5.7580   14.1730 H   0  0  0  0  0  0  0  0  0  0  0  0
   12.6480    9.8640   13.8240 H   0  0  0  0  0  0  0  0  0  0  0  0
   12.0210    9.2910   12.1860 H   0  0  0  0  0  0  0  0  0  0  0  0
    8.2050   11.6070   11.9300 H   0  0  0  0  0  0  0  0  0  0  0  0
    6.4030   11.4630   12.1240 H   0  0  0  0  0  0  0  0  0  0  0  0
    7.3740   10.0890   11.5280 H   0  0  0  0  0  0  0  0  0  0  0  0
    5.8670    6.6250   10.9420 H   0  0  0  0  0  0  0  0  0  0  0  0
    5.4570    8.3270   11.2090 H   0  0  0  0  0  0  0  0  0  0  0  0
    7.1400    7.6750   11.5830 H   0  0  0  0  0  0  0  0  0  0  0  0
  2  1  2  0  0  0  0
  3  2  1  0  0  0  0
  4  3  1  0  0  0  0
  5  4  2  0  0  0  0
  6 33  1  6  0  0  0
  6  4  1  0  0  0  0
  6  7  1  0  0  0  0
  7  8  2  0  0  0  0
  7  9  1  0  0  0  0
  9  2  1  0  0  0  0
  9 10  1  0  0  0  0
 10 15  1  0  0  0  0
 11 10  2  0  0  0  0
 11 12  1  0  0  0  0
 12 13  2  0  0  0  0
 13 14  1  0  0  0  0
 13 16  1  0  0  0  0
 14 36  1  0  0  0  0
 15 37  1  0  0  0  0
 15 14  2  0  0  0  0
 17  6  1  0  0  0  0
 17 38  1  1  0  0  0
 18 39  1  0  0  0  0
 18 19  1  0  0  0  0
 18 17  1  0  0  0  0
 19 41  1  0  0  0  0
 19 20  1  0  0  0  0
 20 42  1  0  0  0  0
 21 20  1  0  0  0  0
 22 17  1  0  0  0  0
 22 21  2  0  0  0  0
 23 22  1  0  0  0  0
 24 23  2  0  0  0  0
 24 25  1  0  0  0  0
 25 26  2  0  0  0  0
 26 21  1  0  0  0  0
 26 44  1  0  0  0  0
 27 25  1  0  0  0  0
 28 29  1  0  0  0  0
 28 27  1  0  0  0  0
 28 45  1  0  0  0  0
 29 24  1  0  0  0  0
 30 23  1  0  0  0  0
 31 30  1  0  0  0  0
 32 18  1  0  0  0  0
 34 11  1  0  0  0  0
 35 12  1  0  0  0  0
 40 19  1  0  0  0  0
 43 20  1  0  0  0  0
 46 28  1  0  0  0  0
 47 31  1  0  0  0  0
 48 31  1  0  0  0  0
 49 31  1  0  0  0  0
 50 32  1  0  0  0  0
 51 32  1  0  0  0  0
 52 32  1  0  0  0  0
M  END
>  <Pose>
1

>  <Score>
-5.18

$$$$
