
 OpenBabel03172210413D

 39 42  0  0  1  0  0  0  0  0999 V2000
    8.7520    7.4360   12.1910 S   0  0  0  0  0  0  0  0  0  0  0  0
    8.9250    8.7310   12.9300 O   0  0  0  0  0  0  0  0  0  0  0  0
    7.4740    7.4110   11.4000 O   0  0  0  0  0  0  0  0  0  0  0  0
   10.1360    7.1090   11.1210 C   0  0  0  0  0  0  0  0  0  0  0  0
   10.1910    5.6040   10.9620 C   0  0  2  0  0  0  0  0  0  0  0  0
   10.6120    5.0180   12.2190 N   0  0  0  0  0  0  0  0  0  0  0  0
   10.1650    5.5770   13.4780 C   0  0  0  0  0  0  0  0  0  0  0  0
    8.7180    6.0570   13.3460 C   0  0  0  0  0  0  0  0  0  0  0  0
   11.4490    3.9270   11.8590 C   0  0  0  0  0  0  0  0  0  0  0  0
   11.8350    2.9890   12.6360 O   0  0  0  0  0  0  0  0  0  0  0  0
   11.8140    4.0040   10.4880 N   0  0  0  0  0  0  0  0  0  0  0  0
   11.1910    5.1750    9.9790 C   0  0  0  0  0  0  0  0  0  0  0  0
   11.4380    5.7570    8.8820 O   0  0  0  0  0  0  0  0  0  0  0  0
   12.6530    3.0890    9.7300 C   0  0  1  0  0  0  0  0  0  0  0  0
   13.9320    2.7650   10.4820 C   0  0  0  0  0  0  0  0  0  0  0  0
   14.7590    1.8840    9.5430 C   0  0  0  0  0  0  0  0  0  0  0  0
   14.0440    0.6670    9.4170 O   0  0  0  0  0  0  0  0  0  0  0  0
   12.6550    0.6640    9.3510 C   0  0  0  0  0  0  0  0  0  0  0  0
   11.9410    1.8190    9.4980 C   0  0  0  0  0  0  0  0  0  0  0  0
   10.5750    1.8150    9.4330 C   0  0  0  0  0  0  0  0  0  0  0  0
    9.9280    0.6230    9.2160 C   0  0  0  0  0  0  0  0  0  0  0  0
   10.6590   -0.5290    9.0700 C   0  0  0  0  0  0  0  0  0  0  0  0
   12.0400   -0.5600    9.1310 C   0  0  0  0  0  0  0  0  0  0  0  0
   13.0410   -2.1630    8.9270 B   0  0  0  0  0  0  0  0  0  0  0  0
   11.0520    7.3890   11.7010 H   0  0  0  0  0  0  0  0  0  0  0  0
   10.0600    7.6430   10.1620 H   0  0  0  0  0  0  0  0  0  0  0  0
    9.2120    5.1620   10.7050 H   0  0  0  0  0  0  0  0  0  0  0  0
   10.7750    6.4390   13.8010 H   0  0  0  0  0  0  0  0  0  0  0  0
   10.1470    4.8160   14.2980 H   0  0  0  0  0  0  0  0  0  0  0  0
    8.0450    5.2680   13.0170 H   0  0  0  0  0  0  0  0  0  0  0  0
    8.4520    6.4930   14.3330 H   0  0  0  0  0  0  0  0  0  0  0  0
   12.9490    3.5010    8.7590 H   0  0  0  0  0  0  0  0  0  0  0  0
   14.5030    3.6600   10.7600 H   0  0  0  0  0  0  0  0  0  0  0  0
   13.7210    2.1400   11.3730 H   0  0  0  0  0  0  0  0  0  0  0  0
   14.7120    2.3790    8.5410 H   0  0  0  0  0  0  0  0  0  0  0  0
   15.7780    1.7380    9.8940 H   0  0  0  0  0  0  0  0  0  0  0  0
   10.0180    2.7560    9.5540 H   0  0  0  0  0  0  0  0  0  0  0  0
    8.8460    0.6070    9.1620 H   0  0  0  0  0  0  0  0  0  0  0  0
   10.1280   -1.4560    8.9000 H   0  0  0  0  0  0  0  0  0  0  0  0
  1  2  2  0  0  0  0
  1  8  1  0  0  0  0
  3  1  2  0  0  0  0
  4 25  1  0  0  0  0
  4  1  1  0  0  0  0
  5 27  1  6  0  0  0
  5  4  1  0  0  0  0
  5  6  1  0  0  0  0
  6  7  1  0  0  0  0
  7 28  1  0  0  0  0
  7 29  1  0  0  0  0
  8  7  1  0  0  0  0
  8 31  1  0  0  0  0
  9  6  1  0  0  0  0
  9 10  2  0  0  0  0
 11  9  1  0  0  0  0
 12 11  1  0  0  0  0
 12  5  1  0  0  0  0
 13 12  2  0  0  0  0
 14 32  1  6  0  0  0
 14 15  1  0  0  0  0
 14 11  1  0  0  0  0
 15 33  1  0  0  0  0
 15 34  1  0  0  0  0
 16 36  1  0  0  0  0
 16 15  1  0  0  0  0
 17 16  1  0  0  0  0
 18 17  1  0  0  0  0
 18 19  1  0  0  0  0
 19 14  1  0  0  0  0
 20 19  2  0  0  0  0
 20 37  1  0  0  0  0
 21 20  1  0  0  0  0
 22 23  1  0  0  0  0
 22 21  2  0  0  0  0
 23 18  2  0  0  0  0
 24 23  1  0  0  0  0
 26  4  1  0  0  0  0
 30  8  1  0  0  0  0
 35 16  1  0  0  0  0
 38 21  1  0  0  0  0
 39 22  1  0  0  0  0
M  END
>  <Pose>
1

>  <Score>
-5.22

$$$$
