
 OpenBabel03172210413D

 58 61  0  0  1  0  0  0  0  0999 V2000
   12.3410    1.2060    9.4400 S   0  0  0  0  0  0  0  0  0  0  0  0
   13.0200    0.1770    8.2610 C   0  0  0  0  0  0  0  0  0  0  0  0
   14.2590    0.6240    8.1810 N   0  0  0  0  0  0  0  0  0  0  0  0
   14.6420    1.6210    8.9230 C   0  0  0  0  0  0  0  0  0  0  0  0
   13.7150    2.1720    9.7690 C   0  0  0  0  0  0  0  0  0  0  0  0
   13.8100    3.2490   10.7520 C   0  0  0  0  0  0  0  0  0  0  0  0
   12.8600    4.1570   10.8620 C   0  0  0  0  0  0  0  0  0  0  0  0
   12.7920    5.3260   11.8000 C   0  0  2  0  0  0  0  0  0  0  0  0
   12.0860    6.3210   11.0540 N   0  0  0  0  0  0  0  0  0  0  0  0
   11.1320    5.5630   10.2580 C   0  0  0  0  0  0  0  0  0  0  0  0
   10.0810    6.0720    9.7840 O   0  0  0  0  0  0  0  0  0  0  0  0
   11.6010    4.1950   10.1280 C   0  0  0  0  0  0  0  0  0  0  0  0
   11.0350    3.2340    9.5090 O   0  0  0  0  0  0  0  0  0  0  0  0
   12.1640    7.7520   11.0620 C   0  0  0  0  0  0  0  0  0  0  0  0
   12.1270    8.4100   12.4030 C   0  0  0  0  0  0  0  0  0  0  0  0
   10.7010    8.4020   12.9750 C   0  0  0  0  0  0  0  0  0  0  0  0
   10.4020    9.7110   13.4480 N   0  0  0  0  0  4  0  0  0  0  0  0
    9.0270   10.0950   13.4230 C   0  0  0  0  0  0  0  0  0  0  0  0
    8.2060    9.4620   14.5210 C   0  0  0  0  0  0  0  0  0  0  0  0
    9.0710    8.6010   15.2320 O   0  0  0  0  0  0  0  0  0  0  0  0
    9.9920    9.4610   15.8640 C   0  0  0  0  0  0  0  0  0  0  0  0
   10.9280    9.9510   14.7790 C   0  0  0  0  0  0  0  0  0  0  0  0
   14.1040    5.6840   12.3210 C   0  0  0  0  0  0  0  0  0  0  0  0
   15.0000    6.3290   11.4540 C   0  0  0  0  0  0  0  0  0  0  0  0
   16.2530    6.7370   11.8340 C   0  0  0  0  0  0  0  0  0  0  0  0
   16.6760    6.5150   13.1210 C   0  0  0  0  0  0  0  0  0  0  0  0
   15.8190    5.8810   14.0080 C   0  0  0  0  0  0  0  0  0  0  0  0
   14.5660    5.4850   13.5900 C   0  0  0  0  0  0  0  0  0  0  0  0
   17.4520    7.6130   10.6320 B   0  0  0  0  0  0  0  0  0  0  0  0
   14.9330    3.3280   11.6070 O   0  0  0  0  0  0  0  0  0  0  0  0
   16.0850    2.1050    8.8580 C   0  0  0  0  0  0  0  0  0  0  0  0
   12.3730   -0.9570    7.5000 C   0  0  0  0  0  0  0  0  0  0  0  0
   12.1470    4.9530   12.6520 H   0  0  0  0  0  0  0  0  0  0  0  0
   11.2600    8.1110   10.4950 H   0  0  0  0  0  0  0  0  0  0  0  0
   13.0890    8.0870   10.5340 H   0  0  0  0  0  0  0  0  0  0  0  0
   12.7620    7.9990   13.1760 H   0  0  0  0  0  0  0  0  0  0  0  0
   12.3350    9.5060   12.2120 H   0  0  0  0  0  0  0  0  0  0  0  0
   10.6240    7.6840   13.8160 H   0  0  0  0  0  0  0  0  0  0  0  0
   10.0510    8.0650   12.1410 H   0  0  0  0  0  0  0  0  0  0  0  0
   10.9180   10.3940   12.8140 H   0  0  0  0  0  0  0  0  0  0  0  0
    8.4980    9.9560   12.4810 H   0  0  0  0  0  0  0  0  0  0  0  0
    9.0090   11.2080   13.6160 H   0  0  0  0  0  0  0  0  0  0  0  0
    7.2970    8.9630   14.1780 H   0  0  0  0  0  0  0  0  0  0  0  0
    7.8800   10.2160   15.2880 H   0  0  0  0  0  0  0  0  0  0  0  0
    9.4040   10.3530   16.2050 H   0  0  0  0  0  0  0  0  0  0  0  0
   10.4950    9.0030   16.7140 H   0  0  0  0  0  0  0  0  0  0  0  0
   11.1360   11.0290   14.8840 H   0  0  0  0  0  0  0  0  0  0  0  0
   11.8880    9.3920   14.8610 H   0  0  0  0  0  0  0  0  0  0  0  0
   14.7060    6.5250   10.4240 H   0  0  0  0  0  0  0  0  0  0  0  0
   17.6630    6.8410   13.4050 H   0  0  0  0  0  0  0  0  0  0  0  0
   16.1170    5.6930   15.0160 H   0  0  0  0  0  0  0  0  0  0  0  0
   13.9020    5.0060   14.2960 H   0  0  0  0  0  0  0  0  0  0  0  0
   16.3080    2.6980    9.7390 H   0  0  0  0  0  0  0  0  0  0  0  0
   16.2610    2.6200    7.8920 H   0  0  0  0  0  0  0  0  0  0  0  0
   16.7750    1.2310    8.8600 H   0  0  0  0  0  0  0  0  0  0  0  0
   12.4300   -0.7960    6.4190 H   0  0  0  0  0  0  0  0  0  0  0  0
   12.9300   -1.8670    7.8160 H   0  0  0  0  0  0  0  0  0  0  0  0
   11.3390   -1.0510    7.8920 H   0  0  0  0  0  0  0  0  0  0  0  0
  1  5  1  0  0  0  0
  2  1  1  0  0  0  0
  3  2  2  0  0  0  0
  3  4  1  0  0  0  0
  4  5  2  0  0  0  0
  5  6  1  0  0  0  0
  6  7  2  0  0  0  0
  6 30  1  0  0  0  0
  7  8  1  0  0  0  0
  8 23  1  0  0  0  0
  8 33  1  1  0  0  0
  9 14  1  0  0  0  0
  9  8  1  0  0  0  0
 10  9  1  0  0  0  0
 11 10  2  0  0  0  0
 12 10  1  0  0  0  0
 12  7  1  0  0  0  0
 13 12  2  0  0  0  0
 14 15  1  0  0  0  0
 15 16  1  0  0  0  0
 15 36  1  0  0  0  0
 16 17  1  0  0  0  0
 16 38  1  0  0  0  0
 17 22  1  0  0  0  0
 18 17  1  0  0  0  0
 18 42  1  0  0  0  0
 18 19  1  0  0  0  0
 19 20  1  0  0  0  0
 19 44  1  0  0  0  0
 20 21  1  0  0  0  0
 21 45  1  0  0  0  0
 21 46  1  0  0  0  0
 22 48  1  0  0  0  0
 22 47  1  0  0  0  0
 22 21  1  0  0  0  0
 23 28  1  0  0  0  0
 24 25  1  0  0  0  0
 24 23  2  0  0  0  0
 25 26  2  0  0  0  0
 26 50  1  0  0  0  0
 26 27  1  0  0  0  0
 27 51  1  0  0  0  0
 28 27  2  0  0  0  0
 28 52  1  0  0  0  0
 29 25  1  0  0  0  0
 31 55  1  0  0  0  0
 31  4  1  0  0  0  0
 31 53  1  0  0  0  0
 32 57  1  0  0  0  0
 32 58  1  0  0  0  0
 32  2  1  0  0  0  0
 34 14  1  0  0  0  0
 35 14  1  0  0  0  0
 37 15  1  0  0  0  0
 39 16  1  0  0  0  0
 40 17  1  0  0  0  0
 41 18  1  0  0  0  0
 43 19  1  0  0  0  0
 49 24  1  0  0  0  0
 54 31  1  0  0  0  0
 56 32  1  0  0  0  0
M  END
>  <Pose>
1

>  <Score>
-6.05

$$$$
