
 OpenBabel03172210413D

 55 58  0  0  1  0  0  0  0  0999 V2000
    5.3400    7.9970   14.5670 S   0  0  0  0  0  0  0  0  0  0  0  0
    3.8260    8.6380   14.1320 C   0  0  0  0  0  0  0  0  0  0  0  0
    3.8770    8.6160   12.8150 N   0  0  0  0  0  0  0  0  0  0  0  0
    4.9330    8.1680   12.2110 C   0  0  0  0  0  0  0  0  0  0  0  0
    5.9770    7.7250   12.9890 C   0  0  0  0  0  0  0  0  0  0  0  0
    7.2990    7.2080   12.6040 C   0  0  0  0  0  0  0  0  0  0  0  0
    8.3160    8.0360   12.7080 C   0  0  0  0  0  0  0  0  0  0  0  0
    9.7610    7.8030   12.4030 C   0  0  1  0  0  0  0  0  0  0  0  0
   10.3700    8.3750   13.5400 N   0  0  0  0  0  0  0  0  0  0  0  0
    9.6680    9.6750   13.6440 C   0  0  0  0  0  0  0  0  0  0  0  0
   10.1290   10.7530   14.1070 O   0  0  0  0  0  0  0  0  0  0  0  0
    8.3330    9.4450   13.1020 C   0  0  0  0  0  0  0  0  0  0  0  0
    7.3530   10.2410   12.9680 O   0  0  0  0  0  0  0  0  0  0  0  0
   11.4130    8.1320   14.4780 C   0  0  0  0  0  0  0  0  0  0  0  0
   12.5360    7.2540   14.1250 C   0  0  0  0  0  0  0  0  0  0  0  0
   13.5800    7.6710   13.2810 N   0  0  0  0  0  4  0  0  0  0  0  0
   14.8140    8.0020   13.9620 C   0  0  0  0  0  0  0  0  0  0  0  0
   15.7540    8.5560   12.8970 C   0  0  0  0  0  0  0  0  0  0  0  0
   15.3040    8.2320   11.6170 O   0  0  0  0  0  0  0  0  0  0  0  0
   15.1130    6.8350   11.6280 C   0  0  0  0  0  0  0  0  0  0  0  0
   13.9530    6.4460   12.5000 C   0  0  0  0  0  0  0  0  0  0  0  0
   10.1170    6.5630   11.8060 C   0  0  0  0  0  0  0  0  0  0  0  0
   10.5140    5.5040   12.6280 C   0  0  0  0  0  0  0  0  0  0  0  0
   10.8900    4.2830   12.1330 C   0  0  0  0  0  0  0  0  0  0  0  0
   10.8700    4.1040   10.7660 C   0  0  0  0  0  0  0  0  0  0  0  0
   10.4820    5.1360    9.9380 C   0  0  0  0  0  0  0  0  0  0  0  0
   10.1090    6.3540   10.4580 C   0  0  0  0  0  0  0  0  0  0  0  0
   11.3790    2.4300    9.9930 B   0  0  0  0  0  0  0  0  0  0  0  0
    7.5000    5.9170   12.1500 O   0  0  0  0  0  0  0  0  0  0  0  0
    5.0290    8.1740   10.6920 C   0  0  0  0  0  0  0  0  0  0  0  0
    2.7060    9.1110   15.0210 C   0  0  0  0  0  0  0  0  0  0  0  0
    9.9440    8.5980   11.5770 H   0  0  0  0  0  0  0  0  0  0  0  0
   10.9420    7.6890   15.4140 H   0  0  0  0  0  0  0  0  0  0  0  0
   11.8690    9.0770   14.8730 H   0  0  0  0  0  0  0  0  0  0  0  0
   12.0870    6.3280   13.6330 H   0  0  0  0  0  0  0  0  0  0  0  0
   12.9510    6.8520   15.1120 H   0  0  0  0  0  0  0  0  0  0  0  0
   13.2670    8.3570   12.5870 H   0  0  0  0  0  0  0  0  0  0  0  0
   14.7060    8.7770   14.7240 H   0  0  0  0  0  0  0  0  0  0  0  0
   15.2280    7.0550   14.3950 H   0  0  0  0  0  0  0  0  0  0  0  0
   16.7590    8.1030   13.1120 H   0  0  0  0  0  0  0  0  0  0  0  0
   15.7970    9.6650   12.9400 H   0  0  0  0  0  0  0  0  0  0  0  0
   14.9810    6.4580   10.6000 H   0  0  0  0  0  0  0  0  0  0  0  0
   16.0540    6.4310   12.1000 H   0  0  0  0  0  0  0  0  0  0  0  0
   13.0720    6.1030   11.9600 H   0  0  0  0  0  0  0  0  0  0  0  0
   14.2610    5.7180   13.2770 H   0  0  0  0  0  0  0  0  0  0  0  0
   10.5430    5.6190   13.7240 H   0  0  0  0  0  0  0  0  0  0  0  0
   11.1990    3.4640   12.7970 H   0  0  0  0  0  0  0  0  0  0  0  0
   10.4740    4.9660    8.8610 H   0  0  0  0  0  0  0  0  0  0  0  0
    9.8200    7.1570    9.7410 H   0  0  0  0  0  0  0  0  0  0  0  0
    4.5920    9.1350   10.3350 H   0  0  0  0  0  0  0  0  0  0  0  0
    4.4470    7.3780   10.2360 H   0  0  0  0  0  0  0  0  0  0  0  0
    6.0780    8.1000   10.3760 H   0  0  0  0  0  0  0  0  0  0  0  0
    2.2390   10.0340   14.6350 H   0  0  0  0  0  0  0  0  0  0  0  0
    3.1520    9.2680   16.0450 H   0  0  0  0  0  0  0  0  0  0  0  0
    1.9940    8.2690   15.1230 H   0  0  0  0  0  0  0  0  0  0  0  0
  2  1  1  0  0  0  0
  2 31  1  0  0  0  0
  3  2  2  0  0  0  0
  4  3  1  0  0  0  0
  4  5  2  0  0  0  0
  5  1  1  0  0  0  0
  6  7  2  0  0  0  0
  6  5  1  0  0  0  0
  7 12  1  0  0  0  0
  8 32  1  6  0  0  0
  8  7  1  0  0  0  0
  8  9  1  0  0  0  0
  9 10  1  0  0  0  0
  9 14  1  0  0  0  0
 10 11  2  0  0  0  0
 12 10  1  0  0  0  0
 13 12  2  0  0  0  0
 14 34  1  0  0  0  0
 14 33  1  0  0  0  0
 15 14  1  0  0  0  0
 15 36  1  0  0  0  0
 16 17  1  0  0  0  0
 16 15  1  0  0  0  0
 17 39  1  0  0  0  0
 17 38  1  0  0  0  0
 18 41  1  0  0  0  0
 18 40  1  0  0  0  0
 18 17  1  0  0  0  0
 19 20  1  0  0  0  0
 19 18  1  0  0  0  0
 20 43  1  0  0  0  0
 20 21  1  0  0  0  0
 21 45  1  0  0  0  0
 21 16  1  0  0  0  0
 22  8  1  0  0  0  0
 22 23  1  0  0  0  0
 23 46  1  0  0  0  0
 24 23  2  0  0  0  0
 24 47  1  0  0  0  0
 25 24  1  0  0  0  0
 26 27  1  0  0  0  0
 26 25  2  0  0  0  0
 27 22  2  0  0  0  0
 28 25  1  0  0  0  0
 29  6  1  0  0  0  0
 30  4  1  0  0  0  0
 31 55  1  0  0  0  0
 31 54  1  0  0  0  0
 35 15  1  0  0  0  0
 37 16  1  0  0  0  0
 42 20  1  0  0  0  0
 44 21  1  0  0  0  0
 48 26  1  0  0  0  0
 49 27  1  0  0  0  0
 50 30  1  0  0  0  0
 51 30  1  0  0  0  0
 52 30  1  0  0  0  0
 53 31  1  0  0  0  0
M  END
>  <Pose>
1

>  <Score>
-6.04

$$$$
