
 OpenBabel03172210413D

 39 42  0  0  1  0  0  0  0  0999 V2000
   13.6440    5.3610   13.6800 S   0  0  0  0  0  0  0  0  0  0  0  0
   12.4400    4.5560   12.7570 C   0  0  0  0  0  0  0  0  0  0  0  0
   12.0180    5.5360   11.9000 C   0  0  0  0  0  0  0  0  0  0  0  0
   12.6000    6.7410   12.0020 C   0  0  0  0  0  0  0  0  0  0  0  0
   13.5720    6.8950   12.9540 C   0  0  0  0  0  0  0  0  0  0  0  0
   14.2110    8.2490   13.0510 C   0  0  0  0  0  0  0  0  0  0  0  0
   14.7160    8.6020   11.7250 N   0  0  0  0  0  4  0  0  0  0  0  0
   13.7230    8.5180   10.7000 C   0  0  0  0  0  0  0  0  0  0  0  0
   12.3770    8.0280   11.2220 C   0  0  0  0  0  0  0  0  0  0  0  0
   15.7480    7.6100   11.4210 C   0  0  0  0  0  0  0  0  0  0  0  0
   10.9440    5.1080   10.9610 C   0  0  0  0  0  0  0  0  0  0  0  0
   10.4640    5.9180   10.1150 O   0  0  0  0  0  0  0  0  0  0  0  0
   10.4690    3.7730   11.0310 N   0  0  0  0  0  0  0  0  0  0  0  0
   11.1990    2.6770   11.5980 C   0  0  2  0  0  0  0  0  0  0  0  0
   11.8970    3.2130   12.7560 N   0  0  0  0  0  0  0  0  0  0  0  0
   12.1830    2.0930   10.6540 C   0  0  0  0  0  0  0  0  0  0  0  0
   11.8350    1.1050    9.7560 C   0  0  0  0  0  0  0  0  0  0  0  0
   12.7350    0.5530    8.8720 C   0  0  0  0  0  0  0  0  0  0  0  0
   14.0450    0.9880    8.8670 C   0  0  0  0  0  0  0  0  0  0  0  0
   14.4140    1.9710    9.7520 C   0  0  0  0  0  0  0  0  0  0  0  0
   13.5050    2.5210   10.6360 C   0  0  0  0  0  0  0  0  0  0  0  0
   16.2470    2.5460    9.7090 B   0  0  0  0  0  0  0  0  0  0  0  0
   14.9560    0.4350    7.9790 O   0  0  0  0  0  0  0  0  0  0  0  0
   12.2440   -0.8040    7.6430 B   0  0  0  0  0  0  0  0  0  0  0  0
   13.5260    9.0050   13.4530 H   0  0  0  0  0  0  0  0  0  0  0  0
   15.1110    8.1800   13.7000 H   0  0  0  0  0  0  0  0  0  0  0  0
   15.2080    9.5170   11.7620 H   0  0  0  0  0  0  0  0  0  0  0  0
   14.0020    7.7810    9.8910 H   0  0  0  0  0  0  0  0  0  0  0  0
   13.5480    9.4700   10.1730 H   0  0  0  0  0  0  0  0  0  0  0  0
   11.6770    7.8910   10.4020 H   0  0  0  0  0  0  0  0  0  0  0  0
   12.0470    8.7670   11.9800 H   0  0  0  0  0  0  0  0  0  0  0  0
   16.1880    7.1790   12.3480 H   0  0  0  0  0  0  0  0  0  0  0  0
   15.2600    6.7330   10.9030 H   0  0  0  0  0  0  0  0  0  0  0  0
   16.5000    7.9920   10.7240 H   0  0  0  0  0  0  0  0  0  0  0  0
    9.5040    3.5920   10.6310 H   0  0  0  0  0  0  0  0  0  0  0  0
   10.5000    1.8890   11.9170 H   0  0  0  0  0  0  0  0  0  0  0  0
   12.0360    2.6600   13.6260 H   0  0  0  0  0  0  0  0  0  0  0  0
   10.8140    0.7570    9.7510 H   0  0  0  0  0  0  0  0  0  0  0  0
   13.8080    3.2880   11.3220 H   0  0  0  0  0  0  0  0  0  0  0  0
  2  1  1  0  0  0  0
  3  4  1  0  0  0  0
  3  2  2  0  0  0  0
  4  5  2  0  0  0  0
  5  6  1  0  0  0  0
  5  1  1  0  0  0  0
  6 25  1  0  0  0  0
  6 26  1  0  0  0  0
  7 27  1  0  0  0  0
  7  6  1  0  0  0  0
  8  9  1  0  0  0  0
  8  7  1  0  0  0  0
  9 31  1  0  0  0  0
  9  4  1  0  0  0  0
 10  7  1  0  0  0  0
 10 32  1  0  0  0  0
 11 13  1  0  0  0  0
 11  3  1  0  0  0  0
 12 11  2  0  0  0  0
 13 14  1  0  0  0  0
 14 36  1  1  0  0  0
 14 15  1  0  0  0  0
 15  2  1  0  0  0  0
 15 37  1  0  0  0  0
 16 14  1  0  0  0  0
 17 16  2  0  0  0  0
 18 17  1  0  0  0  0
 19 18  2  0  0  0  0
 19 20  1  0  0  0  0
 20 21  2  0  0  0  0
 21 16  1  0  0  0  0
 21 39  1  0  0  0  0
 22 20  1  0  0  0  0
 23 19  1  0  0  0  0
 24 18  1  0  0  0  0
 28  8  1  0  0  0  0
 29  8  1  0  0  0  0
 30  9  1  0  0  0  0
 33 10  1  0  0  0  0
 34 10  1  0  0  0  0
 35 13  1  0  0  0  0
 38 17  1  0  0  0  0
M  END
>  <Pose>
1

>  <Score>
-6.21

$$$$
