
 OpenBabel03172210413D

 43 46  0  0  1  0  0  0  0  0999 V2000
   11.1030    8.2130   13.6510 S   0  0  0  0  0  0  0  0  0  0  0  0
   12.6460    9.0480   13.1040 C   0  0  0  0  0  0  0  0  0  0  0  0
   13.6620    8.1210   12.5820 C   0  0  0  0  0  0  0  0  0  0  0  0
   13.4850    6.6700   12.7650 C   0  0  0  0  0  0  0  0  0  0  0  0
   12.2470    6.0980   12.4260 N   0  0  1  0  0  0  0  0  0  0  0  0
   11.8360    4.8050   11.9700 C   0  0  2  0  0  0  0  0  0  0  0  0
   10.6780    5.1810   11.0710 C   0  0  0  0  0  0  0  0  0  0  0  0
   10.1210    6.3200   11.7700 N   0  0  0  0  0  0  0  0  0  0  0  0
   10.9940    6.8250   12.5060 C   0  0  1  0  0  0  0  0  0  0  0  0
    8.7700    6.7800   11.6430 C   0  0  0  0  0  0  0  0  0  0  0  0
    7.7660    5.8400   11.4590 C   0  0  0  0  0  0  0  0  0  0  0  0
    6.4330    6.2140   11.3080 C   0  0  0  0  0  0  0  0  0  0  0  0
    6.0700    7.5420   11.3350 C   0  0  0  0  0  0  0  0  0  0  0  0
    7.0530    8.4850   11.5170 C   0  0  0  0  0  0  0  0  0  0  0  0
    8.3850    8.0790   11.6650 C   0  0  0  0  0  0  0  0  0  0  0  0
    4.2290    8.0530   11.1080 B   0  0  0  0  0  0  0  0  0  0  0  0
   11.2880    4.0940   13.0400 O   0  0  0  0  0  0  0  0  0  0  0  0
   12.8520    4.0120   11.2530 C   0  0  0  0  0  0  0  0  0  0  0  0
   12.4210    3.2630   10.1620 C   0  0  0  0  0  0  0  0  0  0  0  0
   13.2950    2.4940    9.4270 C   0  0  0  0  0  0  0  0  0  0  0  0
   14.6420    2.4270    9.7350 C   0  0  0  0  0  0  0  0  0  0  0  0
   15.0750    3.1700   10.8160 C   0  0  0  0  0  0  0  0  0  0  0  0
   14.1850    3.9510   11.5610 C   0  0  0  0  0  0  0  0  0  0  0  0
   15.5200    1.6300    8.9620 N   0  0  0  0  0  0  0  0  0  0  0  0
   15.1380    0.7490    8.1840 O   0  0  0  0  0  0  0  0  0  0  0  0
   16.8720    1.8380    9.0670 O   0  0  0  0  0  0  0  0  0  0  0  0
   12.3410    9.8020   12.3200 H   0  0  0  0  0  0  0  0  0  0  0  0
   12.9820    9.6440   13.9510 H   0  0  0  0  0  0  0  0  0  0  0  0
   13.8470    8.3440   11.5080 H   0  0  0  0  0  0  0  0  0  0  0  0
   14.6470    8.3960   13.0830 H   0  0  0  0  0  0  0  0  0  0  0  0
   13.6830    6.4170   13.8540 H   0  0  0  0  0  0  0  0  0  0  0  0
   14.3240    6.1590   12.2420 H   0  0  0  0  0  0  0  0  0  0  0  0
   11.1700    5.5190   10.1090 H   0  0  0  0  0  0  0  0  0  0  0  0
    9.9860    4.3460   10.9130 H   0  0  0  0  0  0  0  0  0  0  0  0
    8.0130    4.7880   11.4250 H   0  0  0  0  0  0  0  0  0  0  0  0
    5.6660    5.4510   11.1610 H   0  0  0  0  0  0  0  0  0  0  0  0
    6.7930    9.5220   11.5280 H   0  0  0  0  0  0  0  0  0  0  0  0
    9.1450    8.8480   11.7970 H   0  0  0  0  0  0  0  0  0  0  0  0
   11.7810    4.3100   13.8490 H   0  0  0  0  0  0  0  0  0  0  0  0
   11.3620    3.2950    9.8970 H   0  0  0  0  0  0  0  0  0  0  0  0
   12.9880    1.8920    8.5650 H   0  0  0  0  0  0  0  0  0  0  0  0
   16.1320    3.1340   11.0800 H   0  0  0  0  0  0  0  0  0  0  0  0
   14.5510    4.5240   12.4080 H   0  0  0  0  0  0  0  0  0  0  0  0
  2  1  1  0  0  0  0
  2 28  1  0  0  0  0
  3  4  1  0  0  0  0
  3 30  1  0  0  0  0
  3  2  1  0  0  0  0
  4 31  1  0  0  0  0
  5  9  1  0  0  0  0
  5  4  1  1  0  0  0
  6  5  1  0  0  0  0
  6 17  1  1  0  0  0
  7  8  1  0  0  0  0
  7  6  1  0  0  0  0
  8  9  1  0  0  0  0
  9  1  1  1  0  0  0
 10 15  1  0  0  0  0
 10  8  1  0  0  0  0
 11 10  2  0  0  0  0
 12 13  2  0  0  0  0
 12 11  1  0  0  0  0
 13 14  1  0  0  0  0
 14 37  1  0  0  0  0
 14 15  2  0  0  0  0
 15 38  1  0  0  0  0
 16 13  1  0  0  0  0
 17 39  1  0  0  0  0
 18 23  1  0  0  0  0
 18  6  1  0  0  0  0
 19 18  2  0  0  0  0
 20 21  2  0  0  0  0
 20 19  1  0  0  0  0
 21 22  1  0  0  0  0
 22 42  1  0  0  0  0
 22 23  2  0  0  0  0
 23 43  1  0  0  0  0
 24 26  2  0  0  0  0
 24 21  1  0  0  0  0
 25 24  2  0  0  0  0
 27  2  1  0  0  0  0
 29  3  1  0  0  0  0
 32  4  1  0  0  0  0
 33  7  1  0  0  0  0
 34  7  1  0  0  0  0
 35 11  1  0  0  0  0
 36 12  1  0  0  0  0
 40 19  1  0  0  0  0
 41 20  1  0  0  0  0
M  END
>  <Pose>
1

>  <Score>
-6.80

$$$$
