
 OpenBabel03172210413D

 45 48  0  0  1  0  0  0  0  0999 V2000
   12.1770    7.6620   11.9660 S   0  0  0  0  0  0  0  0  0  0  0  0
   13.1020    8.8090   13.0670 C   0  0  0  0  0  0  0  0  0  0  0  0
   12.0420    9.4710   13.9350 C   0  0  0  0  0  0  0  0  0  0  0  0
   11.4350    8.5110   14.9090 C   0  0  0  0  0  0  0  0  0  0  0  0
   10.7050    7.4330   14.3160 N   0  0  2  0  0  0  0  0  0  0  0  0
    9.4500    6.7330   14.6040 C   0  0  1  0  0  0  0  0  0  0  0  0
    9.9630    5.3100   14.3120 C   0  0  0  0  0  0  0  0  0  0  0  0
   10.7400    5.5260   13.1060 N   0  0  0  0  0  0  0  0  0  0  0  0
   11.1600    6.7250   13.1300 C   0  0  1  0  0  0  0  0  0  0  0  0
   10.9420    4.4940   12.1130 C   0  0  0  0  0  0  0  0  0  0  0  0
   11.5210    3.2840   12.4820 C   0  0  0  0  0  0  0  0  0  0  0  0
   11.7290    2.2820   11.5590 C   0  0  0  0  0  0  0  0  0  0  0  0
   11.3820    2.4150   10.2310 C   0  0  0  0  0  0  0  0  0  0  0  0
   10.8100    3.6080    9.8590 C   0  0  0  0  0  0  0  0  0  0  0  0
   10.6000    4.6260   10.8020 C   0  0  0  0  0  0  0  0  0  0  0  0
   11.6050    1.3810    9.3280 O   0  0  0  0  0  0  0  0  0  0  0  0
   10.6870    0.3800    8.9950 C   0  0  0  0  0  0  0  0  0  0  0  0
    9.1250    6.8830   15.9310 O   0  0  0  0  0  0  0  0  0  0  0  0
    8.3720    7.0790   13.6610 C   0  0  0  0  0  0  0  0  0  0  0  0
    8.4600    8.0080   12.6480 C   0  0  0  0  0  0  0  0  0  0  0  0
    7.3880    8.2540   11.8070 C   0  0  0  0  0  0  0  0  0  0  0  0
    6.2160    7.5720   11.9680 C   0  0  0  0  0  0  0  0  0  0  0  0
    6.1110    6.6390   12.9770 C   0  0  0  0  0  0  0  0  0  0  0  0
    7.1810    6.4050   13.8030 C   0  0  0  0  0  0  0  0  0  0  0  0
    4.6910    7.8660   10.8370 B   0  0  0  0  0  0  0  0  0  0  0  0
   13.6160    9.5350   12.4430 H   0  0  0  0  0  0  0  0  0  0  0  0
   13.7860    8.1820   13.6860 H   0  0  0  0  0  0  0  0  0  0  0  0
   11.2660    9.8900   13.2560 H   0  0  0  0  0  0  0  0  0  0  0  0
   12.4560   10.3260   14.4960 H   0  0  0  0  0  0  0  0  0  0  0  0
   12.2610    8.1110   15.5360 H   0  0  0  0  0  0  0  0  0  0  0  0
   10.7300    9.0990   15.5470 H   0  0  0  0  0  0  0  0  0  0  0  0
   10.6910    5.1070   15.1310 H   0  0  0  0  0  0  0  0  0  0  0  0
    9.1550    4.6010   14.2510 H   0  0  0  0  0  0  0  0  0  0  0  0
   11.8130    3.1230   13.5030 H   0  0  0  0  0  0  0  0  0  0  0  0
   12.1840    1.3250   11.8350 H   0  0  0  0  0  0  0  0  0  0  0  0
   10.5180    3.7840    8.8400 H   0  0  0  0  0  0  0  0  0  0  0  0
   10.1530    5.5540   10.4650 H   0  0  0  0  0  0  0  0  0  0  0  0
   11.2120   -0.6120    8.8800 H   0  0  0  0  0  0  0  0  0  0  0  0
    9.8840    0.2120    9.7190 H   0  0  0  0  0  0  0  0  0  0  0  0
   10.2900    0.5970    7.9650 H   0  0  0  0  0  0  0  0  0  0  0  0
    9.5460    6.2060   16.5120 H   0  0  0  0  0  0  0  0  0  0  0  0
    9.3840    8.5300   12.5390 H   0  0  0  0  0  0  0  0  0  0  0  0
    7.4740    8.9850   11.0130 H   0  0  0  0  0  0  0  0  0  0  0  0
    5.1830    6.0920   13.1130 H   0  0  0  0  0  0  0  0  0  0  0  0
    7.0550    5.6560   14.5880 H   0  0  0  0  0  0  0  0  0  0  0  0
  1  2  1  0  0  0  0
  2 27  1  0  0  0  0
  2  3  1  0  0  0  0
  3 29  1  0  0  0  0
  3  4  1  0  0  0  0
  4 30  1  0  0  0  0
  4 31  1  0  0  0  0
  5  6  1  0  0  0  0
  5  4  1  1  0  0  0
  6 18  1  1  0  0  0
  7  6  1  0  0  0  0
  7 32  1  0  0  0  0
  8  9  1  0  0  0  0
  8  7  1  0  0  0  0
  9  1  1  6  0  0  0
  9  5  1  0  0  0  0
 10 11  1  0  0  0  0
 10  8  1  0  0  0  0
 11 34  1  0  0  0  0
 12 35  1  0  0  0  0
 12 11  2  0  0  0  0
 13 12  1  0  0  0  0
 14 13  2  0  0  0  0
 14 15  1  0  0  0  0
 15 10  2  0  0  0  0
 16 13  1  0  0  0  0
 17 16  1  0  0  0  0
 17 39  1  0  0  0  0
 18 41  1  0  0  0  0
 19 24  1  0  0  0  0
 19  6  1  0  0  0  0
 20 19  2  0  0  0  0
 21 22  2  0  0  0  0
 21 20  1  0  0  0  0
 22 23  1  0  0  0  0
 23 44  1  0  0  0  0
 23 24  2  0  0  0  0
 24 45  1  0  0  0  0
 25 22  1  0  0  0  0
 26  2  1  0  0  0  0
 28  3  1  0  0  0  0
 33  7  1  0  0  0  0
 36 14  1  0  0  0  0
 37 15  1  0  0  0  0
 38 17  1  0  0  0  0
 40 17  1  0  0  0  0
 42 20  1  0  0  0  0
 43 21  1  0  0  0  0
M  END
>  <Pose>
1

>  <Score>
-4.98

$$$$
