
 OpenBabel03172210413D

 41 44  0  0  1  0  0  0  0  0999 V2000
   13.6350    4.8220   12.1690 S   0  0  0  0  0  0  0  0  0  0  0  0
   14.4020    6.4240   12.5390 C   0  0  0  0  0  0  0  0  0  0  0  0
   13.6490    7.4610   11.6990 C   0  0  0  0  0  0  0  0  0  0  0  0
   12.2020    7.5230   12.2140 C   0  0  0  0  0  0  0  0  0  0  0  0
   11.4510    6.4410   11.5650 N   0  0  1  0  0  0  0  0  0  0  0  0
   10.1690    6.3650   10.9940 C   0  0  2  0  0  0  0  0  0  0  0  0
   10.1760    5.0650   10.1960 C   0  0  0  0  0  0  0  0  0  0  0  0
   11.3820    4.4100   10.6010 N   0  0  0  0  0  0  0  0  0  0  0  0
   12.0480    5.1660   11.3740 C   0  0  1  0  0  0  0  0  0  0  0  0
   11.7430    3.1050   10.1190 C   0  0  0  0  0  0  0  0  0  0  0  0
   10.8020    2.1270   10.0960 C   0  0  0  0  0  0  0  0  0  0  0  0
   11.1700    0.8810    9.5960 C   0  0  0  0  0  0  0  0  0  0  0  0
   12.4360    0.6070    9.1300 C   0  0  0  0  0  0  0  0  0  0  0  0
   13.3580    1.6330    9.1760 C   0  0  0  0  0  0  0  0  0  0  0  0
   13.0290    2.8750    9.6620 C   0  0  0  0  0  0  0  0  0  0  0  0
   10.0240    7.3920   10.0350 O   0  0  0  0  0  0  0  0  0  0  0  0
    8.9970    6.3770   11.8670 C   0  0  0  0  0  0  0  0  0  0  0  0
    9.2360    6.6240   13.2170 C   0  0  0  0  0  0  0  0  0  0  0  0
    8.2380    6.7020   14.1710 C   0  0  0  0  0  0  0  0  0  0  0  0
    6.9320    6.5290   13.8040 C   0  0  0  0  0  0  0  0  0  0  0  0
    6.6740    6.2820   12.4680 C   0  0  0  0  0  0  0  0  0  0  0  0
    7.6880    6.2070   11.5180 C   0  0  0  0  0  0  0  0  0  0  0  0
    5.4910    6.6370   15.0820 B   0  0  0  0  0  0  0  0  0  0  0  0
   14.2640    6.6350   13.6120 H   0  0  0  0  0  0  0  0  0  0  0  0
   15.4690    6.4280   12.2260 H   0  0  0  0  0  0  0  0  0  0  0  0
   14.1180    8.4340   11.8090 H   0  0  0  0  0  0  0  0  0  0  0  0
   13.6670    7.1170   10.6490 H   0  0  0  0  0  0  0  0  0  0  0  0
   12.1760    7.4760   13.2970 H   0  0  0  0  0  0  0  0  0  0  0  0
   11.8260    8.5090   11.8960 H   0  0  0  0  0  0  0  0  0  0  0  0
   10.1980    5.2840    9.1130 H   0  0  0  0  0  0  0  0  0  0  0  0
    9.3150    4.4170   10.4940 H   0  0  0  0  0  0  0  0  0  0  0  0
    9.7640    2.2580   10.4520 H   0  0  0  0  0  0  0  0  0  0  0  0
   10.4190    0.1130    9.5870 H   0  0  0  0  0  0  0  0  0  0  0  0
   12.7070   -0.3820    8.7310 H   0  0  0  0  0  0  0  0  0  0  0  0
   14.3690    1.4490    8.8140 H   0  0  0  0  0  0  0  0  0  0  0  0
   13.7480    3.7060    9.7070 H   0  0  0  0  0  0  0  0  0  0  0  0
   10.9430    7.6410    9.7570 H   0  0  0  0  0  0  0  0  0  0  0  0
   10.2800    6.7560   13.4990 H   0  0  0  0  0  0  0  0  0  0  0  0
    8.4800    6.8980   15.2230 H   0  0  0  0  0  0  0  0  0  0  0  0
    5.6360    6.1510   12.1850 H   0  0  0  0  0  0  0  0  0  0  0  0
    7.4550    6.0030   10.4750 H   0  0  0  0  0  0  0  0  0  0  0  0
  1  2  1  0  0  0  0
  2 24  1  0  0  0  0
  3 26  1  0  0  0  0
  3  4  1  0  0  0  0
  3  2  1  0  0  0  0
  4 28  1  0  0  0  0
  5  4  1  6  0  0  0
  6 16  1  6  0  0  0
  6  5  1  0  0  0  0
  6 17  1  0  0  0  0
  7 31  1  0  0  0  0
  7  8  1  0  0  0  0
  7  6  1  0  0  0  0
  8  9  1  0  0  0  0
  9  5  1  0  0  0  0
  9  1  1  6  0  0  0
 10  8  1  0  0  0  0
 11 10  1  0  0  0  0
 11 32  1  0  0  0  0
 12 11  2  0  0  0  0
 13 14  2  0  0  0  0
 13 12  1  0  0  0  0
 14 15  1  0  0  0  0
 15 36  1  0  0  0  0
 15 10  2  0  0  0  0
 17 18  1  0  0  0  0
 18 38  1  0  0  0  0
 18 19  2  0  0  0  0
 19 39  1  0  0  0  0
 20 19  1  0  0  0  0
 20 23  1  0  0  0  0
 21 20  2  0  0  0  0
 22 17  2  0  0  0  0
 22 21  1  0  0  0  0
 25  2  1  0  0  0  0
 27  3  1  0  0  0  0
 29  4  1  0  0  0  0
 30  7  1  0  0  0  0
 33 12  1  0  0  0  0
 34 13  1  0  0  0  0
 35 14  1  0  0  0  0
 37 16  1  0  0  0  0
 40 21  1  0  0  0  0
 41 22  1  0  0  0  0
M  END
>  <Pose>
1

>  <Score>
-5.53

$$$$
