
 OpenBabel03172210413D

 45 49  0  0  1  0  0  0  0  0999 V2000
    3.8910    9.3250   15.2480 S   0  0  0  0  0  0  0  0  0  0  0  0
    3.4540    7.6340   15.8790 C   0  0  0  0  0  0  0  0  0  0  0  0
    4.7620    6.9650   15.5440 C   0  0  0  0  0  0  0  0  0  0  0  0
    5.8620    7.8280   15.8710 N   0  0  0  0  0  0  0  0  0  0  0  0
    5.6000    9.2070   15.7380 C   0  0  0  0  0  0  0  0  0  0  0  0
    6.4930   10.0700   15.9750 N   0  0  0  0  0  0  0  0  0  0  0  0
    7.8350    9.7150   16.3650 C   0  0  0  0  0  0  0  0  0  0  0  0
    8.5980   10.4990   16.9810 O   0  0  0  0  0  0  0  0  0  0  0  0
    8.3070    8.3500   16.0070 C   0  0  1  0  0  0  0  0  0  0  0  0
    7.1900    7.4200   16.2910 C   0  0  0  0  0  0  0  0  0  0  0  0
    7.3060    6.3120   16.8670 O   0  0  0  0  0  0  0  0  0  0  0  0
    8.6960    8.3750   14.5700 C   0  0  2  0  0  0  0  0  0  0  0  0
    7.9700    7.3590   13.7240 C   0  0  2  0  0  0  0  0  0  0  0  0
    8.6110    6.0350   13.6820 C   0  0  0  0  0  0  0  0  0  0  0  0
    8.5010    5.2420   14.6820 O   0  0  0  0  0  0  0  0  0  0  0  0
    9.3690    5.6250   12.5160 N   0  0  0  0  0  0  0  0  0  0  0  0
   10.2360    4.4850   12.4150 C   0  0  0  0  0  0  0  0  0  0  0  0
   11.3580    4.7520   11.4430 C   0  0  0  0  0  0  0  0  0  0  0  0
   10.3380    5.6020   10.1500 S   0  0  0  0  0  0  0  0  0  0  0  0
    9.2460    6.3880   11.3330 C   0  0  0  0  0  0  0  0  0  0  0  0
    8.4970    7.4180   11.2470 N   0  0  0  0  0  0  0  0  0  0  0  0
    7.7160    7.8840   12.3590 C   0  0  0  0  0  0  0  0  0  0  0  0
    6.8240    8.7390   12.1320 O   0  0  0  0  0  0  0  0  0  0  0  0
   10.1660    8.2440   14.4650 C   0  0  0  0  0  0  0  0  0  0  0  0
   10.7980    8.2820   13.2280 C   0  0  0  0  0  0  0  0  0  0  0  0
   12.1680    8.1640   13.1190 C   0  0  0  0  0  0  0  0  0  0  0  0
   12.9450    8.0060   14.2440 C   0  0  0  0  0  0  0  0  0  0  0  0
   12.3240    7.9680   15.4550 C   0  0  0  0  0  0  0  0  0  0  0  0
   10.9550    8.0840   15.5810 C   0  0  0  0  0  0  0  0  0  0  0  0
   13.0440    8.2160   11.4240 B   0  0  0  0  0  0  0  0  0  0  0  0
    3.3030    7.6660   16.9590 H   0  0  0  0  0  0  0  0  0  0  0  0
    2.6480    7.2110   15.2880 H   0  0  0  0  0  0  0  0  0  0  0  0
    4.8180    6.0320   16.1390 H   0  0  0  0  0  0  0  0  0  0  0  0
    4.7430    6.7540   14.4480 H   0  0  0  0  0  0  0  0  0  0  0  0
    9.2000    8.0720   16.6240 H   0  0  0  0  0  0  0  0  0  0  0  0
    8.4040    9.3780   14.1490 H   0  0  0  0  0  0  0  0  0  0  0  0
    6.9320    7.2020   14.1520 H   0  0  0  0  0  0  0  0  0  0  0  0
    9.7090    3.5830   12.0260 H   0  0  0  0  0  0  0  0  0  0  0  0
   10.7270    4.2820   13.3900 H   0  0  0  0  0  0  0  0  0  0  0  0
   12.1210    5.4430   11.8330 H   0  0  0  0  0  0  0  0  0  0  0  0
   11.7450    3.8110   11.0570 H   0  0  0  0  0  0  0  0  0  0  0  0
   10.2050    8.4050   12.3380 H   0  0  0  0  0  0  0  0  0  0  0  0
   14.0380    7.9110   14.1720 H   0  0  0  0  0  0  0  0  0  0  0  0
   12.9170    7.8420   16.3710 H   0  0  0  0  0  0  0  0  0  0  0  0
   10.5170    8.0480   16.5930 H   0  0  0  0  0  0  0  0  0  0  0  0
  1  5  1  0  0  0  0
  1  2  1  0  0  0  0
  2 31  1  0  0  0  0
  3  4  1  0  0  0  0
  3  2  1  0  0  0  0
  3 33  1  0  0  0  0
  4 10  1  0  0  0  0
  5  4  1  0  0  0  0
  5  6  2  0  0  0  0
  6  7  1  0  0  0  0
  7  8  2  0  0  0  0
  9 10  1  0  0  0  0
  9  7  1  0  0  0  0
  9 35  1  1  0  0  0
 10 11  2  0  0  0  0
 12 36  1  6  0  0  0
 12  9  1  0  0  0  0
 13 37  1  1  0  0  0
 13 12  1  0  0  0  0
 14 13  1  0  0  0  0
 14 15  2  0  0  0  0
 16 14  1  0  0  0  0
 17 16  1  0  0  0  0
 17 39  1  0  0  0  0
 18 40  1  0  0  0  0
 18 17  1  0  0  0  0
 19 20  1  0  0  0  0
 19 18  1  0  0  0  0
 20 16  1  0  0  0  0
 21 20  2  0  0  0  0
 21 22  1  0  0  0  0
 22 13  1  0  0  0  0
 23 22  2  0  0  0  0
 24 12  1  0  0  0  0
 24 29  1  0  0  0  0
 25 24  2  0  0  0  0
 26 25  1  0  0  0  0
 26 27  2  0  0  0  0
 27 28  1  0  0  0  0
 28 29  2  0  0  0  0
 28 44  1  0  0  0  0
 29 45  1  0  0  0  0
 30 26  1  0  0  0  0
 32  2  1  0  0  0  0
 34  3  1  0  0  0  0
 38 17  1  0  0  0  0
 41 18  1  0  0  0  0
 42 25  1  0  0  0  0
 43 27  1  0  0  0  0
M  END
>  <Pose>
1

>  <Score>
-4.88

$$$$
