
 OpenBabel03172210413D

 45 49  0  0  1  0  0  0  0  0999 V2000
   13.5930    7.9440   11.4470 S   0  0  0  0  0  0  0  0  0  0  0  0
   14.0610    7.4330   13.1580 C   0  0  0  0  0  0  0  0  0  0  0  0
   13.5240    6.0370   13.1360 C   0  0  0  0  0  0  0  0  0  0  0  0
   12.3100    5.9520   12.4150 N   0  0  0  0  0  0  0  0  0  0  0  0
   12.1210    6.8900   11.3780 C   0  0  0  0  0  0  0  0  0  0  0  0
   11.0740    6.9330   10.6170 N   0  0  0  0  0  0  0  0  0  0  0  0
   10.0120    5.9510   10.7650 C   0  0  0  0  0  0  0  0  0  0  0  0
    9.3560    5.7750    9.7090 O   0  0  0  0  0  0  0  0  0  0  0  0
    9.8670    5.3330   12.0530 C   0  0  1  0  0  0  0  0  0  0  0  0
   11.2360    5.0020   12.5990 C   0  0  0  0  0  0  0  0  0  0  0  0
   11.4480    3.9330   13.2000 O   0  0  0  0  0  0  0  0  0  0  0  0
    8.9870    5.8640   13.1040 C   0  0  2  0  0  0  0  0  0  0  0  0
    7.5230    5.8340   12.9820 C   0  0  1  0  0  0  0  0  0  0  0  0
    6.9450    6.2310   14.3400 C   0  0  0  0  0  0  0  0  0  0  0  0
    6.9080    5.3950   15.2710 O   0  0  0  0  0  0  0  0  0  0  0  0
    6.4430    7.5720   14.5500 N   0  0  0  0  0  0  0  0  0  0  0  0
    6.1850    8.2140   15.7920 C   0  0  0  0  0  0  0  0  0  0  0  0
    6.3690    9.7070   15.6880 C   0  0  0  0  0  0  0  0  0  0  0  0
    5.6010    9.9170   14.0120 S   0  0  0  0  0  0  0  0  0  0  0  0
    6.1530    8.3370   13.3950 C   0  0  0  0  0  0  0  0  0  0  0  0
    6.3030    7.9160   12.2020 N   0  0  0  0  0  0  0  0  0  0  0  0
    6.8030    6.5640   11.9740 C   0  0  0  0  0  0  0  0  0  0  0  0
    6.5520    6.0950   10.8490 O   0  0  0  0  0  0  0  0  0  0  0  0
    9.5150    7.1500   13.7030 C   0  0  0  0  0  0  0  0  0  0  0  0
   10.3190    7.1330   14.8180 C   0  0  0  0  0  0  0  0  0  0  0  0
   10.7740    8.3190   15.3350 C   0  0  0  0  0  0  0  0  0  0  0  0
   10.4670    9.5280   14.7950 C   0  0  0  0  0  0  0  0  0  0  0  0
    9.6650    9.5780   13.6820 C   0  0  0  0  0  0  0  0  0  0  0  0
    9.2020    8.3710   13.1550 C   0  0  0  0  0  0  0  0  0  0  0  0
   11.1080   11.1820   15.5260 B   0  0  0  0  0  0  0  0  0  0  0  0
   15.1680    7.4230   13.1850 H   0  0  0  0  0  0  0  0  0  0  0  0
   13.6020    8.0870   13.9010 H   0  0  0  0  0  0  0  0  0  0  0  0
   14.3090    5.3430   12.7350 H   0  0  0  0  0  0  0  0  0  0  0  0
   13.3470    5.7620   14.2060 H   0  0  0  0  0  0  0  0  0  0  0  0
    9.4540    4.2740   11.8320 H   0  0  0  0  0  0  0  0  0  0  0  0
    9.1910    5.1230   13.9900 H   0  0  0  0  0  0  0  0  0  0  0  0
    7.1850    4.7290   12.9370 H   0  0  0  0  0  0  0  0  0  0  0  0
    5.1440    8.0130   16.1550 H   0  0  0  0  0  0  0  0  0  0  0  0
    6.9220    7.8740   16.5520 H   0  0  0  0  0  0  0  0  0  0  0  0
    7.4150   10.0020   15.6150 H   0  0  0  0  0  0  0  0  0  0  0  0
    5.7820   10.2270   16.4400 H   0  0  0  0  0  0  0  0  0  0  0  0
   10.5920    6.1720   15.2810 H   0  0  0  0  0  0  0  0  0  0  0  0
   11.4070    8.2930   16.2150 H   0  0  0  0  0  0  0  0  0  0  0  0
    9.4010   10.5330   13.2250 H   0  0  0  0  0  0  0  0  0  0  0  0
    8.5700    8.4520   12.2730 H   0  0  0  0  0  0  0  0  0  0  0  0
  1  2  1  0  0  0  0
  2 31  1  0  0  0  0
  2 32  1  0  0  0  0
  3  2  1  0  0  0  0
  3 34  1  0  0  0  0
  4 10  1  0  0  0  0
  4  3  1  0  0  0  0
  5  1  1  0  0  0  0
  5  4  1  0  0  0  0
  6  7  1  0  0  0  0
  6  5  2  0  0  0  0
  7  9  1  0  0  0  0
  8  7  2  0  0  0  0
  9 35  1  6  0  0  0
  9 10  1  0  0  0  0
  9 12  1  0  0  0  0
 10 11  2  0  0  0  0
 12 24  1  0  0  0  0
 12 36  1  1  0  0  0
 13 37  1  6  0  0  0
 13 12  1  0  0  0  0
 13 14  1  0  0  0  0
 14 16  1  0  0  0  0
 14 15  2  0  0  0  0
 16 17  1  0  0  0  0
 17 38  1  0  0  0  0
 17 39  1  0  0  0  0
 18 17  1  0  0  0  0
 18 41  1  0  0  0  0
 19 18  1  0  0  0  0
 20 19  1  0  0  0  0
 20 16  1  0  0  0  0
 21 20  2  0  0  0  0
 22 21  1  0  0  0  0
 22 13  1  0  0  0  0
 23 22  2  0  0  0  0
 24 25  1  0  0  0  0
 25 42  1  0  0  0  0
 25 26  2  0  0  0  0
 26 43  1  0  0  0  0
 27 26  1  0  0  0  0
 27 30  1  0  0  0  0
 28 27  2  0  0  0  0
 29 28  1  0  0  0  0
 29 24  2  0  0  0  0
 33  3  1  0  0  0  0
 40 18  1  0  0  0  0
 44 28  1  0  0  0  0
 45 29  1  0  0  0  0
M  END
>  <Pose>
1

>  <Score>
-6.27

$$$$
