
 OpenBabel03172210413D

 25 28  0  0  0  0  0  0  0  0999 V2000
   13.9640    3.6350   11.3900 S   0  0  0  0  0  0  0  0  0  0  0  0
   15.0100    4.8730   11.9590 C   0  0  0  0  0  0  0  0  0  0  0  0
   16.0500    4.7310   11.1390 N   0  0  0  0  0  0  0  0  0  0  0  0
   16.9320    5.7050   11.5480 C   0  0  0  0  0  0  0  0  0  0  0  0
   16.4070    6.3790   12.5700 N   0  0  0  0  0  0  0  0  0  0  0  0
   15.2170    5.8920   12.8540 N   0  0  0  0  0  0  0  0  0  0  0  0
   18.2590    5.9780   10.9590 C   0  0  0  0  0  0  0  0  0  0  0  0
   19.3730    5.9530   11.7140 N   0  0  0  0  0  0  0  0  0  0  0  0
   20.5820    6.2040   11.1630 C   0  0  0  0  0  0  0  0  0  0  0  0
   20.6890    6.4870    9.8290 C   0  0  0  0  0  0  0  0  0  0  0  0
   19.5760    6.5070    9.0940 N   0  0  0  0  0  0  0  0  0  0  0  0
   18.3560    6.2600    9.6180 C   0  0  0  0  0  0  0  0  0  0  0  0
   16.0150    3.8260   10.2470 N   0  0  0  0  0  0  0  0  0  0  0  0
   14.9700    3.0320   10.1250 C   0  0  0  0  0  0  0  0  0  0  0  0
   14.7180    1.9360    9.1830 C   0  0  0  0  0  0  0  0  0  0  0  0
   15.6070    1.3710    8.3570 N   0  0  0  0  0  0  0  0  0  0  0  0
   14.9990    0.4020    7.6520 N   0  0  0  0  0  0  0  0  0  0  0  0
   13.7060    0.3410    8.0250 C   0  0  0  0  0  0  0  0  0  0  0  0
   13.5280    1.3220    9.0040 C   0  0  0  0  0  0  0  0  0  0  0  0
   11.8850    1.6590    9.8660 B   0  0  0  0  0  0  0  0  0  0  0  0
   21.4370    6.1750   11.7960 H   0  0  0  0  0  0  0  0  0  0  0  0
   21.6400    6.6840    9.3970 H   0  0  0  0  0  0  0  0  0  0  0  0
   17.4510    6.2790    9.0080 H   0  0  0  0  0  0  0  0  0  0  0  0
   15.4710   -0.1950    6.9350 H   0  0  0  0  0  0  0  0  0  0  0  0
   12.9930   -0.3540    7.6110 H   0  0  0  0  0  0  0  0  0  0  0  0
  1  2  1  0  0  0  0
  2  6  2  0  0  0  0
  3  4  1  0  0  0  0
  3  2  1  0  0  0  0
  4  5  2  0  0  0  0
  5  6  1  0  0  0  0
  7  4  1  0  0  0  0
  7  8  1  0  0  0  0
  9  8  2  0  0  0  0
  9 21  1  0  0  0  0
 10  9  1  0  0  0  0
 11 12  1  0  0  0  0
 11 10  2  0  0  0  0
 12  7  2  0  0  0  0
 13  3  1  0  0  0  0
 14 13  2  0  0  0  0
 14  1  1  0  0  0  0
 15 14  1  0  0  0  0
 16 15  2  0  0  0  0
 17 18  1  0  0  0  0
 17 16  1  0  0  0  0
 18 19  2  0  0  0  0
 19 15  1  0  0  0  0
 19 20  1  0  0  0  0
 22 10  1  0  0  0  0
 23 12  1  0  0  0  0
 24 17  1  0  0  0  0
 25 18  1  0  0  0  0
M  END
>  <Pose>
1

>  <Score>
-6.73

$$$$
