
 OpenBabel03172210413D

 45 49  0  0  1  0  0  0  0  0999 V2000
   11.0630    3.1930   11.0020 S   0  0  0  0  0  0  0  0  0  0  0  0
   10.8800    4.9690   11.0290 C   0  0  0  0  0  0  0  0  0  0  0  0
    9.8240    5.7120   11.1030 N   0  0  0  0  0  0  0  0  0  0  0  0
    9.9620    7.1520   11.1070 C   0  0  0  0  0  0  0  0  0  0  0  0
    9.1340    7.9530   10.6770 O   0  0  0  0  0  0  0  0  0  0  0  0
   11.2560    7.7020   11.7040 C   0  0  2  0  0  0  0  0  0  0  0  0
   12.2900    6.9440   10.9310 C   0  0  0  0  0  0  0  0  0  0  0  0
   13.2220    7.5050   10.2860 O   0  0  0  0  0  0  0  0  0  0  0  0
   12.1890    5.4910   10.9380 N   0  0  0  0  0  0  0  0  0  0  0  0
   13.2010    4.5730   10.8560 N   0  0  0  0  0  0  0  0  0  0  0  0
   12.8450    3.2070   10.8720 C   0  0  0  0  0  0  0  0  0  0  0  0
   13.6340    2.1390   10.8070 C   0  0  0  0  0  0  0  0  0  0  0  0
   11.2760    7.3700   13.1690 C   0  0  1  0  0  0  0  0  0  0  0  0
   12.1330    8.1950   14.0440 C   0  0  2  0  0  0  0  0  0  0  0  0
   13.1980    8.9680   13.4250 C   0  0  0  0  0  0  0  0  0  0  0  0
   13.0500   10.2230   13.2350 O   0  0  0  0  0  0  0  0  0  0  0  0
   14.4450    8.3510   13.0100 N   0  0  0  0  0  0  0  0  0  0  0  0
   15.3190    8.7830   12.0650 N   0  0  0  0  0  0  0  0  0  0  0  0
   16.4810    8.0020   11.8470 C   0  0  0  0  0  0  0  0  0  0  0  0
   17.4760    8.1930   11.0090 C   0  0  0  0  0  0  0  0  0  0  0  0
   16.3270    6.6310   12.9900 S   0  0  0  0  0  0  0  0  0  0  0  0
   14.7740    7.1610   13.6890 C   0  0  0  0  0  0  0  0  0  0  0  0
   14.0490    6.6340   14.6110 N   0  0  0  0  0  0  0  0  0  0  0  0
   12.8140    7.2480   15.0170 C   0  0  0  0  0  0  0  0  0  0  0  0
   12.2640    7.0570   16.1110 O   0  0  0  0  0  0  0  0  0  0  0  0
    9.8970    7.2930   13.7280 C   0  0  0  0  0  0  0  0  0  0  0  0
    9.3770    6.1040   14.1840 C   0  0  0  0  0  0  0  0  0  0  0  0
    8.1040    6.0270   14.7000 C   0  0  0  0  0  0  0  0  0  0  0  0
    7.3280    7.1620   14.7650 C   0  0  0  0  0  0  0  0  0  0  0  0
    7.8170    8.3900   14.3130 C   0  0  0  0  0  0  0  0  0  0  0  0
    9.0980    8.4250   13.8030 C   0  0  0  0  0  0  0  0  0  0  0  0
    5.5550    7.0880   15.4780 B   0  0  0  0  0  0  0  0  0  0  0  0
   11.2920    8.7630   11.4800 H   0  0  0  0  0  0  0  0  0  0  0  0
   14.2460    4.8370   10.7730 H   0  0  0  0  0  0  0  0  0  0  0  0
   13.1760    1.1630   10.8330 H   0  0  0  0  0  0  0  0  0  0  0  0
   14.6900    2.2110   10.7310 H   0  0  0  0  0  0  0  0  0  0  0  0
   11.6900    6.3110   13.2380 H   0  0  0  0  0  0  0  0  0  0  0  0
   11.5510    8.9120   14.6850 H   0  0  0  0  0  0  0  0  0  0  0  0
   15.1990    9.6750   11.4710 H   0  0  0  0  0  0  0  0  0  0  0  0
   18.2790    7.4880   10.9830 H   0  0  0  0  0  0  0  0  0  0  0  0
   17.5000    9.0390   10.3520 H   0  0  0  0  0  0  0  0  0  0  0  0
    9.9410    5.1800   14.1580 H   0  0  0  0  0  0  0  0  0  0  0  0
    7.6910    5.1000   15.0590 H   0  0  0  0  0  0  0  0  0  0  0  0
    7.2100    9.2890   14.3620 H   0  0  0  0  0  0  0  0  0  0  0  0
    9.5480    9.3480   13.4300 H   0  0  0  0  0  0  0  0  0  0  0  0
  1  2  1  0  0  0  0
  2  3  2  0  0  0  0
  3  4  1  0  0  0  0
  4  6  1  0  0  0  0
  5  4  2  0  0  0  0
  6 33  1  6  0  0  0
  6 13  1  0  0  0  0
  7  9  1  0  0  0  0
  7  6  1  0  0  0  0
  8  7  2  0  0  0  0
  9  2  1  0  0  0  0
 10 11  1  0  0  0  0
 10  9  1  0  0  0  0
 11  1  1  0  0  0  0
 12 35  1  0  0  0  0
 12 11  2  0  0  0  0
 13 37  1  1  0  0  0
 13 26  1  0  0  0  0
 13 14  1  0  0  0  0
 14 38  1  1  0  0  0
 14 24  1  0  0  0  0
 15 14  1  0  0  0  0
 16 15  2  0  0  0  0
 17 15  1  0  0  0  0
 17 22  1  0  0  0  0
 18 17  1  0  0  0  0
 19 18  1  0  0  0  0
 19 21  1  0  0  0  0
 20 19  2  0  0  0  0
 21 22  1  0  0  0  0
 22 23  2  0  0  0  0
 23 24  1  0  0  0  0
 24 25  2  0  0  0  0
 26 31  2  0  0  0  0
 26 27  1  0  0  0  0
 27 28  2  0  0  0  0
 28 29  1  0  0  0  0
 28 43  1  0  0  0  0
 29 32  1  0  0  0  0
 30 44  1  0  0  0  0
 30 29  2  0  0  0  0
 31 30  1  0  0  0  0
 34 10  1  0  0  0  0
 36 12  1  0  0  0  0
 39 18  1  0  0  0  0
 40 20  1  0  0  0  0
 41 20  1  0  0  0  0
 42 27  1  0  0  0  0
 45 31  1  0  0  0  0
M  END
>  <Pose>
1

>  <Score>
-5.50

$$$$
