
 OpenBabel03172210413D

 43 46  0  0  1  0  0  0  0  0999 V2000
    5.1220   10.2470   14.4080 Cl  0  0  0  0  0  0  0  0  0  0  0  0
    5.9040    8.7930   15.0620 C   0  0  0  0  0  0  0  0  0  0  0  0
    6.5520    7.9470   14.1470 C   0  0  0  0  0  0  0  0  0  0  0  0
    7.1540    6.8330   14.6530 C   0  0  0  0  0  0  0  0  0  0  0  0
    7.1150    6.5690   16.0100 C   0  0  0  0  0  0  0  0  0  0  0  0
    6.4780    7.4010   16.9150 C   0  0  0  0  0  0  0  0  0  0  0  0
    5.8580    8.5420   16.4170 C   0  0  0  0  0  0  0  0  0  0  0  0
    6.4140    8.2700   12.6830 C   0  0  2  0  0  0  0  0  0  0  0  0
    5.3840    7.3550   12.2050 N   0  0  0  0  0  0  0  0  0  0  0  0
    5.7200    6.3720   11.2860 C   0  0  0  0  0  0  0  0  0  0  0  0
    7.1460    5.8690   11.2240 C   0  0  0  0  0  0  0  0  0  0  0  0
    8.0920    6.8070   11.6460 N   0  0  0  0  0  0  0  0  0  0  0  0
    7.6530    8.1410   11.9240 C   0  0  0  0  0  0  0  0  0  0  0  0
    9.4790    6.5740   11.8370 C   0  0  0  0  0  0  0  0  0  0  0  0
   10.0850    7.6230   12.3450 O   0  0  0  0  0  0  0  0  0  0  0  0
   10.3200    5.4580   11.6010 C   0  0  0  0  0  0  0  0  0  0  0  0
   11.2700    5.1400   12.6030 C   0  0  0  0  0  0  0  0  0  0  0  0
   12.0080    4.0330   12.5270 N   0  0  0  0  0  0  0  0  0  0  0  0
   11.8910    3.1770   11.5110 C   0  0  0  0  0  0  0  0  0  0  0  0
   10.9900    3.4300   10.5120 C   0  0  0  0  0  0  0  0  0  0  0  0
   10.1990    4.5760   10.5540 C   0  0  0  0  0  0  0  0  0  0  0  0
   10.8300    2.5020    9.4360 N   0  0  0  0  0  0  0  0  0  0  0  0
   11.6290    1.3170    9.4330 C   0  0  0  0  0  0  0  0  0  0  0  0
   11.3190    0.2600    8.8460 O   0  0  0  0  0  0  0  0  0  0  0  0
   12.9170    1.3640   10.1910 C   0  0  0  0  0  0  0  0  0  0  0  0
   12.6780    2.0210   11.4460 O   0  0  0  0  0  0  0  0  0  0  0  0
    7.6560    6.1120   13.9810 H   0  0  0  0  0  0  0  0  0  0  0  0
    7.6080    5.6540   16.3890 H   0  0  0  0  0  0  0  0  0  0  0  0
    6.4810    7.1510   17.9850 H   0  0  0  0  0  0  0  0  0  0  0  0
    5.3520    9.2290   17.0740 H   0  0  0  0  0  0  0  0  0  0  0  0
    5.9610    9.2930   12.6240 H   0  0  0  0  0  0  0  0  0  0  0  0
    4.8150    7.0030   13.0010 H   0  0  0  0  0  0  0  0  0  0  0  0
    5.0780    5.4520   11.5150 H   0  0  0  0  0  0  0  0  0  0  0  0
    5.3960    6.6710   10.2390 H   0  0  0  0  0  0  0  0  0  0  0  0
    7.3740    5.8130   10.0380 H   0  0  0  0  0  0  0  0  0  0  0  0
    7.2180    4.8230   11.5080 H   0  0  0  0  0  0  0  0  0  0  0  0
    8.5060    8.7240   12.3830 H   0  0  0  0  0  0  0  0  0  0  0  0
    7.5190    8.7010   10.9190 H   0  0  0  0  0  0  0  0  0  0  0  0
   11.3810    5.8270   13.4390 H   0  0  0  0  0  0  0  0  0  0  0  0
    9.5120    4.6800    9.7750 H   0  0  0  0  0  0  0  0  0  0  0  0
   10.1550    2.6640    8.6740 H   0  0  0  0  0  0  0  0  0  0  0  0
   13.6960    1.9260    9.6740 H   0  0  0  0  0  0  0  0  0  0  0  0
   13.2980    0.3560   10.4340 H   0  0  0  0  0  0  0  0  0  0  0  0
  1  2  1  0  0  0  0
  2  7  1  0  0  0  0
  3  4  1  0  0  0  0
  3  2  2  0  0  0  0
  4  5  2  0  0  0  0
  5 28  1  0  0  0  0
  5  6  1  0  0  0  0
  6 29  1  0  0  0  0
  7  6  2  0  0  0  0
  7 30  1  0  0  0  0
  8 31  1  6  0  0  0
  8  3  1  0  0  0  0
  9  8  1  0  0  0  0
  9 32  1  0  0  0  0
 10 33  1  0  0  0  0
 10  9  1  0  0  0  0
 11 10  1  0  0  0  0
 11 36  1  0  0  0  0
 11 12  1  0  0  0  0
 12 14  1  0  0  0  0
 12 13  1  0  0  0  0
 13 37  1  0  0  0  0
 13  8  1  0  0  0  0
 14 15  2  0  0  0  0
 16 14  1  0  0  0  0
 16 17  2  0  0  0  0
 17 39  1  0  0  0  0
 18 17  1  0  0  0  0
 19 18  2  0  0  0  0
 20 21  2  0  0  0  0
 20 19  1  0  0  0  0
 21 16  1  0  0  0  0
 22 20  1  0  0  0  0
 23 22  1  0  0  0  0
 23 25  1  0  0  0  0
 24 23  2  0  0  0  0
 25 43  1  0  0  0  0
 25 26  1  0  0  0  0
 26 19  1  0  0  0  0
 27  4  1  0  0  0  0
 34 10  1  0  0  0  0
 35 11  1  0  0  0  0
 38 13  1  0  0  0  0
 40 21  1  0  0  0  0
 41 22  1  0  0  0  0
 42 25  1  0  0  0  0
M  END
>  <Pose>
1

>  <Score>
-5.93

$$$$
