
 OpenBabel03172210413D

 53 56  0  0  0  0  0  0  0  0999 V2000
   21.0660    2.0460   13.0100 B   0  0  0  0  0  0  0  0  0  0  0  0
   21.0530    3.6950   12.0630 C   0  0  0  0  0  0  0  0  0  0  0  0
   19.9010    4.1740   11.4890 C   0  0  0  0  0  0  0  0  0  0  0  0
   19.9010    5.3850   10.7980 C   0  0  0  0  0  0  0  0  0  0  0  0
   21.0880    6.0540   10.7250 C   0  0  0  0  0  0  0  0  0  0  0  0
   22.2600    5.5720   11.3080 C   0  0  0  0  0  0  0  0  0  0  0  0
   22.2480    4.3890   11.9800 C   0  0  0  0  0  0  0  0  0  0  0  0
   18.6810    5.8710   10.1830 C   0  0  0  0  0  0  0  0  0  0  0  0
   18.6730    6.7610    9.2230 C   0  0  0  0  0  0  0  0  0  0  0  0
   17.4200    5.3360   10.6390 N   0  0  0  0  0  0  0  0  0  0  0  0
   16.9920    4.1210   10.1050 N   0  0  0  0  0  0  0  0  0  0  0  0
   15.9130    3.3940   10.6610 C   0  0  0  0  0  0  0  0  0  0  0  0
   15.5230    3.6750   11.8170 O   0  0  0  0  0  0  0  0  0  0  0  0
   15.2340    2.3310    9.9430 C   0  0  0  0  0  0  0  0  0  0  0  0
   15.8530    1.2760    9.3980 N   0  0  0  0  0  0  0  0  0  0  0  0
   14.9240    0.5500    8.8310 N   0  0  0  0  0  0  0  0  0  0  0  0
   13.7290    1.1090    8.9980 N   0  0  0  0  0  0  0  0  0  0  0  0
   13.8570    2.2300    9.6890 C   0  0  0  0  0  0  0  0  0  0  0  0
   12.9040    3.1980   10.1840 C   0  0  0  0  0  0  0  0  0  0  0  0
   11.8960    2.6980   11.0980 N   0  0  0  0  0  0  0  0  0  0  0  0
   12.2180    3.0650   12.4740 C   0  0  0  0  0  0  0  0  0  0  0  0
   12.5910    4.5260   12.5960 C   0  0  0  0  0  0  0  0  0  0  0  0
   11.4620    5.3940   12.0690 C   0  0  0  0  0  0  0  0  0  0  0  0
   10.3050    4.5510   11.6130 C   0  0  0  0  0  0  0  0  0  0  0  0
   10.6210    3.3500   10.8160 C   0  0  0  0  0  0  0  0  0  0  0  0
   12.5250    0.5410    8.5180 C   0  0  0  0  0  0  0  0  0  0  0  0
   11.2930    0.9880    8.8930 N   0  0  0  0  0  0  0  0  0  0  0  0
   10.4120    0.2600    8.2840 O   0  0  0  0  0  0  0  0  0  0  0  0
   10.9670   -0.6300    7.5420 N   0  0  0  0  0  0  0  0  0  0  0  0
   12.2940   -0.4910    7.6570 C   0  0  0  0  0  0  0  0  0  0  0  0
   13.2890   -1.2500    7.0240 N   0  0  0  0  0  0  0  0  0  0  0  0
   18.9810    3.6050   11.5750 H   0  0  0  0  0  0  0  0  0  0  0  0
   21.1380    7.0060   10.1940 H   0  0  0  0  0  0  0  0  0  0  0  0
   23.1900    6.1380   11.2260 H   0  0  0  0  0  0  0  0  0  0  0  0
   23.1430    4.0210   12.4230 H   0  0  0  0  0  0  0  0  0  0  0  0
   19.5550    7.2060    8.8130 H   0  0  0  0  0  0  0  0  0  0  0  0
   17.7350    7.1070    8.7810 H   0  0  0  0  0  0  0  0  0  0  0  0
   16.9090    5.8950   11.3430 H   0  0  0  0  0  0  0  0  0  0  0  0
   17.5270    3.7800    9.2620 H   0  0  0  0  0  0  0  0  0  0  0  0
   13.3790    4.0680   10.7190 H   0  0  0  0  0  0  0  0  0  0  0  0
   12.3440    3.6660    9.3360 H   0  0  0  0  0  0  0  0  0  0  0  0
   13.0570    2.4440   12.8240 H   0  0  0  0  0  0  0  0  0  0  0  0
   11.3330    2.8470   13.0820 H   0  0  0  0  0  0  0  0  0  0  0  0
   13.5000    4.7850   12.0280 H   0  0  0  0  0  0  0  0  0  0  0  0
   12.7590    4.7180   13.6680 H   0  0  0  0  0  0  0  0  0  0  0  0
   11.0900    5.9910   12.9320 H   0  0  0  0  0  0  0  0  0  0  0  0
   11.8150    6.1410   11.3360 H   0  0  0  0  0  0  0  0  0  0  0  0
    9.7970    4.1880   12.5570 H   0  0  0  0  0  0  0  0  0  0  0  0
    9.5720    5.2270   11.1510 H   0  0  0  0  0  0  0  0  0  0  0  0
   10.6650    3.6660    9.7360 H   0  0  0  0  0  0  0  0  0  0  0  0
    9.8280    2.5710   10.8720 H   0  0  0  0  0  0  0  0  0  0  0  0
   13.1510   -1.8890    6.2100 H   0  0  0  0  0  0  0  0  0  0  0  0
   14.2670   -1.1890    7.3810 H   0  0  0  0  0  0  0  0  0  0  0  0
  2  1  1  0  0  0  0
  3 32  1  0  0  0  0
  3  2  2  0  0  0  0
  4  3  1  0  0  0  0
  5  4  2  0  0  0  0
  5  6  1  0  0  0  0
  6  7  2  0  0  0  0
  7  2  1  0  0  0  0
  7 35  1  0  0  0  0
  8 10  1  0  0  0  0
  8  4  1  0  0  0  0
  9  8  2  0  0  0  0
 10 38  1  0  0  0  0
 11 10  1  0  0  0  0
 11 12  1  0  0  0  0
 12 13  2  0  0  0  0
 14 12  1  0  0  0  0
 15 14  1  0  0  0  0
 16 17  1  0  0  0  0
 16 15  2  0  0  0  0
 17 18  1  0  0  0  0
 18 14  2  0  0  0  0
 18 19  1  0  0  0  0
 19 40  1  0  0  0  0
 19 20  1  0  0  0  0
 20 21  1  0  0  0  0
 21 22  1  0  0  0  0
 21 42  1  0  0  0  0
 21 43  1  0  0  0  0
 22 45  1  0  0  0  0
 23 22  1  0  0  0  0
 23 46  1  0  0  0  0
 24 23  1  0  0  0  0
 24 48  1  0  0  0  0
 25 51  1  0  0  0  0
 25 20  1  0  0  0  0
 25 24  1  0  0  0  0
 26 27  2  0  0  0  0
 26 17  1  0  0  0  0
 28 27  1  0  0  0  0
 29 30  2  0  0  0  0
 29 28  1  0  0  0  0
 30 26  1  0  0  0  0
 31 53  1  0  0  0  0
 31 30  1  0  0  0  0
 33  5  1  0  0  0  0
 34  6  1  0  0  0  0
 36  9  1  0  0  0  0
 37  9  1  0  0  0  0
 39 11  1  0  0  0  0
 41 19  1  0  0  0  0
 44 22  1  0  0  0  0
 47 23  1  0  0  0  0
 49 24  1  0  0  0  0
 50 25  1  0  0  0  0
 52 31  1  0  0  0  0
M  END
>  <Pose>
1

>  <Score>
-8.53

$$$$
