
 OpenBabel03172210413D

 63 66  0  0  1  0  0  0  0  0999 V2000
    3.2100    9.3630   14.7020 B   0  0  0  0  0  0  0  0  0  0  0  0
    4.3710    8.8140   13.2730 C   0  0  0  0  0  0  0  0  0  0  0  0
    5.7590    8.9420   13.4020 C   0  0  0  0  0  0  0  0  0  0  0  0
    6.6190    8.5540   12.3840 C   0  0  0  0  0  0  0  0  0  0  0  0
    6.0450    8.0420   11.2530 C   0  0  0  0  0  0  0  0  0  0  0  0
    4.6710    7.9080   11.1070 C   0  0  0  0  0  0  0  0  0  0  0  0
    3.8310    8.2960   12.1240 C   0  0  0  0  0  0  0  0  0  0  0  0
    8.0720    8.7230   12.5400 C   0  0  1  0  0  0  0  0  0  0  0  0
    8.3970    9.0650   13.9100 N   0  0  0  0  0  0  0  0  0  0  0  0
    8.3810    7.8580   14.6520 C   0  0  0  0  0  0  0  0  0  0  0  0
    8.1600    7.7640   15.8640 O   0  0  0  0  0  0  0  0  0  0  0  0
    8.6750    6.7770   13.6950 C   0  0  0  0  0  0  0  0  0  0  0  0
    8.7660    5.5480   13.9310 O   0  0  0  0  0  0  0  0  0  0  0  0
    8.8440    7.4430   12.4100 C   0  0  0  0  0  0  0  0  0  0  0  0
    9.5680    6.9880   11.3970 C   0  0  0  0  0  0  0  0  0  0  0  0
    9.6240    7.8320   10.2630 O   0  0  0  0  0  0  0  0  0  0  0  0
   10.2730    5.7110   11.4050 C   0  0  0  0  0  0  0  0  0  0  0  0
    9.9610    4.6520   10.6060 C   0  0  0  0  0  0  0  0  0  0  0  0
   10.6630    3.4370   10.7140 C   0  0  0  0  0  0  0  0  0  0  0  0
   11.6810    3.2530   11.6100 C   0  0  0  0  0  0  0  0  0  0  0  0
   12.0000    4.3230   12.4180 C   0  0  0  0  0  0  0  0  0  0  0  0
   11.3230    5.5110   12.3210 C   0  0  0  0  0  0  0  0  0  0  0  0
   12.3820    2.0510   11.7200 O   0  0  0  0  0  0  0  0  0  0  0  0
   13.3770    1.7150   10.7890 C   0  0  0  0  0  0  0  0  0  0  0  0
    8.9060    4.7750    9.5730 C   0  0  0  0  0  0  0  0  0  0  0  0
    8.6690   10.4100   14.3740 C   0  0  0  0  0  0  0  0  0  0  0  0
    9.8870   10.5120   15.2370 C   0  0  0  0  0  0  0  0  0  0  0  0
   11.1700   10.7170   14.5260 C   0  0  0  0  0  0  0  0  0  0  0  0
   11.8730   11.9060   14.8550 N   0  0  0  0  0  4  0  0  0  0  0  0
   12.6760   11.7960   16.0840 C   0  0  0  0  0  0  0  0  0  0  0  0
   12.8640   13.2340   16.5710 C   0  0  0  0  0  0  0  0  0  0  0  0
   12.4950   14.1600   15.6120 O   0  0  0  0  0  0  0  0  0  0  0  0
   13.1030   13.8810   14.3880 C   0  0  0  0  0  0  0  0  0  0  0  0
   12.7110   12.4850   13.8690 C   0  0  0  0  0  0  0  0  0  0  0  0
    6.1080    9.3520   14.3200 H   0  0  0  0  0  0  0  0  0  0  0  0
    6.6650    7.7460   10.4410 H   0  0  0  0  0  0  0  0  0  0  0  0
    4.2310    7.5020   10.2120 H   0  0  0  0  0  0  0  0  0  0  0  0
    2.7420    8.2130   12.0670 H   0  0  0  0  0  0  0  0  0  0  0  0
    8.3960    9.4890   11.8060 H   0  0  0  0  0  0  0  0  0  0  0  0
   10.3930    2.5980   10.0630 H   0  0  0  0  0  0  0  0  0  0  0  0
   12.8160    4.1710   13.1320 H   0  0  0  0  0  0  0  0  0  0  0  0
   11.5890    6.3350   12.9610 H   0  0  0  0  0  0  0  0  0  0  0  0
   12.9620    1.6370    9.7470 H   0  0  0  0  0  0  0  0  0  0  0  0
   13.8250    0.7380   10.9950 H   0  0  0  0  0  0  0  0  0  0  0  0
   14.1960    2.4620   10.7120 H   0  0  0  0  0  0  0  0  0  0  0  0
    8.0570    5.4090    9.8530 H   0  0  0  0  0  0  0  0  0  0  0  0
    8.4540    3.7570    9.3690 H   0  0  0  0  0  0  0  0  0  0  0  0
    9.3540    5.0610    8.5770 H   0  0  0  0  0  0  0  0  0  0  0  0
    8.8550   11.0340   13.4660 H   0  0  0  0  0  0  0  0  0  0  0  0
    7.8060   10.8800   14.8800 H   0  0  0  0  0  0  0  0  0  0  0  0
    9.6590   11.3250   15.9830 H   0  0  0  0  0  0  0  0  0  0  0  0
    9.9460    9.5780   15.8750 H   0  0  0  0  0  0  0  0  0  0  0  0
   10.9390   10.7630   13.4320 H   0  0  0  0  0  0  0  0  0  0  0  0
   11.8040    9.8160   14.6710 H   0  0  0  0  0  0  0  0  0  0  0  0
   11.1370   12.6390   15.0940 H   0  0  0  0  0  0  0  0  0  0  0  0
   12.2020   11.1730   16.8450 H   0  0  0  0  0  0  0  0  0  0  0  0
   13.6510   11.3430   15.7830 H   0  0  0  0  0  0  0  0  0  0  0  0
   12.1770   13.4110   17.4500 H   0  0  0  0  0  0  0  0  0  0  0  0
   13.8740   13.3660   16.9710 H   0  0  0  0  0  0  0  0  0  0  0  0
   14.1980   13.9700   14.5500 H   0  0  0  0  0  0  0  0  0  0  0  0
   12.8420   14.6760   13.6550 H   0  0  0  0  0  0  0  0  0  0  0  0
   13.6660   11.9500   13.7070 H   0  0  0  0  0  0  0  0  0  0  0  0
   12.1600   12.6610   12.9280 H   0  0  0  0  0  0  0  0  0  0  0  0
  2  3  1  0  0  0  0
  2  1  1  0  0  0  0
  3 35  1  0  0  0  0
  4  8  1  0  0  0  0
  4  3  2  0  0  0  0
  5  4  1  0  0  0  0
  6  5  2  0  0  0  0
  6  7  1  0  0  0  0
  7  2  2  0  0  0  0
  8 39  1  6  0  0  0
  8  9  1  0  0  0  0
  9 26  1  0  0  0  0
  9 10  1  0  0  0  0
 10 11  2  0  0  0  0
 12 13  2  0  0  0  0
 12 10  1  0  0  0  0
 14  8  1  0  0  0  0
 14 12  1  0  0  0  0
 15 17  1  0  0  0  0
 15 14  2  0  0  0  0
 16 15  1  0  0  0  0
 17 22  1  0  0  0  0
 18 19  1  0  0  0  0
 18 17  2  0  0  0  0
 19 20  2  0  0  0  0
 20 23  1  0  0  0  0
 20 21  1  0  0  0  0
 21 41  1  0  0  0  0
 22 21  2  0  0  0  0
 22 42  1  0  0  0  0
 24 44  1  0  0  0  0
 24 23  1  0  0  0  0
 25 46  1  0  0  0  0
 25 18  1  0  0  0  0
 26 50  1  0  0  0  0
 26 27  1  0  0  0  0
 27 52  1  0  0  0  0
 27 51  1  0  0  0  0
 28 54  1  0  0  0  0
 28 29  1  0  0  0  0
 28 27  1  0  0  0  0
 29 55  1  0  0  0  0
 29 30  1  0  0  0  0
 30 31  1  0  0  0  0
 30 56  1  0  0  0  0
 31 59  1  0  0  0  0
 31 58  1  0  0  0  0
 32 31  1  0  0  0  0
 33 60  1  0  0  0  0
 33 32  1  0  0  0  0
 34 33  1  0  0  0  0
 34 29  1  0  0  0  0
 36  5  1  0  0  0  0
 37  6  1  0  0  0  0
 38  7  1  0  0  0  0
 40 19  1  0  0  0  0
 43 24  1  0  0  0  0
 45 24  1  0  0  0  0
 47 25  1  0  0  0  0
 48 25  1  0  0  0  0
 49 26  1  0  0  0  0
 53 28  1  0  0  0  0
 57 30  1  0  0  0  0
 61 33  1  0  0  0  0
 62 34  1  0  0  0  0
 63 34  1  0  0  0  0
M  END
>  <Pose>
1

>  <Score>
-5.62

$$$$
