
 OpenBabel03172210413D

 60 63  0  0  1  0  0  0  0  0999 V2000
   11.4650    9.1160   15.1180 B   0  0  0  0  0  0  0  0  0  0  0  0
   12.2080    7.7510   14.0070 C   0  0  0  0  0  0  0  0  0  0  0  0
   11.4120    6.7570   13.5270 C   0  0  0  0  0  0  0  0  0  0  0  0
   11.9410    5.7510   12.7130 C   0  0  0  0  0  0  0  0  0  0  0  0
   13.2860    5.8010   12.4180 C   0  0  0  0  0  0  0  0  0  0  0  0
   14.0990    6.8150   12.9090 C   0  0  0  0  0  0  0  0  0  0  0  0
   13.5480    7.7900   13.7070 C   0  0  0  0  0  0  0  0  0  0  0  0
   11.0250    4.7080   12.2320 C   0  0  1  0  0  0  0  0  0  0  0  0
    9.9130    5.1980   11.4400 N   0  0  0  0  0  0  0  0  0  0  0  0
   10.3870    5.4090   10.0920 C   0  0  0  0  0  0  0  0  0  0  0  0
    9.9220    6.1680    9.2340 O   0  0  0  0  0  0  0  0  0  0  0  0
   11.5430    4.5250    9.9650 C   0  0  0  0  0  0  0  0  0  0  0  0
   12.3010    4.3580    8.9640 O   0  0  0  0  0  0  0  0  0  0  0  0
   11.7150    3.8230   11.2260 C   0  0  0  0  0  0  0  0  0  0  0  0
   12.3640    2.6940   11.4590 C   0  0  0  0  0  0  0  0  0  0  0  0
   12.4390    2.2440   12.8080 O   0  0  0  0  0  0  0  0  0  0  0  0
   12.9700    1.9310   10.3960 C   0  0  0  0  0  0  0  0  0  0  0  0
   12.3980    1.0080    9.5950 N   0  0  0  0  0  0  0  0  0  0  0  0
   13.3280    0.5700    8.7120 C   0  0  0  0  0  0  0  0  0  0  0  0
   14.5060    1.2130    8.9440 N   0  0  0  0  0  0  0  0  0  0  0  0
   14.2730    2.0480    9.9830 C   0  0  0  0  0  0  0  0  0  0  0  0
   15.2990    2.9510   10.5730 C   0  0  0  0  0  0  0  0  0  0  0  0
   13.1030   -0.3830    7.7530 C   0  0  0  0  0  0  0  0  0  0  0  0
   11.8420   -0.9340    7.6840 C   0  0  0  0  0  0  0  0  0  0  0  0
   10.8920   -0.4930    8.5830 C   0  0  0  0  0  0  0  0  0  0  0  0
   11.1710    0.4640    9.5210 C   0  0  0  0  0  0  0  0  0  0  0  0
   14.1650   -0.8260    6.8040 C   0  0  0  0  0  0  0  0  0  0  0  0
    8.5580    5.4450   11.9030 C   0  0  0  0  0  0  0  0  0  0  0  0
    8.3210    6.8310   12.3950 C   0  0  0  0  0  0  0  0  0  0  0  0
    7.0790    7.0020   13.2320 C   0  0  0  0  0  0  0  0  0  0  0  0
    5.9080    6.7550   12.4240 N   0  0  0  0  0  4  0  0  0  0  0  0
    5.3120    8.0070   11.9960 C   0  0  0  0  0  0  0  0  0  0  0  0
    6.3210    6.0600   11.2210 C   0  0  0  0  0  0  0  0  0  0  0  0
   10.3560    6.7760   13.7980 H   0  0  0  0  0  0  0  0  0  0  0  0
   13.7380    5.0290   11.7860 H   0  0  0  0  0  0  0  0  0  0  0  0
   15.1630    6.8430   12.6680 H   0  0  0  0  0  0  0  0  0  0  0  0
   14.1740    8.5900   14.0970 H   0  0  0  0  0  0  0  0  0  0  0  0
   10.6760    4.1050   13.0970 H   0  0  0  0  0  0  0  0  0  0  0  0
   15.5330    2.6560   11.6080 H   0  0  0  0  0  0  0  0  0  0  0  0
   14.9570    4.0050   10.5600 H   0  0  0  0  0  0  0  0  0  0  0  0
   16.2380    2.9110   10.0020 H   0  0  0  0  0  0  0  0  0  0  0  0
   11.6140   -1.7000    6.9340 H   0  0  0  0  0  0  0  0  0  0  0  0
    9.8800   -0.9410    8.5220 H   0  0  0  0  0  0  0  0  0  0  0  0
   10.4170    0.8020   10.2260 H   0  0  0  0  0  0  0  0  0  0  0  0
   15.1180   -0.3430    7.0600 H   0  0  0  0  0  0  0  0  0  0  0  0
   13.8560   -0.6220    5.7500 H   0  0  0  0  0  0  0  0  0  0  0  0
   14.2850   -1.9270    6.9830 H   0  0  0  0  0  0  0  0  0  0  0  0
    8.3710    4.7460   12.7420 H   0  0  0  0  0  0  0  0  0  0  0  0
    7.8170    5.1900   11.1190 H   0  0  0  0  0  0  0  0  0  0  0  0
    8.3000    7.5780   11.5630 H   0  0  0  0  0  0  0  0  0  0  0  0
    9.1740    7.1460   13.0360 H   0  0  0  0  0  0  0  0  0  0  0  0
    7.0390    6.2820   14.0760 H   0  0  0  0  0  0  0  0  0  0  0  0
    7.0170    8.0130   13.6420 H   0  0  0  0  0  0  0  0  0  0  0  0
    5.2180    6.1320   12.8980 H   0  0  0  0  0  0  0  0  0  0  0  0
    4.7510    7.8650   11.0300 H   0  0  0  0  0  0  0  0  0  0  0  0
    6.1800    8.6680   11.7010 H   0  0  0  0  0  0  0  0  0  0  0  0
    4.7100    8.4970   12.7640 H   0  0  0  0  0  0  0  0  0  0  0  0
    5.4350    5.8170   10.5780 H   0  0  0  0  0  0  0  0  0  0  0  0
    6.9150    5.1510   11.4480 H   0  0  0  0  0  0  0  0  0  0  0  0
    6.9680    6.7560   10.6490 H   0  0  0  0  0  0  0  0  0  0  0  0
  2  1  1  0  0  0  0
  3 34  1  0  0  0  0
  3  2  2  0  0  0  0
  4  3  1  0  0  0  0
  5  4  2  0  0  0  0
  5  6  1  0  0  0  0
  6  7  2  0  0  0  0
  7  2  1  0  0  0  0
  7 37  1  0  0  0  0
  8  4  1  0  0  0  0
  8 38  1  1  0  0  0
  9 28  1  0  0  0  0
  9  8  1  0  0  0  0
 10  9  1  0  0  0  0
 11 10  2  0  0  0  0
 12 10  1  0  0  0  0
 12 14  1  0  0  0  0
 13 12  2  0  0  0  0
 14 15  2  0  0  0  0
 14  8  1  0  0  0  0
 15 16  1  0  0  0  0
 17 15  1  0  0  0  0
 18 17  1  0  0  0  0
 19 20  2  0  0  0  0
 19 18  1  0  0  0  0
 20 21  1  0  0  0  0
 21 17  2  0  0  0  0
 21 22  1  0  0  0  0
 22 39  1  0  0  0  0
 23 19  1  0  0  0  0
 24 23  2  0  0  0  0
 24 25  1  0  0  0  0
 25 26  2  0  0  0  0
 26 18  1  0  0  0  0
 26 44  1  0  0  0  0
 27 47  1  0  0  0  0
 27 45  1  0  0  0  0
 27 23  1  0  0  0  0
 28 29  1  0  0  0  0
 28 48  1  0  0  0  0
 29 51  1  0  0  0  0
 29 30  1  0  0  0  0
 30 53  1  0  0  0  0
 30 52  1  0  0  0  0
 31 54  1  0  0  0  0
 31 30  1  0  0  0  0
 32 31  1  0  0  0  0
 32 57  1  0  0  0  0
 33 59  1  0  0  0  0
 33 31  1  0  0  0  0
 35  5  1  0  0  0  0
 36  6  1  0  0  0  0
 40 22  1  0  0  0  0
 41 22  1  0  0  0  0
 42 24  1  0  0  0  0
 43 25  1  0  0  0  0
 46 27  1  0  0  0  0
 49 28  1  0  0  0  0
 50 29  1  0  0  0  0
 55 32  1  0  0  0  0
 56 32  1  0  0  0  0
 58 33  1  0  0  0  0
 60 33  1  0  0  0  0
M  END
>  <Pose>
1

>  <Score>
-6.66

$$$$
