
 OpenBabel03172210413D

 39 42  0  0  1  0  0  0  0  0999 V2000
    8.7660    6.3380   11.4680 B   0  0  0  0  0  0  0  0  0  0  0  0
   10.4740    5.4540   11.5060 C   0  0  0  0  0  0  0  0  0  0  0  0
   10.7320    4.4530   12.4060 C   0  0  0  0  0  0  0  0  0  0  0  0
   11.9920    3.8290   12.4050 C   0  0  0  0  0  0  0  0  0  0  0  0
   12.9610    4.2030   11.5230 C   0  0  0  0  0  0  0  0  0  0  0  0
   12.6930    5.2060   10.6270 C   0  0  0  0  0  0  0  0  0  0  0  0
   11.4370    5.8380   10.6180 C   0  0  0  0  0  0  0  0  0  0  0  0
   14.2770    3.5710   11.4940 C   0  0  1  0  0  0  0  0  0  0  0  0
   14.5300    2.6950   10.3710 C   0  0  0  0  0  0  0  0  0  0  0  0
   15.6830    2.7900    9.6440 C   0  0  0  0  0  0  0  0  0  0  0  0
   16.7100    3.7380    9.9640 N   0  0  0  0  0  0  0  0  0  0  0  0
   16.4560    4.5730   11.0860 C   0  0  0  0  0  0  0  0  0  0  0  0
   15.3650    4.4990   11.7980 C   0  0  0  0  0  0  0  0  0  0  0  0
   15.4520    5.4930   12.9120 C   0  0  0  0  0  0  0  0  0  0  0  0
   14.5310    5.6490   13.7690 O   0  0  0  0  0  0  0  0  0  0  0  0
   16.6500    6.1130   12.7680 O   0  0  0  0  0  0  0  0  0  0  0  0
   17.3470    5.6610   11.6570 C   0  0  0  0  0  0  0  0  0  0  0  0
   15.8800    1.9490    8.5790 N   0  0  0  0  0  0  0  0  0  0  0  0
   14.9560    1.0400    8.2480 C   0  0  0  0  0  0  0  0  0  0  0  0
   15.1590    0.2750    7.2630 O   0  0  0  0  0  0  0  0  0  0  0  0
   13.8260    0.9540    8.9690 N   0  0  0  0  0  0  0  0  0  0  0  0
   13.5580    1.7310   10.0160 C   0  0  0  0  0  0  0  0  0  0  0  0
   12.5050    1.6580   10.6960 O   0  0  0  0  0  0  0  0  0  0  0  0
   12.8440   -0.0550    8.5700 C   0  0  0  0  0  0  0  0  0  0  0  0
   17.1280    2.1010    7.8440 C   0  0  0  0  0  0  0  0  0  0  0  0
    9.9560    4.1710   13.0930 H   0  0  0  0  0  0  0  0  0  0  0  0
   12.1130    3.0520   13.1510 H   0  0  0  0  0  0  0  0  0  0  0  0
   13.3840    5.5840    9.8850 H   0  0  0  0  0  0  0  0  0  0  0  0
   11.2080    6.6310    9.9170 H   0  0  0  0  0  0  0  0  0  0  0  0
   14.2690    2.8640   12.4090 H   0  0  0  0  0  0  0  0  0  0  0  0
   17.5690    3.7790    9.3860 H   0  0  0  0  0  0  0  0  0  0  0  0
   18.3470    5.2470   11.8880 H   0  0  0  0  0  0  0  0  0  0  0  0
   17.4410    6.5010   10.9370 H   0  0  0  0  0  0  0  0  0  0  0  0
   12.1780   -0.3110    9.4180 H   0  0  0  0  0  0  0  0  0  0  0  0
   13.3530   -0.9680    8.2480 H   0  0  0  0  0  0  0  0  0  0  0  0
   12.3010    0.3700    7.7030 H   0  0  0  0  0  0  0  0  0  0  0  0
   17.2480    1.3000    7.1020 H   0  0  0  0  0  0  0  0  0  0  0  0
   17.1790    3.1110    7.4290 H   0  0  0  0  0  0  0  0  0  0  0  0
   17.9540    1.9380    8.5970 H   0  0  0  0  0  0  0  0  0  0  0  0
  1  2  1  0  0  0  0
  2  3  1  0  0  0  0
  3 26  1  0  0  0  0
  4  3  2  0  0  0  0
  4 27  1  0  0  0  0
  5  4  1  0  0  0  0
  6  5  2  0  0  0  0
  7  6  1  0  0  0  0
  7  2  2  0  0  0  0
  8  5  1  0  0  0  0
  8 13  1  0  0  0  0
  8 30  1  1  0  0  0
  9  8  1  0  0  0  0
 10 11  1  0  0  0  0
 10  9  2  0  0  0  0
 11 12  1  0  0  0  0
 12 17  1  0  0  0  0
 12 13  2  0  0  0  0
 13 14  1  0  0  0  0
 14 15  2  0  0  0  0
 16 14  1  0  0  0  0
 17 32  1  0  0  0  0
 17 16  1  0  0  0  0
 18 10  1  0  0  0  0
 19 18  1  0  0  0  0
 19 21  1  0  0  0  0
 20 19  2  0  0  0  0
 21 22  1  0  0  0  0
 22  9  1  0  0  0  0
 22 23  2  0  0  0  0
 24 21  1  0  0  0  0
 24 34  1  0  0  0  0
 25 18  1  0  0  0  0
 25 39  1  0  0  0  0
 28  6  1  0  0  0  0
 29  7  1  0  0  0  0
 31 11  1  0  0  0  0
 33 17  1  0  0  0  0
 35 24  1  0  0  0  0
 36 24  1  0  0  0  0
 37 25  1  0  0  0  0
 38 25  1  0  0  0  0
M  END
>  <Pose>
1

>  <Score>
-5.44

$$$$
