
 OpenBabel03172210413D

 31 34  0  0  1  0  0  0  0  0999 V2000
   14.4920    3.0240   10.6840 B   0  0  0  0  0  0  0  0  0  0  0  0
   12.8550    2.1860   10.1480 C   0  0  0  0  0  0  0  0  0  0  0  0
   11.7020    2.9190   10.3160 C   0  0  0  0  0  0  0  0  0  0  0  0
   10.5130    2.3010    9.9250 C   0  0  0  0  0  0  0  0  0  0  0  0
   10.5190    1.0300    9.4020 C   0  0  0  0  0  0  0  0  0  0  0  0
   11.6800    0.2930    9.2330 C   0  0  0  0  0  0  0  0  0  0  0  0
   12.8600    0.8980    9.6180 C   0  0  0  0  0  0  0  0  0  0  0  0
   11.6540   -1.0200    8.6870 N   0  0  0  0  0  0  0  0  0  0  0  0
   11.8290   -1.1510    7.4630 O   0  0  0  0  0  0  0  0  0  0  0  0
   11.4500   -2.1560    9.4200 O   0  0  0  0  0  0  0  0  0  0  0  0
   11.7260    4.2330   10.8520 N   0  0  0  0  0  0  0  0  0  0  0  0
   12.0880    4.7020   12.1380 C   0  0  0  0  0  0  0  0  0  0  0  0
   12.7770    4.0960   12.9840 O   0  0  0  0  0  0  0  0  0  0  0  0
   11.5310    6.0510   12.3710 C   0  0  2  0  0  0  0  0  0  0  0  0
   10.2290    5.8610   13.1180 C   0  0  2  0  0  0  0  0  0  0  0  0
    9.4110    5.3780   12.0610 O   0  0  0  0  0  0  0  0  0  0  0  0
    9.5390    6.5240   11.2320 C   0  0  2  0  0  0  0  0  0  0  0  0
   11.0270    6.5180   11.0080 C   0  0  2  0  0  0  0  0  0  0  0  0
   11.3530    5.3930   10.1040 C   0  0  0  0  0  0  0  0  0  0  0  0
   11.3080    5.4420    8.8320 O   0  0  0  0  0  0  0  0  0  0  0  0
    9.1180    7.5710   12.1870 C   0  0  0  0  0  0  0  0  0  0  0  0
    9.5770    7.1700   13.3700 C   0  0  0  0  0  0  0  0  0  0  0  0
    9.5850    2.8540   10.0470 H   0  0  0  0  0  0  0  0  0  0  0  0
    9.5890    0.5410    9.0920 H   0  0  0  0  0  0  0  0  0  0  0  0
   13.7910    0.3820    9.5140 H   0  0  0  0  0  0  0  0  0  0  0  0
   12.2180    6.7500   12.8380 H   0  0  0  0  0  0  0  0  0  0  0  0
   10.2860    5.1880   13.9600 H   0  0  0  0  0  0  0  0  0  0  0  0
    8.9380    6.4500   10.3310 H   0  0  0  0  0  0  0  0  0  0  0  0
   11.4600    7.4670   10.7060 H   0  0  0  0  0  0  0  0  0  0  0  0
    8.5570    8.4640   11.9530 H   0  0  0  0  0  0  0  0  0  0  0  0
    9.5020    7.6790   14.3310 H   0  0  0  0  0  0  0  0  0  0  0  0
  2  3  1  0  0  0  0
  2  1  1  0  0  0  0
  3 11  1  0  0  0  0
  4 23  1  0  0  0  0
  4  3  2  0  0  0  0
  5  4  1  0  0  0  0
  6  5  2  0  0  0  0
  6  7  1  0  0  0  0
  7  2  2  0  0  0  0
  8  6  1  0  0  0  0
  8 10  2  0  0  0  0
  9  8  2  0  0  0  0
 11 12  1  0  0  0  0
 12 14  1  0  0  0  0
 12 13  2  0  0  0  0
 14 26  1  1  0  0  0
 14 15  1  0  0  0  0
 15 22  1  0  0  0  0
 15 27  1  1  0  0  0
 16 15  1  0  0  0  0
 17 28  1  6  0  0  0
 17 16  1  0  0  0  0
 17 21  1  0  0  0  0
 18 29  1  6  0  0  0
 18 17  1  0  0  0  0
 18 14  1  0  0  0  0
 19 11  1  0  0  0  0
 19 18  1  0  0  0  0
 20 19  2  0  0  0  0
 21 22  2  0  0  0  0
 22 31  1  0  0  0  0
 24  5  1  0  0  0  0
 25  7  1  0  0  0  0
 30 21  1  0  0  0  0
M  END
>  <Pose>
1

>  <Score>
-5.41

$$$$
