
 OpenBabel03172210413D

 39 42  0  0  1  0  0  0  0  0999 V2000
   14.6910    0.7840    8.0470 B   0  0  0  0  0  0  0  0  0  0  0  0
   14.1620    1.8940    9.4990 C   0  0  0  0  0  0  0  0  0  0  0  0
   12.8450    1.8740    9.8960 C   0  0  0  0  0  0  0  0  0  0  0  0
   12.4910    2.6860   10.9490 C   0  0  0  0  0  0  0  0  0  0  0  0
   13.4430    3.4940   11.5800 C   0  0  0  0  0  0  0  0  0  0  0  0
   14.7680    3.5250   11.1930 C   0  0  0  0  0  0  0  0  0  0  0  0
   15.1080    2.7040   10.1330 C   0  0  0  0  0  0  0  0  0  0  0  0
   15.7360    4.3460   11.8320 N   0  0  0  0  0  0  0  0  0  0  0  0
   17.1460    4.2220   11.6800 C   0  0  0  0  0  0  0  0  0  0  0  0
   17.7940    3.1880   11.4120 O   0  0  0  0  0  0  0  0  0  0  0  0
   17.7860    5.5560   11.8930 C   0  0  1  0  0  0  0  0  0  0  0  0
   17.8440    6.3590   10.6370 C   0  0  1  0  0  0  0  0  0  0  0  0
   16.5220    6.8550   10.5140 O   0  0  0  0  0  0  0  0  0  0  0  0
   16.4790    7.4920   11.7800 C   0  0  1  0  0  0  0  0  0  0  0  0
   16.7330    6.3300   12.6830 C   0  0  1  0  0  0  0  0  0  0  0  0
   15.5500    5.4370   12.7230 C   0  0  0  0  0  0  0  0  0  0  0  0
   14.5410    5.6210   13.4360 O   0  0  0  0  0  0  0  0  0  0  0  0
   17.7010    8.3440   11.6590 C   0  0  0  0  0  0  0  0  0  0  0  0
   18.5660    7.6270   10.9200 C   0  0  0  0  0  0  0  0  0  0  0  0
   15.2330    8.2340   12.0140 C   0  0  0  0  0  0  0  0  0  0  0  0
   18.3120    5.6420    9.4370 C   0  0  0  0  0  0  0  0  0  0  0  0
   18.5060    6.5010    8.3580 O   0  0  0  0  0  0  0  0  0  0  0  0
   11.8270    1.0120    9.2280 C   0  0  0  0  0  0  0  0  0  0  0  0
   11.4620    2.7040   11.2960 H   0  0  0  0  0  0  0  0  0  0  0  0
   13.1230    4.1170   12.4060 H   0  0  0  0  0  0  0  0  0  0  0  0
   16.1450    2.6960    9.7970 H   0  0  0  0  0  0  0  0  0  0  0  0
   18.7310    5.4670   12.4310 H   0  0  0  0  0  0  0  0  0  0  0  0
   17.0930    6.5980   13.6940 H   0  0  0  0  0  0  0  0  0  0  0  0
   17.8120    9.3100   12.0890 H   0  0  0  0  0  0  0  0  0  0  0  0
   19.5580    7.9430   10.6200 H   0  0  0  0  0  0  0  0  0  0  0  0
   14.7660    8.1070   13.0060 H   0  0  0  0  0  0  0  0  0  0  0  0
   15.4080    9.3240   11.8770 H   0  0  0  0  0  0  0  0  0  0  0  0
   14.4560    7.9570   11.2450 H   0  0  0  0  0  0  0  0  0  0  0  0
   17.5650    4.8930    9.1260 H   0  0  0  0  0  0  0  0  0  0  0  0
   19.2960    5.1670    9.6200 H   0  0  0  0  0  0  0  0  0  0  0  0
   18.6040    6.0200    7.4890 H   0  0  0  0  0  0  0  0  0  0  0  0
   12.2010    0.8310    8.2020 H   0  0  0  0  0  0  0  0  0  0  0  0
   11.7750    0.0010    9.7050 H   0  0  0  0  0  0  0  0  0  0  0  0
   10.8250    1.4390    9.2640 H   0  0  0  0  0  0  0  0  0  0  0  0
  1  2  1  0  0  0  0
  2  3  2  0  0  0  0
  2  7  1  0  0  0  0
  3  4  1  0  0  0  0
  4 24  1  0  0  0  0
  4  5  2  0  0  0  0
  5 25  1  0  0  0  0
  6  5  1  0  0  0  0
  6  8  1  0  0  0  0
  7  6  2  0  0  0  0
  8 16  1  0  0  0  0
  9  8  1  0  0  0  0
  9 11  1  0  0  0  0
 10  9  2  0  0  0  0
 11 27  1  1  0  0  0
 11 15  1  0  0  0  0
 12 21  1  6  0  0  0
 12 19  1  0  0  0  0
 12 11  1  0  0  0  0
 13 12  1  0  0  0  0
 13 14  1  0  0  0  0
 14 20  1  1  0  0  0
 14 15  1  0  0  0  0
 15 16  1  0  0  0  0
 15 28  1  1  0  0  0
 16 17  2  0  0  0  0
 18 14  1  0  0  0  0
 18 29  1  0  0  0  0
 19 18  2  0  0  0  0
 20 31  1  0  0  0  0
 21 35  1  0  0  0  0
 22 21  1  0  0  0  0
 23 39  1  0  0  0  0
 23 38  1  0  0  0  0
 23  3  1  0  0  0  0
 26  7  1  0  0  0  0
 30 19  1  0  0  0  0
 32 20  1  0  0  0  0
 33 20  1  0  0  0  0
 34 21  1  0  0  0  0
 36 22  1  0  0  0  0
 37 23  1  0  0  0  0
M  END
>  <Pose>
1

>  <Score>
-4.90

$$$$
