
 OpenBabel03172210413D

 54 57  0  0  1  0  0  0  0  0999 V2000
   16.8580    5.3440   12.5570 B   0  0  0  0  0  0  0  0  0  0  0  0
   15.1720    6.2700   12.5890 C   0  0  0  0  0  0  0  0  0  0  0  0
   13.9740    5.5530   12.5890 C   0  0  0  0  0  0  0  0  0  0  0  0
   12.7440    6.1600   12.6120 C   0  0  0  0  0  0  0  0  0  0  0  0
   12.7520    7.5650   12.6370 C   0  0  0  0  0  0  0  0  0  0  0  0
   13.9250    8.2840   12.6370 C   0  0  0  0  0  0  0  0  0  0  0  0
   15.1460    7.6480   12.6140 C   0  0  0  0  0  0  0  0  0  0  0  0
   11.4560    5.4600   12.6060 C   0  0  1  0  0  0  0  0  0  0  0  0
   10.3570    6.2380   12.0790 N   0  0  0  0  0  0  0  0  0  0  0  0
   10.4480    6.1740   10.6670 C   0  0  0  0  0  0  0  0  0  0  0  0
   10.0350    7.0100    9.8260 O   0  0  0  0  0  0  0  0  0  0  0  0
   11.1330    4.9170   10.3640 C   0  0  0  0  0  0  0  0  0  0  0  0
   11.4390    4.4340    9.2500 O   0  0  0  0  0  0  0  0  0  0  0  0
   11.4110    4.2940   11.6680 C   0  0  0  0  0  0  0  0  0  0  0  0
   11.5960    3.0110   11.8750 C   0  0  0  0  0  0  0  0  0  0  0  0
   11.8960    2.6150   13.1840 O   0  0  0  0  0  0  0  0  0  0  0  0
   11.4910    2.0090   10.7950 C   0  0  0  0  0  0  0  0  0  0  0  0
   10.4250    1.4870   10.2660 O   0  0  0  0  0  0  0  0  0  0  0  0
   10.7250    0.6260    9.3200 C   0  0  0  0  0  0  0  0  0  0  0  0
   12.1030    0.5580    9.1970 C   0  0  0  0  0  0  0  0  0  0  0  0
   12.5740    1.4470   10.1440 C   0  0  0  0  0  0  0  0  0  0  0  0
   12.6810   -0.2790    8.2670 C   0  0  0  0  0  0  0  0  0  0  0  0
   11.9290   -1.0730    7.4310 C   0  0  0  0  0  0  0  0  0  0  0  0
   10.5570   -1.0180    7.5410 C   0  0  0  0  0  0  0  0  0  0  0  0
    9.9690   -0.1720    8.4800 C   0  0  0  0  0  0  0  0  0  0  0  0
    9.2960    6.9600   12.7780 C   0  0  0  0  0  0  0  0  0  0  0  0
    8.1640    7.2940   11.8240 C   0  0  0  0  0  0  0  0  0  0  0  0
    7.1290    6.2030   11.7460 C   0  0  0  0  0  0  0  0  0  0  0  0
    5.9090    6.6540   12.3340 N   0  0  0  0  0  4  0  0  0  0  0  0
    6.0740    7.1610   13.6800 C   0  0  0  0  0  0  0  0  0  0  0  0
    5.1920    7.6390   11.5820 C   0  0  0  0  0  0  0  0  0  0  0  0
   14.0280    4.4780   12.5730 H   0  0  0  0  0  0  0  0  0  0  0  0
   11.7930    8.0740   12.6570 H   0  0  0  0  0  0  0  0  0  0  0  0
   13.9290    9.3700   12.6570 H   0  0  0  0  0  0  0  0  0  0  0  0
   16.0940    8.2030   12.6140 H   0  0  0  0  0  0  0  0  0  0  0  0
   11.2250    5.1300   13.6490 H   0  0  0  0  0  0  0  0  0  0  0  0
   13.6040    1.6670   10.3270 H   0  0  0  0  0  0  0  0  0  0  0  0
   13.7530   -0.3280    8.1740 H   0  0  0  0  0  0  0  0  0  0  0  0
   12.3360   -1.7440    6.6880 H   0  0  0  0  0  0  0  0  0  0  0  0
    9.9430   -1.6400    6.8860 H   0  0  0  0  0  0  0  0  0  0  0  0
    8.8860   -0.1640    8.5290 H   0  0  0  0  0  0  0  0  0  0  0  0
    8.8530    6.3700   13.6040 H   0  0  0  0  0  0  0  0  0  0  0  0
    9.6900    7.8950   13.2080 H   0  0  0  0  0  0  0  0  0  0  0  0
    8.6370    7.3400   10.8160 H   0  0  0  0  0  0  0  0  0  0  0  0
    7.7190    8.2670   12.0380 H   0  0  0  0  0  0  0  0  0  0  0  0
    7.4490    5.2830   12.2850 H   0  0  0  0  0  0  0  0  0  0  0  0
    6.9240    5.9450   10.6820 H   0  0  0  0  0  0  0  0  0  0  0  0
    5.2710    5.8070   12.4210 H   0  0  0  0  0  0  0  0  0  0  0  0
    5.0980    7.0360   14.2260 H   0  0  0  0  0  0  0  0  0  0  0  0
    6.2680    8.2480   13.6470 H   0  0  0  0  0  0  0  0  0  0  0  0
    6.8680    6.5890   14.1810 H   0  0  0  0  0  0  0  0  0  0  0  0
    5.5220    8.6770   11.7750 H   0  0  0  0  0  0  0  0  0  0  0  0
    4.1270    7.6020   11.8860 H   0  0  0  0  0  0  0  0  0  0  0  0
    5.1820    7.4000   10.4770 H   0  0  0  0  0  0  0  0  0  0  0  0
  1  2  1  0  0  0  0
  2  3  2  0  0  0  0
  2  7  1  0  0  0  0
  3  4  1  0  0  0  0
  4  5  2  0  0  0  0
  5  6  1  0  0  0  0
  5 33  1  0  0  0  0
  6 34  1  0  0  0  0
  7  6  2  0  0  0  0
  8  4  1  0  0  0  0
  8 36  1  1  0  0  0
  9  8  1  0  0  0  0
  9 26  1  0  0  0  0
 10  9  1  0  0  0  0
 11 10  2  0  0  0  0
 12 10  1  0  0  0  0
 12 14  1  0  0  0  0
 13 12  2  0  0  0  0
 14 15  2  0  0  0  0
 14  8  1  0  0  0  0
 15 16  1  0  0  0  0
 17 15  1  0  0  0  0
 18 17  1  0  0  0  0
 19 18  1  0  0  0  0
 20 19  1  0  0  0  0
 20 21  1  0  0  0  0
 21 37  1  0  0  0  0
 21 17  2  0  0  0  0
 22 20  2  0  0  0  0
 23 24  2  0  0  0  0
 23 22  1  0  0  0  0
 24 25  1  0  0  0  0
 25 41  1  0  0  0  0
 25 19  2  0  0  0  0
 26 43  1  0  0  0  0
 26 42  1  0  0  0  0
 27 45  1  0  0  0  0
 27 26  1  0  0  0  0
 28 27  1  0  0  0  0
 28 46  1  0  0  0  0
 28 29  1  0  0  0  0
 29 48  1  0  0  0  0
 29 30  1  0  0  0  0
 30 51  1  0  0  0  0
 30 49  1  0  0  0  0
 31 52  1  0  0  0  0
 31 53  1  0  0  0  0
 31 29  1  0  0  0  0
 32  3  1  0  0  0  0
 35  7  1  0  0  0  0
 38 22  1  0  0  0  0
 39 23  1  0  0  0  0
 40 24  1  0  0  0  0
 44 27  1  0  0  0  0
 47 28  1  0  0  0  0
 50 30  1  0  0  0  0
 54 31  1  0  0  0  0
M  END
>  <Pose>
1

>  <Score>
-6.99

$$$$
