
 OpenBabel03172210413D

 52 55  0  0  1  0  0  0  0  0999 V2000
    7.2590   10.2820   13.0030 B   0  0  0  0  0  0  0  0  0  0  0  0
    7.2330    8.4520   12.3720 C   0  0  0  0  0  0  0  0  0  0  0  0
    8.3820    7.7190   12.2950 C   0  0  0  0  0  0  0  0  0  0  0  0
    8.4000    6.4280   11.8500 C   0  0  0  0  0  0  0  0  0  0  0  0
    7.1620    5.8880   11.4690 C   0  0  0  0  0  0  0  0  0  0  0  0
    5.9900    6.5910   11.5320 C   0  0  0  0  0  0  0  0  0  0  0  0
    6.0370    7.8870   11.9910 C   0  0  0  0  0  0  0  0  0  0  0  0
    9.5680    5.5960   11.7250 C   0  0  2  0  0  0  0  0  0  0  0  0
    9.9560    5.0580   12.8590 O   0  0  0  0  0  0  0  0  0  0  0  0
   10.3830    5.2600   10.5500 C   0  0  0  0  0  0  0  0  0  0  0  0
   11.7580    4.9350   10.8630 N   0  0  0  0  0  0  0  0  0  0  0  0
   12.3630    3.7470   10.5330 C   0  0  0  0  0  0  0  0  0  0  0  0
   13.6240    3.7990   11.0520 C   0  0  0  0  0  0  0  0  0  0  0  0
   14.4870    2.7150   10.8670 C   0  0  0  0  0  0  0  0  0  0  0  0
   14.0510    1.6120   10.1640 C   0  0  0  0  0  0  0  0  0  0  0  0
   12.7780    1.5570    9.6400 C   0  0  0  0  0  0  0  0  0  0  0  0
   11.9240    2.6460    9.8310 C   0  0  0  0  0  0  0  0  0  0  0  0
   13.7640    4.9880   11.6790 N   0  0  0  0  0  0  0  0  0  0  0  0
   12.6350    5.6920   11.5750 C   0  0  2  0  0  0  0  0  0  0  0  0
   12.3940    6.8510   12.1450 N   0  0  0  0  0  0  0  0  0  0  0  0
   14.9860    5.3440   12.3790 C   0  0  0  0  0  0  0  0  0  0  0  0
   16.1080    5.7910   11.5350 C   0  0  0  0  0  0  0  0  0  0  0  0
   16.9620    4.8270   10.9410 N   0  0  0  0  0  0  0  0  0  0  0  0
   17.8390    4.2070   11.9670 C   0  0  0  0  0  0  0  0  0  0  0  0
   18.6320    5.2250   12.7180 C   0  0  0  0  0  0  0  0  0  0  0  0
   19.5430    5.7780   11.8160 O   0  0  0  0  0  0  0  0  0  0  0  0
   18.9120    6.3400   10.7340 C   0  0  0  0  0  0  0  0  0  0  0  0
   17.9390    5.4380   10.0240 C   0  0  0  0  0  0  0  0  0  0  0  0
    9.2800    8.1900   12.6100 H   0  0  0  0  0  0  0  0  0  0  0  0
    7.0730    4.8670   11.1030 H   0  0  0  0  0  0  0  0  0  0  0  0
    5.0340    6.1390   11.2250 H   0  0  0  0  0  0  0  0  0  0  0  0
    5.1100    8.4620   12.0480 H   0  0  0  0  0  0  0  0  0  0  0  0
    9.9310    4.3920    9.9740 H   0  0  0  0  0  0  0  0  0  0  0  0
   10.3960    6.1470    9.8480 H   0  0  0  0  0  0  0  0  0  0  0  0
   15.4890    2.7700   11.2810 H   0  0  0  0  0  0  0  0  0  0  0  0
   14.7380    0.7910   10.0340 H   0  0  0  0  0  0  0  0  0  0  0  0
   12.4600    0.6820    9.0920 H   0  0  0  0  0  0  0  0  0  0  0  0
   10.9310    2.5930    9.4300 H   0  0  0  0  0  0  0  0  0  0  0  0
   13.0940    7.3740   12.6650 H   0  0  0  0  0  0  0  0  0  0  0  0
   11.4410    7.2350   12.0880 H   0  0  0  0  0  0  0  0  0  0  0  0
   14.7390    6.0930   13.1630 H   0  0  0  0  0  0  0  0  0  0  0  0
   15.3230    4.4450   12.9460 H   0  0  0  0  0  0  0  0  0  0  0  0
   16.6980    6.5870   12.0920 H   0  0  0  0  0  0  0  0  0  0  0  0
   15.6530    6.3970   10.6920 H   0  0  0  0  0  0  0  0  0  0  0  0
   17.2640    3.5200   12.6110 H   0  0  0  0  0  0  0  0  0  0  0  0
   18.5480    3.5990   11.3760 H   0  0  0  0  0  0  0  0  0  0  0  0
   19.2300    4.6790   13.4770 H   0  0  0  0  0  0  0  0  0  0  0  0
   18.0580    5.9850   13.2500 H   0  0  0  0  0  0  0  0  0  0  0  0
   19.7270    6.5580    9.9820 H   0  0  0  0  0  0  0  0  0  0  0  0
   18.4700    7.3140   11.0350 H   0  0  0  0  0  0  0  0  0  0  0  0
   17.4920    5.9890    9.2040 H   0  0  0  0  0  0  0  0  0  0  0  0
   18.5510    4.5540    9.6680 H   0  0  0  0  0  0  0  0  0  0  0  0
  2  1  1  0  0  0  0
  3  2  1  0  0  0  0
  3 29  1  0  0  0  0
  4  3  2  0  0  0  0
  5  6  2  0  0  0  0
  5  4  1  0  0  0  0
  6  7  1  0  0  0  0
  7 32  1  0  0  0  0
  7  2  2  0  0  0  0
  8  4  1  0  0  0  0
  8  9  1  1  0  0  0
 10 11  1  0  0  0  0
 10  8  1  0  0  0  0
 11 19  1  0  0  0  0
 12 11  1  0  0  0  0
 12 13  1  0  0  0  0
 13 18  1  0  0  0  0
 14 13  2  0  0  0  0
 14 35  1  0  0  0  0
 15 14  1  0  0  0  0
 16 17  1  0  0  0  0
 16 15  2  0  0  0  0
 17 12  2  0  0  0  0
 18 21  1  0  0  0  0
 19 18  1  0  0  0  0
 19 20  1  1  0  0  0
 20 39  1  0  0  0  0
 21 42  1  0  0  0  0
 21 41  1  0  0  0  0
 22 43  1  0  0  0  0
 22 21  1  0  0  0  0
 23 22  1  0  0  0  0
 23 24  1  0  0  0  0
 24 45  1  0  0  0  0
 24 25  1  0  0  0  0
 25 48  1  0  0  0  0
 25 47  1  0  0  0  0
 26 25  1  0  0  0  0
 27 50  1  0  0  0  0
 27 26  1  0  0  0  0
 28 27  1  0  0  0  0
 28 23  1  0  0  0  0
 30  5  1  0  0  0  0
 31  6  1  0  0  0  0
 33 10  1  0  0  0  0
 34 10  1  0  0  0  0
 36 15  1  0  0  0  0
 37 16  1  0  0  0  0
 38 17  1  0  0  0  0
 40 20  1  0  0  0  0
 44 22  1  0  0  0  0
 46 24  1  0  0  0  0
 49 27  1  0  0  0  0
 51 28  1  0  0  0  0
 52 28  1  0  0  0  0
M  END
>  <Pose>
1

>  <Score>
-5.24

$$$$
