
 OpenBabel03172210413D

 51 54  0  0  1  0  0  0  0  0999 V2000
   17.6110    5.8770   13.7480 B   0  0  0  0  0  0  0  0  0  0  0  0
   15.9220    5.9620   12.8480 C   0  0  0  0  0  0  0  0  0  0  0  0
   15.4640    7.1250   12.2800 C   0  0  0  0  0  0  0  0  0  0  0  0
   14.2510    7.1590   11.6410 C   0  0  0  0  0  0  0  0  0  0  0  0
   13.4120    6.0350   11.5260 C   0  0  0  0  0  0  0  0  0  0  0  0
   13.8850    4.8940   12.0970 C   0  0  0  0  0  0  0  0  0  0  0  0
   15.1070    4.8590   12.7400 C   0  0  0  0  0  0  0  0  0  0  0  0
   12.1510    6.2020   10.8480 C   0  0  1  0  0  0  0  0  0  0  0  0
   11.6740    5.1500   10.0000 N   0  0  0  0  0  0  0  0  0  0  0  0
   10.2960    5.5370    9.7200 C   0  0  0  0  0  0  0  0  0  0  0  0
    9.6280    5.2090    8.7150 O   0  0  0  0  0  0  0  0  0  0  0  0
    9.8440    6.3680   10.8210 C   0  0  0  0  0  0  0  0  0  0  0  0
    8.7180    6.9230   10.9920 O   0  0  0  0  0  0  0  0  0  0  0  0
   10.9830    6.4540   11.7400 C   0  0  0  0  0  0  0  0  0  0  0  0
   10.9220    6.7320   13.0130 C   0  0  0  0  0  0  0  0  0  0  0  0
   12.1200    6.8290   13.7310 O   0  0  0  0  0  0  0  0  0  0  0  0
    9.6320    6.9360   13.7020 C   0  0  0  0  0  0  0  0  0  0  0  0
    8.6900    6.0130   13.8600 O   0  0  0  0  0  0  0  0  0  0  0  0
    7.6580    6.4860   14.5080 C   0  0  0  0  0  0  0  0  0  0  0  0
    7.8770    7.8110   14.8250 C   0  0  0  0  0  0  0  0  0  0  0  0
    9.1330    8.0660   14.3020 C   0  0  0  0  0  0  0  0  0  0  0  0
    6.9290    8.5340   15.5130 C   0  0  0  0  0  0  0  0  0  0  0  0
    5.7270    7.9970   15.9200 C   0  0  0  0  0  0  0  0  0  0  0  0
    5.5020    6.6690   15.6040 C   0  0  0  0  0  0  0  0  0  0  0  0
    6.4410    5.9310   14.9160 C   0  0  0  0  0  0  0  0  0  0  0  0
   12.3000    3.9820    9.4210 C   0  0  0  0  0  0  0  0  0  0  0  0
   12.2780    2.7280   10.1880 C   0  0  0  0  0  0  0  0  0  0  0  0
   12.7620    1.5420    9.5300 N   0  0  0  0  0  4  0  0  0  0  0  0
   14.0200    1.0940   10.0560 C   0  0  0  0  0  0  0  0  0  0  0  0
   11.7820    0.5090    9.3470 C   0  0  0  0  0  0  0  0  0  0  0  0
   16.0910    8.0030   12.3550 H   0  0  0  0  0  0  0  0  0  0  0  0
   13.9510    8.1130   11.2150 H   0  0  0  0  0  0  0  0  0  0  0  0
   13.2980    4.0020   12.0710 H   0  0  0  0  0  0  0  0  0  0  0  0
   15.4590    3.9280   13.1890 H   0  0  0  0  0  0  0  0  0  0  0  0
   12.1810    7.1220   10.1850 H   0  0  0  0  0  0  0  0  0  0  0  0
    9.6420    9.0160   14.3450 H   0  0  0  0  0  0  0  0  0  0  0  0
    7.1190    9.5680   15.7510 H   0  0  0  0  0  0  0  0  0  0  0  0
    4.9670    8.5450   16.4610 H   0  0  0  0  0  0  0  0  0  0  0  0
    4.5790    6.1910   15.8970 H   0  0  0  0  0  0  0  0  0  0  0  0
    6.2670    4.8930   14.6690 H   0  0  0  0  0  0  0  0  0  0  0  0
   13.3480    4.2080    9.0930 H   0  0  0  0  0  0  0  0  0  0  0  0
   11.7610    3.7870    8.4410 H   0  0  0  0  0  0  0  0  0  0  0  0
   11.2500    2.4970   10.5240 H   0  0  0  0  0  0  0  0  0  0  0  0
   12.9280    2.8580   11.1050 H   0  0  0  0  0  0  0  0  0  0  0  0
   12.9960    1.8840    8.5360 H   0  0  0  0  0  0  0  0  0  0  0  0
   14.3180    1.8160   10.8390 H   0  0  0  0  0  0  0  0  0  0  0  0
   14.0240    0.0340   10.3850 H   0  0  0  0  0  0  0  0  0  0  0  0
   14.8610    1.1450    9.3050 H   0  0  0  0  0  0  0  0  0  0  0  0
   10.7710    0.7560    9.7100 H   0  0  0  0  0  0  0  0  0  0  0  0
   11.6300    0.2550    8.2550 H   0  0  0  0  0  0  0  0  0  0  0  0
   12.1580   -0.4710    9.7700 H   0  0  0  0  0  0  0  0  0  0  0  0
  2  1  1  0  0  0  0
  3 31  1  0  0  0  0
  3  2  2  0  0  0  0
  4  3  1  0  0  0  0
  5  4  2  0  0  0  0
  5  6  1  0  0  0  0
  6  7  2  0  0  0  0
  7  2  1  0  0  0  0
  7 34  1  0  0  0  0
  8 35  1  6  0  0  0
  8  5  1  0  0  0  0
  8 14  1  0  0  0  0
  9  8  1  0  0  0  0
 10  9  1  0  0  0  0
 10 12  1  0  0  0  0
 11 10  2  0  0  0  0
 12 13  2  0  0  0  0
 12 14  1  0  0  0  0
 14 15  2  0  0  0  0
 15 17  1  0  0  0  0
 15 16  1  0  0  0  0
 17 18  1  0  0  0  0
 17 21  2  0  0  0  0
 18 19  1  0  0  0  0
 19 20  2  0  0  0  0
 19 25  1  0  0  0  0
 20 22  1  0  0  0  0
 21 36  1  0  0  0  0
 21 20  1  0  0  0  0
 22 37  1  0  0  0  0
 22 23  2  0  0  0  0
 23 38  1  0  0  0  0
 24 39  1  0  0  0  0
 24 23  1  0  0  0  0
 25 24  2  0  0  0  0
 26  9  1  0  0  0  0
 26 27  1  0  0  0  0
 27 43  1  0  0  0  0
 27 44  1  0  0  0  0
 28 29  1  0  0  0  0
 28 27  1  0  0  0  0
 29 47  1  0  0  0  0
 29 46  1  0  0  0  0
 30 28  1  0  0  0  0
 30 49  1  0  0  0  0
 30 51  1  0  0  0  0
 32  4  1  0  0  0  0
 33  6  1  0  0  0  0
 40 25  1  0  0  0  0
 41 26  1  0  0  0  0
 42 26  1  0  0  0  0
 45 28  1  0  0  0  0
 48 29  1  0  0  0  0
 50 30  1  0  0  0  0
M  END
>  <Pose>
1

>  <Score>
-5.47

$$$$
