
 OpenBabel03172210413D

 48 51  0  0  0  0  0  0  0  0999 V2000
   18.0620    8.0490   11.2860 B   0  0  0  0  0  0  0  0  0  0  0  0
   16.8660    6.5950   11.6090 C   0  0  0  0  0  0  0  0  0  0  0  0
   16.9250    5.4450   10.8270 C   0  0  0  0  0  0  0  0  0  0  0  0
   16.0670    4.3940   11.0640 C   0  0  0  0  0  0  0  0  0  0  0  0
   15.1430    4.4680   12.0780 C   0  0  0  0  0  0  0  0  0  0  0  0
   15.0990    5.6110   12.8420 C   0  0  0  0  0  0  0  0  0  0  0  0
   15.9370    6.6830   12.6350 C   0  0  0  0  0  0  0  0  0  0  0  0
   16.1270    3.1860   10.2660 C   0  0  0  0  0  0  0  0  0  0  0  0
   15.0160    2.5290    9.9270 C   0  0  0  0  0  0  0  0  0  0  0  0
   13.7050    2.8650   10.2580 O   0  0  0  0  0  0  0  0  0  0  0  0
   12.8260    1.9620    9.7270 C   0  0  0  0  0  0  0  0  0  0  0  0
   13.5110    0.9810    9.0190 C   0  0  0  0  0  0  0  0  0  0  0  0
   12.7750   -0.0190    8.4040 C   0  0  0  0  0  0  0  0  0  0  0  0
   11.4020   -0.0280    8.5000 C   0  0  0  0  0  0  0  0  0  0  0  0
   10.7470    0.9750    9.2210 C   0  0  0  0  0  0  0  0  0  0  0  0
   11.4510    1.9740    9.8390 C   0  0  0  0  0  0  0  0  0  0  0  0
   10.7240    2.9540   10.6480 C   0  0  0  0  0  0  0  0  0  0  0  0
   10.8660    4.3140   10.2720 N   0  0  0  0  0  4  0  0  0  0  0  0
   11.7620    4.9570   11.2190 C   0  0  0  0  0  0  0  0  0  0  0  0
   11.3950    6.3520   11.5920 C   0  0  0  0  0  0  0  0  0  0  0  0
   10.0410    6.5450   11.9760 N   0  0  0  0  0  0  0  0  0  0  0  0
    9.2210    5.4370   11.6130 C   0  0  0  0  0  0  0  0  0  0  0  0
    9.5790    4.9660   10.2440 C   0  0  0  0  0  0  0  0  0  0  0  0
    9.5490    7.7930   11.4330 C   0  0  0  0  0  0  0  0  0  0  0  0
    9.3650    0.8780    9.2580 O   0  0  0  0  0  0  0  0  0  0  0  0
   14.9430    1.3110    9.1230 C   0  0  0  0  0  0  0  0  0  0  0  0
   15.8730    0.6390    8.6080 O   0  0  0  0  0  0  0  0  0  0  0  0
   17.6690    5.4250   10.0300 H   0  0  0  0  0  0  0  0  0  0  0  0
   14.4670    3.6430   12.2570 H   0  0  0  0  0  0  0  0  0  0  0  0
   14.3590    5.6410   13.6540 H   0  0  0  0  0  0  0  0  0  0  0  0
   15.8740    7.5690   13.2740 H   0  0  0  0  0  0  0  0  0  0  0  0
   17.0750    2.8030    9.9420 H   0  0  0  0  0  0  0  0  0  0  0  0
   13.3410   -0.7620    7.8610 H   0  0  0  0  0  0  0  0  0  0  0  0
   10.8850   -0.8290    8.0020 H   0  0  0  0  0  0  0  0  0  0  0  0
    9.6160    2.6790   10.5730 H   0  0  0  0  0  0  0  0  0  0  0  0
   10.9600    2.8020   11.7120 H   0  0  0  0  0  0  0  0  0  0  0  0
   11.2510    4.4320    9.2870 H   0  0  0  0  0  0  0  0  0  0  0  0
   12.8070    4.9820   10.8700 H   0  0  0  0  0  0  0  0  0  0  0  0
   11.8240    4.3570   12.1740 H   0  0  0  0  0  0  0  0  0  0  0  0
   12.0410    6.6170   12.4910 H   0  0  0  0  0  0  0  0  0  0  0  0
   11.7320    7.1260   10.8290 H   0  0  0  0  0  0  0  0  0  0  0  0
    9.4430    4.5900   12.3300 H   0  0  0  0  0  0  0  0  0  0  0  0
    8.1240    5.6490   11.6990 H   0  0  0  0  0  0  0  0  0  0  0  0
    9.5800    5.8230    9.5030 H   0  0  0  0  0  0  0  0  0  0  0  0
    8.7810    4.2600    9.9040 H   0  0  0  0  0  0  0  0  0  0  0  0
   10.0000    8.0490   10.4410 H   0  0  0  0  0  0  0  0  0  0  0  0
    8.4440    7.8450   11.3400 H   0  0  0  0  0  0  0  0  0  0  0  0
    9.9210    8.6150   12.1110 H   0  0  0  0  0  0  0  0  0  0  0  0
  1  2  1  0  0  0  0
  2  7  1  0  0  0  0
  3  4  1  0  0  0  0
  3  2  2  0  0  0  0
  4  5  2  0  0  0  0
  5 29  1  0  0  0  0
  5  6  1  0  0  0  0
  6 30  1  0  0  0  0
  7  6  2  0  0  0  0
  7 31  1  0  0  0  0
  8  4  1  0  0  0  0
  9 10  1  0  0  0  0
  9  8  2  0  0  0  0
 11 16  1  0  0  0  0
 11 10  1  0  0  0  0
 12 26  1  0  0  0  0
 12 11  2  0  0  0  0
 13 14  2  0  0  0  0
 13 12  1  0  0  0  0
 14 15  1  0  0  0  0
 15 25  1  0  0  0  0
 15 16  2  0  0  0  0
 16 17  1  0  0  0  0
 17 36  1  0  0  0  0
 18 17  1  0  0  0  0
 18 19  1  0  0  0  0
 19 20  1  0  0  0  0
 19 39  1  0  0  0  0
 20 21  1  0  0  0  0
 20 40  1  0  0  0  0
 22 43  1  0  0  0  0
 22 21  1  0  0  0  0
 22 42  1  0  0  0  0
 23 18  1  0  0  0  0
 23 22  1  0  0  0  0
 24 21  1  0  0  0  0
 24 48  1  0  0  0  0
 26  9  1  0  0  0  0
 27 26  2  0  0  0  0
 28  3  1  0  0  0  0
 32  8  1  0  0  0  0
 33 13  1  0  0  0  0
 34 14  1  0  0  0  0
 35 17  1  0  0  0  0
 37 18  1  0  0  0  0
 38 19  1  0  0  0  0
 41 20  1  0  0  0  0
 44 23  1  0  0  0  0
 45 23  1  0  0  0  0
 46 24  1  0  0  0  0
 47 24  1  0  0  0  0
M  END
>  <Pose>
1

>  <Score>
-6.36

$$$$
