
 OpenBabel03172210413D

 55 58  0  0  1  0  0  0  0  0999 V2000
   11.8330    0.4100    8.9570 B   0  0  0  0  0  0  0  0  0  0  0  0
   11.9040    1.8870   10.1760 C   0  0  0  0  0  0  0  0  0  0  0  0
   10.7300    2.5210   10.5160 C   0  0  0  0  0  0  0  0  0  0  0  0
   10.7610    3.5840   11.3890 C   0  0  0  0  0  0  0  0  0  0  0  0
   11.9240    4.0740   11.9670 C   0  0  0  0  0  0  0  0  0  0  0  0
   13.0800    3.4190   11.6070 C   0  0  0  0  0  0  0  0  0  0  0  0
   13.0670    2.3330   10.7180 C   0  0  0  0  0  0  0  0  0  0  0  0
   11.8490    5.1550   12.8390 N   0  0  0  0  0  0  0  0  0  0  0  0
   11.6060    6.5090   12.5470 C   0  0  0  0  0  0  0  0  0  0  0  0
   11.5010    6.9020   11.3680 O   0  0  0  0  0  0  0  0  0  0  0  0
   11.4570    7.5430   13.6030 C   0  0  0  0  0  0  0  0  0  0  0  0
   11.5030    6.9550   14.9090 N   0  0  0  0  0  0  0  0  0  0  0  0
   11.1050    7.6310   16.0890 C   0  0  0  0  0  0  0  0  0  0  0  0
    9.9490    8.1350   16.1160 O   0  0  0  0  0  0  0  0  0  0  0  0
   12.0400    7.7290   17.2410 C   0  0  2  0  0  0  0  0  0  0  0  0
   13.2520    8.0920   16.7860 O   0  0  0  0  0  0  0  0  0  0  0  0
   14.3510    7.7260   17.4970 C   0  0  2  0  0  0  0  0  0  0  0  0
   15.4700    7.8970   16.6700 O   0  0  0  0  0  0  0  0  0  0  0  0
   15.6550    6.7250   15.9770 C   0  0  0  0  0  0  0  0  0  0  0  0
   14.8160    5.7620   16.5020 O   0  0  0  0  0  0  0  0  0  0  0  0
   14.4310    6.2430   17.7750 C   0  0  2  0  0  0  0  0  0  0  0  0
   13.1390    5.6780   18.2230 C   0  0  1  0  0  0  0  0  0  0  0  0
   13.1790    5.3180   19.5890 O   0  0  0  0  0  0  0  0  0  0  0  0
   11.9980    5.7240   20.1570 C   0  0  0  0  0  0  0  0  0  0  0  0
   11.6350    6.8310   19.4360 O   0  0  0  0  0  0  0  0  0  0  0  0
   11.9470    6.5260   18.1030 C   0  0  1  0  0  0  0  0  0  0  0  0
   12.3060    6.0810   21.6160 C   0  0  0  0  0  0  0  0  0  0  0  0
   10.9490    4.6430   20.2010 C   0  0  0  0  0  0  0  0  0  0  0  0
   17.0800    6.1910   16.1290 C   0  0  0  0  0  0  0  0  0  0  0  0
   15.4180    6.8880   14.4850 C   0  0  0  0  0  0  0  0  0  0  0  0
    9.7710    2.1790   10.0900 H   0  0  0  0  0  0  0  0  0  0  0  0
    9.8090    4.0420   11.6180 H   0  0  0  0  0  0  0  0  0  0  0  0
   14.0180    3.7230   11.9980 H   0  0  0  0  0  0  0  0  0  0  0  0
   13.9980    1.8670   10.4780 H   0  0  0  0  0  0  0  0  0  0  0  0
   11.9980    4.9370   13.8770 H   0  0  0  0  0  0  0  0  0  0  0  0
   12.3650    8.2110   13.5240 H   0  0  0  0  0  0  0  0  0  0  0  0
   10.5890    8.2060   13.4410 H   0  0  0  0  0  0  0  0  0  0  0  0
   11.8490    5.9760   14.9970 H   0  0  0  0  0  0  0  0  0  0  0  0
   11.6370    8.5910   17.8560 H   0  0  0  0  0  0  0  0  0  0  0  0
   14.5520    8.3260   18.4080 H   0  0  0  0  0  0  0  0  0  0  0  0
   15.2550    6.0930   18.5020 H   0  0  0  0  0  0  0  0  0  0  0  0
   12.9980    4.6920   17.6890 H   0  0  0  0  0  0  0  0  0  0  0  0
   11.0920    5.8960   17.7450 H   0  0  0  0  0  0  0  0  0  0  0  0
   11.3430    6.1990   22.1280 H   0  0  0  0  0  0  0  0  0  0  0  0
   12.9650    6.9600   21.6750 H   0  0  0  0  0  0  0  0  0  0  0  0
   12.8600    5.2130   22.0270 H   0  0  0  0  0  0  0  0  0  0  0  0
    9.9280    5.0140   20.1100 H   0  0  0  0  0  0  0  0  0  0  0  0
   11.1340    3.8730   19.4230 H   0  0  0  0  0  0  0  0  0  0  0  0
   10.9890    4.0770   21.1780 H   0  0  0  0  0  0  0  0  0  0  0  0
   17.7750    7.0330   16.0340 H   0  0  0  0  0  0  0  0  0  0  0  0
   17.1910    5.6050   17.0590 H   0  0  0  0  0  0  0  0  0  0  0  0
   17.2440    5.5060   15.2710 H   0  0  0  0  0  0  0  0  0  0  0  0
   16.3470    6.7520   13.8930 H   0  0  0  0  0  0  0  0  0  0  0  0
   15.0190    7.9030   14.2490 H   0  0  0  0  0  0  0  0  0  0  0  0
   14.6950    6.1250   14.1020 H   0  0  0  0  0  0  0  0  0  0  0  0
  1  2  1  0  0  0  0
  2  3  2  0  0  0  0
  2  7  1  0  0  0  0
  3  4  1  0  0  0  0
  4 32  1  0  0  0  0
  4  5  2  0  0  0  0
  5  8  1  0  0  0  0
  6  5  1  0  0  0  0
  6 33  1  0  0  0  0
  7  6  2  0  0  0  0
  8 35  1  0  0  0  0
  9  8  1  0  0  0  0
  9 11  1  0  0  0  0
 10  9  2  0  0  0  0
 11 12  1  0  0  0  0
 12 38  1  0  0  0  0
 12 13  1  0  0  0  0
 13 14  2  0  0  0  0
 13 15  1  0  0  0  0
 15 39  1  1  0  0  0
 15 26  1  0  0  0  0
 16 15  1  0  0  0  0
 16 17  1  0  0  0  0
 17 21  1  0  0  0  0
 17 40  1  1  0  0  0
 18 17  1  0  0  0  0
 19 29  1  0  0  0  0
 19 20  1  0  0  0  0
 19 18  1  0  0  0  0
 20 21  1  0  0  0  0
 21 22  1  0  0  0  0
 21 41  1  1  0  0  0
 22 42  1  6  0  0  0
 22 23  1  0  0  0  0
 23 24  1  0  0  0  0
 24 28  1  0  0  0  0
 24 27  1  0  0  0  0
 25 24  1  0  0  0  0
 26 43  1  6  0  0  0
 26 22  1  0  0  0  0
 26 25  1  0  0  0  0
 27 45  1  0  0  0  0
 27 46  1  0  0  0  0
 27 44  1  0  0  0  0
 28 49  1  0  0  0  0
 29 51  1  0  0  0  0
 30 19  1  0  0  0  0
 31  3  1  0  0  0  0
 34  7  1  0  0  0  0
 36 11  1  0  0  0  0
 37 11  1  0  0  0  0
 47 28  1  0  0  0  0
 48 28  1  0  0  0  0
 50 29  1  0  0  0  0
 52 29  1  0  0  0  0
 53 30  1  0  0  0  0
 54 30  1  0  0  0  0
 55 30  1  0  0  0  0
M  END
>  <Pose>
1

>  <Score>
-5.35

$$$$
