
 OpenBabel03172210413D

 50 53  0  0  1  0  0  0  0  0999 V2000
    4.1230    7.8350   11.1960 Cl  0  0  0  0  0  0  0  0  0  0  0  0
    5.8560    7.7790   11.4890 C   0  0  0  0  0  0  0  0  0  0  0  0
    6.6200    8.9250   11.5110 C   0  0  0  0  0  0  0  0  0  0  0  0
    7.9830    8.8750   11.7400 C   0  0  0  0  0  0  0  0  0  0  0  0
    8.6460    7.6830   11.9600 C   0  0  0  0  0  0  0  0  0  0  0  0
    7.8840    6.5340   11.9410 C   0  0  0  0  0  0  0  0  0  0  0  0
    6.5040    6.5810   11.7080 C   0  0  0  0  0  0  0  0  0  0  0  0
   10.0870    7.6590   12.2020 C   0  0  0  0  0  0  0  0  0  0  0  0
   10.8440    8.4340   13.0140 N   0  0  0  0  0  0  0  0  0  0  0  0
   12.1300    8.0400   12.9090 C   0  0  1  0  0  0  0  0  0  0  0  0
   12.2350    7.0130   12.0380 N   0  0  0  0  0  0  0  0  0  0  0  0
   10.9730    6.7870   11.6080 C   0  0  0  0  0  0  0  0  0  0  0  0
   13.4260    6.2950   11.6320 C   0  0  0  0  0  0  0  0  0  0  0  0
   13.7070    5.1940   12.5970 C   0  0  0  0  0  0  0  0  0  0  0  0
   14.7690    5.2310   13.2210 O   0  0  0  0  0  0  0  0  0  0  0  0
   12.7510    4.1860   12.7350 N   0  0  0  0  0  0  0  0  0  0  0  0
   12.4390    3.2250   11.7390 C   0  0  0  0  0  0  0  0  0  0  0  0
   13.4820    2.4910   11.1580 C   0  0  0  0  0  0  0  0  0  0  0  0
   13.2210    1.5770   10.1890 C   0  0  0  0  0  0  0  0  0  0  0  0
   11.9280    1.3430    9.7500 C   0  0  0  0  0  0  0  0  0  0  0  0
   10.9180    2.0630   10.3210 C   0  0  0  0  0  0  0  0  0  0  0  0
   11.1550    3.0130   11.3230 C   0  0  0  0  0  0  0  0  0  0  0  0
   11.6680    0.3370    8.6890 C   0  0  0  0  0  0  0  0  0  0  0  0
   10.9270   -0.8430    9.3250 C   0  0  0  0  0  0  0  0  0  0  0  0
   12.9840    8.8770   13.7900 C   0  0  0  0  0  0  0  0  0  0  0  0
   12.0600    9.7820   14.5280 C   0  0  0  0  0  0  0  0  0  0  0  0
   10.7180    9.5320   13.9470 C   0  0  0  0  0  0  0  0  0  0  0  0
    6.1080    9.8610   11.3390 H   0  0  0  0  0  0  0  0  0  0  0  0
    8.5640    9.7930   11.7520 H   0  0  0  0  0  0  0  0  0  0  0  0
    8.3530    5.5750   12.1080 H   0  0  0  0  0  0  0  0  0  0  0  0
    5.9090    5.6860   11.6920 H   0  0  0  0  0  0  0  0  0  0  0  0
   10.7010    6.0060   10.8800 H   0  0  0  0  0  0  0  0  0  0  0  0
   14.2840    6.9910   11.5420 H   0  0  0  0  0  0  0  0  0  0  0  0
   13.2280    5.9100   10.6070 H   0  0  0  0  0  0  0  0  0  0  0  0
   12.1840    4.0820   13.6420 H   0  0  0  0  0  0  0  0  0  0  0  0
   14.5140    2.6670   11.4990 H   0  0  0  0  0  0  0  0  0  0  0  0
   14.0430    0.9990    9.7310 H   0  0  0  0  0  0  0  0  0  0  0  0
    9.8790    1.9210   10.0160 H   0  0  0  0  0  0  0  0  0  0  0  0
   10.2840    3.5590   11.7220 H   0  0  0  0  0  0  0  0  0  0  0  0
   12.6210    0.0090    8.2420 H   0  0  0  0  0  0  0  0  0  0  0  0
   11.0210    0.7660    7.9040 H   0  0  0  0  0  0  0  0  0  0  0  0
    9.9010   -0.5430    9.5730 H   0  0  0  0  0  0  0  0  0  0  0  0
   11.5170   -1.2110   10.1730 H   0  0  0  0  0  0  0  0  0  0  0  0
   10.8660   -1.6720    8.5810 H   0  0  0  0  0  0  0  0  0  0  0  0
   13.7540    9.4190   13.2000 H   0  0  0  0  0  0  0  0  0  0  0  0
   13.5050    8.2190   14.5400 H   0  0  0  0  0  0  0  0  0  0  0  0
   12.0900    9.5670   15.6370 H   0  0  0  0  0  0  0  0  0  0  0  0
   12.3840   10.8610   14.3990 H   0  0  0  0  0  0  0  0  0  0  0  0
   10.3260   10.4470   13.4410 H   0  0  0  0  0  0  0  0  0  0  0  0
   10.0470    9.2070   14.7920 H   0  0  0  0  0  0  0  0  0  0  0  0
  1  2  1  0  0  0  0
  2  3  2  0  0  0  0
  2  7  1  0  0  0  0
  3  4  1  0  0  0  0
  4 29  1  0  0  0  0
  4  5  2  0  0  0  0
  5  8  1  0  0  0  0
  6  5  1  0  0  0  0
  6 30  1  0  0  0  0
  7  6  2  0  0  0  0
  8  9  1  0  0  0  0
  9 27  1  0  0  0  0
 10 11  1  6  0  0  0
 10  9  1  0  0  0  0
 10 25  1  0  0  0  0
 12 11  1  0  0  0  0
 12  8  2  0  0  0  0
 13 11  1  0  0  0  0
 13 14  1  0  0  0  0
 14 16  1  0  0  0  0
 14 15  2  0  0  0  0
 16 35  1  0  0  0  0
 17 16  1  0  0  0  0
 18 36  1  0  0  0  0
 18 17  2  0  0  0  0
 19 18  1  0  0  0  0
 20 19  2  0  0  0  0
 20 21  1  0  0  0  0
 21 22  2  0  0  0  0
 22 39  1  0  0  0  0
 22 17  1  0  0  0  0
 23 24  1  0  0  0  0
 23 20  1  0  0  0  0
 24 42  1  0  0  0  0
 24 43  1  0  0  0  0
 25 26  1  0  0  0  0
 25 46  1  0  0  0  0
 26 47  1  0  0  0  0
 27 26  1  0  0  0  0
 27 50  1  0  0  0  0
 28  3  1  0  0  0  0
 31  7  1  0  0  0  0
 32 12  1  0  0  0  0
 33 13  1  0  0  0  0
 34 13  1  0  0  0  0
 37 19  1  0  0  0  0
 38 21  1  0  0  0  0
 40 23  1  0  0  0  0
 41 23  1  0  0  0  0
 44 24  1  0  0  0  0
 45 25  1  0  0  0  0
 48 26  1  0  0  0  0
 49 27  1  0  0  0  0
M  END
>  <Pose>
1

>  <Score>
-6.03

$$$$
