
 OpenBabel03172210413D

 56 59  0  0  1  0  0  0  0  0999 V2000
   17.5380    6.8850   10.7720 B   0  0  0  0  0  0  0  0  0  0  0  0
   18.7820    5.5090   11.1880 C   0  0  0  0  0  0  0  0  0  0  0  0
   18.3000    4.2820   11.5890 C   0  0  0  0  0  0  0  0  0  0  0  0
   19.2380    3.3150   11.8800 C   0  0  0  0  0  0  0  0  0  0  0  0
   20.5950    3.5440   11.7810 C   0  0  0  0  0  0  0  0  0  0  0  0
   21.0770    4.7720   11.3810 C   0  0  0  0  0  0  0  0  0  0  0  0
   20.1540    5.7530   11.0850 C   0  0  0  0  0  0  0  0  0  0  0  0
   22.4510    4.9980   11.2830 O   0  0  0  0  0  0  0  0  0  0  0  0
   23.0010    6.1990   10.8330 C   0  0  0  0  0  0  0  0  0  0  0  0
   21.5350    2.5620   12.0780 O   0  0  0  0  0  0  0  0  0  0  0  0
   21.5110    1.7610   13.2160 C   0  0  0  0  0  0  0  0  0  0  0  0
   16.8660    4.0350   11.6940 C   0  0  0  0  0  0  0  0  0  0  0  0
   15.9600    4.8410   11.3200 N   0  0  0  0  0  0  0  0  0  0  0  0
   14.5820    4.5760   11.4350 N   0  0  0  0  0  0  0  0  0  0  0  0
   14.0510    3.5110   10.6560 C   0  0  0  0  0  0  0  0  0  0  0  0
   12.7410    3.3060   10.3640 N   0  0  0  0  0  0  0  0  0  0  0  0
   12.6350    2.1880    9.6000 C   0  0  0  0  0  0  0  0  0  0  0  0
   11.6110    1.5340    9.0410 N   0  0  0  0  0  0  0  0  0  0  0  0
   11.7870    0.4170    8.3110 C   0  0  0  0  0  0  0  0  0  0  0  0
   13.0390   -0.0600    8.1380 N   0  0  0  0  0  0  0  0  0  0  0  0
   14.1030    0.5370    8.6630 C   0  0  0  0  0  0  0  0  0  0  0  0
   13.9160    1.6830    9.4110 C   0  0  0  0  0  0  0  0  0  0  0  0
   14.7240    2.5050   10.0580 N   0  0  0  0  0  0  0  0  0  0  0  0
   15.4110    0.0680    8.5020 O   0  0  0  0  0  0  0  0  0  0  0  0
   10.6760   -0.2730    7.7180 N   0  0  0  0  0  0  0  0  0  0  0  0
   11.6550    4.1330   10.7920 C   0  0  2  0  0  0  0  0  0  0  0  0
   11.6410    5.3930   10.2100 O   0  0  0  0  0  0  0  0  0  0  0  0
   10.9250    6.2340   11.0120 C   0  0  1  0  0  0  0  0  0  0  0  0
   10.6860    5.5920   12.3360 C   0  0  2  0  0  0  0  0  0  0  0  0
   11.6370    4.3950   12.2840 C   0  0  1  0  0  0  0  0  0  0  0  0
   11.1090    3.3180   12.9950 O   0  0  0  0  0  0  0  0  0  0  0  0
    9.3920    5.0360   12.3830 O   0  0  0  0  0  0  0  0  0  0  0  0
   11.7600    7.4940   11.2500 C   0  0  0  0  0  0  0  0  0  0  0  0
   12.9070    7.4650   10.4480 O   0  0  0  0  0  0  0  0  0  0  0  0
   18.8600    2.3390   12.1990 H   0  0  0  0  0  0  0  0  0  0  0  0
   20.5060    6.7270   10.7680 H   0  0  0  0  0  0  0  0  0  0  0  0
   24.0430    6.3600   11.1860 H   0  0  0  0  0  0  0  0  0  0  0  0
   22.4260    7.0820   11.2330 H   0  0  0  0  0  0  0  0  0  0  0  0
   23.0180    6.3060    9.7350 H   0  0  0  0  0  0  0  0  0  0  0  0
   22.0990    0.8430   12.9960 H   0  0  0  0  0  0  0  0  0  0  0  0
   20.5170    1.5570   13.6260 H   0  0  0  0  0  0  0  0  0  0  0  0
   22.0860    2.2830   14.0340 H   0  0  0  0  0  0  0  0  0  0  0  0
   16.5360    3.0960   12.1220 H   0  0  0  0  0  0  0  0  0  0  0  0
   13.9540    5.1150   12.0520 H   0  0  0  0  0  0  0  0  0  0  0  0
   15.5160   -0.7750    7.9510 H   0  0  0  0  0  0  0  0  0  0  0  0
   10.2880   -0.0580    6.7940 H   0  0  0  0  0  0  0  0  0  0  0  0
   10.2520   -1.0380    8.2840 H   0  0  0  0  0  0  0  0  0  0  0  0
   10.6770    3.6630   10.5520 H   0  0  0  0  0  0  0  0  0  0  0  0
    9.9800    6.4920   10.4840 H   0  0  0  0  0  0  0  0  0  0  0  0
   10.8930    6.2380   13.2020 H   0  0  0  0  0  0  0  0  0  0  0  0
   12.6290    4.6590   12.6750 H   0  0  0  0  0  0  0  0  0  0  0  0
   11.5600    3.2390   13.8750 H   0  0  0  0  0  0  0  0  0  0  0  0
    9.2290    4.5750   13.2340 H   0  0  0  0  0  0  0  0  0  0  0  0
   12.0470    7.4830   12.3150 H   0  0  0  0  0  0  0  0  0  0  0  0
   11.1180    8.3570   11.0240 H   0  0  0  0  0  0  0  0  0  0  0  0
   12.6960    7.7040    9.5090 H   0  0  0  0  0  0  0  0  0  0  0  0
  1  2  1  0  0  0  0
  2  3  1  0  0  0  0
  3 12  1  0  0  0  0
  3  4  2  0  0  0  0
  4 35  1  0  0  0  0
  5  4  1  0  0  0  0
  5 10  1  0  0  0  0
  6  5  2  0  0  0  0
  7  2  2  0  0  0  0
  7  6  1  0  0  0  0
  8  6  1  0  0  0  0
  9 37  1  0  0  0  0
  9 38  1  0  0  0  0
  9  8  1  0  0  0  0
 10 11  1  0  0  0  0
 11 41  1  0  0  0  0
 11 42  1  0  0  0  0
 12 43  1  0  0  0  0
 13 14  1  0  0  0  0
 13 12  2  0  0  0  0
 14 44  1  0  0  0  0
 15 14  1  0  0  0  0
 16 15  1  0  0  0  0
 16 26  1  0  0  0  0
 17 16  1  0  0  0  0
 18 17  1  0  0  0  0
 19 18  2  0  0  0  0
 20 19  1  0  0  0  0
 20 21  2  0  0  0  0
 21 22  1  0  0  0  0
 22 17  2  0  0  0  0
 22 23  1  0  0  0  0
 23 15  2  0  0  0  0
 24 21  1  0  0  0  0
 25 47  1  0  0  0  0
 25 19  1  0  0  0  0
 26 48  1  6  0  0  0
 26 30  1  0  0  0  0
 27 26  1  0  0  0  0
 27 28  1  0  0  0  0
 28 49  1  6  0  0  0
 28 33  1  0  0  0  0
 28 29  1  0  0  0  0
 29 32  1  0  0  0  0
 29 50  1  1  0  0  0
 30 29  1  0  0  0  0
 30 51  1  1  0  0  0
 30 31  1  0  0  0  0
 31 52  1  0  0  0  0
 32 53  1  0  0  0  0
 33 54  1  0  0  0  0
 34 33  1  0  0  0  0
 36  7  1  0  0  0  0
 39  9  1  0  0  0  0
 40 11  1  0  0  0  0
 45 24  1  0  0  0  0
 46 25  1  0  0  0  0
 55 33  1  0  0  0  0
 56 34  1  0  0  0  0
M  END
>  <Pose>
1

>  <Score>
-7.66

$$$$
