
 OpenBabel03172210413D

 42 45  0  0  1  0  0  0  0  0999 V2000
   14.5110    1.0440    8.8560 Cl  0  0  0  0  0  0  0  0  0  0  0  0
   12.8840    0.4240    8.7050 C   0  0  0  0  0  0  0  0  0  0  0  0
   11.8920    1.0400    9.4370 C   0  0  0  0  0  0  0  0  0  0  0  0
   10.6240    0.5280    9.2960 C   0  0  0  0  0  0  0  0  0  0  0  0
   10.3390   -0.5390    8.4740 C   0  0  0  0  0  0  0  0  0  0  0  0
   11.3610   -1.1500    7.7380 C   0  0  0  0  0  0  0  0  0  0  0  0
   12.6350   -0.6560    7.8630 C   0  0  0  0  0  0  0  0  0  0  0  0
   12.1590    2.1720   10.3180 C   0  0  0  0  0  0  0  0  0  0  0  0
   12.5220    2.1350   11.6100 N   0  0  0  0  0  0  0  0  0  0  0  0
   12.6700    3.3640   12.0570 O   0  0  0  0  0  0  0  0  0  0  0  0
   12.4150    4.2200   11.1000 C   0  0  0  0  0  0  0  0  0  0  0  0
   12.0950    3.4800   10.0150 N   0  0  0  0  0  0  0  0  0  0  0  0
   12.4600    5.7250   11.1680 C   0  0  0  0  0  0  0  0  0  0  0  0
   11.1250    6.2590   11.3720 N   0  0  0  0  0  0  0  0  0  0  0  0
   10.5120    6.2330   12.6370 C   0  0  0  0  0  0  0  0  0  0  0  0
   10.9660    5.4780   13.5250 O   0  0  0  0  0  0  0  0  0  0  0  0
    9.3450    7.0830   12.9160 C   0  0  1  0  0  0  0  0  0  0  0  0
    8.7360    7.6520   11.6490 C   0  0  0  0  0  0  0  0  0  0  0  0
    7.4490    8.3530   11.9290 C   0  0  0  0  0  0  0  0  0  0  0  0
    6.2270    7.5010   11.8120 C   0  0  0  0  0  0  0  0  0  0  0  0
    6.5130    6.0350   12.1180 C   0  0  0  0  0  0  0  0  0  0  0  0
    7.1230    5.9790   13.4270 N   0  0  0  0  0  0  0  0  0  0  0  0
    6.5400    5.4630   14.4750 N   0  0  0  0  0  0  0  0  0  0  0  0
    7.3500    5.5670   15.5000 N   0  0  0  0  0  0  0  0  0  0  0  0
    8.4520    6.1560   15.0770 N   0  0  0  0  0  0  0  0  0  0  0  0
    8.3380    6.4300   13.7660 C   0  0  0  0  0  0  0  0  0  0  0  0
    9.8160    0.9740    9.8460 H   0  0  0  0  0  0  0  0  0  0  0  0
    9.3480   -0.9470    8.3560 H   0  0  0  0  0  0  0  0  0  0  0  0
   11.1610   -1.9910    7.0840 H   0  0  0  0  0  0  0  0  0  0  0  0
   13.4260   -1.1310    7.2920 H   0  0  0  0  0  0  0  0  0  0  0  0
   12.9030    6.1230   10.2420 H   0  0  0  0  0  0  0  0  0  0  0  0
   13.1340    5.9910   12.0070 H   0  0  0  0  0  0  0  0  0  0  0  0
   10.6100    6.6700   10.5680 H   0  0  0  0  0  0  0  0  0  0  0  0
    9.7030    7.9770   13.4900 H   0  0  0  0  0  0  0  0  0  0  0  0
    9.4630    8.4270   11.2600 H   0  0  0  0  0  0  0  0  0  0  0  0
    8.6940    6.8860   10.8660 H   0  0  0  0  0  0  0  0  0  0  0  0
    7.3750    9.2440   11.2440 H   0  0  0  0  0  0  0  0  0  0  0  0
    7.5050    8.7890   12.9520 H   0  0  0  0  0  0  0  0  0  0  0  0
    5.4640    7.9080   12.5070 H   0  0  0  0  0  0  0  0  0  0  0  0
    5.7930    7.5140   10.7850 H   0  0  0  0  0  0  0  0  0  0  0  0
    5.5410    5.5050   12.1410 H   0  0  0  0  0  0  0  0  0  0  0  0
    7.2020    5.6060   11.3920 H   0  0  0  0  0  0  0  0  0  0  0  0
  2  1  1  0  0  0  0
  2  3  1  0  0  0  0
  3  8  1  0  0  0  0
  4  3  2  0  0  0  0
  4 27  1  0  0  0  0
  5  4  1  0  0  0  0
  6  7  1  0  0  0  0
  6  5  2  0  0  0  0
  7  2  2  0  0  0  0
  8  9  2  0  0  0  0
  9 10  1  0  0  0  0
 11 13  1  0  0  0  0
 11 10  1  0  0  0  0
 12  8  1  0  0  0  0
 12 11  2  0  0  0  0
 13 14  1  0  0  0  0
 13 32  1  0  0  0  0
 14 15  1  0  0  0  0
 15 17  1  0  0  0  0
 15 16  2  0  0  0  0
 17 34  1  1  0  0  0
 17 26  1  0  0  0  0
 18 19  1  0  0  0  0
 18 17  1  0  0  0  0
 19 38  1  0  0  0  0
 20 19  1  0  0  0  0
 20 21  1  0  0  0  0
 20 39  1  0  0  0  0
 21 41  1  0  0  0  0
 21 22  1  0  0  0  0
 22 26  1  0  0  0  0
 22 23  1  0  0  0  0
 23 24  2  0  0  0  0
 25 24  1  0  0  0  0
 26 25  2  0  0  0  0
 28  5  1  0  0  0  0
 29  6  1  0  0  0  0
 30  7  1  0  0  0  0
 31 13  1  0  0  0  0
 33 14  1  0  0  0  0
 35 18  1  0  0  0  0
 36 18  1  0  0  0  0
 37 19  1  0  0  0  0
 40 20  1  0  0  0  0
 42 21  1  0  0  0  0
M  END
>  <Pose>
1

>  <Score>
-6.23

$$$$
