
 OpenBabel03172210413D

 33 36  0  0  1  0  0  0  0  0999 V2000
   10.7500    5.0340   10.1240 B   0  0  0  0  0  0  0  0  0  0  0  0
   11.5820    5.9290   11.5900 C   0  0  0  0  0  0  0  0  0  0  0  0
   10.9090    6.1840   12.7580 C   0  0  0  0  0  0  0  0  0  0  0  0
   11.5390    6.8370   13.7900 C   0  0  0  0  0  0  0  0  0  0  0  0
   12.8590    7.2530   13.6870 C   0  0  0  0  0  0  0  0  0  0  0  0
   13.5530    7.0090   12.5260 C   0  0  0  0  0  0  0  0  0  0  0  0
   12.9030    6.3430   11.4810 C   0  0  0  0  0  0  0  0  0  0  0  0
    9.4970    5.7690   12.9630 C   0  0  1  0  0  0  0  0  0  0  0  0
    8.6890    6.6150   13.7250 C   0  0  1  0  0  0  0  0  0  0  0  0
    8.0770    7.9650   13.5880 C   0  0  0  0  0  0  0  0  0  0  0  0
    6.7720    7.4490   13.1050 N   0  0  0  0  0  0  0  0  0  0  0  0
    7.0100    6.4650   12.2960 C   0  0  2  0  0  0  0  0  0  0  0  0
    8.4290    6.3150   12.2160 C   0  0  2  0  0  0  0  0  0  0  0  0
    8.9300    7.3130   11.2240 C   0  0  0  0  0  0  0  0  0  0  0  0
    9.3310    8.1200   10.4580 N   0  0  0  0  0  0  0  0  0  0  0  0
    6.0120    5.6760   11.6100 N   0  0  0  0  0  0  0  0  0  0  0  0
    7.9100    8.4990   14.8700 O   0  0  0  0  0  0  0  0  0  0  0  0
    8.4520    9.7690   14.8540 C   0  0  0  0  0  0  0  0  0  0  0  0
    8.3550   10.1430   13.3850 C   0  0  0  0  0  0  0  0  0  0  0  0
    8.6590    8.8840   12.8110 O   0  0  0  0  0  0  0  0  0  0  0  0
    7.8070    5.8560   14.6810 C   0  0  0  0  0  0  0  0  0  0  0  0
    7.1050    5.2500   15.4130 N   0  0  0  0  0  0  0  0  0  0  0  0
   11.0480    7.0670   14.7490 H   0  0  0  0  0  0  0  0  0  0  0  0
   13.3670    7.7640   14.4840 H   0  0  0  0  0  0  0  0  0  0  0  0
   14.5630    7.3180   12.4310 H   0  0  0  0  0  0  0  0  0  0  0  0
   13.4120    6.1270   10.5450 H   0  0  0  0  0  0  0  0  0  0  0  0
    9.4690    4.6520   13.1060 H   0  0  0  0  0  0  0  0  0  0  0  0
    5.0020    5.7840   11.8250 H   0  0  0  0  0  0  0  0  0  0  0  0
    6.2870    4.9860   10.8870 H   0  0  0  0  0  0  0  0  0  0  0  0
    9.5220    9.7020   15.1460 H   0  0  0  0  0  0  0  0  0  0  0  0
    7.8940   10.4770   15.5040 H   0  0  0  0  0  0  0  0  0  0  0  0
    7.3130   10.4370   13.1340 H   0  0  0  0  0  0  0  0  0  0  0  0
    9.0800   10.9120   13.0860 H   0  0  0  0  0  0  0  0  0  0  0  0
  1  2  1  0  0  0  0
  2  3  1  0  0  0  0
  3  8  1  0  0  0  0
  3  4  2  0  0  0  0
  4 23  1  0  0  0  0
  5  4  1  0  0  0  0
  5 24  1  0  0  0  0
  6  5  2  0  0  0  0
  7  2  2  0  0  0  0
  7  6  1  0  0  0  0
  8 27  1  1  0  0  0
  8  9  1  0  0  0  0
  9 21  1  1  0  0  0
 10  9  1  0  0  0  0
 10 17  1  0  0  0  0
 11 10  1  0  0  0  0
 12 16  1  6  0  0  0
 12 11  1  0  0  0  0
 13 14  1  6  0  0  0
 13 12  1  0  0  0  0
 13  8  1  0  0  0  0
 13  9  1  0  0  0  0
 15 14  3  0  0  0  0
 16 28  1  0  0  0  0
 18 17  1  0  0  0  0
 18 30  1  0  0  0  0
 18 31  1  0  0  0  0
 19 18  1  0  0  0  0
 20 19  1  0  0  0  0
 20 10  1  0  0  0  0
 21 22  3  0  0  0  0
 25  6  1  0  0  0  0
 26  7  1  0  0  0  0
 29 16  1  0  0  0  0
 32 19  1  0  0  0  0
 33 19  1  0  0  0  0
M  END
>  <Pose>
1

>  <Score>
-5.47

$$$$
