
 OpenBabel03172210413D

 51 54  0  0  1  0  0  0  0  0999 V2000
    7.2170    5.7300   14.7770 B   0  0  0  0  0  0  0  0  0  0  0  0
    8.4650    6.2290   13.4220 C   0  0  0  0  0  0  0  0  0  0  0  0
    9.8270    6.1760   13.6480 C   0  0  0  0  0  0  0  0  0  0  0  0
   10.7670    6.5250   12.7020 C   0  0  0  0  0  0  0  0  0  0  0  0
   10.2620    6.9460   11.4680 C   0  0  0  0  0  0  0  0  0  0  0  0
    8.9080    6.9990   11.2440 C   0  0  0  0  0  0  0  0  0  0  0  0
    7.9790    6.6460   12.2010 C   0  0  0  0  0  0  0  0  0  0  0  0
    6.5210    6.7230   11.9030 C   0  0  0  0  0  0  0  0  0  0  0  0
   11.2370    7.2880   10.5420 O   0  0  0  0  0  0  0  0  0  0  0  0
   12.6120    7.4330   10.8440 C   0  0  0  0  0  0  0  0  0  0  0  0
   13.0910    6.2730   11.7790 C   0  0  2  0  0  0  0  0  0  0  0  0
   12.2020    6.4860   12.9470 C   0  0  0  0  0  0  0  0  0  0  0  0
   12.5440    6.6410   14.1330 O   0  0  0  0  0  0  0  0  0  0  0  0
   14.4310    6.2740   12.0100 N   0  0  0  0  0  0  0  0  0  0  0  0
   15.0960    5.3260   12.7960 C   0  0  0  0  0  0  0  0  0  0  0  0
   15.3880    5.9000   14.1660 C   0  0  0  0  0  0  0  0  0  0  0  0
   16.3240    6.9380   13.9490 O   0  0  0  0  0  0  0  0  0  0  0  0
   15.5690    7.9610   13.3490 C   0  0  0  0  0  0  0  0  0  0  0  0
   15.1400    7.4760   11.9630 C   0  0  0  0  0  0  0  0  0  0  0  0
   12.6680    5.0540   11.0400 C   0  0  0  0  0  0  0  0  0  0  0  0
   12.7460    3.7920   11.7060 N   0  0  0  0  0  0  0  0  0  0  0  0
   11.5440    3.1200   12.0250 C   0  0  0  0  0  0  0  0  0  0  0  0
   10.9380    2.4720   10.7710 C   0  0  0  0  0  0  0  0  0  0  0  0
   11.8410    1.4730   10.3940 O   0  0  0  0  0  0  0  0  0  0  0  0
   12.9850    2.1220    9.9150 C   0  0  0  0  0  0  0  0  0  0  0  0
   13.6740    2.9290   10.9720 C   0  0  0  0  0  0  0  0  0  0  0  0
   10.2240    5.8410   14.6220 H   0  0  0  0  0  0  0  0  0  0  0  0
    8.5530    7.3310   10.2770 H   0  0  0  0  0  0  0  0  0  0  0  0
    5.9320    6.9970   12.8000 H   0  0  0  0  0  0  0  0  0  0  0  0
    6.4060    7.4610   11.0760 H   0  0  0  0  0  0  0  0  0  0  0  0
    6.1670    5.7520   11.5010 H   0  0  0  0  0  0  0  0  0  0  0  0
   13.1540    7.4040    9.8860 H   0  0  0  0  0  0  0  0  0  0  0  0
   12.7990    8.4080   11.3490 H   0  0  0  0  0  0  0  0  0  0  0  0
   14.6500    4.3420   12.9060 H   0  0  0  0  0  0  0  0  0  0  0  0
   16.1080    5.1470   12.3360 H   0  0  0  0  0  0  0  0  0  0  0  0
   14.4920    6.2660   14.6610 H   0  0  0  0  0  0  0  0  0  0  0  0
   15.9360    5.1260   14.7400 H   0  0  0  0  0  0  0  0  0  0  0  0
   16.2410    8.8200   13.1790 H   0  0  0  0  0  0  0  0  0  0  0  0
   14.7400    8.1720   14.0190 H   0  0  0  0  0  0  0  0  0  0  0  0
   16.1440    7.2440   11.4640 H   0  0  0  0  0  0  0  0  0  0  0  0
   14.7630    8.3200   11.4000 H   0  0  0  0  0  0  0  0  0  0  0  0
   13.2320    4.9220   10.0710 H   0  0  0  0  0  0  0  0  0  0  0  0
   11.5900    5.1230   10.6940 H   0  0  0  0  0  0  0  0  0  0  0  0
   10.7710    3.7320   12.4490 H   0  0  0  0  0  0  0  0  0  0  0  0
   11.7960    2.2500   12.6830 H   0  0  0  0  0  0  0  0  0  0  0  0
    9.9700    2.0240   11.1170 H   0  0  0  0  0  0  0  0  0  0  0  0
   10.7550    3.2040    9.9710 H   0  0  0  0  0  0  0  0  0  0  0  0
   13.6870    1.2920    9.6220 H   0  0  0  0  0  0  0  0  0  0  0  0
   12.7730    2.6950    8.9930 H   0  0  0  0  0  0  0  0  0  0  0  0
   14.2460    2.2830   11.6530 H   0  0  0  0  0  0  0  0  0  0  0  0
   14.4000    3.6070   10.4800 H   0  0  0  0  0  0  0  0  0  0  0  0
  2  3  1  0  0  0  0
  2  1  1  0  0  0  0
  3 27  1  0  0  0  0
  4 12  1  0  0  0  0
  4  3  2  0  0  0  0
  5  4  1  0  0  0  0
  6  5  2  0  0  0  0
  6  7  1  0  0  0  0
  7  2  2  0  0  0  0
  8  7  1  0  0  0  0
  8 29  1  0  0  0  0
  9 10  1  0  0  0  0
  9  5  1  0  0  0  0
 10 33  1  0  0  0  0
 10 11  1  0  0  0  0
 11 20  1  6  0  0  0
 11 14  1  0  0  0  0
 11 12  1  0  0  0  0
 12 13  2  0  0  0  0
 14 15  1  0  0  0  0
 15 34  1  0  0  0  0
 15 16  1  0  0  0  0
 16 36  1  0  0  0  0
 16 37  1  0  0  0  0
 17 16  1  0  0  0  0
 18 17  1  0  0  0  0
 18 39  1  0  0  0  0
 19 14  1  0  0  0  0
 19 18  1  0  0  0  0
 20 21  1  0  0  0  0
 21 22  1  0  0  0  0
 22 44  1  0  0  0  0
 22 45  1  0  0  0  0
 23 46  1  0  0  0  0
 23 22  1  0  0  0  0
 24 23  1  0  0  0  0
 25 24  1  0  0  0  0
 25 26  1  0  0  0  0
 26 50  1  0  0  0  0
 26 21  1  0  0  0  0
 28  6  1  0  0  0  0
 30  8  1  0  0  0  0
 31  8  1  0  0  0  0
 32 10  1  0  0  0  0
 35 15  1  0  0  0  0
 38 18  1  0  0  0  0
 40 19  1  0  0  0  0
 41 19  1  0  0  0  0
 42 20  1  0  0  0  0
 43 20  1  0  0  0  0
 47 23  1  0  0  0  0
 48 25  1  0  0  0  0
 49 25  1  0  0  0  0
 51 26  1  0  0  0  0
M  END
>  <Pose>
1

>  <Score>
-4.11

$$$$
