
 OpenBabel03172210413D

 36 39  0  0  1  0  0  0  0  0999 V2000
   11.2860    2.3150   10.8150 B   0  0  0  0  0  0  0  0  0  0  0  0
   10.7730    4.1700   10.9170 C   0  0  0  0  0  0  0  0  0  0  0  0
   10.1070    4.6600   12.0090 C   0  0  0  0  0  0  0  0  0  0  0  0
    9.7510    5.9920   12.0600 C   0  0  0  0  0  0  0  0  0  0  0  0
   10.0850    6.7800   10.9920 C   0  0  0  0  0  0  0  0  0  0  0  0
   10.7700    6.2740    9.8690 C   0  0  0  0  0  0  0  0  0  0  0  0
   11.1170    4.9500    9.8360 C   0  0  0  0  0  0  0  0  0  0  0  0
    9.6520    8.1230   11.1910 N   0  0  0  0  0  0  0  0  0  0  0  0
    9.0160    8.1900   12.4370 C   0  0  0  0  0  0  0  0  0  0  0  0
    8.5040    9.2360   12.9410 O   0  0  0  0  0  0  0  0  0  0  0  0
    9.0440    6.8220   13.0650 C   0  0  2  0  0  0  0  0  0  0  0  0
    9.7880    6.9700   14.3110 C   0  0  0  0  0  0  0  0  0  0  0  0
    9.1970    6.7500   15.5160 C   0  0  0  0  0  0  0  0  0  0  0  0
   10.1540    6.9710   16.4650 N   0  0  0  0  0  0  0  0  0  0  0  0
   11.2900    7.3130   15.8950 N   0  0  0  0  0  0  0  0  0  0  0  0
   11.1130    7.3260   14.5760 C   0  0  0  0  0  0  0  0  0  0  0  0
   12.0940    7.6490   13.4930 C   0  0  0  0  0  0  0  0  0  0  0  0
    7.8560    6.3710   15.6450 O   0  0  0  0  0  0  0  0  0  0  0  0
    7.1500    6.2320   14.4550 C   0  0  0  0  0  0  0  0  0  0  0  0
    7.6620    6.4290   13.2680 C   0  0  0  0  0  0  0  0  0  0  0  0
    6.7650    6.2340   12.1160 C   0  0  0  0  0  0  0  0  0  0  0  0
    6.0660    6.0940   11.1900 N   0  0  0  0  0  0  0  0  0  0  0  0
    5.7500    5.8390   14.5260 N   0  0  0  0  0  0  0  0  0  0  0  0
    9.8340    9.2480   10.2620 C   0  0  0  0  0  0  0  0  0  0  0  0
    9.8520    4.0250   12.8420 H   0  0  0  0  0  0  0  0  0  0  0  0
   11.0330    6.9010    9.0270 H   0  0  0  0  0  0  0  0  0  0  0  0
   11.6520    4.5280    8.9710 H   0  0  0  0  0  0  0  0  0  0  0  0
   12.2090    7.5470   16.3530 H   0  0  0  0  0  0  0  0  0  0  0  0
   13.0570    7.8920   14.0110 H   0  0  0  0  0  0  0  0  0  0  0  0
   12.3240    6.7510   12.8690 H   0  0  0  0  0  0  0  0  0  0  0  0
   11.8190    8.5320   12.9170 H   0  0  0  0  0  0  0  0  0  0  0  0
    5.4680    5.3990   15.4240 H   0  0  0  0  0  0  0  0  0  0  0  0
    5.0890    5.9770   13.7640 H   0  0  0  0  0  0  0  0  0  0  0  0
    8.8250    9.6170    9.9910 H   0  0  0  0  0  0  0  0  0  0  0  0
   10.3150   10.0470   10.8730 H   0  0  0  0  0  0  0  0  0  0  0  0
   10.4530    8.9700    9.4090 H   0  0  0  0  0  0  0  0  0  0  0  0
  1  2  1  0  0  0  0
  2  3  1  0  0  0  0
  3  4  2  0  0  0  0
  3 25  1  0  0  0  0
  5  8  1  0  0  0  0
  5  4  1  0  0  0  0
  6  5  2  0  0  0  0
  7  6  1  0  0  0  0
  7  2  2  0  0  0  0
  8  9  1  0  0  0  0
  9 10  2  0  0  0  0
  9 11  1  0  0  0  0
 11  4  1  6  0  0  0
 11 20  1  0  0  0  0
 11 12  1  0  0  0  0
 12 16  2  0  0  0  0
 12 13  1  0  0  0  0
 13 18  1  0  0  0  0
 13 14  2  0  0  0  0
 15 28  1  0  0  0  0
 15 14  1  0  0  0  0
 16 15  1  0  0  0  0
 17 29  1  0  0  0  0
 17 16  1  0  0  0  0
 19 23  1  0  0  0  0
 19 18  1  0  0  0  0
 20 19  2  0  0  0  0
 21 20  1  0  0  0  0
 22 21  3  0  0  0  0
 23 32  1  0  0  0  0
 24 35  1  0  0  0  0
 24  8  1  0  0  0  0
 26  6  1  0  0  0  0
 27  7  1  0  0  0  0
 30 17  1  0  0  0  0
 31 17  1  0  0  0  0
 33 23  1  0  0  0  0
 34 24  1  0  0  0  0
 36 24  1  0  0  0  0
M  END
>  <Pose>
1

>  <Score>
-5.19

$$$$
