
 OpenBabel03172210413D

 38 41  0  0  0  0  0  0  0  0999 V2000
    8.1590    6.5640   15.5540 B   0  0  0  0  0  0  0  0  0  0  0  0
    8.5600    6.0980   13.7630 C   0  0  0  0  0  0  0  0  0  0  0  0
    7.5810    6.1800   12.8320 C   0  0  0  0  0  0  0  0  0  0  0  0
    6.2890    6.5510   12.9220 N   0  0  0  0  0  0  0  0  0  0  0  0
    5.8210    6.4310   11.6830 N   0  0  0  0  0  0  0  0  0  0  0  0
    6.7320    6.0170   10.8480 N   0  0  0  0  0  0  0  0  0  0  0  0
    7.8910    5.8380   11.5340 C   0  0  0  0  0  0  0  0  0  0  0  0
    9.1720    5.4200   11.1900 C   0  0  0  0  0  0  0  0  0  0  0  0
   10.1470    5.3360   12.1110 N   0  0  0  0  0  0  0  0  0  0  0  0
    9.8320    5.6740   13.3800 C   0  0  0  0  0  0  0  0  0  0  0  0
   11.5000    4.9060   11.7980 C   0  0  0  0  0  0  0  0  0  0  0  0
   11.7220    3.4700   11.9420 C   0  0  0  0  0  0  0  0  0  0  0  0
   11.4220    2.9650   13.0670 O   0  0  0  0  0  0  0  0  0  0  0  0
   12.2510    2.5690   10.9230 C   0  0  0  0  0  0  0  0  0  0  0  0
   11.4090    1.6700   10.3320 C   0  0  0  0  0  0  0  0  0  0  0  0
   11.8800    0.8070    9.3770 C   0  0  0  0  0  0  0  0  0  0  0  0
   13.2030    0.8090    8.9760 C   0  0  0  0  0  0  0  0  0  0  0  0
   14.0350    1.7360    9.5980 C   0  0  0  0  0  0  0  0  0  0  0  0
   13.5690    2.5990   10.5520 C   0  0  0  0  0  0  0  0  0  0  0  0
   13.7000   -0.0490    8.0160 C   0  0  0  0  0  0  0  0  0  0  0  0
   12.8200   -0.9420    7.4420 C   0  0  0  0  0  0  0  0  0  0  0  0
   11.4980   -0.9520    7.8340 C   0  0  0  0  0  0  0  0  0  0  0  0
   11.0080   -0.0940    8.7910 C   0  0  0  0  0  0  0  0  0  0  0  0
    5.5100    6.9820   14.0200 C   0  0  0  0  0  0  0  0  0  0  0  0
    9.3590    5.1670   10.1740 H   0  0  0  0  0  0  0  0  0  0  0  0
   10.6000    5.6150   14.1350 H   0  0  0  0  0  0  0  0  0  0  0  0
   11.7720    5.1980   10.7490 H   0  0  0  0  0  0  0  0  0  0  0  0
   12.1990    5.4470   12.4630 H   0  0  0  0  0  0  0  0  0  0  0  0
   10.3450    1.6020   10.5910 H   0  0  0  0  0  0  0  0  0  0  0  0
   15.0870    1.7330    9.2760 H   0  0  0  0  0  0  0  0  0  0  0  0
   14.2530    3.3140   11.0220 H   0  0  0  0  0  0  0  0  0  0  0  0
   14.7460    0.0010    7.7460 H   0  0  0  0  0  0  0  0  0  0  0  0
   13.1930   -1.6300    6.6790 H   0  0  0  0  0  0  0  0  0  0  0  0
   10.8200   -1.6610    7.3720 H   0  0  0  0  0  0  0  0  0  0  0  0
    9.9570   -0.1100    9.0950 H   0  0  0  0  0  0  0  0  0  0  0  0
    4.4360    6.9440   13.7440 H   0  0  0  0  0  0  0  0  0  0  0  0
    5.7090    8.0760   14.2320 H   0  0  0  0  0  0  0  0  0  0  0  0
    5.6040    6.4660   14.9620 H   0  0  0  0  0  0  0  0  0  0  0  0
  2  1  1  0  0  0  0
  3  4  1  0  0  0  0
  3  2  1  0  0  0  0
  4 24  1  0  0  0  0
  5  4  1  0  0  0  0
  6  7  1  0  0  0  0
  6  5  2  0  0  0  0
  7  3  2  0  0  0  0
  8  7  1  0  0  0  0
  8  9  1  0  0  0  0
  9 10  1  0  0  0  0
 10  2  2  0  0  0  0
 10 26  1  0  0  0  0
 11 12  1  0  0  0  0
 11  9  1  0  0  0  0
 11 28  1  0  0  0  0
 12 13  2  0  0  0  0
 14 12  1  0  0  0  0
 15 29  1  0  0  0  0
 15 14  2  0  0  0  0
 16 15  1  0  0  0  0
 17 16  1  0  0  0  0
 17 18  1  0  0  0  0
 18 19  2  0  0  0  0
 19 14  1  0  0  0  0
 19 31  1  0  0  0  0
 20 17  2  0  0  0  0
 21 22  2  0  0  0  0
 21 20  1  0  0  0  0
 22 23  1  0  0  0  0
 23 35  1  0  0  0  0
 23 16  2  0  0  0  0
 24 37  1  0  0  0  0
 24 38  1  0  0  0  0
 25  8  1  0  0  0  0
 27 11  1  0  0  0  0
 30 18  1  0  0  0  0
 32 20  1  0  0  0  0
 33 21  1  0  0  0  0
 34 22  1  0  0  0  0
 36 24  1  0  0  0  0
M  END
>  <Pose>
1

>  <Score>
-5.85

$$$$
