
 OpenBabel03172210413D

 66 69  0  0  1  0  0  0  0  0999 V2000
   17.8980    5.8680   15.3720 B   0  0  0  0  0  0  0  0  0  0  0  0
   17.2140    6.9930   13.9800 C   0  0  0  0  0  0  0  0  0  0  0  0
   15.8860    6.9200   13.6330 C   0  0  0  0  0  0  0  0  0  0  0  0
   15.3440    7.7270   12.6180 C   0  0  0  0  0  0  0  0  0  0  0  0
   16.2140    8.5930   11.9920 C   0  0  0  0  0  0  0  0  0  0  0  0
   17.5490    8.6850   12.3200 C   0  0  0  0  0  0  0  0  0  0  0  0
   18.0570    7.8840   13.3180 C   0  0  0  0  0  0  0  0  0  0  0  0
   19.4800    7.9100   13.7440 C   0  0  0  0  0  0  0  0  0  0  0  0
   18.7300    9.8940   11.4350 B   0  0  0  0  0  0  0  0  0  0  0  0
   13.9400    7.6160   12.2830 C   0  0  0  0  0  0  0  0  0  0  0  0
   13.4320    8.3910   11.4660 O   0  0  0  0  0  0  0  0  0  0  0  0
   13.1220    6.5700   12.9230 C   0  0  1  0  0  0  0  0  0  0  0  0
   13.6640    6.3730   14.3220 C   0  0  0  0  0  0  0  0  0  0  0  0
   15.0380    6.0330   14.2900 O   0  0  0  0  0  0  0  0  0  0  0  0
   11.6550    6.8760   12.9380 C   0  0  0  0  0  0  0  0  0  0  0  0
   10.9510    6.4870   14.0980 N   0  0  0  0  0  4  0  0  0  0  0  0
   10.7030    7.6300   14.9270 C   0  0  0  0  0  0  0  0  0  0  0  0
    9.6940    8.5870   14.4010 C   0  0  2  0  0  0  0  0  0  0  0  0
    8.9180    8.1550   13.2180 C   0  0  0  0  0  0  0  0  0  0  0  0
    8.8190    6.6980   12.9830 C   0  0  0  0  0  0  0  0  0  0  0  0
    9.6810    5.8540   13.8750 C   0  0  0  0  0  0  0  0  0  0  0  0
   10.4320    9.8780   14.0250 C   0  0  0  0  0  0  0  0  0  0  0  0
   13.3790    5.3010   12.1380 C   0  0  0  0  0  0  0  0  0  0  0  0
   12.6940    4.1450   12.6070 N   0  0  0  0  0  4  0  0  0  0  0  0
   13.4210    2.9360   12.2260 C   0  0  0  0  0  0  0  0  0  0  0  0
   12.8210    2.2550   11.0300 C   0  0  1  0  0  0  0  0  0  0  0  0
   12.4220    3.2920   10.0050 C   0  0  0  0  0  0  0  0  0  0  0  0
   11.2950    4.0930   10.5800 C   0  0  0  0  0  0  0  0  0  0  0  0
   11.3530    3.9960   12.0840 C   0  0  0  0  0  0  0  0  0  0  0  0
   13.9350    1.4190   10.3860 C   0  0  0  0  0  0  0  0  0  0  0  0
   15.8480    9.2410   11.2000 H   0  0  0  0  0  0  0  0  0  0  0  0
   19.5100    8.2420   14.8060 H   0  0  0  0  0  0  0  0  0  0  0  0
   20.1160    8.4990   13.0820 H   0  0  0  0  0  0  0  0  0  0  0  0
   19.8100    6.8320   13.7700 H   0  0  0  0  0  0  0  0  0  0  0  0
   13.5780    7.2930   14.9180 H   0  0  0  0  0  0  0  0  0  0  0  0
   13.0710    5.5970   14.8810 H   0  0  0  0  0  0  0  0  0  0  0  0
   11.5680    7.9790   12.8340 H   0  0  0  0  0  0  0  0  0  0  0  0
   11.2110    6.4550   12.0130 H   0  0  0  0  0  0  0  0  0  0  0  0
   11.5310    5.8160   14.6620 H   0  0  0  0  0  0  0  0  0  0  0  0
   10.3840    7.2260   15.9330 H   0  0  0  0  0  0  0  0  0  0  0  0
   11.6770    8.1230   15.1250 H   0  0  0  0  0  0  0  0  0  0  0  0
    9.0200    8.8790   15.2390 H   0  0  0  0  0  0  0  0  0  0  0  0
    7.8710    8.5630   13.3260 H   0  0  0  0  0  0  0  0  0  0  0  0
    9.2890    8.6530   12.2730 H   0  0  0  0  0  0  0  0  0  0  0  0
    9.0330    6.4350   11.9060 H   0  0  0  0  0  0  0  0  0  0  0  0
    7.7620    6.3220   13.1290 H   0  0  0  0  0  0  0  0  0  0  0  0
    9.7030    4.8270   13.5310 H   0  0  0  0  0  0  0  0  0  0  0  0
    9.1630    5.8350   14.8810 H   0  0  0  0  0  0  0  0  0  0  0  0
    9.7790   10.7680   14.1970 H   0  0  0  0  0  0  0  0  0  0  0  0
   11.3860    9.9290   14.5670 H   0  0  0  0  0  0  0  0  0  0  0  0
   10.6610    9.8240   12.9440 H   0  0  0  0  0  0  0  0  0  0  0  0
   14.4900    5.1220   12.2100 H   0  0  0  0  0  0  0  0  0  0  0  0
   13.2140    5.5020   11.0410 H   0  0  0  0  0  0  0  0  0  0  0  0
   12.6460    4.1430   13.6300 H   0  0  0  0  0  0  0  0  0  0  0  0
   13.4720    2.2100   13.0550 H   0  0  0  0  0  0  0  0  0  0  0  0
   14.4800    3.1840   11.9520 H   0  0  0  0  0  0  0  0  0  0  0  0
   12.0150    1.5500   11.2720 H   0  0  0  0  0  0  0  0  0  0  0  0
   12.1090    2.7440    9.0930 H   0  0  0  0  0  0  0  0  0  0  0  0
   13.3080    3.8850    9.7590 H   0  0  0  0  0  0  0  0  0  0  0  0
   11.2340    5.1240   10.2400 H   0  0  0  0  0  0  0  0  0  0  0  0
   10.3280    3.6000   10.2760 H   0  0  0  0  0  0  0  0  0  0  0  0
   11.0160    2.9660   12.4030 H   0  0  0  0  0  0  0  0  0  0  0  0
   10.6140    4.6880   12.4910 H   0  0  0  0  0  0  0  0  0  0  0  0
   14.6600    1.0900   11.1660 H   0  0  0  0  0  0  0  0  0  0  0  0
   14.4340    1.9790    9.5670 H   0  0  0  0  0  0  0  0  0  0  0  0
   13.5200    0.5000    9.9220 H   0  0  0  0  0  0  0  0  0  0  0  0
  2  1  1  0  0  0  0
  3  2  1  0  0  0  0
  3 14  1  0  0  0  0
  4  3  2  0  0  0  0
  5  6  2  0  0  0  0
  5  4  1  0  0  0  0
  6  7  1  0  0  0  0
  7  8  1  0  0  0  0
  7  2  2  0  0  0  0
  8 34  1  0  0  0  0
  8 32  1  0  0  0  0
  9  6  1  0  0  0  0
 10  4  1  0  0  0  0
 10 12  1  0  0  0  0
 11 10  2  0  0  0  0
 12 23  1  6  0  0  0
 12 15  1  0  0  0  0
 12 13  1  0  0  0  0
 13 36  1  0  0  0  0
 13 35  1  0  0  0  0
 14 13  1  0  0  0  0
 15 16  1  0  0  0  0
 16 39  1  0  0  0  0
 16 17  1  0  0  0  0
 17 41  1  0  0  0  0
 17 40  1  0  0  0  0
 18 17  1  0  0  0  0
 18 42  1  1  0  0  0
 19 43  1  0  0  0  0
 19 18  1  0  0  0  0
 20 46  1  0  0  0  0
 20 19  1  0  0  0  0
 20 21  1  0  0  0  0
 21 16  1  0  0  0  0
 21 48  1  0  0  0  0
 22 49  1  0  0  0  0
 22 18  1  0  0  0  0
 22 50  1  0  0  0  0
 23 52  1  0  0  0  0
 23 24  1  0  0  0  0
 24 54  1  0  0  0  0
 25 24  1  0  0  0  0
 25 55  1  0  0  0  0
 26 57  1  1  0  0  0
 26 25  1  0  0  0  0
 27 28  1  0  0  0  0
 27 26  1  0  0  0  0
 28 29  1  0  0  0  0
 29 62  1  0  0  0  0
 29 63  1  0  0  0  0
 29 24  1  0  0  0  0
 30 26  1  0  0  0  0
 30 64  1  0  0  0  0
 31  5  1  0  0  0  0
 33  8  1  0  0  0  0
 37 15  1  0  0  0  0
 38 15  1  0  0  0  0
 44 19  1  0  0  0  0
 45 20  1  0  0  0  0
 47 21  1  0  0  0  0
 51 22  1  0  0  0  0
 53 23  1  0  0  0  0
 56 25  1  0  0  0  0
 58 27  1  0  0  0  0
 59 27  1  0  0  0  0
 60 28  1  0  0  0  0
 61 28  1  0  0  0  0
 65 30  1  0  0  0  0
 66 30  1  0  0  0  0
M  END
>  <Pose>
1

>  <Score>
-4.52

$$$$
