
 OpenBabel03172210413D

 55 58  0  0  1  0  0  0  0  0999 V2000
    8.2190    6.0350   19.2620 Cl  0  0  0  0  0  0  0  0  0  0  0  0
    8.2990    7.3990   18.1520 C   0  0  0  0  0  0  0  0  0  0  0  0
    7.7550    7.3470   16.8960 C   0  0  0  0  0  0  0  0  0  0  0  0
    7.8460    8.4420   16.0680 C   0  0  0  0  0  0  0  0  0  0  0  0
    8.4860    9.5590   16.5360 C   0  0  0  0  0  0  0  0  0  0  0  0
    9.0400    9.6090   17.8190 C   0  0  0  0  0  0  0  0  0  0  0  0
    8.9440    8.5180   18.6310 C   0  0  0  0  0  0  0  0  0  0  0  0
    8.4950   10.6170   15.5850 N   0  0  0  0  0  0  0  0  0  0  0  0
    7.8200   10.1320   14.4570 C   0  0  0  0  0  0  0  0  0  0  0  0
    7.6410   10.8510   13.4190 O   0  0  0  0  0  0  0  0  0  0  0  0
    7.3950    8.7440   14.6880 C   0  0  2  0  0  0  0  0  0  0  0  0
    5.9660    8.6950   14.5600 N   0  0  0  0  0  0  0  0  0  0  0  0
    5.6300    7.9470   13.3880 C   0  0  2  0  0  0  0  0  0  0  0  0
    6.8840    7.7810   12.5910 C   0  0  0  0  0  0  0  0  0  0  0  0
    7.9480    7.8680   13.6500 C   0  0  2  0  0  0  0  0  0  0  0  0
    8.4260    6.5340   14.0960 C   0  0  0  0  0  0  0  0  0  0  0  0
    8.0630    6.1760   15.2430 O   0  0  0  0  0  0  0  0  0  0  0  0
    9.2350    5.6970   13.3190 N   0  0  0  0  0  0  0  0  0  0  0  0
   10.5870    5.8320   13.0000 C   0  0  0  0  0  0  0  0  0  0  0  0
   11.2190    4.8260   12.2850 C   0  0  0  0  0  0  0  0  0  0  0  0
   12.5520    4.8940   11.9340 C   0  0  0  0  0  0  0  0  0  0  0  0
   13.3230    5.9750   12.2820 C   0  0  0  0  0  0  0  0  0  0  0  0
   12.7290    6.9810   12.9870 C   0  0  0  0  0  0  0  0  0  0  0  0
   11.3820    6.9000   13.3340 C   0  0  0  0  0  0  0  0  0  0  0  0
   13.4710    8.0880   13.3570 O   0  0  0  0  0  0  0  0  0  0  0  0
   12.8820    9.2620   13.8870 C   0  0  0  0  0  0  0  0  0  0  0  0
   10.5080    3.7040   11.8970 O   0  0  0  0  0  0  0  0  0  0  0  0
   10.9830    2.7460   11.0020 C   0  0  0  0  0  0  0  0  0  0  0  0
    4.5280    8.6200   12.5860 C   0  0  0  0  0  0  0  0  0  0  0  0
    4.4760    8.1280   11.2020 C   0  0  0  0  0  0  0  0  0  0  0  0
    5.3980    8.3810   10.4110 O   0  0  0  0  0  0  0  0  0  0  0  0
    3.3740    7.3660   10.7730 N   0  0  0  0  0  0  0  0  0  0  0  0
    7.2670    6.4630   16.5700 H   0  0  0  0  0  0  0  0  0  0  0  0
    9.5480   10.5110   18.1760 H   0  0  0  0  0  0  0  0  0  0  0  0
    9.3780    8.5620   19.6300 H   0  0  0  0  0  0  0  0  0  0  0  0
    8.9210   11.5750   15.6990 H   0  0  0  0  0  0  0  0  0  0  0  0
    5.5200    8.3410   15.4330 H   0  0  0  0  0  0  0  0  0  0  0  0
    5.2530    6.9280   13.6510 H   0  0  0  0  0  0  0  0  0  0  0  0
    7.0520    8.6340   11.8840 H   0  0  0  0  0  0  0  0  0  0  0  0
    6.9260    6.8140   12.0420 H   0  0  0  0  0  0  0  0  0  0  0  0
    8.8490    8.4020   13.2050 H   0  0  0  0  0  0  0  0  0  0  0  0
    8.7330    4.8390   12.9330 H   0  0  0  0  0  0  0  0  0  0  0  0
   13.0260    4.0850   11.3690 H   0  0  0  0  0  0  0  0  0  0  0  0
   14.3630    6.0290   12.0090 H   0  0  0  0  0  0  0  0  0  0  0  0
   11.0010    7.7220   13.8800 H   0  0  0  0  0  0  0  0  0  0  0  0
   12.1800    9.0390   14.7130 H   0  0  0  0  0  0  0  0  0  0  0  0
   12.3590    9.7600   13.0460 H   0  0  0  0  0  0  0  0  0  0  0  0
   13.6400    9.9650   14.2690 H   0  0  0  0  0  0  0  0  0  0  0  0
   11.8050    2.1880   11.5290 H   0  0  0  0  0  0  0  0  0  0  0  0
   10.1700    2.0250   10.7820 H   0  0  0  0  0  0  0  0  0  0  0  0
   11.4340    3.1610   10.0880 H   0  0  0  0  0  0  0  0  0  0  0  0
    4.6470    9.7240   12.6310 H   0  0  0  0  0  0  0  0  0  0  0  0
    3.5430    8.4040   13.0490 H   0  0  0  0  0  0  0  0  0  0  0  0
    3.1750    6.4680   11.2630 H   0  0  0  0  0  0  0  0  0  0  0  0
    2.7330    7.6390    9.9880 H   0  0  0  0  0  0  0  0  0  0  0  0
  2  7  1  0  0  0  0
  2  1  1  0  0  0  0
  3  2  2  0  0  0  0
  4  5  2  0  0  0  0
  4  3  1  0  0  0  0
  5  6  1  0  0  0  0
  6 34  1  0  0  0  0
  6  7  2  0  0  0  0
  7 35  1  0  0  0  0
  8 36  1  0  0  0  0
  8  5  1  0  0  0  0
  9  8  1  0  0  0  0
 10  9  2  0  0  0  0
 11  9  1  6  0  0  0
 11  4  1  0  0  0  0
 12 11  1  0  0  0  0
 12 37  1  0  0  0  0
 13 38  1  1  0  0  0
 13 12  1  0  0  0  0
 14 13  1  0  0  0  0
 14 15  1  0  0  0  0
 15 41  1  6  0  0  0
 15 16  1  0  0  0  0
 15 11  1  0  0  0  0
 16 17  2  0  0  0  0
 18 16  1  0  0  0  0
 19 18  1  0  0  0  0
 19 24  1  0  0  0  0
 20 19  2  0  0  0  0
 21 22  2  0  0  0  0
 21 20  1  0  0  0  0
 22 23  1  0  0  0  0
 23 24  2  0  0  0  0
 23 25  1  0  0  0  0
 24 45  1  0  0  0  0
 25 26  1  0  0  0  0
 26 48  1  0  0  0  0
 26 46  1  0  0  0  0
 27 20  1  0  0  0  0
 28 49  1  0  0  0  0
 28 27  1  0  0  0  0
 29 52  1  0  0  0  0
 29 53  1  0  0  0  0
 29 13  1  0  0  0  0
 30 29  1  0  0  0  0
 31 30  2  0  0  0  0
 32 30  1  0  0  0  0
 32 54  1  0  0  0  0
 33  3  1  0  0  0  0
 39 14  1  0  0  0  0
 40 14  1  0  0  0  0
 42 18  1  0  0  0  0
 43 21  1  0  0  0  0
 44 22  1  0  0  0  0
 47 26  1  0  0  0  0
 50 28  1  0  0  0  0
 51 28  1  0  0  0  0
 55 32  1  0  0  0  0
M  END
>  <Pose>
1

>  <Score>
-5.69

$$$$
