
 OpenBabel03172210413D

 32 35  0  0  0  0  0  0  0  0999 V2000
   10.3690   -0.4490    8.5300 B   0  0  0  0  0  0  0  0  0  0  0  0
   11.6530    0.7210    9.3130 C   0  0  0  0  0  0  0  0  0  0  0  0
   11.4640    1.6380   10.3440 C   0  0  0  0  0  0  0  0  0  0  0  0
   12.6390    2.2550   10.5830 N   0  0  0  0  0  0  0  0  0  0  0  0
   13.5440    1.7570    9.7410 N   0  0  0  0  0  0  0  0  0  0  0  0
   12.9800    0.8210    8.9530 C   0  0  0  0  0  0  0  0  0  0  0  0
   13.6030    0.0100    7.8800 C   0  0  0  0  0  0  0  0  0  0  0  0
   12.8950    3.2840   11.5780 C   0  0  0  0  0  0  0  0  0  0  0  0
   11.8710    4.3640   11.5290 C   0  0  0  0  0  0  0  0  0  0  0  0
   11.8080    5.4230   10.7050 N   0  0  0  0  0  0  0  0  0  0  0  0
   10.7260    6.1710   10.9790 N   0  0  0  0  0  0  0  0  0  0  0  0
   10.0850    5.5760   12.0020 C   0  0  0  0  0  0  0  0  0  0  0  0
   10.7900    4.4770   12.3300 N   0  0  0  0  0  0  0  0  0  0  0  0
    8.9280    6.1690   12.4670 C   0  0  0  0  0  0  0  0  0  0  0  0
    8.4250    7.3330   11.9180 C   0  0  0  0  0  0  0  0  0  0  0  0
    7.2900    7.6970   12.5530 N   0  0  0  0  0  0  0  0  0  0  0  0
    7.0850    6.7820   13.4810 N   0  0  0  0  0  0  0  0  0  0  0  0
    8.0450    5.8390   13.4690 C   0  0  0  0  0  0  0  0  0  0  0  0
    6.4770    8.8740   12.2500 C   0  0  0  0  0  0  0  0  0  0  0  0
    9.1170    7.8730   10.9000 N   0  0  0  0  0  0  0  0  0  0  0  0
   10.2430    7.3060   10.4390 C   0  0  0  0  0  0  0  0  0  0  0  0
   10.5120    1.7910   10.8400 H   0  0  0  0  0  0  0  0  0  0  0  0
   13.5950    0.5180    6.8930 H   0  0  0  0  0  0  0  0  0  0  0  0
   13.1150   -0.9710    7.7560 H   0  0  0  0  0  0  0  0  0  0  0  0
   14.6810   -0.1150    8.1740 H   0  0  0  0  0  0  0  0  0  0  0  0
   13.9300    3.7080   11.4620 H   0  0  0  0  0  0  0  0  0  0  0  0
   12.9170    2.7970   12.5960 H   0  0  0  0  0  0  0  0  0  0  0  0
    8.1630    4.9700   14.0910 H   0  0  0  0  0  0  0  0  0  0  0  0
    5.4260    8.7270   12.5800 H   0  0  0  0  0  0  0  0  0  0  0  0
    6.4050    9.0130   11.1330 H   0  0  0  0  0  0  0  0  0  0  0  0
    6.8540    9.7840   12.7270 H   0  0  0  0  0  0  0  0  0  0  0  0
   10.8170    7.7260    9.6170 H   0  0  0  0  0  0  0  0  0  0  0  0
  1  2  1  0  0  0  0
  2  3  2  0  0  0  0
  3  4  1  0  0  0  0
  3 22  1  0  0  0  0
  4  8  1  0  0  0  0
  5  4  1  0  0  0  0
  6  2  1  0  0  0  0
  6  5  2  0  0  0  0
  7 25  1  0  0  0  0
  7  6  1  0  0  0  0
  8 27  1  0  0  0  0
  9  8  1  0  0  0  0
  9 13  1  0  0  0  0
 10 11  1  0  0  0  0
 10  9  2  0  0  0  0
 11 12  1  0  0  0  0
 12 13  2  0  0  0  0
 12 14  1  0  0  0  0
 14 18  1  0  0  0  0
 15 14  2  0  0  0  0
 15 16  1  0  0  0  0
 16 17  1  0  0  0  0
 18 17  2  0  0  0  0
 18 28  1  0  0  0  0
 19 16  1  0  0  0  0
 19 29  1  0  0  0  0
 19 31  1  0  0  0  0
 20 15  1  0  0  0  0
 21 20  2  0  0  0  0
 21 11  1  0  0  0  0
 23  7  1  0  0  0  0
 24  7  1  0  0  0  0
 26  8  1  0  0  0  0
 30 19  1  0  0  0  0
 32 21  1  0  0  0  0
M  END
>  <Pose>
1

>  <Score>
-5.53

$$$$
