
 OpenBabel03172210413D

 56 59  0  0  1  0  0  0  0  0999 V2000
   17.7090    8.0850   10.6590 B   0  0  0  0  0  0  0  0  0  0  0  0
   16.8310    7.7570   12.3070 C   0  0  0  0  0  0  0  0  0  0  0  0
   15.5570    7.1780   12.3090 C   0  0  0  0  0  0  0  0  0  0  0  0
   14.8960    6.9150   13.4840 C   0  0  0  0  0  0  0  0  0  0  0  0
   15.5310    7.2420   14.6580 C   0  0  0  0  0  0  0  0  0  0  0  0
   16.7990    7.8200   14.6840 C   0  0  0  0  0  0  0  0  0  0  0  0
   17.4610    8.0790   13.4810 C   0  0  0  0  0  0  0  0  0  0  0  0
   18.8190    8.6910   13.4970 C   0  0  0  0  0  0  0  0  0  0  0  0
   17.4350    8.1750   15.9810 C   0  0  0  0  0  0  0  0  0  0  0  0
   13.5570    6.2660   13.5820 C   0  0  2  0  0  0  0  0  0  0  0  0
   12.8460    6.1070   12.2730 C   0  0  2  0  0  0  0  0  0  0  0  0
   13.4400    7.0810   11.2720 C   0  0  0  0  0  0  0  0  0  0  0  0
   14.8660    6.8370   11.1550 O   0  0  0  0  0  0  0  0  0  0  0  0
   11.4720    6.4970   12.5060 N   0  0  0  0  0  0  0  0  0  0  0  0
   10.6520    5.4420   13.0000 C   0  0  0  0  0  0  0  0  0  0  0  0
    9.1710    5.6650   12.8850 C   0  0  0  0  0  0  0  0  0  0  0  0
    8.7630    6.3180   11.7540 O   0  0  0  0  0  0  0  0  0  0  0  0
    9.4250    7.5520   11.7080 C   0  0  0  0  0  0  0  0  0  0  0  0
   10.8910    7.1660   11.3800 C   0  0  0  0  0  0  0  0  0  0  0  0
   12.9690    4.7820   11.6220 C   0  0  0  0  0  0  0  0  0  0  0  0
   12.2920    4.4180   10.4640 N   0  0  0  0  0  0  0  0  0  0  0  0
   13.0850    3.3740    9.7280 C   0  0  0  0  0  0  0  0  0  0  0  0
   13.3750    2.2080   10.5990 C   0  0  0  0  0  0  0  0  0  0  0  0
   12.4200    1.9370   11.5410 O   0  0  0  0  0  0  0  0  0  0  0  0
   11.1590    2.3750   11.2600 C   0  0  0  0  0  0  0  0  0  0  0  0
   11.0360    3.6990   10.5780 C   0  0  0  0  0  0  0  0  0  0  0  0
   12.7730    7.0660   14.4710 O   0  0  0  0  0  0  0  0  0  0  0  0
   15.0870    7.0750   15.6520 H   0  0  0  0  0  0  0  0  0  0  0  0
   18.8620    9.6950   13.9260 H   0  0  0  0  0  0  0  0  0  0  0  0
   19.1790    8.7740   12.4440 H   0  0  0  0  0  0  0  0  0  0  0  0
   19.4600    7.9600   14.0710 H   0  0  0  0  0  0  0  0  0  0  0  0
   16.8870    9.0750   16.3800 H   0  0  0  0  0  0  0  0  0  0  0  0
   17.3760    7.3850   16.7400 H   0  0  0  0  0  0  0  0  0  0  0  0
   18.4820    8.4970   15.7760 H   0  0  0  0  0  0  0  0  0  0  0  0
   13.7330    5.3500   14.1430 H   0  0  0  0  0  0  0  0  0  0  0  0
   13.3120    8.1290   11.5010 H   0  0  0  0  0  0  0  0  0  0  0  0
   13.0390    6.7840   10.2710 H   0  0  0  0  0  0  0  0  0  0  0  0
   10.8510    5.3120   14.0800 H   0  0  0  0  0  0  0  0  0  0  0  0
   10.8670    4.5500   12.3800 H   0  0  0  0  0  0  0  0  0  0  0  0
    8.7290    6.1180   13.7960 H   0  0  0  0  0  0  0  0  0  0  0  0
    8.6900    4.6480   12.8390 H   0  0  0  0  0  0  0  0  0  0  0  0
    9.0520    8.1100   10.8470 H   0  0  0  0  0  0  0  0  0  0  0  0
    9.3840    8.0750   12.6800 H   0  0  0  0  0  0  0  0  0  0  0  0
   10.7610    6.4590   10.5240 H   0  0  0  0  0  0  0  0  0  0  0  0
   11.3700    8.1100   11.1240 H   0  0  0  0  0  0  0  0  0  0  0  0
   12.5860    4.0640   12.4510 H   0  0  0  0  0  0  0  0  0  0  0  0
   14.0460    4.4740   11.5760 H   0  0  0  0  0  0  0  0  0  0  0  0
   13.9830    3.8470    9.2890 H   0  0  0  0  0  0  0  0  0  0  0  0
   12.4570    3.0590    8.8750 H   0  0  0  0  0  0  0  0  0  0  0  0
   13.5880    1.2800    9.9900 H   0  0  0  0  0  0  0  0  0  0  0  0
   14.3290    2.4270   11.1400 H   0  0  0  0  0  0  0  0  0  0  0  0
   10.6050    2.4360   12.2160 H   0  0  0  0  0  0  0  0  0  0  0  0
   10.6670    1.5470   10.6720 H   0  0  0  0  0  0  0  0  0  0  0  0
   10.8240    3.4150    9.4770 H   0  0  0  0  0  0  0  0  0  0  0  0
   10.1600    4.2720   10.8290 H   0  0  0  0  0  0  0  0  0  0  0  0
   12.6400    6.5310   15.2910 H   0  0  0  0  0  0  0  0  0  0  0  0
  1  2  1  0  0  0  0
  2  3  2  0  0  0  0
  2  7  1  0  0  0  0
  3  4  1  0  0  0  0
  4 10  1  0  0  0  0
  4  5  2  0  0  0  0
  5  6  1  0  0  0  0
  5 28  1  0  0  0  0
  6  9  1  0  0  0  0
  7  8  1  0  0  0  0
  7  6  2  0  0  0  0
  8 29  1  0  0  0  0
  8 31  1  0  0  0  0
  9 32  1  0  0  0  0
  9 33  1  0  0  0  0
 10 35  1  1  0  0  0
 10 27  1  0  0  0  0
 11 20  1  6  0  0  0
 11 14  1  0  0  0  0
 11 10  1  0  0  0  0
 12 36  1  0  0  0  0
 12 11  1  0  0  0  0
 13 12  1  0  0  0  0
 13  3  1  0  0  0  0
 14 15  1  0  0  0  0
 15 38  1  0  0  0  0
 16 15  1  0  0  0  0
 16 40  1  0  0  0  0
 17 16  1  0  0  0  0
 18 17  1  0  0  0  0
 18 43  1  0  0  0  0
 19 18  1  0  0  0  0
 19 14  1  0  0  0  0
 20 46  1  0  0  0  0
 21 26  1  0  0  0  0
 21 20  1  0  0  0  0
 22 21  1  0  0  0  0
 22 23  1  0  0  0  0
 23 51  1  0  0  0  0
 23 24  1  0  0  0  0
 25 24  1  0  0  0  0
 25 52  1  0  0  0  0
 26 55  1  0  0  0  0
 26 25  1  0  0  0  0
 27 56  1  0  0  0  0
 30  8  1  0  0  0  0
 34  9  1  0  0  0  0
 37 12  1  0  0  0  0
 39 15  1  0  0  0  0
 41 16  1  0  0  0  0
 42 18  1  0  0  0  0
 44 19  1  0  0  0  0
 45 19  1  0  0  0  0
 47 20  1  0  0  0  0
 48 22  1  0  0  0  0
 49 22  1  0  0  0  0
 50 23  1  0  0  0  0
 53 25  1  0  0  0  0
 54 26  1  0  0  0  0
M  END
>  <Pose>
1

>  <Score>
-4.05

$$$$
