
 OpenBabel03172210413D

 45 48  0  0  0  0  0  0  0  0999 V2000
   10.2220   -1.0170    8.2320 B   0  0  0  0  0  0  0  0  0  0  0  0
   11.0550    0.5190    9.0060 C   0  0  0  0  0  0  0  0  0  0  0  0
   12.3810    0.8230    8.8260 C   0  0  0  0  0  0  0  0  0  0  0  0
   12.6210    1.9800    9.5220 C   0  0  0  0  0  0  0  0  0  0  0  0
   11.4640    2.3870   10.1230 N   0  0  0  0  0  0  0  0  0  0  0  0
   10.5060    1.4850    9.8030 C   0  0  0  0  0  0  0  0  0  0  0  0
    9.0970    1.5460   10.2520 C   0  0  0  0  0  0  0  0  0  0  0  0
   11.3790    3.5480   10.9390 C   0  0  0  0  0  0  0  0  0  0  0  0
   10.9790    4.8140   10.3580 C   0  0  0  0  0  0  0  0  0  0  0  0
   11.5580    5.0190    9.1800 O   0  0  0  0  0  0  0  0  0  0  0  0
   10.1370    5.8350   10.7680 N   0  0  0  0  0  0  0  0  0  0  0  0
    8.8010    5.7360   11.2370 C   0  0  0  0  0  0  0  0  0  0  0  0
    8.7560    6.0150   12.7400 C   0  0  0  0  0  0  0  0  0  0  0  0
    9.8320    7.0250   13.1030 C   0  0  0  0  0  0  0  0  0  0  0  0
    9.2710    7.8260   14.1770 N   0  0  0  0  0  0  0  0  0  0  0  0
    9.6160    7.1560   15.4060 C   0  0  0  0  0  0  0  0  0  0  0  0
    9.0690    7.3330   16.5230 O   0  0  0  0  0  0  0  0  0  0  0  0
   10.6990    6.2530   15.1090 N   0  0  0  0  0  0  0  0  0  0  0  0
   11.0040    6.3740   13.7250 C   0  0  0  0  0  0  0  0  0  0  0  0
   12.0670    5.9910   13.1830 O   0  0  0  0  0  0  0  0  0  0  0  0
   10.1790    7.9330   11.9650 C   0  0  0  0  0  0  0  0  0  0  0  0
   10.6560    7.2250   10.7390 C   0  0  0  0  0  0  0  0  0  0  0  0
   13.9030    2.5300    9.5140 C   0  0  0  0  0  0  0  0  0  0  0  0
   14.9310    1.9160    8.8110 C   0  0  0  0  0  0  0  0  0  0  0  0
   14.6730    0.7630    8.1240 C   0  0  0  0  0  0  0  0  0  0  0  0
   13.4110    0.2130    8.1260 C   0  0  0  0  0  0  0  0  0  0  0  0
    8.3930    1.2240    9.4510 H   0  0  0  0  0  0  0  0  0  0  0  0
    8.9750    0.8270   11.0970 H   0  0  0  0  0  0  0  0  0  0  0  0
    8.8130    2.5720   10.5890 H   0  0  0  0  0  0  0  0  0  0  0  0
   12.3900    3.6760   11.4570 H   0  0  0  0  0  0  0  0  0  0  0  0
   10.7170    3.2830   11.8260 H   0  0  0  0  0  0  0  0  0  0  0  0
    8.2100    4.8770   10.9770 H   0  0  0  0  0  0  0  0  0  0  0  0
    8.2340    6.6120   10.7660 H   0  0  0  0  0  0  0  0  0  0  0  0
    7.7370    6.3980   12.9520 H   0  0  0  0  0  0  0  0  0  0  0  0
    8.8780    5.0720   13.2730 H   0  0  0  0  0  0  0  0  0  0  0  0
    8.7260    8.7100   14.0910 H   0  0  0  0  0  0  0  0  0  0  0  0
   11.1660    5.6320   15.7840 H   0  0  0  0  0  0  0  0  0  0  0  0
    9.2940    8.5900   11.7860 H   0  0  0  0  0  0  0  0  0  0  0  0
   10.9910    8.6130   12.3320 H   0  0  0  0  0  0  0  0  0  0  0  0
   11.7250    7.2610   10.5490 H   0  0  0  0  0  0  0  0  0  0  0  0
   10.1220    7.6940    9.8610 H   0  0  0  0  0  0  0  0  0  0  0  0
   14.0670    3.4440   10.0720 H   0  0  0  0  0  0  0  0  0  0  0  0
   15.9180    2.3760    8.8320 H   0  0  0  0  0  0  0  0  0  0  0  0
   15.4660    0.2900    7.5830 H   0  0  0  0  0  0  0  0  0  0  0  0
   13.1780   -0.6930    7.5930 H   0  0  0  0  0  0  0  0  0  0  0  0
  1  2  1  0  0  0  0
  2  6  2  0  0  0  0
  3  2  1  0  0  0  0
  3  4  1  0  0  0  0
  4  5  1  0  0  0  0
  5  8  1  0  0  0  0
  6  5  1  0  0  0  0
  6  7  1  0  0  0  0
  7 29  1  0  0  0  0
  7 28  1  0  0  0  0
  8 30  1  0  0  0  0
  8 31  1  0  0  0  0
  9 11  1  0  0  0  0
  9  8  1  0  0  0  0
 10  9  2  0  0  0  0
 11 12  1  0  0  0  0
 12 13  1  0  0  0  0
 13 34  1  0  0  0  0
 13 14  1  0  0  0  0
 13 35  1  0  0  0  0
 14 19  1  0  0  0  0
 14 15  1  0  0  0  0
 15 16  1  0  0  0  0
 16 17  2  0  0  0  0
 18 16  1  0  0  0  0
 18 37  1  0  0  0  0
 19 18  1  0  0  0  0
 20 19  2  0  0  0  0
 21 39  1  0  0  0  0
 21 14  1  0  0  0  0
 22 11  1  0  0  0  0
 22 21  1  0  0  0  0
 23  4  2  0  0  0  0
 23 42  1  0  0  0  0
 24 43  1  0  0  0  0
 24 23  1  0  0  0  0
 25 26  1  0  0  0  0
 25 24  2  0  0  0  0
 26  3  2  0  0  0  0
 27  7  1  0  0  0  0
 32 12  1  0  0  0  0
 33 12  1  0  0  0  0
 36 15  1  0  0  0  0
 38 21  1  0  0  0  0
 40 22  1  0  0  0  0
 41 22  1  0  0  0  0
 44 25  1  0  0  0  0
 45 26  1  0  0  0  0
M  END
>  <Pose>
1

>  <Score>
-6.07

$$$$
