
 OpenBabel03172210413D

 46 49  0  0  0  0  0  0  0  0999 V2000
   14.0940    2.3580   10.3180 B   0  0  0  0  0  0  0  0  0  0  0  0
   12.6670    1.3370    9.5640 C   0  0  0  0  0  0  0  0  0  0  0  0
   11.3850    1.4250    9.9940 N   0  0  0  0  0  0  0  0  0  0  0  0
   10.6990    0.5580    9.2160 C   0  0  0  0  0  0  0  0  0  0  0  0
   11.5370   -0.0630    8.3130 C   0  0  0  0  0  0  0  0  0  0  0  0
   12.7650    0.4490    8.5580 N   0  0  0  0  0  0  0  0  0  0  0  0
   11.0960   -0.9770    7.4190 N   0  0  0  0  0  0  0  0  0  0  0  0
    9.7850   -1.2800    7.4270 C   0  0  0  0  0  0  0  0  0  0  0  0
    9.3020   -2.1220    6.6240 O   0  0  0  0  0  0  0  0  0  0  0  0
    8.9280   -0.6880    8.3040 N   0  0  0  0  0  0  0  0  0  0  0  0
    9.3570    0.2190    9.1940 C   0  0  0  0  0  0  0  0  0  0  0  0
    8.6090    0.7900   10.0190 O   0  0  0  0  0  0  0  0  0  0  0  0
   11.9910   -1.6200    6.4750 C   0  0  0  0  0  0  0  0  0  0  0  0
   10.8360    2.2470   11.0450 C   0  0  0  0  0  0  0  0  0  0  0  0
   11.0870    3.7260   10.7830 C   0  0  0  0  0  0  0  0  0  0  0  0
   10.0170    4.5770   11.4140 C   0  0  0  0  0  0  0  0  0  0  0  0
    9.5930    5.7610   10.5970 C   0  0  0  0  0  0  0  0  0  0  0  0
    9.1650    6.8240   11.4450 N   0  0  0  0  0  0  0  0  0  0  0  0
    7.9500    7.1610   11.8730 C   0  0  0  0  0  0  0  0  0  0  0  0
    8.0620    8.2600   12.7180 C   0  0  0  0  0  0  0  0  0  0  0  0
    9.3600    8.5480   12.7650 N   0  0  0  0  0  0  0  0  0  0  0  0
   10.0440    7.6940   12.0020 C   0  0  0  0  0  0  0  0  0  0  0  0
   11.9370    7.7390   11.7770 B   0  0  0  0  0  0  0  0  0  0  0  0
    6.9800    8.8020   13.2820 N   0  0  0  0  0  0  0  0  0  0  0  0
    5.7510    8.3010   13.0490 C   0  0  0  0  0  0  0  0  0  0  0  0
    4.7390    8.8170   13.5840 O   0  0  0  0  0  0  0  0  0  0  0  0
    5.6290    7.2450   12.2380 N   0  0  0  0  0  0  0  0  0  0  0  0
    6.6900    6.6710   11.6520 C   0  0  0  0  0  0  0  0  0  0  0  0
    6.5550    5.6880   10.8960 O   0  0  0  0  0  0  0  0  0  0  0  0
    7.0690    9.9550   14.1720 C   0  0  0  0  0  0  0  0  0  0  0  0
    7.9150   -0.9510    8.2800 H   0  0  0  0  0  0  0  0  0  0  0  0
   12.9200   -1.0310    6.3260 H   0  0  0  0  0  0  0  0  0  0  0  0
   12.3270   -2.6130    6.8900 H   0  0  0  0  0  0  0  0  0  0  0  0
   11.5370   -1.7430    5.4700 H   0  0  0  0  0  0  0  0  0  0  0  0
   11.1790    1.9380   12.0310 H   0  0  0  0  0  0  0  0  0  0  0  0
    9.7250    2.1180   11.0000 H   0  0  0  0  0  0  0  0  0  0  0  0
   12.0460    4.0410   11.2930 H   0  0  0  0  0  0  0  0  0  0  0  0
   11.1890    3.9490    9.7140 H   0  0  0  0  0  0  0  0  0  0  0  0
    9.1600    3.9340   11.7100 H   0  0  0  0  0  0  0  0  0  0  0  0
   10.3730    5.0080   12.3970 H   0  0  0  0  0  0  0  0  0  0  0  0
   10.4780    6.0510    9.9770 H   0  0  0  0  0  0  0  0  0  0  0  0
    8.8260    5.4280    9.8720 H   0  0  0  0  0  0  0  0  0  0  0  0
    4.6810    6.8200   12.0280 H   0  0  0  0  0  0  0  0  0  0  0  0
    8.1470   10.1250   14.3880 H   0  0  0  0  0  0  0  0  0  0  0  0
    6.5430    9.6600   15.1080 H   0  0  0  0  0  0  0  0  0  0  0  0
    6.6020   10.8510   13.7300 H   0  0  0  0  0  0  0  0  0  0  0  0
  2  3  1  0  0  0  0
  2  1  1  0  0  0  0
  3 14  1  0  0  0  0
  4  3  1  0  0  0  0
  5  6  1  0  0  0  0
  5  4  2  0  0  0  0
  6  2  2  0  0  0  0
  7  8  1  0  0  0  0
  7  5  1  0  0  0  0
  8 10  1  0  0  0  0
  9  8  2  0  0  0  0
 10 11  1  0  0  0  0
 11  4  1  0  0  0  0
 11 12  2  0  0  0  0
 13 33  1  0  0  0  0
 13  7  1  0  0  0  0
 14 35  1  0  0  0  0
 15 14  1  0  0  0  0
 15 37  1  0  0  0  0
 15 16  1  0  0  0  0
 16 39  1  0  0  0  0
 16 40  1  0  0  0  0
 17 16  1  0  0  0  0
 17 18  1  0  0  0  0
 18 19  1  0  0  0  0
 18 22  1  0  0  0  0
 19 20  2  0  0  0  0
 20 21  1  0  0  0  0
 20 24  1  0  0  0  0
 22 21  2  0  0  0  0
 23 22  1  0  0  0  0
 24 30  1  0  0  0  0
 25 24  1  0  0  0  0
 25 26  2  0  0  0  0
 27 25  1  0  0  0  0
 28 19  1  0  0  0  0
 28 27  1  0  0  0  0
 29 28  2  0  0  0  0
 30 44  1  0  0  0  0
 30 45  1  0  0  0  0
 31 10  1  0  0  0  0
 32 13  1  0  0  0  0
 34 13  1  0  0  0  0
 36 14  1  0  0  0  0
 38 15  1  0  0  0  0
 41 17  1  0  0  0  0
 42 17  1  0  0  0  0
 43 27  1  0  0  0  0
 46 30  1  0  0  0  0
M  END
>  <Pose>
1

>  <Score>
-7.66

$$$$
