
 OpenBabel03172210413D

 41 44  0  0  0  0  0  0  0  0999 V2000
    4.9300   10.7730   20.4340 B   0  0  0  0  0  0  0  0  0  0  0  0
    4.8670    9.3120   19.2060 C   0  0  0  0  0  0  0  0  0  0  0  0
    3.6610    8.6810   18.9950 C   0  0  0  0  0  0  0  0  0  0  0  0
    3.5840    7.6420   18.1320 N   0  0  0  0  0  0  0  0  0  0  0  0
    4.7030    7.2510   17.4950 C   0  0  0  0  0  0  0  0  0  0  0  0
    5.9280    7.8320   17.6580 C   0  0  0  0  0  0  0  0  0  0  0  0
    6.0170    8.8930   18.5370 C   0  0  0  0  0  0  0  0  0  0  0  0
    7.0750    7.3280   16.9170 C   0  0  0  0  0  0  0  0  0  0  0  0
    7.7110    6.3390   17.4120 O   0  0  0  0  0  0  0  0  0  0  0  0
    7.5010    7.8940   15.6860 N   0  0  0  0  0  0  0  0  0  0  0  0
    8.3570    7.0930   14.8250 C   0  0  0  0  0  0  0  0  0  0  0  0
    8.2690    7.5650   13.3910 C   0  0  0  0  0  0  0  0  0  0  0  0
    8.6970    6.4320   12.5630 N   0  0  0  0  0  0  0  0  0  0  0  0
    8.0600    5.8750   11.5470 N   0  0  0  0  0  0  0  0  0  0  0  0
    8.7680    4.8700   11.0490 N   0  0  0  0  0  0  0  0  0  0  0  0
    9.9090    4.7460   11.7440 C   0  0  0  0  0  0  0  0  0  0  0  0
    9.8560    5.7350   12.6980 C   0  0  0  0  0  0  0  0  0  0  0  0
   10.9730    3.7790   11.5390 C   0  0  0  0  0  0  0  0  0  0  0  0
   11.4890    3.3760   10.3640 N   0  0  0  0  0  0  0  0  0  0  0  0
   12.4560    2.4710   10.5900 C   0  0  0  0  0  0  0  0  0  0  0  0
   12.5180    2.3310   11.9240 N   0  0  0  0  0  0  0  0  0  0  0  0
   11.6300    3.1160   12.4530 O   0  0  0  0  0  0  0  0  0  0  0  0
   13.2800    1.7730    9.5800 C   0  0  0  0  0  0  0  0  0  0  0  0
   14.5650    2.1990    9.3330 C   0  0  0  0  0  0  0  0  0  0  0  0
   15.3250    1.5710    8.4160 N   0  0  0  0  0  0  0  0  0  0  0  0
   14.8890    0.5140    7.7000 C   0  0  0  0  0  0  0  0  0  0  0  0
   13.5980    0.0940    7.9560 C   0  0  0  0  0  0  0  0  0  0  0  0
   12.7910    0.7040    8.8800 C   0  0  0  0  0  0  0  0  0  0  0  0
    2.7430    8.9950   19.5120 H   0  0  0  0  0  0  0  0  0  0  0  0
    4.5850    6.4070   16.8080 H   0  0  0  0  0  0  0  0  0  0  0  0
    6.9560    9.3960   18.7110 H   0  0  0  0  0  0  0  0  0  0  0  0
    7.2060    8.8520   15.4150 H   0  0  0  0  0  0  0  0  0  0  0  0
    9.4140    7.2800   15.1560 H   0  0  0  0  0  0  0  0  0  0  0  0
    8.1090    6.0210   14.9380 H   0  0  0  0  0  0  0  0  0  0  0  0
    7.2180    7.8260   13.1850 H   0  0  0  0  0  0  0  0  0  0  0  0
    8.9600    8.3920   13.1730 H   0  0  0  0  0  0  0  0  0  0  0  0
   10.6060    5.9390   13.4400 H   0  0  0  0  0  0  0  0  0  0  0  0
   14.9520    3.0600    9.9010 H   0  0  0  0  0  0  0  0  0  0  0  0
   15.5190    0.0180    6.9620 H   0  0  0  0  0  0  0  0  0  0  0  0
   13.2150   -0.7560    7.3960 H   0  0  0  0  0  0  0  0  0  0  0  0
   11.7720    0.3760    9.0850 H   0  0  0  0  0  0  0  0  0  0  0  0
  2  1  1  0  0  0  0
  3  2  1  0  0  0  0
  3 29  1  0  0  0  0
  4  3  2  0  0  0  0
  5  6  2  0  0  0  0
  5  4  1  0  0  0  0
  6  7  1  0  0  0  0
  7 31  1  0  0  0  0
  7  2  2  0  0  0  0
  8  9  2  0  0  0  0
  8  6  1  0  0  0  0
 10  8  1  0  0  0  0
 11 34  1  0  0  0  0
 11 33  1  0  0  0  0
 11 10  1  0  0  0  0
 12 11  1  0  0  0  0
 13 17  1  0  0  0  0
 13 12  1  0  0  0  0
 14 13  1  0  0  0  0
 15 14  2  0  0  0  0
 15 16  1  0  0  0  0
 16 17  2  0  0  0  0
 17 37  1  0  0  0  0
 18 16  1  0  0  0  0
 18 22  1  0  0  0  0
 19 20  1  0  0  0  0
 19 18  2  0  0  0  0
 20 21  2  0  0  0  0
 21 22  1  0  0  0  0
 23 20  1  0  0  0  0
 24 23  1  0  0  0  0
 24 38  1  0  0  0  0
 25 24  2  0  0  0  0
 26 27  2  0  0  0  0
 26 25  1  0  0  0  0
 27 28  1  0  0  0  0
 28 41  1  0  0  0  0
 28 23  2  0  0  0  0
 30  5  1  0  0  0  0
 32 10  1  0  0  0  0
 35 12  1  0  0  0  0
 36 12  1  0  0  0  0
 39 26  1  0  0  0  0
 40 27  1  0  0  0  0
M  END
>  <Pose>
1

>  <Score>
-7.08

$$$$
