
 OpenBabel03172210413D

 59 63  0  0  1  0  0  0  0  0999 V2000
   11.1330    2.2360   11.1660 B   0  0  0  0  0  0  0  0  0  0  0  0
   10.9600    4.1110   10.9320 C   0  0  0  0  0  0  0  0  0  0  0  0
   10.5660    4.9160   11.9780 C   0  0  0  0  0  0  0  0  0  0  0  0
   10.4330    6.3010   11.8090 C   0  0  0  0  0  0  0  0  0  0  0  0
   10.7240    6.7640   10.5450 C   0  0  0  0  0  0  0  0  0  0  0  0
   11.1180    6.0030    9.4830 C   0  0  0  0  0  0  0  0  0  0  0  0
   11.2360    4.6400    9.6880 C   0  0  0  0  0  0  0  0  0  0  0  0
    9.9650    7.1330   12.9000 C   0  0  2  0  0  0  0  0  0  0  0  0
    8.7920    7.8890   12.8380 N   0  0  0  0  0  0  0  0  0  0  0  0
    9.1730    9.2830   13.0450 C   0  0  0  0  0  0  0  0  0  0  0  0
    8.4460   10.3020   12.9300 O   0  0  0  0  0  0  0  0  0  0  0  0
   10.5750    9.3570   13.4240 C   0  0  0  0  0  0  0  0  0  0  0  0
   11.2380   10.4190   13.6740 O   0  0  0  0  0  0  0  0  0  0  0  0
   11.0540    8.0010   13.4530 C   0  0  0  0  0  0  0  0  0  0  0  0
   12.2510    7.6210   13.8500 C   0  0  0  0  0  0  0  0  0  0  0  0
   12.5160    6.2370   13.7230 O   0  0  0  0  0  0  0  0  0  0  0  0
   13.2880    8.4770   14.3960 C   0  0  0  0  0  0  0  0  0  0  0  0
   14.5290    8.7810   13.9840 N   0  0  0  0  0  0  0  0  0  0  0  0
   15.1710    9.5960   14.8340 C   0  0  0  0  0  0  0  0  0  0  0  0
   14.3040    9.8310   15.8440 N   0  0  0  0  0  0  0  0  0  0  0  0
   13.1630    9.1770   15.6160 C   0  0  0  0  0  0  0  0  0  0  0  0
   11.9650    9.1660   16.4680 C   0  0  0  0  0  0  0  0  0  0  0  0
   16.4550   10.0480   14.5980 C   0  0  0  0  0  0  0  0  0  0  0  0
   17.0970    9.6500   13.4570 C   0  0  0  0  0  0  0  0  0  0  0  0
   16.4360    8.8110   12.5800 C   0  0  0  0  0  0  0  0  0  0  0  0
   15.1580    8.3800   12.8450 C   0  0  0  0  0  0  0  0  0  0  0  0
    7.4470    7.4600   12.7150 C   0  0  0  0  0  0  0  0  0  0  0  0
    6.5500    7.4130   13.8670 C   0  0  0  0  0  0  0  0  0  0  0  0
    5.1290    7.4830   13.6940 N   0  0  0  0  0  4  0  0  0  0  0  0
    4.5370    7.3300   15.0230 C   0  0  0  0  0  0  0  0  0  0  0  0
    4.3680    8.6330   15.7360 C   0  0  0  0  0  0  0  0  0  0  0  0
    5.0690    9.6590   15.0830 O   0  0  0  0  0  0  0  0  0  0  0  0
    4.4440    9.8120   13.8660 C   0  0  0  0  0  0  0  0  0  0  0  0
    4.6920    8.6410   12.9890 C   0  0  0  0  0  0  0  0  0  0  0  0
   10.3430    4.5380   12.9570 H   0  0  0  0  0  0  0  0  0  0  0  0
   10.6300    7.8400   10.3820 H   0  0  0  0  0  0  0  0  0  0  0  0
   11.3360    6.4110    8.4990 H   0  0  0  0  0  0  0  0  0  0  0  0
   11.5480    4.0380    8.8390 H   0  0  0  0  0  0  0  0  0  0  0  0
    9.7360    6.3580   13.7590 H   0  0  0  0  0  0  0  0  0  0  0  0
   11.0070    9.1590   15.9020 H   0  0  0  0  0  0  0  0  0  0  0  0
   12.0430    8.2970   17.1630 H   0  0  0  0  0  0  0  0  0  0  0  0
   11.9620   10.0820   17.0980 H   0  0  0  0  0  0  0  0  0  0  0  0
   16.9690   10.6990   15.2800 H   0  0  0  0  0  0  0  0  0  0  0  0
   18.1060    9.9600   13.1960 H   0  0  0  0  0  0  0  0  0  0  0  0
   16.9100    8.4680   11.6580 H   0  0  0  0  0  0  0  0  0  0  0  0
   14.6210    7.7150   12.1520 H   0  0  0  0  0  0  0  0  0  0  0  0
    7.4850    6.4170   12.2650 H   0  0  0  0  0  0  0  0  0  0  0  0
    6.9460    8.0530   11.9000 H   0  0  0  0  0  0  0  0  0  0  0  0
    6.7510    6.4110   14.3690 H   0  0  0  0  0  0  0  0  0  0  0  0
    6.8570    8.1240   14.6940 H   0  0  0  0  0  0  0  0  0  0  0  0
    4.7550    6.6330   13.1770 H   0  0  0  0  0  0  0  0  0  0  0  0
    3.5460    6.8650   14.9020 H   0  0  0  0  0  0  0  0  0  0  0  0
    5.1500    6.6300   15.6430 H   0  0  0  0  0  0  0  0  0  0  0  0
    3.2870    8.9290   15.7730 H   0  0  0  0  0  0  0  0  0  0  0  0
    4.7980    8.5430   16.7550 H   0  0  0  0  0  0  0  0  0  0  0  0
    4.9110   10.7450   13.4140 H   0  0  0  0  0  0  0  0  0  0  0  0
    3.3420   10.0090   14.0180 H   0  0  0  0  0  0  0  0  0  0  0  0
    5.4130    8.9550   12.1920 H   0  0  0  0  0  0  0  0  0  0  0  0
    3.7020    8.3900   12.4990 H   0  0  0  0  0  0  0  0  0  0  0  0
  2  1  1  0  0  0  0
  2  3  1  0  0  0  0
  3 35  1  0  0  0  0
  4  3  2  0  0  0  0
  4  8  1  0  0  0  0
  5  4  1  0  0  0  0
  6  7  1  0  0  0  0
  6  5  2  0  0  0  0
  7  2  2  0  0  0  0
  8 14  1  0  0  0  0
  8 39  1  1  0  0  0
  9  8  1  0  0  0  0
  9 10  1  0  0  0  0
 10 12  1  0  0  0  0
 11 10  2  0  0  0  0
 12 14  1  0  0  0  0
 12 13  2  0  0  0  0
 14 15  2  0  0  0  0
 15 17  1  0  0  0  0
 16 15  1  0  0  0  0
 17 21  2  0  0  0  0
 18 17  1  0  0  0  0
 18 19  1  0  0  0  0
 19 20  2  0  0  0  0
 21 20  1  0  0  0  0
 21 22  1  0  0  0  0
 22 42  1  0  0  0  0
 22 41  1  0  0  0  0
 23 19  1  0  0  0  0
 23 43  1  0  0  0  0
 24 23  2  0  0  0  0
 25 26  2  0  0  0  0
 25 24  1  0  0  0  0
 26 18  1  0  0  0  0
 27  9  1  0  0  0  0
 27 28  1  0  0  0  0
 28 49  1  0  0  0  0
 28 50  1  0  0  0  0
 29 28  1  0  0  0  0
 29 30  1  0  0  0  0
 30 53  1  0  0  0  0
 30 31  1  0  0  0  0
 31 54  1  0  0  0  0
 31 55  1  0  0  0  0
 32 31  1  0  0  0  0
 33 57  1  0  0  0  0
 33 32  1  0  0  0  0
 34 29  1  0  0  0  0
 34 33  1  0  0  0  0
 36  5  1  0  0  0  0
 37  6  1  0  0  0  0
 38  7  1  0  0  0  0
 40 22  1  0  0  0  0
 44 24  1  0  0  0  0
 45 25  1  0  0  0  0
 46 26  1  0  0  0  0
 47 27  1  0  0  0  0
 48 27  1  0  0  0  0
 51 29  1  0  0  0  0
 52 30  1  0  0  0  0
 56 33  1  0  0  0  0
 58 34  1  0  0  0  0
 59 34  1  0  0  0  0
M  END
>  <Pose>
1

>  <Score>
-5.47

$$$$
