
 OpenBabel03172210413D

 54 58  0  0  0  0  0  0  0  0999 V2000
    9.9170    4.6480    9.8160 F   0  0  0  0  0  0  0  0  0  0  0  0
    9.6030    5.1800   11.0110 C   0  0  0  0  0  0  0  0  0  0  0  0
    8.4060    5.8890   11.0210 C   0  0  0  0  0  0  0  0  0  0  0  0
    7.9550    6.4820   12.1800 C   0  0  0  0  0  0  0  0  0  0  0  0
    8.7190    6.3490   13.3140 C   0  0  0  0  0  0  0  0  0  0  0  0
    9.9120    5.6340   13.2840 C   0  0  0  0  0  0  0  0  0  0  0  0
   10.3720    5.0410   12.1390 C   0  0  0  0  0  0  0  0  0  0  0  0
   11.5780    4.3410   12.1460 N   0  0  0  0  0  4  0  0  0  0  0  0
   12.5230    4.7160   11.1250 C   0  0  0  0  0  0  0  0  0  0  0  0
   13.8590    3.9680   11.3480 C   0  0  0  0  0  0  0  0  0  0  0  0
   13.5580    2.6000   11.1870 N   0  0  0  0  0  0  0  0  0  0  0  0
   12.6860    2.1210   12.3300 C   0  0  0  0  0  0  0  0  0  0  0  0
   11.4340    2.9230   12.1470 C   0  0  0  0  0  0  0  0  0  0  0  0
   13.8400    1.6900   10.2260 C   0  0  0  0  0  0  0  0  0  0  0  0
   15.1160    1.5180    9.9740 O   0  0  0  0  0  0  0  0  0  0  0  0
   12.9850    0.8660    9.4180 C   0  0  0  0  0  0  0  0  0  0  0  0
   11.6500    0.7240    9.6150 C   0  0  0  0  0  0  0  0  0  0  0  0
   10.8510   -0.0410    8.7740 C   0  0  0  0  0  0  0  0  0  0  0  0
   11.4250   -0.6800    7.7060 C   0  0  0  0  0  0  0  0  0  0  0  0
   12.7650   -0.5720    7.4630 C   0  0  0  0  0  0  0  0  0  0  0  0
   13.5210    0.1860    8.3050 C   0  0  0  0  0  0  0  0  0  0  0  0
    9.1180   -0.1940    9.0690 Cl  0  0  0  0  0  0  0  0  0  0  0  0
    8.2570    6.9360   14.4360 N   0  0  0  0  0  0  0  0  0  0  0  0
    7.1040    7.6280   14.4710 C   0  0  0  0  0  0  0  0  0  0  0  0
    6.3160    7.7800   13.3520 C   0  0  0  0  0  0  0  0  0  0  0  0
    6.7490    7.1970   12.1850 C   0  0  0  0  0  0  0  0  0  0  0  0
    6.0790    7.2960   11.1300 O   0  0  0  0  0  0  0  0  0  0  0  0
    5.0540    8.5420   13.4070 C   0  0  0  0  0  0  0  0  0  0  0  0
    4.6620    9.2520   12.4680 O   0  0  0  0  0  0  0  0  0  0  0  0
    4.2930    8.4500   14.5500 O   0  0  0  0  0  0  0  0  0  0  0  0
    9.0860    6.7830   15.6380 C   0  0  0  0  0  0  0  0  0  0  0  0
    8.4770    6.6440   16.9640 C   0  0  0  0  0  0  0  0  0  0  0  0
    8.9670    7.9830   16.6350 C   0  0  0  0  0  0  0  0  0  0  0  0
    7.7880    6.0100   10.1440 H   0  0  0  0  0  0  0  0  0  0  0  0
   10.4420    5.5890   14.2360 H   0  0  0  0  0  0  0  0  0  0  0  0
   12.0560    4.5840   13.0680 H   0  0  0  0  0  0  0  0  0  0  0  0
   12.1610    4.3470   10.1540 H   0  0  0  0  0  0  0  0  0  0  0  0
   12.8380    5.7720   11.1540 H   0  0  0  0  0  0  0  0  0  0  0  0
   14.6180    4.4430   10.7600 H   0  0  0  0  0  0  0  0  0  0  0  0
   14.1760    4.1890   12.4320 H   0  0  0  0  0  0  0  0  0  0  0  0
   13.2090    2.4770   13.2320 H   0  0  0  0  0  0  0  0  0  0  0  0
   12.5460    1.0490   12.2840 H   0  0  0  0  0  0  0  0  0  0  0  0
   10.7710    2.6640   13.0260 H   0  0  0  0  0  0  0  0  0  0  0  0
   10.9040    2.5120   11.2710 H   0  0  0  0  0  0  0  0  0  0  0  0
   11.1280    1.1580   10.4500 H   0  0  0  0  0  0  0  0  0  0  0  0
   10.7860   -1.2720    7.0620 H   0  0  0  0  0  0  0  0  0  0  0  0
   13.1550   -1.1020    6.6040 H   0  0  0  0  0  0  0  0  0  0  0  0
   14.5950    0.2730    8.1070 H   0  0  0  0  0  0  0  0  0  0  0  0
    6.7770    8.0800   15.3950 H   0  0  0  0  0  0  0  0  0  0  0  0
   10.1260    6.4490   15.4750 H   0  0  0  0  0  0  0  0  0  0  0  0
    7.3890    6.4800   17.1080 H   0  0  0  0  0  0  0  0  0  0  0  0
    9.0730    6.0440   17.7140 H   0  0  0  0  0  0  0  0  0  0  0  0
    8.2420    8.7730   16.3520 H   0  0  0  0  0  0  0  0  0  0  0  0
    9.9220    8.3940   17.0100 H   0  0  0  0  0  0  0  0  0  0  0  0
  1  2  1  0  0  0  0
  2  3  2  0  0  0  0
  2  7  1  0  0  0  0
  3  4  1  0  0  0  0
  4 26  1  0  0  0  0
  4  5  2  0  0  0  0
  5 23  1  0  0  0  0
  6  5  1  0  0  0  0
  6 35  1  0  0  0  0
  7  8  1  0  0  0  0
  7  6  2  0  0  0  0
  8 13  1  0  0  0  0
  8 36  1  0  0  0  0
  9 38  1  0  0  0  0
  9 10  1  0  0  0  0
  9  8  1  0  0  0  0
 10 40  1  0  0  0  0
 11 10  1  0  0  0  0
 11 12  1  0  0  0  0
 12 41  1  0  0  0  0
 13 12  1  0  0  0  0
 13 43  1  0  0  0  0
 14 11  1  0  0  0  0
 15 14  2  0  0  0  0
 16 17  1  0  0  0  0
 16 14  1  0  0  0  0
 17 45  1  0  0  0  0
 18 22  1  0  0  0  0
 18 17  2  0  0  0  0
 19 18  1  0  0  0  0
 20 19  2  0  0  0  0
 20 21  1  0  0  0  0
 21 16  2  0  0  0  0
 23 24  1  0  0  0  0
 23 31  1  0  0  0  0
 24 49  1  0  0  0  0
 25 28  1  0  0  0  0
 25 24  2  0  0  0  0
 26 25  1  0  0  0  0
 27 26  2  0  0  0  0
 28 30  1  0  0  0  0
 29 28  2  0  0  0  0
 31 33  1  0  0  0  0
 31 32  1  0  0  0  0
 32 51  1  0  0  0  0
 32 52  1  0  0  0  0
 33 32  1  0  0  0  0
 33 54  1  0  0  0  0
 34  3  1  0  0  0  0
 37  9  1  0  0  0  0
 39 10  1  0  0  0  0
 42 12  1  0  0  0  0
 44 13  1  0  0  0  0
 46 19  1  0  0  0  0
 47 20  1  0  0  0  0
 48 21  1  0  0  0  0
 50 31  1  0  0  0  0
 53 33  1  0  0  0  0
M  END
>  <Pose>
1

>  <Score>
-6.69

$$$$
