
 OpenBabel03172210413D

 51 54  0  0  0  0  0  0  0  0999 V2000
    8.4250   11.8010   17.5500 Cl  0  0  0  0  0  0  0  0  0  0  0  0
    7.5870   10.8230   16.3560 C   0  0  0  0  0  0  0  0  0  0  0  0
    6.2230   10.6140   16.4750 C   0  0  0  0  0  0  0  0  0  0  0  0
    5.5740    9.8480   15.5350 C   0  0  0  0  0  0  0  0  0  0  0  0
    6.2450    9.2790   14.4740 C   0  0  0  0  0  0  0  0  0  0  0  0
    7.5940    9.4990   14.3780 C   0  0  0  0  0  0  0  0  0  0  0  0
    8.2850   10.2720   15.3140 C   0  0  0  0  0  0  0  0  0  0  0  0
    5.5020    8.4540   13.4930 C   0  0  0  0  0  0  0  0  0  0  0  0
    5.0220    9.0750   12.5210 O   0  0  0  0  0  0  0  0  0  0  0  0
    5.3470    7.0840   13.6380 N   0  0  0  0  0  0  0  0  0  0  0  0
    5.9350    6.1650   14.5360 C   0  0  0  0  0  0  0  0  0  0  0  0
    7.3260    5.7430   14.3060 C   0  0  0  0  0  0  0  0  0  0  0  0
    7.9380    5.8390   13.0400 N   0  0  0  0  0  0  0  0  0  0  0  0
    9.3670    6.0310   13.0120 C   0  0  0  0  0  0  0  0  0  0  0  0
   10.0180    5.8700   14.0560 O   0  0  0  0  0  0  0  0  0  0  0  0
   10.0730    6.4140   11.7670 C   0  0  0  0  0  0  0  0  0  0  0  0
    9.5610    5.5350   10.6480 C   0  0  0  0  0  0  0  0  0  0  0  0
   10.1060    4.1450   10.8870 C   0  0  0  0  0  0  0  0  0  0  0  0
   11.5380    4.2330   10.6170 N   0  0  0  0  0  0  0  0  0  0  0  0
   12.2540    5.4170   10.9530 C   0  0  0  0  0  0  0  0  0  0  0  0
   11.5520    6.3490   11.8730 C   0  0  0  0  0  0  0  0  0  0  0  0
   12.1610    3.1120   10.0220 C   0  0  0  0  0  0  0  0  0  0  0  0
   11.4700    2.1240    9.4220 N   0  0  0  0  0  0  0  0  0  0  0  0
   12.0350    1.0700    8.8640 N   0  0  0  0  0  0  0  0  0  0  0  0
   11.5240    0.0160    8.2370 N   0  0  0  0  0  0  0  0  0  0  0  0
   12.4740   -0.7890    7.8430 N   0  0  0  0  0  0  0  0  0  0  0  0
   13.6250   -0.2660    8.2090 N   0  0  0  0  0  0  0  0  0  0  0  0
   13.3610    0.8940    8.8470 C   0  0  0  0  0  0  0  0  0  0  0  0
   14.1280    1.8750    9.4490 C   0  0  0  0  0  0  0  0  0  0  0  0
   13.5380    2.9780   10.0330 C   0  0  0  0  0  0  0  0  0  0  0  0
    5.6880   11.0630   17.3130 H   0  0  0  0  0  0  0  0  0  0  0  0
    4.5010    9.6720   15.6080 H   0  0  0  0  0  0  0  0  0  0  0  0
    8.1860    9.0930   13.5910 H   0  0  0  0  0  0  0  0  0  0  0  0
    9.3460   10.4460   15.2410 H   0  0  0  0  0  0  0  0  0  0  0  0
    4.6190    6.6710   12.9050 H   0  0  0  0  0  0  0  0  0  0  0  0
    5.8370    6.5680   15.5930 H   0  0  0  0  0  0  0  0  0  0  0  0
    5.2750    5.2370   14.5150 H   0  0  0  0  0  0  0  0  0  0  0  0
    7.4860    4.7010   14.7630 H   0  0  0  0  0  0  0  0  0  0  0  0
    7.9890    6.3620   15.0120 H   0  0  0  0  0  0  0  0  0  0  0  0
    7.5000    5.7600   12.1260 H   0  0  0  0  0  0  0  0  0  0  0  0
    9.7740    7.4540   11.4720 H   0  0  0  0  0  0  0  0  0  0  0  0
   10.0140    5.9160    9.7050 H   0  0  0  0  0  0  0  0  0  0  0  0
    8.4580    5.5500   10.5780 H   0  0  0  0  0  0  0  0  0  0  0  0
    9.6470    3.4050   10.1900 H   0  0  0  0  0  0  0  0  0  0  0  0
   10.0170    3.7980   11.9260 H   0  0  0  0  0  0  0  0  0  0  0  0
   12.4720    5.9810   10.0010 H   0  0  0  0  0  0  0  0  0  0  0  0
   13.2520    5.1830   11.4030 H   0  0  0  0  0  0  0  0  0  0  0  0
   11.9620    7.3990   11.8070 H   0  0  0  0  0  0  0  0  0  0  0  0
   11.7860    6.0580   12.9420 H   0  0  0  0  0  0  0  0  0  0  0  0
   15.2090    1.7410    9.4420 H   0  0  0  0  0  0  0  0  0  0  0  0
   14.1550    3.7450   10.5020 H   0  0  0  0  0  0  0  0  0  0  0  0
  2  3  1  0  0  0  0
  2  1  1  0  0  0  0
  3 31  1  0  0  0  0
  4 32  1  0  0  0  0
  4  3  2  0  0  0  0
  5  4  1  0  0  0  0
  6  5  2  0  0  0  0
  6  7  1  0  0  0  0
  7  2  2  0  0  0  0
  8 10  1  0  0  0  0
  8  5  1  0  0  0  0
  9  8  2  0  0  0  0
 10 11  1  0  0  0  0
 11 36  1  0  0  0  0
 12 11  1  0  0  0  0
 12 38  1  0  0  0  0
 12 39  1  0  0  0  0
 13 12  1  0  0  0  0
 14 13  1  0  0  0  0
 14 15  2  0  0  0  0
 16 21  1  0  0  0  0
 16 14  1  0  0  0  0
 17 18  1  0  0  0  0
 17 16  1  0  0  0  0
 18 45  1  0  0  0  0
 19 18  1  0  0  0  0
 19 20  1  0  0  0  0
 20 47  1  0  0  0  0
 20 21  1  0  0  0  0
 21 49  1  0  0  0  0
 22 30  1  0  0  0  0
 22 19  1  0  0  0  0
 23 22  2  0  0  0  0
 24 23  1  0  0  0  0
 25 24  1  0  0  0  0
 26 27  1  0  0  0  0
 26 25  2  0  0  0  0
 27 28  2  0  0  0  0
 28 24  1  0  0  0  0
 28 29  1  0  0  0  0
 29 30  2  0  0  0  0
 30 51  1  0  0  0  0
 33  6  1  0  0  0  0
 34  7  1  0  0  0  0
 35 10  1  0  0  0  0
 37 11  1  0  0  0  0
 40 13  1  0  0  0  0
 41 16  1  0  0  0  0
 42 17  1  0  0  0  0
 43 17  1  0  0  0  0
 44 18  1  0  0  0  0
 46 20  1  0  0  0  0
 48 21  1  0  0  0  0
 50 29  1  0  0  0  0
M  END
>  <Pose>
1

>  <Score>
-6.22

$$$$
