
 OpenBabel03172210413D

 53 56  0  0  1  0  0  0  0  0999 V2000
    5.0550    8.6800   14.1780 B   0  0  0  0  0  0  0  0  0  0  0  0
    6.8640    8.1910   13.7470 C   0  0  0  0  0  0  0  0  0  0  0  0
    7.4080    7.0000   14.1700 C   0  0  0  0  0  0  0  0  0  0  0  0
    8.6860    6.6020   13.8940 C   0  0  0  0  0  0  0  0  0  0  0  0
    9.4880    7.4430   13.1440 C   0  0  0  0  0  0  0  0  0  0  0  0
    8.9680    8.6400   12.7080 C   0  0  0  0  0  0  0  0  0  0  0  0
    7.6590    9.0340   12.9980 C   0  0  0  0  0  0  0  0  0  0  0  0
   10.8530    7.0810   12.7800 C   0  0  0  0  0  0  0  0  0  0  0  0
   11.1020    6.3230   11.7310 C   0  0  0  0  0  0  0  0  0  0  0  0
   12.4130    5.8380   11.1920 C   0  0  2  0  0  0  0  0  0  0  0  0
   12.1110    4.4970   10.8440 N   0  0  0  0  0  0  0  0  0  0  0  0
   10.8110    4.5990   10.1850 C   0  0  0  0  0  0  0  0  0  0  0  0
   10.3350    3.8380    9.3030 O   0  0  0  0  0  0  0  0  0  0  0  0
   10.1610    5.7720   10.7560 C   0  0  0  0  0  0  0  0  0  0  0  0
    9.0150    6.2780   10.5120 O   0  0  0  0  0  0  0  0  0  0  0  0
   12.8110    3.2330   10.9620 C   0  0  0  0  0  0  0  0  0  0  0  0
   13.6530    2.8090    9.8220 C   0  0  0  0  0  0  0  0  0  0  0  0
   13.9890    1.3810    9.8240 N   0  0  0  0  0  4  0  0  0  0  0  0
   15.1960    1.1570    9.1060 C   0  0  0  0  0  0  0  0  0  0  0  0
   15.0930    0.3490    7.8600 C   0  0  0  0  0  0  0  0  0  0  0  0
   14.0560   -0.5630    7.8230 O   0  0  0  0  0  0  0  0  0  0  0  0
   12.8820    0.2160    7.9390 C   0  0  0  0  0  0  0  0  0  0  0  0
   12.8340    0.6740    9.3540 C   0  0  0  0  0  0  0  0  0  0  0  0
   13.5460    6.2030   11.9750 C   0  0  0  0  0  0  0  0  0  0  0  0
   14.1520    5.2540   12.7620 C   0  0  0  0  0  0  0  0  0  0  0  0
   15.2580    5.5240   13.5310 C   0  0  0  0  0  0  0  0  0  0  0  0
   15.8140    6.7950   13.5400 C   0  0  0  0  0  0  0  0  0  0  0  0
   15.1910    7.7350   12.7430 C   0  0  0  0  0  0  0  0  0  0  0  0
   14.0830    7.4550   11.9750 C   0  0  0  0  0  0  0  0  0  0  0  0
   17.2190    7.1530   14.5120 Cl  0  0  0  0  0  0  0  0  0  0  0  0
   11.8630    7.5740   13.5870 O   0  0  0  0  0  0  0  0  0  0  0  0
    6.7690    6.3560   14.7560 H   0  0  0  0  0  0  0  0  0  0  0  0
    9.1290    5.6720   14.2180 H   0  0  0  0  0  0  0  0  0  0  0  0
    9.5460    9.3370   12.0970 H   0  0  0  0  0  0  0  0  0  0  0  0
    7.2850    9.9940   12.6330 H   0  0  0  0  0  0  0  0  0  0  0  0
   12.4780    6.3820   10.1910 H   0  0  0  0  0  0  0  0  0  0  0  0
   13.5140    3.2710   11.8580 H   0  0  0  0  0  0  0  0  0  0  0  0
   12.0970    2.4200   11.2980 H   0  0  0  0  0  0  0  0  0  0  0  0
   14.5980    3.3250    9.6680 H   0  0  0  0  0  0  0  0  0  0  0  0
   12.9790    2.9270    8.9040 H   0  0  0  0  0  0  0  0  0  0  0  0
   14.1220    1.1430   10.8550 H   0  0  0  0  0  0  0  0  0  0  0  0
   15.7090    2.1420    8.8930 H   0  0  0  0  0  0  0  0  0  0  0  0
   15.9050    0.5950    9.7850 H   0  0  0  0  0  0  0  0  0  0  0  0
   14.9100    1.0540    6.9960 H   0  0  0  0  0  0  0  0  0  0  0  0
   16.0170   -0.2030    7.6060 H   0  0  0  0  0  0  0  0  0  0  0  0
   12.8580    1.0360    7.2080 H   0  0  0  0  0  0  0  0  0  0  0  0
   12.0240   -0.4380    7.7250 H   0  0  0  0  0  0  0  0  0  0  0  0
   11.8900    1.2600    9.5000 H   0  0  0  0  0  0  0  0  0  0  0  0
   12.6980   -0.2470    9.9890 H   0  0  0  0  0  0  0  0  0  0  0  0
   13.7580    4.2130   12.8040 H   0  0  0  0  0  0  0  0  0  0  0  0
   15.7300    4.7740   14.1470 H   0  0  0  0  0  0  0  0  0  0  0  0
   15.6450    8.7290   12.7650 H   0  0  0  0  0  0  0  0  0  0  0  0
   13.6990    8.2800   11.3820 H   0  0  0  0  0  0  0  0  0  0  0  0
  2  3  1  0  0  0  0
  2  1  1  0  0  0  0
  3 32  1  0  0  0  0
  4  3  2  0  0  0  0
  4 33  1  0  0  0  0
  5  4  1  0  0  0  0
  6  7  1  0  0  0  0
  6  5  2  0  0  0  0
  7  2  2  0  0  0  0
  8  5  1  0  0  0  0
  8 31  1  0  0  0  0
  9  8  2  0  0  0  0
 10 36  1  6  0  0  0
 10  9  1  0  0  0  0
 10 24  1  0  0  0  0
 11 16  1  0  0  0  0
 11 10  1  0  0  0  0
 12 14  1  0  0  0  0
 12 11  1  0  0  0  0
 13 12  2  0  0  0  0
 14  9  1  0  0  0  0
 15 14  2  0  0  0  0
 16 38  1  0  0  0  0
 16 37  1  0  0  0  0
 17 18  1  0  0  0  0
 17 16  1  0  0  0  0
 18 41  1  0  0  0  0
 19 43  1  0  0  0  0
 19 18  1  0  0  0  0
 20 19  1  0  0  0  0
 21 20  1  0  0  0  0
 21 22  1  0  0  0  0
 22 23  1  0  0  0  0
 23 48  1  0  0  0  0
 23 18  1  0  0  0  0
 23 49  1  0  0  0  0
 24 25  1  0  0  0  0
 25 50  1  0  0  0  0
 25 26  2  0  0  0  0
 26 27  1  0  0  0  0
 26 51  1  0  0  0  0
 27 30  1  0  0  0  0
 28 52  1  0  0  0  0
 28 27  2  0  0  0  0
 29 24  2  0  0  0  0
 29 28  1  0  0  0  0
 34  6  1  0  0  0  0
 35  7  1  0  0  0  0
 39 17  1  0  0  0  0
 40 17  1  0  0  0  0
 42 19  1  0  0  0  0
 44 20  1  0  0  0  0
 45 20  1  0  0  0  0
 46 22  1  0  0  0  0
 47 22  1  0  0  0  0
 53 29  1  0  0  0  0
M  END
>  <Pose>
1

>  <Score>
-5.61

$$$$
