
 OpenBabel03172210413D

 49 52  0  0  0  0  0  0  0  0999 V2000
   21.3790    2.5730   12.6120 B   0  0  0  0  0  0  0  0  0  0  0  0
   19.7820    3.5940   12.3380 C   0  0  0  0  0  0  0  0  0  0  0  0
   19.4780    4.6780   13.1370 C   0  0  0  0  0  0  0  0  0  0  0  0
   18.3160    5.4170   12.9340 C   0  0  0  0  0  0  0  0  0  0  0  0
   17.4250    5.0940   11.9310 C   0  0  0  0  0  0  0  0  0  0  0  0
   17.7340    4.0110   11.1370 C   0  0  0  0  0  0  0  0  0  0  0  0
   18.8860    3.2780   11.3370 C   0  0  0  0  0  0  0  0  0  0  0  0
   16.2280    5.8260   11.6940 N   0  0  0  0  0  0  0  0  0  0  0  0
   14.9480    5.4200   11.7150 C   0  0  0  0  0  0  0  0  0  0  0  0
   14.6200    4.2330   11.9720 O   0  0  0  0  0  0  0  0  0  0  0  0
   14.0870    6.4650   11.4250 C   0  0  0  0  0  0  0  0  0  0  0  0
   14.8590    7.5250   11.2230 C   0  0  0  0  0  0  0  0  0  0  0  0
   14.0240    8.5370   10.9420 N   0  0  0  0  0  0  0  0  0  0  0  0
   12.7760    8.1060   10.9700 N   0  0  0  0  0  0  0  0  0  0  0  0
   12.7930    6.8340   11.2660 N   0  0  0  0  0  0  0  0  0  0  0  0
   11.6640    5.9460   11.4070 C   0  0  0  0  0  0  0  0  0  0  0  0
   10.5520    6.4100   10.4950 C   0  0  0  0  0  0  0  0  0  0  0  0
   10.3990    5.8510    9.3870 O   0  0  0  0  0  0  0  0  0  0  0  0
    9.7060    7.4560   10.8930 N   0  0  0  0  0  0  0  0  0  0  0  0
    8.5800    7.3340   11.7300 C   0  0  0  0  0  0  0  0  0  0  0  0
    7.4290    8.0760   11.6460 C   0  0  0  0  0  0  0  0  0  0  0  0
    6.3650    7.9190   12.5100 C   0  0  0  0  0  0  0  0  0  0  0  0
    6.4710    6.9680   13.5030 C   0  0  0  0  0  0  0  0  0  0  0  0
    7.6160    6.1970   13.6220 C   0  0  0  0  0  0  0  0  0  0  0  0
    8.6600    6.3710   12.7550 C   0  0  0  0  0  0  0  0  0  0  0  0
    5.4090    6.7930   14.3850 O   0  0  0  0  0  0  0  0  0  0  0  0
    5.6030    7.0580   15.7600 C   0  0  0  0  0  0  0  0  0  0  0  0
    5.2080    8.6870   12.3990 O   0  0  0  0  0  0  0  0  0  0  0  0
    4.1620    8.1910   11.5540 C   0  0  0  0  0  0  0  0  0  0  0  0
   16.1740    7.1410   11.3860 C   0  0  0  0  0  0  0  0  0  0  0  0
   17.1870    7.9070   11.2660 O   0  0  0  0  0  0  0  0  0  0  0  0
   20.1860    4.9260   13.9270 H   0  0  0  0  0  0  0  0  0  0  0  0
   18.0870    6.2600   13.5620 H   0  0  0  0  0  0  0  0  0  0  0  0
   17.0270    3.7640   10.3480 H   0  0  0  0  0  0  0  0  0  0  0  0
   19.1030    2.4240   10.6900 H   0  0  0  0  0  0  0  0  0  0  0  0
   14.2820    9.5210   10.7280 H   0  0  0  0  0  0  0  0  0  0  0  0
   11.8940    8.6730   10.7890 H   0  0  0  0  0  0  0  0  0  0  0  0
   11.2520    5.9320   12.4440 H   0  0  0  0  0  0  0  0  0  0  0  0
   11.9140    4.9220   11.0880 H   0  0  0  0  0  0  0  0  0  0  0  0
    9.9480    8.4340   10.5280 H   0  0  0  0  0  0  0  0  0  0  0  0
    7.3160    8.8220   10.8710 H   0  0  0  0  0  0  0  0  0  0  0  0
    7.6670    5.4540   14.4200 H   0  0  0  0  0  0  0  0  0  0  0  0
    9.5670    5.7500   12.8620 H   0  0  0  0  0  0  0  0  0  0  0  0
    6.0070    8.0970   15.8230 H   0  0  0  0  0  0  0  0  0  0  0  0
    6.3460    6.3610   16.1680 H   0  0  0  0  0  0  0  0  0  0  0  0
    4.6190    7.0040   16.2820 H   0  0  0  0  0  0  0  0  0  0  0  0
    3.7490    7.2350   11.9800 H   0  0  0  0  0  0  0  0  0  0  0  0
    3.3470    8.9370   11.4630 H   0  0  0  0  0  0  0  0  0  0  0  0
    4.5550    7.9720   10.5400 H   0  0  0  0  0  0  0  0  0  0  0  0
  2  1  1  0  0  0  0
  2  3  1  0  0  0  0
  3 32  1  0  0  0  0
  4  3  2  0  0  0  0
  4 33  1  0  0  0  0
  5  4  1  0  0  0  0
  6  7  1  0  0  0  0
  6  5  2  0  0  0  0
  7  2  2  0  0  0  0
  8  9  1  0  0  0  0
  8  5  1  0  0  0  0
  9 10  2  0  0  0  0
 11  9  1  0  0  0  0
 12 30  1  0  0  0  0
 12 11  2  0  0  0  0
 13 14  1  0  0  0  0
 13 12  1  0  0  0  0
 14 15  1  0  0  0  0
 15 16  1  0  0  0  0
 15 11  1  0  0  0  0
 16 38  1  0  0  0  0
 17 19  1  0  0  0  0
 17 16  1  0  0  0  0
 18 17  2  0  0  0  0
 19 20  1  0  0  0  0
 20 25  1  0  0  0  0
 21 20  2  0  0  0  0
 21 22  1  0  0  0  0
 22 23  2  0  0  0  0
 23 24  1  0  0  0  0
 23 26  1  0  0  0  0
 24 42  1  0  0  0  0
 25 43  1  0  0  0  0
 25 24  2  0  0  0  0
 26 27  1  0  0  0  0
 27 44  1  0  0  0  0
 27 45  1  0  0  0  0
 27 46  1  0  0  0  0
 28 22  1  0  0  0  0
 29 47  1  0  0  0  0
 29 28  1  0  0  0  0
 30  8  1  0  0  0  0
 31 30  2  0  0  0  0
 34  6  1  0  0  0  0
 35  7  1  0  0  0  0
 36 13  1  0  0  0  0
 37 14  1  0  0  0  0
 39 16  1  0  0  0  0
 40 19  1  0  0  0  0
 41 21  1  0  0  0  0
 48 29  1  0  0  0  0
 49 29  1  0  0  0  0
M  END
>  <Pose>
1

>  <Score>
-6.76

$$$$
