
 OpenBabel03172210413D

 49 52  0  0  0  0  0  0  0  0999 V2000
    5.1490    7.4620   17.4150 Cl  0  0  0  0  0  0  0  0  0  0  0  0
    5.5330    7.1850   15.7220 C   0  0  0  0  0  0  0  0  0  0  0  0
    4.8140    7.8540   14.7710 C   0  0  0  0  0  0  0  0  0  0  0  0
    5.1200    7.6400   13.4230 C   0  0  0  0  0  0  0  0  0  0  0  0
    6.1210    6.7740   13.0920 C   0  0  0  0  0  0  0  0  0  0  0  0
    6.8350    6.1100   14.0300 C   0  0  0  0  0  0  0  0  0  0  0  0
    6.5350    6.3200   15.3900 C   0  0  0  0  0  0  0  0  0  0  0  0
    6.4370    6.5550   11.6430 C   0  0  0  0  0  0  0  0  0  0  0  0
    5.8960    7.3730   10.8540 O   0  0  0  0  0  0  0  0  0  0  0  0
    7.2550    5.5230   11.3240 N   0  0  0  0  0  0  0  0  0  0  0  0
    8.0810    4.4790   11.0010 C   0  0  0  0  0  0  0  0  0  0  0  0
    9.5170    4.6480   11.2150 C   0  0  0  0  0  0  0  0  0  0  0  0
    9.8200    5.4770   12.1880 O   0  0  0  0  0  0  0  0  0  0  0  0
   10.6200    4.0930   10.5810 N   0  0  0  0  0  0  0  0  0  0  0  0
   11.8010    4.8120   10.2350 C   0  0  0  0  0  0  0  0  0  0  0  0
   12.6270    3.9340    9.2660 C   0  0  0  0  0  0  0  0  0  0  0  0
   13.1300    2.7580   10.0800 C   0  0  0  0  0  0  0  0  0  0  0  0
   13.9400    3.2310   11.1270 N   0  0  0  0  0  0  0  0  0  0  0  0
   15.3000    3.4870   10.9210 C   0  0  0  0  0  0  0  0  0  0  0  0
   16.0440    2.5780   10.0170 C   0  0  0  0  0  0  0  0  0  0  0  0
   15.1720    1.7600    9.1470 C   0  0  0  0  0  0  0  0  0  0  0  0
   15.5400    0.8440    8.2300 N   0  0  0  0  0  0  0  0  0  0  0  0
   14.4310    0.3450    7.6740 C   0  0  0  0  0  0  0  0  0  0  0  0
   13.3640    0.9500    8.2440 N   0  0  0  0  0  0  0  0  0  0  0  0
   13.8070    1.8310    9.1610 C   0  0  0  0  0  0  0  0  0  0  0  0
   11.9050    2.0780   10.7160 C   0  0  0  0  0  0  0  0  0  0  0  0
   10.6130    2.6660   10.2200 C   0  0  0  0  0  0  0  0  0  0  0  0
    4.0240    8.5370   15.0300 H   0  0  0  0  0  0  0  0  0  0  0  0
    4.5790    8.1410   12.6400 H   0  0  0  0  0  0  0  0  0  0  0  0
    7.6390    5.4160   13.8090 H   0  0  0  0  0  0  0  0  0  0  0  0
    7.0950    5.7950   16.1490 H   0  0  0  0  0  0  0  0  0  0  0  0
    6.2650    4.9420   10.5640 H   0  0  0  0  0  0  0  0  0  0  0  0
    7.9460    4.1980    9.8850 H   0  0  0  0  0  0  0  0  0  0  0  0
    7.7720    3.4730   11.4750 H   0  0  0  0  0  0  0  0  0  0  0  0
   12.4380    5.0250   11.0890 H   0  0  0  0  0  0  0  0  0  0  0  0
   11.4860    5.7350    9.6700 H   0  0  0  0  0  0  0  0  0  0  0  0
   13.4770    4.5450    8.9010 H   0  0  0  0  0  0  0  0  0  0  0  0
   11.9720    3.6470    8.4490 H   0  0  0  0  0  0  0  0  0  0  0  0
   13.5060    3.5470   11.9860 H   0  0  0  0  0  0  0  0  0  0  0  0
   15.8080    3.4260   11.9330 H   0  0  0  0  0  0  0  0  0  0  0  0
   15.4370    4.5720   10.6320 H   0  0  0  0  0  0  0  0  0  0  0  0
   16.6900    1.8530   10.5950 H   0  0  0  0  0  0  0  0  0  0  0  0
   16.7880    3.1730    9.4250 H   0  0  0  0  0  0  0  0  0  0  0  0
   14.3830   -0.4140    6.9030 H   0  0  0  0  0  0  0  0  0  0  0  0
   12.3730    0.7620    8.0070 H   0  0  0  0  0  0  0  0  0  0  0  0
   11.9190    0.9800   10.5310 H   0  0  0  0  0  0  0  0  0  0  0  0
   11.9170    2.2010   11.8330 H   0  0  0  0  0  0  0  0  0  0  0  0
    9.7980    2.1320   10.7780 H   0  0  0  0  0  0  0  0  0  0  0  0
   10.4430    2.5320    9.1490 H   0  0  0  0  0  0  0  0  0  0  0  0
  2  1  1  0  0  0  0
  3 28  1  0  0  0  0
  3  2  2  0  0  0  0
  4  3  1  0  0  0  0
  5  4  2  0  0  0  0
  5  6  1  0  0  0  0
  6  7  2  0  0  0  0
  7  2  1  0  0  0  0
  7 31  1  0  0  0  0
  8  5  1  0  0  0  0
  9  8  2  0  0  0  0
 10  8  1  0  0  0  0
 11 12  1  0  0  0  0
 11 10  1  0  0  0  0
 11 34  1  0  0  0  0
 12 13  2  0  0  0  0
 14 12  1  0  0  0  0
 15 14  1  0  0  0  0
 15 35  1  0  0  0  0
 16 17  1  0  0  0  0
 16 15  1  0  0  0  0
 17 26  1  0  0  0  0
 17 18  1  0  0  0  0
 18 39  1  0  0  0  0
 19 18  1  0  0  0  0
 19 40  1  0  0  0  0
 20 42  1  0  0  0  0
 20 19  1  0  0  0  0
 21 25  2  0  0  0  0
 21 20  1  0  0  0  0
 22 21  1  0  0  0  0
 23 22  2  0  0  0  0
 23 24  1  0  0  0  0
 24 25  1  0  0  0  0
 25 17  1  0  0  0  0
 26 47  1  0  0  0  0
 27 14  1  0  0  0  0
 27 26  1  0  0  0  0
 27 48  1  0  0  0  0
 29  4  1  0  0  0  0
 30  6  1  0  0  0  0
 32 10  1  0  0  0  0
 33 11  1  0  0  0  0
 36 15  1  0  0  0  0
 37 16  1  0  0  0  0
 38 16  1  0  0  0  0
 41 19  1  0  0  0  0
 43 20  1  0  0  0  0
 44 23  1  0  0  0  0
 45 24  1  0  0  0  0
 46 26  1  0  0  0  0
 49 27  1  0  0  0  0
M  END
>  <Pose>
1

>  <Score>
-6.89

$$$$
