
 OpenBabel03172210413D

 41 44  0  0  1  0  0  0  0  0999 V2000
   18.6720    4.6420   11.1050 Cl  0  0  0  0  0  0  0  0  0  0  0  0
   16.9450    4.4900   11.3520 C   0  0  0  0  0  0  0  0  0  0  0  0
   16.2230    3.6300   10.5600 C   0  0  0  0  0  0  0  0  0  0  0  0
   16.5260    2.7980    9.5500 N   0  0  0  0  0  0  0  0  0  0  0  0
   15.4350    2.1550    9.0930 C   0  0  0  0  0  0  0  0  0  0  0  0
   14.3880    2.6150    9.8630 C   0  0  0  0  0  0  0  0  0  0  0  0
   14.8590    3.5310   10.7790 C   0  0  0  0  0  0  0  0  0  0  0  0
   14.2760    4.2900   11.7730 C   0  0  0  0  0  0  0  0  0  0  0  0
   14.9750    5.1560   12.5780 C   0  0  0  0  0  0  0  0  0  0  0  0
   16.3440    5.2520   12.3540 C   0  0  0  0  0  0  0  0  0  0  0  0
   13.0560    2.0420    9.5460 C   0  0  0  0  0  0  0  0  0  0  0  0
   13.2610    0.6110    9.5460 N   0  0  0  0  0  0  0  0  0  0  0  0
   14.0820    0.1300    8.5030 C   0  0  0  0  0  0  0  0  0  0  0  0
   15.0910    1.1620    8.0540 C   0  0  0  0  0  0  0  0  0  0  0  0
   12.1510   -0.1460    9.9410 C   0  0  0  0  0  0  0  0  0  0  0  0
   10.9330    0.1130    9.1080 C   0  0  1  0  0  0  0  0  0  0  0  0
   11.1830    0.0230    7.6430 C   0  0  0  0  0  0  0  0  0  0  0  0
   10.3070   -0.9270    7.0470 N   0  0  0  0  0  0  0  0  0  0  0  0
    9.5100   -1.5330    8.0630 C   0  0  0  0  0  0  0  0  0  0  0  0
    9.9270   -0.9720    9.3810 C   0  0  0  0  0  0  0  0  0  0  0  0
   10.3260    1.3240    9.4670 O   0  0  0  0  0  0  0  0  0  0  0  0
   17.4860    2.6340    9.1340 H   0  0  0  0  0  0  0  0  0  0  0  0
   13.2140    4.1940   11.9230 H   0  0  0  0  0  0  0  0  0  0  0  0
   14.5110    5.7490   13.3580 H   0  0  0  0  0  0  0  0  0  0  0  0
   16.9130    5.9290   12.9780 H   0  0  0  0  0  0  0  0  0  0  0  0
   12.8010    2.4190    8.5140 H   0  0  0  0  0  0  0  0  0  0  0  0
   12.2890    2.2760   10.2820 H   0  0  0  0  0  0  0  0  0  0  0  0
   14.6910   -0.7560    8.8400 H   0  0  0  0  0  0  0  0  0  0  0  0
   13.5110   -0.1630    7.5840 H   0  0  0  0  0  0  0  0  0  0  0  0
   16.0270    0.6600    7.7290 H   0  0  0  0  0  0  0  0  0  0  0  0
   14.7240    1.7010    7.1440 H   0  0  0  0  0  0  0  0  0  0  0  0
   11.8630   -0.0590   11.0070 H   0  0  0  0  0  0  0  0  0  0  0  0
   12.4000   -1.2400    9.8020 H   0  0  0  0  0  0  0  0  0  0  0  0
   11.1780    1.0070    7.1170 H   0  0  0  0  0  0  0  0  0  0  0  0
   12.2330   -0.3670    7.5050 H   0  0  0  0  0  0  0  0  0  0  0  0
    9.7320   -0.5400    6.2620 H   0  0  0  0  0  0  0  0  0  0  0  0
    8.4300   -1.4110    7.8500 H   0  0  0  0  0  0  0  0  0  0  0  0
    9.6860   -2.6410    8.1060 H   0  0  0  0  0  0  0  0  0  0  0  0
    8.9950   -0.5630    9.8620 H   0  0  0  0  0  0  0  0  0  0  0  0
   10.3430   -1.7420   10.0710 H   0  0  0  0  0  0  0  0  0  0  0  0
    9.6420    1.5010    8.7690 H   0  0  0  0  0  0  0  0  0  0  0  0
  1  2  1  0  0  0  0
  2 10  1  0  0  0  0
  3  7  1  0  0  0  0
  3  2  2  0  0  0  0
  4  3  1  0  0  0  0
  5  4  1  0  0  0  0
  5  6  2  0  0  0  0
  6  7  1  0  0  0  0
  7  8  2  0  0  0  0
  8 23  1  0  0  0  0
  8  9  1  0  0  0  0
  9 24  1  0  0  0  0
 10  9  2  0  0  0  0
 10 25  1  0  0  0  0
 11  6  1  0  0  0  0
 11 27  1  0  0  0  0
 12 11  1  0  0  0  0
 12 15  1  0  0  0  0
 13 28  1  0  0  0  0
 13 12  1  0  0  0  0
 14 13  1  0  0  0  0
 14  5  1  0  0  0  0
 15 32  1  0  0  0  0
 16 20  1  0  0  0  0
 16 21  1  1  0  0  0
 16 15  1  0  0  0  0
 17 16  1  0  0  0  0
 18 17  1  0  0  0  0
 18 19  1  0  0  0  0
 19 38  1  0  0  0  0
 19 20  1  0  0  0  0
 20 39  1  0  0  0  0
 20 40  1  0  0  0  0
 22  4  1  0  0  0  0
 26 11  1  0  0  0  0
 29 13  1  0  0  0  0
 30 14  1  0  0  0  0
 31 14  1  0  0  0  0
 33 15  1  0  0  0  0
 34 17  1  0  0  0  0
 35 17  1  0  0  0  0
 36 18  1  0  0  0  0
 37 19  1  0  0  0  0
 41 21  1  0  0  0  0
M  END
>  <Pose>
1

>  <Score>
-5.10

$$$$
