
 OpenBabel03172210413D

 44 47  0  0  1  0  0  0  0  0999 V2000
    6.0500    6.4420   14.7190 B   0  0  0  0  0  0  0  0  0  0  0  0
    7.1590    7.3190   13.4440 C   0  0  0  0  0  0  0  0  0  0  0  0
    8.2010    6.6510   12.8070 C   0  0  0  0  0  0  0  0  0  0  0  0
    9.0000    7.2920   11.8850 C   0  0  0  0  0  0  0  0  0  0  0  0
    8.7040    8.6280   11.6360 C   0  0  0  0  0  0  0  0  0  0  0  0
    7.6840    9.3010   12.2510 C   0  0  0  0  0  0  0  0  0  0  0  0
    6.9010    8.6440   13.1670 C   0  0  0  0  0  0  0  0  0  0  0  0
   10.0820    6.6530   11.2060 N   0  0  0  0  0  0  0  0  0  0  0  0
   11.4470    7.0250   11.3510 C   0  0  0  0  0  0  0  0  0  0  0  0
   11.8170    8.1610   11.7340 O   0  0  0  0  0  0  0  0  0  0  0  0
   12.2440    5.8630   10.9760 C   0  0  2  0  0  0  0  0  0  0  0  0
   11.3690    5.1610    9.9590 C   0  0  0  0  0  0  0  0  0  0  0  0
    9.9870    5.5520   10.2940 C   0  0  0  0  0  0  0  0  0  0  0  0
    8.9180    5.0350    9.8730 O   0  0  0  0  0  0  0  0  0  0  0  0
   12.6590    5.0170   12.0220 N   0  0  0  0  0  0  0  0  0  0  0  0
   14.0370    4.9150   12.2850 C   0  0  0  0  0  0  0  0  0  0  0  0
   14.5790    3.6640   11.5800 C   0  0  0  0  0  0  0  0  0  0  0  0
   13.4760    2.7850   11.2240 N   0  0  0  0  0  0  0  0  0  0  0  0
   12.3040    2.6430   12.0650 C   0  0  0  0  0  0  0  0  0  0  0  0
   11.8250    4.0070   12.5030 C   0  0  0  0  0  0  0  0  0  0  0  0
   13.4980    2.0320   10.0040 C   0  0  0  0  0  0  0  0  0  0  0  0
   12.4260    1.3130    9.6110 N   0  0  0  0  0  0  0  0  0  0  0  0
   12.4470    0.6220    8.4540 C   0  0  0  0  0  0  0  0  0  0  0  0
   13.5650    0.6230    7.6280 C   0  0  0  0  0  0  0  0  0  0  0  0
   14.6600    1.3630    8.0370 C   0  0  0  0  0  0  0  0  0  0  0  0
   14.5770    2.0310    9.2000 N   0  0  0  0  0  0  0  0  0  0  0  0
    8.3830    5.6150   13.0400 H   0  0  0  0  0  0  0  0  0  0  0  0
    9.3330    9.1420   10.9090 H   0  0  0  0  0  0  0  0  0  0  0  0
    7.4610   10.3550   12.0480 H   0  0  0  0  0  0  0  0  0  0  0  0
    6.0970    9.1820   13.6500 H   0  0  0  0  0  0  0  0  0  0  0  0
   13.1590    6.2130   10.4190 H   0  0  0  0  0  0  0  0  0  0  0  0
   11.5920    5.5810    8.9640 H   0  0  0  0  0  0  0  0  0  0  0  0
   11.5140    4.0600    9.9920 H   0  0  0  0  0  0  0  0  0  0  0  0
   14.1950    4.7450   13.3700 H   0  0  0  0  0  0  0  0  0  0  0  0
   14.6290    5.7740   12.0080 H   0  0  0  0  0  0  0  0  0  0  0  0
   15.0980    3.9600   10.6330 H   0  0  0  0  0  0  0  0  0  0  0  0
   15.2520    3.0800   12.2120 H   0  0  0  0  0  0  0  0  0  0  0  0
   12.5330    1.9690   12.9390 H   0  0  0  0  0  0  0  0  0  0  0  0
   11.4540    2.2000   11.4740 H   0  0  0  0  0  0  0  0  0  0  0  0
   10.7560    4.1770   12.2620 H   0  0  0  0  0  0  0  0  0  0  0  0
   11.8840    4.0030   13.6330 H   0  0  0  0  0  0  0  0  0  0  0  0
   11.5890    0.0380    8.1220 H   0  0  0  0  0  0  0  0  0  0  0  0
   13.5510    0.0510    6.6940 H   0  0  0  0  0  0  0  0  0  0  0  0
   15.5580    1.3910    7.4050 H   0  0  0  0  0  0  0  0  0  0  0  0
  2  1  1  0  0  0  0
  3 27  1  0  0  0  0
  3  2  2  0  0  0  0
  4  3  1  0  0  0  0
  5  4  2  0  0  0  0
  5  6  1  0  0  0  0
  6  7  2  0  0  0  0
  7  2  1  0  0  0  0
  7 30  1  0  0  0  0
  8  9  1  0  0  0  0
  8  4  1  0  0  0  0
  9 10  2  0  0  0  0
 11 31  1  6  0  0  0
 11  9  1  0  0  0  0
 11 15  1  0  0  0  0
 12 33  1  0  0  0  0
 12 13  1  0  0  0  0
 12 11  1  0  0  0  0
 13  8  1  0  0  0  0
 14 13  2  0  0  0  0
 15 16  1  0  0  0  0
 15 20  1  0  0  0  0
 16 34  1  0  0  0  0
 17 37  1  0  0  0  0
 17 16  1  0  0  0  0
 18 17  1  0  0  0  0
 18 19  1  0  0  0  0
 19 20  1  0  0  0  0
 19 38  1  0  0  0  0
 20 41  1  0  0  0  0
 21 18  1  0  0  0  0
 22 21  2  0  0  0  0
 23 22  1  0  0  0  0
 24 25  1  0  0  0  0
 24 23  2  0  0  0  0
 25 26  2  0  0  0  0
 26 21  1  0  0  0  0
 28  5  1  0  0  0  0
 29  6  1  0  0  0  0
 32 12  1  0  0  0  0
 35 16  1  0  0  0  0
 36 17  1  0  0  0  0
 39 19  1  0  0  0  0
 40 20  1  0  0  0  0
 42 23  1  0  0  0  0
 43 24  1  0  0  0  0
 44 25  1  0  0  0  0
M  END
>  <Pose>
1

>  <Score>
-5.61

$$$$
