
 OpenBabel03172210413D

 44 47  0  0  1  0  0  0  0  0999 V2000
   13.0990   -0.7510    7.7810 Cl  0  0  0  0  0  0  0  0  0  0  0  0
   12.1070    0.3680    8.6920 C   0  0  0  0  0  0  0  0  0  0  0  0
   10.7780    0.0940    8.8310 C   0  0  0  0  0  0  0  0  0  0  0  0
    9.9750    0.9560    9.5420 C   0  0  0  0  0  0  0  0  0  0  0  0
   10.5420    2.1000   10.1100 C   0  0  0  0  0  0  0  0  0  0  0  0
   11.8830    2.3820    9.9730 C   0  0  0  0  0  0  0  0  0  0  0  0
   12.6570    1.5110    9.2630 C   0  0  0  0  0  0  0  0  0  0  0  0
   12.4050    3.6070   10.5790 C   0  0  0  0  0  0  0  0  0  0  0  0
   13.6750    3.9460   10.9200 N   0  0  0  0  0  0  0  0  0  0  0  0
   13.6790    5.1740   11.4480 C   0  0  2  0  0  0  0  0  0  0  0  0
   12.4070    5.6770   11.4710 N   0  0  0  0  0  0  0  0  0  0  0  0
   11.6430    4.7090   10.9370 C   0  0  0  0  0  0  0  0  0  0  0  0
   12.0030    6.9770   11.9190 C   0  0  0  0  0  0  0  0  0  0  0  0
   10.6300    7.4020   11.9280 C   0  0  1  0  0  0  0  0  0  0  0  0
   10.0980    7.4740   10.7120 O   0  0  0  0  0  0  0  0  0  0  0  0
    9.6990    7.7660   12.9660 C   0  0  0  0  0  0  0  0  0  0  0  0
    9.1910    6.7720   13.8330 C   0  0  0  0  0  0  0  0  0  0  0  0
    8.3050    7.0220   14.8480 C   0  0  0  0  0  0  0  0  0  0  0  0
    7.9030    8.3320   15.0090 C   0  0  0  0  0  0  0  0  0  0  0  0
    8.3830    9.3190   14.1780 C   0  0  0  0  0  0  0  0  0  0  0  0
    9.2860    9.0590   13.1450 C   0  0  0  0  0  0  0  0  0  0  0  0
    7.8080    6.0110   15.7040 N   0  0  0  0  0  0  0  0  0  0  0  0
    7.9820    6.1120   16.9240 O   0  0  0  0  0  0  0  0  0  0  0  0
    7.1390    4.9240   15.2230 O   0  0  0  0  0  0  0  0  0  0  0  0
   15.0510    5.5860   11.8230 C   0  0  0  0  0  0  0  0  0  0  0  0
   15.7410    4.2570   11.9520 C   0  0  0  0  0  0  0  0  0  0  0  0
   15.0390    3.4150   10.9120 C   0  0  0  0  0  0  0  0  0  0  0  0
   10.0420   -1.3440    8.1220 Cl  0  0  0  0  0  0  0  0  0  0  0  0
    8.9340    0.7240    9.6410 H   0  0  0  0  0  0  0  0  0  0  0  0
    9.8590    2.7360   10.6560 H   0  0  0  0  0  0  0  0  0  0  0  0
   13.7100    1.6430    9.0880 H   0  0  0  0  0  0  0  0  0  0  0  0
   10.5580    4.7920   10.8090 H   0  0  0  0  0  0  0  0  0  0  0  0
   12.4860    7.1070   12.9470 H   0  0  0  0  0  0  0  0  0  0  0  0
   12.6300    7.6970   11.2900 H   0  0  0  0  0  0  0  0  0  0  0  0
    9.5060    5.7360   13.7080 H   0  0  0  0  0  0  0  0  0  0  0  0
    7.2000    8.5430   15.8100 H   0  0  0  0  0  0  0  0  0  0  0  0
    8.0580   10.3560   14.3140 H   0  0  0  0  0  0  0  0  0  0  0  0
    9.6030    9.8920   12.5540 H   0  0  0  0  0  0  0  0  0  0  0  0
   15.0940    6.0870   12.8050 H   0  0  0  0  0  0  0  0  0  0  0  0
   15.5380    6.2080   11.0240 H   0  0  0  0  0  0  0  0  0  0  0  0
   15.5170    3.8740   12.9710 H   0  0  0  0  0  0  0  0  0  0  0  0
   16.8330    4.3080   11.7560 H   0  0  0  0  0  0  0  0  0  0  0  0
   15.5440    3.6020    9.9420 H   0  0  0  0  0  0  0  0  0  0  0  0
   15.0740    2.3370   11.2080 H   0  0  0  0  0  0  0  0  0  0  0  0
  1  2  1  0  0  0  0
  2  3  2  0  0  0  0
  2  7  1  0  0  0  0
  3  4  1  0  0  0  0
  4 29  1  0  0  0  0
  4  5  2  0  0  0  0
  5 30  1  0  0  0  0
  6  5  1  0  0  0  0
  6  8  1  0  0  0  0
  7  6  2  0  0  0  0
  8  9  1  0  0  0  0
  8 12  2  0  0  0  0
 10  9  1  6  0  0  0
 10 11  1  0  0  0  0
 10 25  1  0  0  0  0
 11 13  1  0  0  0  0
 12 11  1  0  0  0  0
 13 14  1  0  0  0  0
 13 33  1  0  0  0  0
 14 15  1  1  0  0  0
 14 16  1  0  0  0  0
 16 21  2  0  0  0  0
 16 17  1  0  0  0  0
 17 18  2  0  0  0  0
 18 19  1  0  0  0  0
 18 22  1  0  0  0  0
 19 36  1  0  0  0  0
 20 37  1  0  0  0  0
 20 19  2  0  0  0  0
 21 20  1  0  0  0  0
 22 23  2  0  0  0  0
 24 22  2  0  0  0  0
 25 26  1  0  0  0  0
 25 39  1  0  0  0  0
 26 41  1  0  0  0  0
 27  9  1  0  0  0  0
 27 44  1  0  0  0  0
 27 26  1  0  0  0  0
 28  3  1  0  0  0  0
 31  7  1  0  0  0  0
 32 12  1  0  0  0  0
 34 13  1  0  0  0  0
 35 17  1  0  0  0  0
 38 21  1  0  0  0  0
 40 25  1  0  0  0  0
 42 26  1  0  0  0  0
 43 27  1  0  0  0  0
M  END
>  <Pose>
1

>  <Score>
-7.06

$$$$
