
 OpenBabel03172210413D

 55 58  0  0  0  0  0  0  0  0999 V2000
   13.2770    4.5830   11.8430 S   0  0  0  0  0  0  0  0  0  0  0  0
   12.1460    4.1500   12.7810 O   0  0  0  0  0  0  0  0  0  0  0  0
   14.4810    4.6970   12.7820 O   0  0  0  0  0  0  0  0  0  0  0  0
   12.9040    6.0720   11.2310 N   0  0  0  0  0  0  0  0  0  0  0  0
   13.3000    7.2780   11.7990 C   0  0  0  0  0  0  0  0  0  0  0  0
   12.3490    7.9110   12.7640 C   0  0  0  0  0  0  0  0  0  0  0  0
   10.9410    7.3860   12.4900 C   0  0  0  0  0  0  0  0  0  0  0  0
   10.8530    7.3750   10.9560 C   0  0  0  0  0  0  0  0  0  0  0  0
   11.6310    6.1410   10.5250 C   0  0  0  0  0  0  0  0  0  0  0  0
    9.9150    8.2240   13.0870 C   0  0  0  0  0  0  0  0  0  0  0  0
   10.2450    9.1350   13.8900 O   0  0  0  0  0  0  0  0  0  0  0  0
    8.5590    8.0460   12.7900 N   0  0  0  0  0  0  0  0  0  0  0  0
    7.7600    6.9420   13.3340 C   0  0  0  0  0  0  0  0  0  0  0  0
    6.4270    6.9890   12.6170 C   0  0  0  0  0  0  0  0  0  0  0  0
    5.7440    8.2360   12.9010 N   0  0  0  0  0  0  0  0  0  0  0  0
    6.5320    9.3800   12.4750 C   0  0  0  0  0  0  0  0  0  0  0  0
    7.8680    8.9390   11.9030 C   0  0  0  0  0  0  0  0  0  0  0  0
    4.4320    8.2620   12.2910 C   0  0  0  0  0  0  0  0  0  0  0  0
   13.5020    3.2550   10.7420 C   0  0  0  0  0  0  0  0  0  0  0  0
   12.3850    2.5050   10.3360 C   0  0  0  0  0  0  0  0  0  0  0  0
   12.4890    1.4160    9.5110 C   0  0  0  0  0  0  0  0  0  0  0  0
   13.7120    1.0290    9.0560 C   0  0  0  0  0  0  0  0  0  0  0  0
   14.8390    1.7240    9.4180 C   0  0  0  0  0  0  0  0  0  0  0  0
   14.7060    2.8310   10.2580 C   0  0  0  0  0  0  0  0  0  0  0  0
   16.1690    3.7280   10.6260 Cl  0  0  0  0  0  0  0  0  0  0  0  0
   13.8020   -0.1190    8.1960 N   0  0  0  0  0  0  0  0  0  0  0  0
   12.6220   -0.8210    7.8420 C   0  0  0  0  0  0  0  0  0  0  0  0
   12.5750   -1.5590    6.8370 O   0  0  0  0  0  0  0  0  0  0  0  0
   11.4330   -0.6460    8.7170 C   0  0  0  0  0  0  0  0  0  0  0  0
   11.3520    0.6920    9.1280 O   0  0  0  0  0  0  0  0  0  0  0  0
   14.3050    7.2500   12.2200 H   0  0  0  0  0  0  0  0  0  0  0  0
   13.4310    8.0110   10.9110 H   0  0  0  0  0  0  0  0  0  0  0  0
   12.3020    9.0090   12.5600 H   0  0  0  0  0  0  0  0  0  0  0  0
   12.5960    7.8110   13.8240 H   0  0  0  0  0  0  0  0  0  0  0  0
   10.8990    6.3430   12.8430 H   0  0  0  0  0  0  0  0  0  0  0  0
    9.8370    7.3730   10.5780 H   0  0  0  0  0  0  0  0  0  0  0  0
   11.4290    8.2870   10.6250 H   0  0  0  0  0  0  0  0  0  0  0  0
   11.7410    6.1020    9.4290 H   0  0  0  0  0  0  0  0  0  0  0  0
   11.0380    5.2610   10.8370 H   0  0  0  0  0  0  0  0  0  0  0  0
    7.5890    7.1920   14.4230 H   0  0  0  0  0  0  0  0  0  0  0  0
    8.2660    5.9850   13.2030 H   0  0  0  0  0  0  0  0  0  0  0  0
    6.6400    6.8560   11.5190 H   0  0  0  0  0  0  0  0  0  0  0  0
    5.8100    6.1370   12.9560 H   0  0  0  0  0  0  0  0  0  0  0  0
    6.7140   10.0630   13.3130 H   0  0  0  0  0  0  0  0  0  0  0  0
    5.9850    9.8680   11.6420 H   0  0  0  0  0  0  0  0  0  0  0  0
    7.7330    8.4450   10.9100 H   0  0  0  0  0  0  0  0  0  0  0  0
    8.4760    9.8240   11.7160 H   0  0  0  0  0  0  0  0  0  0  0  0
    3.8790    9.1170   12.7210 H   0  0  0  0  0  0  0  0  0  0  0  0
    3.8880    7.3400   12.5460 H   0  0  0  0  0  0  0  0  0  0  0  0
    4.4840    8.4410   11.1880 H   0  0  0  0  0  0  0  0  0  0  0  0
   11.4100    2.8250   10.7080 H   0  0  0  0  0  0  0  0  0  0  0  0
   15.8000    1.4230    9.0640 H   0  0  0  0  0  0  0  0  0  0  0  0
   14.7320   -0.4210    7.8430 H   0  0  0  0  0  0  0  0  0  0  0  0
   10.5000   -0.9280    8.1810 H   0  0  0  0  0  0  0  0  0  0  0  0
   11.5070   -1.2710    9.6190 H   0  0  0  0  0  0  0  0  0  0  0  0
  1  2  2  0  0  0  0
  1  3  2  0  0  0  0
  4  5  1  0  0  0  0
  4  1  1  0  0  0  0
  5 31  1  0  0  0  0
  5  6  1  0  0  0  0
  6 34  1  0  0  0  0
  7  6  1  0  0  0  0
  7 35  1  0  0  0  0
  7 10  1  0  0  0  0
  8  7  1  0  0  0  0
  9 39  1  0  0  0  0
  9  8  1  0  0  0  0
  9  4  1  0  0  0  0
 10 11  2  0  0  0  0
 12 10  1  0  0  0  0
 12 13  1  0  0  0  0
 13 40  1  0  0  0  0
 14 15  1  0  0  0  0
 14 43  1  0  0  0  0
 14 13  1  0  0  0  0
 16 15  1  0  0  0  0
 16 44  1  0  0  0  0
 17 16  1  0  0  0  0
 17 12  1  0  0  0  0
 18 49  1  0  0  0  0
 18 48  1  0  0  0  0
 18 15  1  0  0  0  0
 19  1  1  0  0  0  0
 20 51  1  0  0  0  0
 20 19  1  0  0  0  0
 21 20  2  0  0  0  0
 22 23  2  0  0  0  0
 22 21  1  0  0  0  0
 23 24  1  0  0  0  0
 24 25  1  0  0  0  0
 24 19  2  0  0  0  0
 26 22  1  0  0  0  0
 27 26  1  0  0  0  0
 27 29  1  0  0  0  0
 28 27  2  0  0  0  0
 29 30  1  0  0  0  0
 29 55  1  0  0  0  0
 30 21  1  0  0  0  0
 32  5  1  0  0  0  0
 33  6  1  0  0  0  0
 36  8  1  0  0  0  0
 37  8  1  0  0  0  0
 38  9  1  0  0  0  0
 41 13  1  0  0  0  0
 42 14  1  0  0  0  0
 45 16  1  0  0  0  0
 46 17  1  0  0  0  0
 47 17  1  0  0  0  0
 50 18  1  0  0  0  0
 52 23  1  0  0  0  0
 53 26  1  0  0  0  0
 54 29  1  0  0  0  0
M  END
>  <Pose>
1

>  <Score>
-6.29

$$$$
