
 OpenBabel03172210413D

 60 63  0  0  1  0  0  0  0  0999 V2000
    6.0430    8.3220   11.4000 Cl  0  0  0  0  0  0  0  0  0  0  0  0
    7.5690    7.5650   11.8520 C   0  0  0  0  0  0  0  0  0  0  0  0
    7.7970    6.2200   11.6250 C   0  0  0  0  0  0  0  0  0  0  0  0
    8.9970    5.6430   11.9850 C   0  0  0  0  0  0  0  0  0  0  0  0
   10.0190    6.3520   12.5780 C   0  0  0  0  0  0  0  0  0  0  0  0
    9.7700    7.7130   12.8000 C   0  0  0  0  0  0  0  0  0  0  0  0
    8.5740    8.2920   12.4420 C   0  0  0  0  0  0  0  0  0  0  0  0
   11.2990    5.7050   12.9540 C   0  0  2  0  0  0  0  0  0  0  0  0
   12.3430    6.7080   12.7100 N   0  0  0  0  0  0  0  0  0  0  0  0
   12.4420    6.7970   11.2960 C   0  0  0  0  0  0  0  0  0  0  0  0
   12.8090    7.7830   10.6360 O   0  0  0  0  0  0  0  0  0  0  0  0
   12.0260    5.4990   10.7750 C   0  0  0  0  0  0  0  0  0  0  0  0
   11.9400    5.0810    9.5820 O   0  0  0  0  0  0  0  0  0  0  0  0
   11.6910    4.6770   11.9470 C   0  0  0  0  0  0  0  0  0  0  0  0
   11.7210    3.3600   12.0210 C   0  0  0  0  0  0  0  0  0  0  0  0
   11.3240    2.7530   13.2160 O   0  0  0  0  0  0  0  0  0  0  0  0
   12.1500    2.5140   10.9170 C   0  0  0  0  0  0  0  0  0  0  0  0
   13.4330    2.5720   10.3980 C   0  0  0  0  0  0  0  0  0  0  0  0
   13.8280    1.7870    9.3350 C   0  0  0  0  0  0  0  0  0  0  0  0
   12.9410    0.9000    8.7400 C   0  0  0  0  0  0  0  0  0  0  0  0
   11.6630    0.8330    9.2460 C   0  0  0  0  0  0  0  0  0  0  0  0
   11.2750    1.6340   10.3240 C   0  0  0  0  0  0  0  0  0  0  0  0
   13.3240    0.1000    7.6670 O   0  0  0  0  0  0  0  0  0  0  0  0
   12.4660   -0.9190    7.2380 C   0  0  0  0  0  0  0  0  0  0  0  0
   15.2090    1.8820    8.8130 C   0  0  0  0  0  0  0  0  0  0  0  0
   13.1050    7.4510   13.7140 C   0  0  0  0  0  0  0  0  0  0  0  0
   12.5620    8.8620   13.7090 C   0  0  0  0  0  0  0  0  0  0  0  0
   12.6880    9.5070   14.9880 N   0  0  0  0  0  4  0  0  0  0  0  0
   11.4150    9.6470   15.6170 C   0  0  0  0  0  0  0  0  0  0  0  0
   10.7390   10.9660   15.4420 C   0  0  0  0  0  0  0  0  0  0  0  0
   11.5760   12.0450   15.3460 O   0  0  0  0  0  0  0  0  0  0  0  0
   12.5600   11.8910   14.3780 C   0  0  0  0  0  0  0  0  0  0  0  0
   13.4170   10.7310   14.8120 C   0  0  0  0  0  0  0  0  0  0  0  0
    7.0210    5.6320   11.1630 H   0  0  0  0  0  0  0  0  0  0  0  0
    9.2060    4.5770   11.8170 H   0  0  0  0  0  0  0  0  0  0  0  0
   10.5770    8.2610   13.2650 H   0  0  0  0  0  0  0  0  0  0  0  0
    8.4080    9.3370   12.6230 H   0  0  0  0  0  0  0  0  0  0  0  0
   11.3160    5.3320   13.9820 H   0  0  0  0  0  0  0  0  0  0  0  0
   14.1150    3.2820   10.8870 H   0  0  0  0  0  0  0  0  0  0  0  0
   10.9510    0.1350    8.7840 H   0  0  0  0  0  0  0  0  0  0  0  0
   10.2560    1.5510   10.6640 H   0  0  0  0  0  0  0  0  0  0  0  0
   12.3350   -1.6880    8.0520 H   0  0  0  0  0  0  0  0  0  0  0  0
   12.9100   -1.4880    6.3910 H   0  0  0  0  0  0  0  0  0  0  0  0
   11.4780   -0.5450    6.8960 H   0  0  0  0  0  0  0  0  0  0  0  0
   15.2550    2.5840    7.9300 H   0  0  0  0  0  0  0  0  0  0  0  0
   15.5880    0.9090    8.4470 H   0  0  0  0  0  0  0  0  0  0  0  0
   15.9010    2.2920    9.5870 H   0  0  0  0  0  0  0  0  0  0  0  0
   14.1770    7.5020   13.4580 H   0  0  0  0  0  0  0  0  0  0  0  0
   13.0010    6.9520   14.6740 H   0  0  0  0  0  0  0  0  0  0  0  0
   13.0900    9.4740   12.9540 H   0  0  0  0  0  0  0  0  0  0  0  0
   11.4830    8.8980   13.4350 H   0  0  0  0  0  0  0  0  0  0  0  0
   13.2630    8.8450   15.5830 H   0  0  0  0  0  0  0  0  0  0  0  0
   11.5560    9.5030   16.7300 H   0  0  0  0  0  0  0  0  0  0  0  0
   10.7550    8.7860   15.3230 H   0  0  0  0  0  0  0  0  0  0  0  0
   10.0180   11.1590   16.2730 H   0  0  0  0  0  0  0  0  0  0  0  0
   10.1030   10.9060   14.5100 H   0  0  0  0  0  0  0  0  0  0  0  0
   13.2090   12.8080   14.4590 H   0  0  0  0  0  0  0  0  0  0  0  0
   12.1550   11.7830   13.3620 H   0  0  0  0  0  0  0  0  0  0  0  0
   14.2220   10.6380   14.0390 H   0  0  0  0  0  0  0  0  0  0  0  0
   13.9460   11.0510   15.7420 H   0  0  0  0  0  0  0  0  0  0  0  0
  1  2  1  0  0  0  0
  2  7  1  0  0  0  0
  3  2  2  0  0  0  0
  3  4  1  0  0  0  0
  4  5  2  0  0  0  0
  5  6  1  0  0  0  0
  5  8  1  0  0  0  0
  6 36  1  0  0  0  0
  7 37  1  0  0  0  0
  7  6  2  0  0  0  0
  8 38  1  1  0  0  0
  9  8  1  0  0  0  0
  9 26  1  0  0  0  0
 10  9  1  0  0  0  0
 11 10  2  0  0  0  0
 12 10  1  0  0  0  0
 12 14  1  0  0  0  0
 13 12  2  0  0  0  0
 14 15  2  0  0  0  0
 14  8  1  0  0  0  0
 15 16  1  0  0  0  0
 17 15  1  0  0  0  0
 18 39  1  0  0  0  0
 18 17  1  0  0  0  0
 19 18  2  0  0  0  0
 20 21  2  0  0  0  0
 20 19  1  0  0  0  0
 21 22  1  0  0  0  0
 22 41  1  0  0  0  0
 22 17  2  0  0  0  0
 23 20  1  0  0  0  0
 24 23  1  0  0  0  0
 24 42  1  0  0  0  0
 25 19  1  0  0  0  0
 25 47  1  0  0  0  0
 26 49  1  0  0  0  0
 27 26  1  0  0  0  0
 27 28  1  0  0  0  0
 28 52  1  0  0  0  0
 28 29  1  0  0  0  0
 29 53  1  0  0  0  0
 30 29  1  0  0  0  0
 30 55  1  0  0  0  0
 31 30  1  0  0  0  0
 32 57  1  0  0  0  0
 32 33  1  0  0  0  0
 32 31  1  0  0  0  0
 33 28  1  0  0  0  0
 33 60  1  0  0  0  0
 34  3  1  0  0  0  0
 35  4  1  0  0  0  0
 40 21  1  0  0  0  0
 43 24  1  0  0  0  0
 44 24  1  0  0  0  0
 45 25  1  0  0  0  0
 46 25  1  0  0  0  0
 48 26  1  0  0  0  0
 50 27  1  0  0  0  0
 51 27  1  0  0  0  0
 54 29  1  0  0  0  0
 56 30  1  0  0  0  0
 58 32  1  0  0  0  0
 59 33  1  0  0  0  0
M  END
>  <Pose>
1

>  <Score>
-6.21

$$$$
