
 OpenBabel03172210413D

 39 42  0  0  1  0  0  0  0  0999 V2000
   14.3810    0.7720    7.8340 B   0  0  0  0  0  0  0  0  0  0  0  0
   14.3590    2.0220    9.2820 C   0  0  0  0  0  0  0  0  0  0  0  0
   15.5540    2.5810    9.7450 C   0  0  0  0  0  0  0  0  0  0  0  0
   15.5520    3.4890   10.7890 C   0  0  0  0  0  0  0  0  0  0  0  0
   14.3350    3.8180   11.3510 C   0  0  0  0  0  0  0  0  0  0  0  0
   13.1530    3.2590   10.8850 C   0  0  0  0  0  0  0  0  0  0  0  0
   13.1580    2.3570    9.8460 C   0  0  0  0  0  0  0  0  0  0  0  0
   11.4830    3.7580   11.7050 B   0  0  0  0  0  0  0  0  0  0  0  0
   16.8260    4.1020   11.3140 C   0  0  1  0  0  0  0  0  0  0  0  0
   17.5990    4.5690   10.2250 N   0  0  0  0  0  4  0  0  0  0  0  0
   18.1260    5.8980   10.3270 C   0  0  2  0  0  0  0  0  0  0  0  0
   16.9730    6.8730   10.6190 C   0  0  0  0  0  0  0  0  0  0  0  0
   16.4940    6.4600   11.9520 C   0  0  0  0  0  0  0  0  0  0  0  0
   16.0650    7.1990   13.0440 C   0  0  0  0  0  0  0  0  0  0  0  0
   15.7430    6.2900   14.0270 C   0  0  0  0  0  0  0  0  0  0  0  0
   15.9580    5.0450   13.5750 N   0  0  0  0  0  0  0  0  0  0  0  0
   16.4250    5.1440   12.2870 C   0  0  0  0  0  0  0  0  0  0  0  0
   15.2840    6.7830   15.2350 C   0  0  0  0  0  0  0  0  0  0  0  0
   15.1700    8.1410   15.3990 C   0  0  0  0  0  0  0  0  0  0  0  0
   15.4930    9.0470   14.4150 C   0  0  0  0  0  0  0  0  0  0  0  0
   15.9570    8.5650   13.1930 C   0  0  0  0  0  0  0  0  0  0  0  0
   18.8140    6.2610    9.0710 C   0  0  0  0  0  0  0  0  0  0  0  0
   20.0320    6.5750    9.1120 O   0  0  0  0  0  0  0  0  0  0  0  0
   18.1100    6.2500    7.8790 O   0  0  0  0  0  0  0  0  0  0  0  0
   16.6980    2.1770    9.1070 O   0  0  0  0  0  0  0  0  0  0  0  0
   14.2710    4.5270   12.1790 H   0  0  0  0  0  0  0  0  0  0  0  0
   12.2360    1.9130    9.4730 H   0  0  0  0  0  0  0  0  0  0  0  0
   17.3310    3.2650   11.8760 H   0  0  0  0  0  0  0  0  0  0  0  0
   18.4360    3.9120   10.1200 H   0  0  0  0  0  0  0  0  0  0  0  0
   17.1130    4.5130    9.2950 H   0  0  0  0  0  0  0  0  0  0  0  0
   18.8260    5.9250   11.1920 H   0  0  0  0  0  0  0  0  0  0  0  0
   17.3650    7.9100   10.6060 H   0  0  0  0  0  0  0  0  0  0  0  0
   16.2430    6.6950    9.8080 H   0  0  0  0  0  0  0  0  0  0  0  0
   15.8140    4.1260   14.0680 H   0  0  0  0  0  0  0  0  0  0  0  0
   15.0260    6.0690   16.0150 H   0  0  0  0  0  0  0  0  0  0  0  0
   14.8050    8.5210   16.3600 H   0  0  0  0  0  0  0  0  0  0  0  0
   15.4010   10.1350   14.5520 H   0  0  0  0  0  0  0  0  0  0  0  0
   16.2290    9.2220   12.3790 H   0  0  0  0  0  0  0  0  0  0  0  0
   17.5540    2.6580    9.0710 H   0  0  0  0  0  0  0  0  0  0  0  0
  1  2  1  0  0  0  0
  2  3  2  0  0  0  0
  2  7  1  0  0  0  0
  3  4  1  0  0  0  0
  4  9  1  0  0  0  0
  4  5  2  0  0  0  0
  5 26  1  0  0  0  0
  6  5  1  0  0  0  0
  6  8  1  0  0  0  0
  7  6  2  0  0  0  0
  9 28  1  1  0  0  0
  9 17  1  0  0  0  0
 10 11  1  0  0  0  0
 10  9  1  0  0  0  0
 11 12  1  0  0  0  0
 11 31  1  1  0  0  0
 12 13  1  0  0  0  0
 13 17  2  0  0  0  0
 13 14  1  0  0  0  0
 14 21  2  0  0  0  0
 14 15  1  0  0  0  0
 15 18  2  0  0  0  0
 16 15  1  0  0  0  0
 16 34  1  0  0  0  0
 17 16  1  0  0  0  0
 18 19  1  0  0  0  0
 18 35  1  0  0  0  0
 19 36  1  0  0  0  0
 20 37  1  0  0  0  0
 20 19  2  0  0  0  0
 21 20  1  0  0  0  0
 22 23  1  0  0  0  0
 22 11  1  0  0  0  0
 24 22  2  0  0  0  0
 25  3  1  0  0  0  0
 27  7  1  0  0  0  0
 29 10  1  0  0  0  0
 30 10  1  0  0  0  0
 32 12  1  0  0  0  0
 33 12  1  0  0  0  0
 38 21  1  0  0  0  0
 39 25  1  0  0  0  0
M  END
>  <Pose>
1

>  <Score>
-5.66

$$$$
