
 OpenBabel03172210413D

 56 59  0  0  0  0  0  0  0  0999 V2000
    7.3600    8.8360   11.7750 Cl  0  0  0  0  0  0  0  0  0  0  0  0
    7.1010    7.7550   13.0960 C   0  0  0  0  0  0  0  0  0  0  0  0
    7.9630    6.6920   13.2630 C   0  0  0  0  0  0  0  0  0  0  0  0
    7.7000    5.8600   14.3490 C   0  0  0  0  0  0  0  0  0  0  0  0
    6.6370    6.0940   15.1980 C   0  0  0  0  0  0  0  0  0  0  0  0
    5.8060    7.1640   14.9920 C   0  0  0  0  0  0  0  0  0  0  0  0
    6.0360    7.9950   13.9420 C   0  0  0  0  0  0  0  0  0  0  0  0
    9.0490    6.4120   12.4320 N   0  0  0  0  0  0  0  0  0  0  0  0
   10.4410    6.4020   12.8280 C   0  0  0  0  0  0  0  0  0  0  0  0
   11.2350    5.6210   11.7840 C   0  0  0  0  0  0  0  0  0  0  0  0
   10.4750    4.4500   11.3770 N   0  0  0  0  0  0  0  0  0  0  0  0
    9.1500    4.6440   10.8360 C   0  0  0  0  0  0  0  0  0  0  0  0
    8.7770    6.0950   11.0210 C   0  0  0  0  0  0  0  0  0  0  0  0
   11.0060    3.1360   11.4980 C   0  0  0  0  0  0  0  0  0  0  0  0
   11.3850    2.7450   12.6450 O   0  0  0  0  0  0  0  0  0  0  0  0
   11.1450    2.1990   10.3770 C   0  0  0  0  0  0  0  0  0  0  0  0
   12.5310    1.9940    9.9580 N   0  0  0  0  0  0  0  0  0  0  0  0
   13.6140    2.6670   10.2940 N   0  0  0  0  0  0  0  0  0  0  0  0
   14.7190    2.1930    9.7150 C   0  0  0  0  0  0  0  0  0  0  0  0
   14.3190    1.1210    8.9380 C   0  0  0  0  0  0  0  0  0  0  0  0
   12.9570    1.0200    9.1070 C   0  0  0  0  0  0  0  0  0  0  0  0
   12.0990    0.0060    8.4600 C   0  0  0  0  0  0  0  0  0  0  0  0
   16.0920    2.7070    9.8750 C   0  0  0  0  0  0  0  0  0  0  0  0
   17.0390    2.1640    9.2710 O   0  0  0  0  0  0  0  0  0  0  0  0
   16.3100    3.8200   10.7160 N   0  0  0  0  0  0  0  0  0  0  0  0
   15.3560    4.2990   11.6770 C   0  0  0  0  0  0  0  0  0  0  0  0
   16.0580    5.4140   12.4620 C   0  0  0  0  0  0  0  0  0  0  0  0
   17.2610    4.9800   12.9730 O   0  0  0  0  0  0  0  0  0  0  0  0
   18.1740    4.6000   12.0180 C   0  0  0  0  0  0  0  0  0  0  0  0
   17.5760    4.5530   10.6270 C   0  0  0  0  0  0  0  0  0  0  0  0
    8.3190    5.0100   14.5540 H   0  0  0  0  0  0  0  0  0  0  0  0
    6.4440    5.4380   16.0370 H   0  0  0  0  0  0  0  0  0  0  0  0
    4.9610    7.3410   15.6760 H   0  0  0  0  0  0  0  0  0  0  0  0
    5.3800    8.8560   13.7640 H   0  0  0  0  0  0  0  0  0  0  0  0
   10.8860    7.4070   12.8740 H   0  0  0  0  0  0  0  0  0  0  0  0
   10.5610    5.8310   13.7720 H   0  0  0  0  0  0  0  0  0  0  0  0
   12.1480    5.2550   12.2950 H   0  0  0  0  0  0  0  0  0  0  0  0
   11.4990    6.2580   10.9180 H   0  0  0  0  0  0  0  0  0  0  0  0
    9.0720    4.3230    9.7790 H   0  0  0  0  0  0  0  0  0  0  0  0
    8.4190    4.0750   11.4740 H   0  0  0  0  0  0  0  0  0  0  0  0
    9.4770    6.7180   10.4080 H   0  0  0  0  0  0  0  0  0  0  0  0
    7.7170    6.2940   10.7630 H   0  0  0  0  0  0  0  0  0  0  0  0
   10.5430    2.5030    9.4970 H   0  0  0  0  0  0  0  0  0  0  0  0
   10.7760    1.2100   10.7090 H   0  0  0  0  0  0  0  0  0  0  0  0
   14.9580    0.5010    8.3300 H   0  0  0  0  0  0  0  0  0  0  0  0
   12.4780   -1.0090    8.6890 H   0  0  0  0  0  0  0  0  0  0  0  0
   11.0600    0.0830    8.8330 H   0  0  0  0  0  0  0  0  0  0  0  0
   12.0570    0.1860    7.3560 H   0  0  0  0  0  0  0  0  0  0  0  0
   15.0570    3.4950   12.3810 H   0  0  0  0  0  0  0  0  0  0  0  0
   14.4490    4.7320   11.2430 H   0  0  0  0  0  0  0  0  0  0  0  0
   16.1210    6.3330   11.8580 H   0  0  0  0  0  0  0  0  0  0  0  0
   15.3890    5.6260   13.3240 H   0  0  0  0  0  0  0  0  0  0  0  0
   19.0280    5.3270   11.9870 H   0  0  0  0  0  0  0  0  0  0  0  0
   18.5790    3.5940   12.2330 H   0  0  0  0  0  0  0  0  0  0  0  0
   18.2660    4.0240    9.9440 H   0  0  0  0  0  0  0  0  0  0  0  0
   17.3910    5.5910   10.2990 H   0  0  0  0  0  0  0  0  0  0  0  0
  1  2  1  0  0  0  0
  2  3  2  0  0  0  0
  2  7  1  0  0  0  0
  3  4  1  0  0  0  0
  4 31  1  0  0  0  0
  4  5  2  0  0  0  0
  5 32  1  0  0  0  0
  6  5  1  0  0  0  0
  6 33  1  0  0  0  0
  7  6  2  0  0  0  0
  8  9  1  0  0  0  0
  8  3  1  0  0  0  0
  9 35  1  0  0  0  0
  9 36  1  0  0  0  0
 10 37  1  0  0  0  0
 10  9  1  0  0  0  0
 11 14  1  0  0  0  0
 11 10  1  0  0  0  0
 12 13  1  0  0  0  0
 12 11  1  0  0  0  0
 12 40  1  0  0  0  0
 13  8  1  0  0  0  0
 14 15  2  0  0  0  0
 16 44  1  0  0  0  0
 16 14  1  0  0  0  0
 17 18  1  0  0  0  0
 17 16  1  0  0  0  0
 19 23  1  0  0  0  0
 19 18  2  0  0  0  0
 20 21  2  0  0  0  0
 20 19  1  0  0  0  0
 21 17  1  0  0  0  0
 22 46  1  0  0  0  0
 22 47  1  0  0  0  0
 22 21  1  0  0  0  0
 23 25  1  0  0  0  0
 24 23  2  0  0  0  0
 25 26  1  0  0  0  0
 26 49  1  0  0  0  0
 26 27  1  0  0  0  0
 27 28  1  0  0  0  0
 27 52  1  0  0  0  0
 29 54  1  0  0  0  0
 29 28  1  0  0  0  0
 30 25  1  0  0  0  0
 30 29  1  0  0  0  0
 34  7  1  0  0  0  0
 38 10  1  0  0  0  0
 39 12  1  0  0  0  0
 41 13  1  0  0  0  0
 42 13  1  0  0  0  0
 43 16  1  0  0  0  0
 45 20  1  0  0  0  0
 48 22  1  0  0  0  0
 50 26  1  0  0  0  0
 51 27  1  0  0  0  0
 53 29  1  0  0  0  0
 55 30  1  0  0  0  0
 56 30  1  0  0  0  0
M  END
>  <Pose>
1

>  <Score>
-6.33

$$$$
