
 OpenBabel03172210413D

 45 48  0  0  1  0  0  0  0  0999 V2000
    4.0200    9.7470   15.1930 Cl  0  0  0  0  0  0  0  0  0  0  0  0
    5.0460    8.7130   14.1880 C   0  0  0  0  0  0  0  0  0  0  0  0
    5.6580    7.6190   14.7090 C   0  0  0  0  0  0  0  0  0  0  0  0
    6.4600    6.8240   13.8890 C   0  0  0  0  0  0  0  0  0  0  0  0
    6.6840    7.0690   12.5570 C   0  0  0  0  0  0  0  0  0  0  0  0
    6.0270    8.2140   12.0730 C   0  0  0  0  0  0  0  0  0  0  0  0
    5.2290    9.0150   12.8640 C   0  0  0  0  0  0  0  0  0  0  0  0
    7.4650    6.2840   11.6420 C   0  0  0  0  0  0  0  0  0  0  0  0
    6.7290    5.7530   10.6770 O   0  0  0  0  0  0  0  0  0  0  0  0
    8.8370    5.9870   11.5920 N   0  0  0  0  0  0  0  0  0  0  0  0
    9.5270    5.5350   10.4370 C   0  0  0  0  0  0  0  0  0  0  0  0
   11.0380    5.5410   10.7270 C   0  0  1  0  0  0  0  0  0  0  0  0
   11.2160    4.6740   11.8620 N   0  0  0  0  0  0  0  0  0  0  0  0
   10.5580    5.0340   13.0730 C   0  0  0  0  0  0  0  0  0  0  0  0
    9.5680    6.1580   12.8480 C   0  0  0  0  0  0  0  0  0  0  0  0
   12.0090    3.5170   11.7720 C   0  0  0  0  0  0  0  0  0  0  0  0
   12.4560    3.0120   12.8170 O   0  0  0  0  0  0  0  0  0  0  0  0
   12.2820    2.9420   10.4390 C   0  0  1  0  0  0  0  0  0  0  0  0
   12.6710    4.0290    9.5900 N   0  0  0  0  0  0  0  0  0  0  0  0
   11.8370    5.1730    9.5590 C   0  0  0  0  0  0  0  0  0  0  0  0
   11.7560    5.9110    8.5270 O   0  0  0  0  0  0  0  0  0  0  0  0
   13.2130    1.7910   10.4560 C   0  0  0  0  0  0  0  0  0  0  0  0
   12.9970    0.9470    9.2700 C   0  0  0  0  0  0  0  0  0  0  0  0
   11.8550    0.4270    8.8130 N   0  0  0  0  0  0  0  0  0  0  0  0
   12.1100   -0.2930    7.6810 C   0  0  0  0  0  0  0  0  0  0  0  0
   13.4180   -0.2300    7.4210 N   0  0  0  0  0  0  0  0  0  0  0  0
   13.9790    0.5200    8.3750 C   0  0  0  0  0  0  0  0  0  0  0  0
    5.5100    7.3890   15.7450 H   0  0  0  0  0  0  0  0  0  0  0  0
    6.9300    5.9880   14.3620 H   0  0  0  0  0  0  0  0  0  0  0  0
    6.1590    8.4690   11.0200 H   0  0  0  0  0  0  0  0  0  0  0  0
    4.7630    9.8820   12.3900 H   0  0  0  0  0  0  0  0  0  0  0  0
    9.3410    6.1660    9.5420 H   0  0  0  0  0  0  0  0  0  0  0  0
    9.2010    4.5060   10.2090 H   0  0  0  0  0  0  0  0  0  0  0  0
   11.2640    6.5810   11.0460 H   0  0  0  0  0  0  0  0  0  0  0  0
   11.3250    5.3770   13.7990 H   0  0  0  0  0  0  0  0  0  0  0  0
   10.0040    4.2070   13.5620 H   0  0  0  0  0  0  0  0  0  0  0  0
    8.8340    6.1910   13.6640 H   0  0  0  0  0  0  0  0  0  0  0  0
   10.1220    7.1120   12.8140 H   0  0  0  0  0  0  0  0  0  0  0  0
   11.3220    2.5420    9.9740 H   0  0  0  0  0  0  0  0  0  0  0  0
   13.5390    4.0030    8.9990 H   0  0  0  0  0  0  0  0  0  0  0  0
   14.2640    2.1470   10.5370 H   0  0  0  0  0  0  0  0  0  0  0  0
   13.0460    1.2080   11.4030 H   0  0  0  0  0  0  0  0  0  0  0  0
   11.3240   -0.8110    7.1300 H   0  0  0  0  0  0  0  0  0  0  0  0
   13.9060   -0.6720    6.6370 H   0  0  0  0  0  0  0  0  0  0  0  0
   15.0160    0.7980    8.5040 H   0  0  0  0  0  0  0  0  0  0  0  0
  2  3  1  0  0  0  0
  2  1  1  0  0  0  0
  3 28  1  0  0  0  0
  4 29  1  0  0  0  0
  4  3  2  0  0  0  0
  5  4  1  0  0  0  0
  6  5  2  0  0  0  0
  6  7  1  0  0  0  0
  7  2  2  0  0  0  0
  8  5  1  0  0  0  0
  9  8  2  0  0  0  0
 10  8  1  0  0  0  0
 10 15  1  0  0  0  0
 11 12  1  0  0  0  0
 11 10  1  0  0  0  0
 12 34  1  1  0  0  0
 12 13  1  0  0  0  0
 13 14  1  0  0  0  0
 14 36  1  0  0  0  0
 14 35  1  0  0  0  0
 15 14  1  0  0  0  0
 15 37  1  0  0  0  0
 16 13  1  0  0  0  0
 16 17  2  0  0  0  0
 18 39  1  6  0  0  0
 18 22  1  0  0  0  0
 18 16  1  0  0  0  0
 19 18  1  0  0  0  0
 20 19  1  0  0  0  0
 20 12  1  0  0  0  0
 21 20  2  0  0  0  0
 22 41  1  0  0  0  0
 22 42  1  0  0  0  0
 23 22  1  0  0  0  0
 24 23  1  0  0  0  0
 25 24  2  0  0  0  0
 26 25  1  0  0  0  0
 26 27  1  0  0  0  0
 27 45  1  0  0  0  0
 27 23  2  0  0  0  0
 30  6  1  0  0  0  0
 31  7  1  0  0  0  0
 32 11  1  0  0  0  0
 33 11  1  0  0  0  0
 38 15  1  0  0  0  0
 40 19  1  0  0  0  0
 43 25  1  0  0  0  0
 44 26  1  0  0  0  0
M  END
>  <Pose>
1

>  <Score>
-6.93

$$$$
