
 OpenBabel03172210413D

 43 46  0  0  0  0  0  0  0  0999 V2000
   14.5460    2.1110    9.3930 Cl  0  0  0  0  0  0  0  0  0  0  0  0
   15.1370    3.2460   10.5860 C   0  0  0  0  0  0  0  0  0  0  0  0
   14.2690    4.0770   11.2360 C   0  0  0  0  0  0  0  0  0  0  0  0
   14.8560    4.9510   12.1560 C   0  0  0  0  0  0  0  0  0  0  0  0
   16.1820    4.9440   12.3610 N   0  0  0  0  0  0  0  0  0  0  0  0
   17.0340    4.1540   11.7470 N   0  0  0  0  0  0  0  0  0  0  0  0
   16.5160    3.2990   10.8560 C   0  0  0  0  0  0  0  0  0  0  0  0
   17.2490    2.5020   10.2180 O   0  0  0  0  0  0  0  0  0  0  0  0
   18.4290    4.2120   12.0250 C   0  0  0  0  0  0  0  0  0  0  0  0
   19.1230    3.1580   12.5840 C   0  0  0  0  0  0  0  0  0  0  0  0
   20.4750    3.2250   12.8470 C   0  0  0  0  0  0  0  0  0  0  0  0
   21.1910    4.3690   12.5580 C   0  0  0  0  0  0  0  0  0  0  0  0
   20.5040    5.4250   11.9990 C   0  0  0  0  0  0  0  0  0  0  0  0
   19.1490    5.3540   11.7360 C   0  0  0  0  0  0  0  0  0  0  0  0
   12.8700    4.0610   11.0290 N   0  0  0  0  0  0  0  0  0  0  0  0
   11.9220    3.7300   12.0800 C   0  0  0  0  0  0  0  0  0  0  0  0
   11.1450    2.4800   11.7550 C   0  0  0  0  0  0  0  0  0  0  0  0
   10.8250    2.5430   10.3500 N   0  0  0  0  0  0  0  0  0  0  0  0
   10.8020    3.8370    9.7200 C   0  0  0  0  0  0  0  0  0  0  0  0
   12.2590    4.3490    9.7360 C   0  0  0  0  0  0  0  0  0  0  0  0
   10.5400    1.3710    9.6090 C   0  0  0  0  0  0  0  0  0  0  0  0
    9.3430    0.7250    9.5090 N   0  0  0  0  0  0  0  0  0  0  0  0
    9.4790   -0.3270    8.7270 N   0  0  0  0  0  0  0  0  0  0  0  0
   10.7420   -0.3700    8.3220 C   0  0  0  0  0  0  0  0  0  0  0  0
   11.3550    0.6520    8.8600 O   0  0  0  0  0  0  0  0  0  0  0  0
   11.4090   -1.3660    7.4220 C   0  0  0  0  0  0  0  0  0  0  0  0
   14.2160    5.6170   12.6930 H   0  0  0  0  0  0  0  0  0  0  0  0
   18.5620    2.2530   12.8140 H   0  0  0  0  0  0  0  0  0  0  0  0
   20.9950    2.3710   13.2910 H   0  0  0  0  0  0  0  0  0  0  0  0
   22.2520    4.4150   12.7670 H   0  0  0  0  0  0  0  0  0  0  0  0
   21.0490    6.3170   11.7700 H   0  0  0  0  0  0  0  0  0  0  0  0
   18.6050    6.1870   11.2950 H   0  0  0  0  0  0  0  0  0  0  0  0
   11.1620    4.5640   12.1020 H   0  0  0  0  0  0  0  0  0  0  0  0
   12.3160    3.6610   13.0780 H   0  0  0  0  0  0  0  0  0  0  0  0
   11.7590    1.5530   11.9190 H   0  0  0  0  0  0  0  0  0  0  0  0
   10.2530    2.3620   12.3930 H   0  0  0  0  0  0  0  0  0  0  0  0
   10.1720    4.5170   10.3200 H   0  0  0  0  0  0  0  0  0  0  0  0
   10.4320    3.7870    8.6820 H   0  0  0  0  0  0  0  0  0  0  0  0
   12.1690    5.4230    9.5190 H   0  0  0  0  0  0  0  0  0  0  0  0
   12.7350    3.7470    8.9220 H   0  0  0  0  0  0  0  0  0  0  0  0
   10.7520   -1.6180    6.5670 H   0  0  0  0  0  0  0  0  0  0  0  0
   12.3350   -0.9390    6.9840 H   0  0  0  0  0  0  0  0  0  0  0  0
   11.6950   -2.2240    8.0390 H   0  0  0  0  0  0  0  0  0  0  0  0
  1  2  1  0  0  0  0
  2  7  1  0  0  0  0
  2  3  2  0  0  0  0
  3  4  1  0  0  0  0
  4  5  2  0  0  0  0
  4 27  1  0  0  0  0
  6  9  1  0  0  0  0
  6  5  1  0  0  0  0
  7  6  1  0  0  0  0
  8  7  2  0  0  0  0
  9 10  1  0  0  0  0
 10 28  1  0  0  0  0
 10 11  2  0  0  0  0
 11 29  1  0  0  0  0
 12 30  1  0  0  0  0
 12 11  1  0  0  0  0
 13 12  2  0  0  0  0
 14 13  1  0  0  0  0
 14  9  2  0  0  0  0
 15  3  1  0  0  0  0
 15 16  1  0  0  0  0
 16 33  1  0  0  0  0
 16 34  1  0  0  0  0
 17 35  1  0  0  0  0
 17 16  1  0  0  0  0
 17 36  1  0  0  0  0
 18 17  1  0  0  0  0
 19 20  1  0  0  0  0
 19 37  1  0  0  0  0
 19 18  1  0  0  0  0
 20 15  1  0  0  0  0
 21 18  1  0  0  0  0
 22 21  2  0  0  0  0
 23 22  1  0  0  0  0
 24 23  2  0  0  0  0
 24 25  1  0  0  0  0
 25 21  1  0  0  0  0
 26 43  1  0  0  0  0
 26 24  1  0  0  0  0
 31 13  1  0  0  0  0
 32 14  1  0  0  0  0
 38 19  1  0  0  0  0
 39 20  1  0  0  0  0
 40 20  1  0  0  0  0
 41 26  1  0  0  0  0
 42 26  1  0  0  0  0
M  END
>  <Pose>
1

>  <Score>
-5.71

$$$$
