
 OpenBabel03172210413D

 49 52  0  0  0  0  0  0  0  0999 V2000
    7.5880   10.4110   12.7480 B   0  0  0  0  0  0  0  0  0  0  0  0
    7.9770    8.5690   12.6180 C   0  0  0  0  0  0  0  0  0  0  0  0
    8.8360    8.1210   11.6260 C   0  0  0  0  0  0  0  0  0  0  0  0
    9.1350    6.7900   11.5020 C   0  0  0  0  0  0  0  0  0  0  0  0
    8.6130    5.8460   12.3330 C   0  0  0  0  0  0  0  0  0  0  0  0
    7.7460    6.2890   13.3370 C   0  0  0  0  0  0  0  0  0  0  0  0
    7.4420    7.6320   13.4660 C   0  0  0  0  0  0  0  0  0  0  0  0
   10.0940    6.2950   10.4520 C   0  0  0  0  0  0  0  0  0  0  0  0
    9.5310    5.5820    9.5490 O   0  0  0  0  0  0  0  0  0  0  0  0
   11.3690    6.6310   10.5620 N   0  0  0  0  0  0  0  0  0  0  0  0
   12.7050    6.9830   10.6770 C   0  0  0  0  0  0  0  0  0  0  0  0
   12.9890    7.6520   11.9970 C   0  0  0  0  0  0  0  0  0  0  0  0
   12.0630    8.4380   12.4050 O   0  0  0  0  0  0  0  0  0  0  0  0
   14.1600    7.4540   12.7420 N   0  0  0  0  0  0  0  0  0  0  0  0
   14.2020    6.6560   13.9250 C   0  0  0  0  0  0  0  0  0  0  0  0
   15.4910    5.8970   14.0680 C   0  0  0  0  0  0  0  0  0  0  0  0
   16.2510    5.6880   12.7770 C   0  0  0  0  0  0  0  0  0  0  0  0
   17.5560    5.2140   13.2170 N   0  0  0  0  0  0  0  0  0  0  0  0
   18.4180    4.7340   12.2050 C   0  0  0  0  0  0  0  0  0  0  0  0
   17.8210    4.3730   10.8950 C   0  0  0  0  0  0  0  0  0  0  0  0
   16.3910    3.9560   11.0350 C   0  0  0  0  0  0  0  0  0  0  0  0
   15.6690    3.0290   10.4050 N   0  0  0  0  0  0  0  0  0  0  0  0
   14.4340    3.0960   10.9440 C   0  0  0  0  0  0  0  0  0  0  0  0
   14.3900    4.0530   11.8970 N   0  0  0  0  0  0  0  0  0  0  0  0
   15.6310    4.6140   11.9680 C   0  0  0  0  0  0  0  0  0  0  0  0
   16.3990    6.9370   11.9460 C   0  0  0  0  0  0  0  0  0  0  0  0
   15.4330    8.0400   12.3370 C   0  0  0  0  0  0  0  0  0  0  0  0
    9.2720    8.8200   10.9500 H   0  0  0  0  0  0  0  0  0  0  0  0
    8.8650    4.8120   12.2140 H   0  0  0  0  0  0  0  0  0  0  0  0
    7.3110    5.5760   14.0130 H   0  0  0  0  0  0  0  0  0  0  0  0
    6.7740    7.9730   14.2430 H   0  0  0  0  0  0  0  0  0  0  0  0
   11.2170    7.5860    9.5720 H   0  0  0  0  0  0  0  0  0  0  0  0
   13.0060    7.7200    9.8540 H   0  0  0  0  0  0  0  0  0  0  0  0
   13.3980    6.1250   10.4970 H   0  0  0  0  0  0  0  0  0  0  0  0
   14.1740    7.3910   14.7870 H   0  0  0  0  0  0  0  0  0  0  0  0
   13.3010    6.0340   14.0820 H   0  0  0  0  0  0  0  0  0  0  0  0
   16.1490    6.4030   14.7830 H   0  0  0  0  0  0  0  0  0  0  0  0
   15.2180    4.8830   14.4320 H   0  0  0  0  0  0  0  0  0  0  0  0
   17.9710    6.0480   13.7230 H   0  0  0  0  0  0  0  0  0  0  0  0
   18.9150    3.7990   12.6080 H   0  0  0  0  0  0  0  0  0  0  0  0
   19.2700    5.4660   12.0720 H   0  0  0  0  0  0  0  0  0  0  0  0
   17.9160    5.2300   10.1890 H   0  0  0  0  0  0  0  0  0  0  0  0
   18.4330    3.5550   10.4200 H   0  0  0  0  0  0  0  0  0  0  0  0
   13.6290    2.4600   10.6300 H   0  0  0  0  0  0  0  0  0  0  0  0
   13.5610    4.3060   12.4600 H   0  0  0  0  0  0  0  0  0  0  0  0
   16.1520    6.6870   10.8700 H   0  0  0  0  0  0  0  0  0  0  0  0
   17.4120    7.3700   11.9710 H   0  0  0  0  0  0  0  0  0  0  0  0
   15.8530    8.6890   13.1400 H   0  0  0  0  0  0  0  0  0  0  0  0
   15.2510    8.6490   11.4320 H   0  0  0  0  0  0  0  0  0  0  0  0
  2  1  1  0  0  0  0
  2  7  1  0  0  0  0
  3  2  2  0  0  0  0
  4  3  1  0  0  0  0
  4  5  2  0  0  0  0
  5  6  1  0  0  0  0
  6  7  2  0  0  0  0
  6 30  1  0  0  0  0
  7 31  1  0  0  0  0
  8 10  1  0  0  0  0
  8  4  1  0  0  0  0
  9  8  2  0  0  0  0
 10 11  1  0  0  0  0
 11 12  1  0  0  0  0
 12 13  2  0  0  0  0
 12 14  1  0  0  0  0
 14 15  1  0  0  0  0
 15 16  1  0  0  0  0
 15 36  1  0  0  0  0
 15 35  1  0  0  0  0
 16 38  1  0  0  0  0
 16 37  1  0  0  0  0
 17 18  1  0  0  0  0
 17 16  1  0  0  0  0
 18 39  1  0  0  0  0
 19 40  1  0  0  0  0
 19 18  1  0  0  0  0
 20 21  1  0  0  0  0
 20 19  1  0  0  0  0
 21 25  2  0  0  0  0
 22 23  2  0  0  0  0
 22 21  1  0  0  0  0
 23 24  1  0  0  0  0
 24 25  1  0  0  0  0
 24 45  1  0  0  0  0
 25 17  1  0  0  0  0
 26 47  1  0  0  0  0
 26 27  1  0  0  0  0
 26 17  1  0  0  0  0
 27 14  1  0  0  0  0
 27 48  1  0  0  0  0
 28  3  1  0  0  0  0
 29  5  1  0  0  0  0
 32 10  1  0  0  0  0
 33 11  1  0  0  0  0
 34 11  1  0  0  0  0
 41 19  1  0  0  0  0
 42 20  1  0  0  0  0
 43 20  1  0  0  0  0
 44 23  1  0  0  0  0
 46 26  1  0  0  0  0
 49 27  1  0  0  0  0
M  END
>  <Pose>
1

>  <Score>
-5.75

$$$$
