
 OpenBabel03172210413D

 53 56  0  0  0  0  0  0  0  0999 V2000
   14.7060    6.1130   17.1250 Cl  0  0  0  0  0  0  0  0  0  0  0  0
   15.8850    5.9310   15.8270 C   0  0  0  0  0  0  0  0  0  0  0  0
   15.4110    5.9490   14.5220 C   0  0  0  0  0  0  0  0  0  0  0  0
   16.3050    5.8070   13.4990 C   0  0  0  0  0  0  0  0  0  0  0  0
   17.6710    5.6480   13.8030 C   0  0  0  0  0  0  0  0  0  0  0  0
   18.1090    5.6350   15.0960 C   0  0  0  0  0  0  0  0  0  0  0  0
   17.2160    5.7770   16.1450 C   0  0  0  0  0  0  0  0  0  0  0  0
   15.8900    5.8600   12.0760 C   0  0  0  0  0  0  0  0  0  0  0  0
   15.0280    4.8100   11.6360 N   0  0  0  0  0  0  0  0  0  0  0  0
   15.4410    3.8180   10.8220 C   0  0  0  0  0  0  0  0  0  0  0  0
   14.3450    3.0280   10.5650 C   0  0  0  0  0  0  0  0  0  0  0  0
   13.3240    3.5500   11.2150 N   0  0  0  0  0  0  0  0  0  0  0  0
   13.7240    4.6590   11.8860 C   0  0  0  0  0  0  0  0  0  0  0  0
   12.8470    5.5080   12.6410 N   0  0  0  0  0  0  0  0  0  0  0  0
   13.1140    6.9610   12.6250 C   0  0  0  0  0  0  0  0  0  0  0  0
   11.9260    7.7390   12.1600 C   0  0  0  0  0  0  0  0  0  0  0  0
   10.7020    7.0000   12.3630 N   0  0  0  0  0  0  0  0  0  0  0  0
   10.6420    6.1150   13.5080 C   0  0  0  0  0  0  0  0  0  0  0  0
   11.7320    5.0640   13.3980 C   0  0  0  0  0  0  0  0  0  0  0  0
    9.6040    7.1480   11.4740 C   0  0  0  0  0  0  0  0  0  0  0  0
    9.7730    7.0510   10.2390 O   0  0  0  0  0  0  0  0  0  0  0  0
    8.2370    7.4190   11.9780 C   0  0  0  0  0  0  0  0  0  0  0  0
    7.4680    6.1010   11.9300 C   0  0  0  0  0  0  0  0  0  0  0  0
   14.5160    1.9470    9.7520 N   0  0  0  0  0  0  0  0  0  0  0  0
   15.7050    1.6520    9.2140 C   0  0  0  0  0  0  0  0  0  0  0  0
   15.8110    0.6390    8.4670 O   0  0  0  0  0  0  0  0  0  0  0  0
   16.7960    2.3940    9.4380 N   0  0  0  0  0  0  0  0  0  0  0  0
   16.6580    3.4750   10.2420 C   0  0  0  0  0  0  0  0  0  0  0  0
   17.6740    4.1740   10.4530 O   0  0  0  0  0  0  0  0  0  0  0  0
   13.3630    1.0980    9.4630 C   0  0  0  0  0  0  0  0  0  0  0  0
   14.3370    6.0580   14.3580 H   0  0  0  0  0  0  0  0  0  0  0  0
   18.3830    5.5350   12.9760 H   0  0  0  0  0  0  0  0  0  0  0  0
   19.1480    5.5140   15.3710 H   0  0  0  0  0  0  0  0  0  0  0  0
   17.5410    5.7710   17.1790 H   0  0  0  0  0  0  0  0  0  0  0  0
   16.8270    5.8580   11.4400 H   0  0  0  0  0  0  0  0  0  0  0  0
   15.4690    6.8740   11.9150 H   0  0  0  0  0  0  0  0  0  0  0  0
   13.4210    7.2290   13.6550 H   0  0  0  0  0  0  0  0  0  0  0  0
   13.9380    7.1590   11.8970 H   0  0  0  0  0  0  0  0  0  0  0  0
   11.8500    8.6700   12.7890 H   0  0  0  0  0  0  0  0  0  0  0  0
   12.0020    8.0420   11.0940 H   0  0  0  0  0  0  0  0  0  0  0  0
   10.8680    6.7500   14.4160 H   0  0  0  0  0  0  0  0  0  0  0  0
    9.6600    5.6690   13.6880 H   0  0  0  0  0  0  0  0  0  0  0  0
   11.3050    4.1570   12.9340 H   0  0  0  0  0  0  0  0  0  0  0  0
   12.0300    4.7730   14.4540 H   0  0  0  0  0  0  0  0  0  0  0  0
    8.2750    7.7630   13.0490 H   0  0  0  0  0  0  0  0  0  0  0  0
    7.7360    8.2280   11.4330 H   0  0  0  0  0  0  0  0  0  0  0  0
    7.4440    5.5870   12.9130 H   0  0  0  0  0  0  0  0  0  0  0  0
    7.9130    5.3880   11.2050 H   0  0  0  0  0  0  0  0  0  0  0  0
    6.4260    6.2920   11.5780 H   0  0  0  0  0  0  0  0  0  0  0  0
   17.7050    2.1280    8.9970 H   0  0  0  0  0  0  0  0  0  0  0  0
   13.6900    0.0390    9.3610 H   0  0  0  0  0  0  0  0  0  0  0  0
   12.9570    1.4540    8.4730 H   0  0  0  0  0  0  0  0  0  0  0  0
   12.5730    1.2350   10.2120 H   0  0  0  0  0  0  0  0  0  0  0  0
  2  7  1  0  0  0  0
  2  1  1  0  0  0  0
  3  2  2  0  0  0  0
  4  5  2  0  0  0  0
  4  3  1  0  0  0  0
  5  6  1  0  0  0  0
  6 33  1  0  0  0  0
  6  7  2  0  0  0  0
  7 34  1  0  0  0  0
  8  4  1  0  0  0  0
  9 13  1  0  0  0  0
  9  8  1  0  0  0  0
 10  9  1  0  0  0  0
 11 10  2  0  0  0  0
 11 12  1  0  0  0  0
 12 13  2  0  0  0  0
 13 14  1  0  0  0  0
 14 19  1  0  0  0  0
 15 14  1  0  0  0  0
 15 37  1  0  0  0  0
 16 17  1  0  0  0  0
 16 15  1  0  0  0  0
 16 39  1  0  0  0  0
 17 18  1  0  0  0  0
 18 42  1  0  0  0  0
 18 41  1  0  0  0  0
 19 18  1  0  0  0  0
 19 44  1  0  0  0  0
 20 22  1  0  0  0  0
 20 17  1  0  0  0  0
 21 20  2  0  0  0  0
 22 45  1  0  0  0  0
 23 22  1  0  0  0  0
 23 47  1  0  0  0  0
 24 11  1  0  0  0  0
 25 27  1  0  0  0  0
 25 24  1  0  0  0  0
 26 25  2  0  0  0  0
 27 28  1  0  0  0  0
 28 29  2  0  0  0  0
 28 10  1  0  0  0  0
 30 24  1  0  0  0  0
 30 53  1  0  0  0  0
 31  3  1  0  0  0  0
 32  5  1  0  0  0  0
 35  8  1  0  0  0  0
 36  8  1  0  0  0  0
 38 15  1  0  0  0  0
 40 16  1  0  0  0  0
 43 19  1  0  0  0  0
 46 22  1  0  0  0  0
 48 23  1  0  0  0  0
 49 23  1  0  0  0  0
 50 27  1  0  0  0  0
 51 30  1  0  0  0  0
 52 30  1  0  0  0  0
M  END
>  <Pose>
1

>  <Score>
-6.28

$$$$
