
 OpenBabel03172210413D

 45 48  0  0  0  0  0  0  0  0999 V2000
   12.8360    7.8250   14.1090 Cl  0  0  0  0  0  0  0  0  0  0  0  0
   14.1940    6.8940   13.4630 C   0  0  0  0  0  0  0  0  0  0  0  0
   14.0640    6.3100   12.2220 C   0  0  0  0  0  0  0  0  0  0  0  0
   15.1140    5.5820   11.7070 C   0  0  0  0  0  0  0  0  0  0  0  0
   16.2880    5.4310   12.4130 C   0  0  0  0  0  0  0  0  0  0  0  0
   16.3760    6.0360   13.6560 C   0  0  0  0  0  0  0  0  0  0  0  0
   15.3510    6.7700   14.2060 C   0  0  0  0  0  0  0  0  0  0  0  0
   17.3900    4.6820   11.9010 N   0  0  0  0  0  0  0  0  0  0  0  0
   17.3780    3.6990   11.0350 N   0  0  0  0  0  0  0  0  0  0  0  0
   18.6530    3.2620   10.8200 C   0  0  0  0  0  0  0  0  0  0  0  0
   19.5000    4.0200   11.5990 C   0  0  0  0  0  0  0  0  0  0  0  0
   18.6610    4.9120   12.2720 C   0  0  0  0  0  0  0  0  0  0  0  0
   12.8220    6.4600   11.4570 C   0  0  0  0  0  0  0  0  0  0  0  0
   12.8100    7.3800   10.5990 O   0  0  0  0  0  0  0  0  0  0  0  0
   11.7030    5.6120   11.6770 N   0  0  0  0  0  0  0  0  0  0  0  0
   11.0310    5.6680   12.9570 C   0  0  0  0  0  0  0  0  0  0  0  0
    9.5960    5.2370   12.7200 C   0  0  0  0  0  0  0  0  0  0  0  0
    9.0800    5.7020   11.3760 C   0  0  0  0  0  0  0  0  0  0  0  0
    7.6590    5.4380   11.3500 N   0  0  0  0  0  0  0  0  0  0  0  0
    6.9890    6.5460   11.9300 C   0  0  0  0  0  0  0  0  0  0  0  0
    5.8130    6.5860   12.4120 O   0  0  0  0  0  0  0  0  0  0  0  0
    7.9120    7.6380   11.8690 N   0  0  0  0  0  0  0  0  0  0  0  0
    9.1190    7.1820   11.2570 C   0  0  0  0  0  0  0  0  0  0  0  0
   10.0040    7.9160   10.7390 O   0  0  0  0  0  0  0  0  0  0  0  0
    7.7030    9.0100   12.3380 C   0  0  0  0  0  0  0  0  0  0  0  0
    9.8070    5.0560   10.2340 C   0  0  0  0  0  0  0  0  0  0  0  0
   11.1840    4.6870   10.6960 C   0  0  0  0  0  0  0  0  0  0  0  0
   15.0750    5.0980   10.7380 H   0  0  0  0  0  0  0  0  0  0  0  0
   17.2980    5.9220   14.2190 H   0  0  0  0  0  0  0  0  0  0  0  0
   15.4610    7.2350   15.1980 H   0  0  0  0  0  0  0  0  0  0  0  0
   18.9980    2.4710   10.1690 H   0  0  0  0  0  0  0  0  0  0  0  0
   20.5840    3.9400   11.6730 H   0  0  0  0  0  0  0  0  0  0  0  0
   19.0030    5.6600   12.9760 H   0  0  0  0  0  0  0  0  0  0  0  0
   11.5290    4.9690   13.6600 H   0  0  0  0  0  0  0  0  0  0  0  0
   10.9980    6.7070   13.3430 H   0  0  0  0  0  0  0  0  0  0  0  0
    9.5190    4.1340   12.7920 H   0  0  0  0  0  0  0  0  0  0  0  0
    8.9320    5.6430   13.5100 H   0  0  0  0  0  0  0  0  0  0  0  0
    7.2270    4.5760   10.9680 H   0  0  0  0  0  0  0  0  0  0  0  0
    8.6500    9.4470   12.7400 H   0  0  0  0  0  0  0  0  0  0  0  0
    6.9200    9.0210   13.1160 H   0  0  0  0  0  0  0  0  0  0  0  0
    7.4040    9.6610   11.4960 H   0  0  0  0  0  0  0  0  0  0  0  0
    9.8440    5.7960    9.4050 H   0  0  0  0  0  0  0  0  0  0  0  0
    9.2470    4.1410    9.9470 H   0  0  0  0  0  0  0  0  0  0  0  0
   11.1070    3.6880   11.2090 H   0  0  0  0  0  0  0  0  0  0  0  0
   11.8960    4.5330    9.8520 H   0  0  0  0  0  0  0  0  0  0  0  0
  2  1  1  0  0  0  0
  2  7  1  0  0  0  0
  3  2  2  0  0  0  0
  4  3  1  0  0  0  0
  4  5  2  0  0  0  0
  5  6  1  0  0  0  0
  6  7  2  0  0  0  0
  6 29  1  0  0  0  0
  7 30  1  0  0  0  0
  8 12  1  0  0  0  0
  8  5  1  0  0  0  0
  9  8  1  0  0  0  0
 10  9  2  0  0  0  0
 10 11  1  0  0  0  0
 11 32  1  0  0  0  0
 11 12  2  0  0  0  0
 12 33  1  0  0  0  0
 13 15  1  0  0  0  0
 13  3  1  0  0  0  0
 14 13  2  0  0  0  0
 15 16  1  0  0  0  0
 16 35  1  0  0  0  0
 16 34  1  0  0  0  0
 17 36  1  0  0  0  0
 17 16  1  0  0  0  0
 17 37  1  0  0  0  0
 18 17  1  0  0  0  0
 19 18  1  0  0  0  0
 19 20  1  0  0  0  0
 20 21  2  0  0  0  0
 22 20  1  0  0  0  0
 22 25  1  0  0  0  0
 23 18  1  0  0  0  0
 23 22  1  0  0  0  0
 24 23  2  0  0  0  0
 25 39  1  0  0  0  0
 25 40  1  0  0  0  0
 26 27  1  0  0  0  0
 26 18  1  0  0  0  0
 27 44  1  0  0  0  0
 27 15  1  0  0  0  0
 28  4  1  0  0  0  0
 31 10  1  0  0  0  0
 38 19  1  0  0  0  0
 41 25  1  0  0  0  0
 42 26  1  0  0  0  0
 43 26  1  0  0  0  0
 45 27  1  0  0  0  0
M  END
>  <Pose>
1

>  <Score>
-5.24

$$$$
