
 OpenBabel03172210413D

 60 64  0  0  1  0  0  0  0  0999 V2000
   13.1350    4.3700   11.3310 Cl  0  0  0  0  0  0  0  0  0  0  0  0
   12.1780    5.6830   12.0350 C   0  0  0  0  0  0  0  0  0  0  0  0
   12.7550    6.9090   12.2620 C   0  0  0  0  0  0  0  0  0  0  0  0
   12.0060    7.9400   12.8140 C   0  0  0  0  0  0  0  0  0  0  0  0
   10.6880    7.8100   13.1580 C   0  0  0  0  0  0  0  0  0  0  0  0
   10.1260    6.5470   12.9150 C   0  0  0  0  0  0  0  0  0  0  0  0
   10.8590    5.5170   12.3680 C   0  0  0  0  0  0  0  0  0  0  0  0
   10.2040    9.0660   13.7080 C   0  0  1  0  0  0  0  0  0  0  0  0
    9.1480    9.5610   12.8290 N   0  0  0  0  0  0  0  0  0  0  0  0
    7.9480    9.2640   13.5620 C   0  0  1  0  0  0  0  0  0  0  0  0
    8.3240    9.6860   14.9640 C   0  0  2  0  0  0  0  0  0  0  0  0
    9.6720    9.0120   15.0980 C   0  0  1  0  0  0  0  0  0  0  0  0
    9.3730    7.7060   15.6490 C   0  0  0  0  0  0  0  0  0  0  0  0
   10.1320    6.7120   15.6730 O   0  0  0  0  0  0  0  0  0  0  0  0
    8.0530    7.7130   16.1740 N   0  0  0  0  0  0  0  0  0  0  0  0
    7.4830    9.0090   15.9830 C   0  0  0  0  0  0  0  0  0  0  0  0
    6.4820    9.5330   16.5280 O   0  0  0  0  0  0  0  0  0  0  0  0
    7.3250    6.6360   16.8180 C   0  0  0  0  0  0  0  0  0  0  0  0
    6.9230    6.9800   18.1940 C   0  0  0  0  0  0  0  0  0  0  0  0
    5.5760    7.0990   18.4620 C   0  0  0  0  0  0  0  0  0  0  0  0
    5.2050    7.4230   19.7590 C   0  0  0  0  0  0  0  0  0  0  0  0
    6.1340    7.6190   20.7420 C   0  0  0  0  0  0  0  0  0  0  0  0
    7.4680    7.4900   20.4350 C   0  0  0  0  0  0  0  0  0  0  0  0
    7.9000    7.1710   19.1670 C   0  0  0  0  0  0  0  0  0  0  0  0
    4.6570    6.8980   17.4540 O   0  0  0  0  0  0  0  0  0  0  0  0
    3.8680    7.8930   16.8820 C   0  0  0  0  0  0  0  0  0  0  0  0
    6.7670   10.0440   13.0300 C   0  0  0  0  0  0  0  0  0  0  0  0
    5.6440    9.0490   12.8230 C   0  0  0  0  0  0  0  0  0  0  0  0
    5.8670    8.2110   11.6190 C   0  0  0  0  0  0  0  0  0  0  0  0
    6.1020    8.7690   10.5090 O   0  0  0  0  0  0  0  0  0  0  0  0
    5.8020    6.8010   11.7840 N   0  0  0  0  0  0  0  0  0  0  0  0
   11.3670    9.9830   13.6550 C   0  0  0  0  0  0  0  0  0  0  0  0
   11.4180   11.1940   14.0230 O   0  0  0  0  0  0  0  0  0  0  0  0
   12.4470    9.2600   13.1080 N   0  0  0  0  0  0  0  0  0  0  0  0
   14.1880    7.1010   11.9050 C   0  0  0  0  0  0  0  0  0  0  0  0
    9.0910    6.3730   13.1610 H   0  0  0  0  0  0  0  0  0  0  0  0
   10.3910    4.5540   12.1940 H   0  0  0  0  0  0  0  0  0  0  0  0
    9.2170    9.0940   11.9000 H   0  0  0  0  0  0  0  0  0  0  0  0
    7.6530    8.2150   13.5880 H   0  0  0  0  0  0  0  0  0  0  0  0
    8.3660   10.7740   15.0880 H   0  0  0  0  0  0  0  0  0  0  0  0
   10.2940    9.5710   15.8330 H   0  0  0  0  0  0  0  0  0  0  0  0
    6.4220    6.3730   16.2350 H   0  0  0  0  0  0  0  0  0  0  0  0
    7.9880    5.7370   16.7770 H   0  0  0  0  0  0  0  0  0  0  0  0
    4.1530    7.5180   19.9770 H   0  0  0  0  0  0  0  0  0  0  0  0
    5.7930    7.8730   21.7530 H   0  0  0  0  0  0  0  0  0  0  0  0
    8.2100    7.6420   21.2050 H   0  0  0  0  0  0  0  0  0  0  0  0
    8.9670    7.0690   18.9270 H   0  0  0  0  0  0  0  0  0  0  0  0
    3.1890    7.4060   16.1460 H   0  0  0  0  0  0  0  0  0  0  0  0
    4.5280    8.5600   16.2860 H   0  0  0  0  0  0  0  0  0  0  0  0
    3.2830    8.4230   17.6460 H   0  0  0  0  0  0  0  0  0  0  0  0
    7.0070   10.6000   12.1100 H   0  0  0  0  0  0  0  0  0  0  0  0
    6.4350   10.7150   13.8590 H   0  0  0  0  0  0  0  0  0  0  0  0
    5.4610    8.4200   13.7290 H   0  0  0  0  0  0  0  0  0  0  0  0
    4.7180    9.6350   12.6630 H   0  0  0  0  0  0  0  0  0  0  0  0
    5.0850    6.4160   12.4210 H   0  0  0  0  0  0  0  0  0  0  0  0
    6.4950    6.2240   11.2430 H   0  0  0  0  0  0  0  0  0  0  0  0
   13.4140    9.6520   12.9500 H   0  0  0  0  0  0  0  0  0  0  0  0
   14.8210    7.0990   12.8030 H   0  0  0  0  0  0  0  0  0  0  0  0
   14.5250    6.3250   11.2170 H   0  0  0  0  0  0  0  0  0  0  0  0
   14.3480    8.1010   11.4140 H   0  0  0  0  0  0  0  0  0  0  0  0
  1  2  1  0  0  0  0
  2  3  2  0  0  0  0
  2  7  1  0  0  0  0
  3  4  1  0  0  0  0
  4 34  1  0  0  0  0
  4  5  2  0  0  0  0
  6  5  1  0  0  0  0
  6 36  1  0  0  0  0
  7  6  2  0  0  0  0
  8  5  1  6  0  0  0
  8 12  1  0  0  0  0
  9 10  1  0  0  0  0
  9  8  1  0  0  0  0
 10 39  1  6  0  0  0
 10 11  1  0  0  0  0
 11 40  1  1  0  0  0
 11 12  1  0  0  0  0
 11 16  1  0  0  0  0
 12 13  1  0  0  0  0
 12 41  1  1  0  0  0
 13 14  2  0  0  0  0
 13 15  1  0  0  0  0
 15 18  1  0  0  0  0
 16 15  1  0  0  0  0
 16 17  2  0  0  0  0
 18 19  1  0  0  0  0
 19 20  2  0  0  0  0
 19 24  1  0  0  0  0
 20 21  1  0  0  0  0
 21 44  1  0  0  0  0
 21 22  2  0  0  0  0
 22 45  1  0  0  0  0
 23 22  1  0  0  0  0
 23 46  1  0  0  0  0
 24 23  2  0  0  0  0
 25 20  1  0  0  0  0
 26 25  1  0  0  0  0
 26 50  1  0  0  0  0
 27 10  1  0  0  0  0
 27 52  1  0  0  0  0
 28 27  1  0  0  0  0
 28 53  1  0  0  0  0
 29 31  1  0  0  0  0
 29 28  1  0  0  0  0
 30 29  2  0  0  0  0
 31 55  1  0  0  0  0
 32  8  1  0  0  0  0
 32 33  2  0  0  0  0
 34 32  1  0  0  0  0
 35  3  1  0  0  0  0
 35 58  1  0  0  0  0
 37  7  1  0  0  0  0
 38  9  1  0  0  0  0
 42 18  1  0  0  0  0
 43 18  1  0  0  0  0
 47 24  1  0  0  0  0
 48 26  1  0  0  0  0
 49 26  1  0  0  0  0
 51 27  1  0  0  0  0
 54 28  1  0  0  0  0
 56 31  1  0  0  0  0
 57 34  1  0  0  0  0
 59 35  1  0  0  0  0
 60 35  1  0  0  0  0
M  END
>  <Pose>
1

>  <Score>
-6.00

$$$$
