
 OpenBabel03172210413D

 63 66  0  0  0  0  0  0  0  0999 V2000
   11.6950    3.9970   10.5810 S   0  0  0  0  0  0  0  0  0  0  0  0
   11.1040    2.7090   11.0540 O   0  0  0  0  0  0  0  0  0  0  0  0
   11.7230    4.0840    9.0760 O   0  0  0  0  0  0  0  0  0  0  0  0
   10.7950    5.3800   11.1690 C   0  0  0  0  0  0  0  0  0  0  0  0
   10.4780    5.5170   12.5140 C   0  0  0  0  0  0  0  0  0  0  0  0
    9.7760    6.6040   12.9330 N   0  0  0  0  0  0  0  0  0  0  0  0
    9.3650    7.5680   12.0980 C   0  0  0  0  0  0  0  0  0  0  0  0
    9.6690    7.4410   10.7950 N   0  0  0  0  0  0  0  0  0  0  0  0
   10.3610    6.3860   10.3320 C   0  0  0  0  0  0  0  0  0  0  0  0
    8.6250    8.7040   12.5390 N   0  0  0  0  0  0  0  0  0  0  0  0
    7.5590    9.2780   11.7560 C   0  0  0  0  0  0  0  0  0  0  0  0
    6.2510    9.4020   12.4870 C   0  0  0  0  0  0  0  0  0  0  0  0
    6.4390    9.4770   13.9930 C   0  0  0  0  0  0  0  0  0  0  0  0
    7.7700   10.2330   14.1510 C   0  0  0  0  0  0  0  0  0  0  0  0
    8.9180    9.3440   13.8090 C   0  0  0  0  0  0  0  0  0  0  0  0
    6.5340    8.2560   14.6370 N   0  0  0  0  0  0  0  0  0  0  0  0
    5.4800    7.3170   14.6220 C   0  0  0  0  0  0  0  0  0  0  0  0
    6.1160    5.9170   14.6610 C   0  0  0  0  0  0  0  0  0  0  0  0
    7.4850    6.0480   15.2720 C   0  0  0  0  0  0  0  0  0  0  0  0
    7.5150    7.0220   16.4210 C   0  0  0  0  0  0  0  0  0  0  0  0
    6.9670    8.3760   16.0020 C   0  0  0  0  0  0  0  0  0  0  0  0
    5.3990   10.3810   14.5340 C   0  0  0  0  0  0  0  0  0  0  0  0
    5.0850   11.4550   13.9180 O   0  0  0  0  0  0  0  0  0  0  0  0
    4.7040   10.1330   15.7220 N   0  0  0  0  0  0  0  0  0  0  0  0
   10.9100    4.5010   13.3860 N   0  0  0  0  0  0  0  0  0  0  0  0
   13.3610    4.1560   11.1570 C   0  0  0  0  0  0  0  0  0  0  0  0
   14.3460    3.3280   10.6580 C   0  0  0  0  0  0  0  0  0  0  0  0
   15.6300    3.4880   11.1350 C   0  0  0  0  0  0  0  0  0  0  0  0
   15.9390    4.4500   12.0920 C   0  0  0  0  0  0  0  0  0  0  0  0
   14.9280    5.2580   12.5650 C   0  0  0  0  0  0  0  0  0  0  0  0
   13.6330    5.1220   12.1070 C   0  0  0  0  0  0  0  0  0  0  0  0
   15.3020    6.4860   13.7810 Cl  0  0  0  0  0  0  0  0  0  0  0  0
   14.0050    2.3940    9.7200 O   0  0  0  0  0  0  0  0  0  0  0  0
   14.8820    1.8110    8.7980 C   0  0  0  0  0  0  0  0  0  0  0  0
   10.6100    6.2810    9.2660 H   0  0  0  0  0  0  0  0  0  0  0  0
    7.9460   10.2920   11.4330 H   0  0  0  0  0  0  0  0  0  0  0  0
    7.4190    8.7360   10.7880 H   0  0  0  0  0  0  0  0  0  0  0  0
    5.8250   10.3850   12.1870 H   0  0  0  0  0  0  0  0  0  0  0  0
    5.5020    8.6480   12.1940 H   0  0  0  0  0  0  0  0  0  0  0  0
    7.8420   10.7910   15.0820 H   0  0  0  0  0  0  0  0  0  0  0  0
    7.7640   11.0350   13.3440 H   0  0  0  0  0  0  0  0  0  0  0  0
    9.1890    8.5920   14.5620 H   0  0  0  0  0  0  0  0  0  0  0  0
    9.8400    9.9720   13.5940 H   0  0  0  0  0  0  0  0  0  0  0  0
    4.8990    7.3480   15.5940 H   0  0  0  0  0  0  0  0  0  0  0  0
    4.8080    7.3210   13.7770 H   0  0  0  0  0  0  0  0  0  0  0  0
    5.4760    5.2040   15.2290 H   0  0  0  0  0  0  0  0  0  0  0  0
    6.2150    5.5590   13.5930 H   0  0  0  0  0  0  0  0  0  0  0  0
    8.2020    6.4290   14.4940 H   0  0  0  0  0  0  0  0  0  0  0  0
    7.8550    5.0760   15.6770 H   0  0  0  0  0  0  0  0  0  0  0  0
    8.5840    7.1080   16.7460 H   0  0  0  0  0  0  0  0  0  0  0  0
    6.9810    6.5800   17.2790 H   0  0  0  0  0  0  0  0  0  0  0  0
    7.6270    9.1960   16.2440 H   0  0  0  0  0  0  0  0  0  0  0  0
    6.0230    8.4880   16.6210 H   0  0  0  0  0  0  0  0  0  0  0  0
    4.3970   10.9610   16.3030 H   0  0  0  0  0  0  0  0  0  0  0  0
    4.4420    9.2040   16.1080 H   0  0  0  0  0  0  0  0  0  0  0  0
   10.7110    3.4910   13.2390 H   0  0  0  0  0  0  0  0  0  0  0  0
   11.4610    4.7600   14.2300 H   0  0  0  0  0  0  0  0  0  0  0  0
   16.4360    2.8560   10.7700 H   0  0  0  0  0  0  0  0  0  0  0  0
   16.9520    4.5370   12.4330 H   0  0  0  0  0  0  0  0  0  0  0  0
   12.8370    5.7770   12.4950 H   0  0  0  0  0  0  0  0  0  0  0  0
   15.4820    1.0390    9.3070 H   0  0  0  0  0  0  0  0  0  0  0  0
   14.2690    1.2710    8.0280 H   0  0  0  0  0  0  0  0  0  0  0  0
   15.4960    2.5360    8.2390 H   0  0  0  0  0  0  0  0  0  0  0  0
  1  2  2  0  0  0  0
  1 26  1  0  0  0  0
  1  4  1  0  0  0  0
  3  1  2  0  0  0  0
  4  5  2  0  0  0  0
  5  6  1  0  0  0  0
  5 25  1  0  0  0  0
  7 10  1  0  0  0  0
  7  6  2  0  0  0  0
  8  7  1  0  0  0  0
  9  8  2  0  0  0  0
  9  4  1  0  0  0  0
 10 15  1  0  0  0  0
 11 12  1  0  0  0  0
 11 10  1  0  0  0  0
 12 13  1  0  0  0  0
 13 14  1  0  0  0  0
 13 22  1  0  0  0  0
 13 16  1  0  0  0  0
 14 40  1  0  0  0  0
 15 14  1  0  0  0  0
 15 42  1  0  0  0  0
 16 21  1  0  0  0  0
 17 16  1  0  0  0  0
 17 18  1  0  0  0  0
 17 44  1  0  0  0  0
 18 46  1  0  0  0  0
 18 19  1  0  0  0  0
 19 49  1  0  0  0  0
 19 20  1  0  0  0  0
 20 50  1  0  0  0  0
 20 51  1  0  0  0  0
 21 52  1  0  0  0  0
 21 20  1  0  0  0  0
 21 53  1  0  0  0  0
 22 24  1  0  0  0  0
 23 22  2  0  0  0  0
 24 55  1  0  0  0  0
 24 54  1  0  0  0  0
 25 57  1  0  0  0  0
 26 31  1  0  0  0  0
 27 28  1  0  0  0  0
 27 26  2  0  0  0  0
 28 29  2  0  0  0  0
 29 59  1  0  0  0  0
 29 30  1  0  0  0  0
 30 32  1  0  0  0  0
 31 60  1  0  0  0  0
 31 30  2  0  0  0  0
 33 27  1  0  0  0  0
 34 61  1  0  0  0  0
 34 33  1  0  0  0  0
 35  9  1  0  0  0  0
 36 11  1  0  0  0  0
 37 11  1  0  0  0  0
 38 12  1  0  0  0  0
 39 12  1  0  0  0  0
 41 14  1  0  0  0  0
 43 15  1  0  0  0  0
 45 17  1  0  0  0  0
 47 18  1  0  0  0  0
 48 19  1  0  0  0  0
 56 25  1  0  0  0  0
 58 28  1  0  0  0  0
 62 34  1  0  0  0  0
 63 34  1  0  0  0  0
M  END
>  <Pose>
1

>  <Score>
-7.27

$$$$
