
 OpenBabel03172210413D

 32 35  0  0  1  0  0  0  0  0999 V2000
   12.2460    2.6900   12.3730 Cl  0  0  0  0  0  0  0  0  0  0  0  0
   11.6360    4.3410   12.2200 C   0  0  0  0  0  0  0  0  0  0  0  0
   10.3070    4.6390   12.3990 C   0  0  0  0  0  0  0  0  0  0  0  0
    9.8470    5.9590   12.2720 C   0  0  0  0  0  0  0  0  0  0  0  0
   10.6980    6.9840   11.9690 C   0  0  0  0  0  0  0  0  0  0  0  0
   12.0610    6.6860   11.7840 C   0  0  0  0  0  0  0  0  0  0  0  0
   12.4770    5.3840   11.9150 C   0  0  0  0  0  0  0  0  0  0  0  0
   10.0280    8.2310   11.8890 N   0  0  0  0  0  0  0  0  0  0  0  0
    8.6620    7.9700   12.1610 C   0  0  0  0  0  0  0  0  0  0  0  0
    7.7630    8.8620   12.1740 O   0  0  0  0  0  0  0  0  0  0  0  0
    8.4830    6.5230   12.4160 C   0  0  1  0  0  0  0  0  0  0  0  0
    7.5510    6.0030   11.3430 C   0  0  0  0  0  0  0  0  0  0  0  0
    6.2040    6.5700   11.6880 C   0  0  0  0  0  0  0  0  0  0  0  0
    5.5120    7.2220   10.8850 O   0  0  0  0  0  0  0  0  0  0  0  0
    5.7360    6.3220   13.0190 N   0  0  0  0  0  0  0  0  0  0  0  0
    6.6780    6.1630   14.0730 C   0  0  0  0  0  0  0  0  0  0  0  0
    6.5450    5.9170   15.4040 N   0  0  0  0  0  0  0  0  0  0  0  0
    7.7440    5.8550   15.9300 N   0  0  0  0  0  0  0  0  0  0  0  0
    8.6900    6.0510   14.9990 C   0  0  0  0  0  0  0  0  0  0  0  0
    8.0170    6.2540   13.7880 C   0  0  0  0  0  0  0  0  0  0  0  0
   10.6460    9.5250   11.5830 C   0  0  0  0  0  0  0  0  0  0  0  0
    9.6120    3.8750   12.6360 H   0  0  0  0  0  0  0  0  0  0  0  0
   12.7320    7.5010   11.5430 H   0  0  0  0  0  0  0  0  0  0  0  0
   13.5360    5.1660   11.7690 H   0  0  0  0  0  0  0  0  0  0  0  0
    7.5200    4.9140   11.2750 H   0  0  0  0  0  0  0  0  0  0  0  0
    7.8510    6.4950   10.3980 H   0  0  0  0  0  0  0  0  0  0  0  0
    4.7160    6.2550   13.2290 H   0  0  0  0  0  0  0  0  0  0  0  0
    5.6160    5.8050   15.8730 H   0  0  0  0  0  0  0  0  0  0  0  0
    9.7620    6.0650   15.0900 H   0  0  0  0  0  0  0  0  0  0  0  0
    9.8210   10.2570   11.4670 H   0  0  0  0  0  0  0  0  0  0  0  0
   11.3840    9.8210   12.3360 H   0  0  0  0  0  0  0  0  0  0  0  0
   11.1980    9.4760   10.6020 H   0  0  0  0  0  0  0  0  0  0  0  0
  2  1  1  0  0  0  0
  2  3  1  0  0  0  0
  3 22  1  0  0  0  0
  4  3  2  0  0  0  0
  4 11  1  0  0  0  0
  5  4  1  0  0  0  0
  6  7  1  0  0  0  0
  6  5  2  0  0  0  0
  7  2  2  0  0  0  0
  8  5  1  0  0  0  0
  8  9  1  0  0  0  0
  9 10  2  0  0  0  0
 11  9  1  6  0  0  0
 11 20  1  0  0  0  0
 12 13  1  0  0  0  0
 12 11  1  0  0  0  0
 13 15  1  0  0  0  0
 14 13  2  0  0  0  0
 15 27  1  0  0  0  0
 15 16  1  0  0  0  0
 16 17  1  0  0  0  0
 17 28  1  0  0  0  0
 17 18  1  0  0  0  0
 19 29  1  0  0  0  0
 19 18  2  0  0  0  0
 20 16  2  0  0  0  0
 20 19  1  0  0  0  0
 21  8  1  0  0  0  0
 21 31  1  0  0  0  0
 23  6  1  0  0  0  0
 24  7  1  0  0  0  0
 25 12  1  0  0  0  0
 26 12  1  0  0  0  0
 30 21  1  0  0  0  0
 32 21  1  0  0  0  0
M  END
>  <Pose>
1

>  <Score>
-5.60

$$$$
