
 OpenBabel03172210413D

 61 64  0  0  1  0  0  0  0  0999 V2000
   12.8370   -0.3620    8.2850 Cl  0  0  0  0  0  0  0  0  0  0  0  0
   12.2880    0.9420    9.3440 C   0  0  0  0  0  0  0  0  0  0  0  0
   13.2030    1.7090   10.0320 C   0  0  0  0  0  0  0  0  0  0  0  0
   12.7780    2.7110   10.8430 C   0  0  0  0  0  0  0  0  0  0  0  0
   11.4090    2.9730   10.9890 C   0  0  0  0  0  0  0  0  0  0  0  0
   10.5140    2.1950   10.2940 C   0  0  0  0  0  0  0  0  0  0  0  0
   10.9320    1.1670    9.4600 C   0  0  0  0  0  0  0  0  0  0  0  0
   10.9560    4.0230   11.8370 N   0  0  0  0  0  0  0  0  0  0  0  0
   11.8360    5.1530   12.0900 C   0  0  2  0  0  0  0  0  0  0  0  0
   13.1240    4.5980   12.4350 N   0  0  0  0  0  0  0  0  0  0  0  0
   13.6670    3.5770   11.6130 C   0  0  0  0  0  0  0  0  0  0  0  0
   14.9030    3.3680   11.5050 O   0  0  0  0  0  0  0  0  0  0  0  0
   11.2870    5.9340   13.2370 C   0  0  0  0  0  0  0  0  0  0  0  0
   10.2670    6.9700   12.8250 C   0  0  0  0  0  0  0  0  0  0  0  0
    9.2750    6.4260   11.9200 N   0  0  0  0  0  0  0  0  0  0  0  0
    9.6080    5.8780   10.6210 C   0  0  0  0  0  0  0  0  0  0  0  0
    8.6620    5.3200   10.0200 O   0  0  0  0  0  0  0  0  0  0  0  0
   10.8880    5.8730    9.8940 C   0  0  0  0  0  0  0  0  0  0  0  0
   12.0520    5.9740   10.8340 C   0  0  0  0  0  0  0  0  0  0  0  0
    7.9150    6.3810   12.2750 C   0  0  0  0  0  0  0  0  0  0  0  0
    7.1460    7.5760   12.5400 C   0  0  0  0  0  0  0  0  0  0  0  0
    6.4210    7.9240   11.4760 O   0  0  0  0  0  0  0  0  0  0  0  0
    7.0520    8.3620   13.6660 N   0  0  0  0  0  0  0  0  0  0  0  0
    7.0250    9.8380   13.5000 C   0  0  0  0  0  0  0  0  0  0  0  0
    5.8920   10.2960   14.4320 C   0  0  0  0  0  0  0  0  0  0  0  0
    4.9840    9.2340   14.7090 N   0  0  0  0  0  0  0  0  0  0  0  0
    5.5010    8.1620   15.5070 C   0  0  0  0  0  0  0  0  0  0  0  0
    6.9550    7.9320   15.0050 C   0  0  0  0  0  0  0  0  0  0  0  0
    3.6470    9.6150   15.0150 C   0  0  0  0  0  0  0  0  0  0  0  0
    2.7120    9.5670   13.8240 C   0  0  0  0  0  0  0  0  0  0  0  0
    3.0420    8.8330   16.1490 C   0  0  0  0  0  0  0  0  0  0  0  0
   14.2690    1.5430    9.9510 H   0  0  0  0  0  0  0  0  0  0  0  0
    9.4440    2.4110   10.4170 H   0  0  0  0  0  0  0  0  0  0  0  0
   10.2190    0.5640    8.9200 H   0  0  0  0  0  0  0  0  0  0  0  0
   10.0010    3.9260   12.2410 H   0  0  0  0  0  0  0  0  0  0  0  0
   13.6770    4.9080   13.2570 H   0  0  0  0  0  0  0  0  0  0  0  0
   12.1480    6.5130   13.6800 H   0  0  0  0  0  0  0  0  0  0  0  0
   10.9230    5.2330   13.9940 H   0  0  0  0  0  0  0  0  0  0  0  0
    9.8360    7.4340   13.7100 H   0  0  0  0  0  0  0  0  0  0  0  0
   10.8260    7.7550   12.2800 H   0  0  0  0  0  0  0  0  0  0  0  0
   10.9760    4.9240    9.3090 H   0  0  0  0  0  0  0  0  0  0  0  0
   10.9520    6.7430    9.1760 H   0  0  0  0  0  0  0  0  0  0  0  0
   12.3030    7.0230   11.0890 H   0  0  0  0  0  0  0  0  0  0  0  0
   12.9580    5.6010   10.2680 H   0  0  0  0  0  0  0  0  0  0  0  0
    7.7470    5.7080   13.1970 H   0  0  0  0  0  0  0  0  0  0  0  0
    7.3800    5.7710   11.4850 H   0  0  0  0  0  0  0  0  0  0  0  0
    7.9910   10.2580   13.8440 H   0  0  0  0  0  0  0  0  0  0  0  0
    6.8550   10.1040   12.4580 H   0  0  0  0  0  0  0  0  0  0  0  0
    6.3390   10.7660   15.3390 H   0  0  0  0  0  0  0  0  0  0  0  0
    5.3420   11.0780   13.8710 H   0  0  0  0  0  0  0  0  0  0  0  0
    4.9630    7.2290   15.2450 H   0  0  0  0  0  0  0  0  0  0  0  0
    5.4900    8.3300   16.5860 H   0  0  0  0  0  0  0  0  0  0  0  0
    7.3010    6.9500   15.2840 H   0  0  0  0  0  0  0  0  0  0  0  0
    7.6230    8.6390   15.6210 H   0  0  0  0  0  0  0  0  0  0  0  0
    3.6700   10.6810   15.3440 H   0  0  0  0  0  0  0  0  0  0  0  0
    3.0990   10.2770   13.0570 H   0  0  0  0  0  0  0  0  0  0  0  0
    2.5870    8.5520   13.4500 H   0  0  0  0  0  0  0  0  0  0  0  0
    1.7380    9.9930   14.1670 H   0  0  0  0  0  0  0  0  0  0  0  0
    2.7480    7.8110   15.8590 H   0  0  0  0  0  0  0  0  0  0  0  0
    3.7940    8.8280   16.9920 H   0  0  0  0  0  0  0  0  0  0  0  0
    2.1440    9.3970   16.4840 H   0  0  0  0  0  0  0  0  0  0  0  0
  1  2  1  0  0  0  0
  2  7  2  0  0  0  0
  2  3  1  0  0  0  0
  3  4  2  0  0  0  0
  4  5  1  0  0  0  0
  4 11  1  0  0  0  0
  5  8  1  0  0  0  0
  6 33  1  0  0  0  0
  6  5  2  0  0  0  0
  7  6  1  0  0  0  0
  8  9  1  0  0  0  0
  8 35  1  0  0  0  0
  9 19  1  6  0  0  0
  9 10  1  0  0  0  0
  9 13  1  0  0  0  0
 10 36  1  0  0  0  0
 11 10  1  0  0  0  0
 12 11  2  0  0  0  0
 13 37  1  0  0  0  0
 13 38  1  0  0  0  0
 14 13  1  0  0  0  0
 14 39  1  0  0  0  0
 15 20  1  0  0  0  0
 15 14  1  0  0  0  0
 16 15  1  0  0  0  0
 17 16  2  0  0  0  0
 18 16  1  0  0  0  0
 18 19  1  0  0  0  0
 19 43  1  0  0  0  0
 20 21  1  0  0  0  0
 20 45  1  0  0  0  0
 21 23  1  0  0  0  0
 22 21  2  0  0  0  0
 23 28  1  0  0  0  0
 24 23  1  0  0  0  0
 24 47  1  0  0  0  0
 24 25  1  0  0  0  0
 25 26  1  0  0  0  0
 25 49  1  0  0  0  0
 26 29  1  0  0  0  0
 26 27  1  0  0  0  0
 27 52  1  0  0  0  0
 28 53  1  0  0  0  0
 28 27  1  0  0  0  0
 28 54  1  0  0  0  0
 29 55  1  0  0  0  0
 29 31  1  0  0  0  0
 30 58  1  0  0  0  0
 30 29  1  0  0  0  0
 31 61  1  0  0  0  0
 31 60  1  0  0  0  0
 32  3  1  0  0  0  0
 34  7  1  0  0  0  0
 40 14  1  0  0  0  0
 41 18  1  0  0  0  0
 42 18  1  0  0  0  0
 44 19  1  0  0  0  0
 46 20  1  0  0  0  0
 48 24  1  0  0  0  0
 50 25  1  0  0  0  0
 51 27  1  0  0  0  0
 56 30  1  0  0  0  0
 57 30  1  0  0  0  0
 59 31  1  0  0  0  0
M  END
>  <Pose>
1

>  <Score>
-6.55

$$$$
