
 OpenBabel03172210413D

 54 58  0  0  1  0  0  0  0  0999 V2000
   12.3390    4.2440   11.2210 S   0  0  0  0  0  0  0  0  0  0  0  0
   13.7650    4.7390   11.0210 O   0  0  0  0  0  0  0  0  0  0  0  0
   12.2860    3.8790   12.7050 O   0  0  0  0  0  0  0  0  0  0  0  0
   11.3030    5.5440   10.9800 N   0  0  0  0  0  0  0  0  0  0  0  0
    9.9730    5.4210   11.5170 C   0  0  0  0  0  0  0  0  0  0  0  0
    9.5510    6.6710   12.2540 C   0  0  0  0  0  0  0  0  0  0  0  0
   10.5540    7.0090   13.2960 N   0  0  0  0  0  0  0  0  0  0  0  0
   11.8000    7.3300   12.6150 C   0  0  0  0  0  0  0  0  0  0  0  0
   11.8290    6.8610   11.1710 C   0  0  0  0  0  0  0  0  0  0  0  0
   10.0180    8.2030   13.9120 C   0  0  0  0  0  0  0  0  0  0  0  0
    9.2990    8.0570   15.1860 C   0  0  0  0  0  0  0  0  0  0  0  0
    7.8820    8.1810   15.2180 N   0  0  0  0  0  0  0  0  0  0  0  0
    7.0320    9.2440   14.8010 C   0  0  0  0  0  0  0  0  0  0  0  0
    7.3590   10.4370   14.7300 O   0  0  0  0  0  0  0  0  0  0  0  0
    5.6980    8.6870   14.4710 C   0  0  1  0  0  0  0  0  0  0  0  0
    5.6560    7.4760   15.4300 C   0  0  2  0  0  0  0  0  0  0  0  0
    4.8660    7.9240   16.6020 C   0  0  1  0  0  0  0  0  0  0  0  0
    5.0330    9.4510   16.5410 C   0  0  0  0  0  0  0  0  0  0  0  0
    4.6270    9.5340   15.0590 C   0  0  2  0  0  0  0  0  0  0  0  0
    3.3870    8.6880   15.1090 C   0  0  0  0  0  0  0  0  0  0  0  0
    3.4130    7.8870   16.1740 C   0  0  0  0  0  0  0  0  0  0  0  0
    7.0400    7.1040   15.6860 C   0  0  0  0  0  0  0  0  0  0  0  0
    7.4030    6.0260   16.2210 O   0  0  0  0  0  0  0  0  0  0  0  0
   12.0270    2.8090   10.3320 C   0  0  0  0  0  0  0  0  0  0  0  0
   10.7410    2.3640   10.1410 C   0  0  0  0  0  0  0  0  0  0  0  0
   10.5280    1.2090    9.4100 C   0  0  0  0  0  0  0  0  0  0  0  0
   11.5640    0.4760    8.8600 C   0  0  0  0  0  0  0  0  0  0  0  0
   12.8530    0.9260    9.0540 C   0  0  0  0  0  0  0  0  0  0  0  0
   13.0660    2.0880    9.7890 C   0  0  0  0  0  0  0  0  0  0  0  0
   11.2720   -1.1170    7.8540 B   0  0  0  0  0  0  0  0  0  0  0  0
    9.2760    5.3230   10.6520 H   0  0  0  0  0  0  0  0  0  0  0  0
    9.8750    4.5260   12.1290 H   0  0  0  0  0  0  0  0  0  0  0  0
    8.6110    6.4610   12.7930 H   0  0  0  0  0  0  0  0  0  0  0  0
    9.3900    7.5440   11.5960 H   0  0  0  0  0  0  0  0  0  0  0  0
   12.6160    6.7740   13.1050 H   0  0  0  0  0  0  0  0  0  0  0  0
   11.9500    8.4220   12.6900 H   0  0  0  0  0  0  0  0  0  0  0  0
   12.8230    6.9340   10.7340 H   0  0  0  0  0  0  0  0  0  0  0  0
   11.1700    7.5550   10.6010 H   0  0  0  0  0  0  0  0  0  0  0  0
    9.2850    8.6870   13.1890 H   0  0  0  0  0  0  0  0  0  0  0  0
   10.8380    8.9880   13.9560 H   0  0  0  0  0  0  0  0  0  0  0  0
    9.5470    7.0120   15.5700 H   0  0  0  0  0  0  0  0  0  0  0  0
    9.7970    8.7360   15.9350 H   0  0  0  0  0  0  0  0  0  0  0  0
    5.5800    8.4020   13.4300 H   0  0  0  0  0  0  0  0  0  0  0  0
    5.0770    6.6440   14.9360 H   0  0  0  0  0  0  0  0  0  0  0  0
    5.0710    7.4990   17.5550 H   0  0  0  0  0  0  0  0  0  0  0  0
    4.3110    9.9760   17.1770 H   0  0  0  0  0  0  0  0  0  0  0  0
    6.0640    9.7770   16.6400 H   0  0  0  0  0  0  0  0  0  0  0  0
    4.4890   10.5200   14.6870 H   0  0  0  0  0  0  0  0  0  0  0  0
    2.5600    8.6890   14.4070 H   0  0  0  0  0  0  0  0  0  0  0  0
    2.6000    7.3460   16.6200 H   0  0  0  0  0  0  0  0  0  0  0  0
    9.8760    2.9070   10.5530 H   0  0  0  0  0  0  0  0  0  0  0  0
    9.5080    0.8580    9.2600 H   0  0  0  0  0  0  0  0  0  0  0  0
   13.6520    0.3450    8.6200 H   0  0  0  0  0  0  0  0  0  0  0  0
   14.1050    2.3690    9.8890 H   0  0  0  0  0  0  0  0  0  0  0  0
  1  3  2  0  0  0  0
  2  1  2  0  0  0  0
  4  9  1  0  0  0  0
  4  1  1  0  0  0  0
  4  5  1  0  0  0  0
  5 32  1  0  0  0  0
  5  6  1  0  0  0  0
  6 33  1  0  0  0  0
  6  7  1  0  0  0  0
  7 10  1  0  0  0  0
  8 36  1  0  0  0  0
  8 35  1  0  0  0  0
  8  7  1  0  0  0  0
  9  8  1  0  0  0  0
 10 40  1  0  0  0  0
 10 11  1  0  0  0  0
 11 12  1  0  0  0  0
 11 41  1  0  0  0  0
 11 42  1  0  0  0  0
 12 22  1  0  0  0  0
 13 12  1  0  0  0  0
 14 13  2  0  0  0  0
 15 43  1  6  0  0  0
 15 13  1  0  0  0  0
 15 19  1  0  0  0  0
 15 16  1  0  0  0  0
 16 44  1  6  0  0  0
 16 22  1  0  0  0  0
 16 17  1  0  0  0  0
 17 45  1  1  0  0  0
 18 17  1  0  0  0  0
 18 47  1  0  0  0  0
 18 46  1  0  0  0  0
 19 48  1  6  0  0  0
 19 20  1  0  0  0  0
 19 18  1  0  0  0  0
 20 21  1  0  0  0  0
 21 17  1  0  0  0  0
 21 50  1  0  0  0  0
 22 23  2  0  0  0  0
 24  1  1  0  0  0  0
 25 24  1  0  0  0  0
 25 51  1  0  0  0  0
 26 25  2  0  0  0  0
 27 28  2  0  0  0  0
 27 26  1  0  0  0  0
 28 29  1  0  0  0  0
 29 54  1  0  0  0  0
 29 24  2  0  0  0  0
 30 27  1  0  0  0  0
 31  5  1  0  0  0  0
 34  6  1  0  0  0  0
 37  9  1  0  0  0  0
 38  9  1  0  0  0  0
 39 10  1  0  0  0  0
 49 20  1  0  0  0  0
 52 26  1  0  0  0  0
 53 28  1  0  0  0  0
M  END
>  <Pose>
1

>  <Score>
-6.53

$$$$
