
 OpenBabel03172210413D

 37 40  0  0  0  0  0  0  0  0999 V2000
   17.4220    6.6320   15.0750 B   0  0  0  0  0  0  0  0  0  0  0  0
   17.7540    6.3200   13.2190 C   0  0  0  0  0  0  0  0  0  0  0  0
   17.7810    7.3690   12.3250 C   0  0  0  0  0  0  0  0  0  0  0  0
   18.0180    7.1660   10.9860 C   0  0  0  0  0  0  0  0  0  0  0  0
   18.1000    7.9820    9.9070 N   0  0  0  0  0  0  0  0  0  0  0  0
   18.3520    7.2240    8.8560 N   0  0  0  0  0  0  0  0  0  0  0  0
   18.4380    5.9650    9.1820 N   0  0  0  0  0  0  0  0  0  0  0  0
   18.2310    5.8900   10.5250 C   0  0  0  0  0  0  0  0  0  0  0  0
   18.2050    4.8320   11.4170 C   0  0  0  0  0  0  0  0  0  0  0  0
   17.9660    5.0440   12.7660 C   0  0  0  0  0  0  0  0  0  0  0  0
   18.4350    3.4870   10.9010 C   0  0  0  0  0  0  0  0  0  0  0  0
   19.5510    2.9630   11.0800 O   0  0  0  0  0  0  0  0  0  0  0  0
   17.4400    2.7560   10.2050 N   0  0  0  0  0  0  0  0  0  0  0  0
   16.0500    2.8340   10.5820 C   0  0  0  0  0  0  0  0  0  0  0  0
   15.2620    1.8710    9.7370 C   0  0  0  0  0  0  0  0  0  0  0  0
   14.0150    1.4270    9.9670 N   0  0  0  0  0  0  0  0  0  0  0  0
   13.6280    0.5720    8.9960 C   0  0  0  0  0  0  0  0  0  0  0  0
   14.6590    0.4860    8.1470 N   0  0  0  0  0  0  0  0  0  0  0  0
   15.6510    1.2720    8.5940 N   0  0  0  0  0  0  0  0  0  0  0  0
   12.2590    0.0000    9.1270 C   0  0  0  0  0  0  0  0  0  0  0  0
   11.3400    1.2220    9.2680 C   0  0  0  0  0  0  0  0  0  0  0  0
   11.7580    2.1300   10.3770 C   0  0  0  0  0  0  0  0  0  0  0  0
   13.0560    1.6850   11.0170 C   0  0  0  0  0  0  0  0  0  0  0  0
   17.6140    8.3750   12.6820 H   0  0  0  0  0  0  0  0  0  0  0  0
   18.6230    5.1130    8.6140 H   0  0  0  0  0  0  0  0  0  0  0  0
   17.9560    4.1810   13.4240 H   0  0  0  0  0  0  0  0  0  0  0  0
   17.7110    2.1540    9.4100 H   0  0  0  0  0  0  0  0  0  0  0  0
   15.8910    2.6840   11.6490 H   0  0  0  0  0  0  0  0  0  0  0  0
   15.7000    3.8650   10.3030 H   0  0  0  0  0  0  0  0  0  0  0  0
   12.1920   -0.6550   10.0030 H   0  0  0  0  0  0  0  0  0  0  0  0
   11.9310   -0.4940    8.1780 H   0  0  0  0  0  0  0  0  0  0  0  0
   11.4420    1.7680    8.3090 H   0  0  0  0  0  0  0  0  0  0  0  0
   10.2830    0.9080    9.3590 H   0  0  0  0  0  0  0  0  0  0  0  0
   10.9650    2.2600   11.1520 H   0  0  0  0  0  0  0  0  0  0  0  0
   11.9400    3.1490    9.9800 H   0  0  0  0  0  0  0  0  0  0  0  0
   12.8630    0.7140   11.5270 H   0  0  0  0  0  0  0  0  0  0  0  0
   13.4470    2.4220   11.7260 H   0  0  0  0  0  0  0  0  0  0  0  0
  2  1  1  0  0  0  0
  3 24  1  0  0  0  0
  3  2  2  0  0  0  0
  4  3  1  0  0  0  0
  5  4  1  0  0  0  0
  6  7  1  0  0  0  0
  6  5  2  0  0  0  0
  7  8  1  0  0  0  0
  8  4  2  0  0  0  0
  8  9  1  0  0  0  0
  9 10  2  0  0  0  0
 10  2  1  0  0  0  0
 10 26  1  0  0  0  0
 11 12  2  0  0  0  0
 11  9  1  0  0  0  0
 13 14  1  0  0  0  0
 13 11  1  0  0  0  0
 14 28  1  0  0  0  0
 15 16  1  0  0  0  0
 15 14  1  0  0  0  0
 16 23  1  0  0  0  0
 17 20  1  0  0  0  0
 17 16  1  0  0  0  0
 18 19  1  0  0  0  0
 18 17  2  0  0  0  0
 19 15  2  0  0  0  0
 20 21  1  0  0  0  0
 20 30  1  0  0  0  0
 21 33  1  0  0  0  0
 21 22  1  0  0  0  0
 22 23  1  0  0  0  0
 22 34  1  0  0  0  0
 23 36  1  0  0  0  0
 23 37  1  0  0  0  0
 25  7  1  0  0  0  0
 27 13  1  0  0  0  0
 29 14  1  0  0  0  0
 31 20  1  0  0  0  0
 32 21  1  0  0  0  0
 35 22  1  0  0  0  0
M  END
>  <Pose>
1

>  <Score>
-6.62

$$$$
