
 OpenBabel03172210413D

 40 43  0  0  0  0  0  0  0  0999 V2000
    5.0110    8.0580   13.3210 Cl  0  0  0  0  0  0  0  0  0  0  0  0
    6.5290    7.2230   12.9940 C   0  0  0  0  0  0  0  0  0  0  0  0
    7.5030    7.0690   13.9580 C   0  0  0  0  0  0  0  0  0  0  0  0
    8.6730    6.4070   13.6450 C   0  0  0  0  0  0  0  0  0  0  0  0
    9.7910    6.1030   14.3590 N   0  0  0  0  0  0  0  0  0  0  0  0
   10.6470    5.4350   13.5670 C   0  0  0  0  0  0  0  0  0  0  0  0
   10.1190    5.2870   12.3340 N   0  0  0  0  0  0  0  0  0  0  0  0
    8.9140    5.8830   12.3910 C   0  0  0  0  0  0  0  0  0  0  0  0
    7.9490    6.0300   11.4230 C   0  0  0  0  0  0  0  0  0  0  0  0
    6.7820    6.6940   11.7430 C   0  0  0  0  0  0  0  0  0  0  0  0
   10.7530    4.6190   11.2170 C   0  0  0  0  0  0  0  0  0  0  0  0
   12.0120    3.8940   11.6380 C   0  0  0  0  0  0  0  0  0  0  0  0
   12.2570    2.8250   10.6750 N   0  0  0  0  0  0  0  0  0  0  0  0
   13.4840    2.6490   10.1360 C   0  0  0  0  0  0  0  0  0  0  0  0
   13.7490    1.6510    9.2250 C   0  0  0  0  0  0  0  0  0  0  0  0
   12.6800    0.7460    8.8200 C   0  0  0  0  0  0  0  0  0  0  0  0
   13.2230   -0.1070    7.9400 N   0  0  0  0  0  0  0  0  0  0  0  0
   14.5220    0.1770    7.7570 N   0  0  0  0  0  0  0  0  0  0  0  0
   14.8560    1.2290    8.5200 C   0  0  0  0  0  0  0  0  0  0  0  0
   16.0030    1.7280    8.5660 O   0  0  0  0  0  0  0  0  0  0  0  0
   11.4360    0.9550    9.3920 C   0  0  0  0  0  0  0  0  0  0  0  0
   11.2920    1.9800   10.2850 C   0  0  0  0  0  0  0  0  0  0  0  0
   10.3410    0.0690    9.0100 C   0  0  0  0  0  0  0  0  0  0  0  0
    9.2420    0.1630    9.6130 O   0  0  0  0  0  0  0  0  0  0  0  0
   10.4800   -0.8610    8.0150 O   0  0  0  0  0  0  0  0  0  0  0  0
    9.3560   -1.4960    7.4280 C   0  0  0  0  0  0  0  0  0  0  0  0
    7.3230    7.4770   14.9430 H   0  0  0  0  0  0  0  0  0  0  0  0
   11.6010    5.0860   13.9020 H   0  0  0  0  0  0  0  0  0  0  0  0
    8.1440    5.6150   10.4330 H   0  0  0  0  0  0  0  0  0  0  0  0
    6.0170    6.8160   10.9890 H   0  0  0  0  0  0  0  0  0  0  0  0
   10.0770    3.8850   10.7300 H   0  0  0  0  0  0  0  0  0  0  0  0
   11.0230    5.3690   10.4520 H   0  0  0  0  0  0  0  0  0  0  0  0
   11.9220    3.4290   12.6240 H   0  0  0  0  0  0  0  0  0  0  0  0
   12.8470    4.6120   11.6540 H   0  0  0  0  0  0  0  0  0  0  0  0
   14.2860    3.3100   10.4250 H   0  0  0  0  0  0  0  0  0  0  0  0
   15.1320   -0.3770    7.1040 H   0  0  0  0  0  0  0  0  0  0  0  0
   10.3030    2.1410   10.7360 H   0  0  0  0  0  0  0  0  0  0  0  0
    8.4350   -1.0330    7.8550 H   0  0  0  0  0  0  0  0  0  0  0  0
    9.3670   -2.5920    7.6510 H   0  0  0  0  0  0  0  0  0  0  0  0
    9.3210   -1.3020    6.3320 H   0  0  0  0  0  0  0  0  0  0  0  0
  2  1  1  0  0  0  0
  2  3  1  0  0  0  0
  3 27  1  0  0  0  0
  4  3  2  0  0  0  0
  4  5  1  0  0  0  0
  6 28  1  0  0  0  0
  6  5  2  0  0  0  0
  7  8  1  0  0  0  0
  7  6  1  0  0  0  0
  8  4  1  0  0  0  0
  9 10  1  0  0  0  0
  9  8  2  0  0  0  0
 10  2  2  0  0  0  0
 11 12  1  0  0  0  0
 11  7  1  0  0  0  0
 12 34  1  0  0  0  0
 12 33  1  0  0  0  0
 13 12  1  0  0  0  0
 14 35  1  0  0  0  0
 14 13  1  0  0  0  0
 15 14  1  0  0  0  0
 16 15  2  0  0  0  0
 16 21  1  0  0  0  0
 17 16  1  0  0  0  0
 18 17  1  0  0  0  0
 18 19  1  0  0  0  0
 19 20  2  0  0  0  0
 19 15  1  0  0  0  0
 21 22  2  0  0  0  0
 22 13  1  0  0  0  0
 22 37  1  0  0  0  0
 23 21  1  0  0  0  0
 23 24  2  0  0  0  0
 25 23  1  0  0  0  0
 26 39  1  0  0  0  0
 26 38  1  0  0  0  0
 26 25  1  0  0  0  0
 29  9  1  0  0  0  0
 30 10  1  0  0  0  0
 31 11  1  0  0  0  0
 32 11  1  0  0  0  0
 36 18  1  0  0  0  0
 40 26  1  0  0  0  0
M  END
>  <Pose>
1

>  <Score>
-7.27

$$$$
