
 OpenBabel03172210413D

 55 59  0  0  1  0  0  0  0  0999 V2000
   12.4520   15.5780   13.8860 Cl  0  0  0  0  0  0  0  0  0  0  0  0
   12.5580   13.9440   14.5300 C   0  0  0  0  0  0  0  0  0  0  0  0
   13.0200   12.8960   13.7690 C   0  0  0  0  0  0  0  0  0  0  0  0
   13.0890   11.6150   14.3170 C   0  0  0  0  0  0  0  0  0  0  0  0
   13.4860   10.4250   13.8350 N   0  0  0  0  0  0  0  0  0  0  0  0
   13.3630    9.4640   14.7670 C   0  0  0  0  0  0  0  0  0  0  0  0
   12.8790   10.0670   15.8520 N   0  0  0  0  0  0  0  0  0  0  0  0
   12.6980   11.3840   15.6180 C   0  0  0  0  0  0  0  0  0  0  0  0
   12.2340   12.4340   16.3810 C   0  0  0  0  0  0  0  0  0  0  0  0
   12.1710   13.7110   15.8200 C   0  0  0  0  0  0  0  0  0  0  0  0
   13.7180    8.0220   14.5540 C   0  0  0  0  0  0  0  0  0  0  0  0
   12.4760    7.2670   14.1360 C   0  0  0  0  0  0  0  0  0  0  0  0
   12.8240    6.1750   13.2140 C   0  0  0  0  0  0  0  0  0  0  0  0
   13.9940    5.7480   13.1860 O   0  0  0  0  0  0  0  0  0  0  0  0
   11.8490    5.6160   12.3720 N   0  0  0  0  0  0  0  0  0  0  0  0
   11.2510    4.3190   12.3390 C   0  0  0  0  0  0  0  0  0  0  0  0
   11.1660    3.9710   10.8330 C   0  0  1  0  0  0  0  0  0  0  0  0
   10.9000    5.3260   10.2780 C   0  0  2  0  0  0  0  0  0  0  0  0
   11.2130    6.3620   11.3030 C   0  0  0  0  0  0  0  0  0  0  0  0
    9.5720    5.5170    9.8990 O   0  0  0  0  0  0  0  0  0  0  0  0
   12.4150    3.3950   10.4250 N   0  0  0  0  0  0  0  0  0  0  0  0
   12.6200    2.2310    9.7850 C   0  0  0  0  0  0  0  0  0  0  0  0
   14.0060    2.0670    9.5840 C   0  0  0  0  0  0  0  0  0  0  0  0
   14.5890    3.1520   10.1190 N   0  0  0  0  0  0  0  0  0  0  0  0
   13.6550    3.9530   10.6250 C   0  0  0  0  0  0  0  0  0  0  0  0
   14.5080    0.9550    8.9470 C   0  0  0  0  0  0  0  0  0  0  0  0
   15.7520    0.8360    8.7820 O   0  0  0  0  0  0  0  0  0  0  0  0
   13.6350    0.0340    8.5230 N   0  0  0  0  0  0  0  0  0  0  0  0
   12.3250    0.1970    8.7170 C   0  0  0  0  0  0  0  0  0  0  0  0
   11.5170   -0.6790    8.3130 O   0  0  0  0  0  0  0  0  0  0  0  0
   11.7730    1.2810    9.3430 N   0  0  0  0  0  0  0  0  0  0  0  0
   10.3590    1.3890    9.5180 C   0  0  0  0  0  0  0  0  0  0  0  0
   14.1390   -1.1610    7.8420 C   0  0  0  0  0  0  0  0  0  0  0  0
   13.3300   13.0560   12.7510 H   0  0  0  0  0  0  0  0  0  0  0  0
   13.8410   10.2980   12.8490 H   0  0  0  0  0  0  0  0  0  0  0  0
   11.9220   12.2830   17.4020 H   0  0  0  0  0  0  0  0  0  0  0  0
   11.8060   14.5450   16.4180 H   0  0  0  0  0  0  0  0  0  0  0  0
   14.1220    7.6310   15.5060 H   0  0  0  0  0  0  0  0  0  0  0  0
   14.5020    7.9230   13.7760 H   0  0  0  0  0  0  0  0  0  0  0  0
   11.7210    7.9580   13.7360 H   0  0  0  0  0  0  0  0  0  0  0  0
   12.0330    6.8660   15.0950 H   0  0  0  0  0  0  0  0  0  0  0  0
   10.1930    4.4690   12.7170 H   0  0  0  0  0  0  0  0  0  0  0  0
   11.6880    3.5410   12.9400 H   0  0  0  0  0  0  0  0  0  0  0  0
   10.3040    3.2730   10.8390 H   0  0  0  0  0  0  0  0  0  0  0  0
   11.6140    5.5210    9.4240 H   0  0  0  0  0  0  0  0  0  0  0  0
   11.8640    7.1780   10.9250 H   0  0  0  0  0  0  0  0  0  0  0  0
   10.2590    6.8300   11.6870 H   0  0  0  0  0  0  0  0  0  0  0  0
    9.0900    4.6490    9.7980 H   0  0  0  0  0  0  0  0  0  0  0  0
   13.8030    4.8900   11.1190 H   0  0  0  0  0  0  0  0  0  0  0  0
    9.8300    1.9460    8.7180 H   0  0  0  0  0  0  0  0  0  0  0  0
    9.9650    0.3230    9.3150 H   0  0  0  0  0  0  0  0  0  0  0  0
    9.9930    1.5450   10.5360 H   0  0  0  0  0  0  0  0  0  0  0  0
   13.8510   -1.1380    6.7670 H   0  0  0  0  0  0  0  0  0  0  0  0
   15.2390   -1.2120    7.9370 H   0  0  0  0  0  0  0  0  0  0  0  0
   13.6510   -2.0510    8.2810 H   0  0  0  0  0  0  0  0  0  0  0  0
  1  2  1  0  0  0  0
  2 10  1  0  0  0  0
  3  4  1  0  0  0  0
  3  2  2  0  0  0  0
  4  8  2  0  0  0  0
  5  4  1  0  0  0  0
  5  6  1  0  0  0  0
  6  7  2  0  0  0  0
  8  7  1  0  0  0  0
  8  9  1  0  0  0  0
  9 36  1  0  0  0  0
 10  9  2  0  0  0  0
 10 37  1  0  0  0  0
 11  6  1  0  0  0  0
 11 38  1  0  0  0  0
 12 11  1  0  0  0  0
 12 41  1  0  0  0  0
 13 12  1  0  0  0  0
 14 13  2  0  0  0  0
 15 13  1  0  0  0  0
 16 15  1  0  0  0  0
 16 42  1  0  0  0  0
 16 43  1  0  0  0  0
 17 44  1  6  0  0  0
 17 16  1  0  0  0  0
 18 45  1  6  0  0  0
 18 17  1  0  0  0  0
 18 19  1  0  0  0  0
 19 47  1  0  0  0  0
 19 15  1  0  0  0  0
 20 18  1  0  0  0  0
 21 25  1  0  0  0  0
 21 17  1  0  0  0  0
 22 21  1  0  0  0  0
 23 22  2  0  0  0  0
 23 24  1  0  0  0  0
 24 25  2  0  0  0  0
 25 49  1  0  0  0  0
 26 23  1  0  0  0  0
 27 26  2  0  0  0  0
 28 29  1  0  0  0  0
 28 26  1  0  0  0  0
 29 31  1  0  0  0  0
 30 29  2  0  0  0  0
 31 32  1  0  0  0  0
 31 22  1  0  0  0  0
 32 52  1  0  0  0  0
 33 54  1  0  0  0  0
 33 55  1  0  0  0  0
 33 28  1  0  0  0  0
 34  3  1  0  0  0  0
 35  5  1  0  0  0  0
 39 11  1  0  0  0  0
 40 12  1  0  0  0  0
 46 19  1  0  0  0  0
 48 20  1  0  0  0  0
 50 32  1  0  0  0  0
 51 32  1  0  0  0  0
 53 33  1  0  0  0  0
M  END
>  <Pose>
1

>  <Score>
-6.68

$$$$
