
 OpenBabel03172210413D

 50 53  0  0  1  0  0  0  0  0999 V2000
    7.4790    5.9560   14.9430 Cl  0  0  0  0  0  0  0  0  0  0  0  0
    8.3710    6.2680   13.4890 C   0  0  0  0  0  0  0  0  0  0  0  0
    9.1780    5.2900   12.9250 C   0  0  0  0  0  0  0  0  0  0  0  0
    9.8930    5.5240   11.7680 C   0  0  0  0  0  0  0  0  0  0  0  0
    9.7870    6.7560   11.1850 C   0  0  0  0  0  0  0  0  0  0  0  0
    8.9840    7.7670   11.7220 C   0  0  0  0  0  0  0  0  0  0  0  0
    8.2830    7.5000   12.8770 C   0  0  0  0  0  0  0  0  0  0  0  0
   10.6060    6.8100   10.0250 N   0  0  0  0  0  0  0  0  0  0  0  0
   11.2540    5.5550    9.8830 C   0  0  0  0  0  0  0  0  0  0  0  0
   12.0790    5.3400    8.9370 O   0  0  0  0  0  0  0  0  0  0  0  0
   10.7850    4.6940   10.9610 C   0  0  2  0  0  0  0  0  0  0  0  0
   10.1070    3.4980   10.4550 N   0  0  0  0  0  0  0  0  0  0  0  0
   11.2330    2.7020   10.0190 C   0  0  1  0  0  0  0  0  0  0  0  0
   12.3030    2.8920   11.0450 C   0  0  2  0  0  0  0  0  0  0  0  0
   11.8370    4.0870   11.8210 C   0  0  1  0  0  0  0  0  0  0  0  0
   13.0140    4.9550   12.0680 C   0  0  0  0  0  0  0  0  0  0  0  0
   12.9350    5.9700   12.8090 O   0  0  0  0  0  0  0  0  0  0  0  0
   14.1080    4.4130   11.3460 N   0  0  0  0  0  0  0  0  0  0  0  0
   13.5830    3.4130   10.4650 C   0  0  0  0  0  0  0  0  0  0  0  0
   14.0630    3.0120    9.4000 O   0  0  0  0  0  0  0  0  0  0  0  0
   15.4680    4.7800   11.4700 C   0  0  0  0  0  0  0  0  0  0  0  0
   16.5140    3.8330   11.0290 C   0  0  0  0  0  0  0  0  0  0  0  0
   17.8880    4.0310   11.5420 C   0  0  0  0  0  0  0  0  0  0  0  0
   18.8690    3.2230   10.9890 O   0  0  0  0  0  0  0  0  0  0  0  0
   20.1000    3.5810   11.5900 C   0  0  0  0  0  0  0  0  0  0  0  0
   10.8680    1.2560    9.8050 C   0  0  1  0  0  0  0  0  0  0  0  0
    9.7070    1.2190    9.0450 O   0  0  0  0  0  0  0  0  0  0  0  0
   11.9620    0.4770    9.1200 C   0  0  0  0  0  0  0  0  0  0  0  0
    9.2580    4.3030   13.4000 H   0  0  0  0  0  0  0  0  0  0  0  0
    8.9050    8.7440   11.2500 H   0  0  0  0  0  0  0  0  0  0  0  0
    7.6660    8.3060   13.2720 H   0  0  0  0  0  0  0  0  0  0  0  0
   10.7170    7.6410    9.3710 H   0  0  0  0  0  0  0  0  0  0  0  0
    9.7000    3.0340   11.2980 H   0  0  0  0  0  0  0  0  0  0  0  0
   11.5990    3.0710    9.0410 H   0  0  0  0  0  0  0  0  0  0  0  0
   12.5190    2.0100   11.6500 H   0  0  0  0  0  0  0  0  0  0  0  0
   11.3590    3.7880   12.7870 H   0  0  0  0  0  0  0  0  0  0  0  0
   15.7170    5.1690   12.5060 H   0  0  0  0  0  0  0  0  0  0  0  0
   15.6140    5.7180   10.8410 H   0  0  0  0  0  0  0  0  0  0  0  0
   16.5310    3.6750    9.9180 H   0  0  0  0  0  0  0  0  0  0  0  0
   16.1860    2.8110   11.4050 H   0  0  0  0  0  0  0  0  0  0  0  0
   18.2590    5.0910   11.3950 H   0  0  0  0  0  0  0  0  0  0  0  0
   17.8960    3.9130   12.6550 H   0  0  0  0  0  0  0  0  0  0  0  0
   20.2330    4.6540   11.3380 H   0  0  0  0  0  0  0  0  0  0  0  0
   20.9510    3.0520   11.1260 H   0  0  0  0  0  0  0  0  0  0  0  0
   20.0700    3.4610   12.6760 H   0  0  0  0  0  0  0  0  0  0  0  0
   10.6650    0.8010   10.7750 H   0  0  0  0  0  0  0  0  0  0  0  0
    9.8780    0.9900    8.0960 H   0  0  0  0  0  0  0  0  0  0  0  0
   12.8330    0.3510    9.7810 H   0  0  0  0  0  0  0  0  0  0  0  0
   12.2260    0.8970    8.1290 H   0  0  0  0  0  0  0  0  0  0  0  0
   11.5610   -0.5420    8.9270 H   0  0  0  0  0  0  0  0  0  0  0  0
  2  1  1  0  0  0  0
  3 29  1  0  0  0  0
  3  2  1  0  0  0  0
  4  3  2  0  0  0  0
  5  6  2  0  0  0  0
  5  4  1  0  0  0  0
  6  7  1  0  0  0  0
  7 31  1  0  0  0  0
  7  2  2  0  0  0  0
  8  5  1  0  0  0  0
  9  8  1  0  0  0  0
 10  9  2  0  0  0  0
 11  9  1  6  0  0  0
 11  4  1  0  0  0  0
 11 15  1  0  0  0  0
 12 11  1  0  0  0  0
 12 33  1  0  0  0  0
 13 34  1  6  0  0  0
 13 12  1  0  0  0  0
 13 14  1  0  0  0  0
 14 35  1  1  0  0  0
 14 15  1  0  0  0  0
 15 16  1  0  0  0  0
 15 36  1  1  0  0  0
 16 17  2  0  0  0  0
 18 21  1  0  0  0  0
 18 16  1  0  0  0  0
 19 14  1  0  0  0  0
 19 18  1  0  0  0  0
 20 19  2  0  0  0  0
 21 37  1  0  0  0  0
 22 40  1  0  0  0  0
 22 21  1  0  0  0  0
 22 23  1  0  0  0  0
 23 42  1  0  0  0  0
 24 23  1  0  0  0  0
 24 25  1  0  0  0  0
 25 45  1  0  0  0  0
 26 13  1  0  0  0  0
 26 46  1  1  0  0  0
 27 26  1  0  0  0  0
 28 48  1  0  0  0  0
 28 26  1  0  0  0  0
 30  6  1  0  0  0  0
 32  8  1  0  0  0  0
 38 21  1  0  0  0  0
 39 22  1  0  0  0  0
 41 23  1  0  0  0  0
 43 25  1  0  0  0  0
 44 25  1  0  0  0  0
 47 27  1  0  0  0  0
 49 28  1  0  0  0  0
 50 28  1  0  0  0  0
M  END
>  <Pose>
1

>  <Score>
-6.64

$$$$
