
 OpenBabel03172210413D

 51 55  0  0  1  0  0  0  0  0999 V2000
   10.3600    5.9140   13.9810 Cl  0  0  0  0  0  0  0  0  0  0  0  0
   10.3270    5.4560   12.2930 C   0  0  0  0  0  0  0  0  0  0  0  0
   11.1610    4.4070   11.9020 C   0  0  0  0  0  0  0  0  0  0  0  0
   11.1630    4.0170   10.5810 C   0  0  0  0  0  0  0  0  0  0  0  0
   10.3260    4.6970    9.6940 C   0  0  0  0  0  0  0  0  0  0  0  0
    9.5070    5.7330   10.0900 C   0  0  0  0  0  0  0  0  0  0  0  0
    9.5040    6.1220   11.4130 C   0  0  0  0  0  0  0  0  0  0  0  0
   12.0970    2.9120   10.3680 C   0  0  1  0  0  0  0  0  0  0  0  0
   11.4630    1.7400    9.7940 N   0  0  0  0  0  0  0  0  0  0  0  0
   12.5460    0.9830    9.1790 C   0  0  2  0  0  0  0  0  0  0  0  0
   13.5400    1.9970    8.6830 C   0  0  1  0  0  0  0  0  0  0  0  0
   13.2340    3.2680    9.4360 C   0  0  2  0  0  0  0  0  0  0  0  0
   14.4700    3.6050   10.1840 C   0  0  0  0  0  0  0  0  0  0  0  0
   14.5000    4.5490   11.0230 O   0  0  0  0  0  0  0  0  0  0  0  0
   15.5140    2.7280    9.7950 N   0  0  0  0  0  0  0  0  0  0  0  0
   14.9080    1.6060    9.1710 C   0  0  0  0  0  0  0  0  0  0  0  0
   15.3780    0.4440    9.0160 O   0  0  0  0  0  0  0  0  0  0  0  0
   16.9030    2.9350    9.9890 C   0  0  0  0  0  0  0  0  0  0  0  0
   17.3250    3.5680   11.2550 C   0  0  2  0  0  0  0  0  0  0  0  0
   17.4930    4.9440   11.2020 O   0  0  0  0  0  0  0  0  0  0  0  0
   17.7710    5.2300   12.5390 C   0  0  0  0  0  0  0  0  0  0  0  0
   18.7870    4.1620   12.9640 C   0  0  0  0  0  0  0  0  0  0  0  0
   18.5950    3.1020   11.8660 C   0  0  0  0  0  0  0  0  0  0  0  0
   11.9860    0.1420    8.0710 C   0  0  0  0  0  0  0  0  0  0  0  0
   11.0340   -0.8310    8.6960 C   0  0  0  0  0  0  0  0  0  0  0  0
    9.8380   -0.7770    8.3090 O   0  0  0  0  0  0  0  0  0  0  0  0
   11.4380   -1.7740    9.6750 N   0  0  0  0  0  0  0  0  0  0  0  0
   12.6700    2.6470   11.6970 C   0  0  0  0  0  0  0  0  0  0  0  0
   13.5380    1.7520   12.0090 O   0  0  0  0  0  0  0  0  0  0  0  0
   12.0800    3.5730   12.5930 N   0  0  0  0  0  0  0  0  0  0  0  0
   10.2880    4.4330    8.6420 H   0  0  0  0  0  0  0  0  0  0  0  0
    8.8590    6.2580    9.4010 H   0  0  0  0  0  0  0  0  0  0  0  0
    8.8540    6.9370   11.7060 H   0  0  0  0  0  0  0  0  0  0  0  0
   10.7300    1.9940    9.0940 H   0  0  0  0  0  0  0  0  0  0  0  0
   12.9860    0.3620    9.9770 H   0  0  0  0  0  0  0  0  0  0  0  0
   13.5050    2.1060    7.5980 H   0  0  0  0  0  0  0  0  0  0  0  0
   12.9520    4.0610    8.7450 H   0  0  0  0  0  0  0  0  0  0  0  0
   17.4600    1.9520    9.9260 H   0  0  0  0  0  0  0  0  0  0  0  0
   17.3780    3.5350    9.1570 H   0  0  0  0  0  0  0  0  0  0  0  0
   16.5140    3.3890   12.0030 H   0  0  0  0  0  0  0  0  0  0  0  0
   16.8880    5.1150   13.1860 H   0  0  0  0  0  0  0  0  0  0  0  0
   18.1680    6.2480   12.6790 H   0  0  0  0  0  0  0  0  0  0  0  0
   19.7780    4.6070   12.9490 H   0  0  0  0  0  0  0  0  0  0  0  0
   18.5040    3.7110   13.9440 H   0  0  0  0  0  0  0  0  0  0  0  0
   19.4880    3.1620   11.2460 H   0  0  0  0  0  0  0  0  0  0  0  0
   18.5060    2.1020   12.3520 H   0  0  0  0  0  0  0  0  0  0  0  0
   12.8390   -0.4000    7.6080 H   0  0  0  0  0  0  0  0  0  0  0  0
   11.4840    0.7760    7.3310 H   0  0  0  0  0  0  0  0  0  0  0  0
   12.1830   -2.4530    9.4210 H   0  0  0  0  0  0  0  0  0  0  0  0
   11.0380   -1.8290   10.6320 H   0  0  0  0  0  0  0  0  0  0  0  0
   12.2860    3.6430   13.6270 H   0  0  0  0  0  0  0  0  0  0  0  0
  2  1  1  0  0  0  0
  3  2  1  0  0  0  0
  3 30  1  0  0  0  0
  4  3  2  0  0  0  0
  5  6  2  0  0  0  0
  5  4  1  0  0  0  0
  6  7  1  0  0  0  0
  7 33  1  0  0  0  0
  7  2  2  0  0  0  0
  8  4  1  1  0  0  0
  8 28  1  0  0  0  0
  9  8  1  0  0  0  0
 10  9  1  0  0  0  0
 10 35  1  1  0  0  0
 11 36  1  6  0  0  0
 11 16  1  0  0  0  0
 11 10  1  0  0  0  0
 11 12  1  0  0  0  0
 12 37  1  6  0  0  0
 12 13  1  0  0  0  0
 12  8  1  0  0  0  0
 13 14  2  0  0  0  0
 15 18  1  0  0  0  0
 15 13  1  0  0  0  0
 16 15  1  0  0  0  0
 17 16  2  0  0  0  0
 18 19  1  0  0  0  0
 19 23  1  0  0  0  0
 19 40  1  1  0  0  0
 20 19  1  0  0  0  0
 20 21  1  0  0  0  0
 21 42  1  0  0  0  0
 21 22  1  0  0  0  0
 21 41  1  0  0  0  0
 22 44  1  0  0  0  0
 23 46  1  0  0  0  0
 23 22  1  0  0  0  0
 24 25  1  0  0  0  0
 24 10  1  0  0  0  0
 25 27  1  0  0  0  0
 26 25  2  0  0  0  0
 27 50  1  0  0  0  0
 28 29  2  0  0  0  0
 28 30  1  0  0  0  0
 30 51  1  0  0  0  0
 31  5  1  0  0  0  0
 32  6  1  0  0  0  0
 34  9  1  0  0  0  0
 38 18  1  0  0  0  0
 39 18  1  0  0  0  0
 43 22  1  0  0  0  0
 45 23  1  0  0  0  0
 47 24  1  0  0  0  0
 48 24  1  0  0  0  0
 49 27  1  0  0  0  0
M  END
>  <Pose>
1

>  <Score>
-6.85

$$$$
