
 OpenBabel03172210413D

 43 46  0  0  1  0  0  0  0  0999 V2000
    7.5250   10.9910   12.7060 Cl  0  0  0  0  0  0  0  0  0  0  0  0
    7.2090    9.3490   12.2090 C   0  0  0  0  0  0  0  0  0  0  0  0
    5.9860    8.9380   11.8990 N   0  0  0  0  0  4  0  0  0  0  0  0
    5.6570    7.7020   11.5090 C   0  0  0  0  0  0  0  0  0  0  0  0
    4.5220    7.0780   11.1560 N   0  0  0  0  0  0  0  0  0  0  0  0
    4.7970    5.7980   10.8520 C   0  0  0  0  0  0  0  0  0  0  0  0
    6.1230    5.6390   11.0220 N   0  0  0  0  0  0  0  0  0  0  0  0
    6.6980    6.7810   11.4270 C   0  0  1  0  0  0  0  0  0  0  0  0
    7.9690    7.1970   11.7460 C   0  0  0  0  0  0  0  0  0  0  0  0
    8.2200    8.4560   12.1290 N   0  0  0  0  0  0  0  0  0  0  0  0
    9.0210    6.2100   11.6440 N   0  0  0  0  0  0  0  0  0  0  0  0
   10.2820    6.5900   11.1300 C   0  0  0  0  0  0  0  0  0  0  0  0
   11.1640    5.5080   10.7190 C   0  0  0  0  0  0  0  0  0  0  0  0
   11.2170    5.3730    9.3770 O   0  0  0  0  0  0  0  0  0  0  0  0
   11.9260    4.6250   11.4320 N   0  0  0  0  0  0  0  0  0  0  0  0
   13.2890    4.7470   11.8230 C   0  0  0  0  0  0  0  0  0  0  0  0
   14.1640    3.6800   11.1690 C   0  0  0  0  0  0  0  0  0  0  0  0
   13.3130    2.5370   11.0020 N   0  0  0  0  0  0  0  0  0  0  0  0
   12.3300    2.2810   12.0130 C   0  0  0  0  0  0  0  0  0  0  0  0
   11.2370    3.3410   11.8380 C   0  0  0  0  0  0  0  0  0  0  0  0
   13.4130    1.6710    9.8980 C   0  0  0  0  0  0  0  0  0  0  0  0
   12.3760    0.8720    9.5140 N   0  0  0  0  0  0  0  0  0  0  0  0
   12.4040    0.0380    8.4900 C   0  0  0  0  0  0  0  0  0  0  0  0
   13.5160   -0.0970    7.7070 C   0  0  0  0  0  0  0  0  0  0  0  0
   14.6100    0.6870    8.0430 C   0  0  0  0  0  0  0  0  0  0  0  0
   14.5560    1.5560    9.1210 C   0  0  0  0  0  0  0  0  0  0  0  0
    4.1120    5.0120   10.5260 H   0  0  0  0  0  0  0  0  0  0  0  0
    6.6860    4.7600   10.8740 H   0  0  0  0  0  0  0  0  0  0  0  0
    8.8390    5.2460   11.9370 H   0  0  0  0  0  0  0  0  0  0  0  0
   10.1800    7.3740   10.3120 H   0  0  0  0  0  0  0  0  0  0  0  0
   10.8260    7.1140   11.9970 H   0  0  0  0  0  0  0  0  0  0  0  0
   13.7010    5.7150   11.6200 H   0  0  0  0  0  0  0  0  0  0  0  0
   13.3330    4.5350   12.9540 H   0  0  0  0  0  0  0  0  0  0  0  0
   14.9870    3.4040   11.8720 H   0  0  0  0  0  0  0  0  0  0  0  0
   14.6000    4.0820   10.2670 H   0  0  0  0  0  0  0  0  0  0  0  0
   12.7290    2.4170   13.0410 H   0  0  0  0  0  0  0  0  0  0  0  0
   11.8570    1.2960   11.8710 H   0  0  0  0  0  0  0  0  0  0  0  0
   10.7180    3.5000   12.7740 H   0  0  0  0  0  0  0  0  0  0  0  0
   10.5690    3.1130   11.0030 H   0  0  0  0  0  0  0  0  0  0  0  0
   11.5200   -0.5690    8.2520 H   0  0  0  0  0  0  0  0  0  0  0  0
   13.5310   -0.7730    6.8830 H   0  0  0  0  0  0  0  0  0  0  0  0
   15.5150    0.5950    7.4260 H   0  0  0  0  0  0  0  0  0  0  0  0
   15.4170    2.1330    9.3380 H   0  0  0  0  0  0  0  0  0  0  0  0
  2  1  1  0  0  0  0
  3  2  2  0  0  0  0
  4  3  2  0  0  0  0
  5  4  1  0  0  0  0
  6  7  1  0  0  0  0
  6  5  2  0  0  0  0
  7  8  1  0  0  0  0
  8  4  1  6  0  0  0
  8  9  1  0  0  0  0
  9 10  2  0  0  0  0
 10  2  1  0  0  0  0
 11  9  1  0  0  0  0
 11 29  1  0  0  0  0
 12 11  1  0  0  0  0
 12 31  1  0  0  0  0
 13 12  1  0  0  0  0
 13 15  1  0  0  0  0
 14 13  2  0  0  0  0
 15 16  1  0  0  0  0
 15 20  1  0  0  0  0
 16 33  1  0  0  0  0
 17 16  1  0  0  0  0
 17 34  1  0  0  0  0
 18 17  1  0  0  0  0
 18 19  1  0  0  0  0
 19 36  1  0  0  0  0
 20 19  1  0  0  0  0
 20 38  1  0  0  0  0
 21 18  1  0  0  0  0
 22 21  1  0  0  0  0
 23 22  2  0  0  0  0
 24 25  2  0  0  0  0
 24 23  1  0  0  0  0
 25 26  1  0  0  0  0
 26 43  1  0  0  0  0
 26 21  2  0  0  0  0
 27  6  1  0  0  0  0
 28  7  1  0  0  0  0
 30 12  1  0  0  0  0
 32 16  1  0  0  0  0
 35 17  1  0  0  0  0
 37 19  1  0  0  0  0
 39 20  1  0  0  0  0
 40 23  1  0  0  0  0
 41 24  1  0  0  0  0
 42 25  1  0  0  0  0
M  END
>  <Pose>
1

>  <Score>
-7.24

$$$$
