
 OpenBabel03172210413D

 54 58  0  0  1  0  0  0  0  0999 V2000
   10.6260    7.4280   16.6800 Cl  0  0  0  0  0  0  0  0  0  0  0  0
    9.2970    6.9410   15.6150 C   0  0  0  0  0  0  0  0  0  0  0  0
    9.4400    6.9700   14.2500 C   0  0  0  0  0  0  0  0  0  0  0  0
    8.4070    6.5920   13.4340 C   0  0  0  0  0  0  0  0  0  0  0  0
    7.2230    6.1830   13.9940 C   0  0  0  0  0  0  0  0  0  0  0  0
    7.0480    6.1430   15.3770 C   0  0  0  0  0  0  0  0  0  0  0  0
    8.1050    6.5300   16.1700 C   0  0  0  0  0  0  0  0  0  0  0  0
    6.2790    5.8370   12.9980 N   0  0  0  0  0  0  0  0  0  0  0  0
    6.9170    6.0430   11.7470 C   0  0  0  0  0  0  0  0  0  0  0  0
    6.4000    5.8510   10.6250 O   0  0  0  0  0  0  0  0  0  0  0  0
    8.2950    6.5250   11.9590 C   0  0  1  0  0  0  0  0  0  0  0  0
    8.5380    7.8010   11.3320 N   0  0  0  0  0  0  0  0  0  0  0  0
    9.8790    7.7960   10.8380 C   0  0  1  0  0  0  0  0  0  0  0  0
   10.1920    6.3740   10.4320 C   0  0  2  0  0  0  0  0  0  0  0  0
    9.2630    5.5930   11.3270 C   0  0  1  0  0  0  0  0  0  0  0  0
   10.1240    4.8580   12.2860 C   0  0  0  0  0  0  0  0  0  0  0  0
    9.8240    4.3690   13.4040 O   0  0  0  0  0  0  0  0  0  0  0  0
   11.4290    4.7980   11.6760 N   0  0  0  0  0  0  0  0  0  0  0  0
   11.5620    5.9450   10.8110 C   0  0  0  0  0  0  0  0  0  0  0  0
   12.6290    6.4960   10.4340 O   0  0  0  0  0  0  0  0  0  0  0  0
   12.4390    3.7810   11.8800 C   0  0  0  0  0  0  0  0  0  0  0  0
   12.2420    2.6630   10.9090 C   0  0  0  0  0  0  0  0  0  0  0  0
   13.3230    1.9850   10.3850 C   0  0  0  0  0  0  0  0  0  0  0  0
   13.1140    0.9520    9.4870 C   0  0  0  0  0  0  0  0  0  0  0  0
   11.8470    0.5700    9.0930 C   0  0  0  0  0  0  0  0  0  0  0  0
   10.7610    1.2400    9.6110 C   0  0  0  0  0  0  0  0  0  0  0  0
   10.9810    2.2650   10.5020 C   0  0  0  0  0  0  0  0  0  0  0  0
   14.6050    2.3730   10.7850 O   0  0  0  0  0  0  0  0  0  0  0  0
   15.6040    2.5570    9.7760 C   0  0  0  0  0  0  0  0  0  0  0  0
   10.0590    8.7590    9.6840 C   0  0  2  0  0  0  0  0  0  0  0  0
   11.4160    8.7990    9.3780 O   0  0  0  0  0  0  0  0  0  0  0  0
    9.6990   10.1430   10.2160 C   0  0  0  0  0  0  0  0  0  0  0  0
   10.4020    7.3030   13.8840 H   0  0  0  0  0  0  0  0  0  0  0  0
    6.1170    5.8220   15.8240 H   0  0  0  0  0  0  0  0  0  0  0  0
    8.0300    6.5210   17.2610 H   0  0  0  0  0  0  0  0  0  0  0  0
    5.2830    5.4880   13.1140 H   0  0  0  0  0  0  0  0  0  0  0  0
    8.3650    8.5640   11.9950 H   0  0  0  0  0  0  0  0  0  0  0  0
   10.5700    8.0900   11.6270 H   0  0  0  0  0  0  0  0  0  0  0  0
   10.0120    6.2020    9.3540 H   0  0  0  0  0  0  0  0  0  0  0  0
    8.7040    4.8960   10.6570 H   0  0  0  0  0  0  0  0  0  0  0  0
   13.4730    4.1660   11.7460 H   0  0  0  0  0  0  0  0  0  0  0  0
   12.4040    3.3630   12.9090 H   0  0  0  0  0  0  0  0  0  0  0  0
   13.9490    0.4180    9.0730 H   0  0  0  0  0  0  0  0  0  0  0  0
   11.6640   -0.2350    8.3940 H   0  0  0  0  0  0  0  0  0  0  0  0
    9.7420    0.9870    9.3400 H   0  0  0  0  0  0  0  0  0  0  0  0
   10.1380    2.7740   10.8950 H   0  0  0  0  0  0  0  0  0  0  0  0
   15.7190    1.5980    9.2450 H   0  0  0  0  0  0  0  0  0  0  0  0
   16.5460    2.8700   10.2750 H   0  0  0  0  0  0  0  0  0  0  0  0
   15.3250    3.3270    9.0530 H   0  0  0  0  0  0  0  0  0  0  0  0
    9.4760    8.4800    8.8020 H   0  0  0  0  0  0  0  0  0  0  0  0
   11.9210    8.2850   10.0480 H   0  0  0  0  0  0  0  0  0  0  0  0
   10.4340   10.9080    9.8640 H   0  0  0  0  0  0  0  0  0  0  0  0
    8.6570   10.4170    9.9570 H   0  0  0  0  0  0  0  0  0  0  0  0
    9.7640   10.1680   11.3290 H   0  0  0  0  0  0  0  0  0  0  0  0
  2  7  1  0  0  0  0
  2  1  1  0  0  0  0
  3  2  2  0  0  0  0
  4  5  2  0  0  0  0
  4  3  1  0  0  0  0
  5  6  1  0  0  0  0
  6 34  1  0  0  0  0
  6  7  2  0  0  0  0
  7 35  1  0  0  0  0
  8 36  1  0  0  0  0
  8  5  1  0  0  0  0
  9  8  1  0  0  0  0
 10  9  2  0  0  0  0
 11  9  1  6  0  0  0
 11  4  1  0  0  0  0
 12 11  1  0  0  0  0
 12 37  1  0  0  0  0
 13 12  1  0  0  0  0
 13 38  1  1  0  0  0
 14 39  1  6  0  0  0
 14 19  1  0  0  0  0
 14 13  1  0  0  0  0
 14 15  1  0  0  0  0
 15 40  1  6  0  0  0
 15 11  1  0  0  0  0
 15 16  1  0  0  0  0
 16 17  2  0  0  0  0
 18 21  1  0  0  0  0
 18 16  1  0  0  0  0
 19 18  1  0  0  0  0
 20 19  2  0  0  0  0
 21 42  1  0  0  0  0
 22 21  1  0  0  0  0
 23 28  1  0  0  0  0
 23 22  2  0  0  0  0
 24 23  1  0  0  0  0
 25 24  2  0  0  0  0
 25 26  1  0  0  0  0
 26 27  2  0  0  0  0
 27 46  1  0  0  0  0
 27 22  1  0  0  0  0
 29 48  1  0  0  0  0
 29 28  1  0  0  0  0
 30 50  1  6  0  0  0
 30 32  1  0  0  0  0
 30 13  1  0  0  0  0
 31 30  1  0  0  0  0
 31 51  1  0  0  0  0
 32 54  1  0  0  0  0
 33  3  1  0  0  0  0
 41 21  1  0  0  0  0
 43 24  1  0  0  0  0
 44 25  1  0  0  0  0
 45 26  1  0  0  0  0
 47 29  1  0  0  0  0
 49 29  1  0  0  0  0
 52 32  1  0  0  0  0
 53 32  1  0  0  0  0
M  END
>  <Pose>
1

>  <Score>
-5.52

$$$$
