
 OpenBabel03172210413D

 47 50  0  0  1  0  0  0  0  0999 V2000
   14.3140    0.2850    8.2030 Cl  0  0  0  0  0  0  0  0  0  0  0  0
   12.8370    0.9160    8.8790 C   0  0  0  0  0  0  0  0  0  0  0  0
   12.8870    2.0750    9.6210 C   0  0  0  0  0  0  0  0  0  0  0  0
   11.7420    2.6430   10.1930 C   0  0  0  0  0  0  0  0  0  0  0  0
   10.5640    1.9790    9.9720 C   0  0  0  0  0  0  0  0  0  0  0  0
   10.5050    0.8180    9.2320 C   0  0  0  0  0  0  0  0  0  0  0  0
   11.6540    0.2600    8.6640 C   0  0  0  0  0  0  0  0  0  0  0  0
   11.9000    3.8490   10.9270 N   0  0  0  0  0  0  0  0  0  0  0  0
   12.1900    3.9170   12.3140 C   0  0  0  0  0  0  0  0  0  0  0  0
   12.2950    2.8940   13.0030 O   0  0  0  0  0  0  0  0  0  0  0  0
   12.3650    5.1920   12.9470 N   0  0  0  0  0  0  0  0  0  0  0  0
   12.2570    6.4040   12.2020 C   0  0  0  0  0  0  0  0  0  0  0  0
   12.7970    7.4610   12.5690 O   0  0  0  0  0  0  0  0  0  0  0  0
   11.4560    6.3850   10.9260 C   0  0  1  0  0  0  0  0  0  0  0  0
   11.8000    5.1190   10.2460 C   0  0  0  0  0  0  0  0  0  0  0  0
   12.0320    5.0900    8.9840 O   0  0  0  0  0  0  0  0  0  0  0  0
   10.0040    6.4990   11.2570 C   0  0  0  0  0  0  0  0  0  0  0  0
    9.0890    5.5540   11.3120 C   0  0  0  0  0  0  0  0  0  0  0  0
    7.7880    6.1720   11.6880 C   0  0  2  0  0  0  0  0  0  0  0  0
    8.0120    7.5700   11.2390 N   0  0  0  0  0  0  0  0  0  0  0  0
    9.3640    7.7460   11.5580 N   0  0  0  0  0  0  0  0  0  0  0  0
    7.6950    6.2410   13.1710 C   0  0  0  0  0  0  0  0  0  0  0  0
    6.4640    6.4700   13.8220 C   0  0  0  0  0  0  0  0  0  0  0  0
    6.3240    6.5070   15.1750 C   0  0  0  0  0  0  0  0  0  0  0  0
    7.4310    6.3120   15.9790 C   0  0  0  0  0  0  0  0  0  0  0  0
    8.6480    6.0860   15.3780 C   0  0  0  0  0  0  0  0  0  0  0  0
    8.7750    6.0520   14.0070 C   0  0  0  0  0  0  0  0  0  0  0  0
    7.3060    6.3440   17.3640 O   0  0  0  0  0  0  0  0  0  0  0  0
    5.0770    6.7430   15.7710 O   0  0  0  0  0  0  0  0  0  0  0  0
    4.2300    7.7370   15.2360 C   0  0  0  0  0  0  0  0  0  0  0  0
   13.8340    2.6090    9.7970 H   0  0  0  0  0  0  0  0  0  0  0  0
    9.6640    2.3730   10.3930 H   0  0  0  0  0  0  0  0  0  0  0  0
    9.5720    0.2900    9.0590 H   0  0  0  0  0  0  0  0  0  0  0  0
   11.6030   -0.6490    8.0820 H   0  0  0  0  0  0  0  0  0  0  0  0
   12.5740    5.2190   13.9540 H   0  0  0  0  0  0  0  0  0  0  0  0
   11.7690    7.2050   10.2500 H   0  0  0  0  0  0  0  0  0  0  0  0
    9.2060    4.5010   11.1250 H   0  0  0  0  0  0  0  0  0  0  0  0
    6.9270    5.7150   11.2100 H   0  0  0  0  0  0  0  0  0  0  0  0
    7.8260    7.6460   10.2190 H   0  0  0  0  0  0  0  0  0  0  0  0
    9.8220    8.5730   11.9250 H   0  0  0  0  0  0  0  0  0  0  0  0
    5.6190    6.6190   13.1700 H   0  0  0  0  0  0  0  0  0  0  0  0
    9.4900    5.9450   16.0380 H   0  0  0  0  0  0  0  0  0  0  0  0
    9.7500    5.8700   13.5640 H   0  0  0  0  0  0  0  0  0  0  0  0
    6.5640    5.8150   17.8020 H   0  0  0  0  0  0  0  0  0  0  0  0
    3.8410    7.4470   14.2530 H   0  0  0  0  0  0  0  0  0  0  0  0
    3.3730    7.8300   15.9510 H   0  0  0  0  0  0  0  0  0  0  0  0
    4.7830    8.7060   15.2400 H   0  0  0  0  0  0  0  0  0  0  0  0
  1  2  1  0  0  0  0
  2  3  1  0  0  0  0
  3 31  1  0  0  0  0
  3  4  2  0  0  0  0
  4  8  1  0  0  0  0
  5  4  1  0  0  0  0
  5 32  1  0  0  0  0
  6  5  2  0  0  0  0
  7  2  2  0  0  0  0
  7  6  1  0  0  0  0
  8  9  1  0  0  0  0
  9 11  1  0  0  0  0
  9 10  2  0  0  0  0
 11 35  1  0  0  0  0
 12 13  2  0  0  0  0
 12 11  1  0  0  0  0
 14 36  1  6  0  0  0
 14 17  1  0  0  0  0
 14 12  1  0  0  0  0
 15 14  1  0  0  0  0
 15  8  1  0  0  0  0
 16 15  2  0  0  0  0
 17 18  2  0  0  0  0
 17 21  1  0  0  0  0
 18 19  1  0  0  0  0
 19 38  1  6  0  0  0
 19 22  1  0  0  0  0
 20 21  1  0  0  0  0
 20 19  1  0  0  0  0
 21 40  1  0  0  0  0
 22 23  2  0  0  0  0
 22 27  1  0  0  0  0
 23 24  1  0  0  0  0
 24 29  1  0  0  0  0
 24 25  2  0  0  0  0
 25 28  1  0  0  0  0
 26 25  1  0  0  0  0
 26 42  1  0  0  0  0
 27 26  2  0  0  0  0
 28 44  1  0  0  0  0
 30 47  1  0  0  0  0
 30 29  1  0  0  0  0
 30 46  1  0  0  0  0
 33  6  1  0  0  0  0
 34  7  1  0  0  0  0
 37 18  1  0  0  0  0
 39 20  1  0  0  0  0
 41 23  1  0  0  0  0
 43 27  1  0  0  0  0
 45 30  1  0  0  0  0
M  END
>  <Pose>
1

>  <Score>
-7.31

$$$$
