
 OpenBabel03172210413D

 47 50  0  0  0  0  0  0  0  0999 V2000
   14.5770    1.6300    9.3280 S   0  0  0  0  0  0  0  0  0  0  0  0
   15.5400    1.5160    8.1920 O   0  0  0  0  0  0  0  0  0  0  0  0
   14.9960    0.6680   10.4040 O   0  0  0  0  0  0  0  0  0  0  0  0
   14.6110    3.1960    9.9610 N   0  0  0  0  0  0  0  0  0  0  0  0
   14.1250    3.3330   11.3000 C   0  0  0  0  0  0  0  0  0  0  0  0
   12.6230    3.5330   11.3570 C   0  0  0  0  0  0  0  0  0  0  0  0
   12.2510    4.5550   10.4150 N   0  0  0  0  0  0  0  0  0  0  0  0
   13.3100    5.2610    9.7220 C   0  0  0  0  0  0  0  0  0  0  0  0
   14.1910    4.2200    9.0670 C   0  0  0  0  0  0  0  0  0  0  0  0
   10.8960    4.8960   10.1380 C   0  0  0  0  0  0  0  0  0  0  0  0
   10.3660    4.6400    9.0320 O   0  0  0  0  0  0  0  0  0  0  0  0
   10.0740    5.5640   11.1510 C   0  0  0  0  0  0  0  0  0  0  0  0
    9.4460    6.7640   11.0170 N   0  0  0  0  0  0  0  0  0  0  0  0
    8.7920    7.0430   12.1550 C   0  0  0  0  0  0  0  0  0  0  0  0
    9.0100    6.0300   12.9930 N   0  0  0  0  0  0  0  0  0  0  0  0
    9.7900    5.1130   12.4040 C   0  0  0  0  0  0  0  0  0  0  0  0
    8.4540    6.0720   14.2190 C   0  0  0  0  0  0  0  0  0  0  0  0
    7.6710    7.0980   14.6700 C   0  0  0  0  0  0  0  0  0  0  0  0
    7.4330    8.1650   13.8100 C   0  0  0  0  0  0  0  0  0  0  0  0
    8.0060    8.1110   12.5600 C   0  0  0  0  0  0  0  0  0  0  0  0
    6.9610    7.1200   16.2810 Cl  0  0  0  0  0  0  0  0  0  0  0  0
   13.0260    1.1360    8.7760 N   0  0  0  0  0  0  0  0  0  0  0  0
   12.0160    1.2270    9.8140 C   0  0  0  0  0  0  0  0  0  0  0  0
   10.9060    0.2730    9.4420 C   0  0  0  0  0  0  0  0  0  0  0  0
   10.7420    0.1870    8.0630 O   0  0  0  0  0  0  0  0  0  0  0  0
   11.8220   -0.4230    7.4300 C   0  0  0  0  0  0  0  0  0  0  0  0
   13.0300   -0.2450    8.3280 C   0  0  0  0  0  0  0  0  0  0  0  0
   14.5770    4.2610   11.7300 H   0  0  0  0  0  0  0  0  0  0  0  0
   14.4740    2.4950   11.9070 H   0  0  0  0  0  0  0  0  0  0  0  0
   12.1240    2.5480   11.1470 H   0  0  0  0  0  0  0  0  0  0  0  0
   12.3020    3.8180   12.3800 H   0  0  0  0  0  0  0  0  0  0  0  0
   13.8900    5.8010   10.5180 H   0  0  0  0  0  0  0  0  0  0  0  0
   12.9140    5.9640    8.9860 H   0  0  0  0  0  0  0  0  0  0  0  0
   15.1160    4.7430    8.6890 H   0  0  0  0  0  0  0  0  0  0  0  0
   13.6510    3.8070    8.2100 H   0  0  0  0  0  0  0  0  0  0  0  0
   10.1080    4.1890   12.8900 H   0  0  0  0  0  0  0  0  0  0  0  0
    8.6200    5.2460   14.9240 H   0  0  0  0  0  0  0  0  0  0  0  0
    6.8230    9.0150   14.0940 H   0  0  0  0  0  0  0  0  0  0  0  0
    7.8460    8.9250   11.8510 H   0  0  0  0  0  0  0  0  0  0  0  0
   11.6360    2.2610    9.9330 H   0  0  0  0  0  0  0  0  0  0  0  0
   12.4880    0.8800   10.7580 H   0  0  0  0  0  0  0  0  0  0  0  0
    9.9470    0.6560    9.8490 H   0  0  0  0  0  0  0  0  0  0  0  0
   11.0610   -0.7500    9.8190 H   0  0  0  0  0  0  0  0  0  0  0  0
   12.0510    0.1670    6.4990 H   0  0  0  0  0  0  0  0  0  0  0  0
   11.6350   -1.4830    7.1860 H   0  0  0  0  0  0  0  0  0  0  0  0
   12.9840   -0.9600    9.1750 H   0  0  0  0  0  0  0  0  0  0  0  0
   13.9780   -0.4550    7.7980 H   0  0  0  0  0  0  0  0  0  0  0  0
  1  4  1  0  0  0  0
  1  3  2  0  0  0  0
  2  1  2  0  0  0  0
  4  5  1  0  0  0  0
  5  6  1  0  0  0  0
  5 28  1  0  0  0  0
  5 29  1  0  0  0  0
  6 31  1  0  0  0  0
  7  6  1  0  0  0  0
  8  7  1  0  0  0  0
  8 32  1  0  0  0  0
  9  8  1  0  0  0  0
  9  4  1  0  0  0  0
 10  7  1  0  0  0  0
 10 12  1  0  0  0  0
 11 10  2  0  0  0  0
 12 16  2  0  0  0  0
 13 12  1  0  0  0  0
 13 14  2  0  0  0  0
 14 20  1  0  0  0  0
 14 15  1  0  0  0  0
 15 17  1  0  0  0  0
 16 36  1  0  0  0  0
 16 15  1  0  0  0  0
 17 18  2  0  0  0  0
 17 37  1  0  0  0  0
 18 21  1  0  0  0  0
 19 38  1  0  0  0  0
 19 18  1  0  0  0  0
 20 19  2  0  0  0  0
 22  1  1  0  0  0  0
 22 23  1  0  0  0  0
 23 40  1  0  0  0  0
 23 41  1  0  0  0  0
 24 23  1  0  0  0  0
 24 43  1  0  0  0  0
 24 42  1  0  0  0  0
 25 24  1  0  0  0  0
 26 25  1  0  0  0  0
 26 27  1  0  0  0  0
 27 22  1  0  0  0  0
 27 46  1  0  0  0  0
 30  6  1  0  0  0  0
 33  8  1  0  0  0  0
 34  9  1  0  0  0  0
 35  9  1  0  0  0  0
 39 20  1  0  0  0  0
 44 26  1  0  0  0  0
 45 26  1  0  0  0  0
 47 27  1  0  0  0  0
M  END
>  <Pose>
1

>  <Score>
-5.56

$$$$
