
 OpenBabel03172210413D

 47 50  0  0  0  0  0  0  0  0999 V2000
   20.9460    5.2410   11.3370 Cl  0  0  0  0  0  0  0  0  0  0  0  0
   19.3030    4.6650   11.1280 C   0  0  0  0  0  0  0  0  0  0  0  0
   18.2220    5.5170   11.0070 C   0  0  0  0  0  0  0  0  0  0  0  0
   16.9290    5.0520   10.8400 C   0  0  0  0  0  0  0  0  0  0  0  0
   16.6620    3.6980   10.7880 C   0  0  0  0  0  0  0  0  0  0  0  0
   17.7330    2.8370   10.9080 C   0  0  0  0  0  0  0  0  0  0  0  0
   19.0340    3.3060   11.0750 C   0  0  0  0  0  0  0  0  0  0  0  0
   15.3250    3.2390   10.6150 N   0  0  0  0  0  0  0  0  0  0  0  0
   14.9580    2.2660    9.8600 N   0  0  0  0  0  0  0  0  0  0  0  0
   13.5870    2.0700    9.9140 C   0  0  0  0  0  0  0  0  0  0  0  0
   13.1220    2.9780   10.7510 N   0  0  0  0  0  0  0  0  0  0  0  0
   14.2090    3.7050   11.1810 C   0  0  0  0  0  0  0  0  0  0  0  0
   14.1210    4.6550   11.9870 O   0  0  0  0  0  0  0  0  0  0  0  0
   11.7950    3.1620   11.2470 C   0  0  0  0  0  0  0  0  0  0  0  0
   10.9460    4.0780   10.4620 C   0  0  0  0  0  0  0  0  0  0  0  0
   10.7290    3.6600    9.2490 O   0  0  0  0  0  0  0  0  0  0  0  0
   10.3560    5.2790   10.7890 N   0  0  0  0  0  0  0  0  0  0  0  0
   10.9460    6.5780   10.6110 C   0  0  0  0  0  0  0  0  0  0  0  0
    9.9950    7.7130   11.0310 C   0  0  0  0  0  0  0  0  0  0  0  0
    9.5320    7.4640   12.3990 N   0  0  0  0  0  0  0  0  0  0  0  0
    9.1000    6.1030   12.6160 C   0  0  0  0  0  0  0  0  0  0  0  0
    8.8350    5.7000   13.7710 O   0  0  0  0  0  0  0  0  0  0  0  0
    9.0100    5.2770   11.3880 C   0  0  0  0  0  0  0  0  0  0  0  0
   12.9690    0.9910    9.1450 C   0  0  0  0  0  0  0  0  0  0  0  0
   11.6000    0.7570    9.3230 C   0  0  0  0  0  0  0  0  0  0  0  0
   10.9120   -0.2560    8.7140 C   0  0  0  0  0  0  0  0  0  0  0  0
   11.5630   -1.1340    7.8580 C   0  0  0  0  0  0  0  0  0  0  0  0
   12.9010   -0.9170    7.6780 C   0  0  0  0  0  0  0  0  0  0  0  0
   13.5980    0.1200    8.3040 C   0  0  0  0  0  0  0  0  0  0  0  0
   18.4270    6.5780   11.0460 H   0  0  0  0  0  0  0  0  0  0  0  0
   16.0870    5.7140   10.7440 H   0  0  0  0  0  0  0  0  0  0  0  0
   17.5240    1.7840   10.8680 H   0  0  0  0  0  0  0  0  0  0  0  0
   19.8670    2.6270   11.1690 H   0  0  0  0  0  0  0  0  0  0  0  0
   11.7120    3.4190   12.2800 H   0  0  0  0  0  0  0  0  0  0  0  0
   11.2880    2.1210   11.1750 H   0  0  0  0  0  0  0  0  0  0  0  0
   11.0710    6.7080    9.5020 H   0  0  0  0  0  0  0  0  0  0  0  0
   11.8950    6.7100   11.1190 H   0  0  0  0  0  0  0  0  0  0  0  0
    9.1120    7.7360   10.3730 H   0  0  0  0  0  0  0  0  0  0  0  0
   10.5170    8.6770   10.9420 H   0  0  0  0  0  0  0  0  0  0  0  0
    9.5140    8.1790   13.1310 H   0  0  0  0  0  0  0  0  0  0  0  0
    8.7320    4.2260   11.6380 H   0  0  0  0  0  0  0  0  0  0  0  0
    8.3140    5.7150   10.6370 H   0  0  0  0  0  0  0  0  0  0  0  0
   11.0730    1.4480    9.9920 H   0  0  0  0  0  0  0  0  0  0  0  0
    9.8570   -0.4160    8.8670 H   0  0  0  0  0  0  0  0  0  0  0  0
   11.0420   -1.9380    7.3660 H   0  0  0  0  0  0  0  0  0  0  0  0
   13.4480   -1.5950    7.0110 H   0  0  0  0  0  0  0  0  0  0  0  0
   14.6350    0.1850    8.1210 H   0  0  0  0  0  0  0  0  0  0  0  0
  2  1  1  0  0  0  0
  3 30  1  0  0  0  0
  3  2  2  0  0  0  0
  4  3  1  0  0  0  0
  5  4  2  0  0  0  0
  5  6  1  0  0  0  0
  6  7  2  0  0  0  0
  7  2  1  0  0  0  0
  7 33  1  0  0  0  0
  8  5  1  0  0  0  0
  8 12  1  0  0  0  0
  9 10  2  0  0  0  0
  9  8  1  0  0  0  0
 10 11  1  0  0  0  0
 11 12  1  0  0  0  0
 11 14  1  0  0  0  0
 12 13  2  0  0  0  0
 14 34  1  0  0  0  0
 15 17  1  0  0  0  0
 15 14  1  0  0  0  0
 16 15  2  0  0  0  0
 17 23  1  0  0  0  0
 18 17  1  0  0  0  0
 18 19  1  0  0  0  0
 18 37  1  0  0  0  0
 19 20  1  0  0  0  0
 20 21  1  0  0  0  0
 20 40  1  0  0  0  0
 21 22  2  0  0  0  0
 23 41  1  0  0  0  0
 23 21  1  0  0  0  0
 24 25  1  0  0  0  0
 24 10  1  0  0  0  0
 25 43  1  0  0  0  0
 26 44  1  0  0  0  0
 26 25  2  0  0  0  0
 27 26  1  0  0  0  0
 28 27  2  0  0  0  0
 28 29  1  0  0  0  0
 29 24  2  0  0  0  0
 31  4  1  0  0  0  0
 32  6  1  0  0  0  0
 35 14  1  0  0  0  0
 36 18  1  0  0  0  0
 38 19  1  0  0  0  0
 39 19  1  0  0  0  0
 42 23  1  0  0  0  0
 45 27  1  0  0  0  0
 46 28  1  0  0  0  0
 47 29  1  0  0  0  0
M  END
>  <Pose>
1

>  <Score>
-5.84

$$$$
