
 OpenBabel03172210413D

 42 45  0  0  0  0  0  0  0  0999 V2000
    9.4040   -1.2590    7.9980 Cl  0  0  0  0  0  0  0  0  0  0  0  0
   10.9140   -0.4260    8.3630 C   0  0  0  0  0  0  0  0  0  0  0  0
   10.9050    0.7550    9.0850 C   0  0  0  0  0  0  0  0  0  0  0  0
   12.0690    1.4100    9.3760 C   0  0  0  0  0  0  0  0  0  0  0  0
   13.2350    0.8430    8.9190 C   0  0  0  0  0  0  0  0  0  0  0  0
   13.2730   -0.3250    8.2030 C   0  0  0  0  0  0  0  0  0  0  0  0
   12.0860   -0.9780    7.9160 C   0  0  0  0  0  0  0  0  0  0  0  0
   14.5120    1.5230    9.2140 C   0  0  0  0  0  0  0  0  0  0  0  0
   15.7370    1.2500    8.9310 N   0  0  0  0  0  0  0  0  0  0  0  0
   16.6450    2.2340    9.4460 C   0  0  0  0  0  0  0  0  0  0  0  0
   15.7750    3.2320   10.1380 C   0  0  0  0  0  0  0  0  0  0  0  0
   14.4340    2.7280    9.9570 N   0  0  0  0  0  0  0  0  0  0  0  0
   13.1880    3.2760   10.4090 C   0  0  0  0  0  0  0  0  0  0  0  0
   12.8800    4.3770   11.1100 N   0  0  0  0  0  0  0  0  0  0  0  0
   11.5720    4.4560   11.2820 N   0  0  0  0  0  0  0  0  0  0  0  0
   11.0620    3.3740   10.6690 C   0  0  0  0  0  0  0  0  0  0  0  0
    9.8360    3.1080   10.6230 O   0  0  0  0  0  0  0  0  0  0  0  0
   12.0500    2.6210   10.1160 N   0  0  0  0  0  0  0  0  0  0  0  0
   10.8150    5.4880   11.9830 C   0  0  0  0  0  0  0  0  0  0  0  0
   10.7360    6.6920   11.1240 C   0  0  0  0  0  0  0  0  0  0  0  0
    9.7160    6.8540   10.3960 O   0  0  0  0  0  0  0  0  0  0  0  0
   11.7600    7.6750   11.0830 N   0  0  0  0  0  0  0  0  0  0  0  0
   12.4090    8.1170   12.2960 C   0  0  0  0  0  0  0  0  0  0  0  0
   11.3820    8.3080   13.4150 C   0  0  0  0  0  0  0  0  0  0  0  0
   13.3090    6.9760   12.7510 C   0  0  0  0  0  0  0  0  0  0  0  0
    9.9730    1.1560    9.4170 H   0  0  0  0  0  0  0  0  0  0  0  0
   14.1840   -0.7810    7.8380 H   0  0  0  0  0  0  0  0  0  0  0  0
   12.1110   -1.9170    7.3400 H   0  0  0  0  0  0  0  0  0  0  0  0
   17.3050    1.7180   10.1900 H   0  0  0  0  0  0  0  0  0  0  0  0
   17.2650    2.6880    8.6400 H   0  0  0  0  0  0  0  0  0  0  0  0
   16.0290    3.3670   11.2090 H   0  0  0  0  0  0  0  0  0  0  0  0
   15.8090    4.2070    9.5870 H   0  0  0  0  0  0  0  0  0  0  0  0
    9.7840    5.1040   12.0940 H   0  0  0  0  0  0  0  0  0  0  0  0
   11.2070    5.6900   12.9900 H   0  0  0  0  0  0  0  0  0  0  0  0
   12.0200    8.0580   10.1510 H   0  0  0  0  0  0  0  0  0  0  0  0
   13.0160    9.0210   12.1410 H   0  0  0  0  0  0  0  0  0  0  0  0
   10.5890    7.5490   13.2270 H   0  0  0  0  0  0  0  0  0  0  0  0
   11.9130    8.1330   14.3620 H   0  0  0  0  0  0  0  0  0  0  0  0
   10.9570    9.3400   13.3650 H   0  0  0  0  0  0  0  0  0  0  0  0
   12.6570    6.2530   13.2840 H   0  0  0  0  0  0  0  0  0  0  0  0
   14.0790    7.3160   13.4650 H   0  0  0  0  0  0  0  0  0  0  0  0
   13.7200    6.4820   11.8600 H   0  0  0  0  0  0  0  0  0  0  0  0
  1  2  1  0  0  0  0
  2  3  1  0  0  0  0
  3  4  2  0  0  0  0
  3 26  1  0  0  0  0
  4 18  1  0  0  0  0
  5  8  2  0  0  0  0
  5  4  1  0  0  0  0
  6  5  1  0  0  0  0
  7  6  1  0  0  0  0
  7  2  2  0  0  0  0
  8 12  1  0  0  0  0
  9  8  1  0  0  0  0
  9 10  1  0  0  0  0
 10 11  1  0  0  0  0
 10 29  1  0  0  0  0
 11 31  1  0  0  0  0
 12 11  1  0  0  0  0
 12 13  1  0  0  0  0
 13 14  2  0  0  0  0
 14 15  1  0  0  0  0
 15 19  1  0  0  0  0
 16 15  1  0  0  0  0
 17 16  2  0  0  0  0
 18 13  1  0  0  0  0
 18 16  1  0  0  0  0
 19 33  1  0  0  0  0
 19 34  1  0  0  0  0
 20 19  1  0  0  0  0
 21 20  2  0  0  0  0
 22 20  1  0  0  0  0
 22 23  1  0  0  0  0
 23 25  1  0  0  0  0
 23 24  1  0  0  0  0
 24 38  1  0  0  0  0
 25 40  1  0  0  0  0
 25 41  1  0  0  0  0
 27  6  1  0  0  0  0
 28  7  1  0  0  0  0
 30 10  1  0  0  0  0
 32 11  1  0  0  0  0
 35 22  1  0  0  0  0
 36 23  1  0  0  0  0
 37 24  1  0  0  0  0
 39 24  1  0  0  0  0
 42 25  1  0  0  0  0
M  END
>  <Pose>
1

>  <Score>
-6.92

$$$$
