
 OpenBabel03172210413D

 43 46  0  0  0  0  0  0  0  0999 V2000
   12.3040   -1.0630    7.4520 Cl  0  0  0  0  0  0  0  0  0  0  0  0
   12.1240    0.3160    8.5400 C   0  0  0  0  0  0  0  0  0  0  0  0
   13.2820    0.9340    9.0200 C   0  0  0  0  0  0  0  0  0  0  0  0
   13.2150    2.0210    9.8670 C   0  0  0  0  0  0  0  0  0  0  0  0
   11.9520    2.4590   10.2130 C   0  0  0  0  0  0  0  0  0  0  0  0
   10.8040    1.8880    9.7720 C   0  0  0  0  0  0  0  0  0  0  0  0
   10.8830    0.7840    8.9100 C   0  0  0  0  0  0  0  0  0  0  0  0
   11.8990    3.6320   11.1220 C   0  0  0  0  0  0  0  0  0  0  0  0
   10.8950    4.2790   11.6310 N   0  0  0  0  0  0  0  0  0  0  0  0
   11.3600    5.3630   12.4660 C   0  0  0  0  0  0  0  0  0  0  0  0
   12.8670    5.3360   12.4170 C   0  0  0  0  0  0  0  0  0  0  0  0
   13.1120    4.1930   11.5520 N   0  0  0  0  0  0  0  0  0  0  0  0
   14.3800    3.6800   11.1480 C   0  0  0  0  0  0  0  0  0  0  0  0
   15.6410    4.0670   11.4320 N   0  0  0  0  0  0  0  0  0  0  0  0
   16.4950    3.2660   10.7970 N   0  0  0  0  0  0  0  0  0  0  0  0
   15.7360    2.3990   10.1320 C   0  0  0  0  0  0  0  0  0  0  0  0
   16.1730    1.4690    9.3990 O   0  0  0  0  0  0  0  0  0  0  0  0
   14.4080    2.6300   10.3320 N   0  0  0  0  0  0  0  0  0  0  0  0
   17.9580    3.3520   10.8270 C   0  0  0  0  0  0  0  0  0  0  0  0
   18.2810    4.1100    9.5020 C   0  0  0  0  0  0  0  0  0  0  0  0
   18.4850    3.2340    8.5890 O   0  0  0  0  0  0  0  0  0  0  0  0
   18.3130    5.4490    9.4670 N   0  0  0  0  0  0  0  0  0  0  0  0
   18.3470    6.8260    9.4320 C   0  0  0  0  0  0  0  0  0  0  0  0
   17.3730    7.4630   10.4300 C   0  0  0  0  0  0  0  0  0  0  0  0
   17.7610    8.7370   10.7690 O   0  0  0  0  0  0  0  0  0  0  0  0
   18.9020    8.8250   11.5120 C   0  0  0  0  0  0  0  0  0  0  0  0
   14.2220    0.5230    8.6950 H   0  0  0  0  0  0  0  0  0  0  0  0
    9.8400    2.2450   10.0670 H   0  0  0  0  0  0  0  0  0  0  0  0
   10.0010    0.3010    8.5320 H   0  0  0  0  0  0  0  0  0  0  0  0
   10.9800    5.1880   13.4970 H   0  0  0  0  0  0  0  0  0  0  0  0
   10.9900    6.3470   12.0780 H   0  0  0  0  0  0  0  0  0  0  0  0
   13.3100    5.1510   13.4010 H   0  0  0  0  0  0  0  0  0  0  0  0
   13.2580    6.2890   11.9710 H   0  0  0  0  0  0  0  0  0  0  0  0
   18.3080    3.9470   11.6490 H   0  0  0  0  0  0  0  0  0  0  0  0
   18.3590    2.3520   10.7680 H   0  0  0  0  0  0  0  0  0  0  0  0
   18.9750    5.4050    8.2830 H   0  0  0  0  0  0  0  0  0  0  0  0
   19.3490    7.2970    9.5110 H   0  0  0  0  0  0  0  0  0  0  0  0
   17.9920    7.2260    8.4030 H   0  0  0  0  0  0  0  0  0  0  0  0
   16.3240    7.4120   10.0930 H   0  0  0  0  0  0  0  0  0  0  0  0
   17.4620    6.8290   11.3450 H   0  0  0  0  0  0  0  0  0  0  0  0
   19.7960    8.4320   10.9330 H   0  0  0  0  0  0  0  0  0  0  0  0
   18.8840    8.1250   12.3900 H   0  0  0  0  0  0  0  0  0  0  0  0
   19.1190    9.8590   11.8280 H   0  0  0  0  0  0  0  0  0  0  0  0
  1  2  1  0  0  0  0
  2  7  2  0  0  0  0
  2  3  1  0  0  0  0
  3  4  2  0  0  0  0
  4  5  1  0  0  0  0
  4 18  1  0  0  0  0
  5  8  2  0  0  0  0
  6 28  1  0  0  0  0
  6  5  1  0  0  0  0
  7  6  1  0  0  0  0
  8 12  1  0  0  0  0
  8  9  1  0  0  0  0
  9 10  1  0  0  0  0
 10 30  1  0  0  0  0
 11 10  1  0  0  0  0
 11 32  1  0  0  0  0
 12 11  1  0  0  0  0
 13 14  2  0  0  0  0
 13 12  1  0  0  0  0
 15 19  1  0  0  0  0
 15 14  1  0  0  0  0
 16 18  1  0  0  0  0
 16 15  1  0  0  0  0
 17 16  2  0  0  0  0
 18 13  1  0  0  0  0
 19 34  1  0  0  0  0
 20 19  1  0  0  0  0
 21 20  2  0  0  0  0
 22 20  1  0  0  0  0
 23 22  1  0  0  0  0
 23 37  1  0  0  0  0
 23 24  1  0  0  0  0
 24 25  1  0  0  0  0
 24 40  1  0  0  0  0
 25 26  1  0  0  0  0
 26 43  1  0  0  0  0
 26 42  1  0  0  0  0
 27  3  1  0  0  0  0
 29  7  1  0  0  0  0
 31 10  1  0  0  0  0
 33 11  1  0  0  0  0
 35 19  1  0  0  0  0
 36 22  1  0  0  0  0
 38 23  1  0  0  0  0
 39 24  1  0  0  0  0
 41 26  1  0  0  0  0
M  END
>  <Pose>
1

>  <Score>
-5.90

$$$$
