
 OpenBabel03172210413D

 43 47  0  0  0  0  0  0  0  0999 V2000
   17.1100    4.1720   10.9850 Cl  0  0  0  0  0  0  0  0  0  0  0  0
   15.8560    3.1080   10.3870 C   0  0  0  0  0  0  0  0  0  0  0  0
   14.5120    3.2930   10.6690 C   0  0  0  0  0  0  0  0  0  0  0  0
   13.5360    2.4500   10.1920 C   0  0  0  0  0  0  0  0  0  0  0  0
   13.9560    1.4000    9.4110 C   0  0  0  0  0  0  0  0  0  0  0  0
   15.2750    1.1690    9.0980 C   0  0  0  0  0  0  0  0  0  0  0  0
   16.2420    2.0440    9.5990 C   0  0  0  0  0  0  0  0  0  0  0  0
   12.9360    0.4740    8.8810 C   0  0  0  0  0  0  0  0  0  0  0  0
   13.0360   -0.5690    8.1410 N   0  0  0  0  0  0  0  0  0  0  0  0
   11.7560   -1.1660    7.8700 C   0  0  0  0  0  0  0  0  0  0  0  0
   10.7790   -0.2930    8.5920 C   0  0  0  0  0  0  0  0  0  0  0  0
   11.5860    0.7250    9.2120 N   0  0  0  0  0  0  0  0  0  0  0  0
   11.2040    1.8450   10.0370 C   0  0  0  0  0  0  0  0  0  0  0  0
   10.0060    2.2770   10.4770 N   0  0  0  0  0  0  0  0  0  0  0  0
   10.1750    3.3610   11.2150 N   0  0  0  0  0  0  0  0  0  0  0  0
   11.4990    3.5880   11.2220 C   0  0  0  0  0  0  0  0  0  0  0  0
   12.0230    4.5580   11.8400 O   0  0  0  0  0  0  0  0  0  0  0  0
   12.1650    2.6620   10.4990 N   0  0  0  0  0  0  0  0  0  0  0  0
    9.1410    4.1580   11.8910 C   0  0  0  0  0  0  0  0  0  0  0  0
    8.9230    5.3970   11.1010 C   0  0  0  0  0  0  0  0  0  0  0  0
    9.5030    5.4650    9.9880 O   0  0  0  0  0  0  0  0  0  0  0  0
    8.1040    6.4580   11.5730 N   0  0  0  0  0  0  0  0  0  0  0  0
    6.6570    6.4060   11.6520 C   0  0  0  0  0  0  0  0  0  0  0  0
    6.2020    7.7940   12.0160 C   0  0  0  0  0  0  0  0  0  0  0  0
    7.3860    8.6360   11.5860 C   0  0  0  0  0  0  0  0  0  0  0  0
    8.5450    7.7470   12.0500 C   0  0  0  0  0  0  0  0  0  0  0  0
   14.2360    4.1180   11.2780 H   0  0  0  0  0  0  0  0  0  0  0  0
   15.5720    0.3450    8.4880 H   0  0  0  0  0  0  0  0  0  0  0  0
   17.2670    1.8420    9.3400 H   0  0  0  0  0  0  0  0  0  0  0  0
   11.6840   -2.2000    8.2970 H   0  0  0  0  0  0  0  0  0  0  0  0
   11.5350   -1.1890    6.7760 H   0  0  0  0  0  0  0  0  0  0  0  0
   10.1750   -0.8620    9.3310 H   0  0  0  0  0  0  0  0  0  0  0  0
   10.1290    0.2180    7.8420 H   0  0  0  0  0  0  0  0  0  0  0  0
    9.4800    4.3990   12.9200 H   0  0  0  0  0  0  0  0  0  0  0  0
    8.2270    3.5470   11.9020 H   0  0  0  0  0  0  0  0  0  0  0  0
    6.4100    5.6720   12.4440 H   0  0  0  0  0  0  0  0  0  0  0  0
    6.2680    6.0980   10.6570 H   0  0  0  0  0  0  0  0  0  0  0  0
    6.1270    7.8940   13.1240 H   0  0  0  0  0  0  0  0  0  0  0  0
    5.2670    8.1000   11.5070 H   0  0  0  0  0  0  0  0  0  0  0  0
    7.3890    9.6130   12.0720 H   0  0  0  0  0  0  0  0  0  0  0  0
    7.3980    8.7070   10.4640 H   0  0  0  0  0  0  0  0  0  0  0  0
    9.5080    8.0750   11.6650 H   0  0  0  0  0  0  0  0  0  0  0  0
    8.4870    7.7140   13.1580 H   0  0  0  0  0  0  0  0  0  0  0  0
  2  3  1  0  0  0  0
  2  1  1  0  0  0  0
  3 27  1  0  0  0  0
  4 18  1  0  0  0  0
  4  3  2  0  0  0  0
  5  4  1  0  0  0  0
  6  5  1  0  0  0  0
  6  7  1  0  0  0  0
  7  2  2  0  0  0  0
  8 12  1  0  0  0  0
  8  5  2  0  0  0  0
  9  8  1  0  0  0  0
 10  9  1  0  0  0  0
 10 30  1  0  0  0  0
 10 11  1  0  0  0  0
 11 12  1  0  0  0  0
 11 32  1  0  0  0  0
 12 13  1  0  0  0  0
 13 14  2  0  0  0  0
 13 18  1  0  0  0  0
 14 15  1  0  0  0  0
 15 16  1  0  0  0  0
 15 19  1  0  0  0  0
 16 17  2  0  0  0  0
 18 16  1  0  0  0  0
 19 35  1  0  0  0  0
 19 34  1  0  0  0  0
 20 22  1  0  0  0  0
 20 19  1  0  0  0  0
 21 20  2  0  0  0  0
 22 23  1  0  0  0  0
 22 26  1  0  0  0  0
 23 24  1  0  0  0  0
 23 36  1  0  0  0  0
 24 38  1  0  0  0  0
 25 24  1  0  0  0  0
 25 26  1  0  0  0  0
 25 40  1  0  0  0  0
 26 43  1  0  0  0  0
 28  6  1  0  0  0  0
 29  7  1  0  0  0  0
 31 10  1  0  0  0  0
 33 11  1  0  0  0  0
 37 23  1  0  0  0  0
 39 24  1  0  0  0  0
 41 25  1  0  0  0  0
 42 26  1  0  0  0  0
M  END
>  <Pose>
1

>  <Score>
-5.83

$$$$
