
 OpenBabel03172210413D

 47 50  0  0  0  0  0  0  0  0999 V2000
    5.6220   10.5600   14.8010 Cl  0  0  0  0  0  0  0  0  0  0  0  0
    6.5940    9.3290   13.9960 C   0  0  0  0  0  0  0  0  0  0  0  0
    6.0790    8.4800   13.0660 C   0  0  0  0  0  0  0  0  0  0  0  0
    6.8790    7.5300   12.4620 C   0  0  0  0  0  0  0  0  0  0  0  0
    8.2080    7.4270   12.7860 C   0  0  0  0  0  0  0  0  0  0  0  0
    8.7250    8.2840   13.7230 C   0  0  0  0  0  0  0  0  0  0  0  0
    7.9260    9.2360   14.3310 C   0  0  0  0  0  0  0  0  0  0  0  0
    9.0750    6.4450   12.1750 N   0  0  0  0  0  0  0  0  0  0  0  0
    8.5840    5.5420   11.2040 C   0  0  0  0  0  0  0  0  0  0  0  0
    9.3390    4.6380   10.6270 C   0  0  0  0  0  0  0  0  0  0  0  0
   10.7230    4.4080   10.8550 N   0  0  0  0  0  0  0  0  0  0  0  0
   11.2440    3.8390   12.0810 C   0  0  0  0  0  0  0  0  0  0  0  0
   12.2770    2.7720   11.6830 C   0  0  0  0  0  0  0  0  0  0  0  0
   12.2910    2.5380   10.2800 N   0  0  0  0  0  0  0  0  0  0  0  0
   12.6660    3.7000    9.4780 C   0  0  0  0  0  0  0  0  0  0  0  0
   11.6780    4.7860    9.8310 C   0  0  0  0  0  0  0  0  0  0  0  0
   11.9760    1.3540    9.5670 C   0  0  0  0  0  0  0  0  0  0  0  0
   10.6470    0.9790    9.4820 N   0  0  0  0  0  0  0  0  0  0  0  0
   10.2220   -0.1160    8.8540 C   0  0  0  0  0  0  0  0  0  0  0  0
   11.1530   -0.9180    8.2550 C   0  0  0  0  0  0  0  0  0  0  0  0
   12.4750   -0.5790    8.3170 C   0  0  0  0  0  0  0  0  0  0  0  0
   12.9310    0.5780    8.9800 C   0  0  0  0  0  0  0  0  0  0  0  0
   14.3200    0.9200    8.9980 C   0  0  0  0  0  0  0  0  0  0  0  0
   14.9330    1.3840    9.9580 O   0  0  0  0  0  0  0  0  0  0  0  0
   15.0840    0.7160    7.8160 N   0  0  0  0  0  0  0  0  0  0  0  0
    7.1870    5.6330   10.8470 N   0  0  0  0  0  0  0  0  0  0  0  0
    6.3620    6.6050   11.4640 C   0  0  0  0  0  0  0  0  0  0  0  0
    5.1230    6.7050   11.1640 O   0  0  0  0  0  0  0  0  0  0  0  0
    5.0510    8.5280   12.7880 H   0  0  0  0  0  0  0  0  0  0  0  0
    9.7760    8.1890   13.9690 H   0  0  0  0  0  0  0  0  0  0  0  0
    8.3350    9.9020   15.0600 H   0  0  0  0  0  0  0  0  0  0  0  0
   10.0700    6.4140   12.4590 H   0  0  0  0  0  0  0  0  0  0  0  0
    8.8420    3.9900    9.8860 H   0  0  0  0  0  0  0  0  0  0  0  0
   10.4960    3.3620   12.7120 H   0  0  0  0  0  0  0  0  0  0  0  0
   11.7430    4.6680   12.6630 H   0  0  0  0  0  0  0  0  0  0  0  0
   12.0130    1.8750   12.2300 H   0  0  0  0  0  0  0  0  0  0  0  0
   13.2380    3.2450   12.0070 H   0  0  0  0  0  0  0  0  0  0  0  0
   12.6030    3.5180    8.4040 H   0  0  0  0  0  0  0  0  0  0  0  0
   13.6870    4.0500    9.7340 H   0  0  0  0  0  0  0  0  0  0  0  0
   12.1980    5.6900   10.2320 H   0  0  0  0  0  0  0  0  0  0  0  0
   11.1320    5.1250    8.9180 H   0  0  0  0  0  0  0  0  0  0  0  0
    9.1540   -0.3430    8.8320 H   0  0  0  0  0  0  0  0  0  0  0  0
   10.8380   -1.8020    7.7460 H   0  0  0  0  0  0  0  0  0  0  0  0
   13.2630   -1.1930    7.8510 H   0  0  0  0  0  0  0  0  0  0  0  0
   15.1470   -0.2310    7.3780 H   0  0  0  0  0  0  0  0  0  0  0  0
   15.6100    1.4750    7.3300 H   0  0  0  0  0  0  0  0  0  0  0  0
    6.7910    4.9850   10.1370 H   0  0  0  0  0  0  0  0  0  0  0  0
  2  7  1  0  0  0  0
  2  1  1  0  0  0  0
  3  2  2  0  0  0  0
  4  5  2  0  0  0  0
  4  3  1  0  0  0  0
  5  6  1  0  0  0  0
  6 30  1  0  0  0  0
  6  7  2  0  0  0  0
  7 31  1  0  0  0  0
  8 32  1  0  0  0  0
  8  5  1  0  0  0  0
  9  8  1  0  0  0  0
 10 11  1  0  0  0  0
 10  9  2  0  0  0  0
 11 12  1  0  0  0  0
 12 35  1  0  0  0  0
 12 34  1  0  0  0  0
 13 37  1  0  0  0  0
 13 12  1  0  0  0  0
 13 36  1  0  0  0  0
 14 13  1  0  0  0  0
 15 39  1  0  0  0  0
 15 16  1  0  0  0  0
 15 14  1  0  0  0  0
 16 40  1  0  0  0  0
 16 11  1  0  0  0  0
 17 14  1  0  0  0  0
 18 17  1  0  0  0  0
 19 18  2  0  0  0  0
 20 21  2  0  0  0  0
 20 19  1  0  0  0  0
 21 22  1  0  0  0  0
 22 23  1  0  0  0  0
 22 17  2  0  0  0  0
 23 24  2  0  0  0  0
 25 23  1  0  0  0  0
 26  9  1  0  0  0  0
 26 27  1  0  0  0  0
 27  4  1  0  0  0  0
 28 27  2  0  0  0  0
 29  3  1  0  0  0  0
 33 10  1  0  0  0  0
 38 15  1  0  0  0  0
 41 16  1  0  0  0  0
 42 19  1  0  0  0  0
 43 20  1  0  0  0  0
 44 21  1  0  0  0  0
 45 25  1  0  0  0  0
 46 25  1  0  0  0  0
 47 26  1  0  0  0  0
M  END
>  <Pose>
1

>  <Score>
-7.67

$$$$
