
 OpenBabel03172210413D

 38 42  0  0  1  0  0  0  0  0999 V2000
   11.4820   -1.1240    8.7540 B   0  0  0  0  0  0  0  0  0  0  0  0
   11.6420    0.6750    9.3330 C   0  0  0  0  0  0  0  0  0  0  0  0
   12.8890    1.2310    9.4810 C   0  0  0  0  0  0  0  0  0  0  0  0
   12.9750    2.5400    9.9020 C   0  0  0  0  0  0  0  0  0  0  0  0
   11.8580    3.2970   10.1780 C   0  0  0  0  0  0  0  0  0  0  0  0
   10.5970    2.7370   10.0290 C   0  0  0  0  0  0  0  0  0  0  0  0
   10.5140    1.4100    9.6000 C   0  0  0  0  0  0  0  0  0  0  0  0
   11.9620    4.6590   10.6130 N   0  0  0  0  0  0  0  0  0  0  0  0
   12.3630    5.0180   11.9260 C   0  0  0  0  0  0  0  0  0  0  0  0
   12.9810    4.2560   12.7070 O   0  0  0  0  0  0  0  0  0  0  0  0
   11.9330    6.4160   12.2000 C   0  0  2  0  0  0  0  0  0  0  0  0
   10.6110    6.4740   12.9000 C   0  0  1  0  0  0  0  0  0  0  0  0
   10.1050    7.6900   12.3880 O   0  0  0  0  0  0  0  0  0  0  0  0
   10.1190    7.3170   11.0200 C   0  0  1  0  0  0  0  0  0  0  0  0
   11.5570    6.9800   10.8290 C   0  0  2  0  0  0  0  0  0  0  0  0
   11.7010    5.8500    9.8720 C   0  0  0  0  0  0  0  0  0  0  0  0
   11.6060    5.9500    8.6460 O   0  0  0  0  0  0  0  0  0  0  0  0
    9.3450    6.0510   11.1070 C   0  0  0  0  0  0  0  0  0  0  0  0
    9.7110    5.5010   12.2600 C   0  0  0  0  0  0  0  0  0  0  0  0
   10.6660    6.4500   14.3660 C   0  0  0  0  0  0  0  0  0  0  0  0
    9.4530    6.2540   14.9670 O   0  0  0  0  0  0  0  0  0  0  0  0
    9.0800    7.4150   15.5970 C   0  0  0  0  0  0  0  0  0  0  0  0
   10.1790    8.3970   15.3590 C   0  0  0  0  0  0  0  0  0  0  0  0
   11.2190    7.6090   14.8810 O   0  0  0  0  0  0  0  0  0  0  0  0
   13.8080    0.6740    9.2770 H   0  0  0  0  0  0  0  0  0  0  0  0
   13.9600    3.0150   10.0310 H   0  0  0  0  0  0  0  0  0  0  0  0
    9.7330    3.3410   10.2470 H   0  0  0  0  0  0  0  0  0  0  0  0
    9.5320    0.9750    9.4850 H   0  0  0  0  0  0  0  0  0  0  0  0
   12.7280    6.9750   12.6920 H   0  0  0  0  0  0  0  0  0  0  0  0
    9.7050    8.0670   10.3680 H   0  0  0  0  0  0  0  0  0  0  0  0
   12.1960    7.8210   10.5590 H   0  0  0  0  0  0  0  0  0  0  0  0
    8.6510    5.7200   10.3460 H   0  0  0  0  0  0  0  0  0  0  0  0
    9.3560    4.5220   12.5660 H   0  0  0  0  0  0  0  0  0  0  0  0
   11.3480    5.6100   14.6680 H   0  0  0  0  0  0  0  0  0  0  0  0
    8.9110    7.2930   16.6850 H   0  0  0  0  0  0  0  0  0  0  0  0
    8.1560    7.7960   15.0900 H   0  0  0  0  0  0  0  0  0  0  0  0
   10.4740    8.9070   16.3230 H   0  0  0  0  0  0  0  0  0  0  0  0
    9.9250    9.1690   14.5890 H   0  0  0  0  0  0  0  0  0  0  0  0
  1  2  1  0  0  0  0
  2  3  2  0  0  0  0
  2  7  1  0  0  0  0
  3  4  1  0  0  0  0
  4 26  1  0  0  0  0
  4  5  2  0  0  0  0
  5  8  1  0  0  0  0
  6  5  1  0  0  0  0
  6 27  1  0  0  0  0
  7  6  2  0  0  0  0
  8  9  1  0  0  0  0
  9 11  1  0  0  0  0
  9 10  2  0  0  0  0
 11 29  1  1  0  0  0
 11 12  1  0  0  0  0
 12 20  1  1  0  0  0
 13 12  1  0  0  0  0
 14 30  1  6  0  0  0
 14 18  1  0  0  0  0
 14 13  1  0  0  0  0
 15 31  1  6  0  0  0
 15 14  1  0  0  0  0
 15 11  1  0  0  0  0
 16  8  1  0  0  0  0
 16 15  1  0  0  0  0
 17 16  2  0  0  0  0
 18 19  2  0  0  0  0
 19 33  1  0  0  0  0
 19 12  1  0  0  0  0
 20 34  1  0  0  0  0
 20 24  1  0  0  0  0
 20 21  1  0  0  0  0
 21 22  1  0  0  0  0
 22 35  1  0  0  0  0
 23 22  1  0  0  0  0
 23 37  1  0  0  0  0
 24 23  1  0  0  0  0
 25  3  1  0  0  0  0
 28  7  1  0  0  0  0
 32 18  1  0  0  0  0
 36 22  1  0  0  0  0
 38 23  1  0  0  0  0
M  END
>  <Pose>
1

>  <Score>
-4.99

$$$$
