
 OpenBabel03162215113D

 38 42  0  0  1  0  0  0  0  0999 V2000
    3.7300    7.2160   16.3550 B   0  0  0  0  0  0  0  0  0  0  0  0
    5.1110    7.1800   15.0550 C   0  0  0  0  0  0  0  0  0  0  0  0
    5.0760    8.0660   14.0060 C   0  0  0  0  0  0  0  0  0  0  0  0
    6.0930    8.0180   13.0770 C   0  0  0  0  0  0  0  0  0  0  0  0
    7.1290    7.1160   13.1690 C   0  0  0  0  0  0  0  0  0  0  0  0
    7.1660    6.2200   14.2290 C   0  0  0  0  0  0  0  0  0  0  0  0
    6.1340    6.2720   15.1690 C   0  0  0  0  0  0  0  0  0  0  0  0
    8.1820    7.0780   12.1970 N   0  0  0  0  0  0  0  0  0  0  0  0
    8.3160    6.0310   11.2490 C   0  0  0  0  0  0  0  0  0  0  0  0
    7.3900    5.2470   10.9290 O   0  0  0  0  0  0  0  0  0  0  0  0
    9.7060    6.0290   10.7200 C   0  0  2  0  0  0  0  0  0  0  0  0
   10.5940    5.0800   11.4630 C   0  0  1  0  0  0  0  0  0  0  0  0
   11.8320    5.7520   11.3580 O   0  0  0  0  0  0  0  0  0  0  0  0
   11.4350    6.9450   12.0140 C   0  0  1  0  0  0  0  0  0  0  0  0
   10.2890    7.3720   11.1620 C   0  0  2  0  0  0  0  0  0  0  0  0
    9.2380    8.0160   11.9950 C   0  0  0  0  0  0  0  0  0  0  0  0
    9.2920    9.1710   12.4270 O   0  0  0  0  0  0  0  0  0  0  0  0
   10.8950    6.3610   13.2700 C   0  0  0  0  0  0  0  0  0  0  0  0
   10.3150    5.2230   12.9010 C   0  0  0  0  0  0  0  0  0  0  0  0
   10.6410    3.7100   10.9380 C   0  0  0  0  0  0  0  0  0  0  0  0
   11.2770    2.8190   11.7590 O   0  0  0  0  0  0  0  0  0  0  0  0
   12.4600    2.4450   11.1720 C   0  0  0  0  0  0  0  0  0  0  0  0
   12.5350    3.1740    9.8710 C   0  0  0  0  0  0  0  0  0  0  0  0
   11.2430    3.6540    9.6940 O   0  0  0  0  0  0  0  0  0  0  0  0
    4.2760    8.8020   13.8850 H   0  0  0  0  0  0  0  0  0  0  0  0
    6.0950    8.7140   12.2240 H   0  0  0  0  0  0  0  0  0  0  0  0
    7.9820    5.5210   14.2880 H   0  0  0  0  0  0  0  0  0  0  0  0
    6.1630    5.5750   15.9930 H   0  0  0  0  0  0  0  0  0  0  0  0
    9.7080    5.8940    9.6390 H   0  0  0  0  0  0  0  0  0  0  0  0
   12.2360    7.6510   12.1410 H   0  0  0  0  0  0  0  0  0  0  0  0
   10.5580    7.9890   10.3040 H   0  0  0  0  0  0  0  0  0  0  0  0
   10.9970    6.8290   14.2400 H   0  0  0  0  0  0  0  0  0  0  0  0
    9.7690    4.6040   13.6060 H   0  0  0  0  0  0  0  0  0  0  0  0
    9.5820    3.3630   10.7960 H   0  0  0  0  0  0  0  0  0  0  0  0
   12.5420    1.3540   11.0000 H   0  0  0  0  0  0  0  0  0  0  0  0
   13.2940    2.8100   11.8250 H   0  0  0  0  0  0  0  0  0  0  0  0
   12.8180    2.4700    9.0350 H   0  0  0  0  0  0  0  0  0  0  0  0
   13.2440    4.0400    9.8890 H   0  0  0  0  0  0  0  0  0  0  0  0
  2  7  1  0  0  0  0
  2  1  1  0  0  0  0
  3  2  2  0  0  0  0
  4  5  2  0  0  0  0
  4  3  1  0  0  0  0
  5  6  1  0  0  0  0
  6 27  1  0  0  0  0
  6  7  2  0  0  0  0
  7 28  1  0  0  0  0
  8  5  1  0  0  0  0
  9  8  1  0  0  0  0
 10  9  2  0  0  0  0
 11 29  1  6  0  0  0
 11 15  1  0  0  0  0
 11  9  1  0  0  0  0
 11 12  1  0  0  0  0
 12 20  1  6  0  0  0
 12 19  1  0  0  0  0
 13 12  1  0  0  0  0
 13 14  1  0  0  0  0
 14 30  1  1  0  0  0
 14 18  1  0  0  0  0
 15 31  1  6  0  0  0
 15 16  1  0  0  0  0
 15 14  1  0  0  0  0
 16  8  1  0  0  0  0
 16 17  2  0  0  0  0
 18 32  1  0  0  0  0
 19 18  2  0  0  0  0
 19 33  1  0  0  0  0
 20 21  1  0  0  0  0
 22 21  1  0  0  0  0
 22 36  1  0  0  0  0
 23 38  1  0  0  0  0
 23 22  1  0  0  0  0
 24 23  1  0  0  0  0
 24 20  1  0  0  0  0
 25  3  1  0  0  0  0
 26  4  1  0  0  0  0
 34 20  1  0  0  0  0
 35 22  1  0  0  0  0
 37 23  1  0  0  0  0
M  END
>  <Pose>
1

>  <Score>
-4.74

$$$$
