
 OpenBabel03172210413D

 57 60  0  0  1  0  0  0  0  0999 V2000
   10.3760    5.5110    9.9380 S   0  0  0  0  0  0  0  0  0  0  0  0
   11.4440    6.4280    9.4150 O   0  0  0  0  0  0  0  0  0  0  0  0
    9.5960    5.0510    8.7240 O   0  0  0  0  0  0  0  0  0  0  0  0
    9.2650    6.3430   10.9520 N   0  0  0  0  0  0  0  0  0  0  0  0
    9.7270    7.6750   11.2550 C   0  0  0  0  0  0  0  0  0  0  0  0
    8.5640    8.4450   11.8340 C   0  0  0  0  0  0  0  0  0  0  0  0
    7.4950    7.5330   12.1470 N   0  0  0  0  0  0  0  0  0  0  0  0
    7.7500    6.2370   12.7640 C   0  0  0  0  0  0  0  0  0  0  0  0
    9.0520    5.6540   12.2080 C   0  0  0  0  0  0  0  0  0  0  0  0
    6.1660    7.8840   11.8470 C   0  0  0  0  0  0  0  0  0  0  0  0
    5.8680    8.2100   10.6450 O   0  0  0  0  0  0  0  0  0  0  0  0
    5.1230    7.8810   12.9080 C   0  0  1  0  0  0  0  0  0  0  0  0
    5.7030    7.9250   14.2930 C   0  0  0  0  0  0  0  0  0  0  0  0
    5.5140    9.2980   14.7510 N   0  0  0  0  0  0  0  0  0  0  0  0
    4.9370   10.0720   13.7160 C   0  0  0  0  0  0  0  0  0  0  0  0
    5.0200   11.3200   13.6300 O   0  0  0  0  0  0  0  0  0  0  0  0
    4.2570    9.1070   12.8260 C   0  0  0  0  0  0  0  0  0  0  0  0
    5.8730    9.7800   16.0650 C   0  0  0  0  0  0  0  0  0  0  0  0
    5.8810    8.6910   17.0700 C   0  0  0  0  0  0  0  0  0  0  0  0
    4.6750    8.1450   17.4860 C   0  0  0  0  0  0  0  0  0  0  0  0
    4.6040    7.1260   18.4210 C   0  0  0  0  0  0  0  0  0  0  0  0
    5.7950    6.6610   18.9390 C   0  0  0  0  0  0  0  0  0  0  0  0
    7.0160    7.1830   18.5460 C   0  0  0  0  0  0  0  0  0  0  0  0
    7.0570    8.2080   17.6020 C   0  0  0  0  0  0  0  0  0  0  0  0
    3.2050    8.7770   16.7950 Cl  0  0  0  0  0  0  0  0  0  0  0  0
   11.0500    4.1190   10.7300 C   0  0  0  0  0  0  0  0  0  0  0  0
   10.7090    2.7870   10.6570 C   0  0  0  0  0  0  0  0  0  0  0  0
   11.5490    2.0990   11.4890 N   0  0  0  0  0  0  0  0  0  0  0  0
   12.3410    2.9470   12.0280 O   0  0  0  0  0  0  0  0  0  0  0  0
   12.1030    4.1720   11.6230 C   0  0  0  0  0  0  0  0  0  0  0  0
   12.8700    5.3490   12.0850 C   0  0  0  0  0  0  0  0  0  0  0  0
    9.6320    2.2290    9.8160 C   0  0  0  0  0  0  0  0  0  0  0  0
   10.5320    7.6640   12.0410 H   0  0  0  0  0  0  0  0  0  0  0  0
   10.1620    8.1840   10.3700 H   0  0  0  0  0  0  0  0  0  0  0  0
    8.8780    9.0270   12.7400 H   0  0  0  0  0  0  0  0  0  0  0  0
    8.2100    9.1470   11.0600 H   0  0  0  0  0  0  0  0  0  0  0  0
    7.7650    6.3290   13.8660 H   0  0  0  0  0  0  0  0  0  0  0  0
    6.9030    5.5790   12.4990 H   0  0  0  0  0  0  0  0  0  0  0  0
    8.9330    4.5770   12.1150 H   0  0  0  0  0  0  0  0  0  0  0  0
    9.8340    5.8710   12.9640 H   0  0  0  0  0  0  0  0  0  0  0  0
    4.4880    6.9530   12.7680 H   0  0  0  0  0  0  0  0  0  0  0  0
    5.1510    7.2040   14.9470 H   0  0  0  0  0  0  0  0  0  0  0  0
    6.8080    7.6810   14.3170 H   0  0  0  0  0  0  0  0  0  0  0  0
    4.1740    9.4900   11.7860 H   0  0  0  0  0  0  0  0  0  0  0  0
    3.2600    8.8600   13.2550 H   0  0  0  0  0  0  0  0  0  0  0  0
    5.2080   10.5940   16.4230 H   0  0  0  0  0  0  0  0  0  0  0  0
    6.9220   10.1720   16.0190 H   0  0  0  0  0  0  0  0  0  0  0  0
    3.6340    6.7450   18.7030 H   0  0  0  0  0  0  0  0  0  0  0  0
    5.7670    5.8560   19.6800 H   0  0  0  0  0  0  0  0  0  0  0  0
    7.9200    6.7890   18.9770 H   0  0  0  0  0  0  0  0  0  0  0  0
    8.0090    8.6160   17.2970 H   0  0  0  0  0  0  0  0  0  0  0  0
   12.3800    6.2620   11.6870 H   0  0  0  0  0  0  0  0  0  0  0  0
   12.7620    5.3680   13.2090 H   0  0  0  0  0  0  0  0  0  0  0  0
   13.9230    5.2510   11.8190 H   0  0  0  0  0  0  0  0  0  0  0  0
    9.9090    1.1450    9.6490 H   0  0  0  0  0  0  0  0  0  0  0  0
    8.6490    2.2060   10.2950 H   0  0  0  0  0  0  0  0  0  0  0  0
    9.5730    2.7460    8.8170 H   0  0  0  0  0  0  0  0  0  0  0  0
  1 26  1  0  0  0  0
  1  4  1  0  0  0  0
  2  1  2  0  0  0  0
  3  1  2  0  0  0  0
  4  5  1  0  0  0  0
  4  9  1  0  0  0  0
  5  6  1  0  0  0  0
  5 33  1  0  0  0  0
  6  7  1  0  0  0  0
  6 35  1  0  0  0  0
  7  8  1  0  0  0  0
  8 37  1  0  0  0  0
  9  8  1  0  0  0  0
  9 40  1  0  0  0  0
 10  7  1  0  0  0  0
 10 12  1  0  0  0  0
 11 10  2  0  0  0  0
 12 41  1  6  0  0  0
 12 13  1  0  0  0  0
 13 43  1  0  0  0  0
 13 14  1  0  0  0  0
 13 42  1  0  0  0  0
 14 18  1  0  0  0  0
 15 14  1  0  0  0  0
 16 15  2  0  0  0  0
 17 12  1  0  0  0  0
 17 45  1  0  0  0  0
 17 15  1  0  0  0  0
 18 46  1  0  0  0  0
 18 19  1  0  0  0  0
 19 20  2  0  0  0  0
 19 24  1  0  0  0  0
 20 21  1  0  0  0  0
 21 48  1  0  0  0  0
 21 22  2  0  0  0  0
 22 49  1  0  0  0  0
 23 22  1  0  0  0  0
 23 50  1  0  0  0  0
 24 23  2  0  0  0  0
 25 20  1  0  0  0  0
 26 30  2  0  0  0  0
 27 26  1  0  0  0  0
 27 28  2  0  0  0  0
 28 29  1  0  0  0  0
 30 29  1  0  0  0  0
 30 31  1  0  0  0  0
 31 53  1  0  0  0  0
 32 56  1  0  0  0  0
 32 27  1  0  0  0  0
 34  5  1  0  0  0  0
 36  6  1  0  0  0  0
 38  8  1  0  0  0  0
 39  9  1  0  0  0  0
 44 17  1  0  0  0  0
 47 18  1  0  0  0  0
 51 24  1  0  0  0  0
 52 31  1  0  0  0  0
 54 31  1  0  0  0  0
 55 32  1  0  0  0  0
 57 32  1  0  0  0  0
M  END
>  <Pose>
1

>  <Score>
-5.94

$$$$
