
 OpenBabel03172210413D

 58 61  0  0  0  0  0  0  0  0999 V2000
   14.9590    0.4380    8.0460 Cl  0  0  0  0  0  0  0  0  0  0  0  0
   13.7720    1.2100    9.0710 C   0  0  0  0  0  0  0  0  0  0  0  0
   14.0590    2.3620    9.7970 C   0  0  0  0  0  0  0  0  0  0  0  0
   13.1240    2.9660   10.6030 C   0  0  0  0  0  0  0  0  0  0  0  0
   11.8690    2.4090   10.6880 C   0  0  0  0  0  0  0  0  0  0  0  0
   11.5840    1.2500    9.9540 C   0  0  0  0  0  0  0  0  0  0  0  0
   12.5200    0.6440    9.1480 C   0  0  0  0  0  0  0  0  0  0  0  0
   12.2250   -0.5210    8.4160 O   0  0  0  0  0  0  0  0  0  0  0  0
   10.9040   -0.8910    8.1080 C   0  0  0  0  0  0  0  0  0  0  0  0
   10.9670    2.9760   11.4520 O   0  0  0  0  0  0  0  0  0  0  0  0
   11.2060    4.0590   12.1500 C   0  0  0  0  0  0  0  0  0  0  0  0
   10.3010    4.5820   12.8830 O   0  0  0  0  0  0  0  0  0  0  0  0
   12.4410    4.7050   12.1380 C   0  0  0  0  0  0  0  0  0  0  0  0
   13.3990    4.1230   11.3390 C   0  0  0  0  0  0  0  0  0  0  0  0
   14.7320    4.7090   11.2390 C   0  0  0  0  0  0  0  0  0  0  0  0
   12.6470    5.9270   12.9480 C   0  0  0  0  0  0  0  0  0  0  0  0
   12.3090    7.1540   12.1740 C   0  0  0  0  0  0  0  0  0  0  0  0
   13.1970    7.6030   11.3710 O   0  0  0  0  0  0  0  0  0  0  0  0
   11.1120    7.8430   12.2590 N   0  0  0  0  0  0  0  0  0  0  0  0
   10.8570    8.8580   13.2330 C   0  0  0  0  0  0  0  0  0  0  0  0
    9.6520    8.4160   14.0660 C   0  0  0  0  0  0  0  0  0  0  0  0
    8.5510    8.1490   13.2040 N   0  0  0  0  0  0  0  0  0  0  0  0
    8.7920    8.3110   11.7540 C   0  0  0  0  0  0  0  0  0  0  0  0
   10.0360    7.5580   11.3380 C   0  0  0  0  0  0  0  0  0  0  0  0
    7.2650    7.7400   13.6150 C   0  0  0  0  0  0  0  0  0  0  0  0
    7.2780    6.9540   14.6860 O   0  0  0  0  0  0  0  0  0  0  0  0
    5.9610    8.0160   13.0910 C   0  0  0  0  0  0  0  0  0  0  0  0
    4.9190    8.3870   13.9790 C   0  0  0  0  0  0  0  0  0  0  0  0
    3.6570    8.6530   13.5190 C   0  0  0  0  0  0  0  0  0  0  0  0
    2.7500    8.9800   14.3290 O   0  0  0  0  0  0  0  0  0  0  0  0
    3.3310    8.5820   12.2220 N   0  0  0  0  0  0  0  0  0  0  0  0
    4.3100    8.2330   11.3860 C   0  0  0  0  0  0  0  0  0  0  0  0
    4.0500    8.1500   10.1410 O   0  0  0  0  0  0  0  0  0  0  0  0
    5.5910    7.9580   11.8170 N   0  0  0  0  0  0  0  0  0  0  0  0
    1.9930    8.8650   11.7560 C   0  0  0  0  0  0  0  0  0  0  0  0
   15.0390    2.8120    9.7420 H   0  0  0  0  0  0  0  0  0  0  0  0
   10.5930    0.8280   10.0350 H   0  0  0  0  0  0  0  0  0  0  0  0
   10.2640   -0.0370    7.8180 H   0  0  0  0  0  0  0  0  0  0  0  0
   10.9390   -1.6970    7.3550 H   0  0  0  0  0  0  0  0  0  0  0  0
   10.4540   -1.2700    9.0720 H   0  0  0  0  0  0  0  0  0  0  0  0
   15.4600    3.8930   11.5330 H   0  0  0  0  0  0  0  0  0  0  0  0
   14.9260    5.5390   11.9040 H   0  0  0  0  0  0  0  0  0  0  0  0
   15.0080    4.9410   10.1860 H   0  0  0  0  0  0  0  0  0  0  0  0
   13.5660    5.9770   13.5170 H   0  0  0  0  0  0  0  0  0  0  0  0
   11.8280    5.8780   13.7350 H   0  0  0  0  0  0  0  0  0  0  0  0
   10.5710    9.8310   12.7760 H   0  0  0  0  0  0  0  0  0  0  0  0
   11.7280    9.0780   13.8820 H   0  0  0  0  0  0  0  0  0  0  0  0
    9.9150    7.4700   14.6020 H   0  0  0  0  0  0  0  0  0  0  0  0
    9.4640    9.1930   14.8400 H   0  0  0  0  0  0  0  0  0  0  0  0
    7.8830    8.0070   11.2320 H   0  0  0  0  0  0  0  0  0  0  0  0
    8.9840    9.3820   11.5980 H   0  0  0  0  0  0  0  0  0  0  0  0
    9.8100    6.4800   11.3950 H   0  0  0  0  0  0  0  0  0  0  0  0
   10.3530    7.7960   10.3130 H   0  0  0  0  0  0  0  0  0  0  0  0
    5.1810    8.4440   15.0270 H   0  0  0  0  0  0  0  0  0  0  0  0
    6.2810    7.7000   11.0850 H   0  0  0  0  0  0  0  0  0  0  0  0
    1.9150    8.5280   10.7000 H   0  0  0  0  0  0  0  0  0  0  0  0
    1.8070    9.9750   11.7210 H   0  0  0  0  0  0  0  0  0  0  0  0
    1.2090    8.3800   12.3670 H   0  0  0  0  0  0  0  0  0  0  0  0
  1  2  1  0  0  0  0
  2  7  2  0  0  0  0
  2  3  1  0  0  0  0
  3  4  2  0  0  0  0
  4  5  1  0  0  0  0
  4 14  1  0  0  0  0
  5 10  1  0  0  0  0
  6 37  1  0  0  0  0
  6  5  2  0  0  0  0
  7  6  1  0  0  0  0
  8  7  1  0  0  0  0
  9  8  1  0  0  0  0
  9 40  1  0  0  0  0
 10 11  1  0  0  0  0
 11 12  2  0  0  0  0
 13 11  1  0  0  0  0
 13 16  1  0  0  0  0
 14 13  2  0  0  0  0
 15 14  1  0  0  0  0
 15 41  1  0  0  0  0
 15 42  1  0  0  0  0
 16 44  1  0  0  0  0
 16 45  1  0  0  0  0
 17 19  1  0  0  0  0
 17 16  1  0  0  0  0
 18 17  2  0  0  0  0
 19 20  1  0  0  0  0
 20 47  1  0  0  0  0
 20 21  1  0  0  0  0
 21 48  1  0  0  0  0
 21 49  1  0  0  0  0
 22 25  1  0  0  0  0
 22 21  1  0  0  0  0
 23 22  1  0  0  0  0
 24 52  1  0  0  0  0
 24 23  1  0  0  0  0
 24 19  1  0  0  0  0
 25 26  2  0  0  0  0
 27 25  1  0  0  0  0
 27 28  2  0  0  0  0
 28 54  1  0  0  0  0
 29 28  1  0  0  0  0
 29 30  2  0  0  0  0
 31 29  1  0  0  0  0
 32 34  1  0  0  0  0
 32 31  1  0  0  0  0
 33 32  2  0  0  0  0
 34 27  1  0  0  0  0
 35 31  1  0  0  0  0
 35 58  1  0  0  0  0
 36  3  1  0  0  0  0
 38  9  1  0  0  0  0
 39  9  1  0  0  0  0
 43 15  1  0  0  0  0
 46 20  1  0  0  0  0
 50 23  1  0  0  0  0
 51 23  1  0  0  0  0
 53 24  1  0  0  0  0
 55 34  1  0  0  0  0
 56 35  1  0  0  0  0
 57 35  1  0  0  0  0
M  END
>  <Pose>
1

>  <Score>
-6.76

$$$$
