
 OpenBabel03172210413D

 35 38  0  0  1  0  0  0  0  0999 V2000
   12.5500   -0.2170    7.7330 Cl  0  0  0  0  0  0  0  0  0  0  0  0
   13.4260    0.9110    8.7620 C   0  0  0  0  0  0  0  0  0  0  0  0
   12.7330    1.5640    9.7570 C   0  0  0  0  0  0  0  0  0  0  0  0
   13.4100    2.4220   10.5360 N   0  0  0  0  0  0  0  0  0  0  0  0
   14.7380    2.6640   10.3800 C   0  0  0  0  0  0  0  0  0  0  0  0
   15.4250    2.0320    9.4130 N   0  0  0  0  0  0  0  0  0  0  0  0
   16.6920    2.4310    9.4590 N   0  0  0  0  0  0  0  0  0  0  0  0
   16.8610    3.3270   10.4520 C   0  0  0  0  0  0  0  0  0  0  0  0
   15.6290    3.4520   11.0070 N   0  0  0  0  0  0  0  0  0  0  0  0
   18.0600    3.9950   10.8350 N   0  0  0  0  0  0  0  0  0  0  0  0
   18.4410    5.3090   10.4490 C   0  0  0  0  0  0  0  0  0  0  0  0
   17.7100    6.2360   10.0150 O   0  0  0  0  0  0  0  0  0  0  0  0
   19.9240    5.4650   10.6370 C   0  0  2  0  0  0  0  0  0  0  0  0
   20.3520    4.2880   11.4380 C   0  0  1  0  0  0  0  0  0  0  0  0
   20.8940    4.6270   12.8150 C   0  0  0  0  0  0  0  0  0  0  0  0
   19.8960    5.5470   13.4480 C   0  0  0  0  0  0  0  0  0  0  0  0
   19.5560    6.5970   12.7230 C   0  0  0  0  0  0  0  0  0  0  0  0
   20.1860    6.7520   11.3900 C   0  0  0  0  0  0  0  0  0  0  0  0
   19.1130    3.5180   11.6580 C   0  0  0  0  0  0  0  0  0  0  0  0
   18.9870    2.5500   12.4760 O   0  0  0  0  0  0  0  0  0  0  0  0
   14.7720    1.1590    8.6070 C   0  0  0  0  0  0  0  0  0  0  0  0
   15.4200    0.5600    7.6910 O   0  0  0  0  0  0  0  0  0  0  0  0
   11.2640    1.3080    9.9430 C   0  0  0  0  0  0  0  0  0  0  0  0
   12.8880    2.9220   11.2940 H   0  0  0  0  0  0  0  0  0  0  0  0
   20.4070    5.5140    9.6350 H   0  0  0  0  0  0  0  0  0  0  0  0
   21.1000    3.7190   10.8440 H   0  0  0  0  0  0  0  0  0  0  0  0
   20.9650    3.7000   13.4100 H   0  0  0  0  0  0  0  0  0  0  0  0
   21.8620    5.1460   12.7070 H   0  0  0  0  0  0  0  0  0  0  0  0
   19.5050    5.3270   14.4310 H   0  0  0  0  0  0  0  0  0  0  0  0
   18.8490    7.3160   13.0850 H   0  0  0  0  0  0  0  0  0  0  0  0
   19.7410    7.6240   10.8560 H   0  0  0  0  0  0  0  0  0  0  0  0
   21.2890    6.8810   11.4990 H   0  0  0  0  0  0  0  0  0  0  0  0
   10.6960    1.5850    9.0470 H   0  0  0  0  0  0  0  0  0  0  0  0
   11.0920    0.2300   10.1970 H   0  0  0  0  0  0  0  0  0  0  0  0
   10.8640    1.9110   10.7830 H   0  0  0  0  0  0  0  0  0  0  0  0
  1  2  1  0  0  0  0
  2  3  2  0  0  0  0
  3 23  1  0  0  0  0
  3  4  1  0  0  0  0
  4 24  1  0  0  0  0
  5  4  1  0  0  0  0
  5  9  2  0  0  0  0
  6  7  1  0  0  0  0
  6  5  1  0  0  0  0
  7  8  2  0  0  0  0
  8 10  1  0  0  0  0
  8  9  1  0  0  0  0
 10 19  1  0  0  0  0
 11 13  1  0  0  0  0
 11 10  1  0  0  0  0
 12 11  2  0  0  0  0
 13 25  1  6  0  0  0
 13 18  1  0  0  0  0
 13 14  1  0  0  0  0
 14 26  1  6  0  0  0
 14 19  1  0  0  0  0
 14 15  1  0  0  0  0
 15 27  1  0  0  0  0
 15 16  1  0  0  0  0
 16 29  1  0  0  0  0
 17 30  1  0  0  0  0
 17 16  2  0  0  0  0
 18 32  1  0  0  0  0
 18 17  1  0  0  0  0
 19 20  2  0  0  0  0
 21  2  1  0  0  0  0
 21  6  1  0  0  0  0
 22 21  2  0  0  0  0
 23 34  1  0  0  0  0
 23 35  1  0  0  0  0
 28 15  1  0  0  0  0
 31 18  1  0  0  0  0
 33 23  1  0  0  0  0
M  END
>  <Pose>
1

>  <Score>
-5.87

$$$$
