
 OpenBabel03172210413D

 51 54  0  0  1  0  0  0  0  0999 V2000
    6.5330    9.3150   13.3420 Cl  0  0  0  0  0  0  0  0  0  0  0  0
    7.2920    7.9390   12.5690 C   0  0  0  0  0  0  0  0  0  0  0  0
    8.6570    7.8550   12.4170 C   0  0  0  0  0  0  0  0  0  0  0  0
    9.2570    6.7420   11.7880 C   0  0  0  0  0  0  0  0  0  0  0  0
    8.4050    5.7700   11.3520 C   0  0  0  0  0  0  0  0  0  0  0  0
    7.0070    5.8520   11.5070 C   0  0  0  0  0  0  0  0  0  0  0  0
    6.4530    6.9460   12.1200 C   0  0  0  0  0  0  0  0  0  0  0  0
   10.6610    6.7210   11.6720 N   0  0  0  0  0  0  0  0  0  0  0  0
   11.5450    6.0870   12.5300 C   0  0  0  0  0  0  0  0  0  0  0  0
   11.1890    5.4880   13.5510 O   0  0  0  0  0  0  0  0  0  0  0  0
   13.0380    6.0860   12.2770 C   0  0  0  0  0  0  0  0  0  0  0  0
   13.3750    4.8800   11.5070 N   0  0  0  0  0  0  0  0  0  0  0  0
   14.6430    4.4130   11.3040 C   0  0  1  0  0  0  0  0  0  0  0  0
   14.5850    3.2830   10.5790 N   0  0  0  0  0  0  0  0  0  0  0  0
   13.3140    2.9810   10.2880 C   0  0  0  0  0  0  0  0  0  0  0  0
   12.5740    4.0100   10.8890 C   0  0  0  0  0  0  0  0  0  0  0  0
   12.7120    1.8830    9.5490 C   0  0  0  0  0  0  0  0  0  0  0  0
   13.3790    1.1960    8.5730 C   0  0  0  0  0  0  0  0  0  0  0  0
   12.8260    0.1370    7.8760 C   0  0  0  0  0  0  0  0  0  0  0  0
   11.5330   -0.2880    8.1400 C   0  0  0  0  0  0  0  0  0  0  0  0
   10.8620    0.4010    9.1220 C   0  0  0  0  0  0  0  0  0  0  0  0
   11.4140    1.4580    9.8180 C   0  0  0  0  0  0  0  0  0  0  0  0
   10.9470   -1.3440    7.4620 O   0  0  0  0  0  0  0  0  0  0  0  0
    9.5480   -1.5600    7.4420 C   0  0  0  0  0  0  0  0  0  0  0  0
   15.9470    2.7880   10.3770 C   0  0  0  0  0  0  0  0  0  0  0  0
   16.7930    3.5220   11.3990 C   0  0  0  0  0  0  0  0  0  0  0  0
   16.0440    4.7860   11.6270 C   0  0  0  0  0  0  0  0  0  0  0  0
    9.5030    8.9490   12.9230 C   0  0  0  0  0  0  0  0  0  0  0  0
    8.7860    4.8900   10.8620 H   0  0  0  0  0  0  0  0  0  0  0  0
    6.3480    5.0690   11.1540 H   0  0  0  0  0  0  0  0  0  0  0  0
    5.3620    7.0120   12.2450 H   0  0  0  0  0  0  0  0  0  0  0  0
   11.0920    7.2420   10.8490 H   0  0  0  0  0  0  0  0  0  0  0  0
   13.2400    6.9570   11.6340 H   0  0  0  0  0  0  0  0  0  0  0  0
   13.6000    6.0590   13.2150 H   0  0  0  0  0  0  0  0  0  0  0  0
   11.4860    4.1020   10.8560 H   0  0  0  0  0  0  0  0  0  0  0  0
   14.4050    1.5370    8.3560 H   0  0  0  0  0  0  0  0  0  0  0  0
   13.4170   -0.3620    7.1100 H   0  0  0  0  0  0  0  0  0  0  0  0
    9.8390    0.0750    9.3410 H   0  0  0  0  0  0  0  0  0  0  0  0
   10.8550    1.9900   10.5890 H   0  0  0  0  0  0  0  0  0  0  0  0
    9.2010   -2.0500    8.3830 H   0  0  0  0  0  0  0  0  0  0  0  0
    8.9600   -0.6480    7.2700 H   0  0  0  0  0  0  0  0  0  0  0  0
    9.3240   -2.2560    6.6080 H   0  0  0  0  0  0  0  0  0  0  0  0
   16.2970    2.9110    9.3510 H   0  0  0  0  0  0  0  0  0  0  0  0
   16.0460    1.7140   10.6590 H   0  0  0  0  0  0  0  0  0  0  0  0
   17.8290    3.6460   11.0600 H   0  0  0  0  0  0  0  0  0  0  0  0
   16.7540    2.9560   12.3790 H   0  0  0  0  0  0  0  0  0  0  0  0
   16.1170    5.1690   12.6680 H   0  0  0  0  0  0  0  0  0  0  0  0
   16.3980    5.5690   10.9000 H   0  0  0  0  0  0  0  0  0  0  0  0
    8.8630    9.7630   13.3100 H   0  0  0  0  0  0  0  0  0  0  0  0
   10.1170    8.6070   13.8070 H   0  0  0  0  0  0  0  0  0  0  0  0
   10.2170    9.3540   12.1830 H   0  0  0  0  0  0  0  0  0  0  0  0
  2  1  1  0  0  0  0
  3  2  1  0  0  0  0
  3 28  1  0  0  0  0
  4  3  2  0  0  0  0
  5  6  2  0  0  0  0
  5  4  1  0  0  0  0
  6  7  1  0  0  0  0
  7 31  1  0  0  0  0
  7  2  2  0  0  0  0
  8  4  1  0  0  0  0
  8  9  1  0  0  0  0
  9 10  2  0  0  0  0
 11  9  1  0  0  0  0
 11 34  1  0  0  0  0
 12 11  1  0  0  0  0
 13 14  1  6  0  0  0
 13 12  1  0  0  0  0
 13 27  1  0  0  0  0
 15 14  1  0  0  0  0
 15 16  2  0  0  0  0
 16 12  1  0  0  0  0
 17 22  1  0  0  0  0
 17 15  1  0  0  0  0
 18 17  2  0  0  0  0
 19 20  2  0  0  0  0
 19 18  1  0  0  0  0
 20 21  1  0  0  0  0
 21 38  1  0  0  0  0
 21 22  2  0  0  0  0
 22 39  1  0  0  0  0
 23 20  1  0  0  0  0
 24 23  1  0  0  0  0
 24 40  1  0  0  0  0
 25 14  1  0  0  0  0
 25 44  1  0  0  0  0
 25 26  1  0  0  0  0
 26 27  1  0  0  0  0
 26 46  1  0  0  0  0
 27 47  1  0  0  0  0
 28 49  1  0  0  0  0
 28 50  1  0  0  0  0
 29  5  1  0  0  0  0
 30  6  1  0  0  0  0
 32  8  1  0  0  0  0
 33 11  1  0  0  0  0
 35 16  1  0  0  0  0
 36 18  1  0  0  0  0
 37 19  1  0  0  0  0
 41 24  1  0  0  0  0
 42 24  1  0  0  0  0
 43 25  1  0  0  0  0
 45 26  1  0  0  0  0
 48 27  1  0  0  0  0
 51 28  1  0  0  0  0
M  END
>  <Pose>
1

>  <Score>
-5.64

$$$$
