
 OpenBabel03172210413D

 47 50  0  0  1  0  0  0  0  0999 V2000
   18.4590    3.0460   11.3970 Cl  0  0  0  0  0  0  0  0  0  0  0  0
   18.4590    4.7750   11.1430 C   0  0  0  0  0  0  0  0  0  0  0  0
   17.2660    5.4520   11.2810 C   0  0  0  0  0  0  0  0  0  0  0  0
   17.2710    6.8160   11.0800 C   0  0  0  0  0  0  0  0  0  0  0  0
   18.4330    7.4980   10.7460 C   0  0  0  0  0  0  0  0  0  0  0  0
   19.6310    6.8280   10.6060 C   0  0  0  0  0  0  0  0  0  0  0  0
   19.6260    5.4650   10.8070 C   0  0  0  0  0  0  0  0  0  0  0  0
   15.7520    7.6860   11.2560 Cl  0  0  0  0  0  0  0  0  0  0  0  0
   16.0280    4.7510   11.6320 C   0  0  0  0  0  0  0  0  0  0  0  0
   14.8710    5.2650   11.4290 N   0  0  0  0  0  0  0  0  0  0  0  0
   13.7400    4.5300   11.7940 N   0  0  0  0  0  0  0  0  0  0  0  0
   13.2000    3.5100   10.9660 C   0  0  0  0  0  0  0  0  0  0  0  0
   11.9040    3.3680   10.6470 N   0  0  0  0  0  0  0  0  0  0  0  0
   11.8330    2.2860    9.8530 C   0  0  0  0  0  0  0  0  0  0  0  0
   10.8020    1.6640    9.2310 N   0  0  0  0  0  0  0  0  0  0  0  0
   10.9880    0.5680    8.4710 C   0  0  0  0  0  0  0  0  0  0  0  0
   12.2290    0.0580    8.3110 N   0  0  0  0  0  0  0  0  0  0  0  0
   13.3030    0.6190    8.8960 C   0  0  0  0  0  0  0  0  0  0  0  0
   13.0860    1.7420    9.6710 C   0  0  0  0  0  0  0  0  0  0  0  0
   13.9270    2.5300   10.3800 N   0  0  0  0  0  0  0  0  0  0  0  0
   14.5890    0.0620    8.7080 N   0  0  0  0  0  0  0  0  0  0  0  0
   10.7660    4.1550   11.0250 C   0  0  1  0  0  0  0  0  0  0  0  0
   10.7600    4.4730   12.3810 O   0  0  0  0  0  0  0  0  0  0  0  0
    9.7920    5.4770   12.4230 C   0  0  2  0  0  0  0  0  0  0  0  0
   10.3370    6.4450   11.3830 C   0  0  1  0  0  0  0  0  0  0  0  0
   10.7460    5.4820   10.2880 C   0  0  2  0  0  0  0  0  0  0  0  0
    9.7390    5.5120    9.3210 O   0  0  0  0  0  0  0  0  0  0  0  0
    9.3680    7.3400   10.9520 O   0  0  0  0  0  0  0  0  0  0  0  0
    9.6790    6.1180   13.7800 C   0  0  0  0  0  0  0  0  0  0  0  0
   10.8880    6.5250   14.2870 O   0  0  0  0  0  0  0  0  0  0  0  0
   18.4450    8.5680   10.5860 H   0  0  0  0  0  0  0  0  0  0  0  0
   20.5610    7.3160   10.3470 H   0  0  0  0  0  0  0  0  0  0  0  0
   20.5630    4.9110   10.7010 H   0  0  0  0  0  0  0  0  0  0  0  0
   16.0800    3.7710   12.0770 H   0  0  0  0  0  0  0  0  0  0  0  0
   13.3030    4.7700   12.7150 H   0  0  0  0  0  0  0  0  0  0  0  0
   10.1710    0.0650    7.9720 H   0  0  0  0  0  0  0  0  0  0  0  0
   15.3740    0.2720    9.3490 H   0  0  0  0  0  0  0  0  0  0  0  0
   14.7500   -0.5740    7.9070 H   0  0  0  0  0  0  0  0  0  0  0  0
    9.7980    3.6470   10.8160 H   0  0  0  0  0  0  0  0  0  0  0  0
    8.8570    5.0680   12.0480 H   0  0  0  0  0  0  0  0  0  0  0  0
   11.2400    6.9710   11.7970 H   0  0  0  0  0  0  0  0  0  0  0  0
   11.7370    5.7270    9.8570 H   0  0  0  0  0  0  0  0  0  0  0  0
    9.9410    4.9320    8.5590 H   0  0  0  0  0  0  0  0  0  0  0  0
    9.7460    7.8370   10.1780 H   0  0  0  0  0  0  0  0  0  0  0  0
    9.2270    5.3610   14.4570 H   0  0  0  0  0  0  0  0  0  0  0  0
    8.9280    6.9300   13.6910 H   0  0  0  0  0  0  0  0  0  0  0  0
   11.3120    5.8280   14.8340 H   0  0  0  0  0  0  0  0  0  0  0  0
  2  3  1  0  0  0  0
  2  1  1  0  0  0  0
  3  9  1  0  0  0  0
  4  8  1  0  0  0  0
  4  3  2  0  0  0  0
  5  4  1  0  0  0  0
  6  5  2  0  0  0  0
  6  7  1  0  0  0  0
  7  2  2  0  0  0  0
  9 34  1  0  0  0  0
 10  9  2  0  0  0  0
 10 11  1  0  0  0  0
 11 35  1  0  0  0  0
 12 11  1  0  0  0  0
 13 12  1  0  0  0  0
 13 22  1  0  0  0  0
 14 13  1  0  0  0  0
 15 14  1  0  0  0  0
 16 15  2  0  0  0  0
 17 16  1  0  0  0  0
 17 18  2  0  0  0  0
 18 19  1  0  0  0  0
 19 14  2  0  0  0  0
 19 20  1  0  0  0  0
 20 12  2  0  0  0  0
 21 18  1  0  0  0  0
 21 37  1  0  0  0  0
 22 39  1  6  0  0  0
 22 23  1  0  0  0  0
 23 24  1  0  0  0  0
 24 40  1  6  0  0  0
 24 29  1  0  0  0  0
 25 41  1  1  0  0  0
 25 24  1  0  0  0  0
 26 42  1  6  0  0  0
 26 22  1  0  0  0  0
 26 25  1  0  0  0  0
 27 26  1  0  0  0  0
 28 25  1  0  0  0  0
 29 30  1  0  0  0  0
 29 45  1  0  0  0  0
 30 47  1  0  0  0  0
 31  5  1  0  0  0  0
 32  6  1  0  0  0  0
 33  7  1  0  0  0  0
 36 16  1  0  0  0  0
 38 21  1  0  0  0  0
 43 27  1  0  0  0  0
 44 28  1  0  0  0  0
 46 29  1  0  0  0  0
M  END
>  <Pose>
1

>  <Score>
-7.54

$$$$
