
 OpenBabel03172210413D

 49 52  0  0  1  0  0  0  0  0999 V2000
    5.1310    6.4370   15.1230 Cl  0  0  0  0  0  0  0  0  0  0  0  0
    5.5850    7.9910   14.4560 C   0  0  0  0  0  0  0  0  0  0  0  0
    4.7890    9.0920   14.6600 C   0  0  0  0  0  0  0  0  0  0  0  0
    5.2170   10.2720   14.1020 C   0  0  0  0  0  0  0  0  0  0  0  0
    6.3950   10.3880   13.3620 C   0  0  0  0  0  0  0  0  0  0  0  0
    7.1960    9.2950   13.1530 C   0  0  0  0  0  0  0  0  0  0  0  0
    6.7450    8.0930   13.7300 C   0  0  0  0  0  0  0  0  0  0  0  0
    8.4130    9.2900   12.4370 N   0  0  0  0  0  0  0  0  0  0  0  0
    8.9540    8.1430   11.8340 C   0  0  0  0  0  0  0  0  0  0  0  0
    8.3130    7.4330   11.0450 O   0  0  0  0  0  0  0  0  0  0  0  0
   10.3650    7.7080   12.1170 C   0  0  0  0  0  0  0  0  0  0  0  0
   10.7500    6.5680   11.3470 N   0  0  0  0  0  0  0  0  0  0  0  0
   11.1040    6.6210   10.0440 C   0  0  0  0  0  0  0  0  0  0  0  0
   11.4560    5.4970    9.3850 N   0  0  0  0  0  0  0  0  0  0  0  0
   11.4750    4.2910    9.9640 C   0  0  0  0  0  0  0  0  0  0  0  0
   11.8240    3.1670    9.3160 N   0  0  0  0  0  0  0  0  0  0  0  0
   11.8530    1.9450    9.8730 C   0  0  0  0  0  0  0  0  0  0  0  0
   11.4990    1.8700   11.1850 N   0  0  0  0  0  0  0  0  0  0  0  0
   11.1440    2.9680   11.8700 C   0  0  0  0  0  0  0  0  0  0  0  0
   11.1180    4.2180   11.2880 C   0  0  1  0  0  0  0  0  0  0  0  0
   10.7560    5.3590   11.9750 C   0  0  0  0  0  0  0  0  0  0  0  0
   10.4400    5.2270   13.1830 O   0  0  0  0  0  0  0  0  0  0  0  0
   12.2270    0.7840    9.1560 N   0  0  0  0  0  0  0  0  0  0  0  0
   11.2710   -0.2920    9.0390 C   0  0  0  0  0  0  0  0  0  0  0  0
   11.3550   -0.8740    7.6290 C   0  0  0  0  0  0  0  0  0  0  0  0
   12.6700   -1.1440    7.2590 O   0  0  0  0  0  0  0  0  0  0  0  0
   13.3060    0.0890    7.1170 C   0  0  0  0  0  0  0  0  0  0  0  0
   13.5210    0.6230    8.5330 C   0  0  0  0  0  0  0  0  0  0  0  0
    3.6000    9.0150   15.3970 O   0  0  0  0  0  0  0  0  0  0  0  0
    3.6380    8.6320   16.7530 C   0  0  0  0  0  0  0  0  0  0  0  0
    4.5950   11.1640   14.2530 H   0  0  0  0  0  0  0  0  0  0  0  0
    6.6370   11.3390   12.9640 H   0  0  0  0  0  0  0  0  0  0  0  0
    7.3920    7.2260   13.5590 H   0  0  0  0  0  0  0  0  0  0  0  0
    8.9570   10.2130   12.3510 H   0  0  0  0  0  0  0  0  0  0  0  0
   11.0860    8.5130   11.9350 H   0  0  0  0  0  0  0  0  0  0  0  0
   10.4220    7.4380   13.1900 H   0  0  0  0  0  0  0  0  0  0  0  0
   11.0870    7.5970    9.5790 H   0  0  0  0  0  0  0  0  0  0  0  0
   10.8560    2.9250   12.9270 H   0  0  0  0  0  0  0  0  0  0  0  0
   11.4760   -1.1110    9.7630 H   0  0  0  0  0  0  0  0  0  0  0  0
   10.2580    0.1360    9.1480 H   0  0  0  0  0  0  0  0  0  0  0  0
   10.8120   -1.8390    7.6240 H   0  0  0  0  0  0  0  0  0  0  0  0
   10.9490   -0.1450    6.8980 H   0  0  0  0  0  0  0  0  0  0  0  0
   12.6320    0.7690    6.5760 H   0  0  0  0  0  0  0  0  0  0  0  0
   14.2610    0.0310    6.5890 H   0  0  0  0  0  0  0  0  0  0  0  0
   14.1810   -0.0670    9.0970 H   0  0  0  0  0  0  0  0  0  0  0  0
   13.9620    1.6360    8.4200 H   0  0  0  0  0  0  0  0  0  0  0  0
    4.4040    9.2640   17.2580 H   0  0  0  0  0  0  0  0  0  0  0  0
    3.9340    7.5850   16.8960 H   0  0  0  0  0  0  0  0  0  0  0  0
    2.6750    8.8850   17.2400 H   0  0  0  0  0  0  0  0  0  0  0  0
  2  3  1  0  0  0  0
  2  1  1  0  0  0  0
  3 29  1  0  0  0  0
  4 31  1  0  0  0  0
  4  3  2  0  0  0  0
  5  4  1  0  0  0  0
  6  5  2  0  0  0  0
  6  7  1  0  0  0  0
  7  2  2  0  0  0  0
  8  6  1  0  0  0  0
  9 11  1  0  0  0  0
  9  8  1  0  0  0  0
 10  9  2  0  0  0  0
 11 36  1  0  0  0  0
 12 21  1  0  0  0  0
 12 11  1  0  0  0  0
 13 12  1  0  0  0  0
 14 15  2  0  0  0  0
 14 13  1  0  0  0  0
 16 17  2  0  0  0  0
 16 15  1  0  0  0  0
 17 18  1  0  0  0  0
 18 19  2  0  0  0  0
 19 38  1  0  0  0  0
 20 15  1  1  0  0  0
 20 19  1  0  0  0  0
 20 21  1  0  0  0  0
 21 22  2  0  0  0  0
 23 17  1  0  0  0  0
 24 40  1  0  0  0  0
 24 23  1  0  0  0  0
 24 39  1  0  0  0  0
 25 24  1  0  0  0  0
 26 25  1  0  0  0  0
 27 26  1  0  0  0  0
 27 28  1  0  0  0  0
 28 45  1  0  0  0  0
 28 23  1  0  0  0  0
 29 30  1  0  0  0  0
 30 48  1  0  0  0  0
 30 49  1  0  0  0  0
 30 47  1  0  0  0  0
 32  5  1  0  0  0  0
 33  7  1  0  0  0  0
 34  8  1  0  0  0  0
 35 11  1  0  0  0  0
 37 13  1  0  0  0  0
 41 25  1  0  0  0  0
 42 25  1  0  0  0  0
 43 27  1  0  0  0  0
 44 27  1  0  0  0  0
 46 28  1  0  0  0  0
M  END
>  <Pose>
1

>  <Score>
-6.62

$$$$
