
 OpenBabel03172210413D

 42 45  0  0  1  0  0  0  0  0999 V2000
   10.3850    4.8560   10.1590 S   0  0  0  0  0  0  0  0  0  0  0  0
    9.9140    3.4750   10.4700 O   0  0  0  0  0  0  0  0  0  0  0  0
    9.8130    5.2760    8.8300 O   0  0  0  0  0  0  0  0  0  0  0  0
   12.1000    4.8780   10.0160 N   0  0  0  0  0  0  0  0  0  0  0  0
   12.6190    3.6770    9.4400 C   0  0  0  0  0  0  0  0  0  0  0  0
   13.7520    3.1950   10.3300 C   0  0  1  0  0  0  0  0  0  0  0  0
   13.3460    3.7560   11.6770 C   0  0  0  0  0  0  0  0  0  0  0  0
   12.7640    5.1110   11.2590 C   0  0  0  0  0  0  0  0  0  0  0  0
   13.6730    1.7810   10.3960 O   0  0  0  0  0  0  0  0  0  0  0  0
   12.7360    1.0620    9.6720 C   0  0  0  0  0  0  0  0  0  0  0  0
   13.1830    0.5020    8.5100 N   0  0  0  0  0  0  0  0  0  0  0  0
   12.2970   -0.2020    7.7860 C   0  0  0  0  0  0  0  0  0  0  0  0
   10.9830   -0.3670    8.1770 C   0  0  0  0  0  0  0  0  0  0  0  0
   10.5870    0.2230    9.3620 C   0  0  0  0  0  0  0  0  0  0  0  0
   11.4790    0.9290   10.0900 N   0  0  0  0  0  0  0  0  0  0  0  0
    9.8390   -1.2860    7.2220 Cl  0  0  0  0  0  0  0  0  0  0  0  0
    9.8230    5.9640   11.3890 C   0  0  0  0  0  0  0  0  0  0  0  0
    9.4770    5.5000   12.6420 C   0  0  0  0  0  0  0  0  0  0  0  0
    9.0270    6.3350   13.6510 C   0  0  0  0  0  0  0  0  0  0  0  0
    8.9110    7.6930   13.4180 C   0  0  0  0  0  0  0  0  0  0  0  0
    9.2580    8.1460   12.1700 C   0  0  0  0  0  0  0  0  0  0  0  0
    9.7060    7.3180   11.1640 C   0  0  0  0  0  0  0  0  0  0  0  0
    8.4580    8.4930   14.4550 O   0  0  0  0  0  0  0  0  0  0  0  0
    7.6480    8.0130   15.5130 C   0  0  0  0  0  0  0  0  0  0  0  0
    7.8940    6.5640   15.8380 C   0  0  0  0  0  0  0  0  0  0  0  0
    8.6790    5.8850   14.9030 O   0  0  0  0  0  0  0  0  0  0  0  0
   13.0850    3.9380    8.4620 H   0  0  0  0  0  0  0  0  0  0  0  0
   11.8770    2.9030    9.2480 H   0  0  0  0  0  0  0  0  0  0  0  0
   14.7250    3.5610    9.9830 H   0  0  0  0  0  0  0  0  0  0  0  0
   12.6020    3.1300   12.1630 H   0  0  0  0  0  0  0  0  0  0  0  0
   14.2500    3.9670   12.2800 H   0  0  0  0  0  0  0  0  0  0  0  0
   12.0770    5.4600   12.0640 H   0  0  0  0  0  0  0  0  0  0  0  0
   13.5960    5.8100   11.1360 H   0  0  0  0  0  0  0  0  0  0  0  0
   12.5840   -0.6700    6.8570 H   0  0  0  0  0  0  0  0  0  0  0  0
    9.5470    0.1080    9.7000 H   0  0  0  0  0  0  0  0  0  0  0  0
    9.5640    4.4320   12.8340 H   0  0  0  0  0  0  0  0  0  0  0  0
    9.1600    9.2260   12.0050 H   0  0  0  0  0  0  0  0  0  0  0  0
    9.9710    7.6960   10.1960 H   0  0  0  0  0  0  0  0  0  0  0  0
    7.8140    8.6620   16.3910 H   0  0  0  0  0  0  0  0  0  0  0  0
    6.5830    8.1770   15.1810 H   0  0  0  0  0  0  0  0  0  0  0  0
    8.3330    6.5300   16.8690 H   0  0  0  0  0  0  0  0  0  0  0  0
    6.9040    6.0630   15.8910 H   0  0  0  0  0  0  0  0  0  0  0  0
  1  2  2  0  0  0  0
  1 17  1  0  0  0  0
  3  1  2  0  0  0  0
  4  1  1  0  0  0  0
  4  8  1  0  0  0  0
  5  4  1  0  0  0  0
  5  6  1  0  0  0  0
  6 29  1  6  0  0  0
  6  9  1  0  0  0  0
  6  7  1  0  0  0  0
  7 30  1  0  0  0  0
  7 31  1  0  0  0  0
  8  7  1  0  0  0  0
  8 32  1  0  0  0  0
 10 15  2  0  0  0  0
 10  9  1  0  0  0  0
 11 10  2  0  0  0  0
 12 13  2  0  0  0  0
 12 11  1  0  0  0  0
 13 14  1  0  0  0  0
 14 35  1  0  0  0  0
 14 15  1  0  0  0  0
 16 13  1  0  0  0  0
 17 18  1  0  0  0  0
 18 36  1  0  0  0  0
 18 19  2  0  0  0  0
 19 26  1  0  0  0  0
 20 19  1  0  0  0  0
 20 23  1  0  0  0  0
 21 20  2  0  0  0  0
 22 17  2  0  0  0  0
 22 21  1  0  0  0  0
 23 24  1  0  0  0  0
 24 25  1  0  0  0  0
 24 39  1  0  0  0  0
 25 42  1  0  0  0  0
 25 41  1  0  0  0  0
 26 25  1  0  0  0  0
 27  5  1  0  0  0  0
 28  5  1  0  0  0  0
 33  8  1  0  0  0  0
 34 12  1  0  0  0  0
 37 21  1  0  0  0  0
 38 22  1  0  0  0  0
 40 24  1  0  0  0  0
M  END
>  <Pose>
1

>  <Score>
-5.79

$$$$
