
 OpenBabel03172210413D

 52 55  0  0  0  0  0  0  0  0999 V2000
   19.4370    3.2470   11.2820 Cl  0  0  0  0  0  0  0  0  0  0  0  0
   17.7340    3.6980   11.2710 C   0  0  0  0  0  0  0  0  0  0  0  0
   16.8920    3.4330   10.2280 C   0  0  0  0  0  0  0  0  0  0  0  0
   15.5390    3.8030   10.2230 C   0  0  0  0  0  0  0  0  0  0  0  0
   15.0640    4.4520   11.3220 C   0  0  0  0  0  0  0  0  0  0  0  0
   15.9150    4.7230   12.3840 C   0  0  0  0  0  0  0  0  0  0  0  0
   17.2450    4.3560   12.3790 C   0  0  0  0  0  0  0  0  0  0  0  0
   14.7230    3.4510    9.0310 C   0  0  0  0  0  0  0  0  0  0  0  0
   13.5580    2.6730    9.2880 N   0  0  0  0  0  0  0  0  0  0  0  0
   13.4110    1.3860    8.8670 C   0  0  0  0  0  0  0  0  0  0  0  0
   12.1690    0.9610    9.2590 C   0  0  0  0  0  0  0  0  0  0  0  0
   11.6110    1.9900    9.8960 N   0  0  0  0  0  0  0  0  0  0  0  0
   12.4510    3.0580    9.9280 C   0  0  0  0  0  0  0  0  0  0  0  0
   12.1540    4.3090   10.5840 N   0  0  0  0  0  0  0  0  0  0  0  0
   11.3550    5.2340    9.8130 C   0  0  0  0  0  0  0  0  0  0  0  0
   10.9930    6.4910   10.5620 C   0  0  0  0  0  0  0  0  0  0  0  0
   10.5350    6.1160   11.8500 N   0  0  0  0  0  0  0  0  0  0  0  0
   11.5610    5.5090   12.6310 C   0  0  0  0  0  0  0  0  0  0  0  0
   12.5760    4.6930   11.8870 C   0  0  0  0  0  0  0  0  0  0  0  0
    9.3300    5.3530   11.7620 C   0  0  0  0  0  0  0  0  0  0  0  0
    8.0950    6.1810   11.6360 C   0  0  0  0  0  0  0  0  0  0  0  0
    8.0450    7.4000   11.8610 O   0  0  0  0  0  0  0  0  0  0  0  0
    6.9230    5.4620   11.2260 N   0  0  0  0  0  0  0  0  0  0  0  0
   11.8010   -0.2980    8.9650 N   0  0  0  0  0  0  0  0  0  0  0  0
   12.6280   -1.1460    8.2970 C   0  0  0  0  0  0  0  0  0  0  0  0
   12.2890   -2.3380    8.0150 O   0  0  0  0  0  0  0  0  0  0  0  0
   13.8530   -0.7580    7.9010 N   0  0  0  0  0  0  0  0  0  0  0  0
   14.2360    0.4950    8.1850 C   0  0  0  0  0  0  0  0  0  0  0  0
   15.3810    0.8240    7.8050 O   0  0  0  0  0  0  0  0  0  0  0  0
   10.5080   -0.7920    9.3590 C   0  0  0  0  0  0  0  0  0  0  0  0
   17.3090    2.9200    9.3710 H   0  0  0  0  0  0  0  0  0  0  0  0
   14.0280    4.7520   11.3770 H   0  0  0  0  0  0  0  0  0  0  0  0
   15.5250    5.2430   13.2610 H   0  0  0  0  0  0  0  0  0  0  0  0
   17.8800    4.5900   13.2440 H   0  0  0  0  0  0  0  0  0  0  0  0
   14.4740    4.4140    8.5420 H   0  0  0  0  0  0  0  0  0  0  0  0
   15.3890    2.9350    8.2950 H   0  0  0  0  0  0  0  0  0  0  0  0
   11.9950    5.5810    8.9380 H   0  0  0  0  0  0  0  0  0  0  0  0
   10.5050    4.7180    9.3410 H   0  0  0  0  0  0  0  0  0  0  0  0
   10.2100    7.0090    9.9900 H   0  0  0  0  0  0  0  0  0  0  0  0
   11.8550    7.1990   10.6020 H   0  0  0  0  0  0  0  0  0  0  0  0
   11.0300    4.8840   13.4100 H   0  0  0  0  0  0  0  0  0  0  0  0
   12.0680    6.3390   13.1960 H   0  0  0  0  0  0  0  0  0  0  0  0
   12.8360    3.8300   12.5410 H   0  0  0  0  0  0  0  0  0  0  0  0
   13.5450    5.2870   11.8570 H   0  0  0  0  0  0  0  0  0  0  0  0
    9.3080    4.6710   10.8670 H   0  0  0  0  0  0  0  0  0  0  0  0
    9.2220    4.7730   12.7180 H   0  0  0  0  0  0  0  0  0  0  0  0
    5.9610    5.8250   11.4140 H   0  0  0  0  0  0  0  0  0  0  0  0
    7.0400    4.5750   10.7400 H   0  0  0  0  0  0  0  0  0  0  0  0
   14.4970   -1.4250    7.3780 H   0  0  0  0  0  0  0  0  0  0  0  0
   10.1940   -0.2370   10.2720 H   0  0  0  0  0  0  0  0  0  0  0  0
   10.5410   -1.8680    9.5930 H   0  0  0  0  0  0  0  0  0  0  0  0
    9.7860   -0.6570    8.5220 H   0  0  0  0  0  0  0  0  0  0  0  0
  2  1  1  0  0  0  0
  2  7  1  0  0  0  0
  3  2  2  0  0  0  0
  4  3  1  0  0  0  0
  4  5  2  0  0  0  0
  5 32  1  0  0  0  0
  5  6  1  0  0  0  0
  6 33  1  0  0  0  0
  7  6  2  0  0  0  0
  7 34  1  0  0  0  0
  8  9  1  0  0  0  0
  8  4  1  0  0  0  0
  9 13  1  0  0  0  0
 10 11  2  0  0  0  0
 10  9  1  0  0  0  0
 11 12  1  0  0  0  0
 12 13  2  0  0  0  0
 13 14  1  0  0  0  0
 14 19  1  0  0  0  0
 15 16  1  0  0  0  0
 15 14  1  0  0  0  0
 16 40  1  0  0  0  0
 16 17  1  0  0  0  0
 17 18  1  0  0  0  0
 18 42  1  0  0  0  0
 18 41  1  0  0  0  0
 19 43  1  0  0  0  0
 19 18  1  0  0  0  0
 20 17  1  0  0  0  0
 20 46  1  0  0  0  0
 21 20  1  0  0  0  0
 21 22  2  0  0  0  0
 23 47  1  0  0  0  0
 23 21  1  0  0  0  0
 24 11  1  0  0  0  0
 24 30  1  0  0  0  0
 25 24  1  0  0  0  0
 26 25  2  0  0  0  0
 27 28  1  0  0  0  0
 27 25  1  0  0  0  0
 28 10  1  0  0  0  0
 29 28  2  0  0  0  0
 30 51  1  0  0  0  0
 30 50  1  0  0  0  0
 31  3  1  0  0  0  0
 35  8  1  0  0  0  0
 36  8  1  0  0  0  0
 37 15  1  0  0  0  0
 38 15  1  0  0  0  0
 39 16  1  0  0  0  0
 44 19  1  0  0  0  0
 45 20  1  0  0  0  0
 48 23  1  0  0  0  0
 49 27  1  0  0  0  0
 52 30  1  0  0  0  0
M  END
>  <Pose>
1

>  <Score>
-6.82

$$$$
