
 OpenBabel03172210413D

 41 44  0  0  0  0  0  0  0  0999 V2000
   11.1510   -1.0990    8.7270 Cl  0  0  0  0  0  0  0  0  0  0  0  0
   11.5470    0.5410    9.2520 C   0  0  0  0  0  0  0  0  0  0  0  0
   12.8570    0.9690    9.3070 C   0  0  0  0  0  0  0  0  0  0  0  0
   13.1050    2.2640    9.7260 C   0  0  0  0  0  0  0  0  0  0  0  0
   12.1010    3.1370   10.0890 C   0  0  0  0  0  0  0  0  0  0  0  0
   10.8030    2.6710   10.0200 C   0  0  0  0  0  0  0  0  0  0  0  0
   10.5070    1.3760    9.6040 C   0  0  0  0  0  0  0  0  0  0  0  0
   12.3810    4.4540   10.5120 N   0  0  0  0  0  0  0  0  0  0  0  0
   13.2160    4.8270   11.5110 C   0  0  0  0  0  0  0  0  0  0  0  0
   13.8730    4.0180   12.2160 O   0  0  0  0  0  0  0  0  0  0  0  0
   13.2430    6.2050   11.6450 C   0  0  0  0  0  0  0  0  0  0  0  0
   12.4190    6.6770   10.7230 C   0  0  0  0  0  0  0  0  0  0  0  0
   12.4470    8.0200   10.8570 N   0  0  0  0  0  0  0  0  0  0  0  0
   13.2840    8.3370   11.8550 N   0  0  0  0  0  0  0  0  0  0  0  0
   13.7820    7.2160   12.3500 N   0  0  0  0  0  0  0  0  0  0  0  0
   14.7280    7.0920   13.4380 C   0  0  0  0  0  0  0  0  0  0  0  0
   16.1410    7.1810   12.9920 C   0  0  0  0  0  0  0  0  0  0  0  0
   16.6800    6.4240   11.9760 C   0  0  0  0  0  0  0  0  0  0  0  0
   17.9940    6.5100   11.5640 C   0  0  0  0  0  0  0  0  0  0  0  0
   18.8290    7.3990   12.1970 C   0  0  0  0  0  0  0  0  0  0  0  0
   18.3330    8.1750   13.2180 C   0  0  0  0  0  0  0  0  0  0  0  0
   17.0100    8.0680   13.6120 C   0  0  0  0  0  0  0  0  0  0  0  0
   18.4410    5.6920   10.5180 O   0  0  0  0  0  0  0  0  0  0  0  0
   19.0590    6.2350    9.3690 C   0  0  0  0  0  0  0  0  0  0  0  0
   11.8910    5.6080   10.0290 C   0  0  0  0  0  0  0  0  0  0  0  0
   11.0750    5.7280    9.0890 O   0  0  0  0  0  0  0  0  0  0  0  0
   13.6390    0.2840    9.0230 H   0  0  0  0  0  0  0  0  0  0  0  0
   14.1220    2.6150    9.7750 H   0  0  0  0  0  0  0  0  0  0  0  0
   10.0300    3.3730   10.3090 H   0  0  0  0  0  0  0  0  0  0  0  0
    9.4630    1.0570    9.5680 H   0  0  0  0  0  0  0  0  0  0  0  0
   11.9060    8.6900   10.2790 H   0  0  0  0  0  0  0  0  0  0  0  0
   13.5300    9.2840   12.2130 H   0  0  0  0  0  0  0  0  0  0  0  0
   14.5390    7.8730   14.2000 H   0  0  0  0  0  0  0  0  0  0  0  0
   14.5850    6.0620   13.8780 H   0  0  0  0  0  0  0  0  0  0  0  0
   16.0290    5.7030   11.4530 H   0  0  0  0  0  0  0  0  0  0  0  0
   19.8800    7.4870   11.8890 H   0  0  0  0  0  0  0  0  0  0  0  0
   18.9940    8.8730   13.7130 H   0  0  0  0  0  0  0  0  0  0  0  0
   16.6280    8.6820   14.4150 H   0  0  0  0  0  0  0  0  0  0  0  0
   18.3220    6.7210    8.6880 H   0  0  0  0  0  0  0  0  0  0  0  0
   19.5410    5.4280    8.7930 H   0  0  0  0  0  0  0  0  0  0  0  0
   19.7880    7.0280    9.6680 H   0  0  0  0  0  0  0  0  0  0  0  0
  1  2  1  0  0  0  0
  2  3  2  0  0  0  0
  2  7  1  0  0  0  0
  3  4  1  0  0  0  0
  4 28  1  0  0  0  0
  4  5  2  0  0  0  0
  5  8  1  0  0  0  0
  6  5  1  0  0  0  0
  6 29  1  0  0  0  0
  7  6  2  0  0  0  0
  8  9  1  0  0  0  0
  9 11  1  0  0  0  0
  9 10  2  0  0  0  0
 11 15  1  0  0  0  0
 12 13  1  0  0  0  0
 12 11  2  0  0  0  0
 13 14  1  0  0  0  0
 14 32  1  0  0  0  0
 14 15  1  0  0  0  0
 15 16  1  0  0  0  0
 16 34  1  0  0  0  0
 16 33  1  0  0  0  0
 17 16  1  0  0  0  0
 17 22  1  0  0  0  0
 18 17  2  0  0  0  0
 19 18  1  0  0  0  0
 19 20  2  0  0  0  0
 20 21  1  0  0  0  0
 21 22  2  0  0  0  0
 21 37  1  0  0  0  0
 22 38  1  0  0  0  0
 23 19  1  0  0  0  0
 24 41  1  0  0  0  0
 24 23  1  0  0  0  0
 25  8  1  0  0  0  0
 25 12  1  0  0  0  0
 26 25  2  0  0  0  0
 27  3  1  0  0  0  0
 30  7  1  0  0  0  0
 31 13  1  0  0  0  0
 35 18  1  0  0  0  0
 36 20  1  0  0  0  0
 39 24  1  0  0  0  0
 40 24  1  0  0  0  0
M  END
>  <Pose>
1

>  <Score>
-6.35

$$$$
