
 OpenBabel03172210413D

 51 54  0  0  1  0  0  0  0  0999 V2000
   10.9840   -0.6080    9.1900 Cl  0  0  0  0  0  0  0  0  0  0  0  0
   12.2230    0.5920    9.3540 C   0  0  0  0  0  0  0  0  0  0  0  0
   13.4950    0.2750    9.1040 N   0  0  0  0  0  4  0  0  0  0  0  0
   14.4900    1.1600    9.2160 C   0  0  0  0  0  0  0  0  0  0  0  0
   15.7990    1.0750    9.0170 N   0  0  0  0  0  0  0  0  0  0  0  0
   16.2800    2.2970    9.2800 C   0  0  0  0  0  0  0  0  0  0  0  0
   15.3110    3.1500    9.6380 N   0  0  0  0  0  0  0  0  0  0  0  0
   14.1570    2.4640    9.6100 C   0  0  0  0  0  0  0  0  0  0  0  0
   12.8550    2.8020    9.8690 C   0  0  0  0  0  0  0  0  0  0  0  0
   11.9030    1.8340    9.7310 N   0  0  0  0  0  0  0  0  0  0  0  0
   12.5210    4.1070   10.2870 N   0  0  0  0  0  0  0  0  0  0  0  0
   11.6750    4.8970    9.4230 C   0  0  0  0  0  0  0  0  0  0  0  0
   11.4830    6.3100    9.9030 C   0  0  0  0  0  0  0  0  0  0  0  0
   11.1980    6.3050   11.3640 C   0  0  2  0  0  0  0  0  0  0  0  0
   12.3770    5.7790   12.1080 C   0  0  0  0  0  0  0  0  0  0  0  0
   13.0330    4.5750   11.5380 C   0  0  0  0  0  0  0  0  0  0  0  0
    9.9250    5.6610   11.6920 C   0  0  0  0  0  0  0  0  0  0  0  0
    9.9330    4.4470   12.0120 O   0  0  0  0  0  0  0  0  0  0  0  0
    8.6880    6.3370   11.6640 N   0  0  0  0  0  0  0  0  0  0  0  0
    7.4330    5.7050   11.3270 C   0  0  0  0  0  0  0  0  0  0  0  0
    6.2390    6.5940   11.5200 C   0  0  0  0  0  0  0  0  0  0  0  0
    6.1260    7.0240   12.9020 N   0  0  0  0  0  0  0  0  0  0  0  0
    6.5870    8.3550   13.1120 C   0  0  0  0  0  0  0  0  0  0  0  0
    7.8890    8.3500   13.8870 C   0  0  0  0  0  0  0  0  0  0  0  0
    7.6370    7.8190   15.1270 O   0  0  0  0  0  0  0  0  0  0  0  0
    7.0390    6.5870   15.1470 C   0  0  0  0  0  0  0  0  0  0  0  0
    6.5830    6.0560   13.8330 C   0  0  0  0  0  0  0  0  0  0  0  0
   17.3200    2.5680    9.2130 H   0  0  0  0  0  0  0  0  0  0  0  0
   15.3900    4.1630    9.8920 H   0  0  0  0  0  0  0  0  0  0  0  0
   10.7260    4.4150    9.1520 H   0  0  0  0  0  0  0  0  0  0  0  0
   12.2160    5.0020    8.4280 H   0  0  0  0  0  0  0  0  0  0  0  0
   12.3760    6.9230    9.7010 H   0  0  0  0  0  0  0  0  0  0  0  0
   10.6260    6.7310    9.3390 H   0  0  0  0  0  0  0  0  0  0  0  0
   11.0820    7.3880   11.6660 H   0  0  0  0  0  0  0  0  0  0  0  0
   13.1500    6.6040   12.1160 H   0  0  0  0  0  0  0  0  0  0  0  0
   12.0920    5.6610   13.1740 H   0  0  0  0  0  0  0  0  0  0  0  0
   12.9640    3.7600   12.3140 H   0  0  0  0  0  0  0  0  0  0  0  0
   14.1470    4.7100   11.4010 H   0  0  0  0  0  0  0  0  0  0  0  0
    8.6730    7.3710   11.9040 H   0  0  0  0  0  0  0  0  0  0  0  0
    7.4650    5.2480   10.3410 H   0  0  0  0  0  0  0  0  0  0  0  0
    7.3140    4.8570   12.0600 H   0  0  0  0  0  0  0  0  0  0  0  0
    6.4230    7.5130   10.9230 H   0  0  0  0  0  0  0  0  0  0  0  0
    5.2970    6.1410   11.1840 H   0  0  0  0  0  0  0  0  0  0  0  0
    5.8560    8.9990   13.6540 H   0  0  0  0  0  0  0  0  0  0  0  0
    6.7490    8.8360   12.1250 H   0  0  0  0  0  0  0  0  0  0  0  0
    8.6570    7.7860   13.3210 H   0  0  0  0  0  0  0  0  0  0  0  0
    8.2030    9.4040   14.0210 H   0  0  0  0  0  0  0  0  0  0  0  0
    7.6680    5.8350   15.7030 H   0  0  0  0  0  0  0  0  0  0  0  0
    6.1180    6.6860   15.7950 H   0  0  0  0  0  0  0  0  0  0  0  0
    5.8070    5.2810   13.9500 H   0  0  0  0  0  0  0  0  0  0  0  0
    7.4670    5.5280   13.3680 H   0  0  0  0  0  0  0  0  0  0  0  0
  1  2  1  0  0  0  0
  2 10  1  0  0  0  0
  3  4  2  0  0  0  0
  3  2  2  0  0  0  0
  4  8  1  0  0  0  0
  5  4  1  0  0  0  0
  5  6  2  0  0  0  0
  6  7  1  0  0  0  0
  7 29  1  0  0  0  0
  8  7  1  0  0  0  0
  8  9  2  0  0  0  0
  9 11  1  0  0  0  0
 10  9  1  0  0  0  0
 11 16  1  0  0  0  0
 12 13  1  0  0  0  0
 12 11  1  0  0  0  0
 13 14  1  0  0  0  0
 14 34  1  1  0  0  0
 14 17  1  0  0  0  0
 14 15  1  0  0  0  0
 15 35  1  0  0  0  0
 15 36  1  0  0  0  0
 16 15  1  0  0  0  0
 16 37  1  0  0  0  0
 17 18  2  0  0  0  0
 19 17  1  0  0  0  0
 19 39  1  0  0  0  0
 20 21  1  0  0  0  0
 20 19  1  0  0  0  0
 20 41  1  0  0  0  0
 21 22  1  0  0  0  0
 22 23  1  0  0  0  0
 22 27  1  0  0  0  0
 23 44  1  0  0  0  0
 23 24  1  0  0  0  0
 24 47  1  0  0  0  0
 24 25  1  0  0  0  0
 25 26  1  0  0  0  0
 26 48  1  0  0  0  0
 26 49  1  0  0  0  0
 27 50  1  0  0  0  0
 27 26  1  0  0  0  0
 28  6  1  0  0  0  0
 30 12  1  0  0  0  0
 31 12  1  0  0  0  0
 32 13  1  0  0  0  0
 33 13  1  0  0  0  0
 38 16  1  0  0  0  0
 40 20  1  0  0  0  0
 42 21  1  0  0  0  0
 43 21  1  0  0  0  0
 45 23  1  0  0  0  0
 46 24  1  0  0  0  0
 51 27  1  0  0  0  0
M  END
>  <Pose>
1

>  <Score>
-6.67

$$$$
