
 OpenBabel03172210413D

 55 58  0  0  1  0  0  0  0  0999 V2000
   19.6470    5.7190   11.6080 Cl  0  0  0  0  0  0  0  0  0  0  0  0
   17.8740    5.8260   11.7620 C   0  0  0  0  0  0  0  0  0  0  0  0
   17.0750    4.7350   11.5170 C   0  0  0  0  0  0  0  0  0  0  0  0
   15.6890    4.8200   11.6470 C   0  0  0  0  0  0  0  0  0  0  0  0
   15.0490    6.0060   12.0300 C   0  0  0  0  0  0  0  0  0  0  0  0
   15.8800    7.0740   12.2670 C   0  0  0  0  0  0  0  0  0  0  0  0
   17.2540    7.0050   12.1420 C   0  0  0  0  0  0  0  0  0  0  0  0
   13.6040    5.9720   12.1700 C   0  0  2  0  0  0  0  0  0  0  0  0
   13.0710    4.5760   11.8580 C   0  0  0  0  0  0  0  0  0  0  0  0
   11.6370    4.6200   12.3440 C   0  0  0  0  0  0  0  0  0  0  0  0
   10.8670    5.4920   11.5290 N   0  0  0  0  0  0  0  0  0  0  0  0
   11.3530    6.8950   11.4420 C   0  0  0  0  0  0  0  0  0  0  0  0
   12.8390    7.0200   11.4520 C   0  0  0  0  0  0  0  0  0  0  0  0
    9.7300    5.1540   10.8080 C   0  0  0  0  0  0  0  0  0  0  0  0
    9.7490    5.4560    9.5350 O   0  0  0  0  0  0  0  0  0  0  0  0
    8.4730    4.5120   11.2210 C   0  0  0  0  0  0  0  0  0  0  0  0
    7.3090    5.2830   11.2100 N   0  0  0  0  0  0  0  0  0  0  0  0
    7.2040    6.6180   11.7080 C   0  0  0  0  0  0  0  0  0  0  0  0
    7.8020    7.4890   11.0230 O   0  0  0  0  0  0  0  0  0  0  0  0
    6.4600    6.9120   12.9020 C   0  0  0  0  0  0  0  0  0  0  0  0
    5.3400    7.5330   13.0760 C   0  0  0  0  0  0  0  0  0  0  0  0
    4.5810    8.0980   12.0040 N   0  0  0  0  0  0  0  0  0  0  0  0
    3.3500    8.7520   12.2200 N   0  0  0  0  0  0  0  0  0  0  0  0
    2.8110    8.8740   13.5160 C   0  0  0  0  0  0  0  0  0  0  0  0
    1.7020    9.4660   13.6660 O   0  0  0  0  0  0  0  0  0  0  0  0
    3.5480    8.3150   14.6330 C   0  0  0  0  0  0  0  0  0  0  0  0
    4.7490    7.6760   14.4300 C   0  0  0  0  0  0  0  0  0  0  0  0
    5.3680    7.1520   15.5290 C   0  0  0  0  0  0  0  0  0  0  0  0
    4.8310    7.2410   16.8190 C   0  0  0  0  0  0  0  0  0  0  0  0
    3.6340    7.8850   16.9670 C   0  0  0  0  0  0  0  0  0  0  0  0
    2.9650    8.4370   15.8780 C   0  0  0  0  0  0  0  0  0  0  0  0
   13.3090    6.1300   13.5610 O   0  0  0  0  0  0  0  0  0  0  0  0
   17.5600    3.8050   11.2210 H   0  0  0  0  0  0  0  0  0  0  0  0
   15.1240    3.9320   11.4380 H   0  0  0  0  0  0  0  0  0  0  0  0
   15.3950    7.9980   12.5670 H   0  0  0  0  0  0  0  0  0  0  0  0
   17.8770    7.8800   12.3430 H   0  0  0  0  0  0  0  0  0  0  0  0
   13.1690    4.3110   10.8090 H   0  0  0  0  0  0  0  0  0  0  0  0
   13.6420    3.8500   12.4420 H   0  0  0  0  0  0  0  0  0  0  0  0
   11.7220    5.2020   13.3510 H   0  0  0  0  0  0  0  0  0  0  0  0
   11.2830    3.6530   12.6210 H   0  0  0  0  0  0  0  0  0  0  0  0
   10.8840    7.4100   10.5640 H   0  0  0  0  0  0  0  0  0  0  0  0
   10.9370    7.3950   12.3410 H   0  0  0  0  0  0  0  0  0  0  0  0
   13.1680    7.1940   10.3980 H   0  0  0  0  0  0  0  0  0  0  0  0
   13.0600    8.0300   11.9350 H   0  0  0  0  0  0  0  0  0  0  0  0
    8.3900    3.5860   10.5520 H   0  0  0  0  0  0  0  0  0  0  0  0
    8.6090    4.0220   12.2550 H   0  0  0  0  0  0  0  0  0  0  0  0
    6.4240    4.9370   10.7500 H   0  0  0  0  0  0  0  0  0  0  0  0
    6.9550    6.5290   13.8280 H   0  0  0  0  0  0  0  0  0  0  0  0
    4.9240    8.0430   11.0150 H   0  0  0  0  0  0  0  0  0  0  0  0
    2.8160    9.1500   11.4130 H   0  0  0  0  0  0  0  0  0  0  0  0
    6.2930    6.6450   15.4530 H   0  0  0  0  0  0  0  0  0  0  0  0
    5.3710    6.8040   17.6540 H   0  0  0  0  0  0  0  0  0  0  0  0
    3.2250    7.9380   17.9800 H   0  0  0  0  0  0  0  0  0  0  0  0
    2.0210    8.9350   16.0590 H   0  0  0  0  0  0  0  0  0  0  0  0
   13.1970    5.2170   13.9260 H   0  0  0  0  0  0  0  0  0  0  0  0
  1  2  1  0  0  0  0
  2  7  1  0  0  0  0
  3  4  1  0  0  0  0
  3  2  2  0  0  0  0
  4  5  2  0  0  0  0
  5  8  1  0  0  0  0
  5  6  1  0  0  0  0
  6 35  1  0  0  0  0
  7  6  2  0  0  0  0
  7 36  1  0  0  0  0
  8 32  1  1  0  0  0
  9  8  1  0  0  0  0
  9 10  1  0  0  0  0
  9 38  1  0  0  0  0
 10 40  1  0  0  0  0
 10 39  1  0  0  0  0
 11 10  1  0  0  0  0
 12 13  1  0  0  0  0
 12 11  1  0  0  0  0
 12 42  1  0  0  0  0
 13 44  1  0  0  0  0
 13  8  1  0  0  0  0
 14 16  1  0  0  0  0
 14 11  1  0  0  0  0
 15 14  2  0  0  0  0
 16 46  1  0  0  0  0
 17 16  1  0  0  0  0
 17 18  1  0  0  0  0
 18 20  1  0  0  0  0
 19 18  2  0  0  0  0
 20 21  2  0  0  0  0
 20 48  1  0  0  0  0
 21 27  1  0  0  0  0
 22 23  1  0  0  0  0
 22 21  1  0  0  0  0
 23 24  1  0  0  0  0
 24 25  2  0  0  0  0
 24 26  1  0  0  0  0
 26 31  1  0  0  0  0
 27 26  2  0  0  0  0
 27 28  1  0  0  0  0
 28 29  2  0  0  0  0
 29 30  1  0  0  0  0
 29 52  1  0  0  0  0
 30 53  1  0  0  0  0
 31 54  1  0  0  0  0
 31 30  2  0  0  0  0
 32 55  1  0  0  0  0
 33  3  1  0  0  0  0
 34  4  1  0  0  0  0
 37  9  1  0  0  0  0
 41 12  1  0  0  0  0
 43 13  1  0  0  0  0
 45 16  1  0  0  0  0
 47 17  1  0  0  0  0
 49 22  1  0  0  0  0
 50 23  1  0  0  0  0
 51 28  1  0  0  0  0
M  END
>  <Pose>
1

>  <Score>
-6.75

$$$$
