
 OpenBabel03172210413D

 39 42  0  0  0  0  0  0  0  0999 V2000
    4.1700    8.9100   12.7510 Cl  0  0  0  0  0  0  0  0  0  0  0  0
    5.5960    7.9740   12.3360 C   0  0  0  0  0  0  0  0  0  0  0  0
    5.5060    6.8420   11.5470 C   0  0  0  0  0  0  0  0  0  0  0  0
    6.6400    6.1180   11.2320 C   0  0  0  0  0  0  0  0  0  0  0  0
    7.8890    6.4800   11.6790 C   0  0  0  0  0  0  0  0  0  0  0  0
    7.9850    7.6090   12.4680 C   0  0  0  0  0  0  0  0  0  0  0  0
    6.8540    8.3430   12.7900 C   0  0  0  0  0  0  0  0  0  0  0  0
    9.0770    5.7100   11.3410 C   0  0  0  0  0  0  0  0  0  0  0  0
    9.7020    5.7180   10.1540 N   0  0  0  0  0  0  0  0  0  0  0  0
   10.7280    4.9220   10.1810 O   0  0  0  0  0  0  0  0  0  0  0  0
   10.8100    4.3730   11.3680 C   0  0  0  0  0  0  0  0  0  0  0  0
    9.7770    4.8600   12.1070 N   0  0  0  0  0  0  0  0  0  0  0  0
   11.8520    3.4100   11.7730 C   0  0  0  0  0  0  0  0  0  0  0  0
   12.0210    2.3930   10.7340 N   0  0  0  0  0  0  0  0  0  0  0  0
   13.2460    2.2190   10.1960 C   0  0  0  0  0  0  0  0  0  0  0  0
   13.4590    1.2800    9.2200 C   0  0  0  0  0  0  0  0  0  0  0  0
   12.3350    0.4570    8.7590 C   0  0  0  0  0  0  0  0  0  0  0  0
   12.8280   -0.3670    7.8090 N   0  0  0  0  0  0  0  0  0  0  0  0
   14.1140   -0.1320    7.6510 N   0  0  0  0  0  0  0  0  0  0  0  0
   14.5470    0.8410    8.4660 C   0  0  0  0  0  0  0  0  0  0  0  0
   15.7090    1.3020    8.5650 O   0  0  0  0  0  0  0  0  0  0  0  0
   11.1020    0.6710    9.3380 C   0  0  0  0  0  0  0  0  0  0  0  0
   11.0140    1.6360   10.3020 C   0  0  0  0  0  0  0  0  0  0  0  0
    9.9570   -0.1300    8.9040 C   0  0  0  0  0  0  0  0  0  0  0  0
   10.0890   -1.0070    8.0390 O   0  0  0  0  0  0  0  0  0  0  0  0
    8.6990    0.0700    9.4470 O   0  0  0  0  0  0  0  0  0  0  0  0
    7.6700    0.7760    8.7950 C   0  0  0  0  0  0  0  0  0  0  0  0
    4.5250    6.5360   11.1820 H   0  0  0  0  0  0  0  0  0  0  0  0
    6.5650    5.2330   10.6140 H   0  0  0  0  0  0  0  0  0  0  0  0
    8.9680    7.9000   12.8240 H   0  0  0  0  0  0  0  0  0  0  0  0
    6.9240    9.2250   13.4050 H   0  0  0  0  0  0  0  0  0  0  0  0
   12.8100    3.9480   11.8550 H   0  0  0  0  0  0  0  0  0  0  0  0
   11.5810    2.8870   12.7220 H   0  0  0  0  0  0  0  0  0  0  0  0
   14.0770    2.8200   10.5320 H   0  0  0  0  0  0  0  0  0  0  0  0
   14.7160   -0.6390    6.9770 H   0  0  0  0  0  0  0  0  0  0  0  0
   10.0310    1.7920   10.7490 H   0  0  0  0  0  0  0  0  0  0  0  0
    7.9920    1.2390    7.8530 H   0  0  0  0  0  0  0  0  0  0  0  0
    6.8040    0.0970    8.5430 H   0  0  0  0  0  0  0  0  0  0  0  0
    7.2570    1.4970    9.5300 H   0  0  0  0  0  0  0  0  0  0  0  0
  2  1  1  0  0  0  0
  2  7  1  0  0  0  0
  3  2  2  0  0  0  0
  4  3  1  0  0  0  0
  4  5  2  0  0  0  0
  5  6  1  0  0  0  0
  6  7  2  0  0  0  0
  6 30  1  0  0  0  0
  7 31  1  0  0  0  0
  8  5  1  0  0  0  0
  8 12  1  0  0  0  0
  9 10  1  0  0  0  0
  9  8  2  0  0  0  0
 10 11  1  0  0  0  0
 11 13  1  0  0  0  0
 11 12  2  0  0  0  0
 13 32  1  0  0  0  0
 13 33  1  0  0  0  0
 14 13  1  0  0  0  0
 15 34  1  0  0  0  0
 15 14  1  0  0  0  0
 16 15  1  0  0  0  0
 17 16  2  0  0  0  0
 17 22  1  0  0  0  0
 18 17  1  0  0  0  0
 19 18  1  0  0  0  0
 19 20  1  0  0  0  0
 20 21  2  0  0  0  0
 20 16  1  0  0  0  0
 22 23  2  0  0  0  0
 23 14  1  0  0  0  0
 23 36  1  0  0  0  0
 24 22  1  0  0  0  0
 24 26  1  0  0  0  0
 25 24  2  0  0  0  0
 27 26  1  0  0  0  0
 27 39  1  0  0  0  0
 28  3  1  0  0  0  0
 29  4  1  0  0  0  0
 35 19  1  0  0  0  0
 37 27  1  0  0  0  0
 38 27  1  0  0  0  0
M  END
>  <Pose>
1

>  <Score>
-7.30

$$$$
