
 OpenBabel03172210413D

 42 45  0  0  0  0  0  0  0  0999 V2000
   11.0380    0.8510    9.3490 Cl  0  0  0  0  0  0  0  0  0  0  0  0
   12.7430    1.2890    9.2750 C   0  0  0  0  0  0  0  0  0  0  0  0
   13.3070    2.2010   10.1510 C   0  0  0  0  0  0  0  0  0  0  0  0
   14.6340    2.5710   10.1260 C   0  0  0  0  0  0  0  0  0  0  0  0
   15.4170    3.4050   10.8340 N   0  0  0  0  0  0  0  0  0  0  0  0
   16.6800    3.3830   10.3680 C   0  0  0  0  0  0  0  0  0  0  0  0
   16.6720    2.5130    9.3460 N   0  0  0  0  0  0  0  0  0  0  0  0
   15.4480    1.9840    9.1530 C   0  0  0  0  0  0  0  0  0  0  0  0
   14.9000    1.0770    8.2760 C   0  0  0  0  0  0  0  0  0  0  0  0
   13.5760    0.7210    8.3160 C   0  0  0  0  0  0  0  0  0  0  0  0
   17.8500    4.1710   10.8870 C   0  0  0  0  0  0  0  0  0  0  0  0
   17.9410    5.4390   10.1870 N   0  0  0  0  0  0  0  0  0  0  0  0
   19.1620    6.1110    9.9840 C   0  0  0  0  0  0  0  0  0  0  0  0
   19.4070    6.5280    8.8400 O   0  0  0  0  0  0  0  0  0  0  0  0
   20.1410    6.3340   11.0610 C   0  0  0  0  0  0  0  0  0  0  0  0
   21.0850    7.4550   10.8660 C   0  0  0  0  0  0  0  0  0  0  0  0
   19.9780    7.6980   11.8130 C   0  0  0  0  0  0  0  0  0  0  0  0
   20.4460    5.2740   11.9750 N   0  0  0  0  0  0  0  0  0  0  0  0
   21.6550    5.3890   12.6900 C   0  0  0  0  0  0  0  0  0  0  0  0
   22.7040    4.5560   11.9630 C   0  0  0  0  0  0  0  0  0  0  0  0
   22.4110    3.2180   12.0860 O   0  0  0  0  0  0  0  0  0  0  0  0
   21.0740    2.9230   12.1870 C   0  0  0  0  0  0  0  0  0  0  0  0
   20.1930    3.9650   11.5290 C   0  0  0  0  0  0  0  0  0  0  0  0
   12.6650    2.6590   10.9120 H   0  0  0  0  0  0  0  0  0  0  0  0
   17.5150    2.2760    8.7740 H   0  0  0  0  0  0  0  0  0  0  0  0
   15.5380    0.6340    7.5330 H   0  0  0  0  0  0  0  0  0  0  0  0
   13.1140    0.0060    7.6370 H   0  0  0  0  0  0  0  0  0  0  0  0
   18.7800    3.6240   10.7830 H   0  0  0  0  0  0  0  0  0  0  0  0
   17.6310    4.4030   11.9440 H   0  0  0  0  0  0  0  0  0  0  0  0
   17.0590    5.8690    9.8210 H   0  0  0  0  0  0  0  0  0  0  0  0
   21.0740    8.0660    9.9410 H   0  0  0  0  0  0  0  0  0  0  0  0
   22.1180    7.4230   11.2830 H   0  0  0  0  0  0  0  0  0  0  0  0
   19.0830    8.2920   11.5140 H   0  0  0  0  0  0  0  0  0  0  0  0
   20.2080    7.7440   12.8690 H   0  0  0  0  0  0  0  0  0  0  0  0
   22.0120    6.3850   12.9380 H   0  0  0  0  0  0  0  0  0  0  0  0
   21.5170    4.8670   13.6850 H   0  0  0  0  0  0  0  0  0  0  0  0
   22.7100    4.8440   10.8960 H   0  0  0  0  0  0  0  0  0  0  0  0
   23.6960    4.8000   12.4350 H   0  0  0  0  0  0  0  0  0  0  0  0
   20.9110    1.9690   11.6020 H   0  0  0  0  0  0  0  0  0  0  0  0
   20.7430    2.6840   13.2190 H   0  0  0  0  0  0  0  0  0  0  0  0
   20.2740    3.7950   10.4390 H   0  0  0  0  0  0  0  0  0  0  0  0
   19.1360    3.6720   11.7910 H   0  0  0  0  0  0  0  0  0  0  0  0
  2  1  1  0  0  0  0
  2  3  1  0  0  0  0
  3 24  1  0  0  0  0
  4  3  2  0  0  0  0
  4  5  1  0  0  0  0
  6  5  2  0  0  0  0
  6 11  1  0  0  0  0
  7  6  1  0  0  0  0
  8  7  1  0  0  0  0
  8  4  1  0  0  0  0
  9 10  1  0  0  0  0
  9  8  2  0  0  0  0
 10  2  2  0  0  0  0
 11 29  1  0  0  0  0
 12 11  1  0  0  0  0
 13 12  1  0  0  0  0
 13 15  1  0  0  0  0
 14 13  2  0  0  0  0
 15 17  1  0  0  0  0
 15 18  1  0  0  0  0
 16 15  1  0  0  0  0
 16 32  1  0  0  0  0
 16 17  1  0  0  0  0
 17 34  1  0  0  0  0
 18 19  1  0  0  0  0
 19 35  1  0  0  0  0
 19 36  1  0  0  0  0
 20 21  1  0  0  0  0
 20 38  1  0  0  0  0
 20 19  1  0  0  0  0
 21 22  1  0  0  0  0
 22 40  1  0  0  0  0
 23 42  1  0  0  0  0
 23 18  1  0  0  0  0
 23 22  1  0  0  0  0
 25  7  1  0  0  0  0
 26  9  1  0  0  0  0
 27 10  1  0  0  0  0
 28 11  1  0  0  0  0
 30 12  1  0  0  0  0
 31 16  1  0  0  0  0
 33 17  1  0  0  0  0
 37 20  1  0  0  0  0
 39 22  1  0  0  0  0
 41 23  1  0  0  0  0
M  END
>  <Pose>
1

>  <Score>
-5.68

$$$$
