
 OpenBabel03172210413D

 54 57  0  0  1  0  0  0  0  0999 V2000
   14.1080    0.4500    8.1620 Cl  0  0  0  0  0  0  0  0  0  0  0  0
   12.4050    0.1850    8.4460 C   0  0  0  0  0  0  0  0  0  0  0  0
   11.7260    1.0800    9.2640 C   0  0  0  0  0  0  0  0  0  0  0  0
   10.3810    0.8680    9.4170 C   0  0  0  0  0  0  0  0  0  0  0  0
    9.7430   -0.1980    8.7930 C   0  0  0  0  0  0  0  0  0  0  0  0
   10.4290   -1.1080    7.9630 C   0  0  0  0  0  0  0  0  0  0  0  0
   11.7780   -0.8470    7.8260 C   0  0  0  0  0  0  0  0  0  0  0  0
   12.5250    2.0680   10.0350 C   0  0  0  0  0  0  0  0  0  0  0  0
   11.7240    3.0300   10.7020 N   0  0  0  0  0  0  0  0  0  0  0  0
   11.6860    4.4080   10.4750 C   0  0  0  0  0  0  0  0  0  0  0  0
   12.6730    5.0960   10.4650 O   0  0  0  0  0  0  0  0  0  0  0  0
   10.3160    5.0430   10.2140 C   0  0  0  0  0  0  0  0  0  0  0  0
    9.8730    5.6050   11.4670 N   0  0  0  0  0  0  0  0  0  0  0  0
   10.3970    5.2260   12.6960 C   0  0  0  0  0  0  0  0  0  0  0  0
    9.8870    6.2810   13.7670 C   0  0  0  0  0  0  0  0  0  0  0  0
    8.6310    6.6680   13.1810 N   0  0  0  0  0  0  0  0  0  0  0  0
    8.8390    7.7000   12.1230 C   0  0  0  0  0  0  0  0  0  0  0  0
    9.9500    7.1000   11.3070 C   0  0  0  0  0  0  0  0  0  0  0  0
    7.4030    6.2340   13.5820 C   0  0  0  0  0  0  0  0  0  0  0  0
    6.5580    5.9260   12.6740 O   0  0  0  0  0  0  0  0  0  0  0  0
    6.8900    6.0890   14.9810 C   0  0  1  0  0  0  0  0  0  0  0  0
    7.2540    7.3540   15.6250 O   0  0  0  0  0  0  0  0  0  0  0  0
    7.1330    8.4310   14.7000 C   0  0  0  0  0  0  0  0  0  0  0  0
    6.1250    8.3560   13.7750 C   0  0  0  0  0  0  0  0  0  0  0  0
    5.9320    9.3550   12.8270 C   0  0  0  0  0  0  0  0  0  0  0  0
    6.8150   10.4280   12.8730 C   0  0  0  0  0  0  0  0  0  0  0  0
    7.8320   10.5390   13.7950 C   0  0  0  0  0  0  0  0  0  0  0  0
    7.9890    9.5270   14.7210 C   0  0  0  0  0  0  0  0  0  0  0  0
    5.2710    7.2470   13.7860 O   0  0  0  0  0  0  0  0  0  0  0  0
    5.3530    6.2500   14.8340 C   0  0  0  0  0  0  0  0  0  0  0  0
    9.7580    1.4960   10.0330 H   0  0  0  0  0  0  0  0  0  0  0  0
    8.6850   -0.4170    8.8980 H   0  0  0  0  0  0  0  0  0  0  0  0
    9.9080   -1.9250    7.4900 H   0  0  0  0  0  0  0  0  0  0  0  0
   12.3130   -1.5060    7.1720 H   0  0  0  0  0  0  0  0  0  0  0  0
   13.0270    1.4150   10.8390 H   0  0  0  0  0  0  0  0  0  0  0  0
   13.2640    2.5260    9.3730 H   0  0  0  0  0  0  0  0  0  0  0  0
   11.1240    2.6970   11.5380 H   0  0  0  0  0  0  0  0  0  0  0  0
   10.3910    5.8400    9.4630 H   0  0  0  0  0  0  0  0  0  0  0  0
    9.6380    4.2430    9.8940 H   0  0  0  0  0  0  0  0  0  0  0  0
   11.4550    5.1460   12.8510 H   0  0  0  0  0  0  0  0  0  0  0  0
    9.8320    4.3080   13.0570 H   0  0  0  0  0  0  0  0  0  0  0  0
   10.6070    7.1100   13.7580 H   0  0  0  0  0  0  0  0  0  0  0  0
    9.7590    5.8070   14.7330 H   0  0  0  0  0  0  0  0  0  0  0  0
    9.2730    8.5620   12.6610 H   0  0  0  0  0  0  0  0  0  0  0  0
    7.9400    7.9640   11.6070 H   0  0  0  0  0  0  0  0  0  0  0  0
   10.9370    7.3530   11.7330 H   0  0  0  0  0  0  0  0  0  0  0  0
    9.9450    7.2990   10.2440 H   0  0  0  0  0  0  0  0  0  0  0  0
    7.1990    5.2250   15.5120 H   0  0  0  0  0  0  0  0  0  0  0  0
    5.1260    9.2630   12.0870 H   0  0  0  0  0  0  0  0  0  0  0  0
    6.6750   11.1970   12.1240 H   0  0  0  0  0  0  0  0  0  0  0  0
    8.5180   11.4070   13.7840 H   0  0  0  0  0  0  0  0  0  0  0  0
    8.7700    9.5580   15.4690 H   0  0  0  0  0  0  0  0  0  0  0  0
    5.0310    5.2950   14.3390 H   0  0  0  0  0  0  0  0  0  0  0  0
    4.8600    6.5090   15.7440 H   0  0  0  0  0  0  0  0  0  0  0  0
  1  2  1  0  0  0  0
  2  3  1  0  0  0  0
  3  4  2  0  0  0  0
  3  8  1  0  0  0  0
  4 31  1  0  0  0  0
  5 32  1  0  0  0  0
  5  4  1  0  0  0  0
  6  5  2  0  0  0  0
  7  6  1  0  0  0  0
  7  2  2  0  0  0  0
  8  9  1  0  0  0  0
  8 35  1  0  0  0  0
  9 37  1  0  0  0  0
 10  9  1  0  0  0  0
 11 10  2  0  0  0  0
 12 10  1  0  0  0  0
 12 13  1  0  0  0  0
 13 14  1  0  0  0  0
 14 40  1  0  0  0  0
 14 41  1  0  0  0  0
 14 15  1  0  0  0  0
 15 43  1  0  0  0  0
 16 19  1  0  0  0  0
 16 15  1  0  0  0  0
 17 44  1  0  0  0  0
 17 16  1  0  0  0  0
 18 13  1  0  0  0  0
 18 46  1  0  0  0  0
 18 17  1  0  0  0  0
 19 21  1  0  0  0  0
 20 19  2  0  0  0  0
 21 48  1  1  0  0  0
 21 22  1  0  0  0  0
 23 28  1  0  0  0  0
 23 22  1  0  0  0  0
 24 29  1  0  0  0  0
 24 23  2  0  0  0  0
 25 26  2  0  0  0  0
 25 24  1  0  0  0  0
 26 27  1  0  0  0  0
 27 28  2  0  0  0  0
 28 52  1  0  0  0  0
 29 30  1  0  0  0  0
 30 21  1  0  0  0  0
 30 54  1  0  0  0  0
 33  6  1  0  0  0  0
 34  7  1  0  0  0  0
 36  8  1  0  0  0  0
 38 12  1  0  0  0  0
 39 12  1  0  0  0  0
 42 15  1  0  0  0  0
 45 17  1  0  0  0  0
 47 18  1  0  0  0  0
 49 25  1  0  0  0  0
 50 26  1  0  0  0  0
 51 27  1  0  0  0  0
 53 30  1  0  0  0  0
M  END
>  <Pose>
1

>  <Score>
-6.00

$$$$
