
 OpenBabel03172210413D

 50 53  0  0  1  0  0  0  0  0999 V2000
   15.7430    8.6650   12.9760 Cl  0  0  0  0  0  0  0  0  0  0  0  0
   14.3580    7.6190   12.7910 C   0  0  0  0  0  0  0  0  0  0  0  0
   13.0670    8.1010   12.7380 C   0  0  0  0  0  0  0  0  0  0  0  0
   12.0170    7.2160   12.5920 C   0  0  0  0  0  0  0  0  0  0  0  0
   12.1970    5.8600   12.4960 C   0  0  0  0  0  0  0  0  0  0  0  0
   13.5090    5.3890   12.5520 C   0  0  0  0  0  0  0  0  0  0  0  0
   14.5610    6.2660   12.6970 C   0  0  0  0  0  0  0  0  0  0  0  0
   11.0600    4.9160   12.3510 C   0  0  1  0  0  0  0  0  0  0  0  0
    9.9770    5.5300   11.5730 N   0  0  0  0  0  0  0  0  0  0  0  0
   10.5040    5.7110   10.2710 C   0  0  0  0  0  0  0  0  0  0  0  0
   10.1740    6.5960    9.4470 O   0  0  0  0  0  0  0  0  0  0  0  0
   11.5180    4.6590   10.0690 C   0  0  0  0  0  0  0  0  0  0  0  0
   12.2250    4.4580    9.0560 O   0  0  0  0  0  0  0  0  0  0  0  0
   11.5170    3.9040   11.3150 C   0  0  0  0  0  0  0  0  0  0  0  0
   11.8240    2.6640   11.4770 C   0  0  0  0  0  0  0  0  0  0  0  0
   11.7630    2.0660   12.7350 O   0  0  0  0  0  0  0  0  0  0  0  0
   12.2480    1.8450   10.3460 C   0  0  0  0  0  0  0  0  0  0  0  0
   13.3970    1.6530    9.8030 O   0  0  0  0  0  0  0  0  0  0  0  0
   13.3090    0.8280    8.8000 C   0  0  0  0  0  0  0  0  0  0  0  0
   12.0040    0.4330    8.6530 C   0  0  0  0  0  0  0  0  0  0  0  0
   11.3120    1.0780    9.6390 C   0  0  0  0  0  0  0  0  0  0  0  0
    8.6520    5.8770   12.0680 C   0  0  0  0  0  0  0  0  0  0  0  0
    8.3890    7.3490   12.1430 C   0  0  0  0  0  0  0  0  0  0  0  0
    7.1600    7.7970   11.5850 N   0  0  0  0  0  4  0  0  0  0  0  0
    5.9980    7.6790   12.4060 C   0  0  0  0  0  0  0  0  0  0  0  0
    6.0480    8.5270   13.6560 C   0  0  0  0  0  0  0  0  0  0  0  0
    6.2420    9.8670   13.3380 O   0  0  0  0  0  0  0  0  0  0  0  0
    7.3230   10.0510   12.4820 C   0  0  0  0  0  0  0  0  0  0  0  0
    7.2320    9.2280   11.2240 C   0  0  0  0  0  0  0  0  0  0  0  0
   12.9440    9.1700   12.8140 H   0  0  0  0  0  0  0  0  0  0  0  0
   11.0200    7.6330   12.5500 H   0  0  0  0  0  0  0  0  0  0  0  0
   13.6510    4.3020   12.4770 H   0  0  0  0  0  0  0  0  0  0  0  0
   15.5810    5.8930   12.7390 H   0  0  0  0  0  0  0  0  0  0  0  0
   10.7280    4.4520   13.2750 H   0  0  0  0  0  0  0  0  0  0  0  0
   14.1060    0.4690    8.1390 H   0  0  0  0  0  0  0  0  0  0  0  0
   11.5690   -0.2540    7.9140 H   0  0  0  0  0  0  0  0  0  0  0  0
   10.2540    1.0040    9.8290 H   0  0  0  0  0  0  0  0  0  0  0  0
    8.4710    5.3980   13.0610 H   0  0  0  0  0  0  0  0  0  0  0  0
    7.9360    5.4130   11.3340 H   0  0  0  0  0  0  0  0  0  0  0  0
    8.5710    7.7210   13.1760 H   0  0  0  0  0  0  0  0  0  0  0  0
    9.2070    7.8350   11.5360 H   0  0  0  0  0  0  0  0  0  0  0  0
    6.9840    7.2600   10.7080 H   0  0  0  0  0  0  0  0  0  0  0  0
    5.1530    8.1260   11.7970 H   0  0  0  0  0  0  0  0  0  0  0  0
    5.6750    6.6710   12.6430 H   0  0  0  0  0  0  0  0  0  0  0  0
    5.0020    8.4740   14.0820 H   0  0  0  0  0  0  0  0  0  0  0  0
    6.7170    8.1440   14.4320 H   0  0  0  0  0  0  0  0  0  0  0  0
    8.2920    9.8290   12.9830 H   0  0  0  0  0  0  0  0  0  0  0  0
    7.3210   11.1220   12.1910 H   0  0  0  0  0  0  0  0  0  0  0  0
    6.2860    9.4820   10.7160 H   0  0  0  0  0  0  0  0  0  0  0  0
    8.1350    9.4520   10.6290 H   0  0  0  0  0  0  0  0  0  0  0  0
  2  1  1  0  0  0  0
  3  2  1  0  0  0  0
  3 30  1  0  0  0  0
  4  3  2  0  0  0  0
  5  6  2  0  0  0  0
  5  4  1  0  0  0  0
  6  7  1  0  0  0  0
  7 33  1  0  0  0  0
  7  2  2  0  0  0  0
  8  5  1  0  0  0  0
  8 34  1  1  0  0  0
  9 22  1  0  0  0  0
  9  8  1  0  0  0  0
 10  9  1  0  0  0  0
 11 10  2  0  0  0  0
 12 10  1  0  0  0  0
 12 14  1  0  0  0  0
 13 12  2  0  0  0  0
 14 15  2  0  0  0  0
 14  8  1  0  0  0  0
 15 16  1  0  0  0  0
 17 15  1  0  0  0  0
 18 17  1  0  0  0  0
 19 18  1  0  0  0  0
 20 19  2  0  0  0  0
 20 21  1  0  0  0  0
 21 37  1  0  0  0  0
 21 17  2  0  0  0  0
 22 23  1  0  0  0  0
 22 38  1  0  0  0  0
 23 40  1  0  0  0  0
 24 23  1  0  0  0  0
 24 25  1  0  0  0  0
 25 44  1  0  0  0  0
 25 26  1  0  0  0  0
 26 45  1  0  0  0  0
 26 46  1  0  0  0  0
 27 26  1  0  0  0  0
 28 47  1  0  0  0  0
 28 27  1  0  0  0  0
 29 24  1  0  0  0  0
 29 28  1  0  0  0  0
 31  4  1  0  0  0  0
 32  6  1  0  0  0  0
 35 19  1  0  0  0  0
 36 20  1  0  0  0  0
 39 22  1  0  0  0  0
 41 23  1  0  0  0  0
 42 24  1  0  0  0  0
 43 25  1  0  0  0  0
 48 28  1  0  0  0  0
 49 29  1  0  0  0  0
 50 29  1  0  0  0  0
M  END
>  <Pose>
1

>  <Score>
-5.88

$$$$
