
 OpenBabel03172210413D

 34 37  0  0  1  0  0  0  0  0999 V2000
   12.8470   -0.7100    7.9910 Cl  0  0  0  0  0  0  0  0  0  0  0  0
   12.3120    0.7470    8.8200 C   0  0  0  0  0  0  0  0  0  0  0  0
   11.0230    0.8780    9.2750 C   0  0  0  0  0  0  0  0  0  0  0  0
   10.6130    2.0210    9.9220 C   0  0  0  0  0  0  0  0  0  0  0  0
   11.4630    3.0870   10.1470 C   0  0  0  0  0  0  0  0  0  0  0  0
   12.7520    2.9370    9.6840 C   0  0  0  0  0  0  0  0  0  0  0  0
   13.1830    1.8030    9.0350 C   0  0  0  0  0  0  0  0  0  0  0  0
   10.9900    4.2480   10.8200 N   0  0  0  0  0  0  0  0  0  0  0  0
   11.0610    4.5430   12.2220 C   0  0  0  0  0  0  0  0  0  0  0  0
   11.1390    3.6180   13.1030 O   0  0  0  0  0  0  0  0  0  0  0  0
   11.0270    6.0010   12.4190 C   0  0  1  0  0  0  0  0  0  0  0  0
   10.4330    6.5040   11.1260 C   0  0  2  0  0  0  0  0  0  0  0  0
    9.1060    7.1690   11.4200 C   0  0  2  0  0  0  0  0  0  0  0  0
    9.4530    8.4310   12.2230 C   0  0  0  0  0  0  0  0  0  0  0  0
   10.0520    7.9310   13.5060 C   0  0  0  0  0  0  0  0  0  0  0  0
   10.3490    8.6980   14.3810 O   0  0  0  0  0  0  0  0  0  0  0  0
   10.2510    6.4430   13.6120 C   0  0  1  0  0  0  0  0  0  0  0  0
    8.8420    5.8410   13.5860 C   0  0  0  0  0  0  0  0  0  0  0  0
    8.2310    6.3150   12.2960 C   0  0  0  0  0  0  0  0  0  0  0  0
    7.1040    6.0090   12.0170 O   0  0  0  0  0  0  0  0  0  0  0  0
   10.3450    5.3610   10.2180 C   0  0  0  0  0  0  0  0  0  0  0  0
    9.7940    5.3640    9.0940 O   0  0  0  0  0  0  0  0  0  0  0  0
   10.3430    0.0630    9.1110 H   0  0  0  0  0  0  0  0  0  0  0  0
    9.5840    2.1330   10.2890 H   0  0  0  0  0  0  0  0  0  0  0  0
   13.4610    3.7360    9.8310 H   0  0  0  0  0  0  0  0  0  0  0  0
   14.2100    1.6860    8.6670 H   0  0  0  0  0  0  0  0  0  0  0  0
   12.0800    6.3740   12.5530 H   0  0  0  0  0  0  0  0  0  0  0  0
   11.1060    7.2940   10.7250 H   0  0  0  0  0  0  0  0  0  0  0  0
    8.5590    7.4140   10.4930 H   0  0  0  0  0  0  0  0  0  0  0  0
   10.3030    8.9090   11.6660 H   0  0  0  0  0  0  0  0  0  0  0  0
    8.5930    9.0780   12.3750 H   0  0  0  0  0  0  0  0  0  0  0  0
   10.7910    6.2170   14.5300 H   0  0  0  0  0  0  0  0  0  0  0  0
    8.3150    6.2830   14.4730 H   0  0  0  0  0  0  0  0  0  0  0  0
    8.8620    4.7490   13.6490 H   0  0  0  0  0  0  0  0  0  0  0  0
  1  2  1  0  0  0  0
  2  7  2  0  0  0  0
  2  3  1  0  0  0  0
  3  4  2  0  0  0  0
  4  5  1  0  0  0  0
  4 24  1  0  0  0  0
  5  8  1  0  0  0  0
  6 25  1  0  0  0  0
  6  5  2  0  0  0  0
  7  6  1  0  0  0  0
  8  9  1  0  0  0  0
  9 11  1  0  0  0  0
  9 10  2  0  0  0  0
 11 27  1  1  0  0  0
 11 17  1  0  0  0  0
 12 28  1  6  0  0  0
 12 13  1  0  0  0  0
 12 11  1  0  0  0  0
 13 29  1  6  0  0  0
 13 14  1  0  0  0  0
 13 19  1  0  0  0  0
 14 31  1  0  0  0  0
 14 15  1  0  0  0  0
 15 17  1  0  0  0  0
 15 16  2  0  0  0  0
 17 32  1  1  0  0  0
 18 17  1  0  0  0  0
 18 34  1  0  0  0  0
 18 33  1  0  0  0  0
 19 18  1  0  0  0  0
 20 19  2  0  0  0  0
 21  8  1  0  0  0  0
 21 12  1  0  0  0  0
 22 21  2  0  0  0  0
 23  3  1  0  0  0  0
 26  7  1  0  0  0  0
 30 14  1  0  0  0  0
M  END
>  <Pose>
1

>  <Score>
-5.09

$$$$
