
 OpenBabel03172210413D

 40 43  0  0  0  0  0  0  0  0999 V2000
    9.5590   -0.9400    8.1780 Cl  0  0  0  0  0  0  0  0  0  0  0  0
   11.1050   -0.1720    8.4840 C   0  0  0  0  0  0  0  0  0  0  0  0
   11.2080    0.9810    9.2280 C   0  0  0  0  0  0  0  0  0  0  0  0
   12.4460    1.5840    9.4630 C   0  0  0  0  0  0  0  0  0  0  0  0
   13.5780    0.9870    8.9270 C   0  0  0  0  0  0  0  0  0  0  0  0
   13.4920   -0.1650    8.1830 C   0  0  0  0  0  0  0  0  0  0  0  0
   12.2700   -0.7450    7.9580 C   0  0  0  0  0  0  0  0  0  0  0  0
   14.9060    1.5860    9.1500 C   0  0  0  0  0  0  0  0  0  0  0  0
   16.0930    1.2460    8.7760 N   0  0  0  0  0  0  0  0  0  0  0  0
   17.1000    2.1570    9.2460 C   0  0  0  0  0  0  0  0  0  0  0  0
   16.3350    3.1860   10.0190 C   0  0  0  0  0  0  0  0  0  0  0  0
   14.9610    2.7700    9.9220 N   0  0  0  0  0  0  0  0  0  0  0  0
   13.7820    3.3580   10.4580 C   0  0  0  0  0  0  0  0  0  0  0  0
   13.8100    4.4140   11.1500 O   0  0  0  0  0  0  0  0  0  0  0  0
   12.4850    2.7740   10.2410 N   0  0  0  0  0  0  0  0  0  0  0  0
   11.2910    3.3930   10.8010 C   0  0  0  0  0  0  0  0  0  0  0  0
   11.3930    3.5160   12.2730 C   0  0  0  0  0  0  0  0  0  0  0  0
   11.6280    2.4790   12.9390 O   0  0  0  0  0  0  0  0  0  0  0  0
   11.2390    4.7450   12.9590 N   0  0  0  0  0  0  0  0  0  0  0  0
   10.7010    5.9190   12.3160 C   0  0  0  0  0  0  0  0  0  0  0  0
    9.2070    5.7960   12.1810 C   0  0  0  0  0  0  0  0  0  0  0  0
    8.3870    7.0200   11.9780 C   0  0  0  0  0  0  0  0  0  0  0  0
    8.3740    6.3500   13.2990 C   0  0  0  0  0  0  0  0  0  0  0  0
   10.3180    1.4470    9.6490 H   0  0  0  0  0  0  0  0  0  0  0  0
   14.3700   -0.6150    7.7740 H   0  0  0  0  0  0  0  0  0  0  0  0
   12.1370   -1.6620    7.3740 H   0  0  0  0  0  0  0  0  0  0  0  0
   17.6930    2.6050    8.4200 H   0  0  0  0  0  0  0  0  0  0  0  0
   17.7910    1.6390    9.9670 H   0  0  0  0  0  0  0  0  0  0  0  0
   16.6760    3.2560   11.0840 H   0  0  0  0  0  0  0  0  0  0  0  0
   16.4860    4.1640    9.5050 H   0  0  0  0  0  0  0  0  0  0  0  0
   10.3550    2.9580   10.4420 H   0  0  0  0  0  0  0  0  0  0  0  0
   11.3010    4.4550   10.4080 H   0  0  0  0  0  0  0  0  0  0  0  0
   11.5270    4.7810   13.9580 H   0  0  0  0  0  0  0  0  0  0  0  0
   11.1910    6.0520   11.3110 H   0  0  0  0  0  0  0  0  0  0  0  0
   10.9590    6.8020   12.9230 H   0  0  0  0  0  0  0  0  0  0  0  0
    8.8650    4.8060   11.8130 H   0  0  0  0  0  0  0  0  0  0  0  0
    8.9200    7.9890   11.8470 H   0  0  0  0  0  0  0  0  0  0  0  0
    7.5130    6.9260   11.2930 H   0  0  0  0  0  0  0  0  0  0  0  0
    8.9360    6.8630   14.1130 H   0  0  0  0  0  0  0  0  0  0  0  0
    7.4510    5.8050   13.5980 H   0  0  0  0  0  0  0  0  0  0  0  0
  1  2  1  0  0  0  0
  2  3  1  0  0  0  0
  3  4  2  0  0  0  0
  3 24  1  0  0  0  0
  4 15  1  0  0  0  0
  5  8  1  0  0  0  0
  5  4  1  0  0  0  0
  6  5  2  0  0  0  0
  7  6  1  0  0  0  0
  7  2  2  0  0  0  0
  8 12  1  0  0  0  0
  9  8  2  0  0  0  0
  9 10  1  0  0  0  0
 10 28  1  0  0  0  0
 10 11  1  0  0  0  0
 11 29  1  0  0  0  0
 12 11  1  0  0  0  0
 12 13  1  0  0  0  0
 13 14  2  0  0  0  0
 15 13  1  0  0  0  0
 15 16  1  0  0  0  0
 16 17  1  0  0  0  0
 17 18  2  0  0  0  0
 17 19  1  0  0  0  0
 19 33  1  0  0  0  0
 20 35  1  0  0  0  0
 20 19  1  0  0  0  0
 21 20  1  0  0  0  0
 21 23  1  0  0  0  0
 22 21  1  0  0  0  0
 22 23  1  0  0  0  0
 23 40  1  0  0  0  0
 23 39  1  0  0  0  0
 25  6  1  0  0  0  0
 26  7  1  0  0  0  0
 27 10  1  0  0  0  0
 30 11  1  0  0  0  0
 31 16  1  0  0  0  0
 32 16  1  0  0  0  0
 34 20  1  0  0  0  0
 36 21  1  0  0  0  0
 37 22  1  0  0  0  0
 38 22  1  0  0  0  0
M  END
>  <Pose>
1

>  <Score>
-6.38

$$$$
