
 OpenBabel03172210413D

 63 66  0  0  1  0  0  0  0  0999 V2000
   20.6250    6.7300   10.6010 Cl  0  0  0  0  0  0  0  0  0  0  0  0
   19.1490    5.8340   10.8740 C   0  0  0  0  0  0  0  0  0  0  0  0
   17.9020    6.4090   10.8090 C   0  0  0  0  0  0  0  0  0  0  0  0
   16.7680    5.6560   11.0330 C   0  0  0  0  0  0  0  0  0  0  0  0
   16.8180    4.2880   11.3350 C   0  0  0  0  0  0  0  0  0  0  0  0
   18.0770    3.7410   11.3910 C   0  0  0  0  0  0  0  0  0  0  0  0
   19.2320    4.5020   11.1640 C   0  0  0  0  0  0  0  0  0  0  0  0
   15.5860    3.5520   11.5140 C   0  0  0  0  0  0  0  0  0  0  0  0
   15.0230    2.8440   10.5500 C   0  0  0  0  0  0  0  0  0  0  0  0
   13.7390    2.0630   10.6760 C   0  0  2  0  0  0  0  0  0  0  0  0
   13.6900    1.2170    9.5190 N   0  0  0  0  0  0  0  0  0  0  0  0
   14.6780    1.6000    8.5740 C   0  0  0  0  0  0  0  0  0  0  0  0
   14.8170    1.1660    7.4210 O   0  0  0  0  0  0  0  0  0  0  0  0
   15.5210    2.6280    9.2290 C   0  0  0  0  0  0  0  0  0  0  0  0
   16.5010    3.1890    8.6850 O   0  0  0  0  0  0  0  0  0  0  0  0
   12.7680    0.1010    9.3320 C   0  0  0  0  0  0  0  0  0  0  0  0
   11.3630    0.5960    9.3780 C   0  0  0  0  0  0  0  0  0  0  0  0
   10.6020    0.1690    8.1920 N   0  0  0  0  0  4  0  0  0  0  0  0
    9.3050   -0.2490    8.6280 C   0  0  0  0  0  0  0  0  0  0  0  0
    8.5840   -1.0700    7.5610 C   0  0  0  0  0  0  0  0  0  0  0  0
    9.4200   -2.1650    7.2790 O   0  0  0  0  0  0  0  0  0  0  0  0
   10.5190   -1.6760    6.6040 C   0  0  0  0  0  0  0  0  0  0  0  0
   11.3760   -0.8820    7.5680 C   0  0  0  0  0  0  0  0  0  0  0  0
   12.6400    3.0660   10.7310 C   0  0  0  0  0  0  0  0  0  0  0  0
   11.9460    3.2550   11.8910 C   0  0  0  0  0  0  0  0  0  0  0  0
   10.9480    4.1870   11.9370 C   0  0  0  0  0  0  0  0  0  0  0  0
   10.6160    4.9490   10.8380 C   0  0  0  0  0  0  0  0  0  0  0  0
   11.3170    4.7580    9.6620 C   0  0  0  0  0  0  0  0  0  0  0  0
   12.3300    3.8110    9.6220 C   0  0  0  0  0  0  0  0  0  0  0  0
    9.5980    5.8950   10.8930 O   0  0  0  0  0  0  0  0  0  0  0  0
    9.9650    7.2810   10.9530 C   0  0  0  0  0  0  0  0  0  0  0  0
    9.2650    7.9210   12.1500 C   0  0  0  0  0  0  0  0  0  0  0  0
    7.8590    8.2860   11.6980 C   0  0  0  0  0  0  0  0  0  0  0  0
   14.9090    3.5560   12.7570 O   0  0  0  0  0  0  0  0  0  0  0  0
   17.8490    7.4620   10.5780 H   0  0  0  0  0  0  0  0  0  0  0  0
   15.7930    6.1250   10.9780 H   0  0  0  0  0  0  0  0  0  0  0  0
   18.1820    2.6820   11.5910 H   0  0  0  0  0  0  0  0  0  0  0  0
   20.2080    4.0210   11.2220 H   0  0  0  0  0  0  0  0  0  0  0  0
   13.7590    1.4810   11.6210 H   0  0  0  0  0  0  0  0  0  0  0  0
   12.9330   -0.6210   10.1630 H   0  0  0  0  0  0  0  0  0  0  0  0
   12.9990   -0.3900    8.3730 H   0  0  0  0  0  0  0  0  0  0  0  0
   11.3130    1.6970    9.3940 H   0  0  0  0  0  0  0  0  0  0  0  0
   10.8340    0.1590   10.2630 H   0  0  0  0  0  0  0  0  0  0  0  0
   10.4990    0.9690    7.5150 H   0  0  0  0  0  0  0  0  0  0  0  0
    8.7000    0.6840    8.7950 H   0  0  0  0  0  0  0  0  0  0  0  0
    9.3480   -0.8760    9.5420 H   0  0  0  0  0  0  0  0  0  0  0  0
    8.4720   -0.4050    6.6870 H   0  0  0  0  0  0  0  0  0  0  0  0
    7.6400   -1.4240    7.9780 H   0  0  0  0  0  0  0  0  0  0  0  0
   11.1430   -2.5080    6.2360 H   0  0  0  0  0  0  0  0  0  0  0  0
   10.2530   -1.0070    5.7740 H   0  0  0  0  0  0  0  0  0  0  0  0
   12.1870   -0.3900    6.9910 H   0  0  0  0  0  0  0  0  0  0  0  0
   11.7960   -1.5200    8.3690 H   0  0  0  0  0  0  0  0  0  0  0  0
   12.1680    2.6830   12.7820 H   0  0  0  0  0  0  0  0  0  0  0  0
   10.3880    4.3480   12.8520 H   0  0  0  0  0  0  0  0  0  0  0  0
   11.0430    5.3650    8.8120 H   0  0  0  0  0  0  0  0  0  0  0  0
   12.8470    3.7060    8.6650 H   0  0  0  0  0  0  0  0  0  0  0  0
   11.0520    7.3750   11.1030 H   0  0  0  0  0  0  0  0  0  0  0  0
    9.6830    7.7870   10.0130 H   0  0  0  0  0  0  0  0  0  0  0  0
    9.1800    7.1480   12.9410 H   0  0  0  0  0  0  0  0  0  0  0  0
    9.8260    8.8070   12.5010 H   0  0  0  0  0  0  0  0  0  0  0  0
    7.1510    8.1740   12.5270 H   0  0  0  0  0  0  0  0  0  0  0  0
    7.5060    7.6170   10.8760 H   0  0  0  0  0  0  0  0  0  0  0  0
    7.8810    9.3400   11.3550 H   0  0  0  0  0  0  0  0  0  0  0  0
  1  2  1  0  0  0  0
  2  7  1  0  0  0  0
  3  2  2  0  0  0  0
  3  4  1  0  0  0  0
  4  5  2  0  0  0  0
  5  6  1  0  0  0  0
  5  8  1  0  0  0  0
  6 37  1  0  0  0  0
  7 38  1  0  0  0  0
  7  6  2  0  0  0  0
  8 34  1  0  0  0  0
  9 10  1  0  0  0  0
  9  8  2  0  0  0  0
 10 24  1  0  0  0  0
 10 39  1  1  0  0  0
 11 10  1  0  0  0  0
 12 14  1  0  0  0  0
 12 11  1  0  0  0  0
 13 12  2  0  0  0  0
 14  9  1  0  0  0  0
 15 14  2  0  0  0  0
 16 17  1  0  0  0  0
 16 11  1  0  0  0  0
 16 40  1  0  0  0  0
 17 42  1  0  0  0  0
 17 43  1  0  0  0  0
 18 19  1  0  0  0  0
 18 17  1  0  0  0  0
 19 45  1  0  0  0  0
 19 46  1  0  0  0  0
 20 48  1  0  0  0  0
 20 19  1  0  0  0  0
 21 20  1  0  0  0  0
 22 21  1  0  0  0  0
 22 23  1  0  0  0  0
 23 18  1  0  0  0  0
 23 52  1  0  0  0  0
 24 25  1  0  0  0  0
 25 26  2  0  0  0  0
 25 53  1  0  0  0  0
 26 54  1  0  0  0  0
 27 30  1  0  0  0  0
 27 26  1  0  0  0  0
 28 27  2  0  0  0  0
 29 28  1  0  0  0  0
 29 24  2  0  0  0  0
 30 31  1  0  0  0  0
 31 57  1  0  0  0  0
 31 32  1  0  0  0  0
 32 60  1  0  0  0  0
 32 59  1  0  0  0  0
 33 32  1  0  0  0  0
 33 61  1  0  0  0  0
 35  3  1  0  0  0  0
 36  4  1  0  0  0  0
 41 16  1  0  0  0  0
 44 18  1  0  0  0  0
 47 20  1  0  0  0  0
 49 22  1  0  0  0  0
 50 22  1  0  0  0  0
 51 23  1  0  0  0  0
 55 28  1  0  0  0  0
 56 29  1  0  0  0  0
 58 31  1  0  0  0  0
 62 33  1  0  0  0  0
 63 33  1  0  0  0  0
M  END
>  <Pose>
1

>  <Score>
-6.33

$$$$
