
 OpenBabel03172210413D

 57 61  0  0  1  0  0  0  0  0999 V2000
   20.4690    6.8280   10.5800 Cl  0  0  0  0  0  0  0  0  0  0  0  0
   18.7770    6.8950   11.0460 C   0  0  0  0  0  0  0  0  0  0  0  0
   17.9800    5.7680   11.0800 C   0  0  0  0  0  0  0  0  0  0  0  0
   16.6610    5.8310   11.4450 C   0  0  0  0  0  0  0  0  0  0  0  0
   16.0610    7.0380   11.8020 C   0  0  0  0  0  0  0  0  0  0  0  0
   16.8440    8.1660   11.7730 C   0  0  0  0  0  0  0  0  0  0  0  0
   18.1640    8.0750   11.4030 C   0  0  0  0  0  0  0  0  0  0  0  0
   14.6300    7.0750   12.2160 C   0  0  1  0  0  0  0  0  0  0  0  0
   14.1970    8.3760   12.2150 O   0  0  0  0  0  0  0  0  0  0  0  0
   13.7600    6.1400   11.4190 C   0  0  2  0  0  0  0  0  0  0  0  0
   12.4230    6.7180   11.4510 N   0  0  0  0  0  0  0  0  0  0  0  0
   11.4940    5.6130   11.5790 C   0  0  1  0  0  0  0  0  0  0  0  0
   12.2670    4.6310   12.4110 C   0  0  2  0  0  0  0  0  0  0  0  0
   13.6860    4.7600   11.9560 C   0  0  1  0  0  0  0  0  0  0  0  0
   13.8790    3.7110   10.9180 C   0  0  0  0  0  0  0  0  0  0  0  0
   14.8280    3.6330   10.1020 O   0  0  0  0  0  0  0  0  0  0  0  0
   12.7590    2.8070   11.0390 N   0  0  0  0  0  0  0  0  0  0  0  0
   11.9590    3.2180   12.1280 C   0  0  0  0  0  0  0  0  0  0  0  0
   11.1250    2.5250   12.7610 O   0  0  0  0  0  0  0  0  0  0  0  0
   12.5050    1.6880   10.1800 C   0  0  0  0  0  0  0  0  0  0  0  0
   13.6860    0.8720    9.8090 C   0  0  0  0  0  0  0  0  0  0  0  0
   13.9390    0.6800    8.3540 C   0  0  0  0  0  0  0  0  0  0  0  0
   13.5760   -0.5780    7.8940 O   0  0  0  0  0  0  0  0  0  0  0  0
   12.1860   -0.6030    7.6510 C   0  0  0  0  0  0  0  0  0  0  0  0
   10.2320    6.0200   12.2430 C   0  0  0  0  0  0  0  0  0  0  0  0
    9.2220    5.8120   11.3330 C   0  0  0  0  0  0  0  0  0  0  0  0
    7.9170    6.1120   11.6990 C   0  0  0  0  0  0  0  0  0  0  0  0
    7.6690    6.6050   12.9590 C   0  0  0  0  0  0  0  0  0  0  0  0
    8.6790    6.8170   13.8820 C   0  0  0  0  0  0  0  0  0  0  0  0
    9.9710    6.5170   13.5040 C   0  0  0  0  0  0  0  0  0  0  0  0
    9.7420    5.2970   10.0940 N   0  0  0  0  0  0  0  0  0  0  0  0
   11.1450    5.1770   10.2380 C   0  0  0  0  0  0  0  0  0  0  0  0
   11.9000    4.7660    9.3420 O   0  0  0  0  0  0  0  0  0  0  0  0
   18.4210    4.8050   10.8060 H   0  0  0  0  0  0  0  0  0  0  0  0
   16.0310    4.9270   11.4690 H   0  0  0  0  0  0  0  0  0  0  0  0
   16.4590    9.1400   12.0450 H   0  0  0  0  0  0  0  0  0  0  0  0
   18.8040    8.9650   11.3740 H   0  0  0  0  0  0  0  0  0  0  0  0
   14.6420    6.6750   13.2970 H   0  0  0  0  0  0  0  0  0  0  0  0
   14.6990    8.8660   11.5150 H   0  0  0  0  0  0  0  0  0  0  0  0
   14.0840    6.1680   10.3380 H   0  0  0  0  0  0  0  0  0  0  0  0
   12.2480    7.2720   10.6060 H   0  0  0  0  0  0  0  0  0  0  0  0
   12.1430    4.8690   13.4850 H   0  0  0  0  0  0  0  0  0  0  0  0
   14.4060    4.5540   12.7650 H   0  0  0  0  0  0  0  0  0  0  0  0
   11.9940    2.0530    9.2690 H   0  0  0  0  0  0  0  0  0  0  0  0
   11.7600    0.9830   10.6510 H   0  0  0  0  0  0  0  0  0  0  0  0
   14.5930    1.4180   10.2100 H   0  0  0  0  0  0  0  0  0  0  0  0
   13.7320   -0.1120   10.3450 H   0  0  0  0  0  0  0  0  0  0  0  0
   14.9860    0.8420    8.0500 H   0  0  0  0  0  0  0  0  0  0  0  0
   13.3160    1.4330    7.8100 H   0  0  0  0  0  0  0  0  0  0  0  0
   11.6150   -0.3860    8.5720 H   0  0  0  0  0  0  0  0  0  0  0  0
   11.9570    0.2110    6.9300 H   0  0  0  0  0  0  0  0  0  0  0  0
   11.8860   -1.5610    7.1840 H   0  0  0  0  0  0  0  0  0  0  0  0
    7.1060    5.9470   10.9750 H   0  0  0  0  0  0  0  0  0  0  0  0
    6.6410    6.8340   13.2310 H   0  0  0  0  0  0  0  0  0  0  0  0
    8.4100    7.2090   14.8540 H   0  0  0  0  0  0  0  0  0  0  0  0
   10.7800    6.6820   14.2310 H   0  0  0  0  0  0  0  0  0  0  0  0
    9.1370    5.0700    9.2710 H   0  0  0  0  0  0  0  0  0  0  0  0
  1  2  1  0  0  0  0
  2  3  2  0  0  0  0
  2  7  1  0  0  0  0
  3  4  1  0  0  0  0
  4 35  1  0  0  0  0
  4  5  2  0  0  0  0
  5  8  1  0  0  0  0
  6  5  1  0  0  0  0
  6 36  1  0  0  0  0
  7  6  2  0  0  0  0
  8 38  1  1  0  0  0
  9  8  1  0  0  0  0
 10 40  1  6  0  0  0
 10 11  1  0  0  0  0
 10 14  1  0  0  0  0
 10  8  1  0  0  0  0
 11 12  1  0  0  0  0
 12 32  1  6  0  0  0
 12 25  1  0  0  0  0
 12 13  1  0  0  0  0
 13 42  1  1  0  0  0
 14 13  1  0  0  0  0
 14 43  1  1  0  0  0
 15 17  1  0  0  0  0
 15 14  1  0  0  0  0
 16 15  2  0  0  0  0
 17 18  1  0  0  0  0
 18 13  1  0  0  0  0
 18 19  2  0  0  0  0
 20 45  1  0  0  0  0
 20 17  1  0  0  0  0
 21 20  1  0  0  0  0
 21 46  1  0  0  0  0
 21 47  1  0  0  0  0
 22 21  1  0  0  0  0
 23 22  1  0  0  0  0
 24 23  1  0  0  0  0
 24 50  1  0  0  0  0
 25 30  1  0  0  0  0
 26 27  1  0  0  0  0
 26 25  2  0  0  0  0
 27 28  2  0  0  0  0
 28 54  1  0  0  0  0
 28 29  1  0  0  0  0
 29 55  1  0  0  0  0
 30 29  2  0  0  0  0
 30 56  1  0  0  0  0
 31 32  1  0  0  0  0
 31 26  1  0  0  0  0
 33 32  2  0  0  0  0
 34  3  1  0  0  0  0
 37  7  1  0  0  0  0
 39  9  1  0  0  0  0
 41 11  1  0  0  0  0
 44 20  1  0  0  0  0
 48 22  1  0  0  0  0
 49 22  1  0  0  0  0
 51 24  1  0  0  0  0
 52 24  1  0  0  0  0
 53 27  1  0  0  0  0
 57 31  1  0  0  0  0
M  END
>  <Pose>
1

>  <Score>
-6.58

$$$$
