
 OpenBabel03172210413D

 48 51  0  0  1  0  0  0  0  0999 V2000
    5.0210   10.3180   14.3840 Cl  0  0  0  0  0  0  0  0  0  0  0  0
    5.7490    8.9660   13.5450 C   0  0  0  0  0  0  0  0  0  0  0  0
    6.3070    9.1320   12.2810 C   0  0  0  0  0  0  0  0  0  0  0  0
    6.8770    8.0590   11.6310 C   0  0  0  0  0  0  0  0  0  0  0  0
    6.9190    6.7990   12.1880 C   0  0  0  0  0  0  0  0  0  0  0  0
    6.3680    6.6260   13.4390 C   0  0  0  0  0  0  0  0  0  0  0  0
    5.7990    7.6970   14.0910 C   0  0  0  0  0  0  0  0  0  0  0  0
    7.5220    5.6340   11.5210 C   0  0  0  0  0  0  0  0  0  0  0  0
    8.9760    5.8610   11.2420 C   0  0  0  0  0  0  0  0  0  0  0  0
    9.3400    5.7900   10.0170 O   0  0  0  0  0  0  0  0  0  0  0  0
    9.8880    6.1370   12.2710 N   0  0  0  0  0  0  0  0  0  0  0  0
   10.0600    7.4510   12.8030 C   0  0  0  0  0  0  0  0  0  0  0  0
   11.4190    7.7100   13.3890 C   0  0  0  0  0  0  0  0  0  0  0  0
   12.4200    6.8020   12.7790 C   0  0  2  0  0  0  0  0  0  0  0  0
   12.0980    5.4890   12.4870 C   0  0  0  0  0  0  0  0  0  0  0  0
   12.9950    4.6600   11.9430 N   0  0  0  0  0  0  0  0  0  0  0  0
   14.2560    5.0410   11.6460 C   0  0  2  0  0  0  0  0  0  0  0  0
   14.5760    6.3270   11.9310 N   0  0  0  0  0  0  0  0  0  0  0  0
   13.7100    7.1970   12.4770 C   0  0  0  0  0  0  0  0  0  0  0  0
   14.0710    8.5070   12.7560 O   0  0  0  0  0  0  0  0  0  0  0  0
   15.1600    4.1310   11.0720 N   0  0  0  0  0  0  0  0  0  0  0  0
   16.5670    4.4010   11.0700 C   0  0  0  0  0  0  0  0  0  0  0  0
   17.2660    3.0410   10.9310 C   0  0  0  0  0  0  0  0  0  0  0  0
   16.9440    2.4380    9.7400 O   0  0  0  0  0  0  0  0  0  0  0  0
   15.6160    2.4180    9.4140 C   0  0  0  0  0  0  0  0  0  0  0  0
   14.6810    2.9180   10.4800 C   0  0  0  0  0  0  0  0  0  0  0  0
   10.6840    5.0720   12.8150 C   0  0  0  0  0  0  0  0  0  0  0  0
    6.2790   10.1130   11.8390 H   0  0  0  0  0  0  0  0  0  0  0  0
    7.3160    8.1790   10.6430 H   0  0  0  0  0  0  0  0  0  0  0  0
    6.3700    5.6440   13.9380 H   0  0  0  0  0  0  0  0  0  0  0  0
    5.3560    7.5680   15.0900 H   0  0  0  0  0  0  0  0  0  0  0  0
    6.9500    5.4550   10.5760 H   0  0  0  0  0  0  0  0  0  0  0  0
    7.3610    4.7530   12.1790 H   0  0  0  0  0  0  0  0  0  0  0  0
    9.7390    8.2530   12.1000 H   0  0  0  0  0  0  0  0  0  0  0  0
    9.3410    7.5630   13.6770 H   0  0  0  0  0  0  0  0  0  0  0  0
   11.4360    7.5560   14.5080 H   0  0  0  0  0  0  0  0  0  0  0  0
   11.7390    8.7710   13.2620 H   0  0  0  0  0  0  0  0  0  0  0  0
   14.0550    9.2400   12.0420 H   0  0  0  0  0  0  0  0  0  0  0  0
   16.9300    4.8180   12.0380 H   0  0  0  0  0  0  0  0  0  0  0  0
   16.8910    5.0870   10.2500 H   0  0  0  0  0  0  0  0  0  0  0  0
   16.8710    2.4150   11.7580 H   0  0  0  0  0  0  0  0  0  0  0  0
   18.3460    3.1340   11.0420 H   0  0  0  0  0  0  0  0  0  0  0  0
   15.4270    2.9890    8.4780 H   0  0  0  0  0  0  0  0  0  0  0  0
   15.3270    1.3500    9.2120 H   0  0  0  0  0  0  0  0  0  0  0  0
   14.5100    2.1100   11.2440 H   0  0  0  0  0  0  0  0  0  0  0  0
   13.7100    3.1260    9.9760 H   0  0  0  0  0  0  0  0  0  0  0  0
   10.4470    4.1060   12.3310 H   0  0  0  0  0  0  0  0  0  0  0  0
   10.5680    4.9670   13.9160 H   0  0  0  0  0  0  0  0  0  0  0  0
  2  7  1  0  0  0  0
  2  1  1  0  0  0  0
  3  2  2  0  0  0  0
  4  5  2  0  0  0  0
  4  3  1  0  0  0  0
  5  6  1  0  0  0  0
  6 30  1  0  0  0  0
  6  7  2  0  0  0  0
  7 31  1  0  0  0  0
  8 33  1  0  0  0  0
  8  5  1  0  0  0  0
  9  8  1  0  0  0  0
  9 11  1  0  0  0  0
 10  9  2  0  0  0  0
 11 12  1  0  0  0  0
 11 27  1  0  0  0  0
 12 13  1  0  0  0  0
 12 35  1  0  0  0  0
 13 36  1  0  0  0  0
 14 19  1  1  0  0  0
 14 13  1  0  0  0  0
 15 14  1  0  0  0  0
 15 27  1  0  0  0  0
 16 15  2  0  0  0  0
 17 21  1  6  0  0  0
 17 18  1  0  0  0  0
 17 16  1  0  0  0  0
 18 19  2  0  0  0  0
 19 20  1  0  0  0  0
 22 21  1  0  0  0  0
 22 39  1  0  0  0  0
 23 42  1  0  0  0  0
 23 22  1  0  0  0  0
 23 41  1  0  0  0  0
 24 23  1  0  0  0  0
 25 24  1  0  0  0  0
 25 26  1  0  0  0  0
 26 21  1  0  0  0  0
 26 45  1  0  0  0  0
 27 48  1  0  0  0  0
 28  3  1  0  0  0  0
 29  4  1  0  0  0  0
 32  8  1  0  0  0  0
 34 12  1  0  0  0  0
 37 13  1  0  0  0  0
 38 20  1  0  0  0  0
 40 22  1  0  0  0  0
 43 25  1  0  0  0  0
 44 25  1  0  0  0  0
 46 26  1  0  0  0  0
 47 27  1  0  0  0  0
M  END
>  <Pose>
1

>  <Score>
-5.56

$$$$
