
 OpenBabel03172210413D

 52 55  0  0  0  0  0  0  0  0999 V2000
   13.5170    1.5830    9.9700 Cl  0  0  0  0  0  0  0  0  0  0  0  0
   12.5340    2.8880   10.5590 C   0  0  0  0  0  0  0  0  0  0  0  0
   12.0800    3.8870    9.6960 C   0  0  0  0  0  0  0  0  0  0  0  0
   11.2980    4.9230   10.1720 C   0  0  0  0  0  0  0  0  0  0  0  0
   10.9460    4.9960   11.5170 C   0  0  0  0  0  0  0  0  0  0  0  0
   11.3890    4.0200   12.3660 C   0  0  0  0  0  0  0  0  0  0  0  0
   12.1770    2.9750   11.8840 C   0  0  0  0  0  0  0  0  0  0  0  0
   10.1040    6.1290   11.9870 C   0  0  0  0  0  0  0  0  0  0  0  0
    8.7050    5.9840   11.5420 C   0  0  0  0  0  0  0  0  0  0  0  0
    8.3890    4.9140   10.9580 O   0  0  0  0  0  0  0  0  0  0  0  0
    7.7180    6.9640   11.7320 N   0  0  0  0  0  0  0  0  0  0  0  0
    6.3080    6.5910   11.9440 C   0  0  0  0  0  0  0  0  0  0  0  0
    5.7160    7.5460   12.9690 C   0  0  0  0  0  0  0  0  0  0  0  0
    6.8140    7.9950   13.8020 N   0  0  0  0  0  0  0  0  0  0  0  0
    7.7330    8.9270   13.1720 C   0  0  0  0  0  0  0  0  0  0  0  0
    7.9680    8.3980   11.7470 C   0  0  0  0  0  0  0  0  0  0  0  0
    6.9820    7.5380   15.1350 C   0  0  0  0  0  0  0  0  0  0  0  0
    8.1000    6.8000   15.4790 C   0  0  0  0  0  0  0  0  0  0  0  0
    8.2310    6.3620   16.7650 N   0  0  0  0  0  0  0  0  0  0  0  0
    7.3370    6.6110   17.7020 N   0  0  0  0  0  0  0  0  0  0  0  0
    6.2080    7.3360   17.4320 C   0  0  0  0  0  0  0  0  0  0  0  0
    6.0810    7.7700   16.1480 C   0  0  0  0  0  0  0  0  0  0  0  0
    5.2910    7.5620   18.4820 N   0  0  0  0  0  0  0  0  0  0  0  0
    4.9230    8.9100   18.8740 C   0  0  0  0  0  0  0  0  0  0  0  0
    4.9290    9.0440   20.3980 C   0  0  0  0  0  0  0  0  0  0  0  0
    4.2650    7.9960   21.0040 O   0  0  0  0  0  0  0  0  0  0  0  0
    4.9450    6.8260   20.7030 C   0  0  0  0  0  0  0  0  0  0  0  0
    4.6760    6.4920   19.2250 C   0  0  0  0  0  0  0  0  0  0  0  0
   12.3530    3.8290    8.6630 H   0  0  0  0  0  0  0  0  0  0  0  0
   10.9280    5.7180    9.5260 H   0  0  0  0  0  0  0  0  0  0  0  0
   11.1390    4.0300   13.4310 H   0  0  0  0  0  0  0  0  0  0  0  0
   12.5100    2.2230   12.5770 H   0  0  0  0  0  0  0  0  0  0  0  0
   10.5450    7.0530   11.5110 H   0  0  0  0  0  0  0  0  0  0  0  0
   10.1750    6.2360   13.0880 H   0  0  0  0  0  0  0  0  0  0  0  0
    6.3230    5.5510   12.3000 H   0  0  0  0  0  0  0  0  0  0  0  0
    5.7560    6.6140   10.9820 H   0  0  0  0  0  0  0  0  0  0  0  0
    4.8940    7.1020   13.5480 H   0  0  0  0  0  0  0  0  0  0  0  0
    5.3100    8.4400   12.4450 H   0  0  0  0  0  0  0  0  0  0  0  0
    8.6850    9.0490   13.6870 H   0  0  0  0  0  0  0  0  0  0  0  0
    7.1890    9.8870   13.0620 H   0  0  0  0  0  0  0  0  0  0  0  0
    8.9450    8.6820   11.3610 H   0  0  0  0  0  0  0  0  0  0  0  0
    7.2060    8.8410   11.0620 H   0  0  0  0  0  0  0  0  0  0  0  0
    8.8760    6.5480   14.7980 H   0  0  0  0  0  0  0  0  0  0  0  0
    5.2090    8.3420   15.8850 H   0  0  0  0  0  0  0  0  0  0  0  0
    5.6220    9.6750   18.4790 H   0  0  0  0  0  0  0  0  0  0  0  0
    3.8800    9.0950   18.5590 H   0  0  0  0  0  0  0  0  0  0  0  0
    4.4290    9.9880   20.6510 H   0  0  0  0  0  0  0  0  0  0  0  0
    5.9580    9.1080   20.7900 H   0  0  0  0  0  0  0  0  0  0  0  0
    4.6850    5.9880   21.3530 H   0  0  0  0  0  0  0  0  0  0  0  0
    6.0460    7.0560   20.7410 H   0  0  0  0  0  0  0  0  0  0  0  0
    5.0200    5.4890   19.0040 H   0  0  0  0  0  0  0  0  0  0  0  0
    3.5640    6.5910   19.0820 H   0  0  0  0  0  0  0  0  0  0  0  0
  1  2  1  0  0  0  0
  2  7  1  0  0  0  0
  3  4  1  0  0  0  0
  3  2  2  0  0  0  0
  4  5  2  0  0  0  0
  5  8  1  0  0  0  0
  5  6  1  0  0  0  0
  6 31  1  0  0  0  0
  7  6  2  0  0  0  0
  7 32  1  0  0  0  0
  8 34  1  0  0  0  0
  9 11  1  0  0  0  0
  9  8  1  0  0  0  0
 10  9  2  0  0  0  0
 11 16  1  0  0  0  0
 11 12  1  0  0  0  0
 12 35  1  0  0  0  0
 12 13  1  0  0  0  0
 13 37  1  0  0  0  0
 13 14  1  0  0  0  0
 14 17  1  0  0  0  0
 15 39  1  0  0  0  0
 15 14  1  0  0  0  0
 16 15  1  0  0  0  0
 17 18  2  0  0  0  0
 17 22  1  0  0  0  0
 18 19  1  0  0  0  0
 19 20  2  0  0  0  0
 21 20  1  0  0  0  0
 21 23  1  0  0  0  0
 22 21  2  0  0  0  0
 23 24  1  0  0  0  0
 23 28  1  0  0  0  0
 24 25  1  0  0  0  0
 25 47  1  0  0  0  0
 25 48  1  0  0  0  0
 25 26  1  0  0  0  0
 27 50  1  0  0  0  0
 27 26  1  0  0  0  0
 27 49  1  0  0  0  0
 28 27  1  0  0  0  0
 29  3  1  0  0  0  0
 30  4  1  0  0  0  0
 33  8  1  0  0  0  0
 36 12  1  0  0  0  0
 38 13  1  0  0  0  0
 40 15  1  0  0  0  0
 41 16  1  0  0  0  0
 42 16  1  0  0  0  0
 43 18  1  0  0  0  0
 44 22  1  0  0  0  0
 45 24  1  0  0  0  0
 46 24  1  0  0  0  0
 51 28  1  0  0  0  0
 52 28  1  0  0  0  0
M  END
>  <Pose>
1

>  <Score>
-5.49

$$$$
