
 OpenBabel03172210413D

 42 45  0  0  0  0  0  0  0  0999 V2000
    4.3010    7.0240   16.0490 Cl  0  0  0  0  0  0  0  0  0  0  0  0
    4.8530    7.6340   14.5200 C   0  0  0  0  0  0  0  0  0  0  0  0
    6.0680    7.2930   13.9390 C   0  0  0  0  0  0  0  0  0  0  0  0
    6.4390    7.7940   12.7400 C   0  0  0  0  0  0  0  0  0  0  0  0
    5.5520    8.6570   12.1290 C   0  0  0  0  0  0  0  0  0  0  0  0
    4.3560    9.0260   12.6450 C   0  0  0  0  0  0  0  0  0  0  0  0
    3.9660    8.5310   13.8410 C   0  0  0  0  0  0  0  0  0  0  0  0
    7.6870    7.4990   12.0710 N   0  0  0  0  0  0  0  0  0  0  0  0
    8.2430    8.3740   11.2610 N   0  0  0  0  0  0  0  0  0  0  0  0
    9.2370    7.8550   10.8770 N   0  0  0  0  0  0  0  0  0  0  0  0
    9.7840    6.7850   11.0530 C   0  0  0  0  0  0  0  0  0  0  0  0
    8.4750    6.4570   12.0680 C   0  0  0  0  0  0  0  0  0  0  0  0
   10.4400    5.5070   11.2640 C   0  0  0  0  0  0  0  0  0  0  0  0
    9.5210    4.8350   12.0630 O   0  0  0  0  0  0  0  0  0  0  0  0
   11.5250    4.7350   11.0140 N   0  0  0  0  0  0  0  0  0  0  0  0
   12.2910    4.5180    9.8230 C   0  0  0  0  0  0  0  0  0  0  0  0
   12.9680    3.1340    9.8990 C   0  0  0  0  0  0  0  0  0  0  0  0
   12.0110    2.3180   10.6600 N   0  0  0  0  0  0  0  0  0  0  0  0
   11.8580    2.5630   12.0560 C   0  0  0  0  0  0  0  0  0  0  0  0
   12.0820    4.0330   12.2140 C   0  0  0  0  0  0  0  0  0  0  0  0
   11.1980    1.4110    9.9890 C   0  0  0  0  0  0  0  0  0  0  0  0
   11.7500    0.4020    9.1920 N   0  0  0  0  0  0  0  0  0  0  0  0
   11.0930   -0.5000    8.5520 C   0  0  0  0  0  0  0  0  0  0  0  0
    9.6920   -0.5720    8.6010 C   0  0  0  0  0  0  0  0  0  0  0  0
    9.1350    0.4300    9.3850 C   0  0  0  0  0  0  0  0  0  0  0  0
    9.8440    1.3040    9.9940 N   0  0  0  0  0  0  0  0  0  0  0  0
    6.7420    6.6500   14.4950 H   0  0  0  0  0  0  0  0  0  0  0  0
    5.9120    9.0590   11.1350 H   0  0  0  0  0  0  0  0  0  0  0  0
    3.7090    9.7070   12.1000 H   0  0  0  0  0  0  0  0  0  0  0  0
    3.0640    8.7480   14.3220 H   0  0  0  0  0  0  0  0  0  0  0  0
    8.3930    5.5730   12.5460 H   0  0  0  0  0  0  0  0  0  0  0  0
   13.1710    5.2070    9.7960 H   0  0  0  0  0  0  0  0  0  0  0  0
   11.7220    4.4970    8.9040 H   0  0  0  0  0  0  0  0  0  0  0  0
   13.1410    2.6890    8.9220 H   0  0  0  0  0  0  0  0  0  0  0  0
   13.9210    3.2450   10.4640 H   0  0  0  0  0  0  0  0  0  0  0  0
   12.6220    2.0340   12.6500 H   0  0  0  0  0  0  0  0  0  0  0  0
   10.8320    2.2060   12.4050 H   0  0  0  0  0  0  0  0  0  0  0  0
   13.1250    4.3740   12.3660 H   0  0  0  0  0  0  0  0  0  0  0  0
   11.4810    4.3610   13.0750 H   0  0  0  0  0  0  0  0  0  0  0  0
   11.5500   -1.2560    7.8920 H   0  0  0  0  0  0  0  0  0  0  0  0
    9.0970   -1.2980    8.0870 H   0  0  0  0  0  0  0  0  0  0  0  0
    8.0180    0.4590    9.4510 H   0  0  0  0  0  0  0  0  0  0  0  0
  2  1  1  0  0  0  0
  3 27  1  0  0  0  0
  3  2  1  0  0  0  0
  4  3  2  0  0  0  0
  5  6  2  0  0  0  0
  5  4  1  0  0  0  0
  6  7  1  0  0  0  0
  7 30  1  0  0  0  0
  7  2  2  0  0  0  0
  8  4  1  0  0  0  0
  9  8  1  0  0  0  0
 10 11  1  0  0  0  0
 10  9  2  0  0  0  0
 11 13  1  0  0  0  0
 11 12  2  0  0  0  0
 12  8  1  0  0  0  0
 12 31  1  0  0  0  0
 13 14  2  0  0  0  0
 15 13  1  0  0  0  0
 15 20  1  0  0  0  0
 16 17  1  0  0  0  0
 16 15  1  0  0  0  0
 17 35  1  0  0  0  0
 17 18  1  0  0  0  0
 18 19  1  0  0  0  0
 19 20  1  0  0  0  0
 19 37  1  0  0  0  0
 19 36  1  0  0  0  0
 20 38  1  0  0  0  0
 20 39  1  0  0  0  0
 21 26  1  0  0  0  0
 21 18  1  0  0  0  0
 22 21  2  0  0  0  0
 23 24  2  0  0  0  0
 23 22  1  0  0  0  0
 24 25  1  0  0  0  0
 25 42  1  0  0  0  0
 25 26  2  0  0  0  0
 28  5  1  0  0  0  0
 29  6  1  0  0  0  0
 32 16  1  0  0  0  0
 33 16  1  0  0  0  0
 34 17  1  0  0  0  0
 40 23  1  0  0  0  0
 41 24  1  0  0  0  0
M  END
>  <Pose>
1

>  <Score>
-5.83

$$$$
