
 OpenBabel03172210413D

 42 45  0  0  1  0  0  0  0  0999 V2000
   12.5800   -1.1580    7.5590 Cl  0  0  0  0  0  0  0  0  0  0  0  0
   12.9360    0.3010    8.4830 C   0  0  0  0  0  0  0  0  0  0  0  0
   11.9840    0.9200    9.2660 C   0  0  0  0  0  0  0  0  0  0  0  0
   12.2380    2.0410    9.9840 N   0  0  0  0  0  0  0  0  0  0  0  0
   13.4510    2.6250    9.9740 C   0  0  0  0  0  0  0  0  0  0  0  0
   13.7240    3.7490   10.6870 N   0  0  0  0  0  0  0  0  0  0  0  0
   12.8020    4.3600   11.4530 C   0  0  0  0  0  0  0  0  0  0  0  0
   11.5430    3.7680   11.4740 C   0  0  1  0  0  0  0  0  0  0  0  0
   10.5220    4.4410   12.3190 C   0  0  0  0  0  0  0  0  0  0  0  0
   10.6500    5.8700   12.0120 N   0  0  0  0  0  0  0  0  0  0  0  0
   11.9010    6.5060   12.3150 C   0  0  0  0  0  0  0  0  0  0  0  0
   13.0880    5.5870   12.2390 C   0  0  0  0  0  0  0  0  0  0  0  0
    9.5750    6.5800   11.4330 C   0  0  0  0  0  0  0  0  0  0  0  0
    9.8410    7.3010   10.4120 O   0  0  0  0  0  0  0  0  0  0  0  0
    8.1930    6.5150   11.9560 C   0  0  0  0  0  0  0  0  0  0  0  0
    7.4720    7.8390   11.8360 C   0  0  0  0  0  0  0  0  0  0  0  0
    8.4870    8.9010   12.2380 C   0  0  0  0  0  0  0  0  0  0  0  0
    9.2700    8.4410   13.2950 O   0  0  0  0  0  0  0  0  0  0  0  0
    8.5490    7.5720   14.1250 C   0  0  0  0  0  0  0  0  0  0  0  0
    8.2790    6.2330   13.4640 C   0  0  0  0  0  0  0  0  0  0  0  0
   11.2940    2.6280   10.7410 C   0  0  0  0  0  0  0  0  0  0  0  0
   10.1330    2.1060   10.7770 O   0  0  0  0  0  0  0  0  0  0  0  0
   14.4210    2.0190    9.1930 C   0  0  0  0  0  0  0  0  0  0  0  0
   14.1880    0.8780    8.4540 C   0  0  0  0  0  0  0  0  0  0  0  0
   10.9900    0.4820    9.3050 H   0  0  0  0  0  0  0  0  0  0  0  0
   10.7330    4.2180   13.3700 H   0  0  0  0  0  0  0  0  0  0  0  0
    9.4990    4.1110   12.0900 H   0  0  0  0  0  0  0  0  0  0  0  0
   12.1090    7.3400   11.6060 H   0  0  0  0  0  0  0  0  0  0  0  0
   11.7930    6.9300   13.3560 H   0  0  0  0  0  0  0  0  0  0  0  0
   13.3890    5.2500   13.2740 H   0  0  0  0  0  0  0  0  0  0  0  0
   13.9760    6.0730   11.7810 H   0  0  0  0  0  0  0  0  0  0  0  0
    7.6380    5.6960   11.4460 H   0  0  0  0  0  0  0  0  0  0  0  0
    6.6980    7.8590   12.6550 H   0  0  0  0  0  0  0  0  0  0  0  0
    7.0020    8.0260   10.8750 H   0  0  0  0  0  0  0  0  0  0  0  0
    9.1640    9.0480   11.3790 H   0  0  0  0  0  0  0  0  0  0  0  0
    8.0100    9.8730   12.4560 H   0  0  0  0  0  0  0  0  0  0  0  0
    9.1930    7.3700   15.0060 H   0  0  0  0  0  0  0  0  0  0  0  0
    7.6250    8.0420   14.5070 H   0  0  0  0  0  0  0  0  0  0  0  0
    9.0390    5.4800   13.6880 H   0  0  0  0  0  0  0  0  0  0  0  0
    7.2470    5.9430   13.7680 H   0  0  0  0  0  0  0  0  0  0  0  0
   15.4060    2.4880    9.1810 H   0  0  0  0  0  0  0  0  0  0  0  0
   14.9530    0.4080    7.8450 H   0  0  0  0  0  0  0  0  0  0  0  0
  1  2  1  0  0  0  0
  2  3  1  0  0  0  0
  3 25  1  0  0  0  0
  3  4  1  0  0  0  0
  4 21  1  0  0  0  0
  5  4  1  0  0  0  0
  5  6  1  0  0  0  0
  6  7  2  0  0  0  0
  7  8  1  0  0  0  0
  7 12  1  0  0  0  0
  8 21  1  6  0  0  0
  8  9  1  0  0  0  0
  9 26  1  0  0  0  0
 10 11  1  0  0  0  0
 10  9  1  0  0  0  0
 11 29  1  0  0  0  0
 12 11  1  0  0  0  0
 12 30  1  0  0  0  0
 13 15  1  0  0  0  0
 13 10  1  0  0  0  0
 14 13  2  0  0  0  0
 15 20  1  0  0  0  0
 16 15  1  0  0  0  0
 16 17  1  0  0  0  0
 16 33  1  0  0  0  0
 17 36  1  0  0  0  0
 17 18  1  0  0  0  0
 18 19  1  0  0  0  0
 19 38  1  0  0  0  0
 19 37  1  0  0  0  0
 20 39  1  0  0  0  0
 20 40  1  0  0  0  0
 20 19  1  0  0  0  0
 21 22  2  0  0  0  0
 23  5  2  0  0  0  0
 24  2  2  0  0  0  0
 24 23  1  0  0  0  0
 27  9  1  0  0  0  0
 28 11  1  0  0  0  0
 31 12  1  0  0  0  0
 32 15  1  0  0  0  0
 34 16  1  0  0  0  0
 35 17  1  0  0  0  0
 41 23  1  0  0  0  0
 42 24  1  0  0  0  0
M  END
>  <Pose>
1

>  <Score>
-4.42

$$$$
