
 OpenBabel03172210413D

 41 44  0  0  0  0  0  0  0  0999 V2000
   15.2360    3.1440   10.4270 F   0  0  0  0  0  0  0  0  0  0  0  0
   14.5940    2.1860    9.7160 C   0  0  0  0  0  0  0  0  0  0  0  0
   13.2320    2.0190    9.9150 C   0  0  0  0  0  0  0  0  0  0  0  0
   12.5130    1.0650    9.2280 C   0  0  0  0  0  0  0  0  0  0  0  0
   13.1990    0.2710    8.3250 C   0  0  0  0  0  0  0  0  0  0  0  0
   14.5500    0.4360    8.1260 C   0  0  0  0  0  0  0  0  0  0  0  0
   15.2620    1.3900    8.8150 C   0  0  0  0  0  0  0  0  0  0  0  0
   12.2880   -0.9450    7.4470 Cl  0  0  0  0  0  0  0  0  0  0  0  0
   11.1150    1.0850    9.6080 C   0  0  0  0  0  0  0  0  0  0  0  0
   10.1830    0.3630    9.1870 O   0  0  0  0  0  0  0  0  0  0  0  0
   11.0000    2.1420   10.6040 C   0  0  0  0  0  0  0  0  0  0  0  0
    9.9260    2.4820   11.1930 O   0  0  0  0  0  0  0  0  0  0  0  0
   12.2940    2.6970   10.7780 N   0  0  0  0  0  0  0  0  0  0  0  0
   12.6660    3.7740   11.6710 C   0  0  0  0  0  0  0  0  0  0  0  0
   12.2270    5.0760   11.2140 N   0  0  0  0  0  0  0  0  0  0  0  0
   11.3590    4.9590   10.0930 C   0  0  0  0  0  0  0  0  0  0  0  0
   10.1490    5.8250   10.1240 C   0  0  0  0  0  0  0  0  0  0  0  0
    9.5570    5.9470   11.4300 N   0  0  0  0  0  0  0  0  0  0  0  0
   10.3480    5.5830   12.5820 C   0  0  0  0  0  0  0  0  0  0  0  0
   11.7830    5.9390   12.2560 C   0  0  0  0  0  0  0  0  0  0  0  0
    8.2360    6.4100   11.6230 C   0  0  0  0  0  0  0  0  0  0  0  0
    7.1760    5.6200   11.3840 N   0  0  0  0  0  0  0  0  0  0  0  0
    5.9070    6.0380   11.5600 C   0  0  0  0  0  0  0  0  0  0  0  0
    5.6490    7.3220   12.0020 C   0  0  0  0  0  0  0  0  0  0  0  0
    6.7040    8.1160   12.2440 N   0  0  0  0  0  0  0  0  0  0  0  0
    7.9730    7.7000   12.0680 C   0  0  0  0  0  0  0  0  0  0  0  0
   15.0660   -0.2090    7.4020 H   0  0  0  0  0  0  0  0  0  0  0  0
   16.3380    1.4990    8.6360 H   0  0  0  0  0  0  0  0  0  0  0  0
   12.2820    3.5190   12.6630 H   0  0  0  0  0  0  0  0  0  0  0  0
   13.7730    3.8010   11.7440 H   0  0  0  0  0  0  0  0  0  0  0  0
   11.9470    5.2170    9.1740 H   0  0  0  0  0  0  0  0  0  0  0  0
   11.0720    3.8810    9.9450 H   0  0  0  0  0  0  0  0  0  0  0  0
   10.3110    6.8190    9.6390 H   0  0  0  0  0  0  0  0  0  0  0  0
    9.3700    5.3240    9.4760 H   0  0  0  0  0  0  0  0  0  0  0  0
   10.2990    4.4630   12.6430 H   0  0  0  0  0  0  0  0  0  0  0  0
    9.9970    6.0640   13.5100 H   0  0  0  0  0  0  0  0  0  0  0  0
   12.4650    5.9230   13.1010 H   0  0  0  0  0  0  0  0  0  0  0  0
   11.8190    6.9940   11.8580 H   0  0  0  0  0  0  0  0  0  0  0  0
    5.0580    5.3920   11.3630 H   0  0  0  0  0  0  0  0  0  0  0  0
    4.6170    7.6320   12.1360 H   0  0  0  0  0  0  0  0  0  0  0  0
    8.8300    8.3350   12.2610 H   0  0  0  0  0  0  0  0  0  0  0  0
  2  3  1  0  0  0  0
  2  1  1  0  0  0  0
  3 13  1  0  0  0  0
  4  9  1  0  0  0  0
  4  3  2  0  0  0  0
  5  4  1  0  0  0  0
  6  5  2  0  0  0  0
  6  7  1  0  0  0  0
  7  2  2  0  0  0  0
  8  5  1  0  0  0  0
  9 11  1  0  0  0  0
 10  9  2  0  0  0  0
 11 13  1  0  0  0  0
 11 12  2  0  0  0  0
 13 14  1  0  0  0  0
 14 30  1  0  0  0  0
 14 29  1  0  0  0  0
 15 14  1  0  0  0  0
 15 20  1  0  0  0  0
 16 17  1  0  0  0  0
 16 15  1  0  0  0  0
 17 18  1  0  0  0  0
 18 21  1  0  0  0  0
 18 19  1  0  0  0  0
 19 35  1  0  0  0  0
 19 36  1  0  0  0  0
 20 19  1  0  0  0  0
 20 37  1  0  0  0  0
 21 26  1  0  0  0  0
 22 23  1  0  0  0  0
 22 21  2  0  0  0  0
 23 24  2  0  0  0  0
 24 40  1  0  0  0  0
 24 25  1  0  0  0  0
 26 25  2  0  0  0  0
 26 41  1  0  0  0  0
 27  6  1  0  0  0  0
 28  7  1  0  0  0  0
 31 16  1  0  0  0  0
 32 16  1  0  0  0  0
 33 17  1  0  0  0  0
 34 17  1  0  0  0  0
 38 20  1  0  0  0  0
 39 23  1  0  0  0  0
M  END
>  <Pose>
1

>  <Score>
-6.53

$$$$
