
 OpenBabel03172210413D

 41 44  0  0  0  0  0  0  0  0999 V2000
   11.4470    5.7630    9.4920 Cl  0  0  0  0  0  0  0  0  0  0  0  0
   11.5370    6.4710   11.0830 C   0  0  0  0  0  0  0  0  0  0  0  0
   11.8410    7.8110   11.2650 C   0  0  0  0  0  0  0  0  0  0  0  0
   11.9170    8.3870   12.5190 C   0  0  0  0  0  0  0  0  0  0  0  0
   11.6750    7.5760   13.6120 C   0  0  0  0  0  0  0  0  0  0  0  0
   11.3730    6.2420   13.4120 C   0  0  0  0  0  0  0  0  0  0  0  0
   11.2930    5.6480   12.1650 C   0  0  0  0  0  0  0  0  0  0  0  0
   10.9580    4.2000   12.0140 C   0  0  0  0  0  0  0  0  0  0  0  0
   12.1220    3.4540   11.4360 C   0  0  0  0  0  0  0  0  0  0  0  0
   13.2810    3.7220   11.9090 O   0  0  0  0  0  0  0  0  0  0  0  0
   11.9390    2.4940   10.4070 N   0  0  0  0  0  0  0  0  0  0  0  0
   10.7340    2.5030    9.6540 C   0  0  0  0  0  0  0  0  0  0  0  0
   10.1960    1.0680    9.6010 C   0  0  0  0  0  0  0  0  0  0  0  0
   11.2750    0.3380    8.8310 C   0  0  0  0  0  0  0  0  0  0  0  0
   12.6010    0.6000    9.1090 C   0  0  0  0  0  0  0  0  0  0  0  0
   13.5570   -0.0590    8.3950 N   0  0  0  0  0  0  0  0  0  0  0  0
   13.2600   -0.9500    7.4360 C   0  0  0  0  0  0  0  0  0  0  0  0
   11.9630   -1.1940    7.1770 N   0  0  0  0  0  0  0  0  0  0  0  0
   10.9590   -0.5660    7.8580 C   0  0  0  0  0  0  0  0  0  0  0  0
    9.6240   -0.8150    7.5940 O   0  0  0  0  0  0  0  0  0  0  0  0
   12.9860    1.5600   10.1620 C   0  0  0  0  0  0  0  0  0  0  0  0
   11.7500    8.1520   14.8640 O   0  0  0  0  0  0  0  0  0  0  0  0
   11.6750    9.5390   15.1230 C   0  0  0  0  0  0  0  0  0  0  0  0
   11.9080   10.4010   13.9320 C   0  0  0  0  0  0  0  0  0  0  0  0
   12.2130    9.7060   12.7530 O   0  0  0  0  0  0  0  0  0  0  0  0
   12.0320    8.4600   10.4290 H   0  0  0  0  0  0  0  0  0  0  0  0
   11.1850    5.6120   14.2800 H   0  0  0  0  0  0  0  0  0  0  0  0
   10.0850    4.1500   11.3270 H   0  0  0  0  0  0  0  0  0  0  0  0
   10.6470    3.7400   12.9540 H   0  0  0  0  0  0  0  0  0  0  0  0
   10.9040    2.8220    8.5840 H   0  0  0  0  0  0  0  0  0  0  0  0
    9.9610    3.1970   10.0370 H   0  0  0  0  0  0  0  0  0  0  0  0
    9.2310    1.0040    9.0970 H   0  0  0  0  0  0  0  0  0  0  0  0
   10.1410    0.7110   10.6480 H   0  0  0  0  0  0  0  0  0  0  0  0
   14.0360   -1.4690    6.8730 H   0  0  0  0  0  0  0  0  0  0  0  0
    9.2500   -0.5060    6.7050 H   0  0  0  0  0  0  0  0  0  0  0  0
   13.2830    1.0260   11.1070 H   0  0  0  0  0  0  0  0  0  0  0  0
   13.9290    2.0470    9.8110 H   0  0  0  0  0  0  0  0  0  0  0  0
   10.6150    9.7290   15.4680 H   0  0  0  0  0  0  0  0  0  0  0  0
   12.3020    9.8000   15.9970 H   0  0  0  0  0  0  0  0  0  0  0  0
   11.0360   11.0620   13.6980 H   0  0  0  0  0  0  0  0  0  0  0  0
   12.7460   11.1100   14.1820 H   0  0  0  0  0  0  0  0  0  0  0  0
  1  2  1  0  0  0  0
  2  3  2  0  0  0  0
  2  7  1  0  0  0  0
  3  4  1  0  0  0  0
  4 25  1  0  0  0  0
  4  5  2  0  0  0  0
  5 22  1  0  0  0  0
  6  5  1  0  0  0  0
  6 27  1  0  0  0  0
  7  6  2  0  0  0  0
  8  7  1  0  0  0  0
  8 29  1  0  0  0  0
  9 10  2  0  0  0  0
  9  8  1  0  0  0  0
 11  9  1  0  0  0  0
 12 31  1  0  0  0  0
 12 11  1  0  0  0  0
 13 12  1  0  0  0  0
 13 33  1  0  0  0  0
 14 15  2  0  0  0  0
 14 13  1  0  0  0  0
 15 21  1  0  0  0  0
 16 15  1  0  0  0  0
 17 16  2  0  0  0  0
 18 17  1  0  0  0  0
 18 19  2  0  0  0  0
 19 14  1  0  0  0  0
 20 19  1  0  0  0  0
 21 11  1  0  0  0  0
 21 36  1  0  0  0  0
 22 23  1  0  0  0  0
 23 38  1  0  0  0  0
 23 39  1  0  0  0  0
 24 41  1  0  0  0  0
 24 23  1  0  0  0  0
 25 24  1  0  0  0  0
 26  3  1  0  0  0  0
 28  8  1  0  0  0  0
 30 12  1  0  0  0  0
 32 13  1  0  0  0  0
 34 17  1  0  0  0  0
 35 20  1  0  0  0  0
 37 21  1  0  0  0  0
 40 24  1  0  0  0  0
M  END
>  <Pose>
1

>  <Score>
-5.91

$$$$
