
 OpenBabel03172210413D

 36 39  0  0  0  0  0  0  0  0999 V2000
    9.6400   -1.5260    7.4740 Cl  0  0  0  0  0  0  0  0  0  0  0  0
   11.0720   -0.6490    7.9670 C   0  0  0  0  0  0  0  0  0  0  0  0
   11.0300    0.4140    8.8460 C   0  0  0  0  0  0  0  0  0  0  0  0
   12.1510    1.1150    9.2420 C   0  0  0  0  0  0  0  0  0  0  0  0
   13.3690    0.7180    8.7230 C   0  0  0  0  0  0  0  0  0  0  0  0
   13.4240   -0.3430    7.8440 C   0  0  0  0  0  0  0  0  0  0  0  0
   12.3030   -1.0430    7.4470 C   0  0  0  0  0  0  0  0  0  0  0  0
   14.5850    1.4530    9.1340 C   0  0  0  0  0  0  0  0  0  0  0  0
   15.8000    1.2970    8.8130 N   0  0  0  0  0  0  0  0  0  0  0  0
   16.6930    2.2440    9.4480 C   0  0  0  0  0  0  0  0  0  0  0  0
   15.8060    3.1000   10.2910 C   0  0  0  0  0  0  0  0  0  0  0  0
   14.4900    2.5420   10.0420 N   0  0  0  0  0  0  0  0  0  0  0  0
   13.1950    2.8870   10.5320 C   0  0  0  0  0  0  0  0  0  0  0  0
   12.8070    3.8520   11.3850 N   0  0  0  0  0  0  0  0  0  0  0  0
   11.4980    3.8220   11.5690 N   0  0  0  0  0  0  0  0  0  0  0  0
   11.0580    2.7980   10.7980 C   0  0  0  0  0  0  0  0  0  0  0  0
    9.8540    2.4690   10.7190 O   0  0  0  0  0  0  0  0  0  0  0  0
   12.0790    2.2100   10.1530 N   0  0  0  0  0  0  0  0  0  0  0  0
   10.7080    4.6980   12.4130 C   0  0  0  0  0  0  0  0  0  0  0  0
   10.2530    5.9130   11.5930 C   0  0  0  0  0  0  0  0  0  0  0  0
    9.1940    5.5130   10.6330 C   0  0  0  0  0  0  0  0  0  0  0  0
    9.3700    5.3820    9.3960 O   0  0  0  0  0  0  0  0  0  0  0  0
    7.8950    5.2620   11.1460 N   0  0  0  0  0  0  0  0  0  0  0  0
   10.0610    0.6960    9.2310 H   0  0  0  0  0  0  0  0  0  0  0  0
   14.3910   -0.6280    7.4560 H   0  0  0  0  0  0  0  0  0  0  0  0
   12.3430   -1.8780    6.7550 H   0  0  0  0  0  0  0  0  0  0  0  0
   17.2600    2.8360    8.7020 H   0  0  0  0  0  0  0  0  0  0  0  0
   17.3950    1.6350   10.0710 H   0  0  0  0  0  0  0  0  0  0  0  0
   15.8700    4.1780   10.0480 H   0  0  0  0  0  0  0  0  0  0  0  0
   16.0750    2.9640   11.3780 H   0  0  0  0  0  0  0  0  0  0  0  0
    9.7670    4.1690   12.6900 H   0  0  0  0  0  0  0  0  0  0  0  0
   11.2560    5.0340   13.2930 H   0  0  0  0  0  0  0  0  0  0  0  0
   11.1060    6.3530   11.0450 H   0  0  0  0  0  0  0  0  0  0  0  0
    9.8080    6.6940   12.2580 H   0  0  0  0  0  0  0  0  0  0  0  0
    7.2520    4.5500   10.7540 H   0  0  0  0  0  0  0  0  0  0  0  0
    7.5770    5.8280   11.9600 H   0  0  0  0  0  0  0  0  0  0  0  0
  1  2  1  0  0  0  0
  2  3  1  0  0  0  0
  3 24  1  0  0  0  0
  3  4  2  0  0  0  0
  4 18  1  0  0  0  0
  5  8  2  0  0  0  0
  5  4  1  0  0  0  0
  6  5  1  0  0  0  0
  7  6  1  0  0  0  0
  7  2  2  0  0  0  0
  8 12  1  0  0  0  0
  9  8  1  0  0  0  0
  9 10  1  0  0  0  0
 10 28  1  0  0  0  0
 10 11  1  0  0  0  0
 11 30  1  0  0  0  0
 12 11  1  0  0  0  0
 12 13  1  0  0  0  0
 13 14  2  0  0  0  0
 14 15  1  0  0  0  0
 15 19  1  0  0  0  0
 16 15  1  0  0  0  0
 17 16  2  0  0  0  0
 18 13  1  0  0  0  0
 18 16  1  0  0  0  0
 19 31  1  0  0  0  0
 19 32  1  0  0  0  0
 20 34  1  0  0  0  0
 20 19  1  0  0  0  0
 21 23  1  0  0  0  0
 21 20  1  0  0  0  0
 22 21  2  0  0  0  0
 23 36  1  0  0  0  0
 25  6  1  0  0  0  0
 26  7  1  0  0  0  0
 27 10  1  0  0  0  0
 29 11  1  0  0  0  0
 33 20  1  0  0  0  0
 35 23  1  0  0  0  0
M  END
>  <Pose>
1

>  <Score>
-7.08

$$$$
