
 OpenBabel03172210413D

 46 49  0  0  1  0  0  0  0  0999 V2000
   16.4060    6.1510   13.3030 Cl  0  0  0  0  0  0  0  0  0  0  0  0
   15.8560    4.9210   12.1790 C   0  0  0  0  0  0  0  0  0  0  0  0
   14.5340    4.5240   12.1530 C   0  0  0  0  0  0  0  0  0  0  0  0
   14.0940    3.5410   11.2560 C   0  0  0  0  0  0  0  0  0  0  0  0
   15.0370    3.0050   10.4180 C   0  0  0  0  0  0  0  0  0  0  0  0
   16.3780    3.4110   10.4480 C   0  0  0  0  0  0  0  0  0  0  0  0
   16.8010    4.3780   11.3340 C   0  0  0  0  0  0  0  0  0  0  0  0
   14.6240    2.0270    9.5170 O   0  0  0  0  0  0  0  0  0  0  0  0
   13.3180    1.5760    9.4310 C   0  0  0  0  0  0  0  0  0  0  0  0
   12.3660    2.1200   10.2790 C   0  0  0  0  0  0  0  0  0  0  0  0
   12.6690    3.1540   11.2750 C   0  0  2  0  0  0  0  0  0  0  0  0
   11.8330    4.3680   10.9970 C   0  0  0  0  0  0  0  0  0  0  0  0
   11.7840    4.9180    9.7350 C   0  0  0  0  0  0  0  0  0  0  0  0
   11.0230    6.0210    9.4970 N   0  0  0  0  0  0  0  0  0  0  0  0
   10.3060    6.5910   10.4970 C   0  0  0  0  0  0  0  0  0  0  0  0
    9.6120    7.6140   10.2390 O   0  0  0  0  0  0  0  0  0  0  0  0
   10.3350    6.0780   11.7370 N   0  0  0  0  0  0  0  0  0  0  0  0
   11.0860    4.9870   11.9790 C   0  0  0  0  0  0  0  0  0  0  0  0
   11.1020    4.5240   13.1290 O   0  0  0  0  0  0  0  0  0  0  0  0
    9.5520    6.7170   12.7900 C   0  0  0  0  0  0  0  0  0  0  0  0
   11.0110    6.5540    8.1380 C   0  0  0  0  0  0  0  0  0  0  0  0
   12.5050    4.3460    8.7240 O   0  0  0  0  0  0  0  0  0  0  0  0
   11.0780    1.6390   10.1540 C   0  0  0  0  0  0  0  0  0  0  0  0
   10.1620    2.1000   10.9050 O   0  0  0  0  0  0  0  0  0  0  0  0
   10.7040    0.6950    9.2760 N   0  0  0  0  0  0  0  0  0  0  0  0
   11.6680    0.1930    8.4670 C   0  0  0  0  0  0  0  0  0  0  0  0
   11.2950   -0.6920    7.6510 O   0  0  0  0  0  0  0  0  0  0  0  0
   12.9380    0.6320    8.5540 N   0  0  0  0  0  0  0  0  0  0  0  0
   13.9110    0.0450    7.6550 C   0  0  0  0  0  0  0  0  0  0  0  0
    9.3220    0.2220    9.1830 C   0  0  0  0  0  0  0  0  0  0  0  0
   13.8000    4.9640   12.8280 H   0  0  0  0  0  0  0  0  0  0  0  0
   17.0680    2.9410    9.7520 H   0  0  0  0  0  0  0  0  0  0  0  0
   17.8400    4.6780   11.3420 H   0  0  0  0  0  0  0  0  0  0  0  0
   12.3510    2.7780   12.2720 H   0  0  0  0  0  0  0  0  0  0  0  0
    9.8860    6.4490   13.7910 H   0  0  0  0  0  0  0  0  0  0  0  0
    8.4970    6.3640   12.6290 H   0  0  0  0  0  0  0  0  0  0  0  0
    9.5340    7.8130   12.5940 H   0  0  0  0  0  0  0  0  0  0  0  0
   11.9930    6.3220    7.6710 H   0  0  0  0  0  0  0  0  0  0  0  0
   10.2130    6.0070    7.5560 H   0  0  0  0  0  0  0  0  0  0  0  0
   10.7980    7.6380    8.1460 H   0  0  0  0  0  0  0  0  0  0  0  0
   13.8450    0.5760    6.6720 H   0  0  0  0  0  0  0  0  0  0  0  0
   14.9400    0.1440    8.0330 H   0  0  0  0  0  0  0  0  0  0  0  0
   13.7110   -1.0430    7.5110 H   0  0  0  0  0  0  0  0  0  0  0  0
    8.9080    0.7400    8.2720 H   0  0  0  0  0  0  0  0  0  0  0  0
    9.2490   -0.8610    9.1190 H   0  0  0  0  0  0  0  0  0  0  0  0
    8.7560    0.6100   10.0330 H   0  0  0  0  0  0  0  0  0  0  0  0
  2  1  1  0  0  0  0
  3  2  1  0  0  0  0
  3 31  1  0  0  0  0
  4 11  1  0  0  0  0
  4  3  2  0  0  0  0
  5  6  2  0  0  0  0
  5  4  1  0  0  0  0
  6  7  1  0  0  0  0
  7 33  1  0  0  0  0
  7  2  2  0  0  0  0
  8  5  1  0  0  0  0
  9  8  1  0  0  0  0
  9 10  2  0  0  0  0
 10 11  1  0  0  0  0
 11 34  1  1  0  0  0
 12 11  1  0  0  0  0
 12 18  1  0  0  0  0
 13 12  1  0  0  0  0
 14 13  1  0  0  0  0
 14 15  1  0  0  0  0
 15 17  1  0  0  0  0
 16 15  2  0  0  0  0
 17 18  1  0  0  0  0
 17 20  1  0  0  0  0
 18 19  2  0  0  0  0
 20 35  1  0  0  0  0
 21 40  1  0  0  0  0
 21 14  1  0  0  0  0
 22 13  2  0  0  0  0
 23 10  1  0  0  0  0
 23 24  2  0  0  0  0
 25 23  1  0  0  0  0
 26 28  1  0  0  0  0
 26 25  1  0  0  0  0
 27 26  2  0  0  0  0
 28  9  1  0  0  0  0
 29 42  1  0  0  0  0
 29 28  1  0  0  0  0
 30 25  1  0  0  0  0
 30 46  1  0  0  0  0
 32  6  1  0  0  0  0
 36 20  1  0  0  0  0
 37 20  1  0  0  0  0
 38 21  1  0  0  0  0
 39 21  1  0  0  0  0
 41 29  1  0  0  0  0
 43 29  1  0  0  0  0
 44 30  1  0  0  0  0
 45 30  1  0  0  0  0
M  END
>  <Pose>
1

>  <Score>
-6.30

$$$$
