
 OpenBabel03172210413D

 57 60  0  0  0  0  0  0  0  0999 V2000
   16.6120    8.9280   12.8020 Cl  0  0  0  0  0  0  0  0  0  0  0  0
   15.5530    7.5470   12.6430 C   0  0  0  0  0  0  0  0  0  0  0  0
   14.2910    7.6800   12.1100 C   0  0  0  0  0  0  0  0  0  0  0  0
   13.4730    6.5860   11.9940 C   0  0  0  0  0  0  0  0  0  0  0  0
   13.9300    5.3320   12.4190 C   0  0  0  0  0  0  0  0  0  0  0  0
   15.1990    5.1900   12.9570 C   0  0  0  0  0  0  0  0  0  0  0  0
   15.9840    6.3050   13.0570 C   0  0  0  0  0  0  0  0  0  0  0  0
   13.2300    4.1370   12.3700 O   0  0  0  0  0  0  0  0  0  0  0  0
   12.1610    3.7970   11.5190 C   0  0  0  0  0  0  0  0  0  0  0  0
   10.9440    4.6250   11.7760 C   0  0  0  0  0  0  0  0  0  0  0  0
   11.1870    6.0130   12.0280 N   0  0  0  0  0  0  0  0  0  0  0  0
   12.1450    6.8870   11.4010 C   0  0  0  0  0  0  0  0  0  0  0  0
   10.3930    6.6590   13.0360 C   0  0  0  0  0  0  0  0  0  0  0  0
   10.6830    6.4100   14.2320 O   0  0  0  0  0  0  0  0  0  0  0  0
    9.2990    7.5640   12.6890 C   0  0  0  0  0  0  0  0  0  0  0  0
    8.6340    8.2310   13.7480 N   0  0  0  0  0  0  0  0  0  0  0  0
    7.8040    7.3150   14.5350 C   0  0  0  0  0  0  0  0  0  0  0  0
    6.7750    6.7340   13.6390 C   0  0  0  0  0  0  0  0  0  0  0  0
    6.0470    7.6870   12.7510 C   0  0  0  0  0  0  0  0  0  0  0  0
    6.6050    9.0490   12.6180 C   0  0  0  0  0  0  0  0  0  0  0  0
    7.8330    9.3730   13.3810 C   0  0  0  0  0  0  0  0  0  0  0  0
    5.7750    7.0920   11.4200 C   0  0  0  0  0  0  0  0  0  0  0  0
    5.5970    7.8430   10.4390 O   0  0  0  0  0  0  0  0  0  0  0  0
    5.7160    5.6900   11.2710 N   0  0  0  0  0  0  0  0  0  0  0  0
   12.6210    3.8650   10.0720 C   0  0  0  0  0  0  0  0  0  0  0  0
   13.1370    2.5100    9.6200 C   0  0  0  0  0  0  0  0  0  0  0  0
   12.1390    1.5570    9.5630 O   0  0  0  0  0  0  0  0  0  0  0  0
   11.1280    1.8410   10.4740 C   0  0  0  0  0  0  0  0  0  0  0  0
   11.7630    2.3380   11.7580 C   0  0  0  0  0  0  0  0  0  0  0  0
   13.9280    8.6410   11.7780 H   0  0  0  0  0  0  0  0  0  0  0  0
   15.5090    4.2050   13.2730 H   0  0  0  0  0  0  0  0  0  0  0  0
   16.9850    6.2350   13.4740 H   0  0  0  0  0  0  0  0  0  0  0  0
   10.2640    4.5330   10.8900 H   0  0  0  0  0  0  0  0  0  0  0  0
   10.3960    4.1470   12.6300 H   0  0  0  0  0  0  0  0  0  0  0  0
   12.1550    6.8130   10.2960 H   0  0  0  0  0  0  0  0  0  0  0  0
   11.9250    7.9570   11.6310 H   0  0  0  0  0  0  0  0  0  0  0  0
    8.5180    6.9310   12.1700 H   0  0  0  0  0  0  0  0  0  0  0  0
    9.6630    8.2440   11.8740 H   0  0  0  0  0  0  0  0  0  0  0  0
    8.4270    6.5230   14.9470 H   0  0  0  0  0  0  0  0  0  0  0  0
    7.2970    7.9370   15.3070 H   0  0  0  0  0  0  0  0  0  0  0  0
    7.2270    5.9430   12.9760 H   0  0  0  0  0  0  0  0  0  0  0  0
    6.0820    6.1320   14.3010 H   0  0  0  0  0  0  0  0  0  0  0  0
    5.0160    7.7910   13.2180 H   0  0  0  0  0  0  0  0  0  0  0  0
    5.8050    9.8320   12.7850 H   0  0  0  0  0  0  0  0  0  0  0  0
    6.8630    9.2120   11.5260 H   0  0  0  0  0  0  0  0  0  0  0  0
    8.4810   10.1490   12.9620 H   0  0  0  0  0  0  0  0  0  0  0  0
    7.4860    9.8090   14.3680 H   0  0  0  0  0  0  0  0  0  0  0  0
    5.0280    5.1890   11.9070 H   0  0  0  0  0  0  0  0  0  0  0  0
    6.2660    5.1210   10.6170 H   0  0  0  0  0  0  0  0  0  0  0  0
   13.4960    4.5580   10.0020 H   0  0  0  0  0  0  0  0  0  0  0  0
   11.8040    4.1540    9.3910 H   0  0  0  0  0  0  0  0  0  0  0  0
   13.5440    2.6340    8.5930 H   0  0  0  0  0  0  0  0  0  0  0  0
   13.9410    2.1610   10.2930 H   0  0  0  0  0  0  0  0  0  0  0  0
   10.4900    2.6280   10.0070 H   0  0  0  0  0  0  0  0  0  0  0  0
   10.4810    0.9600   10.6410 H   0  0  0  0  0  0  0  0  0  0  0  0
   12.6860    1.7370   11.9030 H   0  0  0  0  0  0  0  0  0  0  0  0
   11.1020    2.2370   12.6290 H   0  0  0  0  0  0  0  0  0  0  0  0
  2  1  1  0  0  0  0
  2  7  1  0  0  0  0
  3  2  2  0  0  0  0
  4  3  1  0  0  0  0
  4  5  2  0  0  0  0
  5  6  1  0  0  0  0
  6  7  2  0  0  0  0
  6 31  1  0  0  0  0
  7 32  1  0  0  0  0
  8  5  1  0  0  0  0
  9 29  1  0  0  0  0
  9 10  1  0  0  0  0
  9  8  1  0  0  0  0
 10 11  1  0  0  0  0
 10 34  1  0  0  0  0
 11 13  1  0  0  0  0
 12 36  1  0  0  0  0
 12  4  1  0  0  0  0
 12 11  1  0  0  0  0
 13 14  2  0  0  0  0
 15 13  1  0  0  0  0
 15 16  1  0  0  0  0
 16 17  1  0  0  0  0
 17 39  1  0  0  0  0
 17 40  1  0  0  0  0
 18 42  1  0  0  0  0
 18 17  1  0  0  0  0
 19 43  1  0  0  0  0
 19 18  1  0  0  0  0
 20 19  1  0  0  0  0
 20 44  1  0  0  0  0
 20 21  1  0  0  0  0
 21 16  1  0  0  0  0
 21 47  1  0  0  0  0
 22 19  1  0  0  0  0
 23 22  2  0  0  0  0
 24 22  1  0  0  0  0
 24 48  1  0  0  0  0
 25  9  1  0  0  0  0
 26 25  1  0  0  0  0
 26 53  1  0  0  0  0
 27 26  1  0  0  0  0
 27 28  1  0  0  0  0
 28 55  1  0  0  0  0
 28 29  1  0  0  0  0
 29 56  1  0  0  0  0
 29 57  1  0  0  0  0
 30  3  1  0  0  0  0
 33 10  1  0  0  0  0
 35 12  1  0  0  0  0
 37 15  1  0  0  0  0
 38 15  1  0  0  0  0
 41 18  1  0  0  0  0
 45 20  1  0  0  0  0
 46 21  1  0  0  0  0
 49 24  1  0  0  0  0
 50 25  1  0  0  0  0
 51 25  1  0  0  0  0
 52 26  1  0  0  0  0
 54 28  1  0  0  0  0
M  END
>  <Pose>
1

>  <Score>
-5.95

$$$$
