
 OpenBabel03172210413D

 43 46  0  0  0  0  0  0  0  0999 V2000
    4.1990    8.9130   13.8250 S   0  0  0  0  0  0  0  0  0  0  0  0
    3.9250   10.3540   13.6200 O   0  0  0  0  0  0  0  0  0  0  0  0
    3.1070    8.0890   13.1800 O   0  0  0  0  0  0  0  0  0  0  0  0
    5.6860    8.4690   13.1480 N   0  0  0  0  0  0  0  0  0  0  0  0
    6.0090    7.0810   13.2770 C   0  0  0  0  0  0  0  0  0  0  0  0
    7.1510    6.6500   12.3950 C   0  0  0  0  0  0  0  0  0  0  0  0
    8.1660    7.6720   12.2700 N   0  0  0  0  0  0  0  0  0  0  0  0
    8.1030    8.9410   12.9440 C   0  0  0  0  0  0  0  0  0  0  0  0
    6.7540    9.3740   13.3790 C   0  0  0  0  0  0  0  0  0  0  0  0
    9.2860    7.4050   11.4380 C   0  0  0  0  0  0  0  0  0  0  0  0
    9.6150    8.2020   10.4970 O   0  0  0  0  0  0  0  0  0  0  0  0
   10.1000    6.2060   11.6350 C   0  0  0  0  0  0  0  0  0  0  0  0
   10.4560    5.7290   12.8810 C   0  0  0  0  0  0  0  0  0  0  0  0
   11.2070    4.6170   12.9850 N   0  0  0  0  0  0  0  0  0  0  0  0
   11.6460    3.9180   11.9230 C   0  0  0  0  0  0  0  0  0  0  0  0
   11.3080    4.3690   10.7010 N   0  0  0  0  0  0  0  0  0  0  0  0
   11.7380    3.6820    9.6240 C   0  0  0  0  0  0  0  0  0  0  0  0
   12.5090    2.5430    9.7390 C   0  0  0  0  0  0  0  0  0  0  0  0
   12.8730    2.0530   10.9790 C   0  0  0  0  0  0  0  0  0  0  0  0
   12.4200    2.7740   12.0700 C   0  0  0  0  0  0  0  0  0  0  0  0
   10.5580    5.4780   10.5550 C   0  0  0  0  0  0  0  0  0  0  0  0
   10.2420    5.9000    9.4150 O   0  0  0  0  0  0  0  0  0  0  0  0
    4.2300    8.5450   15.5570 C   0  0  0  0  0  0  0  0  0  0  0  0
    4.0680    7.0450   16.3490 S   0  0  0  0  0  0  0  0  0  0  0  0
    4.2130    7.5740   17.9640 C   0  0  0  0  0  0  0  0  0  0  0  0
    4.3860    8.9240   17.8320 C   0  0  0  0  0  0  0  0  0  0  0  0
    4.3950    9.4280   16.5940 C   0  0  0  0  0  0  0  0  0  0  0  0
    4.1600    6.6390   19.4720 Cl  0  0  0  0  0  0  0  0  0  0  0  0
    6.3090    6.8880   14.3270 H   0  0  0  0  0  0  0  0  0  0  0  0
    5.0930    6.4950   13.0690 H   0  0  0  0  0  0  0  0  0  0  0  0
    7.6110    5.7010   12.7280 H   0  0  0  0  0  0  0  0  0  0  0  0
    6.7300    6.4750   11.3850 H   0  0  0  0  0  0  0  0  0  0  0  0
    8.4900    9.7020   12.2040 H   0  0  0  0  0  0  0  0  0  0  0  0
    8.8510    8.9740   13.7780 H   0  0  0  0  0  0  0  0  0  0  0  0
    6.7960    9.5620   14.4910 H   0  0  0  0  0  0  0  0  0  0  0  0
    6.4580   10.3700   12.9350 H   0  0  0  0  0  0  0  0  0  0  0  0
   10.1080    6.2830   13.7440 H   0  0  0  0  0  0  0  0  0  0  0  0
   11.4620    4.0520    8.6400 H   0  0  0  0  0  0  0  0  0  0  0  0
   12.8560    1.9900    8.8670 H   0  0  0  0  0  0  0  0  0  0  0  0
   13.4750    1.1630   11.1060 H   0  0  0  0  0  0  0  0  0  0  0  0
   12.6930    2.4080   13.0520 H   0  0  0  0  0  0  0  0  0  0  0  0
    4.5120    9.5530   18.7390 H   0  0  0  0  0  0  0  0  0  0  0  0
    4.5280   10.5090   16.3580 H   0  0  0  0  0  0  0  0  0  0  0  0
  1 23  1  0  0  0  0
  2  1  2  0  0  0  0
  3  1  2  0  0  0  0
  4  5  1  0  0  0  0
  4  9  1  0  0  0  0
  4  1  1  0  0  0  0
  5 29  1  0  0  0  0
  6 31  1  0  0  0  0
  6  5  1  0  0  0  0
  7  6  1  0  0  0  0
  7  8  1  0  0  0  0
  8  9  1  0  0  0  0
  8 34  1  0  0  0  0
  9 35  1  0  0  0  0
 10 12  1  0  0  0  0
 10  7  1  0  0  0  0
 11 10  2  0  0  0  0
 12 13  2  0  0  0  0
 13 14  1  0  0  0  0
 13 37  1  0  0  0  0
 15 20  1  0  0  0  0
 15 14  2  0  0  0  0
 16 15  1  0  0  0  0
 17 18  2  0  0  0  0
 17 16  1  0  0  0  0
 18 19  1  0  0  0  0
 19 40  1  0  0  0  0
 19 20  2  0  0  0  0
 20 41  1  0  0  0  0
 21 16  1  0  0  0  0
 21 12  1  0  0  0  0
 22 21  2  0  0  0  0
 23 24  1  0  0  0  0
 23 27  2  0  0  0  0
 24 25  1  0  0  0  0
 25 28  1  0  0  0  0
 26 25  2  0  0  0  0
 26 42  1  0  0  0  0
 27 26  1  0  0  0  0
 30  5  1  0  0  0  0
 32  6  1  0  0  0  0
 33  8  1  0  0  0  0
 36  9  1  0  0  0  0
 38 17  1  0  0  0  0
 39 18  1  0  0  0  0
 43 27  1  0  0  0  0
M  END
>  <Pose>
1

>  <Score>
-6.46

$$$$
