
 OpenBabel03172210413D

 41 44  0  0  0  0  0  0  0  0999 V2000
   19.0930    6.3800    9.8150 B   0  0  0  0  0  0  0  0  0  0  0  0
   17.9950    6.0800   11.3590 C   0  0  0  0  0  0  0  0  0  0  0  0
   16.7100    5.6320   11.2220 C   0  0  0  0  0  0  0  0  0  0  0  0
   15.9220    5.4170   12.3510 C   0  0  0  0  0  0  0  0  0  0  0  0
   16.5030    5.6770   13.5750 C   0  0  0  0  0  0  0  0  0  0  0  0
   17.7860    6.1240   13.6990 C   0  0  0  0  0  0  0  0  0  0  0  0
   18.5800    6.3410   12.5850 C   0  0  0  0  0  0  0  0  0  0  0  0
   15.6830    5.4520   14.7020 O   0  0  0  0  0  0  0  0  0  0  0  0
   16.0240    5.9880   15.9670 C   0  0  0  0  0  0  0  0  0  0  0  0
   14.5250    5.0180   12.2180 C   0  0  0  0  0  0  0  0  0  0  0  0
   13.9130    4.0750   11.5080 N   0  0  0  0  0  0  0  0  0  0  0  0
   12.5670    4.1220   11.7350 C   0  0  0  0  0  0  0  0  0  0  0  0
   12.3920    5.1380   12.6120 N   0  0  0  0  0  0  0  0  0  0  0  0
   13.5430    5.6780   12.9080 N   0  0  0  0  0  0  0  0  0  0  0  0
   11.9340    3.1770   11.0220 N   0  0  0  0  0  0  0  0  0  0  0  0
   12.8310    2.4970   10.3170 C   0  0  0  0  0  0  0  0  0  0  0  0
   14.0800    3.0630   10.6200 C   0  0  0  0  0  0  0  0  0  0  0  0
   15.1830    2.5780   10.0350 N   0  0  0  0  0  0  0  0  0  0  0  0
   15.0420    1.5420    9.1640 C   0  0  0  0  0  0  0  0  0  0  0  0
   16.1050    1.1020    8.6260 O   0  0  0  0  0  0  0  0  0  0  0  0
   13.8840    0.9710    8.8460 N   0  0  0  0  0  0  0  0  0  0  0  0
   12.7820    1.4530    9.4240 C   0  0  0  0  0  0  0  0  0  0  0  0
   11.6600    0.9490    9.1580 O   0  0  0  0  0  0  0  0  0  0  0  0
   13.8170   -0.1500    7.8920 C   0  0  0  0  0  0  0  0  0  0  0  0
   16.4850    3.1310   10.2700 C   0  0  0  0  0  0  0  0  0  0  0  0
   10.5090    2.9200   11.0060 C   0  0  0  0  0  0  0  0  0  0  0  0
   16.2750    5.4350   10.2520 H   0  0  0  0  0  0  0  0  0  0  0  0
   18.1930    6.3130   14.7010 H   0  0  0  0  0  0  0  0  0  0  0  0
   19.5960    6.6940   12.6840 H   0  0  0  0  0  0  0  0  0  0  0  0
   15.3740    5.4750   16.7140 H   0  0  0  0  0  0  0  0  0  0  0  0
   17.0770    5.8020   16.2320 H   0  0  0  0  0  0  0  0  0  0  0  0
   15.8440    7.0620   16.0500 H   0  0  0  0  0  0  0  0  0  0  0  0
   13.9200    0.1830    6.8580 H   0  0  0  0  0  0  0  0  0  0  0  0
   14.6700   -0.8320    8.1600 H   0  0  0  0  0  0  0  0  0  0  0  0
   12.9030   -0.7120    8.1130 H   0  0  0  0  0  0  0  0  0  0  0  0
   17.1760    2.6590    9.4750 H   0  0  0  0  0  0  0  0  0  0  0  0
   16.9470    2.8230   11.1990 H   0  0  0  0  0  0  0  0  0  0  0  0
   16.5060    4.1780    9.9980 H   0  0  0  0  0  0  0  0  0  0  0  0
   10.1860    2.6650    9.9670 H   0  0  0  0  0  0  0  0  0  0  0  0
   10.3140    2.0490   11.6650 H   0  0  0  0  0  0  0  0  0  0  0  0
    9.9170    3.8170   11.2890 H   0  0  0  0  0  0  0  0  0  0  0  0
  1  2  1  0  0  0  0
  2  7  1  0  0  0  0
  3  2  2  0  0  0  0
  3  4  1  0  0  0  0
  4  5  2  0  0  0  0
  5  6  1  0  0  0  0
  5  8  1  0  0  0  0
  6 28  1  0  0  0  0
  7 29  1  0  0  0  0
  7  6  2  0  0  0  0
  8  9  1  0  0  0  0
  9 32  1  0  0  0  0
  9 31  1  0  0  0  0
  9 30  1  0  0  0  0
 10  4  1  0  0  0  0
 10 14  2  0  0  0  0
 11 12  1  0  0  0  0
 11 10  1  0  0  0  0
 12 13  2  0  0  0  0
 13 14  1  0  0  0  0
 15 12  1  0  0  0  0
 16 17  2  0  0  0  0
 16 15  1  0  0  0  0
 17 11  1  0  0  0  0
 18 25  1  0  0  0  0
 18 17  1  0  0  0  0
 19 18  1  0  0  0  0
 20 19  2  0  0  0  0
 21 19  1  0  0  0  0
 21 22  1  0  0  0  0
 22 16  1  0  0  0  0
 23 22  2  0  0  0  0
 24 35  1  0  0  0  0
 24 34  1  0  0  0  0
 24 21  1  0  0  0  0
 25 37  1  0  0  0  0
 26 15  1  0  0  0  0
 26 41  1  0  0  0  0
 26 40  1  0  0  0  0
 27  3  1  0  0  0  0
 33 24  1  0  0  0  0
 36 25  1  0  0  0  0
 38 25  1  0  0  0  0
 39 26  1  0  0  0  0
M  END
>  <Pose>
1

>  <Score>
-5.59

$$$$
