
 OpenBabel03172210413D

 40 43  0  0  0  0  0  0  0  0999 V2000
    3.4480    8.8660   19.1890 Cl  0  0  0  0  0  0  0  0  0  0  0  0
    4.1330    8.3790   17.6480 C   0  0  0  0  0  0  0  0  0  0  0  0
    5.2940    7.6350   17.5560 C   0  0  0  0  0  0  0  0  0  0  0  0
    5.8160    7.2630   16.3580 N   0  0  0  0  0  0  0  0  0  0  0  0
    5.2430    7.5910   15.1880 C   0  0  0  0  0  0  0  0  0  0  0  0
    5.7520    7.2280   13.9960 N   0  0  0  0  0  0  0  0  0  0  0  0
    6.8820    6.5040   13.8980 C   0  0  0  0  0  0  0  0  0  0  0  0
    7.4840    6.1580   15.1090 C   0  0  0  0  0  0  0  0  0  0  0  0
    6.9530    6.5360   16.3230 C   0  0  0  0  0  0  0  0  0  0  0  0
    7.5070    6.2190   17.4250 O   0  0  0  0  0  0  0  0  0  0  0  0
    7.4820    6.0790   12.6070 C   0  0  0  0  0  0  0  0  0  0  0  0
    8.8050    6.5760   12.5210 N   0  0  0  0  0  0  0  0  0  0  0  0
    9.0850    7.5430   11.5280 C   0  0  0  0  0  0  0  0  0  0  0  0
   10.5190    7.5260   11.0210 C   0  0  0  0  0  0  0  0  0  0  0  0
   10.8150    6.1070   10.6870 C   0  0  0  0  0  0  0  0  0  0  0  0
   10.4710    5.1800   11.6480 C   0  0  0  0  0  0  0  0  0  0  0  0
   10.7190    3.8870   11.3920 N   0  0  0  0  0  0  0  0  0  0  0  0
   11.2950    3.5120   10.2080 C   0  0  0  0  0  0  0  0  0  0  0  0
   11.6180    4.4510    9.2880 N   0  0  0  0  0  0  0  0  0  0  0  0
   11.3950    5.7690    9.4850 C   0  0  0  0  0  0  0  0  0  0  0  0
   11.5730    2.0820    9.9120 C   0  0  0  0  0  0  0  0  0  0  0  0
    9.8540    5.6890   12.8970 C   0  0  0  0  0  0  0  0  0  0  0  0
    4.0740    8.3390   15.2500 C   0  0  0  0  0  0  0  0  0  0  0  0
    3.5280    8.7260   16.4580 C   0  0  0  0  0  0  0  0  0  0  0  0
    5.7810    7.3550   18.4930 H   0  0  0  0  0  0  0  0  0  0  0  0
    8.3900    5.5790   15.0680 H   0  0  0  0  0  0  0  0  0  0  0  0
    7.4820    4.9650   12.6090 H   0  0  0  0  0  0  0  0  0  0  0  0
    6.8370    6.4550   11.7970 H   0  0  0  0  0  0  0  0  0  0  0  0
    8.8370    8.5840   11.8240 H   0  0  0  0  0  0  0  0  0  0  0  0
    8.4660    7.3020   10.6150 H   0  0  0  0  0  0  0  0  0  0  0  0
   11.1550    7.8370   11.8970 H   0  0  0  0  0  0  0  0  0  0  0  0
   10.6280    8.1820   10.1610 H   0  0  0  0  0  0  0  0  0  0  0  0
   11.6660    6.4930    8.7300 H   0  0  0  0  0  0  0  0  0  0  0  0
   11.5660    1.5260   10.8690 H   0  0  0  0  0  0  0  0  0  0  0  0
   10.7290    1.7230    9.2700 H   0  0  0  0  0  0  0  0  0  0  0  0
   12.5510    1.9580    9.4090 H   0  0  0  0  0  0  0  0  0  0  0  0
   10.6210    6.1650   13.5560 H   0  0  0  0  0  0  0  0  0  0  0  0
    9.4070    4.8460   13.4650 H   0  0  0  0  0  0  0  0  0  0  0  0
    3.6010    8.6100   14.3040 H   0  0  0  0  0  0  0  0  0  0  0  0
    2.6070    9.3150   16.4970 H   0  0  0  0  0  0  0  0  0  0  0  0
  2  1  1  0  0  0  0
  3  2  1  0  0  0  0
  3 25  1  0  0  0  0
  4  3  1  0  0  0  0
  5 23  2  0  0  0  0
  5  4  1  0  0  0  0
  6  5  1  0  0  0  0
  7  6  2  0  0  0  0
  7  8  1  0  0  0  0
  8  9  1  0  0  0  0
  9  4  1  0  0  0  0
  9 10  2  0  0  0  0
 11 27  1  0  0  0  0
 11  7  1  0  0  0  0
 12 11  1  0  0  0  0
 12 22  1  0  0  0  0
 13 29  1  0  0  0  0
 13 12  1  0  0  0  0
 14 13  1  0  0  0  0
 14 31  1  0  0  0  0
 15 14  1  0  0  0  0
 15 16  2  0  0  0  0
 16 22  1  0  0  0  0
 17 16  1  0  0  0  0
 18 17  2  0  0  0  0
 19 20  2  0  0  0  0
 19 18  1  0  0  0  0
 20 15  1  0  0  0  0
 21 18  1  0  0  0  0
 21 34  1  0  0  0  0
 22 38  1  0  0  0  0
 22 37  1  0  0  0  0
 23 24  1  0  0  0  0
 24 40  1  0  0  0  0
 24  2  2  0  0  0  0
 26  8  1  0  0  0  0
 28 11  1  0  0  0  0
 30 13  1  0  0  0  0
 32 14  1  0  0  0  0
 33 20  1  0  0  0  0
 35 21  1  0  0  0  0
 36 21  1  0  0  0  0
 39 23  1  0  0  0  0
M  END
>  <Pose>
1

>  <Score>
-5.40

$$$$
