
 OpenBabel03172210413D

 48 51  0  0  0  0  0  0  0  0999 V2000
   15.0310    7.6080   12.1810 B   0  0  0  0  0  0  0  0  0  0  0  0
   16.1650    6.0950   11.9440 C   0  0  0  0  0  0  0  0  0  0  0  0
   15.9230    5.0640   11.0840 C   0  0  0  0  0  0  0  0  0  0  0  0
   16.7600    3.9800   10.9290 C   0  0  0  0  0  0  0  0  0  0  0  0
   17.9190    3.9600   11.7110 C   0  0  0  0  0  0  0  0  0  0  0  0
   18.2130    4.9660   12.5900 C   0  0  0  0  0  0  0  0  0  0  0  0
   17.3300    6.0340   12.7030 C   0  0  0  0  0  0  0  0  0  0  0  0
   18.7770    2.8870   11.5720 O   0  0  0  0  0  0  0  0  0  0  0  0
   20.1660    3.0890   11.5360 C   0  0  0  0  0  0  0  0  0  0  0  0
   16.4890    2.9000    9.9950 C   0  0  0  0  0  0  0  0  0  0  0  0
   15.3260    2.3620    9.7500 C   0  0  0  0  0  0  0  0  0  0  0  0
   14.1400    2.7470   10.3540 O   0  0  0  0  0  0  0  0  0  0  0  0
   13.0670    2.0020    9.9030 C   0  0  0  0  0  0  0  0  0  0  0  0
   13.4780    1.0760    8.9720 C   0  0  0  0  0  0  0  0  0  0  0  0
   12.5630    0.2240    8.3910 C   0  0  0  0  0  0  0  0  0  0  0  0
   11.2350    0.3080    8.7520 C   0  0  0  0  0  0  0  0  0  0  0  0
   10.8400    1.2640    9.7080 C   0  0  0  0  0  0  0  0  0  0  0  0
   11.7250    2.1160   10.2930 C   0  0  0  0  0  0  0  0  0  0  0  0
   11.3760    3.1230   11.2580 C   0  0  0  0  0  0  0  0  0  0  0  0
   10.2640    3.9690   11.1100 N   0  0  0  0  0  4  0  0  0  0  0  0
   10.0080    4.8650   12.2050 C   0  0  0  0  0  0  0  0  0  0  0  0
   10.8420    6.1220   12.1800 C   0  0  0  0  0  0  0  0  0  0  0  0
   11.7970    6.1350   11.1720 O   0  0  0  0  0  0  0  0  0  0  0  0
   11.1030    6.0050    9.9740 C   0  0  0  0  0  0  0  0  0  0  0  0
   10.3100    4.7450    9.8570 C   0  0  0  0  0  0  0  0  0  0  0  0
    9.4620    1.2320    9.9760 O   0  0  0  0  0  0  0  0  0  0  0  0
   14.9260    1.2790    8.8470 C   0  0  0  0  0  0  0  0  0  0  0  0
   15.7020    0.6420    8.1020 O   0  0  0  0  0  0  0  0  0  0  0  0
   15.0070    5.1160   10.4880 H   0  0  0  0  0  0  0  0  0  0  0  0
   19.1040    4.9960   13.2260 H   0  0  0  0  0  0  0  0  0  0  0  0
   17.5560    6.8490   13.4060 H   0  0  0  0  0  0  0  0  0  0  0  0
   20.6650    2.2190   11.0070 H   0  0  0  0  0  0  0  0  0  0  0  0
   20.5670    3.0810   12.5810 H   0  0  0  0  0  0  0  0  0  0  0  0
   20.4730    3.9840   10.9560 H   0  0  0  0  0  0  0  0  0  0  0  0
   17.3420    2.4850    9.4340 H   0  0  0  0  0  0  0  0  0  0  0  0
   12.9000   -0.5040    7.6540 H   0  0  0  0  0  0  0  0  0  0  0  0
   10.4750   -0.3310    8.3320 H   0  0  0  0  0  0  0  0  0  0  0  0
   11.2850    2.6860   12.3150 H   0  0  0  0  0  0  0  0  0  0  0  0
   12.2670    3.8380   11.4380 H   0  0  0  0  0  0  0  0  0  0  0  0
    9.4090    3.3890   10.9780 H   0  0  0  0  0  0  0  0  0  0  0  0
    8.9360    5.2030   12.0740 H   0  0  0  0  0  0  0  0  0  0  0  0
   10.0490    4.3560   13.1670 H   0  0  0  0  0  0  0  0  0  0  0  0
   10.2200    7.0510   12.0280 H   0  0  0  0  0  0  0  0  0  0  0  0
   11.3210    6.2690   13.1690 H   0  0  0  0  0  0  0  0  0  0  0  0
   11.8910    5.9590    9.1650 H   0  0  0  0  0  0  0  0  0  0  0  0
   10.4960    6.9360    9.7840 H   0  0  0  0  0  0  0  0  0  0  0  0
   10.6610    4.0780    9.0420 H   0  0  0  0  0  0  0  0  0  0  0  0
    9.2730    5.0260    9.5790 H   0  0  0  0  0  0  0  0  0  0  0  0
  2  1  1  0  0  0  0
  2  7  1  0  0  0  0
  3  2  2  0  0  0  0
  4  3  1  0  0  0  0
  4  5  2  0  0  0  0
  5  6  1  0  0  0  0
  6  7  2  0  0  0  0
  6 30  1  0  0  0  0
  7 31  1  0  0  0  0
  8  5  1  0  0  0  0
  9  8  1  0  0  0  0
  9 33  1  0  0  0  0
 10  4  1  0  0  0  0
 11 10  2  0  0  0  0
 11 12  1  0  0  0  0
 13 18  1  0  0  0  0
 13 12  1  0  0  0  0
 14 13  2  0  0  0  0
 15 16  2  0  0  0  0
 15 14  1  0  0  0  0
 16 17  1  0  0  0  0
 17 26  1  0  0  0  0
 17 18  2  0  0  0  0
 18 19  1  0  0  0  0
 19 39  1  0  0  0  0
 19 38  1  0  0  0  0
 20 19  1  0  0  0  0
 20 21  1  0  0  0  0
 21 42  1  0  0  0  0
 22 21  1  0  0  0  0
 22 44  1  0  0  0  0
 23 22  1  0  0  0  0
 24 23  1  0  0  0  0
 25 24  1  0  0  0  0
 25 20  1  0  0  0  0
 27 14  1  0  0  0  0
 27 11  1  0  0  0  0
 28 27  2  0  0  0  0
 29  3  1  0  0  0  0
 32  9  1  0  0  0  0
 34  9  1  0  0  0  0
 35 10  1  0  0  0  0
 36 15  1  0  0  0  0
 37 16  1  0  0  0  0
 40 20  1  0  0  0  0
 41 21  1  0  0  0  0
 43 22  1  0  0  0  0
 45 24  1  0  0  0  0
 46 24  1  0  0  0  0
 47 25  1  0  0  0  0
 48 25  1  0  0  0  0
M  END
>  <Pose>
1

>  <Score>
-6.44

$$$$
