
 OpenBabel03172210413D

 49 52  0  0  1  0  0  0  0  0999 V2000
    8.7690    7.0050   14.6890 S   0  0  0  0  0  0  0  0  0  0  0  0
    8.3030    5.9320   15.6460 O   0  0  0  0  0  0  0  0  0  0  0  0
    9.1550    8.1870   15.5110 O   0  0  0  0  0  0  0  0  0  0  0  0
   10.1020    6.3520   13.8210 N   0  0  0  0  0  0  0  0  0  0  0  0
   10.6380    7.3470   12.9130 C   0  0  0  0  0  0  0  0  0  0  0  0
   11.6560    6.7130   11.9740 C   0  0  0  0  0  0  0  0  0  0  0  0
   10.9670    5.6750   11.2070 N   0  0  0  0  0  0  0  0  0  0  0  0
    9.6560    5.3430   11.6790 C   0  0  0  0  0  0  0  0  0  0  0  0
    9.7420    5.1310   13.1680 C   0  0  0  0  0  0  0  0  0  0  0  0
   11.6040    5.1080   10.0990 C   0  0  0  0  0  0  0  0  0  0  0  0
   11.5380    5.7240    8.9590 O   0  0  0  0  0  0  0  0  0  0  0  0
   12.3690    3.8590   10.0250 C   0  0  0  0  0  0  0  0  0  0  0  0
   11.3740    2.3750   10.0810 S   0  0  0  0  0  0  0  0  0  0  0  0
   12.0230    1.0220    9.1150 C   0  0  1  0  0  0  0  0  0  0  0  0
   11.2630   -0.0110    8.7780 N   0  0  0  0  0  0  0  0  0  0  0  0
   11.6960   -1.0390    8.0420 C   0  0  0  0  0  0  0  0  0  0  0  0
   12.9960   -1.0240    7.6140 N   0  0  0  0  0  0  0  0  0  0  0  0
   13.7890    0.0030    7.9370 C   0  0  0  0  0  0  0  0  0  0  0  0
   15.0950    0.2610    7.6360 N   0  0  0  0  0  0  0  0  0  0  0  0
   15.4260    1.4130    8.1820 N   0  0  0  0  0  0  0  0  0  0  0  0
   14.3860    1.9340    8.8370 C   0  0  0  0  0  0  0  0  0  0  0  0
   13.3370    1.0640    8.7000 C   0  0  0  0  0  0  0  0  0  0  0  0
   15.9510   -0.5790    6.8510 C   0  0  0  0  0  0  0  0  0  0  0  0
    7.4850    7.4110   13.5720 C   0  0  0  0  0  0  0  0  0  0  0  0
    6.9670    8.6760   13.4140 C   0  0  0  0  0  0  0  0  0  0  0  0
    5.9510    8.9300   12.5250 C   0  0  0  0  0  0  0  0  0  0  0  0
    5.4200    7.8950   11.7550 C   0  0  0  0  0  0  0  0  0  0  0  0
    5.9370    6.6030   11.9060 C   0  0  0  0  0  0  0  0  0  0  0  0
    6.9560    6.3740   12.8030 C   0  0  0  0  0  0  0  0  0  0  0  0
    4.1310    8.2320   10.6300 Cl  0  0  0  0  0  0  0  0  0  0  0  0
   11.1730    8.0990   13.5090 H   0  0  0  0  0  0  0  0  0  0  0  0
    9.8620    7.8440   12.3270 H   0  0  0  0  0  0  0  0  0  0  0  0
   12.0020    7.5160   11.2910 H   0  0  0  0  0  0  0  0  0  0  0  0
   12.4580    6.3010   12.5920 H   0  0  0  0  0  0  0  0  0  0  0  0
    9.1830    4.4940   11.1510 H   0  0  0  0  0  0  0  0  0  0  0  0
    8.9860    6.2160   11.4470 H   0  0  0  0  0  0  0  0  0  0  0  0
    8.8510    4.6330   13.5720 H   0  0  0  0  0  0  0  0  0  0  0  0
   10.5790    4.3800   13.3070 H   0  0  0  0  0  0  0  0  0  0  0  0
   13.0530    3.8310   10.8980 H   0  0  0  0  0  0  0  0  0  0  0  0
   13.0310    3.7770    9.1370 H   0  0  0  0  0  0  0  0  0  0  0  0
   11.0420   -1.8550    7.7900 H   0  0  0  0  0  0  0  0  0  0  0  0
   14.3700    2.8600    9.3660 H   0  0  0  0  0  0  0  0  0  0  0  0
   15.4150   -1.0540    5.9830 H   0  0  0  0  0  0  0  0  0  0  0  0
   16.8130    0.0380    6.4720 H   0  0  0  0  0  0  0  0  0  0  0  0
   16.3400   -1.3820    7.5060 H   0  0  0  0  0  0  0  0  0  0  0  0
    7.3780    9.4730   14.0050 H   0  0  0  0  0  0  0  0  0  0  0  0
    5.5270    9.9090   12.3750 H   0  0  0  0  0  0  0  0  0  0  0  0
    5.5000    5.8150   11.2940 H   0  0  0  0  0  0  0  0  0  0  0  0
    7.3530    5.3920   12.9220 H   0  0  0  0  0  0  0  0  0  0  0  0
  1  3  2  0  0  0  0
  1  2  2  0  0  0  0
  4  1  1  0  0  0  0
  5 31  1  0  0  0  0
  5  4  1  0  0  0  0
  6 34  1  0  0  0  0
  6  5  1  0  0  0  0
  7  8  1  0  0  0  0
  7  6  1  0  0  0  0
  8  9  1  0  0  0  0
  9 38  1  0  0  0  0
  9 37  1  0  0  0  0
  9  4  1  0  0  0  0
 10  7  1  0  0  0  0
 11 10  2  0  0  0  0
 12 13  1  0  0  0  0
 12 10  1  0  0  0  0
 12 39  1  0  0  0  0
 14 13  1  6  0  0  0
 15 14  1  0  0  0  0
 16 15  2  0  0  0  0
 17 18  1  0  0  0  0
 17 16  1  0  0  0  0
 18 22  2  0  0  0  0
 19 18  1  0  0  0  0
 19 20  1  0  0  0  0
 20 21  2  0  0  0  0
 21 42  1  0  0  0  0
 22 21  1  0  0  0  0
 22 14  1  0  0  0  0
 23 45  1  0  0  0  0
 23 19  1  0  0  0  0
 24  1  1  0  0  0  0
 25 24  1  0  0  0  0
 25 46  1  0  0  0  0
 26 25  2  0  0  0  0
 27 28  2  0  0  0  0
 27 26  1  0  0  0  0
 28 29  1  0  0  0  0
 29 49  1  0  0  0  0
 29 24  2  0  0  0  0
 30 27  1  0  0  0  0
 32  5  1  0  0  0  0
 33  6  1  0  0  0  0
 35  8  1  0  0  0  0
 36  8  1  0  0  0  0
 40 12  1  0  0  0  0
 41 16  1  0  0  0  0
 43 23  1  0  0  0  0
 44 23  1  0  0  0  0
 47 26  1  0  0  0  0
 48 28  1  0  0  0  0
M  END
>  <Pose>
1

>  <Score>
-8.53

$$$$
