
 OpenBabel03172210413D

 49 52  0  0  0  0  0  0  0  0999 V2000
   12.5200    7.4410   11.6120 S   0  0  0  0  0  0  0  0  0  0  0  0
   12.7010    6.6490   10.3240 O   0  0  0  0  0  0  0  0  0  0  0  0
   12.8500    8.8790   11.2270 O   0  0  0  0  0  0  0  0  0  0  0  0
   10.8960    7.3710   12.0330 N   0  0  0  0  0  0  0  0  0  0  0  0
   10.6160    6.8320   13.3410 C   0  0  0  0  0  0  0  0  0  0  0  0
    9.6830    5.6360   13.1640 C   0  0  0  0  0  0  0  0  0  0  0  0
   10.1000    4.8720   12.0490 N   0  0  0  0  0  0  0  0  0  0  0  0
    9.7280    5.5900   10.7500 C   0  0  0  0  0  0  0  0  0  0  0  0
    9.9710    7.0320   11.0160 C   0  0  0  0  0  0  0  0  0  0  0  0
   10.7850    3.6970   11.9410 C   0  0  0  0  0  0  0  0  0  0  0  0
   11.1810    3.2770   13.1920 O   0  0  0  0  0  0  0  0  0  0  0  0
   11.2270    2.7660   10.9790 C   0  0  0  0  0  0  0  0  0  0  0  0
   12.2910    2.4020   10.3430 C   0  0  0  0  0  0  0  0  0  0  0  0
   13.5450    3.0100   10.5030 N   0  0  0  0  0  0  0  0  0  0  0  0
   14.7320    2.5890    9.8630 N   0  0  0  0  0  0  0  0  0  0  0  0
   14.6820    1.4900    9.0000 C   0  0  0  0  0  0  0  0  0  0  0  0
   15.7320    1.1040    8.4220 O   0  0  0  0  0  0  0  0  0  0  0  0
   13.3920    0.8110    8.7900 C   0  0  0  0  0  0  0  0  0  0  0  0
   12.2340    1.2280    9.4210 C   0  0  0  0  0  0  0  0  0  0  0  0
   11.0870    0.5450    9.1720 C   0  0  0  0  0  0  0  0  0  0  0  0
   11.1000   -0.5480    8.2990 C   0  0  0  0  0  0  0  0  0  0  0  0
   12.2450   -0.9660    7.6700 C   0  0  0  0  0  0  0  0  0  0  0  0
   13.4070   -0.2700    7.9250 C   0  0  0  0  0  0  0  0  0  0  0  0
   13.6320    6.9510   12.8290 C   0  0  0  0  0  0  0  0  0  0  0  0
   14.5450    5.9520   12.6040 C   0  0  0  0  0  0  0  0  0  0  0  0
   15.4300    5.5750   13.5990 C   0  0  0  0  0  0  0  0  0  0  0  0
   15.4320    6.1750   14.8380 C   0  0  0  0  0  0  0  0  0  0  0  0
   14.5120    7.1850   15.0710 C   0  0  0  0  0  0  0  0  0  0  0  0
   13.6270    7.5550   14.0600 C   0  0  0  0  0  0  0  0  0  0  0  0
   16.5730    5.6600   16.0640 Cl  0  0  0  0  0  0  0  0  0  0  0  0
   11.5060    6.5830   13.9310 H   0  0  0  0  0  0  0  0  0  0  0  0
   10.0430    7.5940   13.9040 H   0  0  0  0  0  0  0  0  0  0  0  0
    8.6840    6.1460   12.8660 H   0  0  0  0  0  0  0  0  0  0  0  0
    9.4330    5.1070   14.0630 H   0  0  0  0  0  0  0  0  0  0  0  0
    8.6520    5.3610   10.6540 H   0  0  0  0  0  0  0  0  0  0  0  0
   10.2990    5.1440    9.9240 H   0  0  0  0  0  0  0  0  0  0  0  0
    8.9790    7.4940   11.2980 H   0  0  0  0  0  0  0  0  0  0  0  0
   10.2730    7.5790   10.0930 H   0  0  0  0  0  0  0  0  0  0  0  0
   10.3270    2.1080   10.6500 H   0  0  0  0  0  0  0  0  0  0  0  0
   13.6530    3.8440   11.0840 H   0  0  0  0  0  0  0  0  0  0  0  0
   15.6250    3.1300   10.0640 H   0  0  0  0  0  0  0  0  0  0  0  0
   10.1500    0.8140    9.6280 H   0  0  0  0  0  0  0  0  0  0  0  0
   10.1700   -1.0580    8.1320 H   0  0  0  0  0  0  0  0  0  0  0  0
   12.2710   -1.8130    6.9890 H   0  0  0  0  0  0  0  0  0  0  0  0
   14.3530   -0.5570    7.4520 H   0  0  0  0  0  0  0  0  0  0  0  0
   14.6240    5.4190   11.6650 H   0  0  0  0  0  0  0  0  0  0  0  0
   16.1670    4.7790   13.4380 H   0  0  0  0  0  0  0  0  0  0  0  0
   14.5030    7.6680   16.0460 H   0  0  0  0  0  0  0  0  0  0  0  0
   12.9340    8.3630   14.3320 H   0  0  0  0  0  0  0  0  0  0  0  0
  1  4  1  0  0  0  0
  1 24  1  0  0  0  0
  2  1  2  0  0  0  0
  3  1  2  0  0  0  0
  4  5  1  0  0  0  0
  5 32  1  0  0  0  0
  5 31  1  0  0  0  0
  6  5  1  0  0  0  0
  6 34  1  0  0  0  0
  7  6  1  0  0  0  0
  8  9  1  0  0  0  0
  8  7  1  0  0  0  0
  9 37  1  0  0  0  0
  9  4  1  0  0  0  0
 10  7  1  0  0  0  0
 10 11  2  0  0  0  0
 12 10  1  0  0  0  0
 13 14  1  0  0  0  0
 13 12  2  0  0  0  0
 14 40  1  0  0  0  0
 15 41  1  0  0  0  0
 15 14  1  0  0  0  0
 16 15  1  0  0  0  0
 17 16  2  0  0  0  0
 18 16  1  0  0  0  0
 18 19  1  0  0  0  0
 19 13  1  0  0  0  0
 20 19  2  0  0  0  0
 20 42  1  0  0  0  0
 21 20  1  0  0  0  0
 22 23  1  0  0  0  0
 22 21  2  0  0  0  0
 23 18  2  0  0  0  0
 24 29  1  0  0  0  0
 25 24  2  0  0  0  0
 25 26  1  0  0  0  0
 26 27  2  0  0  0  0
 27 28  1  0  0  0  0
 27 30  1  0  0  0  0
 28 48  1  0  0  0  0
 29 49  1  0  0  0  0
 29 28  2  0  0  0  0
 33  6  1  0  0  0  0
 35  8  1  0  0  0  0
 36  8  1  0  0  0  0
 38  9  1  0  0  0  0
 39 12  1  0  0  0  0
 43 21  1  0  0  0  0
 44 22  1  0  0  0  0
 45 23  1  0  0  0  0
 46 25  1  0  0  0  0
 47 26  1  0  0  0  0
M  END
>  <Pose>
1

>  <Score>
-6.54

$$$$
