
 OpenBabel03172210413D

 49 52  0  0  1  0  0  0  0  0999 V2000
   14.6330   -0.9240    6.8050 B   0  0  0  0  0  0  0  0  0  0  0  0
   13.7350    0.2550    8.0140 C   0  0  0  0  0  0  0  0  0  0  0  0
   12.4380    0.0310    8.4140 C   0  0  0  0  0  0  0  0  0  0  0  0
   11.7760    0.8810    9.2910 C   0  0  0  0  0  0  0  0  0  0  0  0
   12.4150    1.9950    9.7940 C   0  0  0  0  0  0  0  0  0  0  0  0
   13.7200    2.2190    9.3910 C   0  0  0  0  0  0  0  0  0  0  0  0
   14.3790    1.3750    8.5200 C   0  0  0  0  0  0  0  0  0  0  0  0
   11.7860    2.9230   10.7120 C   0  0  0  0  0  0  0  0  0  0  0  0
   11.8720    2.7560   12.0910 C   0  0  0  0  0  0  0  0  0  0  0  0
   11.3110    3.5850   12.9390 O   0  0  0  0  0  0  0  0  0  0  0  0
   10.6250    4.6360   12.5580 C   0  0  0  0  0  0  0  0  0  0  0  0
   10.4850    4.8840   11.2120 C   0  0  0  0  0  0  0  0  0  0  0  0
    9.7580    5.9950   10.8590 C   0  0  0  0  0  0  0  0  0  0  0  0
    9.1840    6.8430   11.7710 C   0  0  0  0  0  0  0  0  0  0  0  0
    9.3150    6.6070   13.1550 C   0  0  0  0  0  0  0  0  0  0  0  0
   10.0430    5.4930   13.5010 C   0  0  0  0  0  0  0  0  0  0  0  0
    8.7220    7.4830   14.0400 O   0  0  0  0  0  0  0  0  0  0  0  0
    7.3850    7.6250   14.2720 C   0  0  2  0  0  0  0  0  0  0  0  0
    6.9410    8.9720   14.1820 O   0  0  0  0  0  0  0  0  0  0  0  0
    5.5920    8.8960   13.9120 C   0  0  1  0  0  0  0  0  0  0  0  0
    4.7750    8.2740   15.0020 C   0  0  2  0  0  0  0  0  0  0  0  0
    5.4290    7.0420   15.5810 C   0  0  1  0  0  0  0  0  0  0  0  0
    6.9350    7.1830   15.6530 C   0  0  1  0  0  0  0  0  0  0  0  0
    7.4660    5.9460   15.9950 O   0  0  0  0  0  0  0  0  0  0  0  0
    4.8640    6.7540   16.8170 O   0  0  0  0  0  0  0  0  0  0  0  0
    3.5670    7.8510   14.4230 O   0  0  0  0  0  0  0  0  0  0  0  0
    4.9930   10.2230   13.5200 C   0  0  0  0  0  0  0  0  0  0  0  0
    5.9700   11.1880   13.2840 O   0  0  0  0  0  0  0  0  0  0  0  0
   11.0620    4.0330   10.2950 C   0  0  0  0  0  0  0  0  0  0  0  0
   10.9350    4.2590    9.0620 O   0  0  0  0  0  0  0  0  0  0  0  0
   11.9170   -0.8430    8.0270 H   0  0  0  0  0  0  0  0  0  0  0  0
   10.7640    0.7090    9.6050 H   0  0  0  0  0  0  0  0  0  0  0  0
   14.2280    3.1010    9.7880 H   0  0  0  0  0  0  0  0  0  0  0  0
   15.4010    1.5510    8.2030 H   0  0  0  0  0  0  0  0  0  0  0  0
   12.4430    1.8810   12.4160 H   0  0  0  0  0  0  0  0  0  0  0  0
    9.6580    6.1790    9.7870 H   0  0  0  0  0  0  0  0  0  0  0  0
    8.6130    7.7170   11.4840 H   0  0  0  0  0  0  0  0  0  0  0  0
   10.1790    5.2580   14.5390 H   0  0  0  0  0  0  0  0  0  0  0  0
    6.7820    7.0400   13.5590 H   0  0  0  0  0  0  0  0  0  0  0  0
    5.4840    8.2310   13.0100 H   0  0  0  0  0  0  0  0  0  0  0  0
    4.5040    9.0010   15.8090 H   0  0  0  0  0  0  0  0  0  0  0  0
    5.2240    6.1910   14.8990 H   0  0  0  0  0  0  0  0  0  0  0  0
    7.2550    7.9730   16.3650 H   0  0  0  0  0  0  0  0  0  0  0  0
    6.8070    5.4060   16.4910 H   0  0  0  0  0  0  0  0  0  0  0  0
    5.4030    6.0780   17.3320 H   0  0  0  0  0  0  0  0  0  0  0  0
    3.6420    6.9180   14.0990 H   0  0  0  0  0  0  0  0  0  0  0  0
    4.2470   10.5700   14.2620 H   0  0  0  0  0  0  0  0  0  0  0  0
    4.4250   10.1280   12.5560 H   0  0  0  0  0  0  0  0  0  0  0  0
    5.5250   12.0710   13.4790 H   0  0  0  0  0  0  0  0  0  0  0  0
  1  2  1  0  0  0  0
  2  3  2  0  0  0  0
  2  7  1  0  0  0  0
  3  4  1  0  0  0  0
  4 32  1  0  0  0  0
  4  5  2  0  0  0  0
  5  8  1  0  0  0  0
  6 33  1  0  0  0  0
  6  5  1  0  0  0  0
  7  6  2  0  0  0  0
  8  9  2  0  0  0  0
  9 35  1  0  0  0  0
  9 10  1  0  0  0  0
 11 10  1  0  0  0  0
 11 16  1  0  0  0  0
 12 11  2  0  0  0  0
 13 12  1  0  0  0  0
 13 14  2  0  0  0  0
 14 15  1  0  0  0  0
 15 16  2  0  0  0  0
 15 17  1  0  0  0  0
 16 38  1  0  0  0  0
 17 18  1  0  0  0  0
 18 39  1  6  0  0  0
 18 23  1  0  0  0  0
 19 18  1  0  0  0  0
 20 40  1  6  0  0  0
 20 19  1  0  0  0  0
 20 21  1  0  0  0  0
 21 22  1  0  0  0  0
 21 41  1  1  0  0  0
 22 42  1  6  0  0  0
 22 23  1  0  0  0  0
 22 25  1  0  0  0  0
 23 24  1  0  0  0  0
 23 43  1  1  0  0  0
 24 44  1  0  0  0  0
 25 45  1  0  0  0  0
 26 21  1  0  0  0  0
 27 20  1  0  0  0  0
 27 47  1  0  0  0  0
 28 49  1  0  0  0  0
 28 27  1  0  0  0  0
 29  8  1  0  0  0  0
 29 12  1  0  0  0  0
 30 29  2  0  0  0  0
 31  3  1  0  0  0  0
 34  7  1  0  0  0  0
 36 13  1  0  0  0  0
 37 14  1  0  0  0  0
 46 26  1  0  0  0  0
 48 27  1  0  0  0  0
M  END
>  <Pose>
1

>  <Score>
-6.53

$$$$
