
 OpenBabel03172210413D

 52 55  0  0  0  0  0  0  0  0999 V2000
    9.7540   -1.2980    7.9350 Cl  0  0  0  0  0  0  0  0  0  0  0  0
   10.9010   -0.0900    8.5630 C   0  0  0  0  0  0  0  0  0  0  0  0
   12.2760   -0.1960    8.3860 C   0  0  0  0  0  0  0  0  0  0  0  0
   13.1600    0.7130    8.9400 C   0  0  0  0  0  0  0  0  0  0  0  0
   12.6740    1.7830    9.7150 C   0  0  0  0  0  0  0  0  0  0  0  0
   11.3360    1.8650    9.8630 C   0  0  0  0  0  0  0  0  0  0  0  0
   10.4320    0.9690    9.3210 C   0  0  0  0  0  0  0  0  0  0  0  0
   13.6830    2.6760   10.3190 C   0  0  0  0  0  0  0  0  0  0  0  0
   15.0300    2.4910   10.1080 C   0  0  0  0  0  0  0  0  0  0  0  0
   15.9390    3.3020   10.8030 C   0  0  0  0  0  0  0  0  0  0  0  0
   15.5090    4.2720   11.6810 C   0  0  0  0  0  0  0  0  0  0  0  0
   16.3340    5.1230   12.4180 C   0  0  0  0  0  0  0  0  0  0  0  0
   17.7160    4.8970   12.1950 C   0  0  0  0  0  0  0  0  0  0  0  0
   18.1900    3.9240   11.3200 C   0  0  0  0  0  0  0  0  0  0  0  0
   17.2880    3.1290   10.6310 C   0  0  0  0  0  0  0  0  0  0  0  0
   18.7040    5.6250   12.8270 O   0  0  0  0  0  0  0  0  0  0  0  0
   15.9730    6.0270   13.4520 C   0  0  0  0  0  0  0  0  0  0  0  0
   14.9930    5.7600   14.4730 N   0  0  0  0  0  4  0  0  0  0  0  0
   15.5120    6.0890   15.8310 C   0  0  0  0  0  0  0  0  0  0  0  0
   16.3020    7.3480   15.7790 C   0  0  0  0  0  0  0  0  0  0  0  0
   15.5740    8.5170   15.3410 N   0  0  0  0  0  0  0  0  0  0  0  0
   14.5030    8.2080   14.4560 C   0  0  0  0  0  0  0  0  0  0  0  0
   13.9740    6.8540   14.3800 C   0  0  0  0  0  0  0  0  0  0  0  0
   16.4910    9.4820   14.7150 C   0  0  0  0  0  0  0  0  0  0  0  0
   15.7780   10.7380   14.2710 C   0  0  0  0  0  0  0  0  0  0  0  0
   16.5060   11.4660   13.3420 O   0  0  0  0  0  0  0  0  0  0  0  0
   14.2550    4.4080   11.8450 O   0  0  0  0  0  0  0  0  0  0  0  0
   13.3140    3.6850   11.2330 C   0  0  0  0  0  0  0  0  0  0  0  0
   12.1090    3.8770   11.4360 O   0  0  0  0  0  0  0  0  0  0  0  0
   12.6250   -1.0300    7.8030 H   0  0  0  0  0  0  0  0  0  0  0  0
   14.2280    0.6080    8.7960 H   0  0  0  0  0  0  0  0  0  0  0  0
   10.8820    2.6650   10.4370 H   0  0  0  0  0  0  0  0  0  0  0  0
    9.3680    1.0780    9.4650 H   0  0  0  0  0  0  0  0  0  0  0  0
   15.4130    1.7520    9.4270 H   0  0  0  0  0  0  0  0  0  0  0  0
   19.2230    3.7820   11.1130 H   0  0  0  0  0  0  0  0  0  0  0  0
   17.6590    2.3220    9.9690 H   0  0  0  0  0  0  0  0  0  0  0  0
   15.2770    6.8090   12.8190 H   0  0  0  0  0  0  0  0  0  0  0  0
   16.7300    6.7300   13.7100 H   0  0  0  0  0  0  0  0  0  0  0  0
   14.4660    4.9170   14.4600 H   0  0  0  0  0  0  0  0  0  0  0  0
   15.9790    5.2690   16.3420 H   0  0  0  0  0  0  0  0  0  0  0  0
   14.5660    6.3140   16.4470 H   0  0  0  0  0  0  0  0  0  0  0  0
   17.2270    7.2250   15.2030 H   0  0  0  0  0  0  0  0  0  0  0  0
   16.6090    7.5530   16.8440 H   0  0  0  0  0  0  0  0  0  0  0  0
   14.7640    8.6030   13.4470 H   0  0  0  0  0  0  0  0  0  0  0  0
   13.6150    8.8740   14.7670 H   0  0  0  0  0  0  0  0  0  0  0  0
   13.4170    6.6670   13.4330 H   0  0  0  0  0  0  0  0  0  0  0  0
   13.2850    6.6960   15.2680 H   0  0  0  0  0  0  0  0  0  0  0  0
   16.9370    8.9770   13.8550 H   0  0  0  0  0  0  0  0  0  0  0  0
   17.3070    9.8060   15.3920 H   0  0  0  0  0  0  0  0  0  0  0  0
   15.3560   11.3350   15.0700 H   0  0  0  0  0  0  0  0  0  0  0  0
   14.8560   10.3340   13.7230 H   0  0  0  0  0  0  0  0  0  0  0  0
   16.0710   11.3430   12.4380 H   0  0  0  0  0  0  0  0  0  0  0  0
  1  2  1  0  0  0  0
  2  7  1  0  0  0  0
  3  2  2  0  0  0  0
  3  4  1  0  0  0  0
  4  5  2  0  0  0  0
  5  6  1  0  0  0  0
  5  8  1  0  0  0  0
  6 32  1  0  0  0  0
  7 33  1  0  0  0  0
  7  6  2  0  0  0  0
  8 28  1  0  0  0  0
  9  8  2  0  0  0  0
  9 10  1  0  0  0  0
 10 11  1  0  0  0  0
 11 27  1  0  0  0  0
 11 12  2  0  0  0  0
 12 17  1  0  0  0  0
 13 12  1  0  0  0  0
 13 16  1  0  0  0  0
 14 13  2  0  0  0  0
 15 10  2  0  0  0  0
 15 14  1  0  0  0  0
 17 38  1  0  0  0  0
 17 18  1  0  0  0  0
 18 19  1  0  0  0  0
 19 40  1  0  0  0  0
 19 41  1  0  0  0  0
 20 19  1  0  0  0  0
 20 43  1  0  0  0  0
 21 20  1  0  0  0  0
 22 45  1  0  0  0  0
 22 21  1  0  0  0  0
 23 22  1  0  0  0  0
 23 18  1  0  0  0  0
 23 47  1  0  0  0  0
 24 21  1  0  0  0  0
 24 49  1  0  0  0  0
 25 24  1  0  0  0  0
 25 50  1  0  0  0  0
 26 25  1  0  0  0  0
 28 29  2  0  0  0  0
 28 27  1  0  0  0  0
 30  3  1  0  0  0  0
 31  4  1  0  0  0  0
 34  9  1  0  0  0  0
 35 14  1  0  0  0  0
 36 15  1  0  0  0  0
 37 17  1  0  0  0  0
 39 18  1  0  0  0  0
 42 20  1  0  0  0  0
 44 22  1  0  0  0  0
 46 23  1  0  0  0  0
 48 24  1  0  0  0  0
 51 25  1  0  0  0  0
 52 26  1  0  0  0  0
M  END
>  <Pose>
1

>  <Score>
-5.61

$$$$
