
 OpenBabel03172210413D

 54 57  0  0  0  0  0  0  0  0999 V2000
   12.9480    1.9870    9.9330 B   0  0  0  0  0  0  0  0  0  0  0  0
   11.7780    3.3690   10.5330 C   0  0  0  0  0  0  0  0  0  0  0  0
   11.7030    3.7070   11.8660 C   0  0  0  0  0  0  0  0  0  0  0  0
   10.8410    4.7200   12.2880 C   0  0  0  0  0  0  0  0  0  0  0  0
   10.0760    5.3660   11.3610 C   0  0  0  0  0  0  0  0  0  0  0  0
   10.1390    5.0430   10.0370 C   0  0  0  0  0  0  0  0  0  0  0  0
   10.9880    4.0460    9.6210 C   0  0  0  0  0  0  0  0  0  0  0  0
    9.1260    6.4330   11.8720 C   0  0  0  0  0  0  0  0  0  0  0  0
    9.4950    6.8690   13.1950 N   0  0  0  0  0  0  0  0  0  0  0  0
    8.7290    6.6530   14.3140 C   0  0  0  0  0  0  0  0  0  0  0  0
    9.3450    7.2220   15.4110 C   0  0  0  0  0  0  0  0  0  0  0  0
   10.4700    7.7690   14.9400 N   0  0  0  0  0  0  0  0  0  0  0  0
   10.5680    7.5550   13.5890 C   0  0  0  0  0  0  0  0  0  0  0  0
   11.7050    7.9430   12.8620 N   0  0  0  0  0  0  0  0  0  0  0  0
   11.9460    7.9170   11.4640 C   0  0  0  0  0  0  0  0  0  0  0  0
   13.4350    7.7610   11.1350 C   0  0  0  0  0  0  0  0  0  0  0  0
   14.2180    7.1570   12.1320 N   0  0  0  0  0  0  0  0  0  0  0  0
   14.0580    7.6200   13.4540 C   0  0  0  0  0  0  0  0  0  0  0  0
   12.8390    8.4910   13.6550 C   0  0  0  0  0  0  0  0  0  0  0  0
   14.7870    5.8920   11.9150 C   0  0  0  0  0  0  0  0  0  0  0  0
   16.2380    5.8310   11.6820 C   0  0  0  0  0  0  0  0  0  0  0  0
   16.9530    4.8770   12.0890 O   0  0  0  0  0  0  0  0  0  0  0  0
   16.8630    6.8470   10.9920 O   0  0  0  0  0  0  0  0  0  0  0  0
   18.1220    6.6940   10.3950 C   0  0  0  0  0  0  0  0  0  0  0  0
    8.7940    7.1400   16.6380 N   0  0  0  0  0  0  0  0  0  0  0  0
    7.6290    6.4880   16.7670 C   0  0  0  0  0  0  0  0  0  0  0  0
    7.1240    6.4180   17.9150 O   0  0  0  0  0  0  0  0  0  0  0  0
    7.0040    5.9230   15.7290 N   0  0  0  0  0  0  0  0  0  0  0  0
    7.5320    5.9860   14.4700 C   0  0  0  0  0  0  0  0  0  0  0  0
    6.9220    5.4430   13.5180 O   0  0  0  0  0  0  0  0  0  0  0  0
    9.4720    7.7570   17.7630 C   0  0  0  0  0  0  0  0  0  0  0  0
   12.3080    3.2000   12.6230 H   0  0  0  0  0  0  0  0  0  0  0  0
   10.8230    4.9540   13.3600 H   0  0  0  0  0  0  0  0  0  0  0  0
    9.5250    5.5460    9.3130 H   0  0  0  0  0  0  0  0  0  0  0  0
   11.0310    3.7970    8.5720 H   0  0  0  0  0  0  0  0  0  0  0  0
    8.1550    5.9520   11.7850 H   0  0  0  0  0  0  0  0  0  0  0  0
    9.2120    7.2920   11.1540 H   0  0  0  0  0  0  0  0  0  0  0  0
   11.4750    7.0470   10.9340 H   0  0  0  0  0  0  0  0  0  0  0  0
   11.6720    8.8950   11.0250 H   0  0  0  0  0  0  0  0  0  0  0  0
   13.5760    7.2000   10.1740 H   0  0  0  0  0  0  0  0  0  0  0  0
   13.9070    8.7690   10.9180 H   0  0  0  0  0  0  0  0  0  0  0  0
   14.9420    8.2630   13.7010 H   0  0  0  0  0  0  0  0  0  0  0  0
   14.0850    6.7780   14.1640 H   0  0  0  0  0  0  0  0  0  0  0  0
   12.9850    9.5180   13.2630 H   0  0  0  0  0  0  0  0  0  0  0  0
   12.6020    8.5090   14.7250 H   0  0  0  0  0  0  0  0  0  0  0  0
   14.2100    5.3170   11.1500 H   0  0  0  0  0  0  0  0  0  0  0  0
   14.6170    5.2900   12.8620 H   0  0  0  0  0  0  0  0  0  0  0  0
   18.9240    7.1420   11.0290 H   0  0  0  0  0  0  0  0  0  0  0  0
   18.0970    7.3100    9.4510 H   0  0  0  0  0  0  0  0  0  0  0  0
   18.4110    5.6460   10.1910 H   0  0  0  0  0  0  0  0  0  0  0  0
    6.0910    5.4130   15.8490 H   0  0  0  0  0  0  0  0  0  0  0  0
   10.4580    7.2570   17.8630 H   0  0  0  0  0  0  0  0  0  0  0  0
    9.6870    8.8360   17.5570 H   0  0  0  0  0  0  0  0  0  0  0  0
    8.8340    7.6920   18.6520 H   0  0  0  0  0  0  0  0  0  0  0  0
  1  2  1  0  0  0  0
  2  3  1  0  0  0  0
  3  4  2  0  0  0  0
  3 32  1  0  0  0  0
  4 33  1  0  0  0  0
  5  8  1  0  0  0  0
  5  4  1  0  0  0  0
  6  5  2  0  0  0  0
  7  6  1  0  0  0  0
  7  2  2  0  0  0  0
  8  9  1  0  0  0  0
  9 13  1  0  0  0  0
  9 10  1  0  0  0  0
 10 29  1  0  0  0  0
 10 11  2  0  0  0  0
 11 25  1  0  0  0  0
 12 11  1  0  0  0  0
 13 12  2  0  0  0  0
 14 13  1  0  0  0  0
 14 19  1  0  0  0  0
 15 14  1  0  0  0  0
 16 15  1  0  0  0  0
 16 17  1  0  0  0  0
 17 18  1  0  0  0  0
 18 19  1  0  0  0  0
 18 42  1  0  0  0  0
 18 43  1  0  0  0  0
 19 45  1  0  0  0  0
 20 17  1  0  0  0  0
 20 47  1  0  0  0  0
 21 20  1  0  0  0  0
 21 22  2  0  0  0  0
 23 21  1  0  0  0  0
 24 23  1  0  0  0  0
 24 48  1  0  0  0  0
 25 26  1  0  0  0  0
 25 31  1  0  0  0  0
 26 27  2  0  0  0  0
 28 51  1  0  0  0  0
 28 26  1  0  0  0  0
 29 28  1  0  0  0  0
 30 29  2  0  0  0  0
 31 52  1  0  0  0  0
 31 54  1  0  0  0  0
 34  6  1  0  0  0  0
 35  7  1  0  0  0  0
 36  8  1  0  0  0  0
 37  8  1  0  0  0  0
 38 15  1  0  0  0  0
 39 15  1  0  0  0  0
 40 16  1  0  0  0  0
 41 16  1  0  0  0  0
 44 19  1  0  0  0  0
 46 20  1  0  0  0  0
 49 24  1  0  0  0  0
 50 24  1  0  0  0  0
 53 31  1  0  0  0  0
M  END
>  <Pose>
1

>  <Score>
-5.68

$$$$
