
 OpenBabel03172210413D

 52 55  0  0  0  0  0  0  0  0999 V2000
    4.5550    8.0760   11.1700 B   0  0  0  0  0  0  0  0  0  0  0  0
    6.0670    7.3960   12.1010 C   0  0  0  0  0  0  0  0  0  0  0  0
    5.9230    7.0850   13.4440 C   0  0  0  0  0  0  0  0  0  0  0  0
    7.0380    6.5980   14.1000 C   0  0  0  0  0  0  0  0  0  0  0  0
    8.2310    6.4320   13.4450 C   0  0  0  0  0  0  0  0  0  0  0  0
    8.3980    6.7360   12.0950 C   0  0  0  0  0  0  0  0  0  0  0  0
    7.2770    7.2210   11.4570 C   0  0  0  0  0  0  0  0  0  0  0  0
    9.6810    6.5170   11.4580 C   0  0  0  0  0  0  0  0  0  0  0  0
    9.7920    6.3320   10.1870 N   0  0  0  0  0  0  0  0  0  0  0  0
   10.9940    6.1150    9.5350 N   0  0  0  0  0  0  0  0  0  0  0  0
   11.9030    5.1280   10.0050 C   0  0  0  0  0  0  0  0  0  0  0  0
   12.8160    5.4370   10.9130 N   0  0  0  0  0  4  0  0  0  0  0  0
   13.6930    4.5620   11.4340 C   0  0  0  0  0  0  0  0  0  0  0  0
   13.6190    3.2900   10.9850 N   0  0  0  0  0  0  0  0  0  0  0  0
   12.7030    2.9110   10.0530 C   0  0  0  0  0  0  0  0  0  0  0  0
   11.8510    3.8500    9.5730 N   0  0  0  0  0  0  0  0  0  0  0  0
   12.6260    1.5770    9.6060 N   0  0  0  0  0  0  0  0  0  0  0  0
   11.3910    0.8380    9.6600 C   0  0  0  0  0  0  0  0  0  0  0  0
   11.1780    0.3000    8.2380 C   0  0  0  0  0  0  0  0  0  0  0  0
   12.3120   -0.3800    7.8410 O   0  0  0  0  0  0  0  0  0  0  0  0
   13.3670    0.5080    7.6350 C   0  0  0  0  0  0  0  0  0  0  0  0
   13.7920    0.9300    9.0580 C   0  0  0  0  0  0  0  0  0  0  0  0
   14.6640    4.9450   12.4220 N   0  0  0  0  0  0  0  0  0  0  0  0
   16.0570    4.6390   12.2580 C   0  0  0  0  0  0  0  0  0  0  0  0
   16.9960    5.2920   13.1960 C   0  0  0  0  0  0  0  0  0  0  0  0
   16.4010    5.8230   14.3320 O   0  0  0  0  0  0  0  0  0  0  0  0
   15.2900    6.5970   14.0280 C   0  0  0  0  0  0  0  0  0  0  0  0
   14.2060    5.6460   13.5850 C   0  0  0  0  0  0  0  0  0  0  0  0
    9.3550    5.9400   14.1160 O   0  0  0  0  0  0  0  0  0  0  0  0
    4.7160    7.2500   14.1190 O   0  0  0  0  0  0  0  0  0  0  0  0
    6.9060    6.3590   15.1600 H   0  0  0  0  0  0  0  0  0  0  0  0
    7.3940    7.4670   10.3910 H   0  0  0  0  0  0  0  0  0  0  0  0
   10.5770    6.5060   12.0560 H   0  0  0  0  0  0  0  0  0  0  0  0
   11.2370    6.6700    8.7060 H   0  0  0  0  0  0  0  0  0  0  0  0
   11.4940   -0.0160   10.3600 H   0  0  0  0  0  0  0  0  0  0  0  0
   10.5300    1.4960    9.9390 H   0  0  0  0  0  0  0  0  0  0  0  0
   10.2770   -0.3380    8.2510 H   0  0  0  0  0  0  0  0  0  0  0  0
   10.9980    1.1990    7.5970 H   0  0  0  0  0  0  0  0  0  0  0  0
   12.9350    1.4440    7.1690 H   0  0  0  0  0  0  0  0  0  0  0  0
   14.1830    0.0780    7.0610 H   0  0  0  0  0  0  0  0  0  0  0  0
   13.9210   -0.0420    9.6160 H   0  0  0  0  0  0  0  0  0  0  0  0
   14.6970    1.5440    9.0540 H   0  0  0  0  0  0  0  0  0  0  0  0
   16.1470    3.5180   12.3030 H   0  0  0  0  0  0  0  0  0  0  0  0
   16.3340    4.9550   11.2040 H   0  0  0  0  0  0  0  0  0  0  0  0
   17.5950    6.0820   12.6740 H   0  0  0  0  0  0  0  0  0  0  0  0
   17.7370    4.5290   13.5460 H   0  0  0  0  0  0  0  0  0  0  0  0
   15.0290    7.1750   14.9180 H   0  0  0  0  0  0  0  0  0  0  0  0
   15.4680    7.2780   13.1530 H   0  0  0  0  0  0  0  0  0  0  0  0
   13.3220    6.2980   13.3560 H   0  0  0  0  0  0  0  0  0  0  0  0
   13.8950    4.9540   14.3960 H   0  0  0  0  0  0  0  0  0  0  0  0
   10.2070    6.4930   14.0970 H   0  0  0  0  0  0  0  0  0  0  0  0
    3.8360    6.8790   13.7930 H   0  0  0  0  0  0  0  0  0  0  0  0
  1  2  1  0  0  0  0
  2  3  1  0  0  0  0
  3  4  2  0  0  0  0
  3 30  1  0  0  0  0
  4 31  1  0  0  0  0
  5  4  1  0  0  0  0
  5 29  1  0  0  0  0
  6  5  2  0  0  0  0
  7  6  1  0  0  0  0
  7  2  2  0  0  0  0
  8 33  1  0  0  0  0
  8  6  1  0  0  0  0
  9  8  2  0  0  0  0
 10 11  1  0  0  0  0
 10  9  1  0  0  0  0
 11 12  2  0  0  0  0
 12 13  2  0  0  0  0
 13 23  1  0  0  0  0
 14 13  1  0  0  0  0
 15 14  2  0  0  0  0
 16 11  1  0  0  0  0
 16 15  1  0  0  0  0
 17 18  1  0  0  0  0
 17 15  1  0  0  0  0
 18 36  1  0  0  0  0
 18 35  1  0  0  0  0
 19 37  1  0  0  0  0
 19 18  1  0  0  0  0
 20 19  1  0  0  0  0
 21 20  1  0  0  0  0
 21 22  1  0  0  0  0
 22 17  1  0  0  0  0
 22 41  1  0  0  0  0
 23 28  1  0  0  0  0
 24 43  1  0  0  0  0
 24 23  1  0  0  0  0
 24 25  1  0  0  0  0
 25 46  1  0  0  0  0
 25 26  1  0  0  0  0
 27 26  1  0  0  0  0
 27 47  1  0  0  0  0
 28 27  1  0  0  0  0
 28 50  1  0  0  0  0
 32  7  1  0  0  0  0
 34 10  1  0  0  0  0
 38 19  1  0  0  0  0
 39 21  1  0  0  0  0
 40 21  1  0  0  0  0
 42 22  1  0  0  0  0
 44 24  1  0  0  0  0
 45 25  1  0  0  0  0
 48 27  1  0  0  0  0
 49 28  1  0  0  0  0
 51 29  1  0  0  0  0
 52 30  1  0  0  0  0
M  END
>  <Pose>
1

>  <Score>
-7.33

$$$$
