
 OpenBabel03172210413D

 56 59  0  0  1  0  0  0  0  0999 V2000
   11.2360    0.0310    8.9600 Cl  0  0  0  0  0  0  0  0  0  0  0  0
   12.8510    0.7430    8.9310 C   0  0  0  0  0  0  0  0  0  0  0  0
   13.1950    1.6070    9.9200 C   0  0  0  0  0  0  0  0  0  0  0  0
   14.4810    2.1560    9.8680 C   0  0  0  0  0  0  0  0  0  0  0  0
   15.3590    1.8530    8.8850 C   0  0  0  0  0  0  0  0  0  0  0  0
   16.5020    2.5610    9.1350 N   0  0  0  0  0  0  0  0  0  0  0  0
   16.3730    3.2980   10.2400 C   0  0  0  0  0  0  0  0  0  0  0  0
   15.0890    3.0530   10.7240 C   0  0  0  0  0  0  0  0  0  0  0  0
   17.2890    4.2130   10.8660 C   0  0  0  0  0  0  0  0  0  0  0  0
   18.3290    3.5980   11.4440 O   0  0  0  0  0  0  0  0  0  0  0  0
   17.3260    5.5850   10.9970 N   0  0  0  0  0  0  0  0  0  0  0  0
   16.3840    6.0560   12.0510 C   0  0  0  0  0  0  0  0  0  0  0  0
   17.1100    6.0870   13.3820 C   0  0  0  0  0  0  0  0  0  0  0  0
   18.5630    6.1630   13.1060 C   0  0  1  0  0  0  0  0  0  0  0  0
   18.9010    7.3830   12.3120 C   0  0  2  0  0  0  0  0  0  0  0  0
   19.4240    6.8750   10.9570 C   0  0  0  0  0  0  0  0  0  0  0  0
   18.1470    6.4420   10.2130 C   0  0  0  0  0  0  0  0  0  0  0  0
   19.8290    8.2200   12.9280 O   0  0  0  0  0  0  0  0  0  0  0  0
   19.4660    6.0170   14.2030 N   0  0  0  0  0  0  0  0  0  0  0  0
   20.8600    5.9740   13.8420 C   0  0  0  0  0  0  0  0  0  0  0  0
   21.1830    4.7850   13.0190 C   0  0  0  0  0  0  0  0  0  0  0  0
   20.7500    3.6140   13.7900 N   0  0  0  0  0  0  0  0  0  0  0  0
   20.1850    3.8900   15.0850 C   0  0  0  0  0  0  0  0  0  0  0  0
   19.1200    4.9450   15.0970 C   0  0  0  0  0  0  0  0  0  0  0  0
   20.9190    2.3030   13.2510 C   0  0  0  0  0  0  0  0  0  0  0  0
   19.9780    1.4990   13.2960 O   0  0  0  0  0  0  0  0  0  0  0  0
   22.2420    1.9460   12.6460 C   0  0  0  0  0  0  0  0  0  0  0  0
   14.9960    0.9800    7.8950 C   0  0  0  0  0  0  0  0  0  0  0  0
   13.7290    0.4180    7.9170 C   0  0  0  0  0  0  0  0  0  0  0  0
   12.5230    1.8670   10.7100 H   0  0  0  0  0  0  0  0  0  0  0  0
   17.3180    2.4710    8.5170 H   0  0  0  0  0  0  0  0  0  0  0  0
   14.6770    3.4960   11.6070 H   0  0  0  0  0  0  0  0  0  0  0  0
   15.5380    5.3720   12.1440 H   0  0  0  0  0  0  0  0  0  0  0  0
   15.9980    7.0330   11.7230 H   0  0  0  0  0  0  0  0  0  0  0  0
   16.8010    5.2620   14.0400 H   0  0  0  0  0  0  0  0  0  0  0  0
   16.7250    7.0420   13.8650 H   0  0  0  0  0  0  0  0  0  0  0  0
   18.7710    5.2160   12.4770 H   0  0  0  0  0  0  0  0  0  0  0  0
   18.0200    8.0260   12.0480 H   0  0  0  0  0  0  0  0  0  0  0  0
   19.9440    7.6390   10.3950 H   0  0  0  0  0  0  0  0  0  0  0  0
   20.0200    5.9650   11.1970 H   0  0  0  0  0  0  0  0  0  0  0  0
   18.4140    6.1390    9.2240 H   0  0  0  0  0  0  0  0  0  0  0  0
   17.5990    7.4490   10.0610 H   0  0  0  0  0  0  0  0  0  0  0  0
   19.3090    9.0440   13.2020 H   0  0  0  0  0  0  0  0  0  0  0  0
   21.4360    5.9390   14.8060 H   0  0  0  0  0  0  0  0  0  0  0  0
   21.1220    6.9390   13.3360 H   0  0  0  0  0  0  0  0  0  0  0  0
   20.7420    4.8290   12.0230 H   0  0  0  0  0  0  0  0  0  0  0  0
   22.3010    4.7330   12.9480 H   0  0  0  0  0  0  0  0  0  0  0  0
   21.0460    4.1770   15.7450 H   0  0  0  0  0  0  0  0  0  0  0  0
   19.7770    2.9330   15.5410 H   0  0  0  0  0  0  0  0  0  0  0  0
   19.0860    5.3660   16.1340 H   0  0  0  0  0  0  0  0  0  0  0  0
   18.1130    4.5210   14.9280 H   0  0  0  0  0  0  0  0  0  0  0  0
   22.8990    2.8280   12.6270 H   0  0  0  0  0  0  0  0  0  0  0  0
   22.6920    1.1250   13.2680 H   0  0  0  0  0  0  0  0  0  0  0  0
   22.0690    1.5620   11.6410 H   0  0  0  0  0  0  0  0  0  0  0  0
   15.6750    0.7120    7.0960 H   0  0  0  0  0  0  0  0  0  0  0  0
   13.3890   -0.2730    7.1660 H   0  0  0  0  0  0  0  0  0  0  0  0
  2  1  1  0  0  0  0
  2  3  1  0  0  0  0
  3 30  1  0  0  0  0
  4  3  2  0  0  0  0
  4  8  1  0  0  0  0
  5  6  1  0  0  0  0
  5  4  1  0  0  0  0
  6  7  1  0  0  0  0
  7  8  2  0  0  0  0
  7  9  1  0  0  0  0
  8 32  1  0  0  0  0
  9 11  1  0  0  0  0
  9 10  2  0  0  0  0
 11 12  1  0  0  0  0
 12 33  1  0  0  0  0
 12 13  1  0  0  0  0
 13 36  1  0  0  0  0
 13 35  1  0  0  0  0
 14 37  1  6  0  0  0
 14 13  1  0  0  0  0
 14 19  1  0  0  0  0
 15 38  1  6  0  0  0
 15 18  1  0  0  0  0
 15 14  1  0  0  0  0
 16 40  1  0  0  0  0
 16 15  1  0  0  0  0
 17 16  1  0  0  0  0
 17 11  1  0  0  0  0
 18 43  1  0  0  0  0
 19 24  1  0  0  0  0
 20 19  1  0  0  0  0
 20 44  1  0  0  0  0
 21 22  1  0  0  0  0
 21 20  1  0  0  0  0
 22 23  1  0  0  0  0
 23 24  1  0  0  0  0
 23 49  1  0  0  0  0
 23 48  1  0  0  0  0
 24 50  1  0  0  0  0
 25 26  2  0  0  0  0
 25 22  1  0  0  0  0
 27 25  1  0  0  0  0
 27 53  1  0  0  0  0
 28 29  1  0  0  0  0
 28  5  2  0  0  0  0
 29  2  2  0  0  0  0
 31  6  1  0  0  0  0
 34 12  1  0  0  0  0
 39 16  1  0  0  0  0
 41 17  1  0  0  0  0
 42 17  1  0  0  0  0
 45 20  1  0  0  0  0
 46 21  1  0  0  0  0
 47 21  1  0  0  0  0
 51 24  1  0  0  0  0
 52 27  1  0  0  0  0
 54 27  1  0  0  0  0
 55 28  1  0  0  0  0
 56 29  1  0  0  0  0
M  END
>  <Pose>
1

>  <Score>
-5.53

$$$$
