
 OpenBabel03172210413D

 46 49  0  0  0  0  0  0  0  0999 V2000
    9.1550   -0.4430    9.1810 Cl  0  0  0  0  0  0  0  0  0  0  0  0
   10.8490   -0.2750    8.7490 C   0  0  0  0  0  0  0  0  0  0  0  0
   11.6690    0.5060    9.5590 C   0  0  0  0  0  0  0  0  0  0  0  0
   13.0070    0.6350    9.2130 C   0  0  0  0  0  0  0  0  0  0  0  0
   13.4620   -0.0250    8.0700 C   0  0  0  0  0  0  0  0  0  0  0  0
   12.6450   -0.7870    7.2860 C   0  0  0  0  0  0  0  0  0  0  0  0
   11.3320   -0.9150    7.6220 C   0  0  0  0  0  0  0  0  0  0  0  0
   14.7220    0.2780    8.0060 O   0  0  0  0  0  0  0  0  0  0  0  0
   15.0880    1.0590    8.9910 C   0  0  0  0  0  0  0  0  0  0  0  0
   16.2630    1.4890    9.1440 O   0  0  0  0  0  0  0  0  0  0  0  0
   14.0210    1.3010    9.7730 N   0  0  0  0  0  0  0  0  0  0  0  0
   14.0540    2.1210   10.9490 C   0  0  0  0  0  0  0  0  0  0  0  0
   13.2080    3.3310   10.7630 C   0  0  0  0  0  0  0  0  0  0  0  0
   13.6180    4.6000   10.9320 N   0  0  0  0  0  0  0  0  0  0  0  0
   12.6340    5.4290   10.7250 O   0  0  0  0  0  0  0  0  0  0  0  0
   11.5760    4.7050   10.4180 C   0  0  0  0  0  0  0  0  0  0  0  0
   11.9120    3.4120   10.4370 N   0  0  0  0  0  0  0  0  0  0  0  0
   10.2510    5.3450   10.1170 C   0  0  0  0  0  0  0  0  0  0  0  0
   10.1200    5.5360    8.8590 O   0  0  0  0  0  0  0  0  0  0  0  0
    9.3920    5.6330   11.1120 N   0  0  0  0  0  0  0  0  0  0  0  0
    8.5150    5.9450   12.1330 C   0  0  0  0  0  0  0  0  0  0  0  0
    7.0830    6.2010   11.6480 C   0  0  0  0  0  0  0  0  0  0  0  0
    6.4660    7.3450   12.1920 N   0  0  0  0  0  0  0  0  0  0  0  0
    7.0480    8.5290   11.6920 C   0  0  0  0  0  0  0  0  0  0  0  0
    6.9170    9.6890   12.6190 C   0  0  0  0  0  0  0  0  0  0  0  0
    5.6620    9.6810   13.1710 O   0  0  0  0  0  0  0  0  0  0  0  0
    5.4260    8.6120   14.0160 C   0  0  0  0  0  0  0  0  0  0  0  0
    5.9910    7.3170   13.5140 C   0  0  0  0  0  0  0  0  0  0  0  0
   11.3360    1.0120   10.4360 H   0  0  0  0  0  0  0  0  0  0  0  0
   13.0510   -1.2860    6.4050 H   0  0  0  0  0  0  0  0  0  0  0  0
   10.6800   -1.5240    6.9930 H   0  0  0  0  0  0  0  0  0  0  0  0
   15.1060    2.3800   11.1670 H   0  0  0  0  0  0  0  0  0  0  0  0
   13.6890    1.5850   11.8540 H   0  0  0  0  0  0  0  0  0  0  0  0
    9.7500    6.9540   11.0270 H   0  0  0  0  0  0  0  0  0  0  0  0
    8.7930    6.9280   12.6210 H   0  0  0  0  0  0  0  0  0  0  0  0
    8.4190    5.2110   12.9490 H   0  0  0  0  0  0  0  0  0  0  0  0
    6.4160    5.3310   11.8360 H   0  0  0  0  0  0  0  0  0  0  0  0
    7.1530    6.3120   10.5510 H   0  0  0  0  0  0  0  0  0  0  0  0
    8.1060    8.3660   11.3940 H   0  0  0  0  0  0  0  0  0  0  0  0
    6.5260    8.8390   10.7360 H   0  0  0  0  0  0  0  0  0  0  0  0
    7.7040    9.7050   13.3980 H   0  0  0  0  0  0  0  0  0  0  0  0
    6.9870   10.6620   12.0410 H   0  0  0  0  0  0  0  0  0  0  0  0
    4.3240    8.5570   14.1930 H   0  0  0  0  0  0  0  0  0  0  0  0
    5.8930    8.8440   14.9910 H   0  0  0  0  0  0  0  0  0  0  0  0
    5.1670    6.5530   13.6590 H   0  0  0  0  0  0  0  0  0  0  0  0
    6.8140    6.9760   14.1730 H   0  0  0  0  0  0  0  0  0  0  0  0
  2  1  1  0  0  0  0
  2  3  1  0  0  0  0
  3 29  1  0  0  0  0
  4  3  2  0  0  0  0
  4 11  1  0  0  0  0
  5  4  1  0  0  0  0
  6  7  1  0  0  0  0
  6  5  2  0  0  0  0
  7  2  2  0  0  0  0
  8  5  1  0  0  0  0
  8  9  1  0  0  0  0
  9 10  2  0  0  0  0
  9 11  1  0  0  0  0
 11 12  1  0  0  0  0
 12 32  1  0  0  0  0
 12 33  1  0  0  0  0
 13 14  2  0  0  0  0
 13 12  1  0  0  0  0
 15 14  1  0  0  0  0
 16 17  2  0  0  0  0
 16 15  1  0  0  0  0
 17 13  1  0  0  0  0
 18 16  1  0  0  0  0
 18 20  1  0  0  0  0
 19 18  2  0  0  0  0
 20 21  1  0  0  0  0
 21 35  1  0  0  0  0
 21 36  1  0  0  0  0
 22 37  1  0  0  0  0
 22 21  1  0  0  0  0
 22 23  1  0  0  0  0
 23 28  1  0  0  0  0
 24 23  1  0  0  0  0
 24 25  1  0  0  0  0
 25 26  1  0  0  0  0
 25 41  1  0  0  0  0
 26 27  1  0  0  0  0
 27 43  1  0  0  0  0
 27 44  1  0  0  0  0
 28 45  1  0  0  0  0
 28 27  1  0  0  0  0
 28 46  1  0  0  0  0
 30  6  1  0  0  0  0
 31  7  1  0  0  0  0
 34 20  1  0  0  0  0
 38 22  1  0  0  0  0
 39 24  1  0  0  0  0
 40 24  1  0  0  0  0
 42 25  1  0  0  0  0
M  END
>  <Pose>
1

>  <Score>
-7.04

$$$$
