
 OpenBabel03172210413D

 41 45  0  0  1  0  0  0  0  0999 V2000
    3.4050    8.9600   13.5160 Cl  0  0  0  0  0  0  0  0  0  0  0  0
    4.9470    8.1580   13.2050 C   0  0  0  0  0  0  0  0  0  0  0  0
    5.6780    8.4180   12.0710 C   0  0  0  0  0  0  0  0  0  0  0  0
    6.8850    7.7740   11.8620 C   0  0  0  0  0  0  0  0  0  0  0  0
    7.4050    6.8640   12.7500 C   0  0  0  0  0  0  0  0  0  0  0  0
    6.6720    6.6010   13.8920 C   0  0  0  0  0  0  0  0  0  0  0  0
    5.4570    7.2490   14.1050 C   0  0  0  0  0  0  0  0  0  0  0  0
    8.6520    6.1940   12.5450 N   0  0  0  0  0  0  0  0  0  0  0  0
    9.1140    5.4640   11.4190 C   0  0  0  0  0  0  0  0  0  0  0  0
    8.5150    5.3740   10.3140 O   0  0  0  0  0  0  0  0  0  0  0  0
   10.4270    4.8030   11.7230 C   0  0  1  0  0  0  0  0  0  0  0  0
   11.4780    5.2210   10.7500 C   0  0  2  0  0  0  0  0  0  0  0  0
   12.5680    5.6330   11.5560 O   0  0  0  0  0  0  0  0  0  0  0  0
   11.8350    6.5510   12.3520 C   0  0  2  0  0  0  0  0  0  0  0  0
   10.8640    5.5600   12.9860 C   0  0  1  0  0  0  0  0  0  0  0  0
    9.6680    6.1780   13.5400 C   0  0  0  0  0  0  0  0  0  0  0  0
    9.5760    6.6190   14.7140 O   0  0  0  0  0  0  0  0  0  0  0  0
   11.1900    7.3670   11.2950 C   0  0  0  0  0  0  0  0  0  0  0  0
   11.0720    6.5620   10.2190 C   0  0  0  0  0  0  0  0  0  0  0  0
   12.6530    7.3050   13.3150 C   0  0  0  0  0  0  0  0  0  0  0  0
   11.8570    4.2500    9.7160 C   0  0  0  0  0  0  0  0  0  0  0  0
   12.8990    3.4620   10.2080 O   0  0  0  0  0  0  0  0  0  0  0  0
   12.3520    2.3960   10.8760 C   0  0  0  0  0  0  0  0  0  0  0  0
   11.0210    2.2250   10.1930 C   0  0  0  0  0  0  0  0  0  0  0  0
   10.7940    3.3790    9.4790 O   0  0  0  0  0  0  0  0  0  0  0  0
    5.3010    9.1210   11.3590 H   0  0  0  0  0  0  0  0  0  0  0  0
    7.4860    7.9650   10.9660 H   0  0  0  0  0  0  0  0  0  0  0  0
    7.0450    5.8890   14.6200 H   0  0  0  0  0  0  0  0  0  0  0  0
    4.8770    7.0560   14.9910 H   0  0  0  0  0  0  0  0  0  0  0  0
   10.3350    3.7310   11.8900 H   0  0  0  0  0  0  0  0  0  0  0  0
   11.4260    4.9240   13.6670 H   0  0  0  0  0  0  0  0  0  0  0  0
   10.8510    8.3940   11.2890 H   0  0  0  0  0  0  0  0  0  0  0  0
   10.7610    6.7930    9.2140 H   0  0  0  0  0  0  0  0  0  0  0  0
   12.6560    6.8890   14.3500 H   0  0  0  0  0  0  0  0  0  0  0  0
   12.3230    8.3770   13.4120 H   0  0  0  0  0  0  0  0  0  0  0  0
   13.7360    7.3810   13.0300 H   0  0  0  0  0  0  0  0  0  0  0  0
   12.1070    4.7420    8.7750 H   0  0  0  0  0  0  0  0  0  0  0  0
   13.0320    1.5130   10.7010 H   0  0  0  0  0  0  0  0  0  0  0  0
   12.2840    2.5090   11.9650 H   0  0  0  0  0  0  0  0  0  0  0  0
   10.2670    2.0540   11.0050 H   0  0  0  0  0  0  0  0  0  0  0  0
   11.1140    1.3190    9.5390 H   0  0  0  0  0  0  0  0  0  0  0  0
  2  1  1  0  0  0  0
  2  7  1  0  0  0  0
  3  2  2  0  0  0  0
  4  3  1  0  0  0  0
  4  5  2  0  0  0  0
  5  6  1  0  0  0  0
  6  7  2  0  0  0  0
  6 28  1  0  0  0  0
  7 29  1  0  0  0  0
  8  5  1  0  0  0  0
  8 16  1  0  0  0  0
  9 11  1  0  0  0  0
  9  8  1  0  0  0  0
 10  9  2  0  0  0  0
 11 30  1  1  0  0  0
 11 15  1  0  0  0  0
 12 21  1  6  0  0  0
 12 13  1  0  0  0  0
 12 11  1  0  0  0  0
 13 14  1  0  0  0  0
 14 15  1  0  0  0  0
 14 20  1  1  0  0  0
 15 16  1  0  0  0  0
 15 31  1  1  0  0  0
 16 17  2  0  0  0  0
 18 14  1  0  0  0  0
 19 12  1  0  0  0  0
 19 18  2  0  0  0  0
 20 35  1  0  0  0  0
 20 34  1  0  0  0  0
 21 22  1  0  0  0  0
 22 23  1  0  0  0  0
 23 39  1  0  0  0  0
 24 23  1  0  0  0  0
 24 40  1  0  0  0  0
 25 21  1  0  0  0  0
 25 24  1  0  0  0  0
 26  3  1  0  0  0  0
 27  4  1  0  0  0  0
 32 18  1  0  0  0  0
 33 19  1  0  0  0  0
 36 20  1  0  0  0  0
 37 21  1  0  0  0  0
 38 23  1  0  0  0  0
 41 24  1  0  0  0  0
M  END
>  <Pose>
1

>  <Score>
-4.57

$$$$
