
 OpenBabel03172210413D

 49 52  0  0  0  0  0  0  0  0999 V2000
    4.7740    9.4150   13.6110 Cl  0  0  0  0  0  0  0  0  0  0  0  0
    5.7840    8.1320   12.9330 C   0  0  0  0  0  0  0  0  0  0  0  0
    6.9730    7.7950   13.5260 C   0  0  0  0  0  0  0  0  0  0  0  0
    7.7040    6.7880   12.9350 C   0  0  0  0  0  0  0  0  0  0  0  0
    7.2660    6.1330   11.7860 C   0  0  0  0  0  0  0  0  0  0  0  0
    6.0550    6.5100   11.2240 C   0  0  0  0  0  0  0  0  0  0  0  0
    5.3150    7.5160   11.8040 C   0  0  0  0  0  0  0  0  0  0  0  0
    8.0430    5.0960   11.1980 N   0  0  0  0  0  0  0  0  0  0  0  0
    9.4450    5.0830   11.0950 C   0  0  0  0  0  0  0  0  0  0  0  0
    9.9550    5.4530   10.0020 O   0  0  0  0  0  0  0  0  0  0  0  0
   10.3060    4.6800   12.1340 N   0  0  0  0  0  0  0  0  0  0  0  0
   11.6710    4.4330   12.0370 N   0  0  0  0  0  0  0  0  0  0  0  0
   12.0990    3.1230   11.7190 C   0  0  0  0  0  0  0  0  0  0  0  0
   11.3230    2.1410   11.9490 O   0  0  0  0  0  0  0  0  0  0  0  0
   13.4160    2.9240   11.1440 C   0  0  0  0  0  0  0  0  0  0  0  0
   14.4930    3.5780   11.5050 N   0  0  0  0  0  0  0  0  0  0  0  0
   15.6040    3.1930   10.8000 N   0  0  0  0  0  0  0  0  0  0  0  0
   15.1590    2.1830    9.8940 C   0  0  0  0  0  0  0  0  0  0  0  0
   15.7710    1.4720    8.9940 N   0  0  0  0  0  0  0  0  0  0  0  0
   15.0860    0.5080    8.2080 N   0  0  0  0  0  0  0  0  0  0  0  0
   13.7080    0.2680    8.3580 C   0  0  0  0  0  0  0  0  0  0  0  0
   13.0570   -0.6350    7.6370 C   0  0  0  0  0  0  0  0  0  0  0  0
   13.0020    1.0570    9.3610 C   0  0  0  0  0  0  0  0  0  0  0  0
   11.7920    0.8620    9.5090 O   0  0  0  0  0  0  0  0  0  0  0  0
   13.7600    2.0070   10.1120 N   0  0  0  0  0  0  0  0  0  0  0  0
   16.9320    3.6760   10.9860 C   0  0  0  0  0  0  0  0  0  0  0  0
   17.9230    2.8690   11.4890 C   0  0  0  0  0  0  0  0  0  0  0  0
   19.2410    3.2750   11.6510 C   0  0  0  0  0  0  0  0  0  0  0  0
   19.6140    4.5570   11.2980 C   0  0  0  0  0  0  0  0  0  0  0  0
   18.6350    5.3860   10.7930 C   0  0  0  0  0  0  0  0  0  0  0  0
   17.3190    4.9510   10.6420 C   0  0  0  0  0  0  0  0  0  0  0  0
   21.0280    5.0230   11.4200 C   0  0  0  0  0  0  0  0  0  0  0  0
    7.3270    8.3000   14.4270 H   0  0  0  0  0  0  0  0  0  0  0  0
    8.6620    6.4820   13.3690 H   0  0  0  0  0  0  0  0  0  0  0  0
    5.7420    5.9740   10.3290 H   0  0  0  0  0  0  0  0  0  0  0  0
    4.3560    7.7910   11.3450 H   0  0  0  0  0  0  0  0  0  0  0  0
    7.4900    4.2890   10.8150 H   0  0  0  0  0  0  0  0  0  0  0  0
    9.9130    4.5470   13.1220 H   0  0  0  0  0  0  0  0  0  0  0  0
   12.3260    5.2130   12.1930 H   0  0  0  0  0  0  0  0  0  0  0  0
   15.6720   -0.0080    7.5130 H   0  0  0  0  0  0  0  0  0  0  0  0
   13.5300   -1.2480    6.8880 H   0  0  0  0  0  0  0  0  0  0  0  0
   11.9950   -0.7970    7.7880 H   0  0  0  0  0  0  0  0  0  0  0  0
   17.6350    1.8470   11.7720 H   0  0  0  0  0  0  0  0  0  0  0  0
   19.9910    2.6170   12.0500 H   0  0  0  0  0  0  0  0  0  0  0  0
   18.9410    6.3960   10.5240 H   0  0  0  0  0  0  0  0  0  0  0  0
   16.5680    5.6300   10.2430 H   0  0  0  0  0  0  0  0  0  0  0  0
   21.3250    5.2800   12.4400 H   0  0  0  0  0  0  0  0  0  0  0  0
   21.2460    5.8730   10.7610 H   0  0  0  0  0  0  0  0  0  0  0  0
   21.7240    4.2030   11.0590 H   0  0  0  0  0  0  0  0  0  0  0  0
  2  3  1  0  0  0  0
  2  1  1  0  0  0  0
  3 33  1  0  0  0  0
  4 34  1  0  0  0  0
  4  3  2  0  0  0  0
  5  4  1  0  0  0  0
  6  5  2  0  0  0  0
  6  7  1  0  0  0  0
  7  2  2  0  0  0  0
  8  5  1  0  0  0  0
  9  8  1  0  0  0  0
  9 11  1  0  0  0  0
 10  9  2  0  0  0  0
 11 38  1  0  0  0  0
 12 11  1  0  0  0  0
 12 39  1  0  0  0  0
 13 14  2  0  0  0  0
 13 12  1  0  0  0  0
 15 16  2  0  0  0  0
 15 13  1  0  0  0  0
 17 26  1  0  0  0  0
 17 16  1  0  0  0  0
 18 25  1  0  0  0  0
 18 17  1  0  0  0  0
 19 18  2  0  0  0  0
 20 21  1  0  0  0  0
 20 19  1  0  0  0  0
 21 23  1  0  0  0  0
 22 42  1  0  0  0  0
 22 21  2  0  0  0  0
 23 24  2  0  0  0  0
 23 25  1  0  0  0  0
 25 15  1  0  0  0  0
 26 27  1  0  0  0  0
 27 28  2  0  0  0  0
 27 43  1  0  0  0  0
 28 44  1  0  0  0  0
 29 32  1  0  0  0  0
 29 28  1  0  0  0  0
 30 29  2  0  0  0  0
 31 30  1  0  0  0  0
 31 26  2  0  0  0  0
 32 47  1  0  0  0  0
 35  6  1  0  0  0  0
 36  7  1  0  0  0  0
 37  8  1  0  0  0  0
 40 20  1  0  0  0  0
 41 22  1  0  0  0  0
 45 30  1  0  0  0  0
 46 31  1  0  0  0  0
 48 32  1  0  0  0  0
 49 32  1  0  0  0  0
M  END
>  <Pose>
1

>  <Score>
-9.12

$$$$
