
 OpenBabel03172210413D

 53 57  0  0  1  0  0  0  0  0999 V2000
    8.8710    9.7520   10.4910 Cl  0  0  0  0  0  0  0  0  0  0  0  0
    8.8680    8.2860   11.4480 C   0  0  0  0  0  0  0  0  0  0  0  0
    9.6630    7.1990   11.1500 C   0  0  0  0  0  0  0  0  0  0  0  0
    9.6350    6.0490   11.9310 C   0  0  0  0  0  0  0  0  0  0  0  0
    8.7850    6.0550   13.0020 C   0  0  0  0  0  0  0  0  0  0  0  0
    7.9850    7.1290   13.3160 C   0  0  0  0  0  0  0  0  0  0  0  0
    8.0160    8.2530   12.5480 C   0  0  0  0  0  0  0  0  0  0  0  0
   10.5840    5.0860   11.3580 C   0  0  2  0  0  0  0  0  0  0  0  0
    9.9490    3.8350   10.9840 N   0  0  0  0  0  0  0  0  0  0  0  0
   11.1030    2.9490   10.8170 C   0  0  1  0  0  0  0  0  0  0  0  0
   12.0980    3.3430   11.8410 C   0  0  2  0  0  0  0  0  0  0  0  0
   11.5860    4.6370   12.3880 C   0  0  1  0  0  0  0  0  0  0  0  0
   12.7150    5.5600   12.5350 C   0  0  0  0  0  0  0  0  0  0  0  0
   12.6700    6.6230   13.2030 O   0  0  0  0  0  0  0  0  0  0  0  0
   13.7960    5.0070   11.7940 N   0  0  0  0  0  0  0  0  0  0  0  0
   13.4070    3.7670   11.2200 C   0  0  0  0  0  0  0  0  0  0  0  0
   13.9990    3.0810   10.3420 O   0  0  0  0  0  0  0  0  0  0  0  0
   15.1080    5.6330   11.6530 C   0  0  0  0  0  0  0  0  0  0  0  0
   16.1590    4.6140   12.0680 C   0  0  0  0  0  0  0  0  0  0  0  0
   16.8980    4.1930   10.9740 O   0  0  0  0  0  0  0  0  0  0  0  0
   17.9770    3.4470   11.4070 C   0  0  0  0  0  0  0  0  0  0  0  0
   10.7080    1.5100   10.9610 C   0  0  0  0  0  0  0  0  0  0  0  0
   11.0180    0.6680    9.7930 C   0  0  0  0  0  0  0  0  0  0  0  0
   12.3550    0.5560    9.4170 C   0  0  0  0  0  0  0  0  0  0  0  0
   12.6790   -0.2370    8.3460 C   0  0  0  0  0  0  0  0  0  0  0  0
   11.7410   -0.9330    7.6210 C   0  0  0  0  0  0  0  0  0  0  0  0
   10.4310   -0.7950    8.0250 C   0  0  0  0  0  0  0  0  0  0  0  0
   10.0500   -0.0120    9.0940 C   0  0  0  0  0  0  0  0  0  0  0  0
   11.1790    5.7330   10.1780 C   0  0  0  0  0  0  0  0  0  0  0  0
   12.0270    5.2860    9.3930 O   0  0  0  0  0  0  0  0  0  0  0  0
   10.5900    7.0220   10.0890 N   0  0  0  0  0  0  0  0  0  0  0  0
    8.7610    5.1440   13.6250 H   0  0  0  0  0  0  0  0  0  0  0  0
    7.3420    7.0740   14.1650 H   0  0  0  0  0  0  0  0  0  0  0  0
    7.3970    9.1070   12.7760 H   0  0  0  0  0  0  0  0  0  0  0  0
    9.4070    3.9240   10.0820 H   0  0  0  0  0  0  0  0  0  0  0  0
   11.4910    3.0540    9.7680 H   0  0  0  0  0  0  0  0  0  0  0  0
   12.2980    2.6050   12.6410 H   0  0  0  0  0  0  0  0  0  0  0  0
   11.0100    4.5060   13.3340 H   0  0  0  0  0  0  0  0  0  0  0  0
   15.2010    6.4900   12.3260 H   0  0  0  0  0  0  0  0  0  0  0  0
   15.2860    5.9740   10.6180 H   0  0  0  0  0  0  0  0  0  0  0  0
   16.7880    5.0920   12.8490 H   0  0  0  0  0  0  0  0  0  0  0  0
   15.6700    3.7140   12.4930 H   0  0  0  0  0  0  0  0  0  0  0  0
   17.6550    2.5560   11.9740 H   0  0  0  0  0  0  0  0  0  0  0  0
   18.6740    4.0160   12.0570 H   0  0  0  0  0  0  0  0  0  0  0  0
   18.5620    3.1460   10.5090 H   0  0  0  0  0  0  0  0  0  0  0  0
   11.1140    1.0950   11.9080 H   0  0  0  0  0  0  0  0  0  0  0  0
    9.5860    1.5110   11.0950 H   0  0  0  0  0  0  0  0  0  0  0  0
   13.1210    1.1050    9.9860 H   0  0  0  0  0  0  0  0  0  0  0  0
   13.7170   -0.3240    8.0570 H   0  0  0  0  0  0  0  0  0  0  0  0
   11.9810   -1.5620    6.7760 H   0  0  0  0  0  0  0  0  0  0  0  0
    9.6490   -1.3190    7.4920 H   0  0  0  0  0  0  0  0  0  0  0  0
    8.9860    0.0470    9.3780 H   0  0  0  0  0  0  0  0  0  0  0  0
   10.7900    7.7570    9.3580 H   0  0  0  0  0  0  0  0  0  0  0  0
  1  2  1  0  0  0  0
  2  7  1  0  0  0  0
  3  2  2  0  0  0  0
  3  4  1  0  0  0  0
  4  5  2  0  0  0  0
  5  6  1  0  0  0  0
  5 32  1  0  0  0  0
  6 33  1  0  0  0  0
  7 34  1  0  0  0  0
  7  6  2  0  0  0  0
  8 29  1  6  0  0  0
  8  4  1  0  0  0  0
  8 12  1  0  0  0  0
  9  8  1  0  0  0  0
 10 36  1  6  0  0  0
 10 22  1  0  0  0  0
 10  9  1  0  0  0  0
 10 11  1  0  0  0  0
 11 12  1  0  0  0  0
 11 37  1  1  0  0  0
 12 13  1  0  0  0  0
 12 38  1  1  0  0  0
 13 14  2  0  0  0  0
 15 13  1  0  0  0  0
 16 15  1  0  0  0  0
 16 11  1  0  0  0  0
 17 16  2  0  0  0  0
 18 15  1  0  0  0  0
 18 19  1  0  0  0  0
 18 39  1  0  0  0  0
 19 42  1  0  0  0  0
 19 41  1  0  0  0  0
 20 21  1  0  0  0  0
 20 19  1  0  0  0  0
 21 43  1  0  0  0  0
 21 44  1  0  0  0  0
 22 47  1  0  0  0  0
 22 46  1  0  0  0  0
 23 22  1  0  0  0  0
 24 23  1  0  0  0  0
 24 48  1  0  0  0  0
 25 24  2  0  0  0  0
 26 27  2  0  0  0  0
 26 25  1  0  0  0  0
 27 28  1  0  0  0  0
 28 52  1  0  0  0  0
 28 23  2  0  0  0  0
 30 29  2  0  0  0  0
 31 29  1  0  0  0  0
 31  3  1  0  0  0  0
 35  9  1  0  0  0  0
 40 18  1  0  0  0  0
 45 21  1  0  0  0  0
 49 25  1  0  0  0  0
 50 26  1  0  0  0  0
 51 27  1  0  0  0  0
 53 31  1  0  0  0  0
M  END
>  <Pose>
1

>  <Score>
-6.06

$$$$
