
 OpenBabel03172210413D

 42 45  0  0  0  0  0  0  0  0999 V2000
    9.9670   10.3660   15.1170 Cl  0  0  0  0  0  0  0  0  0  0  0  0
   10.6070    9.0380   14.1700 C   0  0  0  0  0  0  0  0  0  0  0  0
    9.8920    8.5610   13.0920 C   0  0  0  0  0  0  0  0  0  0  0  0
   10.4510    7.5060   12.3780 C   0  0  0  0  0  0  0  0  0  0  0  0
   11.6560    6.9310   12.6920 C   0  0  0  0  0  0  0  0  0  0  0  0
   12.3520    7.4230   13.7680 C   0  0  0  0  0  0  0  0  0  0  0  0
   11.8170    8.4640   14.4860 C   0  0  0  0  0  0  0  0  0  0  0  0
   12.1860    5.8250   11.8970 C   0  0  0  0  0  0  0  0  0  0  0  0
   11.3660    4.6800   11.7910 N   0  0  0  0  0  0  0  0  0  0  0  0
   10.7950    4.3890   10.5370 C   0  0  0  0  0  0  0  0  0  0  0  0
   11.5680    3.4500    9.6500 C   0  0  0  0  0  0  0  0  0  0  0  0
   12.4480    2.6650   10.5550 N   0  0  0  0  0  0  0  0  0  0  0  0
   11.8360    2.3080   11.7780 C   0  0  0  0  0  0  0  0  0  0  0  0
   11.7280    3.5630   12.6170 C   0  0  0  0  0  0  0  0  0  0  0  0
   13.7380    2.3600   10.0710 C   0  0  0  0  0  0  0  0  0  0  0  0
   14.8090    3.0720   10.5360 N   0  0  0  0  0  0  0  0  0  0  0  0
   16.0650    2.9090   10.1370 C   0  0  0  0  0  0  0  0  0  0  0  0
   16.3250    1.9780    9.2050 N   0  0  0  0  0  0  0  0  0  0  0  0
   15.3050    1.2420    8.7080 C   0  0  0  0  0  0  0  0  0  0  0  0
   15.2650    0.2520    7.7970 N   0  0  0  0  0  0  0  0  0  0  0  0
   14.0060   -0.1660    7.6580 C   0  0  0  0  0  0  0  0  0  0  0  0
   13.1980    0.5360    8.4710 N   0  0  0  0  0  0  0  0  0  0  0  0
   13.9820    1.4080    9.1240 C   0  0  0  0  0  0  0  0  0  0  0  0
   17.1500    3.6960   10.6710 N   0  0  0  0  0  0  0  0  0  0  0  0
    8.9340    8.9910   12.8150 H   0  0  0  0  0  0  0  0  0  0  0  0
    9.8400    7.1710   11.5380 H   0  0  0  0  0  0  0  0  0  0  0  0
   13.3280    6.9960   14.0640 H   0  0  0  0  0  0  0  0  0  0  0  0
   12.3750    8.8560   15.3480 H   0  0  0  0  0  0  0  0  0  0  0  0
   12.4850    6.1420   10.8680 H   0  0  0  0  0  0  0  0  0  0  0  0
   13.1590    5.5120   12.3790 H   0  0  0  0  0  0  0  0  0  0  0  0
   10.6170    5.3080    9.9850 H   0  0  0  0  0  0  0  0  0  0  0  0
    9.7800    3.9300   10.7160 H   0  0  0  0  0  0  0  0  0  0  0  0
   12.1330    3.9270    8.8530 H   0  0  0  0  0  0  0  0  0  0  0  0
   10.8950    2.6920    9.1970 H   0  0  0  0  0  0  0  0  0  0  0  0
   10.7430    2.0540   11.5160 H   0  0  0  0  0  0  0  0  0  0  0  0
   12.1740    1.4260   12.3010 H   0  0  0  0  0  0  0  0  0  0  0  0
   12.6380    3.8020   13.1910 H   0  0  0  0  0  0  0  0  0  0  0  0
   10.9020    3.3950   13.3470 H   0  0  0  0  0  0  0  0  0  0  0  0
   13.7080   -0.9670    6.9730 H   0  0  0  0  0  0  0  0  0  0  0  0
   12.1690    0.3830    8.5480 H   0  0  0  0  0  0  0  0  0  0  0  0
   18.0700    3.7420   10.2120 H   0  0  0  0  0  0  0  0  0  0  0  0
   17.0100    4.2390   11.5470 H   0  0  0  0  0  0  0  0  0  0  0  0
  2  7  1  0  0  0  0
  2  1  1  0  0  0  0
  3  2  2  0  0  0  0
  4  5  2  0  0  0  0
  4  3  1  0  0  0  0
  5  6  1  0  0  0  0
  6 27  1  0  0  0  0
  6  7  2  0  0  0  0
  7 28  1  0  0  0  0
  8 30  1  0  0  0  0
  8  5  1  0  0  0  0
  9  8  1  0  0  0  0
  9 14  1  0  0  0  0
 10 32  1  0  0  0  0
 10  9  1  0  0  0  0
 11 10  1  0  0  0  0
 11 12  1  0  0  0  0
 12 13  1  0  0  0  0
 13 36  1  0  0  0  0
 13 14  1  0  0  0  0
 14 37  1  0  0  0  0
 14 38  1  0  0  0  0
 15 16  1  0  0  0  0
 15 12  1  0  0  0  0
 17 16  2  0  0  0  0
 17 24  1  0  0  0  0
 18 17  1  0  0  0  0
 19 23  1  0  0  0  0
 19 18  2  0  0  0  0
 20 19  1  0  0  0  0
 21 20  2  0  0  0  0
 21 22  1  0  0  0  0
 22 40  1  0  0  0  0
 22 23  1  0  0  0  0
 23 15  2  0  0  0  0
 24 42  1  0  0  0  0
 25  3  1  0  0  0  0
 26  4  1  0  0  0  0
 29  8  1  0  0  0  0
 31 10  1  0  0  0  0
 33 11  1  0  0  0  0
 34 11  1  0  0  0  0
 35 13  1  0  0  0  0
 39 21  1  0  0  0  0
 41 24  1  0  0  0  0
M  END
>  <Pose>
1

>  <Score>
-6.47

$$$$
