
 OpenBabel03172210413D

 42 45  0  0  0  0  0  0  0  0999 V2000
   21.1450    8.2180   10.6670 Cl  0  0  0  0  0  0  0  0  0  0  0  0
   20.3240    6.6620   10.7290 C   0  0  0  0  0  0  0  0  0  0  0  0
   20.9370    5.5860   11.3210 C   0  0  0  0  0  0  0  0  0  0  0  0
   20.2770    4.3690   11.3610 C   0  0  0  0  0  0  0  0  0  0  0  0
   19.0280    4.2150   10.8250 C   0  0  0  0  0  0  0  0  0  0  0  0
   18.4110    5.2910   10.2320 C   0  0  0  0  0  0  0  0  0  0  0  0
   19.0640    6.4970   10.1920 C   0  0  0  0  0  0  0  0  0  0  0  0
   18.3980    2.8730   10.9140 C   0  0  0  0  0  0  0  0  0  0  0  0
   16.9530    3.0680   11.0160 N   0  0  0  0  0  0  0  0  0  0  0  0
   16.2630    3.6510   11.9780 N   0  0  0  0  0  0  0  0  0  0  0  0
   14.9700    3.6360   11.7150 N   0  0  0  0  0  0  0  0  0  0  0  0
   14.7820    3.0280   10.5440 C   0  0  0  0  0  0  0  0  0  0  0  0
   16.0350    2.6670   10.1000 C   0  0  0  0  0  0  0  0  0  0  0  0
   16.1230    2.0290    8.9230 N   0  0  0  0  0  0  0  0  0  0  0  0
   15.0210    1.7510    8.2040 C   0  0  0  0  0  0  0  0  0  0  0  0
   13.8090    2.1130    8.6590 N   0  0  0  0  0  0  0  0  0  0  0  0
   13.6160    2.7630    9.8370 C   0  0  0  0  0  0  0  0  0  0  0  0
   12.3500    3.1430   10.3170 N   0  0  0  0  0  0  0  0  0  0  0  0
   11.6630    2.6010   11.4580 C   0  0  0  0  0  0  0  0  0  0  0  0
   11.4100    3.7030   12.4180 C   0  0  0  0  0  0  0  0  0  0  0  0
   11.4960    5.0220   11.9510 N   0  0  0  0  0  0  0  0  0  0  0  0
   11.4050    5.3000   10.5820 C   0  0  0  0  0  0  0  0  0  0  0  0
   11.6130    4.1780    9.6350 C   0  0  0  0  0  0  0  0  0  0  0  0
   12.6910    5.6460   12.4920 C   0  0  0  0  0  0  0  0  0  0  0  0
   21.9230    5.6760   11.7530 H   0  0  0  0  0  0  0  0  0  0  0  0
   20.7740    3.5210   11.8340 H   0  0  0  0  0  0  0  0  0  0  0  0
   17.4380    5.1710    9.8150 H   0  0  0  0  0  0  0  0  0  0  0  0
   18.6130    7.3860    9.7300 H   0  0  0  0  0  0  0  0  0  0  0  0
   18.6110    2.2850   10.0150 H   0  0  0  0  0  0  0  0  0  0  0  0
   18.7960    2.3420   11.8040 H   0  0  0  0  0  0  0  0  0  0  0  0
   15.1290    1.2360    7.2600 H   0  0  0  0  0  0  0  0  0  0  0  0
   12.2220    1.7850   11.9550 H   0  0  0  0  0  0  0  0  0  0  0  0
   10.7100    2.1420   11.1180 H   0  0  0  0  0  0  0  0  0  0  0  0
   10.3720    3.5500   12.8400 H   0  0  0  0  0  0  0  0  0  0  0  0
   12.0710    3.5670   13.3210 H   0  0  0  0  0  0  0  0  0  0  0  0
   10.3760    5.7230   10.3740 H   0  0  0  0  0  0  0  0  0  0  0  0
   12.0920    6.1490   10.2940 H   0  0  0  0  0  0  0  0  0  0  0  0
   10.6500    3.7670    9.2610 H   0  0  0  0  0  0  0  0  0  0  0  0
   12.1890    4.5450    8.7400 H   0  0  0  0  0  0  0  0  0  0  0  0
   13.1730    4.9900   13.2700 H   0  0  0  0  0  0  0  0  0  0  0  0
   13.4450    5.7580   11.6830 H   0  0  0  0  0  0  0  0  0  0  0  0
   12.4700    6.6040   12.9970 H   0  0  0  0  0  0  0  0  0  0  0  0
  1  2  1  0  0  0  0
  2  3  1  0  0  0  0
  3  4  2  0  0  0  0
  3 25  1  0  0  0  0
  4 26  1  0  0  0  0
  5  8  1  0  0  0  0
  5  4  1  0  0  0  0
  6  5  2  0  0  0  0
  7  6  1  0  0  0  0
  7  2  2  0  0  0  0
  8  9  1  0  0  0  0
  8 30  1  0  0  0  0
  9 10  1  0  0  0  0
 11 10  2  0  0  0  0
 12 11  1  0  0  0  0
 13 12  2  0  0  0  0
 13  9  1  0  0  0  0
 14 13  1  0  0  0  0
 15 16  1  0  0  0  0
 15 14  2  0  0  0  0
 16 17  2  0  0  0  0
 17 18  1  0  0  0  0
 17 12  1  0  0  0  0
 18 19  1  0  0  0  0
 19 32  1  0  0  0  0
 19 20  1  0  0  0  0
 20 34  1  0  0  0  0
 20 35  1  0  0  0  0
 21 20  1  0  0  0  0
 21 24  1  0  0  0  0
 22 21  1  0  0  0  0
 23 18  1  0  0  0  0
 23 22  1  0  0  0  0
 24 42  1  0  0  0  0
 24 40  1  0  0  0  0
 27  6  1  0  0  0  0
 28  7  1  0  0  0  0
 29  8  1  0  0  0  0
 31 15  1  0  0  0  0
 33 19  1  0  0  0  0
 36 22  1  0  0  0  0
 37 22  1  0  0  0  0
 38 23  1  0  0  0  0
 39 23  1  0  0  0  0
 41 24  1  0  0  0  0
M  END
>  <Pose>
1

>  <Score>
-5.27

$$$$
