
 OpenBabel03172210413D

 38 41  0  0  1  0  0  0  0  0999 V2000
    6.7990    6.1760   14.4530 B   0  0  0  0  0  0  0  0  0  0  0  0
    8.2100    6.4890   13.2110 C   0  0  0  0  0  0  0  0  0  0  0  0
    9.3250    5.6840   13.1720 C   0  0  0  0  0  0  0  0  0  0  0  0
   10.3800    5.8860   12.2710 C   0  0  0  0  0  0  0  0  0  0  0  0
   10.2470    6.9430   11.4140 C   0  0  0  0  0  0  0  0  0  0  0  0
    9.1100    7.7540   11.4600 C   0  0  0  0  0  0  0  0  0  0  0  0
    8.1020    7.5350   12.3440 C   0  0  0  0  0  0  0  0  0  0  0  0
   11.4850    5.0130   12.3010 N   0  0  0  0  0  0  0  0  0  0  0  0
   12.0630    4.3960   11.1810 C   0  0  0  0  0  0  0  0  0  0  0  0
   11.6810    4.5190   10.0080 O   0  0  0  0  0  0  0  0  0  0  0  0
   13.2530    3.4970   11.3740 C   0  0  2  0  0  0  0  0  0  0  0  0
   13.8460    2.9850   10.0870 C   0  0  0  0  0  0  0  0  0  0  0  0
   13.0810    1.7330   10.1990 N   0  0  2  0  0  0  0  0  0  0  0  0
   12.9130    2.0540   11.6040 C   0  0  0  0  0  0  0  0  0  0  0  0
   12.7190    0.7160    9.2740 C   0  0  1  0  0  0  0  0  0  0  0  0
   13.6440    0.0490    8.5350 N   0  0  0  0  0  0  0  0  0  0  0  0
   13.2700   -0.9240    7.6540 C   0  0  0  0  0  0  0  0  0  0  0  0
   11.9850   -1.2530    7.4890 N   0  0  0  0  0  0  0  0  0  0  0  0
   11.0240   -0.6390    8.1820 C   0  0  0  0  0  0  0  0  0  0  0  0
    9.6840   -0.7830    8.1980 N   0  0  0  0  0  0  0  0  0  0  0  0
    9.2270    0.0850    9.0740 N   0  0  0  0  0  0  0  0  0  0  0  0
   10.2350    0.7780    9.6160 N   0  0  0  0  0  0  0  0  0  0  0  0
   11.4040    0.3450    9.0720 C   0  0  0  0  0  0  0  0  0  0  0  0
    8.8680   -1.7080    7.4140 C   0  0  0  0  0  0  0  0  0  0  0  0
    9.3860    4.8580   13.8710 H   0  0  0  0  0  0  0  0  0  0  0  0
   11.0220    7.1730   10.6790 H   0  0  0  0  0  0  0  0  0  0  0  0
    9.0570    8.5890   10.7490 H   0  0  0  0  0  0  0  0  0  0  0  0
    7.2260    8.1820   12.3610 H   0  0  0  0  0  0  0  0  0  0  0  0
   11.9080    4.8130   13.2800 H   0  0  0  0  0  0  0  0  0  0  0  0
   14.0320    3.9340   12.0220 H   0  0  0  0  0  0  0  0  0  0  0  0
   13.5110    3.4990    9.1620 H   0  0  0  0  0  0  0  0  0  0  0  0
   14.9150    2.7560   10.1080 H   0  0  0  0  0  0  0  0  0  0  0  0
   11.8790    1.9190   11.9880 H   0  0  0  0  0  0  0  0  0  0  0  0
   13.6430    1.4920   12.2050 H   0  0  0  0  0  0  0  0  0  0  0  0
   14.0590   -1.4110    7.1020 H   0  0  0  0  0  0  0  0  0  0  0  0
    7.9440   -1.9830    7.9480 H   0  0  0  0  0  0  0  0  0  0  0  0
    9.4210   -2.6790    7.2520 H   0  0  0  0  0  0  0  0  0  0  0  0
    8.6380   -1.3220    6.4200 H   0  0  0  0  0  0  0  0  0  0  0  0
  2  1  1  0  0  0  0
  3  2  1  0  0  0  0
  3 25  1  0  0  0  0
  4  8  1  0  0  0  0
  4  3  2  0  0  0  0
  5  6  2  0  0  0  0
  5  4  1  0  0  0  0
  6  7  1  0  0  0  0
  7 28  1  0  0  0  0
  7  2  2  0  0  0  0
  8 29  1  0  0  0  0
  9 11  1  0  0  0  0
  9  8  1  0  0  0  0
 10  9  2  0  0  0  0
 11 14  1  0  0  0  0
 11 30  1  1  0  0  0
 12 32  1  0  0  0  0
 12 11  1  0  0  0  0
 13 12  1  1  0  0  0
 13 14  1  0  0  0  0
 14 33  1  0  0  0  0
 14 34  1  0  0  0  0
 15 16  1  1  0  0  0
 15 13  1  0  0  0  0
 17 16  2  0  0  0  0
 18 17  1  0  0  0  0
 18 19  1  0  0  0  0
 19 20  1  0  0  0  0
 19 23  2  0  0  0  0
 20 21  1  0  0  0  0
 21 22  2  0  0  0  0
 23 15  1  0  0  0  0
 23 22  1  0  0  0  0
 24 36  1  0  0  0  0
 24 20  1  0  0  0  0
 26  5  1  0  0  0  0
 27  6  1  0  0  0  0
 31 12  1  0  0  0  0
 35 17  1  0  0  0  0
 37 24  1  0  0  0  0
 38 24  1  0  0  0  0
M  END
>  <Pose>
1

>  <Score>
-6.91

$$$$
