
 OpenBabel03172210413D

 48 52  0  0  1  0  0  0  0  0999 V2000
    3.0790    9.1560   13.2330 Cl  0  0  0  0  0  0  0  0  0  0  0  0
    4.5640    8.3140   12.7800 C   0  0  0  0  0  0  0  0  0  0  0  0
    5.7840    8.8720   13.0910 C   0  0  0  0  0  0  0  0  0  0  0  0
    6.9580    8.2430   12.7530 C   0  0  0  0  0  0  0  0  0  0  0  0
    6.9540    7.0320   12.0910 C   0  0  0  0  0  0  0  0  0  0  0  0
    5.7240    6.4890   11.7860 C   0  0  0  0  0  0  0  0  0  0  0  0
    4.5400    7.1070   12.1180 C   0  0  0  0  0  0  0  0  0  0  0  0
    8.1980    6.4310   11.7680 N   0  0  0  0  0  0  0  0  0  0  0  0
    9.4670    6.9950   12.0830 C   0  0  0  0  0  0  0  0  0  0  0  0
   10.6010    6.4130   11.7710 C   0  0  0  0  0  0  0  0  0  0  0  0
   10.7210    5.1710   11.0900 N   0  0  0  0  0  0  0  0  0  0  0  0
   11.0670    5.1980    9.6890 C   0  0  0  0  0  0  0  0  0  0  0  0
   12.2410    4.2780    9.4770 C   0  0  0  0  0  0  0  0  0  0  0  0
   12.1040    3.0070   10.1590 N   0  0  2  0  0  0  0  0  0  0  0  0
   11.7180    3.0030   11.5560 C   0  0  0  0  0  0  0  0  0  0  0  0
   10.5080    3.8860   11.7180 C   0  0  0  0  0  0  0  0  0  0  0  0
   12.3490    1.7890    9.4530 C   0  0  2  0  0  0  0  0  0  0  0  0
   11.3570    0.8820    9.3580 N   0  0  0  0  0  0  0  0  0  0  0  0
   11.5480   -0.2930    8.6940 C   0  0  0  0  0  0  0  0  0  0  0  0
   12.7380   -0.5740    8.1180 N   0  0  0  0  0  0  0  0  0  0  0  0
   13.7600    0.2860    8.1790 C   0  0  0  0  0  0  0  0  0  0  0  0
   15.0190    0.2610    7.7070 N   0  0  0  0  0  0  0  0  0  0  0  0
   15.5980    1.3920    8.0670 N   0  0  0  0  0  0  0  0  0  0  0  0
   14.7230    2.1610    8.7740 C   0  0  0  0  0  0  0  0  0  0  0  0
   13.5470    1.4850    8.8620 C   0  0  0  0  0  0  0  0  0  0  0  0
   15.6600   -0.8070    6.9330 C   0  0  0  0  0  0  0  0  0  0  0  0
    9.4800    8.2400   12.7650 N   0  0  0  0  0  0  0  0  0  0  0  0
    8.2570    8.8540   13.0950 C   0  0  0  0  0  0  0  0  0  0  0  0
    8.1920    9.9710   13.7060 O   0  0  0  0  0  0  0  0  0  0  0  0
    5.7970    9.8290   13.6160 H   0  0  0  0  0  0  0  0  0  0  0  0
    5.6960    5.5440   11.2680 H   0  0  0  0  0  0  0  0  0  0  0  0
    3.5820    6.6830   11.8810 H   0  0  0  0  0  0  0  0  0  0  0  0
    8.2060    5.5170   11.2680 H   0  0  0  0  0  0  0  0  0  0  0  0
   11.5360    6.8990   12.0410 H   0  0  0  0  0  0  0  0  0  0  0  0
   10.2440    4.8300    9.0420 H   0  0  0  0  0  0  0  0  0  0  0  0
   11.3840    6.2110    9.3650 H   0  0  0  0  0  0  0  0  0  0  0  0
   12.2590    4.0780    8.3630 H   0  0  0  0  0  0  0  0  0  0  0  0
   13.2230    4.7670    9.6680 H   0  0  0  0  0  0  0  0  0  0  0  0
   11.4120    1.9460   11.8120 H   0  0  0  0  0  0  0  0  0  0  0  0
   12.5160    3.3530   12.2340 H   0  0  0  0  0  0  0  0  0  0  0  0
   10.1860    3.9780   12.7710 H   0  0  0  0  0  0  0  0  0  0  0  0
    9.6790    3.3810   11.1430 H   0  0  0  0  0  0  0  0  0  0  0  0
   10.7180   -0.9940    8.6430 H   0  0  0  0  0  0  0  0  0  0  0  0
   14.9070    3.1360    9.2010 H   0  0  0  0  0  0  0  0  0  0  0  0
   16.3530   -0.3800    6.1740 H   0  0  0  0  0  0  0  0  0  0  0  0
   14.8800   -1.3590    6.3500 H   0  0  0  0  0  0  0  0  0  0  0  0
   16.2510   -1.4710    7.5900 H   0  0  0  0  0  0  0  0  0  0  0  0
   10.3710    8.7180   13.0310 H   0  0  0  0  0  0  0  0  0  0  0  0
  2  3  1  0  0  0  0
  2  1  1  0  0  0  0
  3 30  1  0  0  0  0
  4  3  2  0  0  0  0
  4 28  1  0  0  0  0
  5  4  1  0  0  0  0
  6  5  2  0  0  0  0
  6  7  1  0  0  0  0
  7  2  2  0  0  0  0
  8  9  1  0  0  0  0
  8  5  1  0  0  0  0
  9 27  1  0  0  0  0
 10 34  1  0  0  0  0
 10  9  2  0  0  0  0
 11 16  1  0  0  0  0
 11 10  1  0  0  0  0
 12 11  1  0  0  0  0
 13 38  1  0  0  0  0
 13 12  1  0  0  0  0
 14 13  1  1  0  0  0
 14 15  1  0  0  0  0
 15 16  1  0  0  0  0
 15 39  1  0  0  0  0
 15 40  1  0  0  0  0
 16 41  1  0  0  0  0
 17 25  1  1  0  0  0
 17 14  1  0  0  0  0
 18 17  1  0  0  0  0
 19 18  2  0  0  0  0
 20 21  1  0  0  0  0
 20 19  1  0  0  0  0
 21 25  2  0  0  0  0
 22 23  1  0  0  0  0
 22 21  1  0  0  0  0
 23 24  2  0  0  0  0
 24 25  1  0  0  0  0
 24 44  1  0  0  0  0
 26 47  1  0  0  0  0
 26 22  1  0  0  0  0
 27 48  1  0  0  0  0
 27 28  1  0  0  0  0
 28 29  2  0  0  0  0
 31  6  1  0  0  0  0
 32  7  1  0  0  0  0
 33  8  1  0  0  0  0
 35 12  1  0  0  0  0
 36 12  1  0  0  0  0
 37 13  1  0  0  0  0
 42 16  1  0  0  0  0
 43 19  1  0  0  0  0
 45 26  1  0  0  0  0
 46 26  1  0  0  0  0
M  END
>  <Pose>
1

>  <Score>
-6.32

$$$$
