
 OpenBabel03172210413D

 47 50  0  0  1  0  0  0  0  0999 V2000
   19.3040    6.0460    9.4330 S   0  0  0  0  0  0  0  0  0  0  0  0
   20.1110    7.2760    9.6560 O   0  0  0  0  0  0  0  0  0  0  0  0
   18.5330    6.1440    8.1320 O   0  0  0  0  0  0  0  0  0  0  0  0
   18.1970    5.7340   10.6780 N   0  0  0  0  0  0  0  0  0  0  0  0
   17.9800    4.3830   10.9390 C   0  0  0  0  0  0  0  0  0  0  0  0
   16.8220    3.9410   11.7170 C   0  0  1  0  0  0  0  0  0  0  0  0
   16.1990    5.0880   12.4690 C   0  0  0  0  0  0  0  0  0  0  0  0
   15.9280    6.1920   11.5110 C   0  0  0  0  0  0  0  0  0  0  0  0
   17.2190    6.6870   10.9270 C   0  0  0  0  0  0  0  0  0  0  0  0
   15.7570    3.2550   10.9350 C   0  0  0  0  0  0  0  0  0  0  0  0
   14.4790    3.2250   11.3070 N   0  0  0  0  0  0  0  0  0  0  0  0
   13.5430    2.5910   10.5810 C   0  0  0  0  0  0  0  0  0  0  0  0
   12.2010    2.4090   10.7270 N   0  0  0  0  0  0  0  0  0  0  0  0
   11.8080    1.6960    9.6920 N   0  0  0  0  0  0  0  0  0  0  0  0
   12.8180    1.4090    8.8920 N   0  0  0  0  0  0  0  0  0  0  0  0
   13.9260    1.9510    9.4100 C   0  0  0  0  0  0  0  0  0  0  0  0
   15.2510    1.9740    9.0110 C   0  0  0  0  0  0  0  0  0  0  0  0
   16.1050    2.6330    9.8040 N   0  0  0  0  0  0  0  0  0  0  0  0
   15.6540    1.3400    7.8440 O   0  0  0  0  0  0  0  0  0  0  0  0
   11.3900    2.9010   11.7970 C   0  0  0  0  0  0  0  0  0  0  0  0
   10.9270    4.2950   11.5990 C   0  0  0  0  0  0  0  0  0  0  0  0
   10.5850    5.0340   12.7040 C   0  0  0  0  0  0  0  0  0  0  0  0
   10.1400    6.3510   12.6070 C   0  0  0  0  0  0  0  0  0  0  0  0
   10.0330    6.9520   11.3720 C   0  0  0  0  0  0  0  0  0  0  0  0
   10.3750    6.2170   10.2590 C   0  0  0  0  0  0  0  0  0  0  0  0
   10.8190    4.9000   10.3670 C   0  0  0  0  0  0  0  0  0  0  0  0
   10.6980    4.3310   14.3030 Cl  0  0  0  0  0  0  0  0  0  0  0  0
   20.4300    4.6600    9.2110 C   0  0  0  0  0  0  0  0  0  0  0  0
   18.9280    3.9580   11.3890 H   0  0  0  0  0  0  0  0  0  0  0  0
   17.9320    3.8520    9.9380 H   0  0  0  0  0  0  0  0  0  0  0  0
   17.1780    3.2280   12.5330 H   0  0  0  0  0  0  0  0  0  0  0  0
   15.2960    4.7430   13.0140 H   0  0  0  0  0  0  0  0  0  0  0  0
   16.9090    5.4810   13.2370 H   0  0  0  0  0  0  0  0  0  0  0  0
   15.4960    7.0410   12.1300 H   0  0  0  0  0  0  0  0  0  0  0  0
   15.1730    6.0040   10.7460 H   0  0  0  0  0  0  0  0  0  0  0  0
   16.9540    7.2900   10.0190 H   0  0  0  0  0  0  0  0  0  0  0  0
   17.6360    7.4460   11.6500 H   0  0  0  0  0  0  0  0  0  0  0  0
   15.3760    1.7080    6.9460 H   0  0  0  0  0  0  0  0  0  0  0  0
   11.9050    2.8780   12.7840 H   0  0  0  0  0  0  0  0  0  0  0  0
   10.4540    2.2740   11.8400 H   0  0  0  0  0  0  0  0  0  0  0  0
    9.8670    6.9440   13.4690 H   0  0  0  0  0  0  0  0  0  0  0  0
    9.6820    7.9890   11.2870 H   0  0  0  0  0  0  0  0  0  0  0  0
   10.2890    6.6960    9.2730 H   0  0  0  0  0  0  0  0  0  0  0  0
   11.0830    4.3400    9.4810 H   0  0  0  0  0  0  0  0  0  0  0  0
   21.1150    4.5730   10.0660 H   0  0  0  0  0  0  0  0  0  0  0  0
   19.7890    3.7670    9.0690 H   0  0  0  0  0  0  0  0  0  0  0  0
   21.0390    4.9110    8.3190 H   0  0  0  0  0  0  0  0  0  0  0  0
  1  2  2  0  0  0  0
  1  4  1  0  0  0  0
  3  1  2  0  0  0  0
  4  9  1  0  0  0  0
  4  5  1  0  0  0  0
  5 29  1  0  0  0  0
  5  6  1  0  0  0  0
  6  7  1  0  0  0  0
  6 31  1  1  0  0  0
  7 32  1  0  0  0  0
  7 33  1  0  0  0  0
  8 34  1  0  0  0  0
  8  7  1  0  0  0  0
  9  8  1  0  0  0  0
  9 37  1  0  0  0  0
 10 11  2  0  0  0  0
 10  6  1  0  0  0  0
 12 13  1  0  0  0  0
 12 11  1  0  0  0  0
 13 20  1  0  0  0  0
 14 13  1  0  0  0  0
 15 16  1  0  0  0  0
 15 14  2  0  0  0  0
 16 12  2  0  0  0  0
 17 16  1  0  0  0  0
 17 18  2  0  0  0  0
 18 10  1  0  0  0  0
 19 17  1  0  0  0  0
 20 40  1  0  0  0  0
 20 39  1  0  0  0  0
 21 20  1  0  0  0  0
 21 22  1  0  0  0  0
 22 27  1  0  0  0  0
 23 22  2  0  0  0  0
 23 41  1  0  0  0  0
 24 23  1  0  0  0  0
 25 26  1  0  0  0  0
 25 24  2  0  0  0  0
 26 21  2  0  0  0  0
 28  1  1  0  0  0  0
 28 45  1  0  0  0  0
 30  5  1  0  0  0  0
 35  8  1  0  0  0  0
 36  9  1  0  0  0  0
 38 19  1  0  0  0  0
 42 24  1  0  0  0  0
 43 25  1  0  0  0  0
 44 26  1  0  0  0  0
 46 28  1  0  0  0  0
 47 28  1  0  0  0  0
M  END
>  <Pose>
1

>  <Score>
-5.51

$$$$
