
 OpenBabel03172210413D

 54 57  0  0  1  0  0  0  0  0999 V2000
    6.8230    6.5900   12.7300 S   0  0  0  0  0  0  0  0  0  0  0  0
    6.1570    5.4460   11.9530 O   0  0  0  0  0  0  0  0  0  0  0  0
    7.5890    5.8890   13.8250 O   0  0  0  0  0  0  0  0  0  0  0  0
    7.8070    7.4240   11.6490 N   0  0  0  0  0  0  0  0  0  0  0  0
    9.0400    6.6690   11.3420 C   0  0  0  0  0  0  0  0  0  0  0  0
    9.8370    6.6040   12.5920 C   0  0  2  0  0  0  0  0  0  0  0  0
   10.0230    7.7300   13.3040 O   0  0  0  0  0  0  0  0  0  0  0  0
    9.2430    8.8010   13.0940 C   0  0  0  0  0  0  0  0  0  0  0  0
    8.2580    8.7250   11.9790 C   0  0  0  0  0  0  0  0  0  0  0  0
   11.1660    6.0300   12.2320 C   0  0  0  0  0  0  0  0  0  0  0  0
   12.1760    6.7600   12.4180 O   0  0  0  0  0  0  0  0  0  0  0  0
   11.3700    4.7410   11.7050 N   0  0  0  0  0  0  0  0  0  0  0  0
   12.1140    3.6920   12.3770 C   0  0  0  0  0  0  0  0  0  0  0  0
   11.9890    2.4410   11.5300 C   0  0  0  0  0  0  0  0  0  0  0  0
   12.5450    2.6080   10.2000 N   0  0  0  0  0  0  0  0  0  0  0  0
   12.0380    3.8110    9.6210 C   0  0  0  0  0  0  0  0  0  0  0  0
   10.8290    4.3500   10.3950 C   0  0  0  0  0  0  0  0  0  0  0  0
   13.9660    2.5270   10.2940 C   0  0  0  0  0  0  0  0  0  0  0  0
   14.6500    2.2560    8.9820 C   0  0  0  0  0  0  0  0  0  0  0  0
   14.3100    0.8840    8.4000 C   0  0  0  0  0  0  0  0  0  0  0  0
   15.6980    1.2450    8.8310 C   0  0  0  0  0  0  0  0  0  0  0  0
    5.5190    7.5390   13.3690 C   0  0  0  0  0  0  0  0  0  0  0  0
    4.7100    8.3030   12.5570 C   0  0  0  0  0  0  0  0  0  0  0  0
    3.7060    9.1070   13.0630 C   0  0  0  0  0  0  0  0  0  0  0  0
    3.4940    9.1530   14.4180 C   0  0  0  0  0  0  0  0  0  0  0  0
    4.2980    8.3880   15.2510 C   0  0  0  0  0  0  0  0  0  0  0  0
    5.2900    7.5960   14.7450 C   0  0  0  0  0  0  0  0  0  0  0  0
    4.8660    8.2240   10.7920 Cl  0  0  0  0  0  0  0  0  0  0  0  0
    9.5800    7.2400   10.5890 H   0  0  0  0  0  0  0  0  0  0  0  0
    8.8260    5.6620   10.9880 H   0  0  0  0  0  0  0  0  0  0  0  0
    9.3920    5.8390   13.3050 H   0  0  0  0  0  0  0  0  0  0  0  0
    9.9170    9.6890   12.8940 H   0  0  0  0  0  0  0  0  0  0  0  0
    8.7120    9.0720   14.0240 H   0  0  0  0  0  0  0  0  0  0  0  0
    7.4320    9.4280   12.0590 H   0  0  0  0  0  0  0  0  0  0  0  0
    8.8070    9.0860   11.0330 H   0  0  0  0  0  0  0  0  0  0  0  0
   13.1520    3.9930   12.5360 H   0  0  0  0  0  0  0  0  0  0  0  0
   11.6460    3.4390   13.3510 H   0  0  0  0  0  0  0  0  0  0  0  0
   12.5550    1.6200   12.0600 H   0  0  0  0  0  0  0  0  0  0  0  0
   10.9410    2.1330   11.5360 H   0  0  0  0  0  0  0  0  0  0  0  0
   11.6800    3.6110    8.6040 H   0  0  0  0  0  0  0  0  0  0  0  0
   12.8000    4.6170    9.6660 H   0  0  0  0  0  0  0  0  0  0  0  0
   10.5410    5.2900    9.8820 H   0  0  0  0  0  0  0  0  0  0  0  0
   10.0270    3.6180   10.4760 H   0  0  0  0  0  0  0  0  0  0  0  0
   14.3600    3.4210   10.8060 H   0  0  0  0  0  0  0  0  0  0  0  0
   14.2020    1.6640   10.9690 H   0  0  0  0  0  0  0  0  0  0  0  0
   14.6200    3.0850    8.2460 H   0  0  0  0  0  0  0  0  0  0  0  0
   13.7310    0.1740    9.0140 H   0  0  0  0  0  0  0  0  0  0  0  0
   14.0930    0.8100    7.3200 H   0  0  0  0  0  0  0  0  0  0  0  0
   16.4240    1.3590    8.0100 H   0  0  0  0  0  0  0  0  0  0  0  0
   16.0830    0.6410    9.6750 H   0  0  0  0  0  0  0  0  0  0  0  0
    3.0700    9.7100   12.4270 H   0  0  0  0  0  0  0  0  0  0  0  0
    2.7090    9.7830   14.8010 H   0  0  0  0  0  0  0  0  0  0  0  0
    4.0930    8.4560   16.3080 H   0  0  0  0  0  0  0  0  0  0  0  0
    5.9260    6.9930   15.3830 H   0  0  0  0  0  0  0  0  0  0  0  0
  1 22  1  0  0  0  0
  1  3  2  0  0  0  0
  2  1  2  0  0  0  0
  4  9  1  0  0  0  0
  4  1  1  0  0  0  0
  5  4  1  0  0  0  0
  5  6  1  0  0  0  0
  6  7  1  0  0  0  0
  6 31  1  1  0  0  0
  8  7  1  0  0  0  0
  8 33  1  0  0  0  0
  9 34  1  0  0  0  0
  9  8  1  0  0  0  0
 10 11  2  0  0  0  0
 10  6  1  0  0  0  0
 12 10  1  0  0  0  0
 12 13  1  0  0  0  0
 13 36  1  0  0  0  0
 13 37  1  0  0  0  0
 14 39  1  0  0  0  0
 14 38  1  0  0  0  0
 14 13  1  0  0  0  0
 15 18  1  0  0  0  0
 15 14  1  0  0  0  0
 16 41  1  0  0  0  0
 16 15  1  0  0  0  0
 16 17  1  0  0  0  0
 17 43  1  0  0  0  0
 17 12  1  0  0  0  0
 18 44  1  0  0  0  0
 18 45  1  0  0  0  0
 19 18  1  0  0  0  0
 20 21  1  0  0  0  0
 20 19  1  0  0  0  0
 20 47  1  0  0  0  0
 21 19  1  0  0  0  0
 21 50  1  0  0  0  0
 22 27  1  0  0  0  0
 23 24  1  0  0  0  0
 23 22  2  0  0  0  0
 24 25  2  0  0  0  0
 25 52  1  0  0  0  0
 25 26  1  0  0  0  0
 26 53  1  0  0  0  0
 27 26  2  0  0  0  0
 27 54  1  0  0  0  0
 28 23  1  0  0  0  0
 29  5  1  0  0  0  0
 30  5  1  0  0  0  0
 32  8  1  0  0  0  0
 35  9  1  0  0  0  0
 40 16  1  0  0  0  0
 42 17  1  0  0  0  0
 46 19  1  0  0  0  0
 48 20  1  0  0  0  0
 49 21  1  0  0  0  0
 51 24  1  0  0  0  0
M  END
>  <Pose>
1

>  <Score>
-5.87

$$$$
