
 OpenBabel03172210413D

 56 59  0  0  0  0  0  0  0  0999 V2000
   14.3740    6.5590   12.6040 B   0  0  0  0  0  0  0  0  0  0  0  0
   15.8780    5.4860   12.1420 C   0  0  0  0  0  0  0  0  0  0  0  0
   15.7260    4.4320   11.2240 C   0  0  0  0  0  0  0  0  0  0  0  0
   16.8040    3.6840   10.9110 C   0  0  0  0  0  0  0  0  0  0  0  0
   18.0420    3.9290   11.4620 C   0  0  0  0  0  0  0  0  0  0  0  0
   18.1720    4.9880   12.3730 C   0  0  0  0  0  0  0  0  0  0  0  0
   17.0900    5.7710   12.7210 C   0  0  0  0  0  0  0  0  0  0  0  0
   19.1290    3.1420   11.1110 O   0  0  0  0  0  0  0  0  0  0  0  0
   20.3450    3.0750   11.7700 C   0  0  0  0  0  0  0  0  0  0  0  0
   16.6850    2.6400    9.8790 C   0  0  0  0  0  0  0  0  0  0  0  0
   15.4470    2.1610    9.6980 C   0  0  0  0  0  0  0  0  0  0  0  0
   14.3360    2.5830   10.4200 O   0  0  0  0  0  0  0  0  0  0  0  0
   13.2080    1.8970    9.9510 C   0  0  0  0  0  0  0  0  0  0  0  0
   13.5090    1.0270    8.9480 C   0  0  0  0  0  0  0  0  0  0  0  0
   12.5440    0.2680    8.3290 C   0  0  0  0  0  0  0  0  0  0  0  0
   11.2160    0.3800    8.7250 C   0  0  0  0  0  0  0  0  0  0  0  0
   10.9140    1.2730    9.7550 C   0  0  0  0  0  0  0  0  0  0  0  0
   11.8710    2.0170   10.3660 C   0  0  0  0  0  0  0  0  0  0  0  0
   11.6570    2.8330   11.5800 C   0  0  0  0  0  0  0  0  0  0  0  0
   11.3120    4.1510   11.3190 N   0  0  0  0  0  4  0  0  0  0  0  0
   11.4720    4.5000    9.8720 C   0  0  0  0  0  0  0  0  0  0  0  0
   10.1380    5.1970    9.5060 C   0  0  0  0  0  0  0  0  0  0  0  0
    9.4530    5.5630   10.7050 N   0  0  0  0  0  0  0  0  0  0  0  0
   10.2340    6.2210   11.6780 C   0  0  0  0  0  0  0  0  0  0  0  0
   11.4820    5.3110   12.0580 C   0  0  0  0  0  0  0  0  0  0  0  0
    8.1190    5.2490   10.8410 C   0  0  0  0  0  0  0  0  0  0  0  0
    7.2560    6.0020   11.8020 C   0  0  0  0  0  0  0  0  0  0  0  0
    5.9410    6.1090   11.3210 O   0  0  0  0  0  0  0  0  0  0  0  0
    9.5620    1.3260   10.0940 O   0  0  0  0  0  0  0  0  0  0  0  0
   14.9820    1.1670    8.7540 C   0  0  0  0  0  0  0  0  0  0  0  0
   15.6820    0.5460    7.9430 O   0  0  0  0  0  0  0  0  0  0  0  0
   14.7330    4.3060   10.8220 H   0  0  0  0  0  0  0  0  0  0  0  0
   19.1230    5.2130   12.8310 H   0  0  0  0  0  0  0  0  0  0  0  0
   17.2380    6.5900   13.4490 H   0  0  0  0  0  0  0  0  0  0  0  0
   20.3080    2.7800   12.8180 H   0  0  0  0  0  0  0  0  0  0  0  0
   20.9870    2.3210   11.2420 H   0  0  0  0  0  0  0  0  0  0  0  0
   20.8960    4.0610   11.7040 H   0  0  0  0  0  0  0  0  0  0  0  0
   17.5090    2.2710    9.3220 H   0  0  0  0  0  0  0  0  0  0  0  0
   12.8360   -0.4150    7.5310 H   0  0  0  0  0  0  0  0  0  0  0  0
   10.4740   -0.2300    8.2290 H   0  0  0  0  0  0  0  0  0  0  0  0
   10.8480    2.2980   12.1950 H   0  0  0  0  0  0  0  0  0  0  0  0
   12.5520    2.7100   12.2470 H   0  0  0  0  0  0  0  0  0  0  0  0
   10.1750    4.0050   11.2950 H   0  0  0  0  0  0  0  0  0  0  0  0
   11.6130    3.5780    9.2890 H   0  0  0  0  0  0  0  0  0  0  0  0
   12.3050    5.2160    9.7990 H   0  0  0  0  0  0  0  0  0  0  0  0
   10.3830    6.0690    8.8830 H   0  0  0  0  0  0  0  0  0  0  0  0
    9.5630    4.4740    8.9360 H   0  0  0  0  0  0  0  0  0  0  0  0
   10.6930    7.1040   11.2090 H   0  0  0  0  0  0  0  0  0  0  0  0
    9.6930    6.5060   12.5540 H   0  0  0  0  0  0  0  0  0  0  0  0
   12.4160    5.8410   11.6880 H   0  0  0  0  0  0  0  0  0  0  0  0
   11.5250    5.2980   13.1410 H   0  0  0  0  0  0  0  0  0  0  0  0
    7.5780    5.3660    9.8220 H   0  0  0  0  0  0  0  0  0  0  0  0
    7.9750    4.1430   11.0350 H   0  0  0  0  0  0  0  0  0  0  0  0
    7.6060    6.9860   12.1080 H   0  0  0  0  0  0  0  0  0  0  0  0
    7.1820    5.3950   12.7550 H   0  0  0  0  0  0  0  0  0  0  0  0
    5.4770    5.2170   11.4450 H   0  0  0  0  0  0  0  0  0  0  0  0
  2  1  1  0  0  0  0
  2  7  1  0  0  0  0
  3  2  2  0  0  0  0
  4  3  1  0  0  0  0
  4  5  2  0  0  0  0
  5  6  1  0  0  0  0
  6  7  2  0  0  0  0
  6 33  1  0  0  0  0
  7 34  1  0  0  0  0
  8  5  1  0  0  0  0
  8  9  1  0  0  0  0
  9 35  1  0  0  0  0
 10  4  1  0  0  0  0
 11 10  2  0  0  0  0
 11 12  1  0  0  0  0
 13 18  1  0  0  0  0
 13 12  1  0  0  0  0
 14 13  2  0  0  0  0
 15 16  2  0  0  0  0
 15 14  1  0  0  0  0
 16 17  1  0  0  0  0
 17 29  1  0  0  0  0
 17 18  2  0  0  0  0
 18 19  1  0  0  0  0
 19 41  1  0  0  0  0
 19 42  1  0  0  0  0
 20 19  1  0  0  0  0
 20 25  1  0  0  0  0
 21 20  1  0  0  0  0
 22 21  1  0  0  0  0
 22 23  1  0  0  0  0
 23 26  1  0  0  0  0
 23 24  1  0  0  0  0
 24 25  1  0  0  0  0
 24 49  1  0  0  0  0
 25 51  1  0  0  0  0
 26 53  1  0  0  0  0
 26 27  1  0  0  0  0
 27 54  1  0  0  0  0
 27 55  1  0  0  0  0
 28 56  1  0  0  0  0
 28 27  1  0  0  0  0
 30 14  1  0  0  0  0
 30 11  1  0  0  0  0
 31 30  2  0  0  0  0
 32  3  1  0  0  0  0
 36  9  1  0  0  0  0
 37  9  1  0  0  0  0
 38 10  1  0  0  0  0
 39 15  1  0  0  0  0
 40 16  1  0  0  0  0
 43 20  1  0  0  0  0
 44 21  1  0  0  0  0
 45 21  1  0  0  0  0
 46 22  1  0  0  0  0
 47 22  1  0  0  0  0
 48 24  1  0  0  0  0
 50 25  1  0  0  0  0
 52 26  1  0  0  0  0
M  END
>  <Pose>
1

>  <Score>
-7.04

$$$$
