
 OpenBabel03172210413D

 46 49  0  0  1  0  0  0  0  0999 V2000
   17.3620    2.0670    9.1130 Cl  0  0  0  0  0  0  0  0  0  0  0  0
   16.3130    2.9390   10.2100 C   0  0  0  0  0  0  0  0  0  0  0  0
   14.9480    2.6150   10.2170 C   0  0  0  0  0  0  0  0  0  0  0  0
   14.1010    3.2810   11.0650 C   0  0  0  0  0  0  0  0  0  0  0  0
   14.6630    4.2620   11.8890 C   0  0  0  0  0  0  0  0  0  0  0  0
   16.0050    4.5720   11.8720 C   0  0  0  0  0  0  0  0  0  0  0  0
   16.8630    3.9030   11.0190 C   0  0  0  0  0  0  0  0  0  0  0  0
   16.6870    5.8110   12.9180 Cl  0  0  0  0  0  0  0  0  0  0  0  0
   12.6580    3.0070   11.1390 C   0  0  2  0  0  0  0  0  0  0  0  0
   12.2710    1.9440   10.1970 C   0  0  0  0  0  0  0  0  0  0  0  0
   13.1280    1.2960    9.3640 C   0  0  0  0  0  0  0  0  0  0  0  0
   12.7160    0.3160    8.5080 N   0  0  0  0  0  0  0  0  0  0  0  0
   11.4230    0.0020    8.5080 C   0  0  0  0  0  0  0  0  0  0  0  0
   10.9930   -0.9050    7.7270 O   0  0  0  0  0  0  0  0  0  0  0  0
   10.5390    0.6190    9.3170 N   0  0  0  0  0  0  0  0  0  0  0  0
   10.9310    1.5800   10.1610 C   0  0  0  0  0  0  0  0  0  0  0  0
   10.1070    2.1560   10.9160 O   0  0  0  0  0  0  0  0  0  0  0  0
    9.1370    0.2280    9.2710 C   0  0  0  0  0  0  0  0  0  0  0  0
   13.6550   -0.3540    7.6330 C   0  0  0  0  0  0  0  0  0  0  0  0
   14.4540    1.6330    9.3790 O   0  0  0  0  0  0  0  0  0  0  0  0
   11.8530    4.2550   10.9220 C   0  0  0  0  0  0  0  0  0  0  0  0
   11.7640    4.8580    9.6910 C   0  0  0  0  0  0  0  0  0  0  0  0
   11.0610    5.9790    9.4680 N   0  0  0  0  0  0  0  0  0  0  0  0
   10.4130    6.5390   10.5070 C   0  0  0  0  0  0  0  0  0  0  0  0
    9.7540    7.5970   10.2860 O   0  0  0  0  0  0  0  0  0  0  0  0
   10.4730    5.9830   11.7300 N   0  0  0  0  0  0  0  0  0  0  0  0
   11.1680    4.8630   11.9730 C   0  0  0  0  0  0  0  0  0  0  0  0
   11.2420    4.3210   13.1020 O   0  0  0  0  0  0  0  0  0  0  0  0
    9.7610    6.6220   12.8130 C   0  0  0  0  0  0  0  0  0  0  0  0
   10.9830    6.5890    8.1540 C   0  0  0  0  0  0  0  0  0  0  0  0
   12.4300    4.2840    8.6270 O   0  0  0  0  0  0  0  0  0  0  0  0
   13.9980    4.7920   12.5610 H   0  0  0  0  0  0  0  0  0  0  0  0
   17.9180    4.1200   10.9810 H   0  0  0  0  0  0  0  0  0  0  0  0
   12.3770    2.6400   12.1680 H   0  0  0  0  0  0  0  0  0  0  0  0
    8.9850   -0.5330    8.4600 H   0  0  0  0  0  0  0  0  0  0  0  0
    8.4550    1.0790    9.1260 H   0  0  0  0  0  0  0  0  0  0  0  0
    8.8130   -0.2900   10.2020 H   0  0  0  0  0  0  0  0  0  0  0  0
   14.6580    0.1420    7.6730 H   0  0  0  0  0  0  0  0  0  0  0  0
   13.3440   -0.3050    6.5690 H   0  0  0  0  0  0  0  0  0  0  0  0
   13.7850   -1.3920    7.9870 H   0  0  0  0  0  0  0  0  0  0  0  0
    9.3320    5.8630   13.4820 H   0  0  0  0  0  0  0  0  0  0  0  0
    8.9320    7.2620   12.4470 H   0  0  0  0  0  0  0  0  0  0  0  0
   10.4370    7.3320   13.3740 H   0  0  0  0  0  0  0  0  0  0  0  0
    9.8900    6.5730    7.8690 H   0  0  0  0  0  0  0  0  0  0  0  0
   11.2540    7.6700    8.1690 H   0  0  0  0  0  0  0  0  0  0  0  0
   11.5080    6.0070    7.3950 H   0  0  0  0  0  0  0  0  0  0  0  0
  1  2  1  0  0  0  0
  2  3  2  0  0  0  0
  2  7  1  0  0  0  0
  3  4  1  0  0  0  0
  4  9  1  0  0  0  0
  4  5  2  0  0  0  0
  5 32  1  0  0  0  0
  6  5  1  0  0  0  0
  6  8  1  0  0  0  0
  7  6  2  0  0  0  0
  9 34  1  1  0  0  0
 10  9  1  0  0  0  0
 11 20  1  0  0  0  0
 11 10  2  0  0  0  0
 12 13  1  0  0  0  0
 12 11  1  0  0  0  0
 13 15  1  0  0  0  0
 14 13  2  0  0  0  0
 15 16  1  0  0  0  0
 16 10  1  0  0  0  0
 16 17  2  0  0  0  0
 18 15  1  0  0  0  0
 18 37  1  0  0  0  0
 19 38  1  0  0  0  0
 19 40  1  0  0  0  0
 19 12  1  0  0  0  0
 20  3  1  0  0  0  0
 21  9  1  0  0  0  0
 21 27  1  0  0  0  0
 22 21  1  0  0  0  0
 23 22  1  0  0  0  0
 23 24  1  0  0  0  0
 24 26  1  0  0  0  0
 25 24  2  0  0  0  0
 26 27  1  0  0  0  0
 26 29  1  0  0  0  0
 27 28  2  0  0  0  0
 29 43  1  0  0  0  0
 29 41  1  0  0  0  0
 30 45  1  0  0  0  0
 30 23  1  0  0  0  0
 31 22  2  0  0  0  0
 33  7  1  0  0  0  0
 35 18  1  0  0  0  0
 36 18  1  0  0  0  0
 39 19  1  0  0  0  0
 42 29  1  0  0  0  0
 44 30  1  0  0  0  0
 46 30  1  0  0  0  0
M  END
>  <Pose>
1

>  <Score>
-6.02

$$$$
