
 OpenBabel03172210413D

 51 55  0  0  1  0  0  0  0  0999 V2000
   15.1020    0.7410    7.8830 Cl  0  0  0  0  0  0  0  0  0  0  0  0
   13.6710    1.2140    8.7740 C   0  0  0  0  0  0  0  0  0  0  0  0
   13.6100    2.3760    9.4940 C   0  0  0  0  0  0  0  0  0  0  0  0
   12.4470    2.7150   10.1910 C   0  0  0  0  0  0  0  0  0  0  0  0
   11.3900    1.8580   10.1280 C   0  0  0  0  0  0  0  0  0  0  0  0
   11.4500    0.6640    9.3890 C   0  0  0  0  0  0  0  0  0  0  0  0
   12.5870    0.3320    8.7080 C   0  0  0  0  0  0  0  0  0  0  0  0
   10.3220    2.3920   10.9040 N   0  0  0  0  0  0  0  0  0  0  0  0
   10.7180    3.6180   11.4690 C   0  0  0  0  0  0  0  0  0  0  0  0
    9.9760    4.3300   12.2160 O   0  0  0  0  0  0  0  0  0  0  0  0
   12.0940    3.8730   11.0300 C   0  0  1  0  0  0  0  0  0  0  0  0
   13.0320    3.8900   12.1310 N   0  0  0  0  0  0  0  0  0  0  0  0
   13.6070    5.1910   12.2650 C   0  0  2  0  0  0  0  0  0  0  0  0
   12.8330    6.0620   11.3570 C   0  0  1  0  0  0  0  0  0  0  0  0
   12.2370    5.1830   10.2920 C   0  0  2  0  0  0  0  0  0  0  0  0
   10.9360    5.8340   10.0260 C   0  0  0  0  0  0  0  0  0  0  0  0
   10.1930    5.7130    9.0200 O   0  0  0  0  0  0  0  0  0  0  0  0
   10.5840    6.6910   11.1330 N   0  0  0  0  0  0  0  0  0  0  0  0
   11.6200    6.5560   12.0990 C   0  0  0  0  0  0  0  0  0  0  0  0
   11.5030    6.8130   13.3200 O   0  0  0  0  0  0  0  0  0  0  0  0
    9.3970    7.5150   11.2230 C   0  0  0  0  0  0  0  0  0  0  0  0
    8.4060    7.0180   12.2400 C   0  0  1  0  0  0  0  0  0  0  0  0
    7.7380    8.1000   12.8070 O   0  0  0  0  0  0  0  0  0  0  0  0
    6.6020    8.3140   12.0590 C   0  0  0  0  0  0  0  0  0  0  0  0
    6.1860    6.9940   11.4480 C   0  0  0  0  0  0  0  0  0  0  0  0
    7.3770    6.0890   11.7000 C   0  0  0  0  0  0  0  0  0  0  0  0
   15.0930    5.2010   12.0240 C   0  0  0  0  0  0  0  0  0  0  0  0
   15.9050    5.3520   13.2180 C   0  0  0  0  0  0  0  0  0  0  0  0
   17.1500    5.4020   13.1280 O   0  0  0  0  0  0  0  0  0  0  0  0
   15.3100    5.4440   14.4960 N   0  0  0  0  0  0  0  0  0  0  0  0
   14.4330    3.0420    9.5420 H   0  0  0  0  0  0  0  0  0  0  0  0
   10.5890    0.0320    9.3780 H   0  0  0  0  0  0  0  0  0  0  0  0
   12.6150   -0.5880    8.1460 H   0  0  0  0  0  0  0  0  0  0  0  0
    9.3630    1.9510   11.0470 H   0  0  0  0  0  0  0  0  0  0  0  0
   13.8130    3.2070   12.0120 H   0  0  0  0  0  0  0  0  0  0  0  0
   13.3930    5.5150   13.3260 H   0  0  0  0  0  0  0  0  0  0  0  0
   13.3830    6.9260   10.9330 H   0  0  0  0  0  0  0  0  0  0  0  0
   12.8640    5.1040    9.3850 H   0  0  0  0  0  0  0  0  0  0  0  0
    9.6850    8.5570   11.4730 H   0  0  0  0  0  0  0  0  0  0  0  0
    8.9080    7.5710   10.2120 H   0  0  0  0  0  0  0  0  0  0  0  0
    8.9570    6.5110   13.0590 H   0  0  0  0  0  0  0  0  0  0  0  0
    5.8070    8.6620   12.7570 H   0  0  0  0  0  0  0  0  0  0  0  0
    6.7180    9.1100   11.2950 H   0  0  0  0  0  0  0  0  0  0  0  0
    5.3170    6.5890   11.9940 H   0  0  0  0  0  0  0  0  0  0  0  0
    6.0060    7.0890   10.3590 H   0  0  0  0  0  0  0  0  0  0  0  0
    7.6890    5.5390   10.8080 H   0  0  0  0  0  0  0  0  0  0  0  0
    7.1020    5.2950   12.4560 H   0  0  0  0  0  0  0  0  0  0  0  0
   15.3420    4.2060   11.5570 H   0  0  0  0  0  0  0  0  0  0  0  0
   15.3120    5.9440   11.2260 H   0  0  0  0  0  0  0  0  0  0  0  0
   14.5010    4.8230   14.7310 H   0  0  0  0  0  0  0  0  0  0  0  0
   15.6210    6.0970   15.2390 H   0  0  0  0  0  0  0  0  0  0  0  0
  1  2  1  0  0  0  0
  2  3  1  0  0  0  0
  3 31  1  0  0  0  0
  3  4  2  0  0  0  0
  5  4  1  0  0  0  0
  5  8  1  0  0  0  0
  6  5  2  0  0  0  0
  7  2  2  0  0  0  0
  7  6  1  0  0  0  0
  8 34  1  0  0  0  0
  8  9  1  0  0  0  0
  9 10  2  0  0  0  0
 11  4  1  6  0  0  0
 11  9  1  0  0  0  0
 11 12  1  0  0  0  0
 12 13  1  0  0  0  0
 13 36  1  1  0  0  0
 14 37  1  6  0  0  0
 14 19  1  0  0  0  0
 14 13  1  0  0  0  0
 15 38  1  6  0  0  0
 15 11  1  0  0  0  0
 15 14  1  0  0  0  0
 16 15  1  0  0  0  0
 16 18  1  0  0  0  0
 17 16  2  0  0  0  0
 18 21  1  0  0  0  0
 18 19  1  0  0  0  0
 19 20  2  0  0  0  0
 21 39  1  0  0  0  0
 21 22  1  0  0  0  0
 22 23  1  0  0  0  0
 22 41  1  1  0  0  0
 24 42  1  0  0  0  0
 24 23  1  0  0  0  0
 25 26  1  0  0  0  0
 25 44  1  0  0  0  0
 25 24  1  0  0  0  0
 26 22  1  0  0  0  0
 26 47  1  0  0  0  0
 27 13  1  0  0  0  0
 27 28  1  0  0  0  0
 28 30  1  0  0  0  0
 29 28  2  0  0  0  0
 30 50  1  0  0  0  0
 30 51  1  0  0  0  0
 32  6  1  0  0  0  0
 33  7  1  0  0  0  0
 35 12  1  0  0  0  0
 40 21  1  0  0  0  0
 43 24  1  0  0  0  0
 45 25  1  0  0  0  0
 46 26  1  0  0  0  0
 48 27  1  0  0  0  0
 49 27  1  0  0  0  0
M  END
>  <Pose>
1

>  <Score>
-6.98

$$$$
