
 OpenBabel03172210413D

 53 56  0  0  0  0  0  0  0  0999 V2000
    4.1190    8.3040   11.6020 Cl  0  0  0  0  0  0  0  0  0  0  0  0
    5.8290    7.9550   11.6530 C   0  0  0  0  0  0  0  0  0  0  0  0
    6.3050    6.6640   11.6220 C   0  0  0  0  0  0  0  0  0  0  0  0
    7.6360    6.3780   11.6600 C   0  0  0  0  0  0  0  0  0  0  0  0
    8.6120    7.3950   11.7370 C   0  0  0  0  0  0  0  0  0  0  0  0
    8.1040    8.7110   11.7680 C   0  0  0  0  0  0  0  0  0  0  0  0
    6.7640    8.9610   11.7280 C   0  0  0  0  0  0  0  0  0  0  0  0
    9.8870    7.1850   11.7770 O   0  0  0  0  0  0  0  0  0  0  0  0
   11.1470    6.9380   11.8110 C   0  0  0  0  0  0  0  0  0  0  0  0
   11.7310    5.5920   11.9780 C   0  0  0  0  0  0  0  0  0  0  0  0
   12.8930    5.5920   12.5700 O   0  0  0  0  0  0  0  0  0  0  0  0
   11.2400    4.3500   11.6100 N   0  0  0  0  0  0  0  0  0  0  0  0
   11.5400    3.1930   12.5090 C   0  0  0  0  0  0  0  0  0  0  0  0
   11.8680    2.0380   11.5970 C   0  0  0  0  0  0  0  0  0  0  0  0
   12.2640    2.4570   10.2640 N   0  0  0  0  0  0  0  0  0  0  0  0
   11.2940    3.1800    9.4870 C   0  0  0  0  0  0  0  0  0  0  0  0
   10.4500    3.9810   10.4650 C   0  0  0  0  0  0  0  0  0  0  0  0
   13.5550    2.1580    9.7810 C   0  0  0  0  0  0  0  0  0  0  0  0
   14.6380    2.8970   10.1510 N   0  0  0  0  0  0  0  0  0  0  0  0
   15.8700    2.6530    9.7270 C   0  0  0  0  0  0  0  0  0  0  0  0
   16.0410    1.6060    8.8790 N   0  0  0  0  0  0  0  0  0  0  0  0
   15.0420    0.8440    8.4750 C   0  0  0  0  0  0  0  0  0  0  0  0
   13.7510    1.1060    8.9230 C   0  0  0  0  0  0  0  0  0  0  0  0
   17.0050    3.4120   10.1020 N   0  0  0  0  0  0  0  0  0  0  0  0
   17.6330    3.1880   11.4000 C   0  0  0  0  0  0  0  0  0  0  0  0
   17.7050    4.5720   12.0540 C   0  0  0  0  0  0  0  0  0  0  0  0
   18.4600    5.4160   11.2850 O   0  0  0  0  0  0  0  0  0  0  0  0
   17.9500    5.6750   10.0350 C   0  0  0  0  0  0  0  0  0  0  0  0
   17.5970    4.4240    9.2620 C   0  0  0  0  0  0  0  0  0  0  0  0
    5.5460    5.8810   11.5620 H   0  0  0  0  0  0  0  0  0  0  0  0
    7.9850    5.3770   11.6270 H   0  0  0  0  0  0  0  0  0  0  0  0
    8.8440    9.5040   11.8260 H   0  0  0  0  0  0  0  0  0  0  0  0
    6.4020    9.9830   11.7530 H   0  0  0  0  0  0  0  0  0  0  0  0
   11.6650    7.5470   12.6620 H   0  0  0  0  0  0  0  0  0  0  0  0
   11.7570    7.3830   10.9240 H   0  0  0  0  0  0  0  0  0  0  0  0
   10.5890    3.0150   13.0490 H   0  0  0  0  0  0  0  0  0  0  0  0
   12.3830    3.4580   13.1830 H   0  0  0  0  0  0  0  0  0  0  0  0
   10.9200    1.4420   11.4400 H   0  0  0  0  0  0  0  0  0  0  0  0
   12.6640    1.3710   12.0220 H   0  0  0  0  0  0  0  0  0  0  0  0
   11.7060    3.8040    8.6910 H   0  0  0  0  0  0  0  0  0  0  0  0
   10.6310    2.4320    8.9590 H   0  0  0  0  0  0  0  0  0  0  0  0
    9.6870    3.2200   10.8430 H   0  0  0  0  0  0  0  0  0  0  0  0
    9.8470    4.7600   10.0180 H   0  0  0  0  0  0  0  0  0  0  0  0
   15.2030    0.0050    7.7900 H   0  0  0  0  0  0  0  0  0  0  0  0
   12.9330    0.4700    8.5890 H   0  0  0  0  0  0  0  0  0  0  0  0
   17.0400    2.5030   12.0330 H   0  0  0  0  0  0  0  0  0  0  0  0
   18.6530    2.8510   11.2150 H   0  0  0  0  0  0  0  0  0  0  0  0
   16.6560    4.9220   12.1970 H   0  0  0  0  0  0  0  0  0  0  0  0
   18.1700    4.4430   13.0320 H   0  0  0  0  0  0  0  0  0  0  0  0
   17.0560    6.3360   10.0530 H   0  0  0  0  0  0  0  0  0  0  0  0
   18.7280    6.2090    9.4500 H   0  0  0  0  0  0  0  0  0  0  0  0
   16.8920    4.7320    8.4610 H   0  0  0  0  0  0  0  0  0  0  0  0
   18.5020    4.0320    8.7700 H   0  0  0  0  0  0  0  0  0  0  0  0
  1  2  1  0  0  0  0
  2  7  1  0  0  0  0
  3  2  2  0  0  0  0
  3  4  1  0  0  0  0
  4  5  2  0  0  0  0
  5  6  1  0  0  0  0
  5  8  1  0  0  0  0
  6 32  1  0  0  0  0
  7 33  1  0  0  0  0
  7  6  2  0  0  0  0
  8  9  1  0  0  0  0
  9 10  1  0  0  0  0
  9 34  1  0  0  0  0
 10 11  2  0  0  0  0
 12 10  1  0  0  0  0
 12 13  1  0  0  0  0
 13 36  1  0  0  0  0
 13 37  1  0  0  0  0
 14 39  1  0  0  0  0
 14 13  1  0  0  0  0
 15 14  1  0  0  0  0
 16 15  1  0  0  0  0
 16 17  1  0  0  0  0
 17 42  1  0  0  0  0
 17 12  1  0  0  0  0
 18 19  1  0  0  0  0
 18 15  1  0  0  0  0
 20 24  1  0  0  0  0
 20 19  2  0  0  0  0
 21 20  1  0  0  0  0
 22 21  2  0  0  0  0
 22 23  1  0  0  0  0
 23 18  2  0  0  0  0
 24 25  1  0  0  0  0
 25 46  1  0  0  0  0
 25 26  1  0  0  0  0
 26 48  1  0  0  0  0
 26 49  1  0  0  0  0
 27 26  1  0  0  0  0
 28 50  1  0  0  0  0
 28 27  1  0  0  0  0
 29 28  1  0  0  0  0
 29 24  1  0  0  0  0
 30  3  1  0  0  0  0
 31  4  1  0  0  0  0
 35  9  1  0  0  0  0
 38 14  1  0  0  0  0
 40 16  1  0  0  0  0
 41 16  1  0  0  0  0
 43 17  1  0  0  0  0
 44 22  1  0  0  0  0
 45 23  1  0  0  0  0
 47 25  1  0  0  0  0
 51 28  1  0  0  0  0
 52 29  1  0  0  0  0
 53 29  1  0  0  0  0
M  END
>  <Pose>
1

>  <Score>
-6.40

$$$$
