
 OpenBabel03172210413D

 45 49  0  0  0  0  0  0  0  0999 V2000
   15.5010   -0.7680    7.4550 Cl  0  0  0  0  0  0  0  0  0  0  0  0
   14.4980    0.2830    8.4070 C   0  0  0  0  0  0  0  0  0  0  0  0
   15.0740    1.2430    9.2000 C   0  0  0  0  0  0  0  0  0  0  0  0
   14.2830    2.0770    9.9580 C   0  0  0  0  0  0  0  0  0  0  0  0
   12.9110    1.9820    9.9470 C   0  0  0  0  0  0  0  0  0  0  0  0
   12.3620    1.0100    9.1420 C   0  0  0  0  0  0  0  0  0  0  0  0
   13.1390    0.1620    8.3750 C   0  0  0  0  0  0  0  0  0  0  0  0
   12.0450    2.8140   10.7050 N   0  0  0  0  0  0  0  0  0  0  0  0
   11.5210    2.5620   11.8910 N   0  0  0  0  0  0  0  0  0  0  0  0
   10.7580    3.5530   12.3090 N   0  0  0  0  0  0  0  0  0  0  0  0
   10.7510    4.5250   11.3820 C   0  0  0  0  0  0  0  0  0  0  0  0
   11.5680    4.0420   10.3790 C   0  0  0  0  0  0  0  0  0  0  0  0
   11.7550    4.8210    9.2900 N   0  0  0  0  0  0  0  0  0  0  0  0
   11.1480    6.0210    9.2240 C   0  0  0  0  0  0  0  0  0  0  0  0
   10.3480    6.4900   10.2130 N   0  0  0  0  0  0  0  0  0  0  0  0
   10.1270    5.7550   11.3180 C   0  0  0  0  0  0  0  0  0  0  0  0
    9.2870    6.2330   12.3690 N   0  0  0  0  0  0  0  0  0  0  0  0
    7.8580    6.0660   12.1810 C   0  0  0  0  0  0  0  0  0  0  0  0
    7.1320    6.0410   13.5240 C   0  0  0  0  0  0  0  0  0  0  0  0
    7.7300    6.9300   14.4540 N   0  0  0  0  0  0  0  0  0  0  0  0
    9.1400    6.5600   14.7880 C   0  0  0  0  0  0  0  0  0  0  0  0
    9.9090    6.8310   13.5080 C   0  0  0  0  0  0  0  0  0  0  0  0
    7.1440    8.0440   15.0290 C   0  0  0  0  0  0  0  0  0  0  0  0
    6.5600    7.8080   16.1910 O   0  0  0  0  0  0  0  0  0  0  0  0
    7.0400    9.4350   14.6140 C   0  0  0  0  0  0  0  0  0  0  0  0
    6.9580    9.7420   13.1670 C   0  0  0  0  0  0  0  0  0  0  0  0
    5.8560   10.1320   14.1230 C   0  0  0  0  0  0  0  0  0  0  0  0
   16.1700    1.3110    9.2030 H   0  0  0  0  0  0  0  0  0  0  0  0
   14.7700    2.8190   10.5690 H   0  0  0  0  0  0  0  0  0  0  0  0
   11.2750    0.9120    9.1140 H   0  0  0  0  0  0  0  0  0  0  0  0
   12.6190   -0.5840    7.7620 H   0  0  0  0  0  0  0  0  0  0  0  0
   11.3070    6.6460    8.3360 H   0  0  0  0  0  0  0  0  0  0  0  0
    7.4720    6.8470   11.5030 H   0  0  0  0  0  0  0  0  0  0  0  0
    7.6550    5.0900   11.6980 H   0  0  0  0  0  0  0  0  0  0  0  0
    7.3150    4.9940   13.9550 H   0  0  0  0  0  0  0  0  0  0  0  0
    6.0800    6.0770   13.3370 H   0  0  0  0  0  0  0  0  0  0  0  0
    9.5130    7.1620   15.6140 H   0  0  0  0  0  0  0  0  0  0  0  0
    9.1580    5.4860   14.9740 H   0  0  0  0  0  0  0  0  0  0  0  0
    9.9990    7.9450   13.4390 H   0  0  0  0  0  0  0  0  0  0  0  0
   10.9360    6.4380   13.6610 H   0  0  0  0  0  0  0  0  0  0  0  0
    7.7590   10.1290   15.2000 H   0  0  0  0  0  0  0  0  0  0  0  0
    6.8310    8.9450   12.4190 H   0  0  0  0  0  0  0  0  0  0  0  0
    7.5560   10.5900   12.7390 H   0  0  0  0  0  0  0  0  0  0  0  0
    5.7840   11.2470   14.3650 H   0  0  0  0  0  0  0  0  0  0  0  0
    4.8750    9.7280   13.9200 H   0  0  0  0  0  0  0  0  0  0  0  0
  1  2  1  0  0  0  0
  2  3  1  0  0  0  0
  3 28  1  0  0  0  0
  3  4  2  0  0  0  0
  4 29  1  0  0  0  0
  5  4  1  0  0  0  0
  5  8  1  0  0  0  0
  6  5  2  0  0  0  0
  7  2  2  0  0  0  0
  7  6  1  0  0  0  0
  8  9  1  0  0  0  0
  9 10  2  0  0  0  0
 11 10  1  0  0  0  0
 12  8  1  0  0  0  0
 12 11  2  0  0  0  0
 13 12  1  0  0  0  0
 14 13  2  0  0  0  0
 14 15  1  0  0  0  0
 15 16  2  0  0  0  0
 16 11  1  0  0  0  0
 16 17  1  0  0  0  0
 17 22  1  0  0  0  0
 18 17  1  0  0  0  0
 18 19  1  0  0  0  0
 19 35  1  0  0  0  0
 19 20  1  0  0  0  0
 20 21  1  0  0  0  0
 20 23  1  0  0  0  0
 21 38  1  0  0  0  0
 21 37  1  0  0  0  0
 22 40  1  0  0  0  0
 22 21  1  0  0  0  0
 23 24  2  0  0  0  0
 25 23  1  0  0  0  0
 25 41  1  0  0  0  0
 26 27  1  0  0  0  0
 26 25  1  0  0  0  0
 27 44  1  0  0  0  0
 27 25  1  0  0  0  0
 30  6  1  0  0  0  0
 31  7  1  0  0  0  0
 32 14  1  0  0  0  0
 33 18  1  0  0  0  0
 34 18  1  0  0  0  0
 36 19  1  0  0  0  0
 39 22  1  0  0  0  0
 42 26  1  0  0  0  0
 43 26  1  0  0  0  0
 45 27  1  0  0  0  0
M  END
>  <Pose>
1

>  <Score>
-5.64

$$$$
