
 OpenBabel03172210413D

 45 48  0  0  0  0  0  0  0  0999 V2000
   10.7210    1.9560    9.7700 Cl  0  0  0  0  0  0  0  0  0  0  0  0
   12.1220    2.7680   10.4350 C   0  0  0  0  0  0  0  0  0  0  0  0
   13.3610    2.3960    9.9940 C   0  0  0  0  0  0  0  0  0  0  0  0
   14.5000    2.9840   10.4670 C   0  0  0  0  0  0  0  0  0  0  0  0
   14.3730    3.9710   11.4090 C   0  0  0  0  0  0  0  0  0  0  0  0
   13.0970    4.3500   11.8590 C   0  0  0  0  0  0  0  0  0  0  0  0
   11.9500    3.7690   11.3950 C   0  0  0  0  0  0  0  0  0  0  0  0
   10.6410    4.0880   11.7780 N   0  0  0  0  0  0  0  0  0  0  0  0
    9.7170    4.7710   10.9840 C   0  0  0  0  0  0  0  0  0  0  0  0
    9.8100    4.8470    9.7510 O   0  0  0  0  0  0  0  0  0  0  0  0
    8.5470    5.4540   11.6040 C   0  0  0  0  0  0  0  0  0  0  0  0
    8.6810    5.9600   12.7910 N   0  0  0  0  0  0  0  0  0  0  0  0
    7.6370    6.6150   13.4420 N   0  0  0  0  0  0  0  0  0  0  0  0
    6.3930    6.7330   12.7900 C   0  0  0  0  0  0  0  0  0  0  0  0
    5.4950    7.4170   13.3890 O   0  0  0  0  0  0  0  0  0  0  0  0
    6.1150    6.1080   11.4820 C   0  0  0  0  0  0  0  0  0  0  0  0
    7.3050    5.5610   10.9300 N   0  0  0  0  0  0  0  0  0  0  0  0
    7.8220    7.1630   14.7700 C   0  0  0  0  0  0  0  0  0  0  0  0
    8.3400    8.4210   14.9630 C   0  0  0  0  0  0  0  0  0  0  0  0
    8.5040    8.9300   16.2550 C   0  0  0  0  0  0  0  0  0  0  0  0
    8.1530    8.1820   17.3610 C   0  0  0  0  0  0  0  0  0  0  0  0
    7.6370    6.9240   17.1510 C   0  0  0  0  0  0  0  0  0  0  0  0
    7.4790    6.4340   15.8880 C   0  0  0  0  0  0  0  0  0  0  0  0
    8.3050    8.6800   18.7600 C   0  0  0  0  0  0  0  0  0  0  0  0
   15.4820    4.6210   11.9440 O   0  0  0  0  0  0  0  0  0  0  0  0
   16.7690    4.5860   11.3100 C   0  0  0  0  0  0  0  0  0  0  0  0
   16.9320    3.3030   10.5640 C   0  0  0  0  0  0  0  0  0  0  0  0
   18.0860    2.8340   10.4300 O   0  0  0  0  0  0  0  0  0  0  0  0
   15.8100    2.6200   10.0150 N   0  0  0  0  0  0  0  0  0  0  0  0
   13.5070    1.6070    9.2380 H   0  0  0  0  0  0  0  0  0  0  0  0
   13.0400    5.1340   12.6030 H   0  0  0  0  0  0  0  0  0  0  0  0
   10.3290    3.7840   12.7540 H   0  0  0  0  0  0  0  0  0  0  0  0
    5.4100    5.2420   11.6480 H   0  0  0  0  0  0  0  0  0  0  0  0
    5.6010    6.8190   10.8020 H   0  0  0  0  0  0  0  0  0  0  0  0
    7.2800    5.1980    9.9410 H   0  0  0  0  0  0  0  0  0  0  0  0
    8.6160    9.0110   14.0980 H   0  0  0  0  0  0  0  0  0  0  0  0
    8.9050    9.9070   16.3990 H   0  0  0  0  0  0  0  0  0  0  0  0
    7.3590    6.3350   18.0380 H   0  0  0  0  0  0  0  0  0  0  0  0
    7.0660    5.4360   15.7660 H   0  0  0  0  0  0  0  0  0  0  0  0
    8.7750    7.9290   19.4190 H   0  0  0  0  0  0  0  0  0  0  0  0
    8.8820    9.6080   18.8150 H   0  0  0  0  0  0  0  0  0  0  0  0
    7.2850    8.9000   19.1690 H   0  0  0  0  0  0  0  0  0  0  0  0
   16.7430    5.4050   10.5430 H   0  0  0  0  0  0  0  0  0  0  0  0
   17.5660    4.7520   12.0440 H   0  0  0  0  0  0  0  0  0  0  0  0
   15.9360    1.8750    9.3030 H   0  0  0  0  0  0  0  0  0  0  0  0
  1  2  1  0  0  0  0
  2  7  1  0  0  0  0
  3  2  2  0  0  0  0
  3  4  1  0  0  0  0
  4  5  2  0  0  0  0
  5  6  1  0  0  0  0
  5 25  1  0  0  0  0
  6 31  1  0  0  0  0
  7  8  1  0  0  0  0
  7  6  2  0  0  0  0
  8 32  1  0  0  0  0
  9 11  1  0  0  0  0
  9  8  1  0  0  0  0
 10  9  2  0  0  0  0
 11 12  2  0  0  0  0
 12 13  1  0  0  0  0
 13 18  1  0  0  0  0
 14 15  2  0  0  0  0
 14 13  1  0  0  0  0
 16 33  1  0  0  0  0
 16 14  1  0  0  0  0
 17 16  1  0  0  0  0
 17 11  1  0  0  0  0
 18 19  2  0  0  0  0
 18 23  1  0  0  0  0
 19 20  1  0  0  0  0
 20 37  1  0  0  0  0
 20 21  2  0  0  0  0
 21 24  1  0  0  0  0
 22 21  1  0  0  0  0
 22 38  1  0  0  0  0
 23 22  2  0  0  0  0
 24 41  1  0  0  0  0
 24 42  1  0  0  0  0
 24 40  1  0  0  0  0
 26 25  1  0  0  0  0
 26 44  1  0  0  0  0
 27 26  1  0  0  0  0
 28 27  2  0  0  0  0
 29  4  1  0  0  0  0
 29 27  1  0  0  0  0
 30  3  1  0  0  0  0
 34 16  1  0  0  0  0
 35 17  1  0  0  0  0
 36 19  1  0  0  0  0
 39 23  1  0  0  0  0
 43 26  1  0  0  0  0
 45 29  1  0  0  0  0
M  END
>  <Pose>
1

>  <Score>
-6.08

$$$$
