
 OpenBabel03172210413D

 41 44  0  0  1  0  0  0  0  0999 V2000
   12.1710    5.7690   10.9140 S   0  0  0  0  0  0  0  0  0  0  0  0
   12.9870    6.9590   11.3990 O   0  0  0  0  0  0  0  0  0  0  0  0
   12.1000    5.9540    9.4020 O   0  0  0  0  0  0  0  0  0  0  0  0
   12.9450    4.3120   11.2190 N   0  0  0  0  0  0  0  0  0  0  0  0
   14.2920    4.1840   10.8290 C   0  0  0  0  0  0  0  0  0  0  0  0
   14.8220    2.7660   10.9060 C   0  0  0  0  0  0  0  0  0  0  0  0
   13.8590    1.9240   10.1370 C   0  0  1  0  0  0  0  0  0  0  0  0
   12.5190    2.1250   10.3970 C   0  0  0  0  0  0  0  0  0  0  0  0
   11.6070    1.4040    9.7440 N   0  0  0  0  0  0  0  0  0  0  0  0
   12.0350    0.4960    8.8430 C   0  0  2  0  0  0  0  0  0  0  0  0
   13.3340    0.2810    8.5710 N   0  0  0  0  0  0  0  0  0  0  0  0
   13.4580   -0.6790    7.6350 N   0  0  0  0  0  0  0  0  0  0  0  0
   12.2470   -1.1200    7.2670 C   0  0  0  0  0  0  0  0  0  0  0  0
   11.3460   -0.3970    8.0110 C   0  0  0  0  0  0  0  0  0  0  0  0
   14.2850    0.9940    9.2150 C   0  0  0  0  0  0  0  0  0  0  0  0
   15.5150    0.8380    9.0040 O   0  0  0  0  0  0  0  0  0  0  0  0
   12.1780    3.1520   11.4100 C   0  0  0  0  0  0  0  0  0  0  0  0
   10.5830    5.9490   11.5540 C   0  0  0  0  0  0  0  0  0  0  0  0
    9.4660    5.6070   10.7950 C   0  0  0  0  0  0  0  0  0  0  0  0
    8.2090    5.7660   11.3360 C   0  0  0  0  0  0  0  0  0  0  0  0
    8.0150    6.2460   12.5900 C   0  0  0  0  0  0  0  0  0  0  0  0
    9.0910    6.5900   13.3600 C   0  0  0  0  0  0  0  0  0  0  0  0
   10.3500    6.4310   12.8190 C   0  0  0  0  0  0  0  0  0  0  0  0
    8.8680    7.2160   14.9970 Cl  0  0  0  0  0  0  0  0  0  0  0  0
    9.5730    5.1140    9.5160 O   0  0  0  0  0  0  0  0  0  0  0  0
    8.7490    5.6460    8.5040 C   0  0  0  0  0  0  0  0  0  0  0  0
   14.9280    4.8410   11.4730 H   0  0  0  0  0  0  0  0  0  0  0  0
   14.4210    4.5700    9.7830 H   0  0  0  0  0  0  0  0  0  0  0  0
   14.8730    2.4680   11.9770 H   0  0  0  0  0  0  0  0  0  0  0  0
   15.8250    2.7730   10.4440 H   0  0  0  0  0  0  0  0  0  0  0  0
   14.3790   -1.0110    7.2680 H   0  0  0  0  0  0  0  0  0  0  0  0
   11.9910   -1.8870    6.5360 H   0  0  0  0  0  0  0  0  0  0  0  0
   10.2470   -0.4570    8.0060 H   0  0  0  0  0  0  0  0  0  0  0  0
   12.4630    2.6990   12.4060 H   0  0  0  0  0  0  0  0  0  0  0  0
   11.1120    3.3660   11.4730 H   0  0  0  0  0  0  0  0  0  0  0  0
    7.3050    5.5070   10.7630 H   0  0  0  0  0  0  0  0  0  0  0  0
    7.0100    6.3700   13.0160 H   0  0  0  0  0  0  0  0  0  0  0  0
   11.1760    6.7250   13.4870 H   0  0  0  0  0  0  0  0  0  0  0  0
    7.6750    5.5960    8.7870 H   0  0  0  0  0  0  0  0  0  0  0  0
    8.9770    6.7240    8.3090 H   0  0  0  0  0  0  0  0  0  0  0  0
    8.9350    5.1310    7.5290 H   0  0  0  0  0  0  0  0  0  0  0  0
  1  4  1  0  0  0  0
  1  2  2  0  0  0  0
  1 18  1  0  0  0  0
  3  1  2  0  0  0  0
  4 17  1  0  0  0  0
  5  6  1  0  0  0  0
  5  4  1  0  0  0  0
  5 27  1  0  0  0  0
  6 29  1  0  0  0  0
  7 15  1  6  0  0  0
  7  8  1  0  0  0  0
  7  6  1  0  0  0  0
  8 17  1  0  0  0  0
  9  8  2  0  0  0  0
 10 14  1  6  0  0  0
 10  9  1  0  0  0  0
 11 10  1  0  0  0  0
 11 15  1  0  0  0  0
 12 11  1  0  0  0  0
 13 12  1  0  0  0  0
 13 14  2  0  0  0  0
 16 15  2  0  0  0  0
 17 35  1  0  0  0  0
 17 34  1  0  0  0  0
 18 23  1  0  0  0  0
 19 20  1  0  0  0  0
 19 18  2  0  0  0  0
 20 21  2  0  0  0  0
 21 37  1  0  0  0  0
 21 22  1  0  0  0  0
 22 24  1  0  0  0  0
 23 22  2  0  0  0  0
 23 38  1  0  0  0  0
 25 19  1  0  0  0  0
 26 39  1  0  0  0  0
 26 25  1  0  0  0  0
 28  5  1  0  0  0  0
 30  6  1  0  0  0  0
 31 12  1  0  0  0  0
 32 13  1  0  0  0  0
 33 14  1  0  0  0  0
 36 20  1  0  0  0  0
 40 26  1  0  0  0  0
 41 26  1  0  0  0  0
M  END
>  <Pose>
1

>  <Score>
-6.36

$$$$
