
 OpenBabel03172210413D

 41 43  0  0  1  0  0  0  0  0999 V2000
    2.7190    9.3570   13.5000 Cl  0  0  0  0  0  0  0  0  0  0  0  0
    4.1980    8.4430   13.7840 C   0  0  0  0  0  0  0  0  0  0  0  0
    4.4910    8.0100   15.0590 C   0  0  0  0  0  0  0  0  0  0  0  0
    5.6520    7.2970   15.2610 C   0  0  0  0  0  0  0  0  0  0  0  0
    6.5480    6.9900   14.2320 C   0  0  0  0  0  0  0  0  0  0  0  0
    6.2490    7.4220   12.9730 C   0  0  0  0  0  0  0  0  0  0  0  0
    5.0740    8.1490   12.7490 C   0  0  0  0  0  0  0  0  0  0  0  0
    7.7260    6.2340   14.5760 C   0  0  0  0  0  0  0  0  0  0  0  0
    7.6320    5.3040   15.4260 O   0  0  0  0  0  0  0  0  0  0  0  0
    8.9720    6.5480   13.9530 N   0  0  0  0  0  0  0  0  0  0  0  0
    9.0590    6.4270   12.5270 C   0  0  0  0  0  0  0  0  0  0  0  0
   10.3190    5.8990   11.9690 C   0  0  2  0  0  0  0  0  0  0  0  0
   10.4740    5.9300   10.5480 N   0  0  1  0  0  0  0  0  0  0  0  0
   11.9050    6.2510   10.3220 C   0  0  0  0  0  0  0  0  0  0  0  0
   12.6470    5.3070   11.2770 C   0  0  0  0  0  0  0  0  0  0  0  0
   11.8560    4.1420   11.6170 N   0  0  1  0  0  0  0  0  0  0  0  0
   10.6800    4.4920   12.4180 C   0  0  0  0  0  0  0  0  0  0  0  0
   11.3250    3.6170   10.3710 C   0  0  0  0  0  0  0  0  0  0  0  0
   10.3140    4.6500    9.8880 C   0  0  0  0  0  0  0  0  0  0  0  0
    3.6200    8.2990   16.1010 O   0  0  0  0  0  0  0  0  0  0  0  0
    3.7590    7.6880   17.3690 C   0  0  0  0  0  0  0  0  0  0  0  0
    5.8480    6.9720   16.2840 H   0  0  0  0  0  0  0  0  0  0  0  0
    6.8840    7.2250   12.1390 H   0  0  0  0  0  0  0  0  0  0  0  0
    4.8580    8.4810   11.7430 H   0  0  0  0  0  0  0  0  0  0  0  0
    9.7480    6.8470   14.5430 H   0  0  0  0  0  0  0  0  0  0  0  0
    8.2200    5.8260   12.1470 H   0  0  0  0  0  0  0  0  0  0  0  0
    8.9350    7.4710   12.1160 H   0  0  0  0  0  0  0  0  0  0  0  0
   11.1430    6.5370   12.4380 H   0  0  0  0  0  0  0  0  0  0  0  0
   12.0170    7.3000   10.6500 H   0  0  0  0  0  0  0  0  0  0  0  0
   12.1640    6.0700    9.2770 H   0  0  0  0  0  0  0  0  0  0  0  0
   13.5110    4.9340   10.6870 H   0  0  0  0  0  0  0  0  0  0  0  0
   13.0330    5.8560   12.1420 H   0  0  0  0  0  0  0  0  0  0  0  0
    9.9090    3.7510   12.2070 H   0  0  0  0  0  0  0  0  0  0  0  0
   10.9540    4.5040   13.4960 H   0  0  0  0  0  0  0  0  0  0  0  0
   10.8040    2.6730   10.6220 H   0  0  0  0  0  0  0  0  0  0  0  0
   12.1750    3.4860    9.6930 H   0  0  0  0  0  0  0  0  0  0  0  0
    9.3040    4.2610    9.8440 H   0  0  0  0  0  0  0  0  0  0  0  0
   10.6250    4.8420    8.8120 H   0  0  0  0  0  0  0  0  0  0  0  0
    4.7440    8.0090   17.7690 H   0  0  0  0  0  0  0  0  0  0  0  0
    3.8100    6.5720   17.2680 H   0  0  0  0  0  0  0  0  0  0  0  0
    2.9520    8.0210   18.0210 H   0  0  0  0  0  0  0  0  0  0  0  0
  1  2  1  0  0  0  0
  2  3  1  0  0  0  0
  3  4  2  0  0  0  0
  3 20  1  0  0  0  0
  4 22  1  0  0  0  0
  5  8  1  0  0  0  0
  5  4  1  0  0  0  0
  6  5  2  0  0  0  0
  7  6  1  0  0  0  0
  7  2  2  0  0  0  0
  8  9  2  0  0  0  0
 10 25  1  0  0  0  0
 10  8  1  0  0  0  0
 11 10  1  0  0  0  0
 12 17  1  0  0  0  0
 12 28  1  1  0  0  0
 12 11  1  0  0  0  0
 13 19  1  1  0  0  0
 13 12  1  0  0  0  0
 14 13  1  0  0  0  0
 14 29  1  0  0  0  0
 14 15  1  0  0  0  0
 15 16  1  0  0  0  0
 15 32  1  0  0  0  0
 16 18  1  6  0  0  0
 16 17  1  0  0  0  0
 17 34  1  0  0  0  0
 18 35  1  0  0  0  0
 19 18  1  0  0  0  0
 20 21  1  0  0  0  0
 21 39  1  0  0  0  0
 21 41  1  0  0  0  0
 23  6  1  0  0  0  0
 24  7  1  0  0  0  0
 26 11  1  0  0  0  0
 27 11  1  0  0  0  0
 30 14  1  0  0  0  0
 31 15  1  0  0  0  0
 33 17  1  0  0  0  0
 36 18  1  0  0  0  0
 37 19  1  0  0  0  0
 38 19  1  0  0  0  0
 40 21  1  0  0  0  0
M  END
>  <Pose>
1

>  <Score>
-4.80

$$$$
