
 OpenBabel03172210413D

 51 54  0  0  0  0  0  0  0  0999 V2000
    7.1050   -2.3440    5.9960 Cl  0  0  0  0  0  0  0  0  0  0  0  0
    8.1110   -1.3900    7.0590 C   0  0  0  0  0  0  0  0  0  0  0  0
    9.4180   -1.7320    7.2710 C   0  0  0  0  0  0  0  0  0  0  0  0
   10.2050   -0.9410    8.1180 C   0  0  0  0  0  0  0  0  0  0  0  0
    9.7070    0.1750    8.7500 C   0  0  0  0  0  0  0  0  0  0  0  0
    8.3660    0.5390    8.5380 C   0  0  0  0  0  0  0  0  0  0  0  0
    7.6180   -0.2650    7.6950 C   0  0  0  0  0  0  0  0  0  0  0  0
   10.6570    0.7510    9.4810 N   0  0  0  0  0  0  0  0  0  0  0  0
   11.7730   -0.0330    9.2980 C   0  0  0  0  0  0  0  0  0  0  0  0
   12.9020    0.1720    9.8300 O   0  0  0  0  0  0  0  0  0  0  0  0
   11.4560   -1.0140    8.4890 O   0  0  0  0  0  0  0  0  0  0  0  0
   10.6270    1.8920   10.3800 C   0  0  0  0  0  0  0  0  0  0  0  0
   11.5860    2.9650   10.1360 C   0  0  0  0  0  0  0  0  0  0  0  0
   11.7450    4.0760   11.0420 C   0  0  0  0  0  0  0  0  0  0  0  0
   12.7910    4.0140   11.7950 O   0  0  0  0  0  0  0  0  0  0  0  0
   10.9490    5.2110   11.2080 N   0  0  0  0  0  0  0  0  0  0  0  0
   10.5220    6.1000   10.1110 C   0  0  0  0  0  0  0  0  0  0  0  0
    9.0060    5.7260   10.0860 C   0  0  0  0  0  0  0  0  0  0  0  0
    8.4180    6.2030   11.3300 N   0  0  0  0  0  0  0  0  0  0  0  0
    9.1780    6.3730   12.4430 C   0  0  0  0  0  0  0  0  0  0  0  0
   10.5020    5.6650   12.4960 C   0  0  0  0  0  0  0  0  0  0  0  0
    7.0490    6.0010   11.2580 C   0  0  0  0  0  0  0  0  0  0  0  0
    6.2660    7.2310   11.7210 C   0  0  0  0  0  0  0  0  0  0  0  0
    6.0160    8.0670   10.7710 O   0  0  0  0  0  0  0  0  0  0  0  0
    5.9060    7.3840   12.9900 N   0  0  0  0  0  0  0  0  0  0  0  0
    5.5230    7.5480   14.3410 C   0  0  0  0  0  0  0  0  0  0  0  0
    6.5770    7.0260   15.3900 C   0  0  0  0  0  0  0  0  0  0  0  0
    5.3360    6.3040   15.1840 C   0  0  0  0  0  0  0  0  0  0  0  0
    9.8450   -2.6080    6.7930 H   0  0  0  0  0  0  0  0  0  0  0  0
    8.0080    1.3970    9.0390 H   0  0  0  0  0  0  0  0  0  0  0  0
    6.5880    0.0150    7.5400 H   0  0  0  0  0  0  0  0  0  0  0  0
   10.7720    1.4730   11.4220 H   0  0  0  0  0  0  0  0  0  0  0  0
    9.5450    2.2430   10.3070 H   0  0  0  0  0  0  0  0  0  0  0  0
   11.3790    3.4470    9.1050 H   0  0  0  0  0  0  0  0  0  0  0  0
   12.6250    2.4820   10.0480 H   0  0  0  0  0  0  0  0  0  0  0  0
   11.0000    5.9270    9.1760 H   0  0  0  0  0  0  0  0  0  0  0  0
   10.6060    7.1640   10.3960 H   0  0  0  0  0  0  0  0  0  0  0  0
    8.5200    6.2020    9.2370 H   0  0  0  0  0  0  0  0  0  0  0  0
    8.8440    4.6510   10.0200 H   0  0  0  0  0  0  0  0  0  0  0  0
    8.6060    6.0980   13.3840 H   0  0  0  0  0  0  0  0  0  0  0  0
    9.3630    7.5080   12.6140 H   0  0  0  0  0  0  0  0  0  0  0  0
   10.5230    4.8970   13.2630 H   0  0  0  0  0  0  0  0  0  0  0  0
   11.2400    6.4660   12.8730 H   0  0  0  0  0  0  0  0  0  0  0  0
    6.7550    5.1510   11.9190 H   0  0  0  0  0  0  0  0  0  0  0  0
    6.6610    5.7150   10.2340 H   0  0  0  0  0  0  0  0  0  0  0  0
    4.8080    6.6040   12.8140 H   0  0  0  0  0  0  0  0  0  0  0  0
    5.2080    8.5510   14.7080 H   0  0  0  0  0  0  0  0  0  0  0  0
    7.5410    6.8580   14.9400 H   0  0  0  0  0  0  0  0  0  0  0  0
    6.6400    7.6290   16.3460 H   0  0  0  0  0  0  0  0  0  0  0  0
    5.3010    5.3060   14.6650 H   0  0  0  0  0  0  0  0  0  0  0  0
    4.5840    6.3180   16.0220 H   0  0  0  0  0  0  0  0  0  0  0  0
  1  2  1  0  0  0  0
  2  3  2  0  0  0  0
  2  7  1  0  0  0  0
  3  4  1  0  0  0  0
  4 11  1  0  0  0  0
  4  5  2  0  0  0  0
  5  8  1  0  0  0  0
  6  5  1  0  0  0  0
  6 30  1  0  0  0  0
  7  6  2  0  0  0  0
  8 12  1  0  0  0  0
  9  8  1  0  0  0  0
  9 10  2  0  0  0  0
 11  9  1  0  0  0  0
 12 32  1  0  0  0  0
 13 12  1  0  0  0  0
 13 14  1  0  0  0  0
 14 16  1  0  0  0  0
 14 15  2  0  0  0  0
 16 21  1  0  0  0  0
 17 37  1  0  0  0  0
 17 16  1  0  0  0  0
 18 17  1  0  0  0  0
 18 19  1  0  0  0  0
 19 20  1  0  0  0  0
 20 21  1  0  0  0  0
 20 41  1  0  0  0  0
 20 40  1  0  0  0  0
 21 43  1  0  0  0  0
 21 42  1  0  0  0  0
 22 19  1  0  0  0  0
 22 23  1  0  0  0  0
 22 44  1  0  0  0  0
 23 25  1  0  0  0  0
 24 23  2  0  0  0  0
 25 26  1  0  0  0  0
 26 47  1  0  0  0  0
 26 28  1  0  0  0  0
 26 27  1  0  0  0  0
 27 49  1  0  0  0  0
 28 27  1  0  0  0  0
 28 51  1  0  0  0  0
 29  3  1  0  0  0  0
 31  7  1  0  0  0  0
 33 12  1  0  0  0  0
 34 13  1  0  0  0  0
 35 13  1  0  0  0  0
 36 17  1  0  0  0  0
 38 18  1  0  0  0  0
 39 18  1  0  0  0  0
 45 22  1  0  0  0  0
 46 25  1  0  0  0  0
 48 27  1  0  0  0  0
 50 28  1  0  0  0  0
M  END
>  <Pose>
1

>  <Score>
-5.82

$$$$
