
 OpenBabel03172210413D

 36 39  0  0  1  0  0  0  0  0999 V2000
   11.4960    0.1930    9.2110 Cl  0  0  0  0  0  0  0  0  0  0  0  0
   11.7470    1.7600    9.9540 C   0  0  0  0  0  0  0  0  0  0  0  0
   12.9940    2.0370   10.4750 C   0  0  0  0  0  0  0  0  0  0  0  0
   13.1210    3.3040   11.0580 C   0  0  0  0  0  0  0  0  0  0  0  0
   14.2280    3.6080   11.5440 O   0  0  0  0  0  0  0  0  0  0  0  0
   12.0930    4.1610   11.0910 N   0  0  0  0  0  0  0  0  0  0  0  0
   10.8990    3.8880   10.5890 N   0  0  0  0  0  0  0  0  0  0  0  0
    9.8930    4.9350   10.7030 C   0  0  1  0  0  0  0  0  0  0  0  0
    9.7740    5.2580   12.1810 C   0  0  1  0  0  0  0  0  0  0  0  0
   11.0950    5.5170   12.7660 C   0  0  1  0  0  0  0  0  0  0  0  0
   12.2010    5.4880   11.7010 C   0  0  2  0  0  0  0  0  0  0  0  0
   11.7480    6.4280   10.6180 C   0  0  0  0  0  0  0  0  0  0  0  0
   10.5630    6.1490   10.1020 C   0  0  0  0  0  0  0  0  0  0  0  0
   10.0470    6.6330   12.6650 C   0  0  0  0  0  0  0  0  0  0  0  0
   10.7210    2.6990   10.0240 C   0  0  0  0  0  0  0  0  0  0  0  0
    9.5900    2.4300    9.5440 O   0  0  0  0  0  0  0  0  0  0  0  0
   14.0980    1.1370   10.4420 N   0  0  0  0  0  0  0  0  0  0  0  0
   15.0690    1.0640    9.4130 C   0  0  0  0  0  0  0  0  0  0  0  0
   14.5130    0.7750    8.0430 C   0  0  0  0  0  0  0  0  0  0  0  0
   15.9010    2.3320    9.2820 C   0  0  0  0  0  0  0  0  0  0  0  0
    8.9500    4.6960   10.2250 H   0  0  0  0  0  0  0  0  0  0  0  0
    8.9700    4.7140   12.7030 H   0  0  0  0  0  0  0  0  0  0  0  0
   11.3780    5.1950   13.7850 H   0  0  0  0  0  0  0  0  0  0  0  0
   13.1800    5.7120   12.0940 H   0  0  0  0  0  0  0  0  0  0  0  0
   12.3950    7.2390   10.3410 H   0  0  0  0  0  0  0  0  0  0  0  0
   10.0470    6.6810    9.3260 H   0  0  0  0  0  0  0  0  0  0  0  0
    9.5640    6.9710   13.5840 H   0  0  0  0  0  0  0  0  0  0  0  0
   10.2970    7.3910   11.8680 H   0  0  0  0  0  0  0  0  0  0  0  0
   14.1700    0.4940   11.2590 H   0  0  0  0  0  0  0  0  0  0  0  0
   15.7950    0.2560    9.6330 H   0  0  0  0  0  0  0  0  0  0  0  0
   14.1270   -0.2590    7.9310 H   0  0  0  0  0  0  0  0  0  0  0  0
   15.3350    0.8460    7.2690 H   0  0  0  0  0  0  0  0  0  0  0  0
   13.7430    1.4640    7.7080 H   0  0  0  0  0  0  0  0  0  0  0  0
   16.6780    2.0900    8.5000 H   0  0  0  0  0  0  0  0  0  0  0  0
   16.4720    2.5270   10.2060 H   0  0  0  0  0  0  0  0  0  0  0  0
   15.3370    3.1800    8.8960 H   0  0  0  0  0  0  0  0  0  0  0  0
  1  2  1  0  0  0  0
  2 15  1  0  0  0  0
  2  3  2  0  0  0  0
  3  4  1  0  0  0  0
  4  6  1  0  0  0  0
  4  5  2  0  0  0  0
  6 11  1  0  0  0  0
  7  8  1  0  0  0  0
  7  6  1  0  0  0  0
  8 21  1  6  0  0  0
  8  9  1  0  0  0  0
  9 14  1  0  0  0  0
  9 22  1  1  0  0  0
  9 10  1  0  0  0  0
 10 23  1  1  0  0  0
 11 24  1  1  0  0  0
 11 10  1  0  0  0  0
 12 11  1  0  0  0  0
 13 12  2  0  0  0  0
 13  8  1  0  0  0  0
 14 10  1  0  0  0  0
 14 27  1  0  0  0  0
 15  7  1  0  0  0  0
 16 15  2  0  0  0  0
 17  3  1  0  0  0  0
 17 29  1  0  0  0  0
 18 30  1  0  0  0  0
 18 17  1  0  0  0  0
 19 18  1  0  0  0  0
 20 18  1  0  0  0  0
 20 35  1  0  0  0  0
 25 12  1  0  0  0  0
 26 13  1  0  0  0  0
 28 14  1  0  0  0  0
 31 19  1  0  0  0  0
 32 19  1  0  0  0  0
 33 19  1  0  0  0  0
 34 20  1  0  0  0  0
 36 20  1  0  0  0  0
M  END
>  <Pose>
1

>  <Score>
-4.37

$$$$
