
 OpenBabel03172210413D

 56 58  0  0  1  0  0  0  0  0999 V2000
   13.1860    5.2050   12.3940 Cl  0  0  0  0  0  0  0  0  0  0  0  0
   12.0540    4.5730   11.2170 C   0  0  0  0  0  0  0  0  0  0  0  0
   11.0920    5.4510   10.7270 C   0  0  0  0  0  0  0  0  0  0  0  0
   10.2180    4.9200    9.8020 C   0  0  0  0  0  0  0  0  0  0  0  0
   10.3220    3.6340    9.4230 N   0  0  0  0  0  0  0  0  0  0  0  0
   11.2280    2.7850    9.8750 N   0  0  0  0  0  0  0  0  0  0  0  0
   12.1020    3.2630   10.7810 C   0  0  0  0  0  0  0  0  0  0  0  0
   12.9780    2.4700   11.2290 O   0  0  0  0  0  0  0  0  0  0  0  0
   11.2760    1.4250    9.4270 C   0  0  0  0  0  0  0  0  0  0  0  0
   10.1260    0.6710    9.3840 C   0  0  0  0  0  0  0  0  0  0  0  0
   10.1600   -0.6580    8.9470 C   0  0  0  0  0  0  0  0  0  0  0  0
   11.3380   -1.2500    8.5500 C   0  0  0  0  0  0  0  0  0  0  0  0
   12.4940   -0.5020    8.5880 C   0  0  0  0  0  0  0  0  0  0  0  0
   12.4470    0.8180    9.0250 C   0  0  0  0  0  0  0  0  0  0  0  0
   11.0150    6.7990   11.1620 N   0  0  0  0  0  0  0  0  0  0  0  0
   12.0830    7.4440   11.8880 C   0  0  0  0  0  0  0  0  0  0  0  0
   11.5230    8.2120   13.0440 C   0  0  0  0  0  0  0  0  0  0  0  0
   10.1430    7.8190   13.1930 N   0  0  0  0  0  0  0  0  0  0  0  0
    9.3990    8.3370   12.1030 C   0  0  0  0  0  0  0  0  0  0  0  0
    9.8220    7.5490   10.8590 C   0  0  0  0  0  0  0  0  0  0  0  0
    9.6010    7.9140   14.4890 C   0  0  0  0  0  0  0  0  0  0  0  0
    8.6120    6.8820   14.8200 C   0  0  0  0  0  0  0  0  0  0  0  0
    8.8570    6.1860   15.8630 O   0  0  0  0  0  0  0  0  0  0  0  0
    7.4290    6.5930   14.0980 N   0  0  0  0  0  0  0  0  0  0  0  0
    6.2340    6.0430   14.6870 C   0  0  0  0  0  0  0  0  0  0  0  0
    5.3740    7.1540   15.2050 C   0  0  1  0  0  0  0  0  0  0  0  0
    4.0800    6.7180   15.3090 O   0  0  0  0  0  0  0  0  0  0  0  0
    3.6160    6.8580   16.5880 C   0  0  0  0  0  0  0  0  0  0  0  0
    4.4210    8.0240   17.1250 C   0  0  0  0  0  0  0  0  0  0  0  0
    5.8010    7.6000   16.5960 C   0  0  0  0  0  0  0  0  0  0  0  0
    9.4550    5.5860    9.4030 H   0  0  0  0  0  0  0  0  0  0  0  0
    9.1870    1.1370    9.6990 H   0  0  0  0  0  0  0  0  0  0  0  0
    9.2630   -1.2530    8.9110 H   0  0  0  0  0  0  0  0  0  0  0  0
   11.4050   -2.2860    8.2010 H   0  0  0  0  0  0  0  0  0  0  0  0
   13.4200   -0.9710    8.2750 H   0  0  0  0  0  0  0  0  0  0  0  0
   13.3510    1.4130    9.0590 H   0  0  0  0  0  0  0  0  0  0  0  0
   12.7420    8.0530   11.2360 H   0  0  0  0  0  0  0  0  0  0  0  0
   12.7790    6.6740   12.3370 H   0  0  0  0  0  0  0  0  0  0  0  0
   11.4960    9.3060   12.7570 H   0  0  0  0  0  0  0  0  0  0  0  0
   12.0450    8.0630   13.9910 H   0  0  0  0  0  0  0  0  0  0  0  0
    8.3120    8.3490   12.2430 H   0  0  0  0  0  0  0  0  0  0  0  0
    9.7280    9.3900   11.9300 H   0  0  0  0  0  0  0  0  0  0  0  0
    9.9590    8.2220    9.9760 H   0  0  0  0  0  0  0  0  0  0  0  0
    8.9630    6.8650   10.6500 H   0  0  0  0  0  0  0  0  0  0  0  0
    9.1600    8.9290   14.6980 H   0  0  0  0  0  0  0  0  0  0  0  0
   10.4610    7.8110   15.2180 H   0  0  0  0  0  0  0  0  0  0  0  0
    7.4240    6.8030   13.0800 H   0  0  0  0  0  0  0  0  0  0  0  0
    6.4830    5.3510   15.5360 H   0  0  0  0  0  0  0  0  0  0  0  0
    5.6950    5.4660   13.9210 H   0  0  0  0  0  0  0  0  0  0  0  0
    5.4250    8.0480   14.5640 H   0  0  0  0  0  0  0  0  0  0  0  0
    3.9120    5.9680   17.1770 H   0  0  0  0  0  0  0  0  0  0  0  0
    2.5300    7.0500   16.6150 H   0  0  0  0  0  0  0  0  0  0  0  0
    4.3970    8.1210   18.2070 H   0  0  0  0  0  0  0  0  0  0  0  0
    4.1340    8.9380   16.5660 H   0  0  0  0  0  0  0  0  0  0  0  0
    6.0900    6.7220   17.2200 H   0  0  0  0  0  0  0  0  0  0  0  0
    6.5120    8.4200   16.6070 H   0  0  0  0  0  0  0  0  0  0  0  0
  3 15  1  0  0  0  0
  3  2  2  0  0  0  0
  4  3  1  0  0  0  0
  5  4  2  0  0  0  0
  5  6  1  0  0  0  0
  6  7  1  0  0  0  0
  7  2  1  0  0  0  0
  7  8  2  0  0  0  0
  9  6  1  0  0  0  0
 10  9  1  0  0  0  0
 10 32  1  0  0  0  0
 11 10  2  0  0  0  0
 12 13  2  0  0  0  0
 12 11  1  0  0  0  0
 13 14  1  0  0  0  0
 14 36  1  0  0  0  0
 14  9  2  0  0  0  0
 15 16  1  0  0  0  0
 16 38  1  0  0  0  0
 16 17  1  0  0  0  0
 17 18  1  0  0  0  0
 17 40  1  0  0  0  0
 18 21  1  0  0  0  0
 19 41  1  0  0  0  0
 19 18  1  0  0  0  0
 20 15  1  0  0  0  0
 20 19  1  0  0  0  0
 21 45  1  0  0  0  0
 21 22  1  0  0  0  0
 21 46  1  0  0  0  0
 22 23  2  0  0  0  0
 24 25  1  0  0  0  0
 24 22  1  0  0  0  0
 25 26  1  0  0  0  0
 25 48  1  0  0  0  0
 26 50  1  6  0  0  0
 26 27  1  0  0  0  0
 26 30  1  0  0  0  0
 27 28  1  0  0  0  0
 28 52  1  0  0  0  0
 28 29  1  0  0  0  0
 28 51  1  0  0  0  0
 29 53  1  0  0  0  0
 30 56  1  0  0  0  0
 30 29  1  0  0  0  0
 30 55  1  0  0  0  0
 31  4  1  0  0  0  0
 33 11  1  0  0  0  0
 34 12  1  0  0  0  0
 35 13  1  0  0  0  0
 37 16  1  0  0  0  0
 39 17  1  0  0  0  0
 42 19  1  0  0  0  0
 43 20  1  0  0  0  0
 44 20  1  0  0  0  0
 47 24  1  0  0  0  0
 49 25  1  0  0  0  0
 54 29  1  0  0  0  0
M  END
>  <Pose>
1

>  <Score>
-5.70

$$$$
