
 OpenBabel03172210413D

 55 58  0  0  0  0  0  0  0  0999 V2000
   10.6050    5.1250    9.7030 S   0  0  0  0  0  0  0  0  0  0  0  0
   11.8810    5.5750    9.0170 O   0  0  0  0  0  0  0  0  0  0  0  0
    9.4980    5.0610    8.7120 O   0  0  0  0  0  0  0  0  0  0  0  0
   10.9020    3.4840   10.3240 N   0  0  0  0  0  0  0  0  0  0  0  0
   11.1140    2.6690    9.1650 C   0  0  0  0  0  0  0  0  0  0  0  0
   11.9280    1.3910    9.4370 C   0  0  0  0  0  0  0  0  0  0  0  0
   13.1550    1.8110   10.0380 N   0  0  0  0  0  0  0  0  0  0  0  0
   12.8520    2.3340   11.3410 C   0  0  0  0  0  0  0  0  0  0  0  0
   12.2000    3.6610   11.0650 C   0  0  0  0  0  0  0  0  0  0  0  0
   14.3230    1.1250    9.7520 C   0  0  0  0  0  0  0  0  0  0  0  0
   15.4160    1.8750    9.1290 C   0  0  0  0  0  0  0  0  0  0  0  0
   15.4180    1.7720    7.8240 O   0  0  0  0  0  0  0  0  0  0  0  0
   16.4080    2.6530    9.6520 N   0  0  0  0  0  0  0  0  0  0  0  0
   16.3370    3.3520   10.9370 C   0  0  0  0  0  0  0  0  0  0  0  0
   17.6740    3.8830   11.2700 C   0  0  0  0  0  0  0  0  0  0  0  0
   17.8810    5.2700   11.4550 C   0  0  0  0  0  0  0  0  0  0  0  0
   19.0990    5.8090   11.6210 C   0  0  0  0  0  0  0  0  0  0  0  0
   20.2640    4.9790   11.6220 C   0  0  0  0  0  0  0  0  0  0  0  0
   20.0870    3.6670   11.4400 C   0  0  0  0  0  0  0  0  0  0  0  0
   18.8290    3.0790   11.2590 C   0  0  0  0  0  0  0  0  0  0  0  0
   16.4490    6.3280   11.4840 Cl  0  0  0  0  0  0  0  0  0  0  0  0
   10.2290    6.2340   10.9620 C   0  0  0  0  0  0  0  0  0  0  0  0
    9.1890    5.8380   11.8130 C   0  0  0  0  0  0  0  0  0  0  0  0
    8.8050    6.5590   12.9470 C   0  0  0  0  0  0  0  0  0  0  0  0
    9.4960    7.7300   13.2430 C   0  0  0  0  0  0  0  0  0  0  0  0
   10.5150    8.1110   12.3900 C   0  0  0  0  0  0  0  0  0  0  0  0
   10.8900    7.3840   11.2680 C   0  0  0  0  0  0  0  0  0  0  0  0
    9.0680    8.3890   14.3810 O   0  0  0  0  0  0  0  0  0  0  0  0
    8.6920    7.5720   15.5230 C   0  0  0  0  0  0  0  0  0  0  0  0
    7.8820    6.3770   15.1440 C   0  0  0  0  0  0  0  0  0  0  0  0
    7.7680    6.1380   13.7620 O   0  0  0  0  0  0  0  0  0  0  0  0
   10.0770    2.2770    8.8790 H   0  0  0  0  0  0  0  0  0  0  0  0
   11.4850    3.1430    8.2460 H   0  0  0  0  0  0  0  0  0  0  0  0
   11.3630    0.7590   10.1230 H   0  0  0  0  0  0  0  0  0  0  0  0
   12.1520    0.8440    8.5320 H   0  0  0  0  0  0  0  0  0  0  0  0
   12.1400    1.7050   11.8660 H   0  0  0  0  0  0  0  0  0  0  0  0
   13.8010    2.5700   11.8920 H   0  0  0  0  0  0  0  0  0  0  0  0
   12.8530    4.2150   10.3120 H   0  0  0  0  0  0  0  0  0  0  0  0
   11.9710    4.1770   11.9750 H   0  0  0  0  0  0  0  0  0  0  0  0
   13.9780    0.3040    8.9850 H   0  0  0  0  0  0  0  0  0  0  0  0
   14.7070    0.4620   10.5740 H   0  0  0  0  0  0  0  0  0  0  0  0
   17.3660    2.8060    9.1910 H   0  0  0  0  0  0  0  0  0  0  0  0
   15.7080    4.2780   10.6690 H   0  0  0  0  0  0  0  0  0  0  0  0
   15.8820    2.7370   11.6800 H   0  0  0  0  0  0  0  0  0  0  0  0
   19.2140    6.8510   11.7590 H   0  0  0  0  0  0  0  0  0  0  0  0
   21.2180    5.4280   11.7580 H   0  0  0  0  0  0  0  0  0  0  0  0
   20.9440    2.9860   11.4190 H   0  0  0  0  0  0  0  0  0  0  0  0
   18.7610    2.0320   11.0880 H   0  0  0  0  0  0  0  0  0  0  0  0
    8.6420    4.9120   11.5450 H   0  0  0  0  0  0  0  0  0  0  0  0
   10.9990    9.0170   12.6420 H   0  0  0  0  0  0  0  0  0  0  0  0
   11.7000    7.7200   10.6530 H   0  0  0  0  0  0  0  0  0  0  0  0
    9.6840    7.2930   16.0080 H   0  0  0  0  0  0  0  0  0  0  0  0
    8.1270    8.1890   16.2210 H   0  0  0  0  0  0  0  0  0  0  0  0
    6.8680    6.4580   15.5500 H   0  0  0  0  0  0  0  0  0  0  0  0
    8.3860    5.4950   15.6300 H   0  0  0  0  0  0  0  0  0  0  0  0
  1  4  1  0  0  0  0
  1 22  1  0  0  0  0
  2  1  2  0  0  0  0
  3  1  2  0  0  0  0
  4  9  1  0  0  0  0
  5  6  1  0  0  0  0
  5  4  1  0  0  0  0
  6  7  1  0  0  0  0
  6 34  1  0  0  0  0
  7  8  1  0  0  0  0
  8 36  1  0  0  0  0
  8 37  1  0  0  0  0
  9  8  1  0  0  0  0
  9 39  1  0  0  0  0
 10  7  1  0  0  0  0
 10 41  1  0  0  0  0
 11 13  1  0  0  0  0
 11 10  1  0  0  0  0
 12 11  2  0  0  0  0
 13 14  1  0  0  0  0
 14 15  1  0  0  0  0
 14 44  1  0  0  0  0
 15 16  1  0  0  0  0
 16 21  1  0  0  0  0
 16 17  2  0  0  0  0
 17 18  1  0  0  0  0
 17 45  1  0  0  0  0
 18 46  1  0  0  0  0
 19 18  2  0  0  0  0
 20 15  2  0  0  0  0
 20 19  1  0  0  0  0
 22 27  2  0  0  0  0
 22 23  1  0  0  0  0
 23 24  2  0  0  0  0
 24 25  1  0  0  0  0
 24 31  1  0  0  0  0
 25 28  1  0  0  0  0
 26 50  1  0  0  0  0
 26 25  2  0  0  0  0
 27 26  1  0  0  0  0
 28 29  1  0  0  0  0
 29 52  1  0  0  0  0
 29 53  1  0  0  0  0
 30 29  1  0  0  0  0
 30 54  1  0  0  0  0
 30 55  1  0  0  0  0
 31 30  1  0  0  0  0
 32  5  1  0  0  0  0
 33  5  1  0  0  0  0
 35  6  1  0  0  0  0
 38  9  1  0  0  0  0
 40 10  1  0  0  0  0
 42 13  1  0  0  0  0
 43 14  1  0  0  0  0
 47 19  1  0  0  0  0
 48 20  1  0  0  0  0
 49 23  1  0  0  0  0
 51 27  1  0  0  0  0
M  END
>  <Pose>
1

>  <Score>
-7.07

$$$$
