
 OpenBabel03172210413D

 56 59  0  0  0  0  0  0  0  0999 V2000
   11.0100    4.7600    9.8850 S   0  0  0  0  0  0  0  0  0  0  0  0
   11.8970    5.6330    9.0530 O   0  0  0  0  0  0  0  0  0  0  0  0
    9.6140    4.8630    9.3460 O   0  0  0  0  0  0  0  0  0  0  0  0
   11.0880    5.2690   11.5170 N   0  0  0  0  0  0  0  0  0  0  0  0
   11.9330    4.4890   12.3460 C   0  0  0  0  0  0  0  0  0  0  0  0
   13.3730    4.9310   12.3500 C   0  0  0  0  0  0  0  0  0  0  0  0
   13.5020    6.3730   12.3340 N   0  0  0  0  0  0  0  0  0  0  0  0
   12.2880    7.1270   12.5820 C   0  0  0  0  0  0  0  0  0  0  0  0
   11.1600    6.6770   11.6860 C   0  0  0  0  0  0  0  0  0  0  0  0
   14.7510    6.9560   12.0880 C   0  0  0  0  0  0  0  0  0  0  0  0
   15.3330    7.5660   13.0170 O   0  0  0  0  0  0  0  0  0  0  0  0
   15.4170    6.8830   10.7620 C   0  0  0  0  0  0  0  0  0  0  0  0
   16.7850    6.4550   10.8670 N   0  0  0  0  0  0  0  0  0  0  0  0
   17.1920    5.1210   11.1320 C   0  0  0  0  0  0  0  0  0  0  0  0
   16.3940    4.1410   11.3110 O   0  0  0  0  0  0  0  0  0  0  0  0
   18.6080    5.0050   11.1770 N   0  0  0  0  0  0  0  0  0  0  0  0
   19.1400    6.3550   11.1600 C   0  0  0  0  0  0  0  0  0  0  0  0
   20.2320    6.5240   10.1430 C   0  0  0  0  0  0  0  0  0  0  0  0
   21.5890    6.1210   10.6390 C   0  0  0  0  0  0  0  0  0  0  0  0
   21.9520    6.7270   11.9630 C   0  0  0  0  0  0  0  0  0  0  0  0
   20.8230    7.5410   12.5560 C   0  0  0  0  0  0  0  0  0  0  0  0
   19.5850    6.6730   12.5670 C   0  0  0  0  0  0  0  0  0  0  0  0
   17.9910    7.1960   10.7410 C   0  0  0  0  0  0  0  0  0  0  0  0
   18.0370    8.3810   10.3340 O   0  0  0  0  0  0  0  0  0  0  0  0
   19.3590    3.7510   11.2290 C   0  0  0  0  0  0  0  0  0  0  0  0
   11.4950    3.0650    9.7080 C   0  0  0  0  0  0  0  0  0  0  0  0
   10.5140    1.7020    9.4460 S   0  0  0  0  0  0  0  0  0  0  0  0
   11.7170    0.5010    9.3970 C   0  0  0  0  0  0  0  0  0  0  0  0
   12.8760    1.2050    9.5890 C   0  0  0  0  0  0  0  0  0  0  0  0
   12.7590    2.5430    9.7510 C   0  0  0  0  0  0  0  0  0  0  0  0
   11.5500   -1.2520    9.1560 Cl  0  0  0  0  0  0  0  0  0  0  0  0
   11.9250    3.4390   11.9590 H   0  0  0  0  0  0  0  0  0  0  0  0
   11.5500    4.4860   13.3850 H   0  0  0  0  0  0  0  0  0  0  0  0
   13.9630    4.4610   11.5370 H   0  0  0  0  0  0  0  0  0  0  0  0
   13.8110    4.5840   13.3210 H   0  0  0  0  0  0  0  0  0  0  0  0
   12.4620    8.2080   12.3790 H   0  0  0  0  0  0  0  0  0  0  0  0
   11.9680    7.0410   13.6300 H   0  0  0  0  0  0  0  0  0  0  0  0
   11.1550    7.2440   10.7140 H   0  0  0  0  0  0  0  0  0  0  0  0
   10.2100    7.0090   12.1980 H   0  0  0  0  0  0  0  0  0  0  0  0
   15.4010    7.8580   10.2610 H   0  0  0  0  0  0  0  0  0  0  0  0
   14.8010    6.1960   10.1420 H   0  0  0  0  0  0  0  0  0  0  0  0
   20.0130    5.9250    9.2380 H   0  0  0  0  0  0  0  0  0  0  0  0
   20.2600    7.6020    9.8540 H   0  0  0  0  0  0  0  0  0  0  0  0
   22.3270    6.4670    9.8690 H   0  0  0  0  0  0  0  0  0  0  0  0
   21.6640    5.0170   10.6610 H   0  0  0  0  0  0  0  0  0  0  0  0
   22.2650    5.9070   12.6430 H   0  0  0  0  0  0  0  0  0  0  0  0
   22.8270    7.4290   11.8560 H   0  0  0  0  0  0  0  0  0  0  0  0
   21.0910    7.8160   13.5850 H   0  0  0  0  0  0  0  0  0  0  0  0
   20.6400    8.4090   11.9150 H   0  0  0  0  0  0  0  0  0  0  0  0
   18.8020    7.1900   13.1560 H   0  0  0  0  0  0  0  0  0  0  0  0
   19.8270    5.7340   13.1080 H   0  0  0  0  0  0  0  0  0  0  0  0
   20.1300    3.7750   12.0260 H   0  0  0  0  0  0  0  0  0  0  0  0
   18.6620    2.9290   11.4180 H   0  0  0  0  0  0  0  0  0  0  0  0
   19.7820    3.5940   10.2150 H   0  0  0  0  0  0  0  0  0  0  0  0
   13.8660    0.6790    9.6080 H   0  0  0  0  0  0  0  0  0  0  0  0
   13.6700    3.1820    9.9140 H   0  0  0  0  0  0  0  0  0  0  0  0
  1  4  1  0  0  0  0
  2  1  2  0  0  0  0
  3  1  2  0  0  0  0
  4  9  1  0  0  0  0
  4  5  1  0  0  0  0
  5  6  1  0  0  0  0
  5 33  1  0  0  0  0
  6 35  1  0  0  0  0
  7  6  1  0  0  0  0
  7  8  1  0  0  0  0
  8 37  1  0  0  0  0
  9 39  1  0  0  0  0
  9  8  1  0  0  0  0
 10  7  1  0  0  0  0
 10 11  2  0  0  0  0
 12 13  1  0  0  0  0
 12 10  1  0  0  0  0
 13 14  1  0  0  0  0
 14 16  1  0  0  0  0
 14 15  2  0  0  0  0
 16 25  1  0  0  0  0
 17 16  1  0  0  0  0
 17 22  1  0  0  0  0
 18 19  1  0  0  0  0
 18 17  1  0  0  0  0
 19 45  1  0  0  0  0
 19 20  1  0  0  0  0
 20 21  1  0  0  0  0
 20 46  1  0  0  0  0
 21 22  1  0  0  0  0
 21 48  1  0  0  0  0
 22 51  1  0  0  0  0
 22 50  1  0  0  0  0
 23 13  1  0  0  0  0
 23 17  1  0  0  0  0
 24 23  2  0  0  0  0
 25 53  1  0  0  0  0
 25 52  1  0  0  0  0
 26 30  2  0  0  0  0
 26  1  1  0  0  0  0
 27 26  1  0  0  0  0
 28 27  1  0  0  0  0
 28 29  2  0  0  0  0
 29 55  1  0  0  0  0
 29 30  1  0  0  0  0
 30 56  1  0  0  0  0
 31 28  1  0  0  0  0
 32  5  1  0  0  0  0
 34  6  1  0  0  0  0
 36  8  1  0  0  0  0
 38  9  1  0  0  0  0
 40 12  1  0  0  0  0
 41 12  1  0  0  0  0
 42 18  1  0  0  0  0
 43 18  1  0  0  0  0
 44 19  1  0  0  0  0
 47 20  1  0  0  0  0
 49 21  1  0  0  0  0
 54 25  1  0  0  0  0
M  END
>  <Pose>
1

>  <Score>
-6.20

$$$$
