
 OpenBabel03172210413D

 68 71  0  0  0  0  0  0  0  0999 V2000
    6.4130    7.2210   11.6980 S   0  0  0  0  0  0  0  0  0  0  0  0
    6.1030    8.2400   10.6300 O   0  0  0  0  0  0  0  0  0  0  0  0
    5.9000    5.9040   11.1590 O   0  0  0  0  0  0  0  0  0  0  0  0
    8.0110    7.1930   12.1550 N   0  0  0  0  0  0  0  0  0  0  0  0
    9.0230    7.7720   11.4190 C   0  0  0  0  0  0  0  0  0  0  0  0
   10.1600    6.8060   11.2240 C   0  0  0  0  0  0  0  0  0  0  0  0
   10.5420    6.0620   12.3700 N   0  0  0  0  0  0  0  0  0  0  0  0
    9.8890    6.5390   13.5470 C   0  0  0  0  0  0  0  0  0  0  0  0
    8.3770    6.5530   13.3430 C   0  0  0  0  0  0  0  0  0  0  0  0
   10.4210    4.6420   12.2170 C   0  0  0  0  0  0  0  0  0  0  0  0
   11.7710    3.9830   12.1830 C   0  0  0  0  0  0  0  0  0  0  0  0
   11.8240    2.8260   11.7130 O   0  0  0  0  0  0  0  0  0  0  0  0
   12.9280    4.6480   12.6630 N   0  0  0  0  0  0  0  0  0  0  0  0
   14.0590    4.7270   11.7850 C   0  0  0  0  0  0  0  0  0  0  0  0
   15.1700    5.6070   12.2100 C   0  0  0  0  0  0  0  0  0  0  0  0
   15.1320    5.7760   13.7090 C   0  0  0  0  0  0  0  0  0  0  0  0
   14.3080    6.9950   14.1340 C   0  0  0  0  0  0  0  0  0  0  0  0
   15.0030    8.2720   13.7050 C   0  0  0  0  0  0  0  0  0  0  0  0
   15.7450    7.9710   12.4160 C   0  0  0  0  0  0  0  0  0  0  0  0
   14.8670    7.0090   11.6440 C   0  0  0  0  0  0  0  0  0  0  0  0
   16.4770    5.2830   11.7840 N   0  0  0  0  0  0  0  0  0  0  0  0
   17.5330    5.3500   12.7300 C   0  0  0  0  0  0  0  0  0  0  0  0
   18.8350    5.3870   11.9090 C   0  0  0  0  0  0  0  0  0  0  0  0
   18.9730    4.2240   11.1910 O   0  0  0  0  0  0  0  0  0  0  0  0
   17.9300    3.3430   11.3310 C   0  0  0  0  0  0  0  0  0  0  0  0
   16.5760    4.0130   11.0980 C   0  0  0  0  0  0  0  0  0  0  0  0
    5.4040    7.6520   13.0760 C   0  0  0  0  0  0  0  0  0  0  0  0
    5.5690    7.0500   14.2930 C   0  0  0  0  0  0  0  0  0  0  0  0
    4.7870    7.3820   15.3670 C   0  0  0  0  0  0  0  0  0  0  0  0
    3.8130    8.3450   15.2110 C   0  0  0  0  0  0  0  0  0  0  0  0
    3.6440    8.9550   13.9830 C   0  0  0  0  0  0  0  0  0  0  0  0
    4.4330    8.6150   12.9140 C   0  0  0  0  0  0  0  0  0  0  0  0
    2.8280    8.7480   16.6070 Cl  0  0  0  0  0  0  0  0  0  0  0  0
    9.4950    8.6910   11.8740 H   0  0  0  0  0  0  0  0  0  0  0  0
    8.7110    8.1160   10.3980 H   0  0  0  0  0  0  0  0  0  0  0  0
   11.0540    7.3930   10.8850 H   0  0  0  0  0  0  0  0  0  0  0  0
    9.8920    6.1690   10.3530 H   0  0  0  0  0  0  0  0  0  0  0  0
   10.2050    7.6010   13.7530 H   0  0  0  0  0  0  0  0  0  0  0  0
   10.1010    5.8680   14.3860 H   0  0  0  0  0  0  0  0  0  0  0  0
    8.0240    5.4830   13.4080 H   0  0  0  0  0  0  0  0  0  0  0  0
    7.9310    7.0710   14.2420 H   0  0  0  0  0  0  0  0  0  0  0  0
    9.7910    4.3390   11.3560 H   0  0  0  0  0  0  0  0  0  0  0  0
    9.9240    4.2370   13.1240 H   0  0  0  0  0  0  0  0  0  0  0  0
   12.8980    5.0500   13.6370 H   0  0  0  0  0  0  0  0  0  0  0  0
   14.4130    3.6840   11.6280 H   0  0  0  0  0  0  0  0  0  0  0  0
   13.7150    5.1250   10.7810 H   0  0  0  0  0  0  0  0  0  0  0  0
   16.1520    5.9570   14.1340 H   0  0  0  0  0  0  0  0  0  0  0  0
   14.6410    4.9100   14.2070 H   0  0  0  0  0  0  0  0  0  0  0  0
   14.2720    6.9830   15.2390 H   0  0  0  0  0  0  0  0  0  0  0  0
   13.2680    6.9360   13.7690 H   0  0  0  0  0  0  0  0  0  0  0  0
   14.2300    9.0440   13.5120 H   0  0  0  0  0  0  0  0  0  0  0  0
   15.6700    8.5950   14.5080 H   0  0  0  0  0  0  0  0  0  0  0  0
   15.9300    8.8960   11.8180 H   0  0  0  0  0  0  0  0  0  0  0  0
   16.7010    7.4580   12.6410 H   0  0  0  0  0  0  0  0  0  0  0  0
   15.1150    7.0890   10.5880 H   0  0  0  0  0  0  0  0  0  0  0  0
   13.7860    7.2320   11.7560 H   0  0  0  0  0  0  0  0  0  0  0  0
   17.5580    6.2930   13.3160 H   0  0  0  0  0  0  0  0  0  0  0  0
   17.6400    4.4750   13.4000 H   0  0  0  0  0  0  0  0  0  0  0  0
   18.6800    6.2170   11.1630 H   0  0  0  0  0  0  0  0  0  0  0  0
   19.6840    5.6260   12.5510 H   0  0  0  0  0  0  0  0  0  0  0  0
   17.9320    2.7840   12.3050 H   0  0  0  0  0  0  0  0  0  0  0  0
   18.0110    2.5500   10.5450 H   0  0  0  0  0  0  0  0  0  0  0  0
   16.4860    4.1910   10.0090 H   0  0  0  0  0  0  0  0  0  0  0  0
   15.8180    3.2720   11.4060 H   0  0  0  0  0  0  0  0  0  0  0  0
    6.3410    6.2790   14.4350 H   0  0  0  0  0  0  0  0  0  0  0  0
    4.9280    6.8930   16.3330 H   0  0  0  0  0  0  0  0  0  0  0  0
    2.8690    9.7160   13.8740 H   0  0  0  0  0  0  0  0  0  0  0  0
    4.2790    9.1110   11.9530 H   0  0  0  0  0  0  0  0  0  0  0  0
  1  4  1  0  0  0  0
  1 27  1  0  0  0  0
  2  1  2  0  0  0  0
  3  1  2  0  0  0  0
  4  9  1  0  0  0  0
  5 34  1  0  0  0  0
  5  4  1  0  0  0  0
  6  5  1  0  0  0  0
  6  7  1  0  0  0  0
  7  8  1  0  0  0  0
  8 38  1  0  0  0  0
  8 39  1  0  0  0  0
  9 40  1  0  0  0  0
  9  8  1  0  0  0  0
  9 41  1  0  0  0  0
 10  7  1  0  0  0  0
 10 43  1  0  0  0  0
 11 10  1  0  0  0  0
 11 13  1  0  0  0  0
 12 11  2  0  0  0  0
 13 44  1  0  0  0  0
 14 15  1  0  0  0  0
 14 13  1  0  0  0  0
 15 16  1  0  0  0  0
 16 47  1  0  0  0  0
 16 17  1  0  0  0  0
 16 48  1  0  0  0  0
 17 49  1  0  0  0  0
 18 17  1  0  0  0  0
 18 52  1  0  0  0  0
 19 54  1  0  0  0  0
 19 18  1  0  0  0  0
 20 56  1  0  0  0  0
 20 15  1  0  0  0  0
 20 19  1  0  0  0  0
 21 15  1  0  0  0  0
 21 22  1  0  0  0  0
 22 57  1  0  0  0  0
 22 58  1  0  0  0  0
 23 60  1  0  0  0  0
 23 22  1  0  0  0  0
 24 25  1  0  0  0  0
 24 23  1  0  0  0  0
 25 61  1  0  0  0  0
 26 25  1  0  0  0  0
 26 64  1  0  0  0  0
 26 21  1  0  0  0  0
 27 28  1  0  0  0  0
 28 65  1  0  0  0  0
 28 29  2  0  0  0  0
 29 66  1  0  0  0  0
 30 29  1  0  0  0  0
 30 33  1  0  0  0  0
 31 30  2  0  0  0  0
 32 27  2  0  0  0  0
 32 31  1  0  0  0  0
 35  5  1  0  0  0  0
 36  6  1  0  0  0  0
 37  6  1  0  0  0  0
 42 10  1  0  0  0  0
 45 14  1  0  0  0  0
 46 14  1  0  0  0  0
 50 17  1  0  0  0  0
 51 18  1  0  0  0  0
 53 19  1  0  0  0  0
 55 20  1  0  0  0  0
 59 23  1  0  0  0  0
 62 25  1  0  0  0  0
 63 26  1  0  0  0  0
 67 31  1  0  0  0  0
 68 32  1  0  0  0  0
M  END
>  <Pose>
1

>  <Score>
-6.00

$$$$
