
 OpenBabel03172210413D

 38 41  0  0  0  0  0  0  0  0999 V2000
    4.9860    8.0690   12.1920 Cl  0  0  0  0  0  0  0  0  0  0  0  0
    6.6620    7.6330   11.9260 C   0  0  0  0  0  0  0  0  0  0  0  0
    7.1020    6.3180   11.9850 C   0  0  0  0  0  0  0  0  0  0  0  0
    8.4020    5.9420   11.7920 C   0  0  0  0  0  0  0  0  0  0  0  0
    9.3450    6.8920   11.5220 C   0  0  0  0  0  0  0  0  0  0  0  0
    8.9330    8.2220   11.4530 C   0  0  0  0  0  0  0  0  0  0  0  0
    7.6150    8.5820   11.6530 C   0  0  0  0  0  0  0  0  0  0  0  0
   10.7770    6.6420   11.2900 C   0  0  0  0  0  0  0  0  0  0  0  0
   10.9690    6.0620    9.9270 C   0  0  0  0  0  0  0  0  0  0  0  0
   10.6160    4.5650    9.9240 C   0  0  0  0  0  0  0  0  0  0  0  0
   11.6380    3.9900   10.8100 N   0  0  0  0  0  0  0  0  0  0  0  0
   11.5360    4.3960   12.1760 C   0  0  0  0  0  0  0  0  0  0  0  0
   11.4720    5.8850   12.3580 C   0  0  0  0  0  0  0  0  0  0  0  0
   12.6050    3.1150   10.2580 C   0  0  0  0  0  0  0  0  0  0  0  0
   12.2130    2.1280    9.4340 N   0  0  0  0  0  0  0  0  0  0  0  0
   13.0150    1.2600    8.8490 N   0  0  0  0  0  0  0  0  0  0  0  0
   12.8480    0.2310    8.0140 N   0  0  0  0  0  0  0  0  0  0  0  0
   14.0040   -0.3210    7.7230 N   0  0  0  0  0  0  0  0  0  0  0  0
   14.9270    0.3450    8.3620 N   0  0  0  0  0  0  0  0  0  0  0  0
   14.3260    1.3330    9.0690 C   0  0  0  0  0  0  0  0  0  0  0  0
   14.8060    2.3250    9.9080 C   0  0  0  0  0  0  0  0  0  0  0  0
   13.9520    3.2240   10.5110 C   0  0  0  0  0  0  0  0  0  0  0  0
   11.3620    7.9330   11.2410 O   0  0  0  0  0  0  0  0  0  0  0  0
    6.3810    5.5490   12.2020 H   0  0  0  0  0  0  0  0  0  0  0  0
    8.7420    4.9140   11.8320 H   0  0  0  0  0  0  0  0  0  0  0  0
    9.6070    9.0350   11.2470 H   0  0  0  0  0  0  0  0  0  0  0  0
    7.3040    9.6440   11.6020 H   0  0  0  0  0  0  0  0  0  0  0  0
   10.3090    6.5440    9.1770 H   0  0  0  0  0  0  0  0  0  0  0  0
   12.0050    6.1380    9.5560 H   0  0  0  0  0  0  0  0  0  0  0  0
   10.6900    4.1590    8.9060 H   0  0  0  0  0  0  0  0  0  0  0  0
    9.6450    4.3640   10.3990 H   0  0  0  0  0  0  0  0  0  0  0  0
   10.5600    3.9750   12.5650 H   0  0  0  0  0  0  0  0  0  0  0  0
   12.3390    3.9800   12.8130 H   0  0  0  0  0  0  0  0  0  0  0  0
   12.5530    6.2270   12.3630 H   0  0  0  0  0  0  0  0  0  0  0  0
   11.1080    6.1240   13.3670 H   0  0  0  0  0  0  0  0  0  0  0  0
   15.8710    2.3520   10.0610 H   0  0  0  0  0  0  0  0  0  0  0  0
   14.3240    3.9940   11.1620 H   0  0  0  0  0  0  0  0  0  0  0  0
   11.3090    8.2360   10.2820 H   0  0  0  0  0  0  0  0  0  0  0  0
  2  3  1  0  0  0  0
  2  1  1  0  0  0  0
  3 24  1  0  0  0  0
  4 25  1  0  0  0  0
  4  3  2  0  0  0  0
  5  4  1  0  0  0  0
  6  5  2  0  0  0  0
  6  7  1  0  0  0  0
  7  2  2  0  0  0  0
  8  5  1  0  0  0  0
  8 13  1  0  0  0  0
  9  8  1  0  0  0  0
 10  9  1  0  0  0  0
 10 31  1  0  0  0  0
 10 11  1  0  0  0  0
 11 12  1  0  0  0  0
 12 13  1  0  0  0  0
 12 32  1  0  0  0  0
 12 33  1  0  0  0  0
 13 34  1  0  0  0  0
 13 35  1  0  0  0  0
 14 22  1  0  0  0  0
 14 11  1  0  0  0  0
 15 14  2  0  0  0  0
 16 20  1  0  0  0  0
 16 15  1  0  0  0  0
 17 16  1  0  0  0  0
 18 17  2  0  0  0  0
 18 19  1  0  0  0  0
 19 20  2  0  0  0  0
 20 21  1  0  0  0  0
 21 36  1  0  0  0  0
 21 22  2  0  0  0  0
 22 37  1  0  0  0  0
 23  8  1  0  0  0  0
 26  6  1  0  0  0  0
 27  7  1  0  0  0  0
 28  9  1  0  0  0  0
 29  9  1  0  0  0  0
 30 10  1  0  0  0  0
 38 23  1  0  0  0  0
M  END
>  <Pose>
1

>  <Score>
-5.94

$$$$
