
 OpenBabel03172210413D

 50 53  0  0  1  0  0  0  0  0999 V2000
   12.2510    4.2740   11.3650 S   0  0  0  0  0  0  0  0  0  0  0  0
   13.5930    4.8670   11.0700 O   0  0  0  0  0  0  0  0  0  0  0  0
   12.2820    3.8300   12.8070 O   0  0  0  0  0  0  0  0  0  0  0  0
   11.0230    5.4310   11.1890 N   0  0  0  0  0  0  0  0  0  0  0  0
   11.4040    6.7730   11.4170 C   0  0  0  0  0  0  0  0  0  0  0  0
   10.2840    7.6900   11.8340 C   0  0  0  0  0  0  0  0  0  0  0  0
    9.3990    7.0980   12.7980 N   0  0  0  0  0  0  0  0  0  0  0  0
    9.5270    5.6790   13.0180 C   0  0  0  0  0  0  0  0  0  0  0  0
    9.7360    5.0400   11.6480 C   0  0  0  0  0  0  0  0  0  0  0  0
    8.4590    7.8930   13.4730 C   0  0  0  0  0  0  0  0  0  0  0  0
    8.3880    7.7640   14.7280 O   0  0  0  0  0  0  0  0  0  0  0  0
    7.5510    8.8670   12.8070 C   0  0  2  0  0  0  0  0  0  0  0  0
    6.3920    9.1220   13.5800 N   0  0  0  0  0  0  0  0  0  0  0  0
    5.2690    8.2740   13.3450 C   0  0  2  0  0  0  0  0  0  0  0  0
    5.4400    7.8620   11.5960 S   0  0  0  0  0  0  0  0  0  0  0  0
    7.1740    8.4410   11.4190 C   0  0  0  0  0  0  0  0  0  0  0  0
    4.0970    9.2290   13.4660 C   0  0  0  0  0  0  0  0  0  0  0  0
    4.5040    9.9410   14.7630 C   0  0  0  0  0  0  0  0  0  0  0  0
    5.9540   10.0350   14.6130 C   0  0  0  0  0  0  0  0  0  0  0  0
    6.6820   10.8110   15.3020 O   0  0  0  0  0  0  0  0  0  0  0  0
    5.1360    7.1000   14.2310 C   0  0  0  0  0  0  0  0  0  0  0  0
   11.9770    2.8270   10.4000 C   0  0  0  0  0  0  0  0  0  0  0  0
   13.0400    2.1240    9.8770 C   0  0  0  0  0  0  0  0  0  0  0  0
   12.8610    0.9910    9.1180 C   0  0  0  0  0  0  0  0  0  0  0  0
   11.5960    0.5030    8.8440 C   0  0  0  0  0  0  0  0  0  0  0  0
   10.5490    1.2310    9.3830 C   0  0  0  0  0  0  0  0  0  0  0  0
   10.7130    2.3620   10.1430 C   0  0  0  0  0  0  0  0  0  0  0  0
   11.3320   -0.9360    7.8810 Cl  0  0  0  0  0  0  0  0  0  0  0  0
   11.9510    7.1740   10.5390 H   0  0  0  0  0  0  0  0  0  0  0  0
   12.1450    6.7800   12.2640 H   0  0  0  0  0  0  0  0  0  0  0  0
    9.7700    8.0240   10.9060 H   0  0  0  0  0  0  0  0  0  0  0  0
   10.7370    8.6350   12.2550 H   0  0  0  0  0  0  0  0  0  0  0  0
    8.6530    5.2390   13.5310 H   0  0  0  0  0  0  0  0  0  0  0  0
   10.4560    5.5270   13.6160 H   0  0  0  0  0  0  0  0  0  0  0  0
    8.9230    5.2970   10.9660 H   0  0  0  0  0  0  0  0  0  0  0  0
    9.7290    3.9240   11.7490 H   0  0  0  0  0  0  0  0  0  0  0  0
    8.1470    9.7950   12.6740 H   0  0  0  0  0  0  0  0  0  0  0  0
    7.1610    9.2590   10.6810 H   0  0  0  0  0  0  0  0  0  0  0  0
    7.8060    7.6300   11.0050 H   0  0  0  0  0  0  0  0  0  0  0  0
    4.1650    9.9180   12.5950 H   0  0  0  0  0  0  0  0  0  0  0  0
    3.1390    8.7220   13.5600 H   0  0  0  0  0  0  0  0  0  0  0  0
    4.0120   10.9450   14.7690 H   0  0  0  0  0  0  0  0  0  0  0  0
    4.2150    9.3040   15.6040 H   0  0  0  0  0  0  0  0  0  0  0  0
    4.0390    6.8340   14.2920 H   0  0  0  0  0  0  0  0  0  0  0  0
    5.6100    6.1710   13.8120 H   0  0  0  0  0  0  0  0  0  0  0  0
    5.4390    7.2900   15.2770 H   0  0  0  0  0  0  0  0  0  0  0  0
   14.0500    2.4970   10.0850 H   0  0  0  0  0  0  0  0  0  0  0  0
   13.7120    0.4440    8.7110 H   0  0  0  0  0  0  0  0  0  0  0  0
    9.5590    0.8230    9.1510 H   0  0  0  0  0  0  0  0  0  0  0  0
    9.8520    2.8720   10.5250 H   0  0  0  0  0  0  0  0  0  0  0  0
  1  3  2  0  0  0  0
  2  1  2  0  0  0  0
  4  1  1  0  0  0  0
  4  5  1  0  0  0  0
  4  9  1  0  0  0  0
  5  6  1  0  0  0  0
  5 30  1  0  0  0  0
  6 32  1  0  0  0  0
  6  7  1  0  0  0  0
  7  8  1  0  0  0  0
  7 10  1  0  0  0  0
  8 33  1  0  0  0  0
  8 34  1  0  0  0  0
  9 36  1  0  0  0  0
  9  8  1  0  0  0  0
 10 11  2  0  0  0  0
 12 37  1  6  0  0  0
 12 10  1  0  0  0  0
 12 13  1  0  0  0  0
 13 19  1  0  0  0  0
 14 17  1  0  0  0  0
 14 13  1  0  0  0  0
 14 21  1  1  0  0  0
 15 14  1  0  0  0  0
 16 15  1  0  0  0  0
 16 12  1  0  0  0  0
 17 41  1  0  0  0  0
 17 18  1  0  0  0  0
 18 42  1  0  0  0  0
 18 43  1  0  0  0  0
 19 18  1  0  0  0  0
 19 20  2  0  0  0  0
 21 44  1  0  0  0  0
 21 46  1  0  0  0  0
 22  1  1  0  0  0  0
 23 47  1  0  0  0  0
 23 22  2  0  0  0  0
 24 23  1  0  0  0  0
 25 24  2  0  0  0  0
 25 26  1  0  0  0  0
 26 27  2  0  0  0  0
 27 22  1  0  0  0  0
 27 50  1  0  0  0  0
 28 25  1  0  0  0  0
 29  5  1  0  0  0  0
 31  6  1  0  0  0  0
 35  9  1  0  0  0  0
 38 16  1  0  0  0  0
 39 16  1  0  0  0  0
 40 17  1  0  0  0  0
 45 21  1  0  0  0  0
 48 24  1  0  0  0  0
 49 26  1  0  0  0  0
M  END
>  <Pose>
1

>  <Score>
-6.01

$$$$
