
 OpenBabel03172210413D

 44 47  0  0  1  0  0  0  0  0999 V2000
    4.1390    7.4390   15.3050 B   0  0  0  0  0  0  0  0  0  0  0  0
    6.0020    7.0590   15.0860 C   0  0  0  0  0  0  0  0  0  0  0  0
    6.5180    6.6330   13.8800 C   0  0  0  0  0  0  0  0  0  0  0  0
    7.8640    6.3580   13.7090 C   0  0  0  0  0  0  0  0  0  0  0  0
    8.6720    6.5310   14.8120 C   0  0  0  0  0  0  0  0  0  0  0  0
    8.1930    6.9540   16.0320 C   0  0  0  0  0  0  0  0  0  0  0  0
    6.8440    7.2250   16.1860 C   0  0  0  0  0  0  0  0  0  0  0  0
    9.3680    7.1750   17.5240 B   0  0  0  0  0  0  0  0  0  0  0  0
    8.1430    5.9310   12.3460 C   0  0  0  0  0  0  0  0  0  0  0  0
    9.2470    5.5910   11.7950 N   0  0  0  0  0  0  0  0  0  0  0  0
    9.3380    5.2030   10.4550 N   0  0  0  0  0  0  0  0  0  0  0  0
   10.6150    4.8880    9.9410 C   0  0  0  0  0  0  0  0  0  0  0  0
   11.4380    5.7930    9.6910 O   0  0  0  0  0  0  0  0  0  0  0  0
   11.0440    3.4790    9.6710 C   0  0  0  0  0  0  0  0  0  0  0  0
   12.4080    3.4090    9.2220 N   0  0  0  0  0  0  0  0  0  0  0  0
   13.1720    2.2110    9.2590 C   0  0  0  0  0  0  0  0  0  0  0  0
   12.9070    1.3120    8.4320 O   0  0  0  0  0  0  0  0  0  0  0  0
   14.2760    1.9680   10.2350 C   0  0  2  0  0  0  0  0  0  0  0  0
   14.3620    2.9830   11.1900 O   0  0  0  0  0  0  0  0  0  0  0  0
   15.3910    3.9190   11.2680 C   0  0  0  0  0  0  0  0  0  0  0  0
   16.5580    3.6130   10.6190 C   0  0  0  0  0  0  0  0  0  0  0  0
   17.6070    4.5310   10.6810 C   0  0  0  0  0  0  0  0  0  0  0  0
   17.5090    5.7200   11.3660 C   0  0  0  0  0  0  0  0  0  0  0  0
   16.3160    5.9940   12.0080 C   0  0  0  0  0  0  0  0  0  0  0  0
   15.2790    5.0930   11.9500 C   0  0  0  0  0  0  0  0  0  0  0  0
   16.6660    2.4330    9.9360 O   0  0  0  0  0  0  0  0  0  0  0  0
   15.5680    1.6450    9.5690 C   0  0  0  0  0  0  0  0  0  0  0  0
    6.8510    5.9560   11.6520 C   0  0  0  0  0  0  0  0  0  0  0  0
    6.6980    5.6440   10.4400 O   0  0  0  0  0  0  0  0  0  0  0  0
    5.9100    6.3840   12.6170 N   0  0  0  0  0  0  0  0  0  0  0  0
    9.7260    6.3290   14.7280 H   0  0  0  0  0  0  0  0  0  0  0  0
    6.4520    7.5550   17.1210 H   0  0  0  0  0  0  0  0  0  0  0  0
    8.4530    5.1690    9.9050 H   0  0  0  0  0  0  0  0  0  0  0  0
   10.9670    2.9520   10.6470 H   0  0  0  0  0  0  0  0  0  0  0  0
   10.3400    2.9710    8.9750 H   0  0  0  0  0  0  0  0  0  0  0  0
   12.8990    4.2520    8.8420 H   0  0  0  0  0  0  0  0  0  0  0  0
   13.9410    1.0490   10.8020 H   0  0  0  0  0  0  0  0  0  0  0  0
   18.5190    4.2670   10.1600 H   0  0  0  0  0  0  0  0  0  0  0  0
   18.3440    6.4030   11.3880 H   0  0  0  0  0  0  0  0  0  0  0  0
   16.2440    6.9500   12.5550 H   0  0  0  0  0  0  0  0  0  0  0  0
   14.3570    5.3310   12.4630 H   0  0  0  0  0  0  0  0  0  0  0  0
   15.8400    0.5580    9.7450 H   0  0  0  0  0  0  0  0  0  0  0  0
   15.4480    1.7450    8.4650 H   0  0  0  0  0  0  0  0  0  0  0  0
    4.9000    6.5030   12.4310 H   0  0  0  0  0  0  0  0  0  0  0  0
  2  1  1  0  0  0  0
  2  7  1  0  0  0  0
  3  2  2  0  0  0  0
  4  3  1  0  0  0  0
  4  5  2  0  0  0  0
  5  6  1  0  0  0  0
  6  7  2  0  0  0  0
  6  8  1  0  0  0  0
  7 32  1  0  0  0  0
  9  4  1  0  0  0  0
 10  9  2  0  0  0  0
 11 10  1  0  0  0  0
 12 11  1  0  0  0  0
 13 12  2  0  0  0  0
 14 12  1  0  0  0  0
 14 34  1  0  0  0  0
 15 16  1  0  0  0  0
 15 14  1  0  0  0  0
 16 18  1  0  0  0  0
 17 16  2  0  0  0  0
 18 37  1  1  0  0  0
 18 19  1  0  0  0  0
 19 20  1  0  0  0  0
 20 25  1  0  0  0  0
 21 22  1  0  0  0  0
 21 20  2  0  0  0  0
 22 23  2  0  0  0  0
 23 39  1  0  0  0  0
 23 24  1  0  0  0  0
 24 40  1  0  0  0  0
 25 24  2  0  0  0  0
 25 41  1  0  0  0  0
 26 21  1  0  0  0  0
 27 42  1  0  0  0  0
 27 26  1  0  0  0  0
 27 18  1  0  0  0  0
 28  9  1  0  0  0  0
 28 30  1  0  0  0  0
 29 28  2  0  0  0  0
 30  3  1  0  0  0  0
 31  5  1  0  0  0  0
 33 11  1  0  0  0  0
 35 14  1  0  0  0  0
 36 15  1  0  0  0  0
 38 22  1  0  0  0  0
 43 27  1  0  0  0  0
 44 30  1  0  0  0  0
M  END
>  <Pose>
1

>  <Score>
-7.44

$$$$
