
 OpenBabel03172210413D

 39 42  0  0  0  0  0  0  0  0999 V2000
   12.4040    5.6880   12.1230 Cl  0  0  0  0  0  0  0  0  0  0  0  0
   12.4390    4.1680   11.2410 C   0  0  0  0  0  0  0  0  0  0  0  0
   11.4140    3.9230   10.3510 C   0  0  0  0  0  0  0  0  0  0  0  0
   11.4610    2.7260    9.6690 C   0  0  0  0  0  0  0  0  0  0  0  0
   12.4460    1.7860    9.8250 C   0  0  0  0  0  0  0  0  0  0  0  0
   13.4630    2.0820   10.7390 C   0  0  0  0  0  0  0  0  0  0  0  0
   13.4710    3.2560   11.4460 C   0  0  0  0  0  0  0  0  0  0  0  0
   12.4760    0.5270    9.0940 C   0  0  0  0  0  0  0  0  0  0  0  0
   13.4050    0.0500    8.2600 N   0  0  0  0  0  0  0  0  0  0  0  0
   13.0150   -1.1550    7.8160 N   0  0  0  0  0  0  0  0  0  0  0  0
   11.8470   -1.4390    8.3650 N   0  0  0  0  0  0  0  0  0  0  0  0
   11.5170   -0.4100    9.1490 N   0  0  0  0  0  0  0  0  0  0  0  0
   10.3220    4.8890   10.1330 C   0  0  0  0  0  0  0  0  0  0  0  0
   10.2240    5.3930    8.9900 O   0  0  0  0  0  0  0  0  0  0  0  0
    9.4110    5.2590   11.1240 N   0  0  0  0  0  0  0  0  0  0  0  0
    8.5980    6.3970   11.2590 C   0  0  0  0  0  0  0  0  0  0  0  0
    7.5800    6.4830   12.3130 C   0  0  0  0  0  0  0  0  0  0  0  0
    6.2550    7.0110   11.9970 C   0  0  0  0  0  0  0  0  0  0  0  0
    5.4540    7.7350   12.7850 N   0  0  0  0  0  0  0  0  0  0  0  0
    4.3650    8.0450   12.0990 C   0  0  0  0  0  0  0  0  0  0  0  0
    4.4890    7.5120   10.8770 N   0  0  0  0  0  0  0  0  0  0  0  0
    5.6330    6.8870   10.8190 N   0  0  0  0  0  0  0  0  0  0  0  0
    3.3380    8.7920   12.6360 C   0  0  0  0  0  0  0  0  0  0  0  0
    3.4800    9.2180   13.9440 C   0  0  0  0  0  0  0  0  0  0  0  0
    4.6090    8.8920   14.6460 C   0  0  0  0  0  0  0  0  0  0  0  0
    5.5920    8.1510   14.0600 C   0  0  0  0  0  0  0  0  0  0  0  0
   10.6600    2.5310    8.9710 H   0  0  0  0  0  0  0  0  0  0  0  0
   14.2400    1.3240   10.8520 H   0  0  0  0  0  0  0  0  0  0  0  0
   14.2660    3.4640   12.1480 H   0  0  0  0  0  0  0  0  0  0  0  0
   13.5300   -1.7780    7.1520 H   0  0  0  0  0  0  0  0  0  0  0  0
    9.3280    4.5320   11.9220 H   0  0  0  0  0  0  0  0  0  0  0  0
    9.2740    7.3190   11.3630 H   0  0  0  0  0  0  0  0  0  0  0  0
    8.0910    6.6400   10.2700 H   0  0  0  0  0  0  0  0  0  0  0  0
    8.0160    7.0200   13.2220 H   0  0  0  0  0  0  0  0  0  0  0  0
    7.4080    5.4450   12.7550 H   0  0  0  0  0  0  0  0  0  0  0  0
    2.4760    9.0220   12.0530 H   0  0  0  0  0  0  0  0  0  0  0  0
    2.7180    9.8000   14.4140 H   0  0  0  0  0  0  0  0  0  0  0  0
    4.7490    9.2090   15.6660 H   0  0  0  0  0  0  0  0  0  0  0  0
    6.5010    7.8740   14.5880 H   0  0  0  0  0  0  0  0  0  0  0  0
  2  7  1  0  0  0  0
  2  1  1  0  0  0  0
  3  2  2  0  0  0  0
  4  5  2  0  0  0  0
  4  3  1  0  0  0  0
  5  6  1  0  0  0  0
  6 28  1  0  0  0  0
  6  7  2  0  0  0  0
  7 29  1  0  0  0  0
  8 12  1  0  0  0  0
  8  5  1  0  0  0  0
  9  8  2  0  0  0  0
 10  9  1  0  0  0  0
 10 11  1  0  0  0  0
 11 12  2  0  0  0  0
 13  3  1  0  0  0  0
 13 15  1  0  0  0  0
 14 13  2  0  0  0  0
 15 16  1  0  0  0  0
 15 31  1  0  0  0  0
 16 32  1  0  0  0  0
 16 17  1  0  0  0  0
 17 35  1  0  0  0  0
 17 34  1  0  0  0  0
 18 17  1  0  0  0  0
 18 19  1  0  0  0  0
 19 26  1  0  0  0  0
 20 23  1  0  0  0  0
 20 19  1  0  0  0  0
 21 20  2  0  0  0  0
 22 21  1  0  0  0  0
 22 18  2  0  0  0  0
 23 24  2  0  0  0  0
 24 37  1  0  0  0  0
 24 25  1  0  0  0  0
 25 38  1  0  0  0  0
 26 39  1  0  0  0  0
 26 25  2  0  0  0  0
 27  4  1  0  0  0  0
 30 10  1  0  0  0  0
 33 16  1  0  0  0  0
 36 23  1  0  0  0  0
M  END
>  <Pose>
1

>  <Score>
-7.51

$$$$
