
 OpenBabel03172210413D

 53 56  0  0  1  0  0  0  0  0999 V2000
   12.2830    3.6970   12.2940 S   0  0  0  0  0  0  0  0  0  0  0  0
   13.4260    3.8080   13.3060 O   0  0  0  0  0  0  0  0  0  0  0  0
   11.1610    3.0060   13.0770 O   0  0  0  0  0  0  0  0  0  0  0  0
   11.8300    5.2820   11.9020 N   0  0  0  0  0  0  0  0  0  0  0  0
   11.2930    6.0710   12.9540 C   0  0  0  0  0  0  0  0  0  0  0  0
   10.9470    7.4780   12.5280 C   0  0  1  0  0  0  0  0  0  0  0  0
   12.1350    8.1480   11.9270 C   0  0  0  0  0  0  0  0  0  0  0  0
   12.7880    7.2850   10.8620 C   0  0  0  0  0  0  0  0  0  0  0  0
   13.0680    5.9400   11.4360 C   0  0  0  0  0  0  0  0  0  0  0  0
    9.7040    7.5820   11.7360 C   0  0  0  0  0  0  0  0  0  0  0  0
    9.8690    7.5680   10.4600 O   0  0  0  0  0  0  0  0  0  0  0  0
    8.4040    7.6870   12.2100 N   0  0  0  0  0  0  0  0  0  0  0  0
    7.6160    8.8600   11.9940 C   0  0  0  0  0  0  0  0  0  0  0  0
    6.1580    8.5750   11.7620 C   0  0  0  0  0  0  0  0  0  0  0  0
    5.7020    7.4000   12.2730 O   0  0  0  0  0  0  0  0  0  0  0  0
    6.5230    6.3010   12.1360 C   0  0  0  0  0  0  0  0  0  0  0  0
    7.7790    6.6270   12.9620 C   0  0  0  0  0  0  0  0  0  0  0  0
   12.7430    2.6640   11.0070 C   0  0  0  0  0  0  0  0  0  0  0  0
   13.9940    2.6940   10.4410 C   0  0  0  0  0  0  0  0  0  0  0  0
   14.3260    1.7870    9.4460 C   0  0  0  0  0  0  0  0  0  0  0  0
   13.4100    0.8320    8.9960 C   0  0  0  0  0  0  0  0  0  0  0  0
   12.1510    0.7940    9.5520 C   0  0  0  0  0  0  0  0  0  0  0  0
   11.8410    1.7010   10.5370 C   0  0  0  0  0  0  0  0  0  0  0  0
   11.1760   -0.1890    9.0990 C   0  0  0  0  0  0  0  0  0  0  0  0
   10.8300   -1.3170    9.7430 N   0  0  0  0  0  0  0  0  0  0  0  0
    9.9290   -1.9630    9.0550 O   0  0  0  0  0  0  0  0  0  0  0  0
    9.6650   -1.2920    7.9650 C   0  0  0  0  0  0  0  0  0  0  0  0
   10.4340   -0.1870    7.9800 N   0  0  0  0  0  0  0  0  0  0  0  0
    8.6890   -1.6720    6.8860 C   0  0  0  0  0  0  0  0  0  0  0  0
   15.2080    3.8870   10.8500 Cl  0  0  0  0  0  0  0  0  0  0  0  0
   10.3710    5.6050   13.3990 H   0  0  0  0  0  0  0  0  0  0  0  0
   12.0320    6.1450   13.7700 H   0  0  0  0  0  0  0  0  0  0  0  0
   10.7470    8.0250   13.5000 H   0  0  0  0  0  0  0  0  0  0  0  0
   12.8960    8.2760   12.7290 H   0  0  0  0  0  0  0  0  0  0  0  0
   11.8790    9.1320   11.5010 H   0  0  0  0  0  0  0  0  0  0  0  0
   12.0800    7.1780   10.0220 H   0  0  0  0  0  0  0  0  0  0  0  0
   13.7370    7.7670   10.6010 H   0  0  0  0  0  0  0  0  0  0  0  0
   13.7290    6.0440   12.3420 H   0  0  0  0  0  0  0  0  0  0  0  0
   13.5650    5.3170   10.6730 H   0  0  0  0  0  0  0  0  0  0  0  0
    7.9750    9.4820   11.1460 H   0  0  0  0  0  0  0  0  0  0  0  0
    7.7320    9.5060   12.9090 H   0  0  0  0  0  0  0  0  0  0  0  0
    5.8990    8.6190   10.6630 H   0  0  0  0  0  0  0  0  0  0  0  0
    5.5830    9.4060   12.2270 H   0  0  0  0  0  0  0  0  0  0  0  0
    6.8290    6.2410   11.0580 H   0  0  0  0  0  0  0  0  0  0  0  0
    6.0110    5.4130   12.4930 H   0  0  0  0  0  0  0  0  0  0  0  0
    8.3880    5.7680   13.1950 H   0  0  0  0  0  0  0  0  0  0  0  0
    7.3930    7.1360   13.9020 H   0  0  0  0  0  0  0  0  0  0  0  0
   15.3130    1.8200    9.0140 H   0  0  0  0  0  0  0  0  0  0  0  0
   13.6770    0.1300    8.2190 H   0  0  0  0  0  0  0  0  0  0  0  0
   10.8480    1.6480   10.9560 H   0  0  0  0  0  0  0  0  0  0  0  0
    8.1570   -2.5810    7.2080 H   0  0  0  0  0  0  0  0  0  0  0  0
    8.0310   -0.7980    6.7300 H   0  0  0  0  0  0  0  0  0  0  0  0
    9.2960   -1.8360    5.9670 H   0  0  0  0  0  0  0  0  0  0  0  0
  1  3  2  0  0  0  0
  1  2  2  0  0  0  0
  4  1  1  0  0  0  0
  4  5  1  0  0  0  0
  5 31  1  0  0  0  0
  5 32  1  0  0  0  0
  6  5  1  0  0  0  0
  6 33  1  1  0  0  0
  7  6  1  0  0  0  0
  7 34  1  0  0  0  0
  8  9  1  0  0  0  0
  8  7  1  0  0  0  0
  9  4  1  0  0  0  0
  9 38  1  0  0  0  0
 10 12  1  0  0  0  0
 10  6  1  0  0  0  0
 11 10  2  0  0  0  0
 12 17  1  0  0  0  0
 13 12  1  0  0  0  0
 13 41  1  0  0  0  0
 14 13  1  0  0  0  0
 14 43  1  0  0  0  0
 14 15  1  0  0  0  0
 16 15  1  0  0  0  0
 16 45  1  0  0  0  0
 16 17  1  0  0  0  0
 17 46  1  0  0  0  0
 17 47  1  0  0  0  0
 18  1  1  0  0  0  0
 19 30  1  0  0  0  0
 19 18  2  0  0  0  0
 20 19  1  0  0  0  0
 21 20  2  0  0  0  0
 21 22  1  0  0  0  0
 22 23  2  0  0  0  0
 23 50  1  0  0  0  0
 23 18  1  0  0  0  0
 24 22  1  0  0  0  0
 24 25  2  0  0  0  0
 26 25  1  0  0  0  0
 27 28  2  0  0  0  0
 27 26  1  0  0  0  0
 28 24  1  0  0  0  0
 29 51  1  0  0  0  0
 29 27  1  0  0  0  0
 35  7  1  0  0  0  0
 36  8  1  0  0  0  0
 37  8  1  0  0  0  0
 39  9  1  0  0  0  0
 40 13  1  0  0  0  0
 42 14  1  0  0  0  0
 44 16  1  0  0  0  0
 48 20  1  0  0  0  0
 49 21  1  0  0  0  0
 52 29  1  0  0  0  0
 53 29  1  0  0  0  0
M  END
>  <Pose>
1

>  <Score>
-6.36

$$$$
