
 OpenBabel03172210413D

 45 48  0  0  1  0  0  0  0  0999 V2000
   11.2670    5.2620    9.7810 Cl  0  0  0  0  0  0  0  0  0  0  0  0
    9.8590    5.9930   10.5280 C   0  0  0  0  0  0  0  0  0  0  0  0
    9.8470    7.3500   10.8530 C   0  0  0  0  0  0  0  0  0  0  0  0
    8.7600    7.9360   11.4430 C   0  0  0  0  0  0  0  0  0  0  0  0
    7.6000    7.2270   11.7590 C   0  0  0  0  0  0  0  0  0  0  0  0
    7.6210    5.8810   11.4310 C   0  0  0  0  0  0  0  0  0  0  0  0
    8.7110    5.2900   10.8390 C   0  0  0  0  0  0  0  0  0  0  0  0
    6.4920    7.8540   12.3750 N   0  0  0  0  0  0  0  0  0  0  0  0
    5.3770    8.1870   11.5360 C   0  0  0  0  0  0  0  0  0  0  0  0
    5.4210    7.8730   10.3130 O   0  0  0  0  0  0  0  0  0  0  0  0
    4.2900    8.8530   12.1530 N   0  0  0  0  0  0  0  0  0  0  0  0
    4.2320    9.1810   13.3680 C   0  0  0  0  0  0  0  0  0  0  0  0
    5.3040    8.9360   14.3940 C   0  0  1  0  0  0  0  0  0  0  0  0
    5.7800   10.3090   14.7760 C   0  0  0  0  0  0  0  0  0  0  0  0
    6.3830   10.4590   16.0440 N   0  0  0  0  0  4  0  0  0  0  0  0
    5.7860    9.7440   17.1080 C   0  0  0  0  0  0  0  0  0  0  0  0
    4.9910    8.6740   16.8480 C   0  0  0  0  0  0  0  0  0  0  0  0
    4.4220    7.9940   17.9220 C   0  0  0  0  0  0  0  0  0  0  0  0
    4.6720    8.4140   19.2130 C   0  0  0  0  0  0  0  0  0  0  0  0
    5.4830    9.5060   19.4770 C   0  0  0  0  0  0  0  0  0  0  0  0
    6.0460   10.1780   18.3930 C   0  0  0  0  0  0  0  0  0  0  0  0
    4.0670    7.7100   20.3880 C   0  0  0  0  0  0  0  0  0  0  0  0
    4.6820    8.1650   15.4940 C   0  0  0  0  0  0  0  0  0  0  0  0
    7.8260   10.2740   16.0760 C   0  0  0  0  0  0  0  0  0  0  0  0
    6.4180    8.2030   13.7450 C   0  0  0  0  0  0  0  0  0  0  0  0
    7.4320    7.8230   14.4340 O   0  0  0  0  0  0  0  0  0  0  0  0
    3.0930    9.8360   13.8720 O   0  0  0  0  0  0  0  0  0  0  0  0
   10.7590    7.9110   10.6060 H   0  0  0  0  0  0  0  0  0  0  0  0
    8.7610    9.0130   11.6960 H   0  0  0  0  0  0  0  0  0  0  0  0
    6.7190    5.3400   11.6770 H   0  0  0  0  0  0  0  0  0  0  0  0
    8.6760    4.2180   10.6020 H   0  0  0  0  0  0  0  0  0  0  0  0
    4.9570   11.0680   14.6540 H   0  0  0  0  0  0  0  0  0  0  0  0
    6.5410   10.5950   13.9950 H   0  0  0  0  0  0  0  0  0  0  0  0
    6.2580   11.4860   16.3200 H   0  0  0  0  0  0  0  0  0  0  0  0
    3.7770    7.1350   17.7710 H   0  0  0  0  0  0  0  0  0  0  0  0
    5.6960    9.8600   20.4960 H   0  0  0  0  0  0  0  0  0  0  0  0
    6.6810   11.0350   18.6100 H   0  0  0  0  0  0  0  0  0  0  0  0
    3.2050    7.0720   20.0940 H   0  0  0  0  0  0  0  0  0  0  0  0
    3.7890    8.4740   21.1620 H   0  0  0  0  0  0  0  0  0  0  0  0
    4.8220    7.0570   20.8480 H   0  0  0  0  0  0  0  0  0  0  0  0
    3.5500    8.1810   15.4390 H   0  0  0  0  0  0  0  0  0  0  0  0
    4.9580    7.0970   15.4630 H   0  0  0  0  0  0  0  0  0  0  0  0
    8.2960   10.3290   15.0720 H   0  0  0  0  0  0  0  0  0  0  0  0
    8.0690    9.3410   16.6380 H   0  0  0  0  0  0  0  0  0  0  0  0
    8.3280   11.0930   16.6760 H   0  0  0  0  0  0  0  0  0  0  0  0
  1  2  1  0  0  0  0
  2  7  2  0  0  0  0
  2  3  1  0  0  0  0
  3  4  2  0  0  0  0
  4 29  1  0  0  0  0
  4  5  1  0  0  0  0
  5  8  1  0  0  0  0
  6 30  1  0  0  0  0
  6  5  2  0  0  0  0
  7  6  1  0  0  0  0
  8 25  1  0  0  0  0
  9 11  1  0  0  0  0
  9  8  1  0  0  0  0
 10  9  2  0  0  0  0
 11 12  1  0  0  0  0
 12 27  2  0  0  0  0
 13 12  1  6  0  0  0
 13 14  1  0  0  0  0
 13 23  1  0  0  0  0
 14 15  1  0  0  0  0
 15 24  1  0  0  0  0
 15 34  1  0  0  0  0
 15 16  1  0  0  0  0
 16 21  1  0  0  0  0
 17 16  2  0  0  0  0
 17 18  1  0  0  0  0
 18 19  2  0  0  0  0
 19 20  1  0  0  0  0
 19 22  1  0  0  0  0
 20 36  1  0  0  0  0
 21 37  1  0  0  0  0
 21 20  2  0  0  0  0
 22 40  1  0  0  0  0
 22 39  1  0  0  0  0
 23 17  1  0  0  0  0
 24 44  1  0  0  0  0
 24 45  1  0  0  0  0
 25 13  1  0  0  0  0
 25 26  2  0  0  0  0
 28  3  1  0  0  0  0
 31  7  1  0  0  0  0
 32 14  1  0  0  0  0
 33 14  1  0  0  0  0
 35 18  1  0  0  0  0
 38 22  1  0  0  0  0
 41 23  1  0  0  0  0
 42 23  1  0  0  0  0
 43 24  1  0  0  0  0
M  END
>  <Pose>
1

>  <Score>
-5.49

$$$$
