
 OpenBabel03172210413D

 35 38  0  0  1  0  0  0  0  0999 V2000
   10.1460    5.8060   10.3660 Cl  0  0  0  0  0  0  0  0  0  0  0  0
    8.9570    6.7700   11.2390 C   0  0  0  0  0  0  0  0  0  0  0  0
    7.8000    6.1870   11.7210 C   0  0  0  0  0  0  0  0  0  0  0  0
    6.8600    6.9190   12.4060 C   0  0  0  0  0  0  0  0  0  0  0  0
    7.0480    8.2870   12.6390 C   0  0  0  0  0  0  0  0  0  0  0  0
    8.2100    8.8320   12.1450 C   0  0  0  0  0  0  0  0  0  0  0  0
    9.1660    8.1240   11.4570 C   0  0  0  0  0  0  0  0  0  0  0  0
    6.0770    9.0380   13.3560 N   0  0  0  0  0  0  0  0  0  0  0  0
    4.6440    8.9580   13.2820 C   0  0  0  0  0  0  0  0  0  0  0  0
    4.0330    8.3340   12.3790 O   0  0  0  0  0  0  0  0  0  0  0  0
    4.0180    9.7040   14.4030 C   0  0  1  0  0  0  0  0  0  0  0  0
    3.2470    8.8390   15.3460 C   0  0  1  0  0  0  0  0  0  0  0  0
    3.9060    7.4750   15.3490 C   0  0  1  0  0  0  0  0  0  0  0  0
    5.2670    7.7980   15.9640 C   0  0  1  0  0  0  0  0  0  0  0  0
    5.2050    9.2500   16.3750 C   0  0  1  0  0  0  0  0  0  0  0  0
    5.2220   10.1960   15.2160 C   0  0  1  0  0  0  0  0  0  0  0  0
    6.3890   10.0360   14.3150 C   0  0  0  0  0  0  0  0  0  0  0  0
    7.4550   10.6900   14.4150 O   0  0  0  0  0  0  0  0  0  0  0  0
    3.7030    9.3240   16.7320 C   0  0  0  0  0  0  0  0  0  0  0  0
    5.4690    7.0730   17.1360 O   0  0  0  0  0  0  0  0  0  0  0  0
    3.2240    6.6790   16.2440 O   0  0  0  0  0  0  0  0  0  0  0  0
    7.6610    5.1250   11.5350 H   0  0  0  0  0  0  0  0  0  0  0  0
    5.9550    6.4910   12.7890 H   0  0  0  0  0  0  0  0  0  0  0  0
    8.3940    9.8970   12.3060 H   0  0  0  0  0  0  0  0  0  0  0  0
   10.0850    8.5770   11.0720 H   0  0  0  0  0  0  0  0  0  0  0  0
    3.4470   10.5850   14.0470 H   0  0  0  0  0  0  0  0  0  0  0  0
    2.1780    8.8320   15.2330 H   0  0  0  0  0  0  0  0  0  0  0  0
    4.0030    7.0500   14.3440 H   0  0  0  0  0  0  0  0  0  0  0  0
    6.0790    7.5730   15.2800 H   0  0  0  0  0  0  0  0  0  0  0  0
    5.8400    9.5190   17.2150 H   0  0  0  0  0  0  0  0  0  0  0  0
    5.0840   11.2270   15.5830 H   0  0  0  0  0  0  0  0  0  0  0  0
    3.3830   10.3340   16.9520 H   0  0  0  0  0  0  0  0  0  0  0  0
    3.4770    8.5530   17.4950 H   0  0  0  0  0  0  0  0  0  0  0  0
    5.0100    6.1880   17.0200 H   0  0  0  0  0  0  0  0  0  0  0  0
    3.7810    6.0310   16.7360 H   0  0  0  0  0  0  0  0  0  0  0  0
  1  2  1  0  0  0  0
  2  7  2  0  0  0  0
  2  3  1  0  0  0  0
  3  4  2  0  0  0  0
  4  5  1  0  0  0  0
  4 23  1  0  0  0  0
  5  8  1  0  0  0  0
  6 24  1  0  0  0  0
  6  5  2  0  0  0  0
  7  6  1  0  0  0  0
  8 17  1  0  0  0  0
  9  8  1  0  0  0  0
  9 11  1  0  0  0  0
 10  9  2  0  0  0  0
 11 26  1  6  0  0  0
 11 16  1  0  0  0  0
 11 12  1  0  0  0  0
 12 27  1  6  0  0  0
 12 13  1  0  0  0  0
 12 19  1  0  0  0  0
 13 28  1  6  0  0  0
 13 14  1  0  0  0  0
 13 21  1  0  0  0  0
 14 29  1  6  0  0  0
 14 15  1  0  0  0  0
 14 20  1  0  0  0  0
 15 19  1  0  0  0  0
 15 30  1  1  0  0  0
 16 31  1  1  0  0  0
 16 15  1  0  0  0  0
 17 18  2  0  0  0  0
 17 16  1  0  0  0  0
 19 32  1  0  0  0  0
 19 33  1  0  0  0  0
 21 35  1  0  0  0  0
 22  3  1  0  0  0  0
 25  7  1  0  0  0  0
 34 20  1  0  0  0  0
M  END
>  <Pose>
1

>  <Score>
-4.91

$$$$
