
 OpenBabel03172210413D

 47 50  0  0  1  0  0  0  0  0999 V2000
   12.0970   -0.8200    8.6790 Cl  0  0  0  0  0  0  0  0  0  0  0  0
   12.0100    0.8320    9.2590 C   0  0  0  0  0  0  0  0  0  0  0  0
   13.1510    1.6140    9.3660 C   0  0  0  0  0  0  0  0  0  0  0  0
   13.0520    2.8940    9.8200 C   0  0  0  0  0  0  0  0  0  0  0  0
   11.8360    3.4590   10.1860 C   0  0  0  0  0  0  0  0  0  0  0  0
   10.7050    2.6800   10.0790 C   0  0  0  0  0  0  0  0  0  0  0  0
   10.7820    1.3650    9.6160 C   0  0  0  0  0  0  0  0  0  0  0  0
   11.7370    4.7960   10.6610 N   0  0  0  0  0  0  0  0  0  0  0  0
   10.9740    5.7940    9.9980 C   0  0  0  0  0  0  0  0  0  0  0  0
   10.3600    5.4720    8.9380 O   0  0  0  0  0  0  0  0  0  0  0  0
   10.8910    7.1140   10.4950 N   0  0  0  0  0  0  0  0  0  0  0  0
   11.5740    7.4810   11.6780 C   0  0  0  0  0  0  0  0  0  0  0  0
   11.3720    8.6120   12.2420 O   0  0  0  0  0  0  0  0  0  0  0  0
   12.5420    6.5850   12.3120 C   0  0  1  0  0  0  0  0  0  0  0  0
   12.4100    5.2000   11.8450 C   0  0  0  0  0  0  0  0  0  0  0  0
   12.9290    4.2560   12.5350 O   0  0  0  0  0  0  0  0  0  0  0  0
   13.9270    7.1120   12.1340 C   0  0  0  0  0  0  0  0  0  0  0  0
   14.9100    7.1090   12.9940 C   0  0  0  0  0  0  0  0  0  0  0  0
   16.0750    7.7460   12.3310 C   0  0  2  0  0  0  0  0  0  0  0  0
   15.4920    8.4700   11.2220 N   0  0  0  0  0  0  0  0  0  0  0  0
   14.3540    7.7140   10.9170 N   0  0  0  0  0  0  0  0  0  0  0  0
   17.0240    6.7140   11.8320 C   0  0  0  0  0  0  0  0  0  0  0  0
   17.6600    6.8260   10.6170 C   0  0  0  0  0  0  0  0  0  0  0  0
   18.5420    5.8720   10.1430 C   0  0  0  0  0  0  0  0  0  0  0  0
   18.8170    4.7540   10.8980 C   0  0  0  0  0  0  0  0  0  0  0  0
   18.1930    4.6240   12.1140 C   0  0  0  0  0  0  0  0  0  0  0  0
   17.3150    5.5800   12.5760 C   0  0  0  0  0  0  0  0  0  0  0  0
   19.6940    3.7900   10.4450 O   0  0  0  0  0  0  0  0  0  0  0  0
   20.2320    2.8560   11.3520 C   0  0  0  0  0  0  0  0  0  0  0  0
   19.1500    6.0400    8.9140 O   0  0  0  0  0  0  0  0  0  0  0  0
   14.0970    1.2030    9.0910 H   0  0  0  0  0  0  0  0  0  0  0  0
   13.9580    3.5060    9.9030 H   0  0  0  0  0  0  0  0  0  0  0  0
    9.7640    3.1290   10.3660 H   0  0  0  0  0  0  0  0  0  0  0  0
    9.8620    0.7890    9.5480 H   0  0  0  0  0  0  0  0  0  0  0  0
   10.3200    7.8400    9.9890 H   0  0  0  0  0  0  0  0  0  0  0  0
   12.3080    6.5980   13.4170 H   0  0  0  0  0  0  0  0  0  0  0  0
   14.8370    6.7040   14.0010 H   0  0  0  0  0  0  0  0  0  0  0  0
   16.5970    8.4360   13.0370 H   0  0  0  0  0  0  0  0  0  0  0  0
   15.2430    9.4510   11.4920 H   0  0  0  0  0  0  0  0  0  0  0  0
   13.9400    7.6440    9.9510 H   0  0  0  0  0  0  0  0  0  0  0  0
   17.4260    7.7220   10.0350 H   0  0  0  0  0  0  0  0  0  0  0  0
   18.4060    3.7360   12.7230 H   0  0  0  0  0  0  0  0  0  0  0  0
   16.8120    5.4850   13.5460 H   0  0  0  0  0  0  0  0  0  0  0  0
   19.4600    2.2060   11.8060 H   0  0  0  0  0  0  0  0  0  0  0  0
   21.0030    2.2600   10.8280 H   0  0  0  0  0  0  0  0  0  0  0  0
   20.7620    3.4300   12.1410 H   0  0  0  0  0  0  0  0  0  0  0  0
   19.2600    5.2750    8.2790 H   0  0  0  0  0  0  0  0  0  0  0  0
  1  2  1  0  0  0  0
  2  3  2  0  0  0  0
  2  7  1  0  0  0  0
  3  4  1  0  0  0  0
  4 32  1  0  0  0  0
  4  5  2  0  0  0  0
  5  8  1  0  0  0  0
  6  5  1  0  0  0  0
  6 33  1  0  0  0  0
  7  6  2  0  0  0  0
  8 15  1  0  0  0  0
  9 11  1  0  0  0  0
  9  8  1  0  0  0  0
 10  9  2  0  0  0  0
 11 12  1  0  0  0  0
 12 13  2  0  0  0  0
 12 14  1  0  0  0  0
 14 36  1  1  0  0  0
 15 14  1  0  0  0  0
 15 16  2  0  0  0  0
 17 14  1  0  0  0  0
 17 18  2  0  0  0  0
 18 37  1  0  0  0  0
 19 18  1  0  0  0  0
 19 38  1  1  0  0  0
 20 39  1  0  0  0  0
 20 19  1  0  0  0  0
 21 20  1  0  0  0  0
 21 17  1  0  0  0  0
 22 19  1  0  0  0  0
 22 27  1  0  0  0  0
 23 22  2  0  0  0  0
 24 23  1  0  0  0  0
 24 25  2  0  0  0  0
 25 26  1  0  0  0  0
 26 27  2  0  0  0  0
 26 42  1  0  0  0  0
 27 43  1  0  0  0  0
 28 25  1  0  0  0  0
 28 29  1  0  0  0  0
 29 44  1  0  0  0  0
 29 46  1  0  0  0  0
 30 24  1  0  0  0  0
 31  3  1  0  0  0  0
 34  7  1  0  0  0  0
 35 11  1  0  0  0  0
 40 21  1  0  0  0  0
 41 23  1  0  0  0  0
 45 29  1  0  0  0  0
 47 30  1  0  0  0  0
M  END
>  <Pose>
1

>  <Score>
-7.37

$$$$
