
 OpenBabel03172210413D

 43 46  0  0  1  0  0  0  0  0999 V2000
    4.2970    7.6280   16.5780 Cl  0  0  0  0  0  0  0  0  0  0  0  0
    5.5560    7.3830   15.4020 C   0  0  0  0  0  0  0  0  0  0  0  0
    6.6570    8.2270   15.4340 C   0  0  0  0  0  0  0  0  0  0  0  0
    7.6700    8.0510   14.5110 C   0  0  0  0  0  0  0  0  0  0  0  0
    7.6440    7.0650   13.5440 C   0  0  0  0  0  0  0  0  0  0  0  0
    6.5410    6.2340   13.5290 C   0  0  0  0  0  0  0  0  0  0  0  0
    5.5080    6.3800   14.4370 C   0  0  0  0  0  0  0  0  0  0  0  0
    8.7220    6.9060   12.5950 N   0  0  0  0  0  0  0  0  0  0  0  0
    8.9500    7.9890   11.6790 C   0  0  0  0  0  0  0  0  0  0  0  0
    8.2350    9.0380   11.7050 O   0  0  0  0  0  0  0  0  0  0  0  0
   10.0090    7.8260   10.7480 N   0  0  0  0  0  0  0  0  0  0  0  0
   10.8060    6.6200   10.7410 C   0  0  0  0  0  0  0  0  0  0  0  0
   11.9430    6.7070   10.2580 O   0  0  0  0  0  0  0  0  0  0  0  0
   10.2500    5.3970   11.2860 C   0  0  2  0  0  0  0  0  0  0  0  0
    9.5330    5.7420   12.5500 C   0  0  0  0  0  0  0  0  0  0  0  0
    9.5980    5.0550   13.6010 O   0  0  0  0  0  0  0  0  0  0  0  0
   11.1280    4.2580   11.4270 C   0  0  0  0  0  0  0  0  0  0  0  0
   11.1550    3.1390   10.7410 C   0  0  0  0  0  0  0  0  0  0  0  0
   12.2280    2.2350   11.2230 C   0  0  2  0  0  0  0  0  0  0  0  0
   12.9920    3.0900   12.1020 N   0  0  0  0  0  0  0  0  0  0  0  0
   12.1730    4.1710   12.4200 N   0  0  0  0  0  0  0  0  0  0  0  0
   13.1220    1.7780   10.1530 C   0  0  0  0  0  0  0  0  0  0  0  0
   14.4530    2.1610   10.2050 C   0  0  0  0  0  0  0  0  0  0  0  0
   15.3180    1.7480    9.2190 C   0  0  0  0  0  0  0  0  0  0  0  0
   14.8980    0.9590    8.1730 C   0  0  0  0  0  0  0  0  0  0  0  0
   13.5810    0.5710    8.1070 C   0  0  0  0  0  0  0  0  0  0  0  0
   12.7060    0.9920    9.1090 C   0  0  0  0  0  0  0  0  0  0  0  0
   16.6660    2.1280    9.2600 O   0  0  0  0  0  0  0  0  0  0  0  0
    6.7090    9.0240   16.1900 H   0  0  0  0  0  0  0  0  0  0  0  0
    8.5200    8.7030   14.5340 H   0  0  0  0  0  0  0  0  0  0  0  0
    6.4630    5.4510   12.8060 H   0  0  0  0  0  0  0  0  0  0  0  0
    4.6280    5.7450   14.4530 H   0  0  0  0  0  0  0  0  0  0  0  0
   10.1890    8.5960   10.0800 H   0  0  0  0  0  0  0  0  0  0  0  0
    9.4310    5.0780   10.5460 H   0  0  0  0  0  0  0  0  0  0  0  0
   10.5160    2.8210    9.9140 H   0  0  0  0  0  0  0  0  0  0  0  0
   11.7780    1.3740   11.7790 H   0  0  0  0  0  0  0  0  0  0  0  0
   13.9100    3.3730   11.6970 H   0  0  0  0  0  0  0  0  0  0  0  0
   12.3370    4.7770   13.2500 H   0  0  0  0  0  0  0  0  0  0  0  0
   14.7970    2.7830   11.0280 H   0  0  0  0  0  0  0  0  0  0  0  0
   15.5850    0.6320    7.3920 H   0  0  0  0  0  0  0  0  0  0  0  0
   13.1830   -0.0520    7.3060 H   0  0  0  0  0  0  0  0  0  0  0  0
   11.6670    0.6930    9.0690 H   0  0  0  0  0  0  0  0  0  0  0  0
   17.1130    2.4390    8.4160 H   0  0  0  0  0  0  0  0  0  0  0  0
  2  3  1  0  0  0  0
  2  1  1  0  0  0  0
  3 29  1  0  0  0  0
  4 30  1  0  0  0  0
  4  3  2  0  0  0  0
  5  4  1  0  0  0  0
  6  5  2  0  0  0  0
  6  7  1  0  0  0  0
  7 32  1  0  0  0  0
  7  2  2  0  0  0  0
  8  5  1  0  0  0  0
  9 10  2  0  0  0  0
  9  8  1  0  0  0  0
 11  9  1  0  0  0  0
 12 11  1  0  0  0  0
 12 14  1  0  0  0  0
 13 12  2  0  0  0  0
 14 34  1  6  0  0  0
 14 17  1  0  0  0  0
 14 15  1  0  0  0  0
 15  8  1  0  0  0  0
 15 16  2  0  0  0  0
 17 21  1  0  0  0  0
 18 19  1  0  0  0  0
 18 17  2  0  0  0  0
 19 36  1  1  0  0  0
 19 20  1  0  0  0  0
 20 21  1  0  0  0  0
 21 38  1  0  0  0  0
 22 23  1  0  0  0  0
 22 19  1  0  0  0  0
 23 39  1  0  0  0  0
 24 28  1  0  0  0  0
 24 23  2  0  0  0  0
 25 24  1  0  0  0  0
 26 25  2  0  0  0  0
 26 27  1  0  0  0  0
 27 22  2  0  0  0  0
 31  6  1  0  0  0  0
 33 11  1  0  0  0  0
 35 18  1  0  0  0  0
 37 20  1  0  0  0  0
 40 25  1  0  0  0  0
 41 26  1  0  0  0  0
 42 27  1  0  0  0  0
 43 28  1  0  0  0  0
M  END
>  <Pose>
1

>  <Score>
-7.16

$$$$
