
 OpenBabel03172210413D

 41 44  0  0  1  0  0  0  0  0999 V2000
   12.7730   -0.6880    7.6600 Cl  0  0  0  0  0  0  0  0  0  0  0  0
   12.5090    0.7410    8.6450 C   0  0  0  0  0  0  0  0  0  0  0  0
   13.5130    1.6630    8.8520 C   0  0  0  0  0  0  0  0  0  0  0  0
   13.3000    2.7920    9.6340 C   0  0  0  0  0  0  0  0  0  0  0  0
   12.0810    3.0320   10.2300 C   0  0  0  0  0  0  0  0  0  0  0  0
   11.0800    2.1100   10.0200 C   0  0  0  0  0  0  0  0  0  0  0  0
   11.2910    0.9860    9.2420 C   0  0  0  0  0  0  0  0  0  0  0  0
   11.8440    4.2040   11.0460 N   0  0  0  0  0  0  0  0  0  0  0  0
   11.5940    4.0800   12.4340 C   0  0  0  0  0  0  0  0  0  0  0  0
   11.5810    2.9470   12.9760 O   0  0  0  0  0  0  0  0  0  0  0  0
   11.3580    5.2700   13.2060 N   0  0  0  0  0  0  0  0  0  0  0  0
   11.3720    6.5530   12.5960 C   0  0  0  0  0  0  0  0  0  0  0  0
   10.8420    7.5260   13.1900 O   0  0  0  0  0  0  0  0  0  0  0  0
   12.0060    6.7210   11.2790 C   0  0  2  0  0  0  0  0  0  0  0  0
   11.8500    5.4990   10.4700 C   0  0  0  0  0  0  0  0  0  0  0  0
   11.7150    5.5930    9.2010 O   0  0  0  0  0  0  0  0  0  0  0  0
   13.4620    7.0580   11.4250 C   0  0  0  0  0  0  0  0  0  0  0  0
   14.4370    6.2910   11.8380 C   0  0  0  0  0  0  0  0  0  0  0  0
   15.6950    7.0530   11.8180 C   0  0  1  0  0  0  0  0  0  0  0  0
   15.3900    8.2060   11.0200 N   0  0  0  0  0  0  0  0  0  0  0  0
   13.9950    8.3330   11.1070 N   0  0  0  0  0  0  0  0  0  0  0  0
   15.9800    7.4590   13.2190 C   0  0  0  0  0  0  0  0  0  0  0  0
   15.7020    8.7380   13.6390 C   0  0  0  0  0  0  0  0  0  0  0  0
   15.9610    9.1170   14.9210 N   0  0  0  0  0  0  0  0  0  0  0  0
   16.4910    8.2800   15.8270 C   0  0  0  0  0  0  0  0  0  0  0  0
   16.7820    6.9920   15.4400 C   0  0  0  0  0  0  0  0  0  0  0  0
   16.5210    6.5850   14.1230 C   0  0  0  0  0  0  0  0  0  0  0  0
   14.4730    1.4910    8.3930 H   0  0  0  0  0  0  0  0  0  0  0  0
   14.0740    3.5240    9.8030 H   0  0  0  0  0  0  0  0  0  0  0  0
   10.1060    2.2880   10.4890 H   0  0  0  0  0  0  0  0  0  0  0  0
   10.5040    0.2470    9.0720 H   0  0  0  0  0  0  0  0  0  0  0  0
   11.1690    5.2260   14.2310 H   0  0  0  0  0  0  0  0  0  0  0  0
   11.5740    7.5710   10.7040 H   0  0  0  0  0  0  0  0  0  0  0  0
   14.3070    5.2590   12.1380 H   0  0  0  0  0  0  0  0  0  0  0  0
   16.5430    6.4620   11.3960 H   0  0  0  0  0  0  0  0  0  0  0  0
   15.7040    8.1100   10.0500 H   0  0  0  0  0  0  0  0  0  0  0  0
   13.5070    9.2440   10.9500 H   0  0  0  0  0  0  0  0  0  0  0  0
   15.2690    9.4380   12.9180 H   0  0  0  0  0  0  0  0  0  0  0  0
   16.6930    8.6060   16.8590 H   0  0  0  0  0  0  0  0  0  0  0  0
   17.2070    6.3110   16.1600 H   0  0  0  0  0  0  0  0  0  0  0  0
   16.7490    5.5890   13.8350 H   0  0  0  0  0  0  0  0  0  0  0  0
  1  2  1  0  0  0  0
  2  3  2  0  0  0  0
  2  7  1  0  0  0  0
  3  4  1  0  0  0  0
  4 29  1  0  0  0  0
  4  5  2  0  0  0  0
  5  8  1  0  0  0  0
  6  5  1  0  0  0  0
  6 30  1  0  0  0  0
  7  6  2  0  0  0  0
  8  9  1  0  0  0  0
  9 10  2  0  0  0  0
  9 11  1  0  0  0  0
 11 32  1  0  0  0  0
 12 13  2  0  0  0  0
 12 11  1  0  0  0  0
 14 33  1  6  0  0  0
 14 17  1  0  0  0  0
 14 12  1  0  0  0  0
 15  8  1  0  0  0  0
 15 14  1  0  0  0  0
 16 15  2  0  0  0  0
 17 18  2  0  0  0  0
 18 34  1  0  0  0  0
 19 35  1  6  0  0  0
 19 18  1  0  0  0  0
 19 22  1  0  0  0  0
 20 21  1  0  0  0  0
 20 19  1  0  0  0  0
 21 17  1  0  0  0  0
 22 23  2  0  0  0  0
 22 27  1  0  0  0  0
 23 24  1  0  0  0  0
 24 25  2  0  0  0  0
 25 39  1  0  0  0  0
 26 25  1  0  0  0  0
 26 40  1  0  0  0  0
 27 26  2  0  0  0  0
 28  3  1  0  0  0  0
 31  7  1  0  0  0  0
 36 20  1  0  0  0  0
 37 21  1  0  0  0  0
 38 23  1  0  0  0  0
 41 27  1  0  0  0  0
M  END
>  <Pose>
1

>  <Score>
-6.69

$$$$
