
 OpenBabel03172210413D

 53 56  0  0  1  0  0  0  0  0999 V2000
    9.7250   -1.5640    7.4680 Cl  0  0  0  0  0  0  0  0  0  0  0  0
   10.9690   -0.5010    8.1380 C   0  0  0  0  0  0  0  0  0  0  0  0
   10.6260    0.3860    9.1320 C   0  0  0  0  0  0  0  0  0  0  0  0
   11.6000    1.2260    9.6640 C   0  0  0  0  0  0  0  0  0  0  0  0
   12.8920    1.1810    9.2120 C   0  0  0  0  0  0  0  0  0  0  0  0
   13.2050    0.2820    8.2150 C   0  0  0  0  0  0  0  0  0  0  0  0
   12.2610   -0.5670    7.6640 C   0  0  0  0  0  0  0  0  0  0  0  0
   13.9310    2.0610    9.7630 N   0  0  0  0  0  0  0  0  0  0  0  0
   13.5650    3.0980   10.6600 C   0  0  2  0  0  0  0  0  0  0  0  0
   14.6560    3.9770   11.0510 C   0  0  0  0  0  0  0  0  0  0  0  0
   15.9460    3.7670   10.6680 C   0  0  0  0  0  0  0  0  0  0  0  0
   16.9560    4.6460   11.1030 C   0  0  0  0  0  0  0  0  0  0  0  0
   16.7030    5.7270   11.9100 C   0  0  0  0  0  0  0  0  0  0  0  0
   15.3860    5.9260   12.2890 C   0  0  0  0  0  0  0  0  0  0  0  0
   14.4080    5.0820   11.8730 C   0  0  0  0  0  0  0  0  0  0  0  0
   16.3190    2.6810    9.8040 N   0  0  0  0  0  0  0  0  0  0  0  0
   15.2620    1.8450    9.3750 C   0  0  0  0  0  0  0  0  0  0  0  0
   15.5100    0.8580    8.6090 O   0  0  0  0  0  0  0  0  0  0  0  0
   13.1410    2.4040   11.8480 O   0  0  0  0  0  0  0  0  0  0  0  0
   12.3670    3.8470   10.2000 C   0  0  0  0  0  0  0  0  0  0  0  0
   12.3800    4.4270    9.1130 O   0  0  0  0  0  0  0  0  0  0  0  0
   11.2390    3.8670   11.0410 N   0  0  0  0  0  0  0  0  0  0  0  0
   10.6370    5.1110   11.5220 C   0  0  0  0  0  0  0  0  0  0  0  0
    9.1590    5.0430   11.5850 C   0  0  0  0  0  0  0  0  0  0  0  0
    8.4560    6.2570   11.7360 N   0  0  0  0  0  0  0  0  0  0  0  0
    7.0870    6.2920   11.4240 C   0  0  0  0  0  0  0  0  0  0  0  0
    6.5050    7.6160   11.9260 C   0  0  0  0  0  0  0  0  0  0  0  0
    7.4600    8.6420   11.8130 O   0  0  0  0  0  0  0  0  0  0  0  0
    8.4810    8.4880   12.7480 C   0  0  0  0  0  0  0  0  0  0  0  0
    8.7700    7.0190   12.8970 C   0  0  0  0  0  0  0  0  0  0  0  0
    9.6070    0.4040    9.4700 H   0  0  0  0  0  0  0  0  0  0  0  0
   11.3100    1.9060   10.4360 H   0  0  0  0  0  0  0  0  0  0  0  0
   14.2110    0.2280    7.8450 H   0  0  0  0  0  0  0  0  0  0  0  0
   12.4810   -1.2740    6.8890 H   0  0  0  0  0  0  0  0  0  0  0  0
   17.9590    4.4420   10.7760 H   0  0  0  0  0  0  0  0  0  0  0  0
   17.4600    6.4110   12.2530 H   0  0  0  0  0  0  0  0  0  0  0  0
   15.1600    6.7920   12.9370 H   0  0  0  0  0  0  0  0  0  0  0  0
   13.3930    5.2450   12.1730 H   0  0  0  0  0  0  0  0  0  0  0  0
   17.3100    2.5500    9.5360 H   0  0  0  0  0  0  0  0  0  0  0  0
   13.6320    1.5450   11.9220 H   0  0  0  0  0  0  0  0  0  0  0  0
   10.7630    2.9830   11.3730 H   0  0  0  0  0  0  0  0  0  0  0  0
   11.1440    5.3580   12.4570 H   0  0  0  0  0  0  0  0  0  0  0  0
   10.9210    5.8860   10.7790 H   0  0  0  0  0  0  0  0  0  0  0  0
    8.8920    4.3850   12.4580 H   0  0  0  0  0  0  0  0  0  0  0  0
    8.7620    4.5090   10.6970 H   0  0  0  0  0  0  0  0  0  0  0  0
    6.8280    6.1110   10.3640 H   0  0  0  0  0  0  0  0  0  0  0  0
    6.5630    5.4970   12.0010 H   0  0  0  0  0  0  0  0  0  0  0  0
    5.5940    7.8980   11.3940 H   0  0  0  0  0  0  0  0  0  0  0  0
    6.2580    7.5620   13.0130 H   0  0  0  0  0  0  0  0  0  0  0  0
    8.2410    8.9500   13.7260 H   0  0  0  0  0  0  0  0  0  0  0  0
    9.3900    8.9880   12.3750 H   0  0  0  0  0  0  0  0  0  0  0  0
    9.8120    6.8270   13.2260 H   0  0  0  0  0  0  0  0  0  0  0  0
    8.1090    6.6560   13.7340 H   0  0  0  0  0  0  0  0  0  0  0  0
  1  2  1  0  0  0  0
  2  3  1  0  0  0  0
  3 31  1  0  0  0  0
  3  4  2  0  0  0  0
  4 32  1  0  0  0  0
  5  4  1  0  0  0  0
  5  8  1  0  0  0  0
  6  5  2  0  0  0  0
  7  2  2  0  0  0  0
  7  6  1  0  0  0  0
  8  9  1  0  0  0  0
  9 20  1  6  0  0  0
  9 10  1  0  0  0  0
  9 19  1  0  0  0  0
 10 15  1  0  0  0  0
 11 10  2  0  0  0  0
 11 12  1  0  0  0  0
 12 13  2  0  0  0  0
 13 36  1  0  0  0  0
 13 14  1  0  0  0  0
 14 37  1  0  0  0  0
 15 38  1  0  0  0  0
 15 14  2  0  0  0  0
 16 11  1  0  0  0  0
 17  8  1  0  0  0  0
 17 16  1  0  0  0  0
 18 17  2  0  0  0  0
 19 40  1  0  0  0  0
 20 22  1  0  0  0  0
 21 20  2  0  0  0  0
 22 41  1  0  0  0  0
 22 23  1  0  0  0  0
 23 24  1  0  0  0  0
 23 42  1  0  0  0  0
 24 25  1  0  0  0  0
 24 44  1  0  0  0  0
 25 30  1  0  0  0  0
 26 25  1  0  0  0  0
 26 27  1  0  0  0  0
 26 47  1  0  0  0  0
 27 49  1  0  0  0  0
 28 27  1  0  0  0  0
 28 29  1  0  0  0  0
 29 30  1  0  0  0  0
 29 50  1  0  0  0  0
 30 52  1  0  0  0  0
 30 53  1  0  0  0  0
 33  6  1  0  0  0  0
 34  7  1  0  0  0  0
 35 12  1  0  0  0  0
 39 16  1  0  0  0  0
 43 23  1  0  0  0  0
 45 24  1  0  0  0  0
 46 26  1  0  0  0  0
 48 27  1  0  0  0  0
 51 29  1  0  0  0  0
M  END
>  <Pose>
1

>  <Score>
-6.59

$$$$
