
 OpenBabel03172210413D

 55 59  0  0  1  0  0  0  0  0999 V2000
    4.1440    8.6660   13.2110 B   0  0  0  0  0  0  0  0  0  0  0  0
    5.9390    8.6070   12.5720 C   0  0  0  0  0  0  0  0  0  0  0  0
    7.1210    8.6770   13.2820 C   0  0  0  0  0  0  0  0  0  0  0  0
    8.1710    8.5980   12.4250 N   0  0  0  0  0  0  0  0  0  0  0  0
    7.6760    8.4820   11.2230 N   0  0  0  0  0  0  0  0  0  0  0  0
    6.3310    8.4800   11.2370 C   0  0  0  0  0  0  0  0  0  0  0  0
    9.5800    8.6310   12.7400 C   0  0  0  0  0  0  0  0  0  0  0  0
   10.1690    7.2510   12.9200 C   0  0  2  0  0  0  0  0  0  0  0  0
   10.5430    6.9900   14.3400 C   0  0  0  0  0  0  0  0  0  0  0  0
   11.3210    7.0850   11.9870 C   0  0  0  0  0  0  0  0  0  0  0  0
   12.4690    7.1280   12.4960 O   0  0  0  0  0  0  0  0  0  0  0  0
   11.1440    6.8910   10.5960 N   0  0  0  0  0  0  0  0  0  0  0  0
   11.0160    5.6640    9.9850 N   0  0  0  0  0  0  0  0  0  0  0  0
   10.7960    4.4950   10.7280 C   0  0  0  0  0  0  0  0  0  0  0  0
    9.8480    4.4880   11.5710 O   0  0  0  0  0  0  0  0  0  0  0  0
   11.6010    3.2580   10.5980 C   0  0  1  0  0  0  0  0  0  0  0  0
   10.8510    2.2140    9.7940 C   0  0  0  0  0  0  0  0  0  0  0  0
   11.6580    0.9530    9.6700 C   0  0  1  0  0  0  0  0  0  0  0  0
   12.9280    1.3080    8.8930 C   0  0  0  0  0  0  0  0  0  0  0  0
   13.6980    2.3490    9.6390 C   0  0  1  0  0  0  0  0  0  0  0  0
   12.8610    3.5930    9.8300 C   0  0  0  0  0  0  0  0  0  0  0  0
   14.0930    1.7980   10.9900 C   0  0  0  0  0  0  0  0  0  0  0  0
   12.8260    1.4610   11.7420 C   0  0  2  0  0  0  0  0  0  0  0  0
   12.0750    0.3900   10.9930 C   0  0  0  0  0  0  0  0  0  0  0  0
   11.9940    2.6990   11.9470 C   0  0  0  0  0  0  0  0  0  0  0  0
   10.8740    0.0150    8.8910 N   0  0  1  0  0  0  0  0  0  0  0  0
    9.7000   -0.5330    9.1520 N   0  0  0  0  0  0  0  0  0  0  0  0
    9.3150   -1.3330    8.2040 N   0  0  0  0  0  0  0  0  0  0  0  0
   10.2490   -1.3340    7.2690 C   0  0  0  0  0  0  0  0  0  0  0  0
   11.2270   -0.4890    7.6970 N   0  0  0  0  0  0  0  0  0  0  0  0
    7.2040    8.7790   14.3440 H   0  0  0  0  0  0  0  0  0  0  0  0
    5.6290    8.4000   10.4200 H   0  0  0  0  0  0  0  0  0  0  0  0
    9.7070    9.1710   13.6930 H   0  0  0  0  0  0  0  0  0  0  0  0
   10.1720    9.1720   11.9700 H   0  0  0  0  0  0  0  0  0  0  0  0
    9.4100    6.4990   12.6170 H   0  0  0  0  0  0  0  0  0  0  0  0
    9.6380    7.2390   14.9620 H   0  0  0  0  0  0  0  0  0  0  0  0
   10.6980    5.9000   14.5060 H   0  0  0  0  0  0  0  0  0  0  0  0
   11.3600    7.6160   14.7150 H   0  0  0  0  0  0  0  0  0  0  0  0
   11.1070    7.7620    9.9960 H   0  0  0  0  0  0  0  0  0  0  0  0
   11.0810    5.6010    8.9400 H   0  0  0  0  0  0  0  0  0  0  0  0
    9.8430    2.0230   10.2430 H   0  0  0  0  0  0  0  0  0  0  0  0
   10.7620    2.6290    8.7570 H   0  0  0  0  0  0  0  0  0  0  0  0
   13.5470    0.4260    8.7100 H   0  0  0  0  0  0  0  0  0  0  0  0
   12.5590    1.7780    7.9480 H   0  0  0  0  0  0  0  0  0  0  0  0
   14.5940    2.6370    9.0660 H   0  0  0  0  0  0  0  0  0  0  0  0
   13.4740    4.3680   10.3380 H   0  0  0  0  0  0  0  0  0  0  0  0
   12.5480    3.9420    8.8210 H   0  0  0  0  0  0  0  0  0  0  0  0
   14.6600    0.8520   10.7990 H   0  0  0  0  0  0  0  0  0  0  0  0
   14.6990    2.5460   11.5090 H   0  0  0  0  0  0  0  0  0  0  0  0
   13.1520    1.0890   12.7560 H   0  0  0  0  0  0  0  0  0  0  0  0
   11.2160    0.0390   11.5900 H   0  0  0  0  0  0  0  0  0  0  0  0
   12.7850   -0.4380   10.7840 H   0  0  0  0  0  0  0  0  0  0  0  0
   12.5870    3.4620   12.4570 H   0  0  0  0  0  0  0  0  0  0  0  0
   11.0780    2.4040   12.4910 H   0  0  0  0  0  0  0  0  0  0  0  0
   10.2210   -1.9010    6.3510 H   0  0  0  0  0  0  0  0  0  0  0  0
  2  1  1  0  0  0  0
  2  3  2  0  0  0  0
  3 31  1  0  0  0  0
  4  7  1  0  0  0  0
  4  3  1  0  0  0  0
  5  6  2  0  0  0  0
  5  4  1  0  0  0  0
  6  2  1  0  0  0  0
  7  8  1  0  0  0  0
  7 33  1  0  0  0  0
  8 35  1  6  0  0  0
  8  9  1  0  0  0  0
  9 37  1  0  0  0  0
  9 38  1  0  0  0  0
  9 36  1  0  0  0  0
 10 11  2  0  0  0  0
 10  8  1  0  0  0  0
 12 10  1  0  0  0  0
 13 12  1  0  0  0  0
 13 14  1  0  0  0  0
 14 15  2  0  0  0  0
 16 14  1  1  0  0  0
 16 25  1  0  0  0  0
 17 41  1  0  0  0  0
 17 16  1  0  0  0  0
 18 19  1  6  0  0  0
 18 17  1  0  0  0  0
 18 24  1  0  0  0  0
 19 20  1  0  0  0  0
 20 45  1  6  0  0  0
 20 21  1  0  0  0  0
 20 22  1  0  0  0  0
 21 46  1  0  0  0  0
 21 16  1  0  0  0  0
 22 49  1  0  0  0  0
 22 23  1  0  0  0  0
 23 25  1  0  0  0  0
 23 50  1  1  0  0  0
 24 51  1  0  0  0  0
 24 23  1  0  0  0  0
 25 53  1  0  0  0  0
 25 54  1  0  0  0  0
 26 30  1  6  0  0  0
 26 27  1  0  0  0  0
 26 18  1  0  0  0  0
 28 27  1  0  0  0  0
 29 30  1  0  0  0  0
 29 28  2  0  0  0  0
 32  6  1  0  0  0  0
 34  7  1  0  0  0  0
 39 12  1  0  0  0  0
 40 13  1  0  0  0  0
 42 17  1  0  0  0  0
 43 19  1  0  0  0  0
 44 19  1  0  0  0  0
 47 21  1  0  0  0  0
 48 22  1  0  0  0  0
 52 24  1  0  0  0  0
 55 29  1  0  0  0  0
M  END
>  <Pose>
1

>  <Score>
-5.68

$$$$
