
 OpenBabel03172210413D

 52 55  0  0  1  0  0  0  0  0999 V2000
    7.6460    9.3140   12.1890 Cl  0  0  0  0  0  0  0  0  0  0  0  0
    8.5120    7.9100   11.6210 C   0  0  0  0  0  0  0  0  0  0  0  0
    9.7970    7.9450   11.1410 C   0  0  0  0  0  0  0  0  0  0  0  0
   10.4350    6.8100   10.7060 C   0  0  0  0  0  0  0  0  0  0  0  0
    9.8010    5.5620   10.7330 C   0  0  0  0  0  0  0  0  0  0  0  0
    8.5240    5.5260   11.2110 C   0  0  0  0  0  0  0  0  0  0  0  0
    7.8930    6.6700   11.6440 C   0  0  0  0  0  0  0  0  0  0  0  0
   10.5290    4.4030   10.2660 C   0  0  0  0  0  0  0  0  0  0  0  0
   10.9080    4.3620    9.0480 O   0  0  0  0  0  0  0  0  0  0  0  0
   10.8710    3.2440   11.1170 C   0  0  0  0  0  0  0  0  0  0  0  0
   12.3110    2.9960   10.9940 N   0  0  0  0  0  0  0  0  0  0  0  0
   12.9800    1.9960   10.4470 C   0  0  2  0  0  0  0  0  0  0  0  0
   14.3220    2.1890   10.5620 N   0  0  0  0  0  0  0  0  0  0  0  0
   14.5110    3.3300   11.1860 C   0  0  0  0  0  0  0  0  0  0  0  0
   13.2250    3.8420   11.4630 C   0  0  0  0  0  0  0  0  0  0  0  0
   15.7470    4.0070   11.5880 C   0  0  0  0  0  0  0  0  0  0  0  0
   15.8450    5.0510   12.4510 C   0  0  0  0  0  0  0  0  0  0  0  0
   17.0470    5.6970   12.7380 C   0  0  0  0  0  0  0  0  0  0  0  0
   18.2110    5.2890   12.1460 C   0  0  0  0  0  0  0  0  0  0  0  0
   18.1460    4.2330   11.2700 C   0  0  0  0  0  0  0  0  0  0  0  0
   16.9500    3.6070   10.9960 C   0  0  0  0  0  0  0  0  0  0  0  0
   19.4360    5.9220   12.4180 O   0  0  0  0  0  0  0  0  0  0  0  0
   20.2910    6.3840   11.4070 C   0  0  0  0  0  0  0  0  0  0  0  0
   15.3050    1.2470   10.1050 C   0  0  0  0  0  0  0  0  0  0  0  0
   15.4170    1.2900    8.5830 C   0  0  0  0  0  0  0  0  0  0  0  0
   13.9870    1.5440    8.0940 C   0  0  0  0  0  0  0  0  0  0  0  0
   13.1280    0.4010    8.5600 C   0  0  0  0  0  0  0  0  0  0  0  0
   12.3040    0.8410    9.7800 C   0  0  0  0  0  0  0  0  0  0  0  0
   10.3200    8.8950   11.1040 H   0  0  0  0  0  0  0  0  0  0  0  0
   11.4630    6.8810   10.3280 H   0  0  0  0  0  0  0  0  0  0  0  0
    7.9790    4.6040   11.2590 H   0  0  0  0  0  0  0  0  0  0  0  0
    6.8710    6.5970   12.0190 H   0  0  0  0  0  0  0  0  0  0  0  0
   10.6570    3.5740   12.1750 H   0  0  0  0  0  0  0  0  0  0  0  0
   10.2840    2.3520   10.8940 H   0  0  0  0  0  0  0  0  0  0  0  0
   13.0460    4.7880   11.9790 H   0  0  0  0  0  0  0  0  0  0  0  0
   14.9930    5.3930   12.9750 H   0  0  0  0  0  0  0  0  0  0  0  0
   17.0790    6.5310   13.4350 H   0  0  0  0  0  0  0  0  0  0  0  0
   19.0660    3.9150   10.8070 H   0  0  0  0  0  0  0  0  0  0  0  0
   16.9090    2.7790   10.3020 H   0  0  0  0  0  0  0  0  0  0  0  0
   19.8920    7.3400   11.0030 H   0  0  0  0  0  0  0  0  0  0  0  0
   21.3420    6.4880   11.7710 H   0  0  0  0  0  0  0  0  0  0  0  0
   20.3560    5.6720   10.5320 H   0  0  0  0  0  0  0  0  0  0  0  0
   16.2160    1.1580   10.6530 H   0  0  0  0  0  0  0  0  0  0  0  0
   14.8170    0.2030   10.2660 H   0  0  0  0  0  0  0  0  0  0  0  0
   16.1000    2.0910    8.2850 H   0  0  0  0  0  0  0  0  0  0  0  0
   15.7280    0.3400    8.1500 H   0  0  0  0  0  0  0  0  0  0  0  0
   13.6200    2.4930    8.5740 H   0  0  0  0  0  0  0  0  0  0  0  0
   13.9460    1.7250    7.0110 H   0  0  0  0  0  0  0  0  0  0  0  0
   12.4440    0.1520    7.7180 H   0  0  0  0  0  0  0  0  0  0  0  0
   13.6920   -0.5310    8.7570 H   0  0  0  0  0  0  0  0  0  0  0  0
   12.2990    0.0200   10.5440 H   0  0  0  0  0  0  0  0  0  0  0  0
   11.2550    1.0500    9.5150 H   0  0  0  0  0  0  0  0  0  0  0  0
  2  7  1  0  0  0  0
  2  1  1  0  0  0  0
  3  2  2  0  0  0  0
  4  5  2  0  0  0  0
  4  3  1  0  0  0  0
  5  6  1  0  0  0  0
  6 31  1  0  0  0  0
  6  7  2  0  0  0  0
  7 32  1  0  0  0  0
  8  5  1  0  0  0  0
  8 10  1  0  0  0  0
  9  8  2  0  0  0  0
 10 33  1  0  0  0  0
 11 10  1  0  0  0  0
 11 15  1  0  0  0  0
 12 28  1  6  0  0  0
 12 13  1  0  0  0  0
 12 11  1  0  0  0  0
 13 14  1  0  0  0  0
 14 15  2  0  0  0  0
 14 16  1  0  0  0  0
 15 35  1  0  0  0  0
 16 17  1  0  0  0  0
 17 18  2  0  0  0  0
 17 36  1  0  0  0  0
 18 37  1  0  0  0  0
 19 22  1  0  0  0  0
 19 18  1  0  0  0  0
 20 19  2  0  0  0  0
 21 20  1  0  0  0  0
 21 16  2  0  0  0  0
 23 41  1  0  0  0  0
 23 22  1  0  0  0  0
 24 44  1  0  0  0  0
 24 13  1  0  0  0  0
 24 43  1  0  0  0  0
 25 24  1  0  0  0  0
 26 27  1  0  0  0  0
 26 47  1  0  0  0  0
 26 25  1  0  0  0  0
 27 50  1  0  0  0  0
 27 28  1  0  0  0  0
 28 51  1  0  0  0  0
 29  3  1  0  0  0  0
 30  4  1  0  0  0  0
 34 10  1  0  0  0  0
 38 20  1  0  0  0  0
 39 21  1  0  0  0  0
 40 23  1  0  0  0  0
 42 23  1  0  0  0  0
 45 25  1  0  0  0  0
 46 25  1  0  0  0  0
 48 26  1  0  0  0  0
 49 27  1  0  0  0  0
 52 28  1  0  0  0  0
M  END
>  <Pose>
1

>  <Score>
-5.64

$$$$
