
 OpenBabel03172210413D

 58 61  0  0  1  0  0  0  0  0999 V2000
   18.3860   12.2740   15.0670 Cl  0  0  0  0  0  0  0  0  0  0  0  0
   17.6610   10.9390   14.1390 C   0  0  0  0  0  0  0  0  0  0  0  0
   16.4830   10.3610   14.5510 C   0  0  0  0  0  0  0  0  0  0  0  0
   15.9310    9.3000   13.8180 C   0  0  0  0  0  0  0  0  0  0  0  0
   16.5400    8.8070   12.6740 C   0  0  0  0  0  0  0  0  0  0  0  0
   17.7000    9.3970   12.2880 C   0  0  0  0  0  0  0  0  0  0  0  0
   18.2700   10.4460   12.9980 C   0  0  0  0  0  0  0  0  0  0  0  0
   15.8690    7.6630   12.0160 C   0  0  1  0  0  0  0  0  0  0  0  0
   16.7890    6.6340   11.5090 C   0  0  0  0  0  0  0  0  0  0  0  0
   16.3310    5.1980   11.5740 C   0  0  0  0  0  0  0  0  0  0  0  0
   14.9770    4.9970   11.9720 N   0  0  0  0  0  0  0  0  0  0  0  0
   14.5740    5.7860   13.1530 C   0  0  0  0  0  0  0  0  0  0  0  0
   14.8230    7.2060   13.0020 C   0  0  0  0  0  0  0  0  0  0  0  0
   14.1150    3.9600   11.5430 C   0  0  0  0  0  0  0  0  0  0  0  0
   14.5330    3.0270   10.8620 O   0  0  0  0  0  0  0  0  0  0  0  0
   12.6420    3.9810   11.9290 C   0  0  1  0  0  0  0  0  0  0  0  0
   12.0280    5.1830   11.4170 N   0  0  0  0  0  0  0  0  0  0  0  0
   10.8560    5.2270   10.6640 C   0  0  0  0  0  0  0  0  0  0  0  0
   11.1710    5.1540    9.3220 O   0  0  0  0  0  0  0  0  0  0  0  0
    9.4830    5.2940   10.8460 C   0  0  0  0  0  0  0  0  0  0  0  0
    8.4310    5.9580   11.2230 C   0  0  0  0  0  0  0  0  0  0  0  0
    7.1080    5.3290   11.1050 N   0  0  0  0  0  0  0  0  0  0  0  0
    5.9460    5.9160   11.5630 N   0  0  0  0  0  0  0  0  0  0  0  0
    5.9400    7.1590   12.1760 C   0  0  0  0  0  0  0  0  0  0  0  0
    4.9060    7.7340   12.6020 O   0  0  0  0  0  0  0  0  0  0  0  0
    7.2290    7.8740   12.3410 C   0  0  0  0  0  0  0  0  0  0  0  0
    8.3620    7.2510   11.8730 C   0  0  0  0  0  0  0  0  0  0  0  0
    9.5640    7.9160   12.1420 C   0  0  0  0  0  0  0  0  0  0  0  0
    9.5820    9.1250   12.8230 C   0  0  0  0  0  0  0  0  0  0  0  0
    8.4250    9.7130   13.2620 C   0  0  0  0  0  0  0  0  0  0  0  0
    7.2310    9.0700   13.0160 C   0  0  0  0  0  0  0  0  0  0  0  0
   11.9440    2.7320   12.0080 C   0  0  0  0  0  0  0  0  0  0  0  0
   15.1780    8.1950   10.8860 O   0  0  0  0  0  0  0  0  0  0  0  0
   15.9910   10.7430   15.4450 H   0  0  0  0  0  0  0  0  0  0  0  0
   14.9980    8.8890   14.1740 H   0  0  0  0  0  0  0  0  0  0  0  0
   18.2400    9.0840   11.4020 H   0  0  0  0  0  0  0  0  0  0  0  0
   19.1870   10.9160   12.7050 H   0  0  0  0  0  0  0  0  0  0  0  0
   17.8190    6.6650   11.9580 H   0  0  0  0  0  0  0  0  0  0  0  0
   16.9680    6.8460   10.4060 H   0  0  0  0  0  0  0  0  0  0  0  0
   16.9350    4.7030   12.4270 H   0  0  0  0  0  0  0  0  0  0  0  0
   16.6400    4.5830   10.7080 H   0  0  0  0  0  0  0  0  0  0  0  0
   15.3370    5.3900   13.9460 H   0  0  0  0  0  0  0  0  0  0  0  0
   13.5910    5.5310   13.5270 H   0  0  0  0  0  0  0  0  0  0  0  0
   13.8800    7.7500   12.7970 H   0  0  0  0  0  0  0  0  0  0  0  0
   15.0960    7.6010   14.0490 H   0  0  0  0  0  0  0  0  0  0  0  0
   12.7720    4.3150   13.0790 H   0  0  0  0  0  0  0  0  0  0  0  0
   12.6370    6.0400   11.6420 H   0  0  0  0  0  0  0  0  0  0  0  0
    9.0280    4.2300   10.4790 H   0  0  0  0  0  0  0  0  0  0  0  0
    7.0960    4.3790   10.6420 H   0  0  0  0  0  0  0  0  0  0  0  0
    5.0280    5.4050   11.4440 H   0  0  0  0  0  0  0  0  0  0  0  0
   10.4550    7.4650   11.8630 H   0  0  0  0  0  0  0  0  0  0  0  0
   10.5470    9.6270   13.0100 H   0  0  0  0  0  0  0  0  0  0  0  0
    8.5070   10.6460   13.7900 H   0  0  0  0  0  0  0  0  0  0  0  0
    6.2890    9.4880   13.3450 H   0  0  0  0  0  0  0  0  0  0  0  0
   11.0760    2.5950   11.3230 H   0  0  0  0  0  0  0  0  0  0  0  0
   11.4870    2.5340   13.0410 H   0  0  0  0  0  0  0  0  0  0  0  0
   12.6360    1.8450   11.9150 H   0  0  0  0  0  0  0  0  0  0  0  0
   14.8140    9.0760   11.0740 H   0  0  0  0  0  0  0  0  0  0  0  0
  2  3  1  0  0  0  0
  2  1  1  0  0  0  0
  3 34  1  0  0  0  0
  4 35  1  0  0  0  0
  4  3  2  0  0  0  0
  5  4  1  0  0  0  0
  6  5  2  0  0  0  0
  6  7  1  0  0  0  0
  7  2  2  0  0  0  0
  8 33  1  6  0  0  0
  8  5  1  0  0  0  0
  8 13  1  0  0  0  0
  9 10  1  0  0  0  0
  9 38  1  0  0  0  0
  9  8  1  0  0  0  0
 10 11  1  0  0  0  0
 10 40  1  0  0  0  0
 11 12  1  0  0  0  0
 12 43  1  0  0  0  0
 12 42  1  0  0  0  0
 13 12  1  0  0  0  0
 13 45  1  0  0  0  0
 14 16  1  0  0  0  0
 14 11  1  0  0  0  0
 15 14  2  0  0  0  0
 16 32  1  0  0  0  0
 16 46  1  1  0  0  0
 17 47  1  0  0  0  0
 17 16  1  0  0  0  0
 18 20  1  0  0  0  0
 18 17  1  0  0  0  0
 19 18  2  0  0  0  0
 20 21  2  0  0  0  0
 21 27  1  0  0  0  0
 22 21  1  0  0  0  0
 22 23  1  0  0  0  0
 23 24  1  0  0  0  0
 24 26  1  0  0  0  0
 24 25  2  0  0  0  0
 26 31  1  0  0  0  0
 27 28  1  0  0  0  0
 27 26  2  0  0  0  0
 28 29  2  0  0  0  0
 29 52  1  0  0  0  0
 29 30  1  0  0  0  0
 30 53  1  0  0  0  0
 31 30  2  0  0  0  0
 31 54  1  0  0  0  0
 32 56  1  0  0  0  0
 33 58  1  0  0  0  0
 36  6  1  0  0  0  0
 37  7  1  0  0  0  0
 39  9  1  0  0  0  0
 41 10  1  0  0  0  0
 44 13  1  0  0  0  0
 48 20  1  0  0  0  0
 49 22  1  0  0  0  0
 50 23  1  0  0  0  0
 51 28  1  0  0  0  0
 55 32  1  0  0  0  0
 57 32  1  0  0  0  0
M  END
>  <Pose>
1

>  <Score>
-7.00

$$$$
