
 OpenBabel03172210413D

 48 51  0  0  1  0  0  0  0  0999 V2000
   10.3230    6.8770   10.2750 Cl  0  0  0  0  0  0  0  0  0  0  0  0
   11.0310    5.4670   11.0560 C   0  0  0  0  0  0  0  0  0  0  0  0
   10.8990    5.3580   12.4200 C   0  0  0  0  0  0  0  0  0  0  0  0
   11.4680    4.2370   13.0030 C   0  0  0  0  0  0  0  0  0  0  0  0
   12.1050    3.3300   12.2420 N   0  0  0  0  0  0  0  0  0  0  0  0
   12.2380    3.4220   10.9290 N   0  0  0  0  0  0  0  0  0  0  0  0
   11.6980    4.4990   10.3310 C   0  0  0  0  0  0  0  0  0  0  0  0
   11.7850    4.6540    9.0800 O   0  0  0  0  0  0  0  0  0  0  0  0
   12.9300    2.4190   10.1720 C   0  0  0  0  0  0  0  0  0  0  0  0
   14.3080    2.4230   10.1070 C   0  0  0  0  0  0  0  0  0  0  0  0
   14.9950    1.4520    9.3740 C   0  0  0  0  0  0  0  0  0  0  0  0
   14.3050    0.4750    8.7020 C   0  0  0  0  0  0  0  0  0  0  0  0
   12.9340    0.4590    8.7560 C   0  0  0  0  0  0  0  0  0  0  0  0
   12.2740    1.4200    9.4830 C   0  0  0  0  0  0  0  0  0  0  0  0
   10.2150    6.3590   13.1420 N   0  0  0  0  0  0  0  0  0  0  0  0
   10.9050    7.5300   13.6710 C   0  0  0  0  0  0  0  0  0  0  0  0
   10.8530    7.3610   15.2020 C   0  0  0  0  0  0  0  0  0  0  0  0
    9.5080    7.1400   15.6330 N   0  0  0  0  0  0  0  0  0  0  0  0
    8.4520    7.2160   14.6010 C   0  0  0  0  0  0  0  0  0  0  0  0
    8.7910    6.3240   13.4240 C   0  0  0  0  0  0  0  0  0  0  0  0
    9.1490    6.8620   16.9770 C   0  0  0  0  0  0  0  0  0  0  0  0
    8.0890    6.2270   17.2600 O   0  0  0  0  0  0  0  0  0  0  0  0
    9.9680    7.2840   18.1270 C   0  0  1  0  0  0  0  0  0  0  0  0
   11.1590    6.6270   18.1490 O   0  0  0  0  0  0  0  0  0  0  0  0
   12.1140    7.4700   18.7030 C   0  0  0  0  0  0  0  0  0  0  0  0
   11.7690    8.7880   18.0240 C   0  0  0  0  0  0  0  0  0  0  0  0
   10.2570    8.7690   18.1100 C   0  0  0  0  0  0  0  0  0  0  0  0
   11.3700    4.1420   14.0780 H   0  0  0  0  0  0  0  0  0  0  0  0
   14.9140    3.1570   10.6090 H   0  0  0  0  0  0  0  0  0  0  0  0
   16.0770    1.4360    9.3100 H   0  0  0  0  0  0  0  0  0  0  0  0
   14.8110   -0.2890    8.1270 H   0  0  0  0  0  0  0  0  0  0  0  0
   12.3540   -0.2850    8.2480 H   0  0  0  0  0  0  0  0  0  0  0  0
   11.2020    1.4030    9.5210 H   0  0  0  0  0  0  0  0  0  0  0  0
   10.3330    8.4340   13.4080 H   0  0  0  0  0  0  0  0  0  0  0  0
   11.9570    7.5650   13.4020 H   0  0  0  0  0  0  0  0  0  0  0  0
   11.4440    6.4340   15.3810 H   0  0  0  0  0  0  0  0  0  0  0  0
   11.3610    8.2310   15.6650 H   0  0  0  0  0  0  0  0  0  0  0  0
    8.4720    8.2610   14.2380 H   0  0  0  0  0  0  0  0  0  0  0  0
    7.4840    6.9820   15.0400 H   0  0  0  0  0  0  0  0  0  0  0  0
    8.2150    6.6800   12.5390 H   0  0  0  0  0  0  0  0  0  0  0  0
    8.4330    5.2980   13.6400 H   0  0  0  0  0  0  0  0  0  0  0  0
    9.3390    7.1000   19.0290 H   0  0  0  0  0  0  0  0  0  0  0  0
   12.0290    7.5450   19.8020 H   0  0  0  0  0  0  0  0  0  0  0  0
   13.1340    7.1720   18.4290 H   0  0  0  0  0  0  0  0  0  0  0  0
   12.0540    8.7380   16.9660 H   0  0  0  0  0  0  0  0  0  0  0  0
   12.2040    9.6430   18.5730 H   0  0  0  0  0  0  0  0  0  0  0  0
    9.7840    9.2920   17.2570 H   0  0  0  0  0  0  0  0  0  0  0  0
    9.9990    9.2370   19.0810 H   0  0  0  0  0  0  0  0  0  0  0  0
  1  2  1  0  0  0  0
  2  3  2  0  0  0  0
  3  4  1  0  0  0  0
  3 15  1  0  0  0  0
  4 28  1  0  0  0  0
  5  4  2  0  0  0  0
  6  5  1  0  0  0  0
  7  6  1  0  0  0  0
  7  2  1  0  0  0  0
  8  7  2  0  0  0  0
  9  6  1  0  0  0  0
 10  9  1  0  0  0  0
 10 29  1  0  0  0  0
 11 10  2  0  0  0  0
 12 13  2  0  0  0  0
 12 11  1  0  0  0  0
 13 14  1  0  0  0  0
 14 33  1  0  0  0  0
 14  9  2  0  0  0  0
 15 20  1  0  0  0  0
 15 16  1  0  0  0  0
 16 17  1  0  0  0  0
 17 36  1  0  0  0  0
 17 18  1  0  0  0  0
 17 37  1  0  0  0  0
 18 21  1  0  0  0  0
 19 39  1  0  0  0  0
 19 18  1  0  0  0  0
 20 41  1  0  0  0  0
 20 19  1  0  0  0  0
 21 22  2  0  0  0  0
 21 23  1  0  0  0  0
 23 24  1  0  0  0  0
 23 42  1  1  0  0  0
 24 25  1  0  0  0  0
 25 43  1  0  0  0  0
 26 27  1  0  0  0  0
 26 46  1  0  0  0  0
 26 25  1  0  0  0  0
 27 23  1  0  0  0  0
 27 48  1  0  0  0  0
 30 11  1  0  0  0  0
 31 12  1  0  0  0  0
 32 13  1  0  0  0  0
 34 16  1  0  0  0  0
 35 16  1  0  0  0  0
 38 19  1  0  0  0  0
 40 20  1  0  0  0  0
 44 25  1  0  0  0  0
 45 26  1  0  0  0  0
 47 27  1  0  0  0  0
M  END
>  <Pose>
1

>  <Score>
-5.85

$$$$
