
 OpenBabel03172210413D

 50 53  0  0  0  0  0  0  0  0999 V2000
   12.4850    4.5280   10.8310 Cl  0  0  0  0  0  0  0  0  0  0  0  0
   11.8300    5.9560   11.6000 C   0  0  0  0  0  0  0  0  0  0  0  0
   12.6840    6.8030   12.2780 C   0  0  0  0  0  0  0  0  0  0  0  0
   12.1020    7.9120   12.8650 C   0  0  0  0  0  0  0  0  0  0  0  0
   10.7800    8.1510   12.7820 N   0  0  0  0  0  0  0  0  0  0  0  0
    9.9470    7.3510   12.1360 N   0  0  0  0  0  0  0  0  0  0  0  0
   10.4790    6.2620   11.5530 C   0  0  0  0  0  0  0  0  0  0  0  0
    9.7000    5.5010   10.9410 O   0  0  0  0  0  0  0  0  0  0  0  0
    8.5430    7.6140   12.0520 C   0  0  0  0  0  0  0  0  0  0  0  0
    8.0670    8.6860   11.3260 C   0  0  0  0  0  0  0  0  0  0  0  0
    6.7150    8.9480   11.2390 C   0  0  0  0  0  0  0  0  0  0  0  0
    5.7790    8.1550   11.8710 C   0  0  0  0  0  0  0  0  0  0  0  0
    6.2480    7.0810   12.5980 C   0  0  0  0  0  0  0  0  0  0  0  0
    7.5980    6.8250   12.6810 C   0  0  0  0  0  0  0  0  0  0  0  0
   14.0880    6.5590   12.3720 N   0  0  0  0  0  0  0  0  0  0  0  0
   14.9740    7.3420   11.5560 C   0  0  0  0  0  0  0  0  0  0  0  0
   16.1250    6.5110   11.0330 C   0  0  0  0  0  0  0  0  0  0  0  0
   16.5330    5.5000   11.9760 N   0  0  0  0  0  0  0  0  0  0  0  0
   16.0500    5.5830   13.3330 C   0  0  0  0  0  0  0  0  0  0  0  0
   14.5440    5.5320   13.2870 C   0  0  0  0  0  0  0  0  0  0  0  0
   17.3920    4.4480   11.5670 C   0  0  0  0  0  0  0  0  0  0  0  0
   18.4960    4.2250   12.1610 O   0  0  0  0  0  0  0  0  0  0  0  0
   17.0620    3.5470   10.4320 C   0  0  0  0  0  0  0  0  0  0  0  0
   15.8350    2.8970   10.6170 O   0  0  0  0  0  0  0  0  0  0  0  0
   15.3460    2.0300    9.6590 C   0  0  0  0  0  0  0  0  0  0  0  0
   15.9710    1.4540    8.6260 N   0  0  0  0  0  0  0  0  0  0  0  0
   15.1500    0.7060    7.9650 O   0  0  0  0  0  0  0  0  0  0  0  0
   13.9450    0.7270    8.4970 C   0  0  0  0  0  0  0  0  0  0  0  0
   14.0390    1.5680    9.5860 C   0  0  0  0  0  0  0  0  0  0  0  0
   12.8000   -0.0310    7.9600 C   0  0  0  0  0  0  0  0  0  0  0  0
   12.7730    8.5940   13.4080 H   0  0  0  0  0  0  0  0  0  0  0  0
    8.7780    9.3260   10.8200 H   0  0  0  0  0  0  0  0  0  0  0  0
    6.3410    9.7880   10.6710 H   0  0  0  0  0  0  0  0  0  0  0  0
    4.7160    8.3700   11.7950 H   0  0  0  0  0  0  0  0  0  0  0  0
    5.4920    6.4730   13.0850 H   0  0  0  0  0  0  0  0  0  0  0  0
    7.9210    5.9770   13.2590 H   0  0  0  0  0  0  0  0  0  0  0  0
   14.4560    7.7830   10.6840 H   0  0  0  0  0  0  0  0  0  0  0  0
   15.3300    8.1960   12.1860 H   0  0  0  0  0  0  0  0  0  0  0  0
   15.9040    6.1260   10.0360 H   0  0  0  0  0  0  0  0  0  0  0  0
   16.9970    7.2070   10.9150 H   0  0  0  0  0  0  0  0  0  0  0  0
   16.3140    6.6090   13.7100 H   0  0  0  0  0  0  0  0  0  0  0  0
   16.4880    4.8150   13.9930 H   0  0  0  0  0  0  0  0  0  0  0  0
   14.1790    4.5280   12.9730 H   0  0  0  0  0  0  0  0  0  0  0  0
   14.1750    5.7790   14.3250 H   0  0  0  0  0  0  0  0  0  0  0  0
   17.8770    2.8280   10.2220 H   0  0  0  0  0  0  0  0  0  0  0  0
   16.9540    4.1640    9.4920 H   0  0  0  0  0  0  0  0  0  0  0  0
   13.2180    1.8030   10.2440 H   0  0  0  0  0  0  0  0  0  0  0  0
   11.8390    0.2870    8.3980 H   0  0  0  0  0  0  0  0  0  0  0  0
   12.9130   -1.1380    8.1530 H   0  0  0  0  0  0  0  0  0  0  0  0
   12.7780    0.0890    6.8370 H   0  0  0  0  0  0  0  0  0  0  0  0
  1  2  1  0  0  0  0
  2  3  2  0  0  0  0
  3 15  1  0  0  0  0
  3  4  1  0  0  0  0
  4 31  1  0  0  0  0
  5  4  2  0  0  0  0
  6  5  1  0  0  0  0
  7  2  1  0  0  0  0
  7  6  1  0  0  0  0
  8  7  2  0  0  0  0
  9  6  1  0  0  0  0
  9 14  1  0  0  0  0
 10  9  2  0  0  0  0
 11 10  1  0  0  0  0
 11 12  2  0  0  0  0
 12 13  1  0  0  0  0
 13 14  2  0  0  0  0
 13 35  1  0  0  0  0
 14 36  1  0  0  0  0
 15 20  1  0  0  0  0
 16 38  1  0  0  0  0
 16 15  1  0  0  0  0
 17 16  1  0  0  0  0
 17 18  1  0  0  0  0
 18 19  1  0  0  0  0
 19 41  1  0  0  0  0
 19 42  1  0  0  0  0
 20 19  1  0  0  0  0
 20 44  1  0  0  0  0
 21 18  1  0  0  0  0
 21 22  2  0  0  0  0
 23 24  1  0  0  0  0
 23 21  1  0  0  0  0
 25 24  1  0  0  0  0
 26 25  2  0  0  0  0
 27 28  1  0  0  0  0
 27 26  1  0  0  0  0
 28 29  2  0  0  0  0
 29 25  1  0  0  0  0
 29 47  1  0  0  0  0
 30 49  1  0  0  0  0
 30 48  1  0  0  0  0
 30 28  1  0  0  0  0
 32 10  1  0  0  0  0
 33 11  1  0  0  0  0
 34 12  1  0  0  0  0
 37 16  1  0  0  0  0
 39 17  1  0  0  0  0
 40 17  1  0  0  0  0
 43 20  1  0  0  0  0
 45 23  1  0  0  0  0
 46 23  1  0  0  0  0
 50 30  1  0  0  0  0
M  END
>  <Pose>
1

>  <Score>
-6.33

$$$$
