
 OpenBabel03172210413D

 53 56  0  0  0  0  0  0  0  0999 V2000
   10.7230    1.1920    9.2390 Cl  0  0  0  0  0  0  0  0  0  0  0  0
   11.2210    2.4620   10.3520 C   0  0  0  0  0  0  0  0  0  0  0  0
   10.5080    3.6580   10.3110 C   0  0  0  0  0  0  0  0  0  0  0  0
   10.8850    4.6610   11.1760 C   0  0  0  0  0  0  0  0  0  0  0  0
   11.9440    4.4690   12.0530 C   0  0  0  0  0  0  0  0  0  0  0  0
   12.6510    3.2730   12.0870 C   0  0  0  0  0  0  0  0  0  0  0  0
   12.2710    2.2660   11.2170 C   0  0  0  0  0  0  0  0  0  0  0  0
   12.3830    5.4270   12.9510 O   0  0  0  0  0  0  0  0  0  0  0  0
   12.3240    6.8250   12.8740 C   0  0  0  0  0  0  0  0  0  0  0  0
   10.9650    7.4170   12.7770 C   0  0  0  0  0  0  0  0  0  0  0  0
    9.9330    6.5770   12.2610 N   0  0  0  0  0  0  0  0  0  0  0  0
   10.0120    5.8500   10.9880 C   0  0  0  0  0  0  0  0  0  0  0  0
    8.7340    6.4250   13.0100 C   0  0  0  0  0  0  0  0  0  0  0  0
    8.6760    5.4510   13.7950 O   0  0  0  0  0  0  0  0  0  0  0  0
    7.6150    7.3470   12.8900 C   0  0  0  0  0  0  0  0  0  0  0  0
    7.8510    8.7740   13.1690 C   0  0  0  0  0  0  0  0  0  0  0  0
    6.8220    9.7690   12.8250 C   0  0  0  0  0  0  0  0  0  0  0  0
    5.4700    9.3800   12.6750 N   0  0  0  0  0  0  0  0  0  0  0  0
    4.9620    8.5370   11.6570 C   0  0  0  0  0  0  0  0  0  0  0  0
    5.5910    7.9730   10.7130 O   0  0  0  0  0  0  0  0  0  0  0  0
    3.5670    8.4150   11.8730 N   0  0  0  0  0  0  0  0  0  0  0  0
    3.2620    8.8690   13.2270 C   0  0  0  0  0  0  0  0  0  0  0  0
    4.3970    9.7740   13.5080 C   0  0  0  0  0  0  0  0  0  0  0  0
    4.3820   10.7340   14.3590 O   0  0  0  0  0  0  0  0  0  0  0  0
   13.0230    7.3980   14.1210 C   0  0  0  0  0  0  0  0  0  0  0  0
   14.3590    6.7110   14.2120 C   0  0  0  0  0  0  0  0  0  0  0  0
   14.6200    5.9060   13.1170 O   0  0  0  0  0  0  0  0  0  0  0  0
   14.5600    6.5960   11.9200 C   0  0  0  0  0  0  0  0  0  0  0  0
   13.2280    7.2880   11.7210 C   0  0  0  0  0  0  0  0  0  0  0  0
    9.6950    3.7620    9.6160 H   0  0  0  0  0  0  0  0  0  0  0  0
   13.4570    3.1610   12.7700 H   0  0  0  0  0  0  0  0  0  0  0  0
   12.8080    1.3140   11.2220 H   0  0  0  0  0  0  0  0  0  0  0  0
   11.0380    8.2980   12.0710 H   0  0  0  0  0  0  0  0  0  0  0  0
   10.6720    7.8930   13.7560 H   0  0  0  0  0  0  0  0  0  0  0  0
    9.0380    5.6130   10.5660 H   0  0  0  0  0  0  0  0  0  0  0  0
   10.5300    6.4870   10.2210 H   0  0  0  0  0  0  0  0  0  0  0  0
    6.7200    7.0330   13.4850 H   0  0  0  0  0  0  0  0  0  0  0  0
    7.2420    7.2780   11.8230 H   0  0  0  0  0  0  0  0  0  0  0  0
    8.7840    9.0660   12.5790 H   0  0  0  0  0  0  0  0  0  0  0  0
    8.2270    8.9110   14.2380 H   0  0  0  0  0  0  0  0  0  0  0  0
    6.9270   10.6050   13.6010 H   0  0  0  0  0  0  0  0  0  0  0  0
    7.0890   10.3410   11.8730 H   0  0  0  0  0  0  0  0  0  0  0  0
    2.8480    8.0670   11.2080 H   0  0  0  0  0  0  0  0  0  0  0  0
    3.3120    8.0300   13.9440 H   0  0  0  0  0  0  0  0  0  0  0  0
    2.2930    9.4090   13.2610 H   0  0  0  0  0  0  0  0  0  0  0  0
   12.4040    7.2790   15.0130 H   0  0  0  0  0  0  0  0  0  0  0  0
   13.1750    8.4760   13.8980 H   0  0  0  0  0  0  0  0  0  0  0  0
   15.2010    7.4310   14.3550 H   0  0  0  0  0  0  0  0  0  0  0  0
   14.3430    6.0650   15.1140 H   0  0  0  0  0  0  0  0  0  0  0  0
   15.4130    7.2950   11.7700 H   0  0  0  0  0  0  0  0  0  0  0  0
   14.6610    5.8260   11.1020 H   0  0  0  0  0  0  0  0  0  0  0  0
   13.4120    8.3830   11.8680 H   0  0  0  0  0  0  0  0  0  0  0  0
   12.7880    7.0950   10.7430 H   0  0  0  0  0  0  0  0  0  0  0  0
  1  2  1  0  0  0  0
  2  7  1  0  0  0  0
  3  2  2  0  0  0  0
  3  4  1  0  0  0  0
  4  5  2  0  0  0  0
  5  6  1  0  0  0  0
  5  8  1  0  0  0  0
  6 31  1  0  0  0  0
  7 32  1  0  0  0  0
  7  6  2  0  0  0  0
  9  8  1  0  0  0  0
  9 25  1  0  0  0  0
 10  9  1  0  0  0  0
 10 34  1  0  0  0  0
 11 10  1  0  0  0  0
 11 13  1  0  0  0  0
 12  4  1  0  0  0  0
 12 11  1  0  0  0  0
 13 14  2  0  0  0  0
 15 13  1  0  0  0  0
 15 16  1  0  0  0  0
 15 37  1  0  0  0  0
 16 40  1  0  0  0  0
 17 16  1  0  0  0  0
 17 41  1  0  0  0  0
 18 17  1  0  0  0  0
 18 23  1  0  0  0  0
 19 21  1  0  0  0  0
 19 18  1  0  0  0  0
 20 19  2  0  0  0  0
 21 22  1  0  0  0  0
 22 45  1  0  0  0  0
 22 23  1  0  0  0  0
 22 44  1  0  0  0  0
 23 24  2  0  0  0  0
 25 26  1  0  0  0  0
 25 46  1  0  0  0  0
 26 48  1  0  0  0  0
 26 49  1  0  0  0  0
 27 26  1  0  0  0  0
 28 27  1  0  0  0  0
 29 52  1  0  0  0  0
 29 28  1  0  0  0  0
 29  9  1  0  0  0  0
 30  3  1  0  0  0  0
 33 10  1  0  0  0  0
 35 12  1  0  0  0  0
 36 12  1  0  0  0  0
 38 15  1  0  0  0  0
 39 16  1  0  0  0  0
 42 17  1  0  0  0  0
 43 21  1  0  0  0  0
 47 25  1  0  0  0  0
 50 28  1  0  0  0  0
 51 28  1  0  0  0  0
 53 29  1  0  0  0  0
M  END
>  <Pose>
1

>  <Score>
-6.51

$$$$
