
 OpenBabel03172210413D

 39 42  0  0  0  0  0  0  0  0999 V2000
    6.9070   10.3830   13.1900 B   0  0  0  0  0  0  0  0  0  0  0  0
    7.8020    8.7020   13.2670 C   0  0  0  0  0  0  0  0  0  0  0  0
    8.4830    8.2820   12.1570 C   0  0  0  0  0  0  0  0  0  0  0  0
    9.1240    7.0950   12.1900 N   0  0  0  0  0  0  0  0  0  0  0  0
    9.1000    6.3300   13.2920 C   0  0  0  0  0  0  0  0  0  0  0  0
    9.7480    5.1290   13.3250 N   0  0  0  0  0  0  0  0  0  0  0  0
   10.4290    4.6790   12.2560 C   0  0  0  0  0  0  0  0  0  0  0  0
   10.4410    5.4770   11.1390 C   0  0  0  0  0  0  0  0  0  0  0  0
    9.7970    6.6940   11.0730 C   0  0  0  0  0  0  0  0  0  0  0  0
    9.7940    7.4320   10.0760 O   0  0  0  0  0  0  0  0  0  0  0  0
   11.1320    3.3560   12.3500 C   0  0  0  0  0  0  0  0  0  0  0  0
   12.5000    3.4250   11.8780 N   0  0  0  0  0  0  0  0  0  0  0  0
   13.1160    2.7450   10.9000 C   0  0  0  0  0  0  0  0  0  0  0  0
   14.4530    3.1150   10.8040 C   0  0  0  0  0  0  0  0  0  0  0  0
   14.6280    4.0510   11.7670 N   0  0  0  0  0  0  0  0  0  0  0  0
   13.4700    4.2380   12.4060 C   0  0  0  0  0  0  0  0  0  0  0  0
   15.3090    2.5920    9.9020 N   0  0  0  0  0  0  0  0  0  0  0  0
   14.8020    1.6660    9.0670 C   0  0  0  0  0  0  0  0  0  0  0  0
   15.5880    1.1660    8.2160 O   0  0  0  0  0  0  0  0  0  0  0  0
   13.5200    1.2740    9.1160 N   0  0  0  0  0  0  0  0  0  0  0  0
   12.6620    1.7950   10.0180 C   0  0  0  0  0  0  0  0  0  0  0  0
   11.4670    1.4460   10.0780 O   0  0  0  0  0  0  0  0  0  0  0  0
   12.9770    0.2750    8.2130 C   0  0  0  0  0  0  0  0  0  0  0  0
   16.6940    3.0210    9.8560 C   0  0  0  0  0  0  0  0  0  0  0  0
    8.4130    6.7470   14.4210 C   0  0  0  0  0  0  0  0  0  0  0  0
    7.7500    7.9490   14.4180 C   0  0  0  0  0  0  0  0  0  0  0  0
    8.5210    8.8890   11.2370 H   0  0  0  0  0  0  0  0  0  0  0  0
   10.9850    5.1460   10.2670 H   0  0  0  0  0  0  0  0  0  0  0  0
   11.0690    2.9880   13.3880 H   0  0  0  0  0  0  0  0  0  0  0  0
   10.5800    2.6520   11.6980 H   0  0  0  0  0  0  0  0  0  0  0  0
   13.2700    4.9190   13.2280 H   0  0  0  0  0  0  0  0  0  0  0  0
   12.1060   -0.2440    8.6580 H   0  0  0  0  0  0  0  0  0  0  0  0
   12.7190    0.8030    7.2660 H   0  0  0  0  0  0  0  0  0  0  0  0
   13.7730   -0.4770    7.9650 H   0  0  0  0  0  0  0  0  0  0  0  0
   16.8540    3.7540    9.0370 H   0  0  0  0  0  0  0  0  0  0  0  0
   17.3250    2.1060    9.7290 H   0  0  0  0  0  0  0  0  0  0  0  0
   16.9870    3.4480   10.8420 H   0  0  0  0  0  0  0  0  0  0  0  0
    8.4120    6.1010   15.3010 H   0  0  0  0  0  0  0  0  0  0  0  0
    7.2040    8.2870   15.3080 H   0  0  0  0  0  0  0  0  0  0  0  0
  1  2  1  0  0  0  0
  2 26  2  0  0  0  0
  3  4  1  0  0  0  0
  3  2  1  0  0  0  0
  4  5  1  0  0  0  0
  5  6  1  0  0  0  0
  5 25  2  0  0  0  0
  7 11  1  0  0  0  0
  7  6  2  0  0  0  0
  8  7  1  0  0  0  0
  9  8  1  0  0  0  0
  9  4  1  0  0  0  0
 10  9  2  0  0  0  0
 11 29  1  0  0  0  0
 12 11  1  0  0  0  0
 12 16  1  0  0  0  0
 13 12  1  0  0  0  0
 14 13  2  0  0  0  0
 14 15  1  0  0  0  0
 15 16  2  0  0  0  0
 16 31  1  0  0  0  0
 17 14  1  0  0  0  0
 18 20  1  0  0  0  0
 18 17  1  0  0  0  0
 19 18  2  0  0  0  0
 20 21  1  0  0  0  0
 21 22  2  0  0  0  0
 21 13  1  0  0  0  0
 23 32  1  0  0  0  0
 23 20  1  0  0  0  0
 24 17  1  0  0  0  0
 24 37  1  0  0  0  0
 25 38  1  0  0  0  0
 26 25  1  0  0  0  0
 26 39  1  0  0  0  0
 27  3  1  0  0  0  0
 28  8  1  0  0  0  0
 30 11  1  0  0  0  0
 33 23  1  0  0  0  0
 34 23  1  0  0  0  0
 35 24  1  0  0  0  0
 36 24  1  0  0  0  0
M  END
>  <Pose>
1

>  <Score>
-6.59

$$$$
