
 OpenBabel03172210413D

 53 56  0  0  1  0  0  0  0  0999 V2000
   13.2760    2.3750   10.2270 S   0  0  0  0  0  0  0  0  0  0  0  0
   14.4130    2.5840    9.2440 O   0  0  0  0  0  0  0  0  0  0  0  0
   13.8790    1.6080   11.3850 O   0  0  0  0  0  0  0  0  0  0  0  0
   12.6510    3.8520   10.6460 N   0  0  0  0  0  0  0  0  0  0  0  0
   12.2570    4.1520   11.9460 C   0  0  0  0  0  0  0  0  0  0  0  0
   11.5330    5.5050   11.9480 C   0  0  0  0  0  0  0  0  0  0  0  0
   10.6650    5.5950   10.7730 N   0  0  0  0  0  0  0  0  0  0  0  0
   11.3140    5.4420    9.4860 C   0  0  0  0  0  0  0  0  0  0  0  0
   12.7400    4.9530    9.7790 C   0  0  0  0  0  0  0  0  0  0  0  0
    9.2650    5.8030   10.9280 C   0  0  0  0  0  0  0  0  0  0  0  0
    8.5060    5.2680   10.0870 O   0  0  0  0  0  0  0  0  0  0  0  0
    8.7460    6.6130   12.0290 C   0  0  0  0  0  0  0  0  0  0  0  0
    7.6290    7.5650   11.6280 C   0  0  2  0  0  0  0  0  0  0  0  0
    7.7700    8.8840   12.1860 N   0  0  0  0  0  0  0  0  0  0  0  0
    7.0320    9.5900   13.1730 C   0  0  0  0  0  0  0  0  0  0  0  0
    7.0820   10.8470   13.2200 O   0  0  0  0  0  0  0  0  0  0  0  0
    6.1590    9.0090   14.2160 C   0  0  0  0  0  0  0  0  0  0  0  0
    5.5040    7.7730   14.1690 C   0  0  0  0  0  0  0  0  0  0  0  0
    4.7360    7.3780   15.2270 C   0  0  0  0  0  0  0  0  0  0  0  0
    4.5710    8.1600   16.3720 C   0  0  0  0  0  0  0  0  0  0  0  0
    5.2370    9.3860   16.3900 C   0  0  0  0  0  0  0  0  0  0  0  0
    6.0150    9.7970   15.3290 C   0  0  0  0  0  0  0  0  0  0  0  0
    5.5540    6.8450   13.0960 N   0  0  0  0  0  0  0  0  0  0  0  0
    6.3230    6.9250   11.8920 C   0  0  0  0  0  0  0  0  0  0  0  0
    5.7500    6.3330   10.9090 O   0  0  0  0  0  0  0  0  0  0  0  0
   12.1180    1.3070    9.4260 C   0  0  0  0  0  0  0  0  0  0  0  0
   10.7690    1.3830    9.6840 C   0  0  0  0  0  0  0  0  0  0  0  0
    9.9060    0.5260    9.0380 C   0  0  0  0  0  0  0  0  0  0  0  0
   10.3240   -0.4250    8.1260 C   0  0  0  0  0  0  0  0  0  0  0  0
   11.6870   -0.4990    7.8660 C   0  0  0  0  0  0  0  0  0  0  0  0
   12.5450    0.3590    8.5150 C   0  0  0  0  0  0  0  0  0  0  0  0
    9.2450   -1.5060    7.3070 Cl  0  0  0  0  0  0  0  0  0  0  0  0
   13.1060    4.2500   12.6870 H   0  0  0  0  0  0  0  0  0  0  0  0
   11.5160    3.4510   12.4000 H   0  0  0  0  0  0  0  0  0  0  0  0
   12.2540    6.3360   11.8860 H   0  0  0  0  0  0  0  0  0  0  0  0
   10.9520    5.6470   12.8780 H   0  0  0  0  0  0  0  0  0  0  0  0
   10.8520    4.6180    8.8950 H   0  0  0  0  0  0  0  0  0  0  0  0
   11.3710    6.3830    8.9440 H   0  0  0  0  0  0  0  0  0  0  0  0
   13.2780    5.8310   10.2440 H   0  0  0  0  0  0  0  0  0  0  0  0
   13.2720    4.7430    8.8190 H   0  0  0  0  0  0  0  0  0  0  0  0
    8.2710    5.9430   12.8150 H   0  0  0  0  0  0  0  0  0  0  0  0
    9.5440    7.1580   12.5680 H   0  0  0  0  0  0  0  0  0  0  0  0
    7.7190    7.6730   10.5030 H   0  0  0  0  0  0  0  0  0  0  0  0
    8.5710    9.4860   11.8150 H   0  0  0  0  0  0  0  0  0  0  0  0
    4.2330    6.4320   15.1860 H   0  0  0  0  0  0  0  0  0  0  0  0
    3.9670    7.8400   17.1960 H   0  0  0  0  0  0  0  0  0  0  0  0
    5.1080    9.9850   17.2790 H   0  0  0  0  0  0  0  0  0  0  0  0
    6.5290   10.7420   15.3410 H   0  0  0  0  0  0  0  0  0  0  0  0
    4.9660    6.0210   13.2120 H   0  0  0  0  0  0  0  0  0  0  0  0
   10.3620    2.0930   10.3760 H   0  0  0  0  0  0  0  0  0  0  0  0
    8.8230    0.5830    9.2390 H   0  0  0  0  0  0  0  0  0  0  0  0
   12.0250   -1.2370    7.1600 H   0  0  0  0  0  0  0  0  0  0  0  0
   13.5930    0.2710    8.2900 H   0  0  0  0  0  0  0  0  0  0  0  0
  1  4  1  0  0  0  0
  1  3  2  0  0  0  0
  2  1  2  0  0  0  0
  4  5  1  0  0  0  0
  5  6  1  0  0  0  0
  5 34  1  0  0  0  0
  5 33  1  0  0  0  0
  6 36  1  0  0  0  0
  7 10  1  0  0  0  0
  7  6  1  0  0  0  0
  8  9  1  0  0  0  0
  8  7  1  0  0  0  0
  9 39  1  0  0  0  0
  9  4  1  0  0  0  0
 10 12  1  0  0  0  0
 11 10  2  0  0  0  0
 12 42  1  0  0  0  0
 12 41  1  0  0  0  0
 13 43  1  6  0  0  0
 13 24  1  0  0  0  0
 13 12  1  0  0  0  0
 13 14  1  0  0  0  0
 14 15  1  0  0  0  0
 15 16  2  0  0  0  0
 15 17  1  0  0  0  0
 17 22  1  0  0  0  0
 18 17  2  0  0  0  0
 18 19  1  0  0  0  0
 19 20  2  0  0  0  0
 20 21  1  0  0  0  0
 20 46  1  0  0  0  0
 21 47  1  0  0  0  0
 22 48  1  0  0  0  0
 22 21  2  0  0  0  0
 23 49  1  0  0  0  0
 23 18  1  0  0  0  0
 24 23  1  0  0  0  0
 25 24  2  0  0  0  0
 26 27  1  0  0  0  0
 26  1  1  0  0  0  0
 27 50  1  0  0  0  0
 28 51  1  0  0  0  0
 28 27  2  0  0  0  0
 29 28  1  0  0  0  0
 30 29  2  0  0  0  0
 30 31  1  0  0  0  0
 31 26  2  0  0  0  0
 32 29  1  0  0  0  0
 35  6  1  0  0  0  0
 37  8  1  0  0  0  0
 38  8  1  0  0  0  0
 40  9  1  0  0  0  0
 44 14  1  0  0  0  0
 45 19  1  0  0  0  0
 52 30  1  0  0  0  0
 53 31  1  0  0  0  0
M  END
>  <Pose>
1

>  <Score>
-7.82

$$$$
