
 OpenBabel03172210413D

 58 62  0  0  1  0  0  0  0  0999 V2000
   10.7210   -1.1640    7.8250 B   0  0  0  0  0  0  0  0  0  0  0  0
   11.2550    0.4320    8.7630 C   0  0  0  0  0  0  0  0  0  0  0  0
   12.5580    0.8180    8.8300 C   0  0  0  0  0  0  0  0  0  0  0  0
   12.9310    1.9500    9.4960 C   0  0  0  0  0  0  0  0  0  0  0  0
   12.0140    2.7610   10.1350 C   0  0  0  0  0  0  0  0  0  0  0  0
   10.7170    2.3780   10.0690 C   0  0  0  0  0  0  0  0  0  0  0  0
   10.3140    1.2070    9.3820 C   0  0  0  0  0  0  0  0  0  0  0  0
   12.4930    3.9370   10.8270 C   0  0  0  0  0  0  0  0  0  0  0  0
   13.7040    3.9610   11.5380 C   0  0  0  0  0  0  0  0  0  0  0  0
   13.8350    5.1880   12.0270 N   0  0  0  0  0  0  0  0  0  0  0  0
   14.7190    5.9150   12.7760 C   0  0  0  0  0  0  0  0  0  0  0  0
   14.1670    7.1680   12.8710 C   0  0  0  0  0  0  0  0  0  0  0  0
   13.0230    7.1470   12.2050 N   0  0  0  0  0  0  0  0  0  0  0  0
   12.8010    5.9120   11.6710 C   0  0  1  0  0  0  0  0  0  0  0  0
   11.9470    5.1540   10.9210 N   0  0  0  0  0  0  0  0  0  0  0  0
   10.7390    5.7040   10.3870 C   0  0  0  0  0  0  0  0  0  0  0  0
    9.4690    5.2970   11.0180 C   0  0  0  0  0  0  0  0  0  0  0  0
    8.4400    6.3340   11.2930 C   0  0  0  0  0  0  0  0  0  0  0  0
    7.0980    5.8290   11.1040 N   0  0  0  0  0  4  0  0  0  0  0  0
    6.1060    6.5800   11.8150 C   0  0  0  0  0  0  0  0  0  0  0  0
    6.5870    7.2340   13.0790 C   0  0  0  0  0  0  0  0  0  0  0  0
    5.3290    7.5420   13.9050 C   0  0  0  0  0  0  0  0  0  0  0  0
    4.4830    8.4990   13.1400 C   0  0  0  0  0  0  0  0  0  0  0  0
    4.1750    8.0500   11.7300 C   0  0  0  0  0  0  0  0  0  0  0  0
    5.4660    7.6880   10.9870 C   0  0  0  0  0  0  0  0  0  0  0  0
   14.8050    8.1930   13.5750 C   0  0  0  0  0  0  0  0  0  0  0  0
   16.0140    7.9480   14.1910 C   0  0  0  0  0  0  0  0  0  0  0  0
   16.5460    6.6840   14.0810 C   0  0  0  0  0  0  0  0  0  0  0  0
   15.9180    5.6590   13.3820 C   0  0  0  0  0  0  0  0  0  0  0  0
   13.3270    0.2030    8.3360 H   0  0  0  0  0  0  0  0  0  0  0  0
   14.0090    2.2090    9.5100 H   0  0  0  0  0  0  0  0  0  0  0  0
    9.9050    2.8860   10.5070 H   0  0  0  0  0  0  0  0  0  0  0  0
    9.2810    0.9100    9.3350 H   0  0  0  0  0  0  0  0  0  0  0  0
   14.4020    3.1380   11.6670 H   0  0  0  0  0  0  0  0  0  0  0  0
   12.4100    7.9790   12.1120 H   0  0  0  0  0  0  0  0  0  0  0  0
   10.7000    5.6530    9.3020 H   0  0  0  0  0  0  0  0  0  0  0  0
   10.7950    6.8490   10.6020 H   0  0  0  0  0  0  0  0  0  0  0  0
    8.9770    4.5940   10.2640 H   0  0  0  0  0  0  0  0  0  0  0  0
    9.5920    4.6000   11.9030 H   0  0  0  0  0  0  0  0  0  0  0  0
    8.5380    7.2400   10.6600 H   0  0  0  0  0  0  0  0  0  0  0  0
    8.5230    6.5820   12.3890 H   0  0  0  0  0  0  0  0  0  0  0  0
    6.8190    5.6280   10.1470 H   0  0  0  0  0  0  0  0  0  0  0  0
    7.0960    4.8530   11.5780 H   0  0  0  0  0  0  0  0  0  0  0  0
    5.2330    5.9230   12.1100 H   0  0  0  0  0  0  0  0  0  0  0  0
    7.2990    6.6430   13.6530 H   0  0  0  0  0  0  0  0  0  0  0  0
    7.0090    8.2470   12.8200 H   0  0  0  0  0  0  0  0  0  0  0  0
    4.7870    6.5810   14.1020 H   0  0  0  0  0  0  0  0  0  0  0  0
    5.6290    8.0260   14.8500 H   0  0  0  0  0  0  0  0  0  0  0  0
    3.5110    8.5980   13.6650 H   0  0  0  0  0  0  0  0  0  0  0  0
    4.9750    9.4880   13.1250 H   0  0  0  0  0  0  0  0  0  0  0  0
    3.7020    8.9000   11.2120 H   0  0  0  0  0  0  0  0  0  0  0  0
    3.5340    7.1680   11.7780 H   0  0  0  0  0  0  0  0  0  0  0  0
    6.1290    8.5890   10.9740 H   0  0  0  0  0  0  0  0  0  0  0  0
    5.2080    7.2930   10.0060 H   0  0  0  0  0  0  0  0  0  0  0  0
   14.3810    9.1780   13.6550 H   0  0  0  0  0  0  0  0  0  0  0  0
   16.5450    8.7290   14.7530 H   0  0  0  0  0  0  0  0  0  0  0  0
   17.4870    6.4930   14.5610 H   0  0  0  0  0  0  0  0  0  0  0  0
   16.3340    4.6760   13.2980 H   0  0  0  0  0  0  0  0  0  0  0  0
  1  2  1  0  0  0  0
  2  3  2  0  0  0  0
  2  7  1  0  0  0  0
  3  4  1  0  0  0  0
  4 31  1  0  0  0  0
  4  5  2  0  0  0  0
  5  8  1  0  0  0  0
  6  5  1  0  0  0  0
  6 32  1  0  0  0  0
  7  6  2  0  0  0  0
  8 15  1  0  0  0  0
  8  9  2  0  0  0  0
  9 34  1  0  0  0  0
  9 10  1  0  0  0  0
 10 11  1  0  0  0  0
 11 12  2  0  0  0  0
 11 29  1  0  0  0  0
 12 26  1  0  0  0  0
 13 12  1  0  0  0  0
 14 15  1  6  0  0  0
 14 10  1  0  0  0  0
 14 13  1  0  0  0  0
 16 37  1  0  0  0  0
 16 15  1  0  0  0  0
 16 17  1  0  0  0  0
 17 18  1  0  0  0  0
 17 39  1  0  0  0  0
 18 41  1  0  0  0  0
 19 18  1  0  0  0  0
 19 43  1  0  0  0  0
 19 20  1  0  0  0  0
 20 44  1  0  0  0  0
 20 21  1  0  0  0  0
 21 45  1  0  0  0  0
 21 22  1  0  0  0  0
 22 47  1  0  0  0  0
 22 48  1  0  0  0  0
 23 49  1  0  0  0  0
 23 22  1  0  0  0  0
 24 52  1  0  0  0  0
 24 23  1  0  0  0  0
 25 24  1  0  0  0  0
 25 20  1  0  0  0  0
 26 55  1  0  0  0  0
 26 27  2  0  0  0  0
 27 56  1  0  0  0  0
 28 27  1  0  0  0  0
 28 57  1  0  0  0  0
 29 28  2  0  0  0  0
 30  3  1  0  0  0  0
 33  7  1  0  0  0  0
 35 13  1  0  0  0  0
 36 16  1  0  0  0  0
 38 17  1  0  0  0  0
 40 18  1  0  0  0  0
 42 19  1  0  0  0  0
 46 21  1  0  0  0  0
 50 23  1  0  0  0  0
 51 24  1  0  0  0  0
 53 25  1  0  0  0  0
 54 25  1  0  0  0  0
 58 29  1  0  0  0  0
M  END
>  <Pose>
1

>  <Score>
-6.71

$$$$
