
 OpenBabel03172210413D

 49 52  0  0  1  0  0  0  0  0999 V2000
    4.8220   10.5240   14.2970 B   0  0  0  0  0  0  0  0  0  0  0  0
    5.8990    9.2800   13.3410 C   0  0  0  0  0  0  0  0  0  0  0  0
    5.3540    8.1290   12.8180 C   0  0  0  0  0  0  0  0  0  0  0  0
    6.1110    7.2280   12.1300 C   0  0  0  0  0  0  0  0  0  0  0  0
    5.8710    6.0370   11.5130 N   0  0  0  0  0  0  0  0  0  0  0  0
    6.9960    5.5770   10.9870 N   0  0  0  0  0  0  0  0  0  0  0  0
    8.0060    6.4230   11.2280 C   0  0  0  0  0  0  0  0  0  0  0  0
    7.4510    7.4710   11.9530 C   0  0  0  0  0  0  0  0  0  0  0  0
    8.0270    8.6250   12.4690 C   0  0  0  0  0  0  0  0  0  0  0  0
    7.2610    9.5340   13.1630 C   0  0  0  0  0  0  0  0  0  0  0  0
    9.3740    6.3510   10.8610 N   0  0  0  0  0  0  0  0  0  0  0  0
   10.4980    7.0340   11.4980 C   0  0  0  0  0  0  0  0  0  0  0  0
   11.5910    5.9900   11.4660 C   0  0  2  0  0  0  0  0  0  0  0  0
   11.4390    5.4080   10.0650 C   0  0  0  0  0  0  0  0  0  0  0  0
    9.9720    5.6090    9.7940 C   0  0  0  0  0  0  0  0  0  0  0  0
    9.3480    5.1860    8.7750 O   0  0  0  0  0  0  0  0  0  0  0  0
   11.3790    4.9350   12.4860 C   0  0  0  0  0  0  0  0  0  0  0  0
   10.2740    4.9020   13.0830 O   0  0  0  0  0  0  0  0  0  0  0  0
   12.3670    3.9760   12.8080 N   0  0  0  0  0  0  0  0  0  0  0  0
   12.4250    2.6760   12.1910 C   0  0  0  0  0  0  0  0  0  0  0  0
   13.0390    2.7980   10.8120 C   0  0  0  0  0  0  0  0  0  0  0  0
   14.1820    1.9380   10.6280 N   0  0  0  0  0  0  0  0  0  0  0  0
   13.8220    0.9440    9.6230 C   0  0  0  0  0  0  0  0  0  0  0  0
   14.0410    1.5060    8.2200 C   0  0  0  0  0  0  0  0  0  0  0  0
   15.3700    1.7090    7.9320 O   0  0  0  0  0  0  0  0  0  0  0  0
   16.0800    1.8360    9.1030 C   0  0  0  0  0  0  0  0  0  0  0  0
   15.3370    2.6560   10.1380 C   0  0  0  0  0  0  0  0  0  0  0  0
    4.3000    7.9220   12.9480 H   0  0  0  0  0  0  0  0  0  0  0  0
    4.9020    5.6320   11.5120 H   0  0  0  0  0  0  0  0  0  0  0  0
    9.1030    8.8050   12.3190 H   0  0  0  0  0  0  0  0  0  0  0  0
    7.7310   10.4360   13.5630 H   0  0  0  0  0  0  0  0  0  0  0  0
   10.2650    7.4040   12.5030 H   0  0  0  0  0  0  0  0  0  0  0  0
   10.8270    7.8880   10.8730 H   0  0  0  0  0  0  0  0  0  0  0  0
   12.5860    6.4600   11.5320 H   0  0  0  0  0  0  0  0  0  0  0  0
   11.5670    4.3090   10.1460 H   0  0  0  0  0  0  0  0  0  0  0  0
   12.0750    5.8930    9.3290 H   0  0  0  0  0  0  0  0  0  0  0  0
   13.0790    4.2470   13.5330 H   0  0  0  0  0  0  0  0  0  0  0  0
   11.3560    2.3700   12.0130 H   0  0  0  0  0  0  0  0  0  0  0  0
   12.8910    1.9030   12.7980 H   0  0  0  0  0  0  0  0  0  0  0  0
   13.4110    3.8480   10.6810 H   0  0  0  0  0  0  0  0  0  0  0  0
   12.2910    2.6320   10.0130 H   0  0  0  0  0  0  0  0  0  0  0  0
   14.3720    0.0100    9.7090 H   0  0  0  0  0  0  0  0  0  0  0  0
   12.7300    0.7610    9.7310 H   0  0  0  0  0  0  0  0  0  0  0  0
   13.6180    0.7250    7.5260 H   0  0  0  0  0  0  0  0  0  0  0  0
   13.4940    2.4580    8.0700 H   0  0  0  0  0  0  0  0  0  0  0  0
   16.3680    0.8680    9.5550 H   0  0  0  0  0  0  0  0  0  0  0  0
   17.0270    2.3720    8.8490 H   0  0  0  0  0  0  0  0  0  0  0  0
   16.0780    2.8550   10.9530 H   0  0  0  0  0  0  0  0  0  0  0  0
   15.0680    3.6480    9.7070 H   0  0  0  0  0  0  0  0  0  0  0  0
  2  1  1  0  0  0  0
  3 28  1  0  0  0  0
  3  2  2  0  0  0  0
  4  3  1  0  0  0  0
  5  4  1  0  0  0  0
  6  7  2  0  0  0  0
  6  5  1  0  0  0  0
  7  8  1  0  0  0  0
  8  4  2  0  0  0  0
  8  9  1  0  0  0  0
  9 10  2  0  0  0  0
 10  2  1  0  0  0  0
 10 31  1  0  0  0  0
 11  7  1  0  0  0  0
 11 12  1  0  0  0  0
 12 32  1  0  0  0  0
 13 12  1  0  0  0  0
 13 34  1  1  0  0  0
 13 17  1  0  0  0  0
 14 35  1  0  0  0  0
 14 13  1  0  0  0  0
 15 14  1  0  0  0  0
 15 11  1  0  0  0  0
 16 15  2  0  0  0  0
 17 19  1  0  0  0  0
 17 18  2  0  0  0  0
 19 37  1  0  0  0  0
 20 39  1  0  0  0  0
 20 19  1  0  0  0  0
 21 20  1  0  0  0  0
 22 21  1  0  0  0  0
 23 42  1  0  0  0  0
 23 43  1  0  0  0  0
 23 22  1  0  0  0  0
 24 23  1  0  0  0  0
 25 24  1  0  0  0  0
 25 26  1  0  0  0  0
 26 46  1  0  0  0  0
 26 27  1  0  0  0  0
 27 22  1  0  0  0  0
 27 48  1  0  0  0  0
 29  5  1  0  0  0  0
 30  9  1  0  0  0  0
 33 12  1  0  0  0  0
 36 14  1  0  0  0  0
 38 20  1  0  0  0  0
 40 21  1  0  0  0  0
 41 21  1  0  0  0  0
 44 24  1  0  0  0  0
 45 24  1  0  0  0  0
 47 26  1  0  0  0  0
 49 27  1  0  0  0  0
M  END
>  <Pose>
1

>  <Score>
-7.52

$$$$
