
 OpenBabel03172210413D

 55 59  0  0  1  0  0  0  0  0999 V2000
    9.7060   -1.1480    7.8290 B   0  0  0  0  0  0  0  0  0  0  0  0
   11.0000   -0.0280    8.6470 C   0  0  0  0  0  0  0  0  0  0  0  0
   10.6510    1.1230    9.2890 C   0  0  0  0  0  0  0  0  0  0  0  0
   11.6200    1.9150    9.8730 C   0  0  0  0  0  0  0  0  0  0  0  0
   12.9810    1.6120    9.8550 C   0  0  0  0  0  0  0  0  0  0  0  0
   13.3170    0.4610    9.2130 C   0  0  0  0  0  0  0  0  0  0  0  0
   12.3280   -0.3540    8.6110 C   0  0  0  0  0  0  0  0  0  0  0  0
   13.9100    2.5440   10.5040 C   0  0  0  0  0  0  0  0  0  0  0  0
   15.3000    2.4590   10.3080 C   0  0  0  0  0  0  0  0  0  0  0  0
   15.8950    3.4330   10.9920 N   0  0  0  0  0  0  0  0  0  0  0  0
   17.1130    3.9650   11.2730 C   0  0  0  0  0  0  0  0  0  0  0  0
   16.8970    5.0220   12.0900 C   0  0  0  0  0  0  0  0  0  0  0  0
   15.5730    5.1070   12.2840 N   0  0  0  0  0  0  0  0  0  0  0  0
   14.9360    4.1250   11.6090 C   0  0  1  0  0  0  0  0  0  0  0  0
   13.7050    3.5890   11.3180 N   0  0  0  0  0  0  0  0  0  0  0  0
   12.4740    4.1160   11.8050 C   0  0  0  0  0  0  0  0  0  0  0  0
   12.1460    5.5200   11.3640 C   0  0  0  0  0  0  0  0  0  0  0  0
   11.9440    6.5180   12.4150 C   0  0  0  0  0  0  0  0  0  0  0  0
   11.1860    6.1760   13.5830 N   0  0  0  0  0  4  0  0  0  0  0  0
   11.2480    7.2040   14.6060 C   0  0  0  0  0  0  0  0  0  0  0  0
   10.2410    8.2710   14.5200 C   0  0  0  0  0  0  0  0  0  0  0  0
    9.1150    8.0540   13.5790 C   0  0  0  0  0  0  0  0  0  0  0  0
    8.7500    6.6140   13.4980 C   0  0  0  0  0  0  0  0  0  0  0  0
    9.8830    5.6720   13.3330 C   0  0  0  0  0  0  0  0  0  0  0  0
   17.9570    5.7790   12.5570 C   0  0  0  0  0  0  0  0  0  0  0  0
   19.2590    5.4720   12.1960 C   0  0  0  0  0  0  0  0  0  0  0  0
   19.4800    4.3870   11.3590 C   0  0  0  0  0  0  0  0  0  0  0  0
   18.4020    3.6550   10.9140 C   0  0  0  0  0  0  0  0  0  0  0  0
    9.6050    1.3890    9.3230 H   0  0  0  0  0  0  0  0  0  0  0  0
   11.2800    2.8180   10.3730 H   0  0  0  0  0  0  0  0  0  0  0  0
   14.3180    0.1420    9.1360 H   0  0  0  0  0  0  0  0  0  0  0  0
   12.6410   -1.2550    8.1140 H   0  0  0  0  0  0  0  0  0  0  0  0
   15.8570    1.7500    9.7190 H   0  0  0  0  0  0  0  0  0  0  0  0
   15.0880    5.8370   12.8680 H   0  0  0  0  0  0  0  0  0  0  0  0
   12.3180    3.9700   12.8830 H   0  0  0  0  0  0  0  0  0  0  0  0
   11.6730    3.4080   11.3710 H   0  0  0  0  0  0  0  0  0  0  0  0
   11.1450    5.4260   10.8260 H   0  0  0  0  0  0  0  0  0  0  0  0
   12.8080    5.8510   10.5250 H   0  0  0  0  0  0  0  0  0  0  0  0
   11.3920    7.3890   11.9470 H   0  0  0  0  0  0  0  0  0  0  0  0
   12.9340    6.9890   12.6950 H   0  0  0  0  0  0  0  0  0  0  0  0
   11.7260    5.3990   14.0250 H   0  0  0  0  0  0  0  0  0  0  0  0
   11.2380    6.7880   15.6370 H   0  0  0  0  0  0  0  0  0  0  0  0
   12.2890    7.6410   14.5050 H   0  0  0  0  0  0  0  0  0  0  0  0
   10.7350    9.2440   14.2220 H   0  0  0  0  0  0  0  0  0  0  0  0
    9.7990    8.5170   15.5320 H   0  0  0  0  0  0  0  0  0  0  0  0
    8.2310    8.6280   13.9270 H   0  0  0  0  0  0  0  0  0  0  0  0
    9.3470    8.4980   12.5640 H   0  0  0  0  0  0  0  0  0  0  0  0
    8.0220    6.4980   12.6520 H   0  0  0  0  0  0  0  0  0  0  0  0
    8.1440    6.3670   14.4140 H   0  0  0  0  0  0  0  0  0  0  0  0
    9.8810    5.2860   12.2720 H   0  0  0  0  0  0  0  0  0  0  0  0
    9.6440    4.7580   13.9430 H   0  0  0  0  0  0  0  0  0  0  0  0
   17.7880    6.6230   13.2090 H   0  0  0  0  0  0  0  0  0  0  0  0
   20.1080    6.0470   12.5470 H   0  0  0  0  0  0  0  0  0  0  0  0
   20.5020    4.1710   11.0960 H   0  0  0  0  0  0  0  0  0  0  0  0
   18.5800    2.8250   10.2710 H   0  0  0  0  0  0  0  0  0  0  0  0
  1  2  1  0  0  0  0
  2  3  1  0  0  0  0
  3 29  1  0  0  0  0
  3  4  2  0  0  0  0
  4 30  1  0  0  0  0
  5  4  1  0  0  0  0
  5  8  1  0  0  0  0
  6  5  2  0  0  0  0
  7  2  2  0  0  0  0
  7  6  1  0  0  0  0
  8 15  1  0  0  0  0
  9  8  2  0  0  0  0
  9 10  1  0  0  0  0
 10 11  1  0  0  0  0
 11 12  1  0  0  0  0
 12 13  1  0  0  0  0
 12 25  2  0  0  0  0
 13 34  1  0  0  0  0
 14 10  1  6  0  0  0
 14 13  1  0  0  0  0
 15 14  1  0  0  0  0
 15 16  1  0  0  0  0
 16 35  1  0  0  0  0
 17 16  1  0  0  0  0
 17 18  1  0  0  0  0
 18 40  1  0  0  0  0
 18 19  1  0  0  0  0
 19 41  1  0  0  0  0
 19 20  1  0  0  0  0
 20 42  1  0  0  0  0
 21 20  1  0  0  0  0
 21 45  1  0  0  0  0
 22 46  1  0  0  0  0
 22 21  1  0  0  0  0
 23 22  1  0  0  0  0
 23 49  1  0  0  0  0
 24 23  1  0  0  0  0
 24 19  1  0  0  0  0
 24 51  1  0  0  0  0
 25 52  1  0  0  0  0
 26 53  1  0  0  0  0
 26 25  1  0  0  0  0
 27 26  2  0  0  0  0
 28 11  2  0  0  0  0
 28 27  1  0  0  0  0
 31  6  1  0  0  0  0
 32  7  1  0  0  0  0
 33  9  1  0  0  0  0
 36 16  1  0  0  0  0
 37 17  1  0  0  0  0
 38 17  1  0  0  0  0
 39 18  1  0  0  0  0
 43 20  1  0  0  0  0
 44 21  1  0  0  0  0
 47 22  1  0  0  0  0
 48 23  1  0  0  0  0
 50 24  1  0  0  0  0
 54 27  1  0  0  0  0
 55 28  1  0  0  0  0
M  END
>  <Pose>
1

>  <Score>
-6.56

$$$$
