
 OpenBabel03172210413D

 52 55  0  0  1  0  0  0  0  0999 V2000
   13.9960   10.2370   15.1600 Cl  0  0  0  0  0  0  0  0  0  0  0  0
   12.4640    9.3880   15.3470 C   0  0  0  0  0  0  0  0  0  0  0  0
   11.8870    8.8440   14.1900 C   0  0  0  0  0  0  0  0  0  0  0  0
   10.6980    8.1850   14.3400 C   0  0  0  0  0  0  0  0  0  0  0  0
   10.0800    8.0600   15.6020 C   0  0  0  0  0  0  0  0  0  0  0  0
   10.6530    8.5970   16.7270 C   0  0  0  0  0  0  0  0  0  0  0  0
   11.8520    9.2590   16.5700 C   0  0  0  0  0  0  0  0  0  0  0  0
   10.2870    7.6920   13.0190 C   0  0  2  0  0  0  0  0  0  0  0  0
    8.9680    8.0500   12.6370 N   0  0  0  0  0  0  0  0  0  0  0  0
    8.4030    7.1030   11.7800 C   0  0  1  0  0  0  0  0  0  0  0  0
    9.2540    5.8630   11.9520 C   0  0  2  0  0  0  0  0  0  0  0  0
   10.2820    6.1640   12.9930 C   0  0  1  0  0  0  0  0  0  0  0  0
   11.5760    5.6060   12.5220 C   0  0  0  0  0  0  0  0  0  0  0  0
   12.6250    5.5950   13.2070 O   0  0  0  0  0  0  0  0  0  0  0  0
   11.3840    5.1130   11.1950 N   0  0  0  0  0  0  0  0  0  0  0  0
   10.0920    5.5690   10.7690 C   0  0  0  0  0  0  0  0  0  0  0  0
    9.7490    5.6910    9.5820 O   0  0  0  0  0  0  0  0  0  0  0  0
   12.2760    4.3120   10.4140 C   0  0  0  0  0  0  0  0  0  0  0  0
   11.6840    3.1060    9.7780 C   0  0  0  0  0  0  0  0  0  0  0  0
   12.4980    1.8620    9.8220 C   0  0  0  0  0  0  0  0  0  0  0  0
   11.6930    0.6420    9.3880 C   0  0  0  0  0  0  0  0  0  0  0  0
    6.9510    6.8310   11.8550 C   0  0  0  0  0  0  0  0  0  0  0  0
    6.0210    7.9770   11.8320 C   0  0  0  0  0  0  0  0  0  0  0  0
    4.9590    7.9690   10.8210 C   0  0  0  0  0  0  0  0  0  0  0  0
    5.2110    8.2510    9.6350 O   0  0  0  0  0  0  0  0  0  0  0  0
    3.6050    7.6430   11.1240 N   0  0  0  0  0  0  0  0  0  0  0  0
   11.3210    8.1570   12.0900 C   0  0  0  0  0  0  0  0  0  0  0  0
   11.3900    8.0040   10.8310 O   0  0  0  0  0  0  0  0  0  0  0  0
   12.3070    8.8510   12.8310 N   0  0  0  0  0  0  0  0  0  0  0  0
    9.1340    7.5300   15.6820 H   0  0  0  0  0  0  0  0  0  0  0  0
   10.2070    8.5190   17.7090 H   0  0  0  0  0  0  0  0  0  0  0  0
   12.3220    9.6890   17.4430 H   0  0  0  0  0  0  0  0  0  0  0  0
    8.8120    9.0490   12.4230 H   0  0  0  0  0  0  0  0  0  0  0  0
    8.6050    7.4500   10.7200 H   0  0  0  0  0  0  0  0  0  0  0  0
    8.6570    4.9610   12.1640 H   0  0  0  0  0  0  0  0  0  0  0  0
   10.0730    5.7450   13.9770 H   0  0  0  0  0  0  0  0  0  0  0  0
   13.0920    3.9350   11.1000 H   0  0  0  0  0  0  0  0  0  0  0  0
   12.8280    4.9200    9.6560 H   0  0  0  0  0  0  0  0  0  0  0  0
   10.7270    2.8750   10.3350 H   0  0  0  0  0  0  0  0  0  0  0  0
   11.3230    3.3450    8.7460 H   0  0  0  0  0  0  0  0  0  0  0  0
   12.9420    1.5980   10.7830 H   0  0  0  0  0  0  0  0  0  0  0  0
   13.3440    2.0060    9.0920 H   0  0  0  0  0  0  0  0  0  0  0  0
   10.6440    0.6850    9.7440 H   0  0  0  0  0  0  0  0  0  0  0  0
   12.1540   -0.2990    9.7650 H   0  0  0  0  0  0  0  0  0  0  0  0
   11.6400    0.5710    8.2830 H   0  0  0  0  0  0  0  0  0  0  0  0
    6.7170    6.0530   11.0800 H   0  0  0  0  0  0  0  0  0  0  0  0
    6.7620    6.2750   12.8230 H   0  0  0  0  0  0  0  0  0  0  0  0
    5.4820    8.0860   12.8270 H   0  0  0  0  0  0  0  0  0  0  0  0
    6.5420    8.9610   11.7300 H   0  0  0  0  0  0  0  0  0  0  0  0
    2.7920    8.1340   10.7100 H   0  0  0  0  0  0  0  0  0  0  0  0
    3.4180    6.8770   11.7920 H   0  0  0  0  0  0  0  0  0  0  0  0
   13.1900    9.2980   12.4900 H   0  0  0  0  0  0  0  0  0  0  0  0
  1  2  1  0  0  0  0
  2  7  1  0  0  0  0
  3  4  1  0  0  0  0
  3  2  2  0  0  0  0
  4  5  2  0  0  0  0
  5 30  1  0  0  0  0
  5  6  1  0  0  0  0
  6 31  1  0  0  0  0
  7  6  2  0  0  0  0
  7 32  1  0  0  0  0
  8 27  1  6  0  0  0
  8  4  1  0  0  0  0
  9  8  1  0  0  0  0
 10 34  1  6  0  0  0
 10 22  1  0  0  0  0
 10 11  1  0  0  0  0
 10  9  1  0  0  0  0
 11 35  1  1  0  0  0
 11 12  1  0  0  0  0
 12  8  1  0  0  0  0
 12 36  1  1  0  0  0
 13 12  1  0  0  0  0
 13 14  2  0  0  0  0
 15 13  1  0  0  0  0
 16 15  1  0  0  0  0
 16 11  1  0  0  0  0
 17 16  2  0  0  0  0
 18 37  1  0  0  0  0
 18 15  1  0  0  0  0
 19 20  1  0  0  0  0
 19 39  1  0  0  0  0
 19 18  1  0  0  0  0
 20 41  1  0  0  0  0
 21 43  1  0  0  0  0
 21 44  1  0  0  0  0
 21 20  1  0  0  0  0
 22 47  1  0  0  0  0
 23 22  1  0  0  0  0
 23 48  1  0  0  0  0
 24 26  1  0  0  0  0
 24 23  1  0  0  0  0
 25 24  2  0  0  0  0
 26 51  1  0  0  0  0
 27 29  1  0  0  0  0
 28 27  2  0  0  0  0
 29  3  1  0  0  0  0
 33  9  1  0  0  0  0
 38 18  1  0  0  0  0
 40 19  1  0  0  0  0
 42 20  1  0  0  0  0
 45 21  1  0  0  0  0
 46 22  1  0  0  0  0
 49 23  1  0  0  0  0
 50 26  1  0  0  0  0
 52 29  1  0  0  0  0
M  END
>  <Pose>
1

>  <Score>
-6.67

$$$$
