
 OpenBabel03172210413D

 62 65  0  0  1  0  0  0  0  0999 V2000
    4.7040    7.4350   18.3130 S   0  0  0  0  0  0  0  0  0  0  0  0
    3.8040    6.2280   18.4620 O   0  0  0  0  0  0  0  0  0  0  0  0
    6.1260    6.9150   18.4760 O   0  0  0  0  0  0  0  0  0  0  0  0
    4.5890    8.1760   16.7880 N   0  0  0  0  0  0  0  0  0  0  0  0
    4.3870    7.2770   15.7020 C   0  0  0  0  0  0  0  0  0  0  0  0
    5.7300    6.9750   15.0660 C   0  0  0  0  0  0  0  0  0  0  0  0
    6.1680    8.1770   14.4000 N   0  0  0  0  0  0  0  0  0  0  0  0
    5.7590    9.3890   15.0050 C   0  0  0  0  0  0  0  0  0  0  0  0
    5.6030    9.1400   16.5060 C   0  0  0  0  0  0  0  0  0  0  0  0
    6.1750    8.1150   12.9810 C   0  0  0  0  0  0  0  0  0  0  0  0
    7.1380    7.0680   12.5440 C   0  0  1  0  0  0  0  0  0  0  0  0
    6.6150    6.2090   11.4430 C   0  0  0  0  0  0  0  0  0  0  0  0
    5.4250    6.2640   11.0500 O   0  0  0  0  0  0  0  0  0  0  0  0
    7.5670    5.3490   10.9010 O   0  0  0  0  0  0  0  0  0  0  0  0
    8.9230    5.5980   10.8700 C   0  0  0  0  0  0  0  0  0  0  0  0
    9.3620    6.7600   11.4020 C   0  0  0  0  0  0  0  0  0  0  0  0
    8.3920    7.6720   11.9680 C   0  0  0  0  0  0  0  0  0  0  0  0
    8.5630    8.9030   11.9860 O   0  0  0  0  0  0  0  0  0  0  0  0
   10.7900    7.1060   11.3910 C   0  0  0  0  0  0  0  0  0  0  0  0
   11.6480    6.1490   11.9580 N   0  0  0  0  0  0  0  0  0  0  0  0
   12.8770    5.8370   11.3640 C   0  0  0  0  0  0  0  0  0  0  0  0
   13.3620    4.4450   11.8290 C   0  0  0  0  0  0  0  0  0  0  0  0
   12.2190    3.5820   11.6680 N   0  0  0  0  0  0  0  0  0  0  0  0
   11.1370    3.8390   12.6070 C   0  0  0  0  0  0  0  0  0  0  0  0
   11.1460    5.3140   12.9870 C   0  0  0  0  0  0  0  0  0  0  0  0
   12.1510    2.5840   10.6760 C   0  0  0  0  0  0  0  0  0  0  0  0
   13.2380    2.1450    9.9550 C   0  0  0  0  0  0  0  0  0  0  0  0
   13.1150    1.1630    9.0000 C   0  0  0  0  0  0  0  0  0  0  0  0
   11.9100    0.5670    8.7110 C   0  0  0  0  0  0  0  0  0  0  0  0
   10.8080    0.9840    9.4120 C   0  0  0  0  0  0  0  0  0  0  0  0
   10.9280    1.9740   10.3760 C   0  0  0  0  0  0  0  0  0  0  0  0
   14.5290    0.6500    8.1200 Cl  0  0  0  0  0  0  0  0  0  0  0  0
    4.3920    8.5200   19.6540 C   0  0  0  0  0  0  0  0  0  0  0  0
    3.8170    7.8540   14.9140 H   0  0  0  0  0  0  0  0  0  0  0  0
    3.7910    6.4020   15.9390 H   0  0  0  0  0  0  0  0  0  0  0  0
    6.4530    6.7580   15.8780 H   0  0  0  0  0  0  0  0  0  0  0  0
    5.6930    6.1080   14.4040 H   0  0  0  0  0  0  0  0  0  0  0  0
    4.8620    9.8600   14.5670 H   0  0  0  0  0  0  0  0  0  0  0  0
    6.5910   10.1380   14.9030 H   0  0  0  0  0  0  0  0  0  0  0  0
    6.6080    8.7970   16.8670 H   0  0  0  0  0  0  0  0  0  0  0  0
    5.4130   10.0990   17.0430 H   0  0  0  0  0  0  0  0  0  0  0  0
    5.1720    7.8350   12.5730 H   0  0  0  0  0  0  0  0  0  0  0  0
    6.4300    9.1330   12.6050 H   0  0  0  0  0  0  0  0  0  0  0  0
    7.4150    6.4260   13.3810 H   0  0  0  0  0  0  0  0  0  0  0  0
    9.6540    4.9290   10.4510 H   0  0  0  0  0  0  0  0  0  0  0  0
   10.8800    8.1290   11.8580 H   0  0  0  0  0  0  0  0  0  0  0  0
   11.0920    7.2460   10.3090 H   0  0  0  0  0  0  0  0  0  0  0  0
   13.7080    6.5170   11.6080 H   0  0  0  0  0  0  0  0  0  0  0  0
   12.7430    5.6690   10.2560 H   0  0  0  0  0  0  0  0  0  0  0  0
   14.2750    4.1320   11.3370 H   0  0  0  0  0  0  0  0  0  0  0  0
   13.6090    4.5950   12.9050 H   0  0  0  0  0  0  0  0  0  0  0  0
   10.1510    3.6120   12.1950 H   0  0  0  0  0  0  0  0  0  0  0  0
   11.3800    3.2840   13.5340 H   0  0  0  0  0  0  0  0  0  0  0  0
   10.1010    5.5980   13.2160 H   0  0  0  0  0  0  0  0  0  0  0  0
   11.7220    5.4790   13.9210 H   0  0  0  0  0  0  0  0  0  0  0  0
   14.2090    2.6120   10.1730 H   0  0  0  0  0  0  0  0  0  0  0  0
   11.8280   -0.2160    7.9450 H   0  0  0  0  0  0  0  0  0  0  0  0
    9.8210    0.5490    9.2290 H   0  0  0  0  0  0  0  0  0  0  0  0
   10.0650    2.3130   10.9420 H   0  0  0  0  0  0  0  0  0  0  0  0
    3.3380    8.5310   19.9910 H   0  0  0  0  0  0  0  0  0  0  0  0
    4.9880    8.2120   20.5620 H   0  0  0  0  0  0  0  0  0  0  0  0
    4.6770    9.5740   19.4610 H   0  0  0  0  0  0  0  0  0  0  0  0
  1  2  2  0  0  0  0
  1  3  2  0  0  0  0
  1 33  1  0  0  0  0
  4  1  1  0  0  0  0
  5 35  1  0  0  0  0
  5  4  1  0  0  0  0
  6  5  1  0  0  0  0
  6 36  1  0  0  0  0
  7  8  1  0  0  0  0
  7  6  1  0  0  0  0
  8  9  1  0  0  0  0
  9  4  1  0  0  0  0
  9 40  1  0  0  0  0
  9 41  1  0  0  0  0
 10  7  1  0  0  0  0
 11 10  1  0  0  0  0
 11 44  1  1  0  0  0
 12 11  1  0  0  0  0
 13 12  2  0  0  0  0
 14 12  1  0  0  0  0
 15 14  1  0  0  0  0
 15 16  2  0  0  0  0
 16 17  1  0  0  0  0
 17 18  2  0  0  0  0
 17 11  1  0  0  0  0
 19 16  1  0  0  0  0
 19 46  1  0  0  0  0
 19 20  1  0  0  0  0
 20 25  1  0  0  0  0
 21 48  1  0  0  0  0
 21 22  1  0  0  0  0
 21 20  1  0  0  0  0
 22 51  1  0  0  0  0
 23 22  1  0  0  0  0
 23 24  1  0  0  0  0
 24 25  1  0  0  0  0
 24 53  1  0  0  0  0
 25 54  1  0  0  0  0
 25 55  1  0  0  0  0
 26 23  1  0  0  0  0
 27 56  1  0  0  0  0
 27 26  2  0  0  0  0
 28 27  1  0  0  0  0
 29 28  2  0  0  0  0
 29 30  1  0  0  0  0
 30 31  2  0  0  0  0
 31 26  1  0  0  0  0
 31 59  1  0  0  0  0
 32 28  1  0  0  0  0
 33 60  1  0  0  0  0
 33 61  1  0  0  0  0
 34  5  1  0  0  0  0
 37  6  1  0  0  0  0
 38  8  1  0  0  0  0
 39  8  1  0  0  0  0
 42 10  1  0  0  0  0
 43 10  1  0  0  0  0
 45 15  1  0  0  0  0
 47 19  1  0  0  0  0
 49 21  1  0  0  0  0
 50 22  1  0  0  0  0
 52 24  1  0  0  0  0
 57 29  1  0  0  0  0
 58 30  1  0  0  0  0
 62 33  1  0  0  0  0
M  END
>  <Pose>
1

>  <Score>
-6.32

$$$$
