
 OpenBabel03232204043D

 50 53  0  0  0  0  0  0  0  0999 V2000
   18.1940  -49.9250   38.7310 B   0  0  0  0  0  0  0  0  0  0  0  0
   17.8110  -51.7210   38.1690 C   0  0  0  0  0  0  0  0  0  0  0  0
   18.6420  -52.3090   37.2360 C   0  0  0  0  0  0  0  0  0  0  0  0
   18.3500  -53.5980   36.8460 C   0  0  0  0  0  0  0  0  0  0  0  0
   17.2600  -54.2650   37.3800 C   0  0  0  0  0  0  0  0  0  0  0  0
   16.4270  -53.6810   38.3120 C   0  0  0  0  0  0  0  0  0  0  0  0
   16.7260  -52.3910   38.6960 C   0  0  0  0  0  0  0  0  0  0  0  0
   15.8750  -51.7980   39.6470 O   0  0  0  0  0  0  0  0  0  0  0  0
   15.2680  -54.3810   38.8820 C   0  0  0  0  0  0  0  0  0  0  0  0
   14.7540  -55.4180   38.3360 N   0  0  0  0  0  0  0  0  0  0  0  0
   13.6200  -56.0690   38.9320 N   0  0  0  0  0  0  0  0  0  0  0  0
   13.7030  -57.4590   39.0740 C   0  0  0  0  0  0  0  0  0  0  0  0
   14.0230  -57.8830   40.2660 O   0  0  0  0  0  0  0  0  0  0  0  0
   13.4890  -58.5110   38.1100 C   0  0  0  0  0  0  0  0  0  0  0  0
   14.4590  -58.9040   37.2130 N   0  0  0  0  0  0  0  0  0  0  0  0
   13.9640  -59.8530   36.4860 N   0  0  0  0  0  0  0  0  0  0  0  0
   12.6840  -60.1020   36.8790 N   0  0  0  0  0  0  0  0  0  0  0  0
   12.3610  -59.2880   37.8810 C   0  0  0  0  0  0  0  0  0  0  0  0
   11.1010  -59.1870   38.6170 C   0  0  0  0  0  0  0  0  0  0  0  0
   11.1110  -58.8070   39.9790 N   0  0  0  0  0  4  0  0  0  0  0  0
   11.7510  -59.7860   40.8470 C   0  0  0  0  0  0  0  0  0  0  0  0
   11.1930  -61.1360   40.6350 C   0  0  0  0  0  0  0  0  0  0  0  0
    9.9100  -61.2990   40.3050 O   0  0  0  0  0  0  0  0  0  0  0  0
    9.1240  -60.2110   40.1040 C   0  0  0  0  0  0  0  0  0  0  0  0
    9.6910  -58.8940   40.4510 C   0  0  0  0  0  0  0  0  0  0  0  0
   11.9320  -61.1250   36.2200 C   0  0  0  0  0  0  0  0  0  0  0  0
   11.1690  -61.1040   35.1350 N   0  0  0  0  0  0  0  0  0  0  0  0
   10.7380  -62.3060   34.9380 O   0  0  0  0  0  0  0  0  0  0  0  0
   11.1760  -63.1290   35.8390 N   0  0  0  0  0  0  0  0  0  0  0  0
   11.9390  -62.4500   36.6840 C   0  0  0  0  0  0  0  0  0  0  0  0
   12.6410  -62.9040   37.8300 N   0  0  0  0  0  0  0  0  0  0  0  0
   19.5030  -54.4100   35.5540 B   0  0  0  0  0  0  0  0  0  0  0  0
   19.7330  -51.6070   36.7190 O   0  0  0  0  0  0  0  0  0  0  0  0
   17.0430  -55.2850   37.0600 H   0  0  0  0  0  0  0  0  0  0  0  0
   15.4920  -52.3640   40.3880 H   0  0  0  0  0  0  0  0  0  0  0  0
   14.8370  -54.0170   39.7820 H   0  0  0  0  0  0  0  0  0  0  0  0
   12.8420  -55.4960   39.2160 H   0  0  0  0  0  0  0  0  0  0  0  0
   10.4840  -60.1410   38.4970 H   0  0  0  0  0  0  0  0  0  0  0  0
   10.4760  -58.3990   38.0860 H   0  0  0  0  0  0  0  0  0  0  0  0
   11.4390  -57.8650   40.1320 H   0  0  0  0  0  0  0  0  0  0  0  0
   11.4790  -59.4640   41.8950 H   0  0  0  0  0  0  0  0  0  0  0  0
   12.8350  -59.8070   40.7950 H   0  0  0  0  0  0  0  0  0  0  0  0
   11.3930  -61.7270   41.5800 H   0  0  0  0  0  0  0  0  0  0  0  0
   11.8430  -61.6630   39.8760 H   0  0  0  0  0  0  0  0  0  0  0  0
    8.7770  -60.2060   39.0510 H   0  0  0  0  0  0  0  0  0  0  0  0
    8.1870  -60.3510   40.7160 H   0  0  0  0  0  0  0  0  0  0  0  0
    9.7220  -58.6820   41.5270 H   0  0  0  0  0  0  0  0  0  0  0  0
    9.1770  -58.0730   39.9330 H   0  0  0  0  0  0  0  0  0  0  0  0
   13.6390  -62.6370   37.9580 H   0  0  0  0  0  0  0  0  0  0  0  0
   12.1890  -63.5120   38.5720 H   0  0  0  0  0  0  0  0  0  0  0  0
  2  7  1  0  0  0  0
  2  1  1  0  0  0  0
  3  2  2  0  0  0  0
  4  3  1  0  0  0  0
  4  5  2  0  0  0  0
  5  6  1  0  0  0  0
  6  7  2  0  0  0  0
  6  9  1  0  0  0  0
  7  8  1  0  0  0  0
  8 35  1  0  0  0  0
  9 36  1  0  0  0  0
 10  9  2  0  0  0  0
 10 11  1  0  0  0  0
 11 12  1  0  0  0  0
 11 37  1  0  0  0  0
 12 13  2  0  0  0  0
 14 12  1  0  0  0  0
 15 14  1  0  0  0  0
 16 17  1  0  0  0  0
 16 15  2  0  0  0  0
 17 18  1  0  0  0  0
 18 14  2  0  0  0  0
 18 19  1  0  0  0  0
 19 20  1  0  0  0  0
 20 40  1  0  0  0  0
 20 25  1  0  0  0  0
 20 21  1  0  0  0  0
 21 41  1  0  0  0  0
 22 21  1  0  0  0  0
 22 43  1  0  0  0  0
 23 22  1  0  0  0  0
 24 23  1  0  0  0  0
 24 25  1  0  0  0  0
 24 46  1  0  0  0  0
 25 47  1  0  0  0  0
 26 30  1  0  0  0  0
 26 17  1  0  0  0  0
 27 26  2  0  0  0  0
 28 27  1  0  0  0  0
 28 29  1  0  0  0  0
 29 30  2  0  0  0  0
 30 31  1  0  0  0  0
 31 49  1  0  0  0  0
 31 50  1  0  0  0  0
 32  4  1  0  0  0  0
 33  3  1  0  0  0  0
 34  5  1  0  0  0  0
 38 19  1  0  0  0  0
 39 19  1  0  0  0  0
 42 21  1  0  0  0  0
 44 22  1  0  0  0  0
 45 24  1  0  0  0  0
 48 25  1  0  0  0  0
M  END
>  <Pose>
1

>  <Score>
-8.29

$$$$
