
 OpenBabel03162216103D

 50 53  0  0  0  0  0  0  0  0999 V2000
   10.8590  -62.0590   42.4680 B   0  0  0  0  0  0  0  0  0  0  0  0
   11.1070  -61.5490   40.6600 C   0  0  0  0  0  0  0  0  0  0  0  0
   10.8600  -62.4420   39.6590 C   0  0  0  0  0  0  0  0  0  0  0  0
   11.0530  -62.0380   38.3400 C   0  0  0  0  0  0  0  0  0  0  0  0
   11.4900  -60.7440   38.0740 C   0  0  0  0  0  0  0  0  0  0  0  0
   11.7400  -59.8420   39.0740 C   0  0  0  0  0  0  0  0  0  0  0  0
   11.5450  -60.2560   40.3730 C   0  0  0  0  0  0  0  0  0  0  0  0
   11.8020  -59.3340   41.3760 O   0  0  0  0  0  0  0  0  0  0  0  0
   12.1970  -58.4940   38.7740 C   0  0  0  0  0  0  0  0  0  0  0  0
   13.3390  -58.2300   38.2470 N   0  0  0  0  0  0  0  0  0  0  0  0
   13.6930  -56.8620   37.9910 N   0  0  0  0  0  0  0  0  0  0  0  0
   15.0400  -56.5320   38.0630 C   0  0  0  0  0  0  0  0  0  0  0  0
   15.4980  -56.2350   39.2300 O   0  0  0  0  0  0  0  0  0  0  0  0
   16.0240  -56.4710   36.9990 C   0  0  0  0  0  0  0  0  0  0  0  0
   16.4220  -57.5330   36.2270 N   0  0  0  0  0  0  0  0  0  0  0  0
   17.3140  -57.1310   35.3640 N   0  0  0  0  0  0  0  0  0  0  0  0
   17.5620  -55.8390   35.4920 N   0  0  0  0  0  0  0  0  0  0  0  0
   16.7770  -55.4060   36.4930 C   0  0  0  0  0  0  0  0  0  0  0  0
   16.7150  -54.0460   37.0370 C   0  0  0  0  0  0  0  0  0  0  0  0
   17.2630  -53.9110   38.3890 N   0  0  0  0  0  0  0  0  0  0  0  0
   17.2690  -52.4800   38.7500 C   0  0  0  0  0  0  0  0  0  0  0  0
   17.8360  -51.6790   37.6300 C   0  0  0  0  0  0  0  0  0  0  0  0
   19.0700  -52.1730   37.2870 O   0  0  0  0  0  0  0  0  0  0  0  0
   19.5650  -53.1130   38.1540 C   0  0  0  0  0  0  0  0  0  0  0  0
   18.6870  -54.3210   38.3490 C   0  0  0  0  0  0  0  0  0  0  0  0
   18.5090  -55.1330   34.7110 C   0  0  0  0  0  0  0  0  0  0  0  0
   19.7310  -54.6730   35.0540 N   0  0  0  0  0  0  0  0  0  0  0  0
   20.2860  -54.0830   34.0290 O   0  0  0  0  0  0  0  0  0  0  0  0
   19.4870  -54.1210   32.9930 N   0  0  0  0  0  0  0  0  0  0  0  0
   18.3740  -54.7660   33.3810 C   0  0  0  0  0  0  0  0  0  0  0  0
   17.2660  -55.0130   32.5410 N   0  0  0  0  0  0  0  0  0  0  0  0
   10.7170  -63.2540   36.9260 B   0  0  0  0  0  0  0  0  0  0  0  0
   10.4230  -63.7360   39.9020 O   0  0  0  0  0  0  0  0  0  0  0  0
   11.6380  -60.4340   37.0600 H   0  0  0  0  0  0  0  0  0  0  0  0
   12.7200  -58.9160   41.4610 H   0  0  0  0  0  0  0  0  0  0  0  0
   11.5520  -57.6490   39.0020 H   0  0  0  0  0  0  0  0  0  0  0  0
   12.8930  -56.2220   37.7710 H   0  0  0  0  0  0  0  0  0  0  0  0
   15.6890  -53.6720   37.0830 H   0  0  0  0  0  0  0  0  0  0  0  0
   17.3260  -53.3740   36.4190 H   0  0  0  0  0  0  0  0  0  0  0  0
   16.2650  -52.1470   39.0550 H   0  0  0  0  0  0  0  0  0  0  0  0
   17.9330  -52.3940   39.6300 H   0  0  0  0  0  0  0  0  0  0  0  0
   17.1920  -51.6510   36.7350 H   0  0  0  0  0  0  0  0  0  0  0  0
   18.0120  -50.6290   38.0080 H   0  0  0  0  0  0  0  0  0  0  0  0
   20.5170  -53.5000   37.6790 H   0  0  0  0  0  0  0  0  0  0  0  0
   19.8740  -52.6460   39.1130 H   0  0  0  0  0  0  0  0  0  0  0  0
   18.9310  -54.7310   39.3370 H   0  0  0  0  0  0  0  0  0  0  0  0
   18.8890  -55.0430   37.5640 H   0  0  0  0  0  0  0  0  0  0  0  0
   16.4800  -55.5820   32.9050 H   0  0  0  0  0  0  0  0  0  0  0  0
   17.2060  -54.6480   31.5740 H   0  0  0  0  0  0  0  0  0  0  0  0
   10.8090  -64.5180   39.3980 H   0  0  0  0  0  0  0  0  0  0  0  0
  2  1  1  0  0  0  0
  3 33  1  0  0  0  0
  3  2  2  0  0  0  0
  4  3  1  0  0  0  0
  5  4  2  0  0  0  0
  5  6  1  0  0  0  0
  6  7  2  0  0  0  0
  7  2  1  0  0  0  0
  7  8  1  0  0  0  0
  8 35  1  0  0  0  0
  9 36  1  0  0  0  0
  9  6  1  0  0  0  0
 10  9  2  0  0  0  0
 11 12  1  0  0  0  0
 11 10  1  0  0  0  0
 12 13  2  0  0  0  0
 14 12  1  0  0  0  0
 15 14  1  0  0  0  0
 16 17  1  0  0  0  0
 16 15  2  0  0  0  0
 17 18  1  0  0  0  0
 18 14  2  0  0  0  0
 18 19  1  0  0  0  0
 19 38  1  0  0  0  0
 19 20  1  0  0  0  0
 20 21  1  0  0  0  0
 21 40  1  0  0  0  0
 21 41  1  0  0  0  0
 22 43  1  0  0  0  0
 22 21  1  0  0  0  0
 23 22  1  0  0  0  0
 23 24  1  0  0  0  0
 24 25  1  0  0  0  0
 24 45  1  0  0  0  0
 25 20  1  0  0  0  0
 25 46  1  0  0  0  0
 26 27  2  0  0  0  0
 26 17  1  0  0  0  0
 28 27  1  0  0  0  0
 29 30  2  0  0  0  0
 29 28  1  0  0  0  0
 30 26  1  0  0  0  0
 31 48  1  0  0  0  0
 31 30  1  0  0  0  0
 32  4  1  0  0  0  0
 34  5  1  0  0  0  0
 37 11  1  0  0  0  0
 39 19  1  0  0  0  0
 42 22  1  0  0  0  0
 44 24  1  0  0  0  0
 47 25  1  0  0  0  0
 49 31  1  0  0  0  0
 50 33  1  0  0  0  0
M  END
>  <Pose>
1

>  <Score>
-7.92

$$$$
