
 OpenBabel03232204043D

 52 55  0  0  0  0  0  0  0  0999 V2000
   23.5870  -55.0510   27.0070 B   0  0  0  0  0  0  0  0  0  0  0  0
   22.2290  -56.0940   27.8560 C   0  0  0  0  0  0  0  0  0  0  0  0
   22.3480  -57.4680   27.8000 C   0  0  0  0  0  0  0  0  0  0  0  0
   21.3710  -58.2250   28.4100 C   0  0  0  0  0  0  0  0  0  0  0  0
   20.3030  -57.6350   29.0610 C   0  0  0  0  0  0  0  0  0  0  0  0
   20.1760  -56.2680   29.1220 C   0  0  0  0  0  0  0  0  0  0  0  0
   21.1550  -55.5120   28.5110 C   0  0  0  0  0  0  0  0  0  0  0  0
   21.0500  -54.1420   28.5600 O   0  0  0  0  0  0  0  0  0  0  0  0
   19.0430  -55.6740   29.8130 C   0  0  0  0  0  0  0  0  0  0  0  0
   19.1030  -55.1630   30.9790 N   0  0  0  0  0  0  0  0  0  0  0  0
   17.9900  -54.5940   31.6280 N   0  0  0  0  0  0  0  0  0  0  0  0
   17.5670  -55.1310   32.8740 C   0  0  0  0  0  0  0  0  0  0  0  0
   16.8640  -56.2610   32.9290 N   0  0  0  0  0  4  0  0  0  0  0  0
   16.4400  -56.8070   34.1040 C   0  0  0  0  0  0  0  0  0  0  0  0
   16.7680  -56.1450   35.2110 N   0  0  0  0  0  0  0  0  0  0  0  0
   17.4770  -54.9940   35.2460 C   0  0  0  0  0  0  0  0  0  0  0  0
   17.8630  -54.5160   34.0250 N   0  0  0  0  0  0  0  0  0  0  0  0
   17.8010  -54.3280   36.4420 N   0  0  0  0  0  0  0  0  0  0  0  0
   16.8070  -54.0930   37.4420 C   0  0  0  0  0  0  0  0  0  0  0  0
   16.8650  -52.6040   37.7950 C   0  0  0  0  0  0  0  0  0  0  0  0
   17.7740  -51.9230   37.0140 O   0  0  0  0  0  0  0  0  0  0  0  0
   19.0570  -52.4080   37.0800 C   0  0  0  0  0  0  0  0  0  0  0  0
   19.1380  -53.8750   36.6730 C   0  0  0  0  0  0  0  0  0  0  0  0
   15.6950  -58.0060   34.1400 N   0  0  0  0  0  0  0  0  0  0  0  0
   16.2630  -59.2270   33.6410 C   0  0  0  0  0  0  0  0  0  0  0  0
   15.2170  -59.8810   32.7520 C   0  0  0  0  0  0  0  0  0  0  0  0
   13.9640  -59.9000   33.3500 O   0  0  0  0  0  0  0  0  0  0  0  0
   13.4630  -58.6450   33.6150 C   0  0  0  0  0  0  0  0  0  0  0  0
   14.3640  -58.0050   34.6770 C   0  0  0  0  0  0  0  0  0  0  0  0
   21.5230  -60.1330   28.3380 B   0  0  0  0  0  0  0  0  0  0  0  0
   23.4300  -58.0450   27.1390 O   0  0  0  0  0  0  0  0  0  0  0  0
   19.5350  -58.2530   29.5410 H   0  0  0  0  0  0  0  0  0  0  0  0
   20.9590  -53.6560   29.4570 H   0  0  0  0  0  0  0  0  0  0  0  0
   18.0890  -55.6650   29.3120 H   0  0  0  0  0  0  0  0  0  0  0  0
   17.5380  -53.8040   31.1560 H   0  0  0  0  0  0  0  0  0  0  0  0
   17.1170  -54.6350   38.3660 H   0  0  0  0  0  0  0  0  0  0  0  0
   15.8000  -54.3930   37.1000 H   0  0  0  0  0  0  0  0  0  0  0  0
   17.0230  -52.4380   38.8650 H   0  0  0  0  0  0  0  0  0  0  0  0
   15.8540  -52.1840   37.5550 H   0  0  0  0  0  0  0  0  0  0  0  0
   19.5260  -52.2440   38.0730 H   0  0  0  0  0  0  0  0  0  0  0  0
   19.6700  -51.8430   36.3480 H   0  0  0  0  0  0  0  0  0  0  0  0
   19.7650  -54.0190   35.7700 H   0  0  0  0  0  0  0  0  0  0  0  0
   19.6510  -54.4200   37.4920 H   0  0  0  0  0  0  0  0  0  0  0  0
   17.1570  -59.0590   32.9860 H   0  0  0  0  0  0  0  0  0  0  0  0
   16.4860  -59.9440   34.4580 H   0  0  0  0  0  0  0  0  0  0  0  0
   15.1990  -59.3780   31.7700 H   0  0  0  0  0  0  0  0  0  0  0  0
   15.5180  -60.9380   32.5900 H   0  0  0  0  0  0  0  0  0  0  0  0
   13.5580  -58.0160   32.7120 H   0  0  0  0  0  0  0  0  0  0  0  0
   12.4320  -58.7470   33.9720 H   0  0  0  0  0  0  0  0  0  0  0  0
   14.3490  -58.7230   35.5410 H   0  0  0  0  0  0  0  0  0  0  0  0
   14.0050  -57.0020   34.9560 H   0  0  0  0  0  0  0  0  0  0  0  0
   24.3670  -57.7900   27.4050 H   0  0  0  0  0  0  0  0  0  0  0  0
  1  2  1  0  0  0  0
  2  7  1  0  0  0  0
  3  2  2  0  0  0  0
  3  4  1  0  0  0  0
  4  5  2  0  0  0  0
  5  6  1  0  0  0  0
  5 32  1  0  0  0  0
  6  9  1  0  0  0  0
  7  8  1  0  0  0  0
  7  6  2  0  0  0  0
  8 33  1  0  0  0  0
  9 10  2  0  0  0  0
 10 11  1  0  0  0  0
 11 12  1  0  0  0  0
 12 13  2  0  0  0  0
 12 17  1  0  0  0  0
 13 14  2  0  0  0  0
 14 24  1  0  0  0  0
 14 15  1  0  0  0  0
 15 16  2  0  0  0  0
 16 18  1  0  0  0  0
 17 16  1  0  0  0  0
 18 23  1  0  0  0  0
 18 19  1  0  0  0  0
 19 20  1  0  0  0  0
 19 36  1  0  0  0  0
 20 38  1  0  0  0  0
 21 22  1  0  0  0  0
 21 20  1  0  0  0  0
 22 40  1  0  0  0  0
 23 22  1  0  0  0  0
 23 43  1  0  0  0  0
 24 29  1  0  0  0  0
 25 24  1  0  0  0  0
 25 45  1  0  0  0  0
 26 27  1  0  0  0  0
 26 25  1  0  0  0  0
 27 28  1  0  0  0  0
 28 49  1  0  0  0  0
 28 29  1  0  0  0  0
 29 51  1  0  0  0  0
 29 50  1  0  0  0  0
 30  4  1  0  0  0  0
 31 52  1  0  0  0  0
 31  3  1  0  0  0  0
 34  9  1  0  0  0  0
 35 11  1  0  0  0  0
 37 19  1  0  0  0  0
 39 20  1  0  0  0  0
 41 22  1  0  0  0  0
 42 23  1  0  0  0  0
 44 25  1  0  0  0  0
 46 26  1  0  0  0  0
 47 26  1  0  0  0  0
 48 28  1  0  0  0  0
M  END
>  <Pose>
1

>  <Score>
-7.57

$$$$
