
 OpenBabel03232204043D

 43 46  0  0  0  0  0  0  0  0999 V2000
    7.1850  -61.7320   39.5890 B   0  0  0  0  0  0  0  0  0  0  0  0
    9.0090  -61.6410   39.0760 C   0  0  0  0  0  0  0  0  0  0  0  0
    9.5160  -60.4390   38.6290 C   0  0  0  0  0  0  0  0  0  0  0  0
   10.8230  -60.3580   38.2560 C   0  0  0  0  0  0  0  0  0  0  0  0
   11.6690  -61.4700   38.3170 C   0  0  0  0  0  0  0  0  0  0  0  0
   11.1390  -62.6550   38.7670 C   0  0  0  0  0  0  0  0  0  0  0  0
    9.8240  -62.7580   39.1470 C   0  0  0  0  0  0  0  0  0  0  0  0
   12.2520  -64.2080   38.8690 B   0  0  0  0  0  0  0  0  0  0  0  0
   11.3660  -59.0990   37.7850 C   0  0  0  0  0  0  0  0  0  0  0  0
   12.0450  -58.3740   38.5880 N   0  0  0  0  0  0  0  0  0  0  0  0
   12.6080  -57.1570   38.2420 N   0  0  0  0  0  0  0  0  0  0  0  0
   13.8630  -56.6900   38.7040 C   0  0  0  0  0  0  0  0  0  0  0  0
   13.8440  -55.8500   39.6340 O   0  0  0  0  0  0  0  0  0  0  0  0
   15.1230  -57.1320   38.1590 C   0  0  0  0  0  0  0  0  0  0  0  0
   15.9320  -56.1300   37.5390 N   0  0  0  0  0  0  0  0  0  0  0  0
   16.1940  -54.8760   37.9950 C   0  0  0  0  0  0  0  0  0  0  0  0
   17.0090  -54.2180   37.1170 C   0  0  0  0  0  0  0  0  0  0  0  0
   17.2370  -55.0910   36.1230 N   0  0  0  0  0  0  0  0  0  0  0  0
   16.5780  -56.2650   36.3790 C   0  0  0  0  0  0  0  0  0  0  0  0
   16.6130  -57.4240   35.4960 C   0  0  0  0  0  0  0  0  0  0  0  0
   17.7180  -58.0730   35.1070 N   0  0  0  0  0  0  0  0  0  0  0  0
   17.3690  -59.0690   34.3120 O   0  0  0  0  0  0  0  0  0  0  0  0
   16.0820  -59.0960   34.1660 N   0  0  0  0  0  0  0  0  0  0  0  0
   15.5650  -58.0800   34.8910 C   0  0  0  0  0  0  0  0  0  0  0  0
   14.1950  -57.7460   35.0130 N   0  0  0  0  0  4  0  0  0  0  0  0
   17.3890  -52.9240   37.4060 C   0  0  0  0  0  0  0  0  0  0  0  0
   16.9700  -52.2760   38.5560 C   0  0  0  0  0  0  0  0  0  0  0  0
   16.1450  -52.9670   39.4270 C   0  0  0  0  0  0  0  0  0  0  0  0
   15.7630  -54.2620   39.1390 C   0  0  0  0  0  0  0  0  0  0  0  0
    8.6920  -59.3290   38.5620 O   0  0  0  0  0  0  0  0  0  0  0  0
   12.7060  -61.4230   38.0270 H   0  0  0  0  0  0  0  0  0  0  0  0
    9.3760  -63.6710   39.5030 H   0  0  0  0  0  0  0  0  0  0  0  0
   11.2240  -58.7350   36.7750 H   0  0  0  0  0  0  0  0  0  0  0  0
   12.0740  -56.5360   37.5970 H   0  0  0  0  0  0  0  0  0  0  0  0
   15.7870  -57.6000   38.9520 H   0  0  0  0  0  0  0  0  0  0  0  0
   14.9460  -57.9700   37.4560 H   0  0  0  0  0  0  0  0  0  0  0  0
   13.6650  -57.9090   34.1460 H   0  0  0  0  0  0  0  0  0  0  0  0
   14.1630  -56.7050   35.1920 H   0  0  0  0  0  0  0  0  0  0  0  0
   13.7350  -58.2100   35.8400 H   0  0  0  0  0  0  0  0  0  0  0  0
   18.0390  -52.4080   36.7010 H   0  0  0  0  0  0  0  0  0  0  0  0
   17.2900  -51.2470   38.7570 H   0  0  0  0  0  0  0  0  0  0  0  0
   15.8160  -52.4640   40.3280 H   0  0  0  0  0  0  0  0  0  0  0  0
   15.1160  -54.8250   39.8070 H   0  0  0  0  0  0  0  0  0  0  0  0
  2  7  1  0  0  0  0
  2  1  1  0  0  0  0
  3  2  2  0  0  0  0
  4  5  2  0  0  0  0
  4  3  1  0  0  0  0
  5  6  1  0  0  0  0
  6  8  1  0  0  0  0
  6  7  2  0  0  0  0
  7 32  1  0  0  0  0
  9  4  1  0  0  0  0
  9 10  2  0  0  0  0
 11 10  1  0  0  0  0
 11 12  1  0  0  0  0
 12 13  2  0  0  0  0
 14 12  1  0  0  0  0
 14 35  1  0  0  0  0
 15 16  1  0  0  0  0
 15 14  1  0  0  0  0
 16 29  1  0  0  0  0
 17 26  1  0  0  0  0
 17 16  2  0  0  0  0
 18 19  2  0  0  0  0
 18 17  1  0  0  0  0
 19 15  1  0  0  0  0
 20 19  1  0  0  0  0
 21 20  2  0  0  0  0
 22 21  1  0  0  0  0
 23 22  1  0  0  0  0
 23 24  2  0  0  0  0
 24 25  1  0  0  0  0
 24 20  1  0  0  0  0
 25 38  1  0  0  0  0
 25 39  1  0  0  0  0
 26 27  2  0  0  0  0
 27 41  1  0  0  0  0
 27 28  1  0  0  0  0
 28 42  1  0  0  0  0
 29 28  2  0  0  0  0
 29 43  1  0  0  0  0
 30  3  1  0  0  0  0
 31  5  1  0  0  0  0
 33  9  1  0  0  0  0
 34 11  1  0  0  0  0
 36 14  1  0  0  0  0
 37 25  1  0  0  0  0
 40 26  1  0  0  0  0
M  END
>  <Pose>
1

>  <Score>
-7.84

$$$$
