
 OpenBabel03232204043D

 56 59  0  0  0  0  0  0  0  0999 V2000
    8.5930  -62.9230   39.2210 B   0  0  0  0  0  0  0  0  0  0  0  0
    9.3330  -61.5470   40.3120 C   0  0  0  0  0  0  0  0  0  0  0  0
    9.0340  -61.4510   41.6670 C   0  0  0  0  0  0  0  0  0  0  0  0
    9.5650  -60.4600   42.4600 C   0  0  0  0  0  0  0  0  0  0  0  0
   10.4110  -59.5550   41.8660 C   0  0  0  0  0  0  0  0  0  0  0  0
   10.7320  -59.6200   40.5190 C   0  0  0  0  0  0  0  0  0  0  0  0
   10.1780  -60.6290   39.7620 C   0  0  0  0  0  0  0  0  0  0  0  0
   11.6230  -58.6780   39.8630 C   0  0  0  0  0  0  0  0  0  0  0  0
   11.7940  -58.6800   38.5920 N   0  0  0  0  0  0  0  0  0  0  0  0
   12.6130  -57.8300   37.8920 N   0  0  0  0  0  0  0  0  0  0  0  0
   14.0040  -57.6950   38.1020 C   0  0  0  0  0  0  0  0  0  0  0  0
   14.6990  -58.7220   38.2360 O   0  0  0  0  0  0  0  0  0  0  0  0
   14.6490  -56.3900   38.1650 C   0  0  0  0  0  0  0  0  0  0  0  0
   14.3020  -55.3150   38.8840 N   0  0  0  0  0  0  0  0  0  0  0  0
   15.1490  -54.3420   38.6560 N   0  0  0  0  0  0  0  0  0  0  0  0
   16.0910  -54.7290   37.7770 N   0  0  0  0  0  0  0  0  0  0  0  0
   15.8010  -55.9940   37.4600 C   0  0  0  0  0  0  0  0  0  0  0  0
   16.5170  -56.9090   36.5690 C   0  0  0  0  0  0  0  0  0  0  0  0
   16.1010  -56.9360   35.1890 N   0  0  0  0  0  0  0  0  0  0  0  0
   17.1280  -56.1610   34.4800 C   0  0  0  0  0  0  0  0  0  0  0  0
   18.4960  -56.7100   34.5680 C   0  0  0  0  0  0  0  0  0  0  0  0
   18.4840  -58.0940   34.6370 O   0  0  0  0  0  0  0  0  0  0  0  0
   17.4130  -58.5560   33.9030 C   0  0  0  0  0  0  0  0  0  0  0  0
   16.1430  -58.3140   34.6950 C   0  0  0  0  0  0  0  0  0  0  0  0
   17.1630  -53.8790   37.3550 C   0  0  0  0  0  0  0  0  0  0  0  0
   17.3900  -53.3450   36.1450 N   0  0  0  0  0  0  0  0  0  0  0  0
   18.4830  -52.6210   36.1920 O   0  0  0  0  0  0  0  0  0  0  0  0
   19.0010  -52.6520   37.3970 N   0  0  0  0  0  0  0  0  0  0  0  0
   18.1960  -53.4310   38.1420 C   0  0  0  0  0  0  0  0  0  0  0  0
   18.4260  -53.7040   39.5160 N   0  0  0  0  0  0  0  0  0  0  0  0
    9.2250  -60.4260   43.7920 O   0  0  0  0  0  0  0  0  0  0  0  0
    8.6130  -59.3800   44.4730 C   0  0  0  0  0  0  0  0  0  0  0  0
    9.4990  -58.6360   45.4180 C   0  0  0  0  0  0  0  0  0  0  0  0
    8.1710  -62.3950   42.2130 O   0  0  0  0  0  0  0  0  0  0  0  0
   10.8380  -58.7710   42.4700 H   0  0  0  0  0  0  0  0  0  0  0  0
   10.4200  -60.6950   38.6960 H   0  0  0  0  0  0  0  0  0  0  0  0
   12.1620  -57.9510   40.4550 H   0  0  0  0  0  0  0  0  0  0  0  0
   12.1600  -57.2340   37.1400 H   0  0  0  0  0  0  0  0  0  0  0  0
   16.4240  -57.9580   36.9590 H   0  0  0  0  0  0  0  0  0  0  0  0
   17.6350  -56.7230   36.6270 H   0  0  0  0  0  0  0  0  0  0  0  0
   16.8010  -56.0890   33.4420 H   0  0  0  0  0  0  0  0  0  0  0  0
   17.1200  -55.1620   35.0020 H   0  0  0  0  0  0  0  0  0  0  0  0
   18.9410  -56.3660   35.5480 H   0  0  0  0  0  0  0  0  0  0  0  0
   19.1880  -56.3310   33.7870 H   0  0  0  0  0  0  0  0  0  0  0  0
   17.4540  -59.6480   33.7120 H   0  0  0  0  0  0  0  0  0  0  0  0
   17.3670  -57.9800   32.9580 H   0  0  0  0  0  0  0  0  0  0  0  0
   16.1510  -59.0240   35.5320 H   0  0  0  0  0  0  0  0  0  0  0  0
   15.3160  -58.4700   33.9840 H   0  0  0  0  0  0  0  0  0  0  0  0
   18.8130  -54.6010   39.8730 H   0  0  0  0  0  0  0  0  0  0  0  0
   18.2070  -52.9840   40.2510 H   0  0  0  0  0  0  0  0  0  0  0  0
    8.1500  -58.6450   43.7650 H   0  0  0  0  0  0  0  0  0  0  0  0
    7.7700  -59.8140   45.0670 H   0  0  0  0  0  0  0  0  0  0  0  0
    9.1300  -58.6930   46.4800 H   0  0  0  0  0  0  0  0  0  0  0  0
    9.6180  -57.5560   45.1700 H   0  0  0  0  0  0  0  0  0  0  0  0
   10.5010  -59.1210   45.4340 H   0  0  0  0  0  0  0  0  0  0  0  0
    8.5470  -63.2320   42.6440 H   0  0  0  0  0  0  0  0  0  0  0  0
  1  2  1  0  0  0  0
  2  3  1  0  0  0  0
  3 34  1  0  0  0  0
  3  4  2  0  0  0  0
  4 31  1  0  0  0  0
  5  4  1  0  0  0  0
  5 35  1  0  0  0  0
  6  5  2  0  0  0  0
  7  2  2  0  0  0  0
  7  6  1  0  0  0  0
  8 37  1  0  0  0  0
  8  6  1  0  0  0  0
  9  8  2  0  0  0  0
 10 11  1  0  0  0  0
 10  9  1  0  0  0  0
 11 13  1  0  0  0  0
 11 12  2  0  0  0  0
 13 14  1  0  0  0  0
 15 14  2  0  0  0  0
 16 15  1  0  0  0  0
 17 16  1  0  0  0  0
 17 13  2  0  0  0  0
 18 40  1  0  0  0  0
 18 39  1  0  0  0  0
 18 17  1  0  0  0  0
 19 18  1  0  0  0  0
 20 21  1  0  0  0  0
 20 42  1  0  0  0  0
 20 19  1  0  0  0  0
 21 22  1  0  0  0  0
 21 43  1  0  0  0  0
 23 22  1  0  0  0  0
 23 24  1  0  0  0  0
 24 19  1  0  0  0  0
 24 47  1  0  0  0  0
 25 16  1  0  0  0  0
 25 29  1  0  0  0  0
 26 27  1  0  0  0  0
 26 25  2  0  0  0  0
 27 28  1  0  0  0  0
 28 29  2  0  0  0  0
 29 30  1  0  0  0  0
 30 49  1  0  0  0  0
 30 50  1  0  0  0  0
 31 32  1  0  0  0  0
 32 52  1  0  0  0  0
 32 33  1  0  0  0  0
 33 55  1  0  0  0  0
 33 53  1  0  0  0  0
 34 56  1  0  0  0  0
 36  7  1  0  0  0  0
 38 10  1  0  0  0  0
 41 20  1  0  0  0  0
 44 21  1  0  0  0  0
 45 23  1  0  0  0  0
 46 23  1  0  0  0  0
 48 24  1  0  0  0  0
 51 32  1  0  0  0  0
 54 33  1  0  0  0  0
M  END
>  <Pose>
1

>  <Score>
-8.25

$$$$
