
 OpenBabel03232204043D

 58 61  0  0  0  0  0  0  0  0999 V2000
    9.8450  -58.8690   40.8070 B   0  0  0  0  0  0  0  0  0  0  0  0
   10.8540  -59.2960   39.2320 C   0  0  0  0  0  0  0  0  0  0  0  0
   10.3860  -60.2500   38.3710 C   0  0  0  0  0  0  0  0  0  0  0  0
   11.1290  -60.5700   37.2370 C   0  0  0  0  0  0  0  0  0  0  0  0
   12.3330  -59.9260   36.9870 C   0  0  0  0  0  0  0  0  0  0  0  0
   12.8140  -58.9790   37.8430 C   0  0  0  0  0  0  0  0  0  0  0  0
   12.0550  -58.6820   38.9530 C   0  0  0  0  0  0  0  0  0  0  0  0
   14.1750  -58.4050   37.7900 C   0  0  0  0  0  0  0  0  0  0  0  0
   15.0010  -58.5110   36.9810 N   0  0  0  0  0  0  0  0  0  0  0  0
   15.9460  -58.6180   36.0820 N   0  0  0  0  0  0  0  0  0  0  0  0
   16.3750  -57.2730   35.6360 C   0  0  0  0  0  0  0  0  0  0  0  0
   16.7180  -56.9740   34.3970 N   0  0  0  0  0  4  0  0  0  0  0  0
   17.2940  -55.7740   34.0980 C   0  0  0  0  0  0  0  0  0  0  0  0
   17.4830  -54.9340   35.1440 N   0  0  0  0  0  0  0  0  0  0  0  0
   17.1530  -55.1840   36.4250 C   0  0  0  0  0  0  0  0  0  0  0  0
   16.5830  -56.3890   36.6500 N   0  0  0  0  0  0  0  0  0  0  0  0
   17.5140  -54.3400   37.4610 N   0  0  0  0  0  0  0  0  0  0  0  0
   16.7070  -53.6360   38.3810 C   0  0  0  0  0  0  0  0  0  0  0  0
   16.9830  -52.1470   38.1540 C   0  0  0  0  0  0  0  0  0  0  0  0
   18.3400  -51.9510   38.2800 O   0  0  0  0  0  0  0  0  0  0  0  0
   19.1270  -52.6270   37.3750 C   0  0  0  0  0  0  0  0  0  0  0  0
   18.9850  -54.1540   37.6360 C   0  0  0  0  0  0  0  0  0  0  0  0
   17.7540  -55.4490   32.8010 N   0  0  0  0  0  0  0  0  0  0  0  0
   16.9760  -55.8760   31.6270 C   0  0  0  0  0  0  0  0  0  0  0  0
   18.0220  -56.4810   30.6560 C   0  0  0  0  0  0  0  0  0  0  0  0
   18.7780  -55.4140   30.2610 O   0  0  0  0  0  0  0  0  0  0  0  0
   19.5780  -54.9060   31.2460 C   0  0  0  0  0  0  0  0  0  0  0  0
   18.9670  -54.7530   32.6000 C   0  0  0  0  0  0  0  0  0  0  0  0
   10.5870  -61.5230   36.4330 O   0  0  0  0  0  0  0  0  0  0  0  0
   11.2010  -62.3710   35.5280 C   0  0  0  0  0  0  0  0  0  0  0  0
   11.1750  -61.8340   34.1040 C   0  0  0  0  0  0  0  0  0  0  0  0
    9.1880  -60.8660   38.6640 O   0  0  0  0  0  0  0  0  0  0  0  0
   12.9050  -60.1420   36.1080 H   0  0  0  0  0  0  0  0  0  0  0  0
   12.3660  -57.9240   39.6430 H   0  0  0  0  0  0  0  0  0  0  0  0
   14.4620  -57.7670   38.6600 H   0  0  0  0  0  0  0  0  0  0  0  0
   16.4290  -59.3860   35.6580 H   0  0  0  0  0  0  0  0  0  0  0  0
   15.6340  -53.8260   38.3810 H   0  0  0  0  0  0  0  0  0  0  0  0
   17.1430  -53.8690   39.4150 H   0  0  0  0  0  0  0  0  0  0  0  0
   16.5150  -51.6000   39.0110 H   0  0  0  0  0  0  0  0  0  0  0  0
   16.5630  -51.8610   37.1870 H   0  0  0  0  0  0  0  0  0  0  0  0
   20.1680  -52.4010   37.5410 H   0  0  0  0  0  0  0  0  0  0  0  0
   18.8960  -52.4070   36.3070 H   0  0  0  0  0  0  0  0  0  0  0  0
   19.5220  -54.6970   36.8930 H   0  0  0  0  0  0  0  0  0  0  0  0
   19.2060  -54.3720   38.6720 H   0  0  0  0  0  0  0  0  0  0  0  0
   16.2890  -56.6880   31.8720 H   0  0  0  0  0  0  0  0  0  0  0  0
   16.4330  -55.0630   31.1850 H   0  0  0  0  0  0  0  0  0  0  0  0
   17.4960  -56.9390   29.8310 H   0  0  0  0  0  0  0  0  0  0  0  0
   18.5910  -57.2290   31.2680 H   0  0  0  0  0  0  0  0  0  0  0  0
   19.9260  -53.8800   30.9120 H   0  0  0  0  0  0  0  0  0  0  0  0
   20.5120  -55.4990   31.3080 H   0  0  0  0  0  0  0  0  0  0  0  0
   18.8330  -53.6720   32.8570 H   0  0  0  0  0  0  0  0  0  0  0  0
   19.7050  -55.1830   33.3500 H   0  0  0  0  0  0  0  0  0  0  0  0
   12.2990  -62.4180   35.8400 H   0  0  0  0  0  0  0  0  0  0  0  0
   10.7880  -63.3720   35.5280 H   0  0  0  0  0  0  0  0  0  0  0  0
   10.5190  -60.9670   33.9880 H   0  0  0  0  0  0  0  0  0  0  0  0
   10.8590  -62.6620   33.4180 H   0  0  0  0  0  0  0  0  0  0  0  0
   12.2100  -61.5470   33.7960 H   0  0  0  0  0  0  0  0  0  0  0  0
    8.3620  -60.7610   38.1260 H   0  0  0  0  0  0  0  0  0  0  0  0
  2  1  1  0  0  0  0
  3 32  1  0  0  0  0
  3  2  2  0  0  0  0
  4  3  1  0  0  0  0
  5  4  2  0  0  0  0
  5  6  1  0  0  0  0
  6  7  2  0  0  0  0
  7  2  1  0  0  0  0
  7 34  1  0  0  0  0
  8  6  1  0  0  0  0
  8 35  1  0  0  0  0
  9  8  1  0  0  0  0
 10  9  1  0  0  0  0
 11 10  1  0  0  0  0
 11 16  1  0  0  0  0
 12 11  2  0  0  0  0
 13 12  2  0  0  0  0
 13 14  1  0  0  0  0
 14 15  2  0  0  0  0
 15 16  1  0  0  0  0
 15 17  1  0  0  0  0
 17 22  1  0  0  0  0
 17 18  1  0  0  0  0
 18 38  1  0  0  0  0
 19 20  1  0  0  0  0
 19 18  1  0  0  0  0
 19 39  1  0  0  0  0
 21 41  1  0  0  0  0
 21 22  1  0  0  0  0
 21 20  1  0  0  0  0
 22 44  1  0  0  0  0
 23 13  1  0  0  0  0
 24 45  1  0  0  0  0
 24 23  1  0  0  0  0
 25 48  1  0  0  0  0
 25 24  1  0  0  0  0
 26 25  1  0  0  0  0
 26 27  1  0  0  0  0
 27 50  1  0  0  0  0
 27 28  1  0  0  0  0
 28 23  1  0  0  0  0
 28 51  1  0  0  0  0
 28 52  1  0  0  0  0
 29  4  1  0  0  0  0
 30 54  1  0  0  0  0
 30 53  1  0  0  0  0
 30 29  1  0  0  0  0
 31 30  1  0  0  0  0
 33  5  1  0  0  0  0
 36 10  1  0  0  0  0
 37 18  1  0  0  0  0
 40 19  1  0  0  0  0
 42 21  1  0  0  0  0
 43 22  1  0  0  0  0
 46 24  1  0  0  0  0
 47 25  1  0  0  0  0
 49 27  1  0  0  0  0
 55 31  1  0  0  0  0
 56 31  1  0  0  0  0
 57 31  1  0  0  0  0
 58 32  1  0  0  0  0
M  END
>  <Pose>
1

>  <Score>
-7.02

$$$$
