
 OpenBabel03232204043D

 64 67  0  0  1  0  0  0  0  0999 V2000
   17.1850  -52.8170   37.8850 B   0  0  0  0  0  0  0  0  0  0  0  0
   16.3180  -54.5030   37.8590 C   0  0  0  0  0  0  0  0  0  0  0  0
   15.3910  -54.8030   38.8670 C   0  0  0  0  0  0  0  0  0  0  0  0
   14.7560  -56.0380   38.8490 C   0  0  0  0  0  0  0  0  0  0  0  0
   15.0560  -56.9100   37.8560 C   0  0  0  0  0  0  0  0  0  0  0  0
   15.9730  -56.6120   36.8610 C   0  0  0  0  0  0  0  0  0  0  0  0
   16.6170  -55.3990   36.8520 C   0  0  0  0  0  0  0  0  0  0  0  0
   16.2060  -57.6700   35.8440 C   0  0  1  0  0  0  0  0  0  0  0  0
   14.9070  -58.1400   35.4110 N   0  0  0  0  0  0  0  0  0  0  0  0
   14.5960  -57.6830   34.1260 C   0  0  0  0  0  0  0  0  0  0  0  0
   13.5090  -57.8160   33.5440 O   0  0  0  0  0  0  0  0  0  0  0  0
   15.7850  -57.0180   33.5930 C   0  0  0  0  0  0  0  0  0  0  0  0
   15.8150  -56.4950   32.4490 O   0  0  0  0  0  0  0  0  0  0  0  0
   16.8250  -57.0910   34.5960 C   0  0  0  0  0  0  0  0  0  0  0  0
   18.0540  -56.6780   34.4400 C   0  0  0  0  0  0  0  0  0  0  0  0
   18.9400  -56.7440   35.5030 O   0  0  0  0  0  0  0  0  0  0  0  0
   18.5330  -56.1550   33.1840 C   0  0  0  0  0  0  0  0  0  0  0  0
   18.9090  -57.1290   32.2490 C   0  0  0  0  0  0  0  0  0  0  0  0
   19.3500  -56.7770   30.9970 C   0  0  0  0  0  0  0  0  0  0  0  0
   19.4310  -55.4510   30.6410 C   0  0  0  0  0  0  0  0  0  0  0  0
   19.0560  -54.5090   31.5800 C   0  0  0  0  0  0  0  0  0  0  0  0
   18.6090  -54.8430   32.8410 C   0  0  0  0  0  0  0  0  0  0  0  0
   19.9100  -55.3820   29.3160 O   0  0  0  0  0  0  0  0  0  0  0  0
   20.4930  -56.6380   28.9830 C   0  0  2  0  0  0  0  0  0  0  0  0
   19.8010  -57.6510   29.8660 C   0  0  0  0  0  0  0  0  0  0  0  0
   21.9740  -56.6810   29.3080 C   0  0  0  0  0  0  0  0  0  0  0  0
   14.0850  -58.9730   36.2650 C   0  0  0  0  0  0  0  0  0  0  0  0
   13.5860  -60.2260   35.6800 C   0  0  0  0  0  0  0  0  0  0  0  0
   12.2930  -60.7620   36.1740 C   0  0  0  0  0  0  0  0  0  0  0  0
   12.4120  -61.6550   37.3010 N   0  0  0  0  0  4  0  0  0  0  0  0
   11.6170  -62.8630   37.0380 C   0  0  0  0  0  0  0  0  0  0  0  0
   11.8100  -60.9890   38.4420 C   0  0  0  0  0  0  0  0  0  0  0  0
   13.8300  -56.3420   39.8510 O   0  0  0  0  0  0  0  0  0  0  0  0
   14.0930  -57.2430   40.8920 C   0  0  0  0  0  0  0  0  0  0  0  0
   15.0950  -53.9110   39.8670 O   0  0  0  0  0  0  0  0  0  0  0  0
   14.5360  -57.8780   37.8720 H   0  0  0  0  0  0  0  0  0  0  0  0
   17.3300  -55.1850   36.0630 H   0  0  0  0  0  0  0  0  0  0  0  0
   16.8110  -58.5100   36.2400 H   0  0  0  0  0  0  0  0  0  0  0  0
   18.8540  -58.2020   32.5010 H   0  0  0  0  0  0  0  0  0  0  0  0
   19.1100  -53.4410   31.3220 H   0  0  0  0  0  0  0  0  0  0  0  0
   18.2950  -54.1000   33.5630 H   0  0  0  0  0  0  0  0  0  0  0  0
   20.3350  -56.9270   27.9340 H   0  0  0  0  0  0  0  0  0  0  0  0
   20.5200  -58.4410   30.2360 H   0  0  0  0  0  0  0  0  0  0  0  0
   18.9800  -58.1830   29.3790 H   0  0  0  0  0  0  0  0  0  0  0  0
   22.2120  -55.8690   30.0370 H   0  0  0  0  0  0  0  0  0  0  0  0
   22.5910  -56.6220   28.3850 H   0  0  0  0  0  0  0  0  0  0  0  0
   22.2120  -57.6330   29.7990 H   0  0  0  0  0  0  0  0  0  0  0  0
   14.6750  -59.2060   37.1750 H   0  0  0  0  0  0  0  0  0  0  0  0
   13.2290  -58.3520   36.6730 H   0  0  0  0  0  0  0  0  0  0  0  0
   14.3620  -61.0270   35.8610 H   0  0  0  0  0  0  0  0  0  0  0  0
   13.5320  -60.1480   34.5790 H   0  0  0  0  0  0  0  0  0  0  0  0
   11.5250  -60.0140   36.4080 H   0  0  0  0  0  0  0  0  0  0  0  0
   11.8590  -61.3810   35.3410 H   0  0  0  0  0  0  0  0  0  0  0  0
   13.3710  -61.9050   37.5600 H   0  0  0  0  0  0  0  0  0  0  0  0
   12.1060  -63.4950   36.2510 H   0  0  0  0  0  0  0  0  0  0  0  0
   11.5200  -63.4910   37.9450 H   0  0  0  0  0  0  0  0  0  0  0  0
   10.5970  -62.5440   36.7090 H   0  0  0  0  0  0  0  0  0  0  0  0
   12.4940  -60.9520   39.3090 H   0  0  0  0  0  0  0  0  0  0  0  0
   10.8450  -61.4660   38.7220 H   0  0  0  0  0  0  0  0  0  0  0  0
   11.5550  -59.9180   38.2050 H   0  0  0  0  0  0  0  0  0  0  0  0
   14.4140  -58.2480   40.5160 H   0  0  0  0  0  0  0  0  0  0  0  0
   14.8980  -56.7820   41.5350 H   0  0  0  0  0  0  0  0  0  0  0  0
   13.1910  -57.3440   41.5050 H   0  0  0  0  0  0  0  0  0  0  0  0
   14.6520  -53.0500   39.6580 H   0  0  0  0  0  0  0  0  0  0  0  0
  2  1  1  0  0  0  0
  2  3  1  0  0  0  0
  3 35  1  0  0  0  0
  4  3  2  0  0  0  0
  4 33  1  0  0  0  0
  5 36  1  0  0  0  0
  5  4  1  0  0  0  0
  6  5  2  0  0  0  0
  7  6  1  0  0  0  0
  7  2  2  0  0  0  0
  8 38  1  1  0  0  0
  8  6  1  0  0  0  0
  9  8  1  0  0  0  0
  9 27  1  0  0  0  0
 10  9  1  0  0  0  0
 11 10  2  0  0  0  0
 12 10  1  0  0  0  0
 12 14  1  0  0  0  0
 13 12  2  0  0  0  0
 14  8  1  0  0  0  0
 15 14  2  0  0  0  0
 15 16  1  0  0  0  0
 17 15  1  0  0  0  0
 18 39  1  0  0  0  0
 18 17  2  0  0  0  0
 19 18  1  0  0  0  0
 20 19  2  0  0  0  0
 20 21  1  0  0  0  0
 21 22  2  0  0  0  0
 22 17  1  0  0  0  0
 22 41  1  0  0  0  0
 23 20  1  0  0  0  0
 24 42  1  6  0  0  0
 24 26  1  0  0  0  0
 24 23  1  0  0  0  0
 24 25  1  0  0  0  0
 25 43  1  0  0  0  0
 25 19  1  0  0  0  0
 26 47  1  0  0  0  0
 26 45  1  0  0  0  0
 27 49  1  0  0  0  0
 27 48  1  0  0  0  0
 28 50  1  0  0  0  0
 28 29  1  0  0  0  0
 28 27  1  0  0  0  0
 29 52  1  0  0  0  0
 29 30  1  0  0  0  0
 30 54  1  0  0  0  0
 30 32  1  0  0  0  0
 31 30  1  0  0  0  0
 31 56  1  0  0  0  0
 32 59  1  0  0  0  0
 32 58  1  0  0  0  0
 33 34  1  0  0  0  0
 34 63  1  0  0  0  0
 34 62  1  0  0  0  0
 37  7  1  0  0  0  0
 40 21  1  0  0  0  0
 44 25  1  0  0  0  0
 46 26  1  0  0  0  0
 51 28  1  0  0  0  0
 53 29  1  0  0  0  0
 55 31  1  0  0  0  0
 57 31  1  0  0  0  0
 60 32  1  0  0  0  0
 61 34  1  0  0  0  0
 64 35  1  0  0  0  0
M  END
>  <Pose>
1

>  <Score>
-7.27

$$$$
