
 OpenBabel03232204043D

 47 50  0  0  1  0  0  0  0  0999 V2000
   16.9480  -52.7610   38.7110 B   0  0  0  0  0  0  0  0  0  0  0  0
   16.0690  -54.4610   38.5560 C   0  0  0  0  0  0  0  0  0  0  0  0
   16.4500  -55.3660   37.6300 C   0  0  0  0  0  0  0  0  0  0  0  0
   15.7480  -56.5980   37.4830 C   0  0  0  0  0  0  0  0  0  0  0  0
   14.6890  -56.8190   38.2940 C   0  0  0  0  0  0  0  0  0  0  0  0
   14.3080  -55.8750   39.2280 C   0  0  0  0  0  0  0  0  0  0  0  0
   14.9840  -54.7020   39.3710 C   0  0  0  0  0  0  0  0  0  0  0  0
   16.0220  -57.2700   36.1980 C   0  0  0  0  0  0  0  0  0  0  0  0
   15.0350  -58.0180   35.5320 N   0  0  2  0  0  4  0  0  0  0  0  0
   13.7560  -57.5460   35.3480 C   0  0  0  0  0  0  0  0  0  0  0  0
   12.9540  -58.4380   34.5150 N   0  0  2  0  0  0  0  0  0  0  0  0
   12.9230  -59.7360   35.1680 C   0  0  0  0  0  0  0  0  0  0  0  0
   14.2530  -60.2550   35.4140 N   0  0  2  0  0  0  0  0  0  0  0  0
   15.0720  -59.3830   36.1590 C   0  0  0  0  0  0  0  0  0  0  0  0
   14.8660  -60.5430   34.1340 C   0  0  0  0  0  0  0  0  0  0  0  0
   14.8980  -59.2380   33.3780 C   0  0  2  0  0  0  0  0  0  0  0  0
   15.6690  -58.2650   34.1900 C   0  0  0  0  0  0  0  0  0  0  0  0
   13.5040  -58.6420   33.1970 C   0  0  0  0  0  0  0  0  0  0  0  0
   17.5020  -55.1360   36.8170 O   0  0  0  0  0  0  0  0  0  0  0  0
   17.6390  -53.9580   35.9960 C   0  0  0  0  0  0  0  0  0  0  0  0
   18.9900  -53.5750   35.5960 C   0  0  0  0  0  0  0  0  0  0  0  0
   19.5100  -53.8390   34.5210 O   0  0  0  0  0  0  0  0  0  0  0  0
   19.7360  -52.8150   36.5040 O   0  0  0  0  0  0  0  0  0  0  0  0
   19.3600  -51.5290   36.9180 C   0  0  0  0  0  0  0  0  0  0  0  0
   14.0990  -57.7270   38.1830 H   0  0  0  0  0  0  0  0  0  0  0  0
   13.4190  -56.0950   39.8600 H   0  0  0  0  0  0  0  0  0  0  0  0
   14.7130  -53.9850   40.1300 H   0  0  0  0  0  0  0  0  0  0  0  0
   17.0680  -57.5310   36.0100 H   0  0  0  0  0  0  0  0  0  0  0  0
   16.0180  -56.2820   35.4120 H   0  0  0  0  0  0  0  0  0  0  0  0
   13.7380  -56.5150   34.9860 H   0  0  0  0  0  0  0  0  0  0  0  0
   13.2360  -57.5430   36.3420 H   0  0  0  0  0  0  0  0  0  0  0  0
   12.4520  -60.4500   34.4550 H   0  0  0  0  0  0  0  0  0  0  0  0
   12.3000  -59.7210   36.0740 H   0  0  0  0  0  0  0  0  0  0  0  0
   14.7540  -59.3380   37.2070 H   0  0  0  0  0  0  0  0  0  0  0  0
   16.1440  -59.7030   36.0580 H   0  0  0  0  0  0  0  0  0  0  0  0
   15.9390  -60.8070   34.3340 H   0  0  0  0  0  0  0  0  0  0  0  0
   14.3370  -61.3020   33.5630 H   0  0  0  0  0  0  0  0  0  0  0  0
   15.4200  -59.3230   32.3980 H   0  0  0  0  0  0  0  0  0  0  0  0
   16.7160  -58.5710   34.4120 H   0  0  0  0  0  0  0  0  0  0  0  0
   15.6830  -57.2350   33.7310 H   0  0  0  0  0  0  0  0  0  0  0  0
   12.9070  -59.3900   32.6730 H   0  0  0  0  0  0  0  0  0  0  0  0
   13.6470  -57.6940   32.6610 H   0  0  0  0  0  0  0  0  0  0  0  0
   17.0430  -53.1250   36.4860 H   0  0  0  0  0  0  0  0  0  0  0  0
   17.0700  -54.1570   35.0300 H   0  0  0  0  0  0  0  0  0  0  0  0
   19.8950  -51.2430   37.8480 H   0  0  0  0  0  0  0  0  0  0  0  0
   18.2550  -51.5030   37.0540 H   0  0  0  0  0  0  0  0  0  0  0  0
   19.6600  -50.8430   36.0770 H   0  0  0  0  0  0  0  0  0  0  0  0
  2  1  1  0  0  0  0
  2  7  1  0  0  0  0
  3  2  2  0  0  0  0
  4  3  1  0  0  0  0
  4  5  2  0  0  0  0
  5  6  1  0  0  0  0
  6  7  2  0  0  0  0
  6 26  1  0  0  0  0
  7 27  1  0  0  0  0
  8  4  1  0  0  0  0
  9 14  1  0  0  0  0
  9  8  1  1  0  0  0
 10  9  1  0  0  0  0
 10 31  1  0  0  0  0
 11 18  1  6  0  0  0
 11 12  1  0  0  0  0
 11 10  1  0  0  0  0
 12 13  1  0  0  0  0
 12 33  1  0  0  0  0
 13 15  1  6  0  0  0
 13 14  1  0  0  0  0
 14 34  1  0  0  0  0
 15 36  1  0  0  0  0
 16 38  1  6  0  0  0
 16 15  1  0  0  0  0
 16 17  1  0  0  0  0
 17 39  1  0  0  0  0
 17  9  1  0  0  0  0
 18 16  1  0  0  0  0
 19  3  1  0  0  0  0
 20 43  1  0  0  0  0
 20 19  1  0  0  0  0
 21 20  1  0  0  0  0
 21 23  1  0  0  0  0
 22 21  2  0  0  0  0
 23 24  1  0  0  0  0
 24 46  1  0  0  0  0
 24 45  1  0  0  0  0
 25  5  1  0  0  0  0
 28  8  1  0  0  0  0
 29  8  1  0  0  0  0
 30 10  1  0  0  0  0
 32 12  1  0  0  0  0
 35 14  1  0  0  0  0
 37 15  1  0  0  0  0
 40 17  1  0  0  0  0
 41 18  1  0  0  0  0
 42 18  1  0  0  0  0
 44 20  1  0  0  0  0
 47 24  1  0  0  0  0
M  END
>  <Pose>
1

>  <Score>
-5.56

$$$$
