
 OpenBabel03232204043D

 41 43  0  0  1  0  0  0  0  0999 V2000
   13.6070  -57.8780   34.9510 B   0  0  0  0  0  0  0  0  0  0  0  0
   12.7900  -58.8130   36.4180 C   0  0  0  0  0  0  0  0  0  0  0  0
   12.6950  -58.1040   37.6240 C   0  0  0  0  0  0  0  0  0  0  0  0
   12.1040  -58.7980   38.6590 C   0  0  0  0  0  0  0  0  0  0  0  0
   11.6430  -60.1070   38.4980 C   0  0  0  0  0  0  0  0  0  0  0  0
   11.7460  -60.7810   37.3060 C   0  0  0  0  0  0  0  0  0  0  0  0
   12.3330  -60.1000   36.2670 C   0  0  0  0  0  0  0  0  0  0  0  0
   11.2460  -62.1810   37.1530 C   0  0  0  0  0  0  0  0  0  0  0  0
   13.1840  -56.7810   37.7180 N   0  0  0  0  0  0  0  0  0  0  0  0
   14.1570  -56.2720   38.5790 C   0  0  0  0  0  0  0  0  0  0  0  0
   13.8690  -55.8670   39.7140 O   0  0  0  0  0  0  0  0  0  0  0  0
   15.5600  -56.2180   38.1210 C   0  0  0  0  0  0  0  0  0  0  0  0
   16.2160  -54.9600   38.2660 N   0  0  1  0  0  4  0  0  0  0  0  0
   17.2560  -55.1190   39.2950 C   0  0  0  0  0  0  0  0  0  0  0  0
   18.2960  -54.0560   39.0440 C   0  0  0  0  0  0  0  0  0  0  0  0
   17.5580  -52.8560   38.6530 N   0  0  1  0  0  0  0  0  0  0  0  0
   17.2450  -53.0350   37.2380 C   0  0  0  0  0  0  0  0  0  0  0  0
   16.8340  -54.4860   37.0310 C   0  0  0  0  0  0  0  0  0  0  0  0
   16.2890  -52.8240   39.3630 C   0  0  0  0  0  0  0  0  0  0  0  0
   15.3670  -53.8910   38.7490 C   0  0  0  0  0  0  0  0  0  0  0  0
   11.9930  -58.3220   39.6270 H   0  0  0  0  0  0  0  0  0  0  0  0
   11.1780  -60.6420   39.3270 H   0  0  0  0  0  0  0  0  0  0  0  0
   12.4310  -60.6040   35.3100 H   0  0  0  0  0  0  0  0  0  0  0  0
   11.7470  -62.6940   36.3060 H   0  0  0  0  0  0  0  0  0  0  0  0
   10.1670  -62.2160   36.9850 H   0  0  0  0  0  0  0  0  0  0  0  0
   11.5690  -62.7220   38.0680 H   0  0  0  0  0  0  0  0  0  0  0  0
   12.7520  -56.0830   37.0410 H   0  0  0  0  0  0  0  0  0  0  0  0
   15.6240  -56.4740   37.0190 H   0  0  0  0  0  0  0  0  0  0  0  0
   16.2000  -56.9700   38.6480 H   0  0  0  0  0  0  0  0  0  0  0  0
   16.7450  -55.0130   40.2690 H   0  0  0  0  0  0  0  0  0  0  0  0
   17.6780  -56.1440   39.2400 H   0  0  0  0  0  0  0  0  0  0  0  0
   18.9530  -54.4100   38.2320 H   0  0  0  0  0  0  0  0  0  0  0  0
   18.8860  -53.8390   39.9800 H   0  0  0  0  0  0  0  0  0  0  0  0
   18.1670  -52.8760   36.6430 H   0  0  0  0  0  0  0  0  0  0  0  0
   16.4270  -52.3490   36.9090 H   0  0  0  0  0  0  0  0  0  0  0  0
   16.0710  -54.4830   36.2500 H   0  0  0  0  0  0  0  0  0  0  0  0
   17.6890  -55.1470   36.8180 H   0  0  0  0  0  0  0  0  0  0  0  0
   16.4960  -53.0100   40.4250 H   0  0  0  0  0  0  0  0  0  0  0  0
   15.8390  -51.8150   39.2450 H   0  0  0  0  0  0  0  0  0  0  0  0
   14.8540  -53.3880   37.8990 H   0  0  0  0  0  0  0  0  0  0  0  0
   14.6890  -54.2000   39.5520 H   0  0  0  0  0  0  0  0  0  0  0  0
  1  2  1  0  0  0  0
  2  3  1  0  0  0  0
  3  9  1  0  0  0  0
  3  4  2  0  0  0  0
  4 21  1  0  0  0  0
  5  4  1  0  0  0  0
  5 22  1  0  0  0  0
  6  5  2  0  0  0  0
  7  2  2  0  0  0  0
  7  6  1  0  0  0  0
  8  6  1  0  0  0  0
  8 26  1  0  0  0  0
  9 10  1  0  0  0  0
 10 11  2  0  0  0  0
 12 10  1  0  0  0  0
 12 29  1  0  0  0  0
 13 12  1  6  0  0  0
 13 20  1  0  0  0  0
 13 14  1  0  0  0  0
 14 30  1  0  0  0  0
 15 14  1  0  0  0  0
 15 33  1  0  0  0  0
 16 17  1  6  0  0  0
 16 15  1  0  0  0  0
 16 19  1  0  0  0  0
 18 17  1  0  0  0  0
 18 13  1  0  0  0  0
 19 38  1  0  0  0  0
 20 19  1  0  0  0  0
 20 41  1  0  0  0  0
 23  7  1  0  0  0  0
 24  8  1  0  0  0  0
 25  8  1  0  0  0  0
 27  9  1  0  0  0  0
 28 12  1  0  0  0  0
 31 14  1  0  0  0  0
 32 15  1  0  0  0  0
 34 17  1  0  0  0  0
 35 17  1  0  0  0  0
 36 18  1  0  0  0  0
 37 18  1  0  0  0  0
 39 19  1  0  0  0  0
 40 20  1  0  0  0  0
M  END
>  <Pose>
1

>  <Score>
-5.79

$$$$
