
 OpenBabel03232204043D

 33 36  0  0  1  0  0  0  0  0999 V2000
   18.0580  -53.6170   36.5780 B   0  0  0  0  0  0  0  0  0  0  0  0
   16.7960  -54.8600   37.2900 C   0  0  0  0  0  0  0  0  0  0  0  0
   16.4910  -56.0300   36.6430 C   0  0  0  0  0  0  0  0  0  0  0  0
   15.5710  -56.8980   37.1820 C   0  0  0  0  0  0  0  0  0  0  0  0
   14.9320  -56.6230   38.3830 C   0  0  0  0  0  0  0  0  0  0  0  0
   15.2230  -55.4570   39.0480 C   0  0  0  0  0  0  0  0  0  0  0  0
   16.1600  -54.5790   38.4920 C   0  0  0  0  0  0  0  0  0  0  0  0
   17.1290  -56.4120   35.3570 C   0  0  1  0  0  0  0  0  0  0  0  0
   16.6100  -57.5270   34.6950 C   0  0  1  0  0  0  0  0  0  0  0  0
   15.3630  -57.8890   33.9680 C   0  0  0  0  0  0  0  0  0  0  0  0
   15.9190  -57.5750   32.6280 N   0  0  0  0  0  0  0  0  0  0  0  0
   16.6360  -56.5010   32.7380 C   0  0  2  0  0  0  0  0  0  0  0  0
   16.5680  -56.0840   34.1030 C   0  0  2  0  0  0  0  0  0  0  0  0
   15.3010  -55.3110   34.2740 C   0  0  0  0  0  0  0  0  0  0  0  0
   14.3050  -54.6830   34.3890 N   0  0  0  0  0  0  0  0  0  0  0  0
   17.3610  -55.8580   31.6660 N   0  0  0  0  0  0  0  0  0  0  0  0
   15.1850  -59.2730   34.0750 O   0  0  0  0  0  0  0  0  0  0  0  0
   13.8870  -59.4820   34.4990 C   0  0  0  0  0  0  0  0  0  0  0  0
   13.1840  -58.2210   34.0240 C   0  0  0  0  0  0  0  0  0  0  0  0
   14.2130  -57.2810   34.2750 O   0  0  0  0  0  0  0  0  0  0  0  0
   17.6920  -58.4100   34.1290 C   0  0  0  0  0  0  0  0  0  0  0  0
   18.5440  -59.1090   33.7050 N   0  0  0  0  0  0  0  0  0  0  0  0
   15.2880  -57.8500   36.7080 H   0  0  0  0  0  0  0  0  0  0  0  0
   14.2120  -57.2910   38.8190 H   0  0  0  0  0  0  0  0  0  0  0  0
   14.7450  -55.2320   39.9690 H   0  0  0  0  0  0  0  0  0  0  0  0
   16.4220  -53.6450   38.9830 H   0  0  0  0  0  0  0  0  0  0  0  0
   18.2420  -56.2550   35.4490 H   0  0  0  0  0  0  0  0  0  0  0  0
   16.8750  -55.2580   30.9730 H   0  0  0  0  0  0  0  0  0  0  0  0
   18.3860  -55.9850   31.5700 H   0  0  0  0  0  0  0  0  0  0  0  0
   13.8780  -59.5110   35.6100 H   0  0  0  0  0  0  0  0  0  0  0  0
   13.4400  -60.4000   34.0630 H   0  0  0  0  0  0  0  0  0  0  0  0
   12.9810  -58.2860   32.9330 H   0  0  0  0  0  0  0  0  0  0  0  0
   12.2750  -57.9910   34.5960 H   0  0  0  0  0  0  0  0  0  0  0  0
  1  2  1  0  0  0  0
  2  7  1  0  0  0  0
  3  4  1  0  0  0  0
  3  2  2  0  0  0  0
  4  5  2  0  0  0  0
  5 24  1  0  0  0  0
  5  6  1  0  0  0  0
  6 25  1  0  0  0  0
  7 26  1  0  0  0  0
  7  6  2  0  0  0  0
  8 27  1  1  0  0  0
  8  3  1  0  0  0  0
  9 21  1  6  0  0  0
  9  8  1  0  0  0  0
 10 17  1  0  0  0  0
 10 20  1  0  0  0  0
 10  9  1  0  0  0  0
 11 12  1  0  0  0  0
 11 10  1  0  0  0  0
 12 16  1  6  0  0  0
 12 13  1  0  0  0  0
 13 14  1  1  0  0  0
 13  9  1  0  0  0  0
 13  8  1  0  0  0  0
 14 15  3  0  0  0  0
 17 18  1  0  0  0  0
 18 30  1  0  0  0  0
 19 20  1  0  0  0  0
 19 18  1  0  0  0  0
 19 33  1  0  0  0  0
 22 21  3  0  0  0  0
 23  4  1  0  0  0  0
 28 16  1  0  0  0  0
 29 16  1  0  0  0  0
 31 18  1  0  0  0  0
 32 19  1  0  0  0  0
M  END
>  <Pose>
1

>  <Score>
-4.77

$$$$
