
 OpenBabel03232204043D

 33 36  0  0  1  0  0  0  0  0999 V2000
   13.7890  -56.9050   37.6420 B   0  0  0  0  0  0  0  0  0  0  0  0
   13.3520  -58.5110   36.6710 C   0  0  0  0  0  0  0  0  0  0  0  0
   14.1540  -58.8300   35.5990 C   0  0  0  0  0  0  0  0  0  0  0  0
   13.8180  -59.9950   34.9190 C   0  0  0  0  0  0  0  0  0  0  0  0
   12.7470  -60.7850   35.2890 C   0  0  0  0  0  0  0  0  0  0  0  0
   11.9570  -60.4310   36.3770 C   0  0  0  0  0  0  0  0  0  0  0  0
   12.2800  -59.2860   37.0540 C   0  0  0  0  0  0  0  0  0  0  0  0
   15.2660  -58.0500   35.1850 N   0  0  0  0  0  0  0  0  0  0  0  0
   15.4670  -57.3530   33.9660 C   0  0  0  0  0  0  0  0  0  0  0  0
   14.6060  -57.2330   33.0770 O   0  0  0  0  0  0  0  0  0  0  0  0
   16.8350  -56.7900   33.8930 C   0  0  2  0  0  0  0  0  0  0  0  0
   17.6620  -57.3900   32.8090 C   0  0  1  0  0  0  0  0  0  0  0  0
   18.8590  -57.8170   33.4430 O   0  0  0  0  0  0  0  0  0  0  0  0
   18.2310  -58.5710   34.4680 C   0  0  1  0  0  0  0  0  0  0  0  0
   17.5030  -57.3990   35.1380 C   0  0  2  0  0  0  0  0  0  0  0  0
   16.4170  -57.8650   36.0150 C   0  0  0  0  0  0  0  0  0  0  0  0
   16.4520  -58.0700   37.2470 O   0  0  0  0  0  0  0  0  0  0  0  0
   17.3110  -59.4050   33.6660 C   0  0  0  0  0  0  0  0  0  0  0  0
   17.0940  -58.7450   32.5290 C   0  0  0  0  0  0  0  0  0  0  0  0
   17.9060  -56.5770   31.6080 C   0  0  0  0  0  0  0  0  0  0  0  0
   16.7390  -56.5990   30.8210 O   0  0  0  0  0  0  0  0  0  0  0  0
   14.4370  -60.2680   34.0700 H   0  0  0  0  0  0  0  0  0  0  0  0
   12.4960  -61.7010   34.7390 H   0  0  0  0  0  0  0  0  0  0  0  0
   11.1240  -61.0740   36.6430 H   0  0  0  0  0  0  0  0  0  0  0  0
   11.6860  -58.9900   37.9000 H   0  0  0  0  0  0  0  0  0  0  0  0
   16.8560  -55.6950   33.9280 H   0  0  0  0  0  0  0  0  0  0  0  0
   18.9120  -59.0950   35.1060 H   0  0  0  0  0  0  0  0  0  0  0  0
   18.2310  -56.7320   35.5920 H   0  0  0  0  0  0  0  0  0  0  0  0
   16.8500  -60.3770   33.8760 H   0  0  0  0  0  0  0  0  0  0  0  0
   16.6250  -59.0850   31.6170 H   0  0  0  0  0  0  0  0  0  0  0  0
   18.6960  -57.0270   30.9500 H   0  0  0  0  0  0  0  0  0  0  0  0
   18.2190  -55.5520   31.8360 H   0  0  0  0  0  0  0  0  0  0  0  0
   16.3650  -55.6720   30.7590 H   0  0  0  0  0  0  0  0  0  0  0  0
  2  7  1  0  0  0  0
  2  1  1  0  0  0  0
  3  2  2  0  0  0  0
  4  5  2  0  0  0  0
  4  3  1  0  0  0  0
  5  6  1  0  0  0  0
  6 24  1  0  0  0  0
  6  7  2  0  0  0  0
  7 25  1  0  0  0  0
  8  3  1  0  0  0  0
  8 16  1  0  0  0  0
  9  8  1  0  0  0  0
 10  9  2  0  0  0  0
 11 26  1  6  0  0  0
 11  9  1  0  0  0  0
 11 15  1  0  0  0  0
 12 20  1  6  0  0  0
 12 13  1  0  0  0  0
 12 11  1  0  0  0  0
 13 14  1  0  0  0  0
 14 27  1  1  0  0  0
 14 15  1  0  0  0  0
 15 28  1  1  0  0  0
 15 16  1  0  0  0  0
 16 17  2  0  0  0  0
 18 29  1  0  0  0  0
 18 14  1  0  0  0  0
 19 12  1  0  0  0  0
 19 18  2  0  0  0  0
 20 32  1  0  0  0  0
 21 20  1  0  0  0  0
 22  4  1  0  0  0  0
 23  5  1  0  0  0  0
 30 19  1  0  0  0  0
 31 20  1  0  0  0  0
 33 21  1  0  0  0  0
M  END
>  <Pose>
1

>  <Score>
-5.04

$$$$
