
 OpenBabel03232204043D

 36 39  0  0  1  0  0  0  0  0999 V2000
   16.2950  -56.8690   33.7370 B   0  0  0  0  0  0  0  0  0  0  0  0
   17.7120  -55.8660   33.0030 C   0  0  0  0  0  0  0  0  0  0  0  0
   18.4940  -55.0320   33.7820 C   0  0  0  0  0  0  0  0  0  0  0  0
   19.5010  -54.3540   33.1070 C   0  0  0  0  0  0  0  0  0  0  0  0
   19.7310  -54.4820   31.7600 C   0  0  0  0  0  0  0  0  0  0  0  0
   18.9510  -55.3060   31.0120 C   0  0  0  0  0  0  0  0  0  0  0  0
   17.9440  -55.9970   31.6320 C   0  0  0  0  0  0  0  0  0  0  0  0
   18.2870  -54.8750   35.1770 N   0  0  0  0  0  0  0  0  0  0  0  0
   16.9970  -54.8930   35.8950 C   0  0  0  0  0  0  0  0  0  0  0  0
   17.2980  -54.0690   37.0580 C   0  0  2  0  0  0  0  0  0  0  0  0
   17.1620  -52.6820   36.8830 O   0  0  0  0  0  0  0  0  0  0  0  0
   17.7280  -52.3220   38.1360 C   0  0  2  0  0  0  0  0  0  0  0  0
   19.1330  -52.8860   37.8870 C   0  0  1  0  0  0  0  0  0  0  0  0
   18.7840  -54.2600   37.4080 C   0  0  2  0  0  0  0  0  0  0  0  0
   19.3290  -54.6650   36.1220 C   0  0  0  0  0  0  0  0  0  0  0  0
   20.5400  -54.8150   35.8600 O   0  0  0  0  0  0  0  0  0  0  0  0
   19.6800  -52.0660   36.7590 C   0  0  0  0  0  0  0  0  0  0  0  0
   20.1800  -52.5680   35.7420 O   0  0  0  0  0  0  0  0  0  0  0  0
   19.6240  -50.6810   36.8610 O   0  0  0  0  0  0  0  0  0  0  0  0
   20.5150  -49.8990   36.0570 C   0  0  0  0  0  0  0  0  0  0  0  0
   16.9340  -53.1920   39.0520 C   0  0  0  0  0  0  0  0  0  0  0  0
   16.5580  -54.2530   38.3030 C   0  0  0  0  0  0  0  0  0  0  0  0
   20.1560  -53.6840   33.6450 H   0  0  0  0  0  0  0  0  0  0  0  0
   20.5280  -53.9330   31.2750 H   0  0  0  0  0  0  0  0  0  0  0  0
   19.1200  -55.4180   29.9420 H   0  0  0  0  0  0  0  0  0  0  0  0
   17.3270  -56.6500   31.0330 H   0  0  0  0  0  0  0  0  0  0  0  0
   16.2700  -54.3910   35.2290 H   0  0  0  0  0  0  0  0  0  0  0  0
   16.6610  -55.9100   36.1260 H   0  0  0  0  0  0  0  0  0  0  0  0
   17.7000  -51.2760   38.3440 H   0  0  0  0  0  0  0  0  0  0  0  0
   19.7560  -52.8460   38.7730 H   0  0  0  0  0  0  0  0  0  0  0  0
   18.8960  -55.0360   38.1910 H   0  0  0  0  0  0  0  0  0  0  0  0
   20.2760  -48.8280   36.1330 H   0  0  0  0  0  0  0  0  0  0  0  0
   20.4680  -50.1980   34.9910 H   0  0  0  0  0  0  0  0  0  0  0  0
   21.5620  -50.0150   36.4350 H   0  0  0  0  0  0  0  0  0  0  0  0
   16.7160  -52.9940   40.0970 H   0  0  0  0  0  0  0  0  0  0  0  0
   15.8680  -55.0210   38.6140 H   0  0  0  0  0  0  0  0  0  0  0  0
  2  1  1  0  0  0  0
  2  3  1  0  0  0  0
  3  8  1  0  0  0  0
  4 23  1  0  0  0  0
  4  3  2  0  0  0  0
  5  4  1  0  0  0  0
  6  7  1  0  0  0  0
  6  5  2  0  0  0  0
  7  2  2  0  0  0  0
  8  9  1  0  0  0  0
  8 15  1  0  0  0  0
  9 28  1  0  0  0  0
  9 10  1  0  0  0  0
 10 11  1  6  0  0  0
 10 14  1  0  0  0  0
 10 22  1  0  0  0  0
 11 12  1  0  0  0  0
 12 29  1  1  0  0  0
 12 21  1  0  0  0  0
 13 12  1  0  0  0  0
 13 30  1  1  0  0  0
 14 13  1  0  0  0  0
 14 31  1  1  0  0  0
 15 14  1  0  0  0  0
 16 15  2  0  0  0  0
 17 19  1  0  0  0  0
 17 13  1  0  0  0  0
 18 17  2  0  0  0  0
 20 32  1  0  0  0  0
 20 34  1  0  0  0  0
 20 19  1  0  0  0  0
 21 35  1  0  0  0  0
 22 36  1  0  0  0  0
 22 21  2  0  0  0  0
 24  5  1  0  0  0  0
 25  6  1  0  0  0  0
 26  7  1  0  0  0  0
 27  9  1  0  0  0  0
 33 20  1  0  0  0  0
M  END
>  <Pose>
1

>  <Score>
-4.86

$$$$
