
 OpenBabel03232204043D

 35 38  0  0  0  0  0  0  0  0999 V2000
   11.9770  -60.7800   35.2680 B   0  0  0  0  0  0  0  0  0  0  0  0
   12.7180  -59.2630   36.1380 C   0  0  0  0  0  0  0  0  0  0  0  0
   12.7350  -59.0180   37.4870 C   0  0  0  0  0  0  0  0  0  0  0  0
   13.3540  -57.8410   37.6520 N   0  0  0  0  0  0  0  0  0  0  0  0
   13.7120  -57.3650   36.4750 N   0  0  0  0  0  0  0  0  0  0  0  0
   13.3350  -58.2200   35.4970 C   0  0  0  0  0  0  0  0  0  0  0  0
   13.5570  -58.0420   34.0170 C   0  0  0  0  0  0  0  0  0  0  0  0
   13.5860  -57.2080   38.9290 C   0  0  0  0  0  0  0  0  0  0  0  0
   14.4620  -55.9940   38.7900 C   0  0  0  0  0  0  0  0  0  0  0  0
   14.4540  -54.8900   39.5580 N   0  0  0  0  0  0  0  0  0  0  0  0
   15.3790  -54.0350   39.1170 N   0  0  0  0  0  0  0  0  0  0  0  0
   16.0010  -54.5780   38.0510 C   0  0  0  0  0  0  0  0  0  0  0  0
   15.4210  -55.7790   37.8710 N   0  0  0  0  0  0  0  0  0  0  0  0
   17.0060  -53.8670   37.4230 C   0  0  0  0  0  0  0  0  0  0  0  0
   17.3990  -52.6140   37.8470 C   0  0  0  0  0  0  0  0  0  0  0  0
   18.3920  -52.1490   37.0620 N   0  0  0  0  0  0  0  0  0  0  0  0
   18.6360  -53.0740   36.1540 N   0  0  0  0  0  0  0  0  0  0  0  0
   17.8090  -54.1460   36.3370 C   0  0  0  0  0  0  0  0  0  0  0  0
   19.0910  -50.8780   37.1580 C   0  0  0  0  0  0  0  0  0  0  0  0
   16.7540  -52.1090   38.9140 N   0  0  0  0  0  0  0  0  0  0  0  0
   15.7660  -52.8140   39.5270 C   0  0  0  0  0  0  0  0  0  0  0  0
   12.1590  -59.9210   38.5350 C   0  0  0  0  0  0  0  0  0  0  0  0
   12.5820  -58.1700   33.5250 H   0  0  0  0  0  0  0  0  0  0  0  0
   14.2530  -58.7860   33.6190 H   0  0  0  0  0  0  0  0  0  0  0  0
   13.8810  -56.9960   33.8350 H   0  0  0  0  0  0  0  0  0  0  0  0
   14.0640  -57.9390   39.6390 H   0  0  0  0  0  0  0  0  0  0  0  0
   12.6410  -56.8900   39.3980 H   0  0  0  0  0  0  0  0  0  0  0  0
   17.7760  -55.0440   35.7560 H   0  0  0  0  0  0  0  0  0  0  0  0
   20.0440  -50.9690   37.7300 H   0  0  0  0  0  0  0  0  0  0  0  0
   19.2380  -50.4020   36.1710 H   0  0  0  0  0  0  0  0  0  0  0  0
   18.4620  -50.1510   37.7460 H   0  0  0  0  0  0  0  0  0  0  0  0
   15.2410  -52.4020   40.3950 H   0  0  0  0  0  0  0  0  0  0  0  0
   12.9880  -60.5080   38.9440 H   0  0  0  0  0  0  0  0  0  0  0  0
   11.4100  -60.5980   38.0800 H   0  0  0  0  0  0  0  0  0  0  0  0
   11.6040  -59.3370   39.3110 H   0  0  0  0  0  0  0  0  0  0  0  0
  1  2  1  0  0  0  0
  2  3  2  0  0  0  0
  3  4  1  0  0  0  0
  3 22  1  0  0  0  0
  4  8  1  0  0  0  0
  5  4  1  0  0  0  0
  6  2  1  0  0  0  0
  6  5  2  0  0  0  0
  7  6  1  0  0  0  0
  8 27  1  0  0  0  0
  8 26  1  0  0  0  0
  9  8  1  0  0  0  0
  9 10  2  0  0  0  0
 11 21  1  0  0  0  0
 11 10  1  0  0  0  0
 12 11  1  0  0  0  0
 13 12  2  0  0  0  0
 13  9  1  0  0  0  0
 14 15  2  0  0  0  0
 14 12  1  0  0  0  0
 15 20  1  0  0  0  0
 16 19  1  0  0  0  0
 16 15  1  0  0  0  0
 17 18  2  0  0  0  0
 17 16  1  0  0  0  0
 18 14  1  0  0  0  0
 19 29  1  0  0  0  0
 19 31  1  0  0  0  0
 20 21  2  0  0  0  0
 21 32  1  0  0  0  0
 22 33  1  0  0  0  0
 22 35  1  0  0  0  0
 23  7  1  0  0  0  0
 24  7  1  0  0  0  0
 25  7  1  0  0  0  0
 28 18  1  0  0  0  0
 30 19  1  0  0  0  0
 34 22  1  0  0  0  0
M  END
>  <Pose>
1

>  <Score>
-6.59

$$$$
