
 OpenBabel03232204043D

 36 39  0  0  0  0  0  0  0  0999 V2000
   18.3980  -57.7940   32.4740 B   0  0  0  0  0  0  0  0  0  0  0  0
   16.8470  -58.6220   33.1770 C   0  0  0  0  0  0  0  0  0  0  0  0
   15.9030  -57.8490   33.8640 C   0  0  0  0  0  0  0  0  0  0  0  0
   14.7850  -58.4660   34.3650 C   0  0  0  0  0  0  0  0  0  0  0  0
   14.5870  -59.8110   34.2030 C   0  0  0  0  0  0  0  0  0  0  0  0
   15.5310  -60.5910   33.5140 C   0  0  0  0  0  0  0  0  0  0  0  0
   16.6570  -59.9720   33.0090 C   0  0  0  0  0  0  0  0  0  0  0  0
   13.4140  -60.3820   34.7540 N   0  0  0  0  0  0  0  0  0  0  0  0
   13.3540  -60.9150   35.9590 N   0  0  0  0  0  0  0  0  0  0  0  0
   12.1450  -61.3680   36.2110 N   0  0  0  0  0  0  0  0  0  0  0  0
   11.3870  -61.1290   35.1530 N   0  0  0  0  0  0  0  0  0  0  0  0
   12.1750  -60.5230   34.2590 C   0  0  0  0  0  0  0  0  0  0  0  0
   13.7230  -57.6860   35.1050 C   0  0  0  0  0  0  0  0  0  0  0  0
   12.8830  -57.0760   34.3690 O   0  0  0  0  0  0  0  0  0  0  0  0
   13.7420  -57.6940   36.4790 N   0  0  0  0  0  0  0  0  0  0  0  0
   13.7590  -57.7010   37.8460 C   0  0  0  0  0  0  0  0  0  0  0  0
   14.3740  -56.4550   38.4620 C   0  0  0  0  0  0  0  0  0  0  0  0
   15.4570  -55.8050   37.9800 N   0  0  0  0  0  0  0  0  0  0  0  0
   15.7430  -54.7480   38.7510 C   0  0  0  0  0  0  0  0  0  0  0  0
   14.8180  -54.7460   39.7240 N   0  0  0  0  0  0  0  0  0  0  0  0
   13.9850  -55.7830   39.5500 N   0  0  0  0  0  0  0  0  0  0  0  0
   16.8290  -53.9160   38.4470 C   0  0  0  0  0  0  0  0  0  0  0  0
   17.6120  -54.1770   37.3570 C   0  0  0  0  0  0  0  0  0  0  0  0
   17.3170  -55.2670   36.5630 C   0  0  0  0  0  0  0  0  0  0  0  0
   16.2340  -56.0700   36.8920 C   0  0  0  0  0  0  0  0  0  0  0  0
   16.0450  -56.7870   34.0030 H   0  0  0  0  0  0  0  0  0  0  0  0
   15.3380  -61.6440   33.4070 H   0  0  0  0  0  0  0  0  0  0  0  0
   17.3870  -60.5740   32.4780 H   0  0  0  0  0  0  0  0  0  0  0  0
   11.8580  -60.1940   33.2890 H   0  0  0  0  0  0  0  0  0  0  0  0
   12.7410  -56.7710   36.5110 H   0  0  0  0  0  0  0  0  0  0  0  0
   14.2850  -58.5650   38.3430 H   0  0  0  0  0  0  0  0  0  0  0  0
   12.7380  -57.7310   38.3440 H   0  0  0  0  0  0  0  0  0  0  0  0
   17.0150  -53.0820   39.1050 H   0  0  0  0  0  0  0  0  0  0  0  0
   18.4730  -53.5470   37.0890 H   0  0  0  0  0  0  0  0  0  0  0  0
   17.8840  -55.5240   35.6980 H   0  0  0  0  0  0  0  0  0  0  0  0
   15.9720  -56.9310   36.3000 H   0  0  0  0  0  0  0  0  0  0  0  0
  1  2  1  0  0  0  0
  2  3  1  0  0  0  0
  3 26  1  0  0  0  0
  3  4  2  0  0  0  0
  4 13  1  0  0  0  0
  5  4  1  0  0  0  0
  5  8  1  0  0  0  0
  6  5  2  0  0  0  0
  7  2  2  0  0  0  0
  7  6  1  0  0  0  0
  8  9  1  0  0  0  0
  9 10  2  0  0  0  0
 11 10  1  0  0  0  0
 12  8  1  0  0  0  0
 12 11  2  0  0  0  0
 13 15  1  0  0  0  0
 14 13  2  0  0  0  0
 15 30  1  0  0  0  0
 15 16  1  0  0  0  0
 16 31  1  0  0  0  0
 16 32  1  0  0  0  0
 16 17  1  0  0  0  0
 17 21  2  0  0  0  0
 18 17  1  0  0  0  0
 18 19  1  0  0  0  0
 19 20  2  0  0  0  0
 21 20  1  0  0  0  0
 22 19  1  0  0  0  0
 22 33  1  0  0  0  0
 23 22  2  0  0  0  0
 24 25  2  0  0  0  0
 24 23  1  0  0  0  0
 25 18  1  0  0  0  0
 27  6  1  0  0  0  0
 28  7  1  0  0  0  0
 29 12  1  0  0  0  0
 34 23  1  0  0  0  0
 35 24  1  0  0  0  0
 36 25  1  0  0  0  0
M  END
>  <Pose>
1

>  <Score>
-7.13

$$$$
