
 OpenBabel03232204043D

 54 57  0  0  0  0  0  0  0  0999 V2000
   10.8670  -62.6470   42.5770 B   0  0  0  0  0  0  0  0  0  0  0  0
   10.7800  -61.8800   40.8340 C   0  0  0  0  0  0  0  0  0  0  0  0
   11.2420  -60.6040   40.5960 C   0  0  0  0  0  0  0  0  0  0  0  0
   11.1810  -60.0510   39.3400 C   0  0  0  0  0  0  0  0  0  0  0  0
   10.6440  -60.8100   38.3230 C   0  0  0  0  0  0  0  0  0  0  0  0
   10.1710  -62.1050   38.5510 C   0  0  0  0  0  0  0  0  0  0  0  0
   10.2360  -62.6570   39.8200 C   0  0  0  0  0  0  0  0  0  0  0  0
   10.5930  -60.2260   37.0620 O   0  0  0  0  0  0  0  0  0  0  0  0
   11.7340  -59.9030   36.3020 C   0  0  0  0  0  0  0  0  0  0  0  0
   11.6670  -58.7020   39.0750 C   0  0  0  0  0  0  0  0  0  0  0  0
   12.7490  -58.2360   39.5750 N   0  0  0  0  0  0  0  0  0  0  0  0
   13.2290  -56.9480   39.3320 N   0  0  0  0  0  0  0  0  0  0  0  0
   14.3160  -56.6850   38.4540 C   0  0  0  0  0  0  0  0  0  0  0  0
   15.1280  -55.6140   38.5850 N   0  0  0  0  0  4  0  0  0  0  0  0
   16.1440  -55.3950   37.7420 C   0  0  0  0  0  0  0  0  0  0  0  0
   16.3470  -56.2710   36.7460 N   0  0  0  0  0  0  0  0  0  0  0  0
   15.5700  -57.3700   36.5540 C   0  0  0  0  0  0  0  0  0  0  0  0
   14.5570  -57.5290   37.4500 N   0  0  0  0  0  0  0  0  0  0  0  0
   15.7890  -58.2850   35.5080 N   0  0  0  0  0  0  0  0  0  0  0  0
   16.9980  -58.2650   34.7410 C   0  0  0  0  0  0  0  0  0  0  0  0
   16.5930  -58.1900   33.2710 C   0  0  0  0  0  0  0  0  0  0  0  0
   15.7590  -59.2680   33.0260 O   0  0  0  0  0  0  0  0  0  0  0  0
   14.5540  -59.1760   33.6810 C   0  0  0  0  0  0  0  0  0  0  0  0
   14.7900  -59.2620   35.1900 C   0  0  0  0  0  0  0  0  0  0  0  0
   16.9980  -54.2680   37.8800 N   0  0  0  0  0  0  0  0  0  0  0  0
   17.1940  -53.3090   36.8160 C   0  0  0  0  0  0  0  0  0  0  0  0
   18.6580  -52.9110   36.6960 C   0  0  0  0  0  0  0  0  0  0  0  0
   19.2010  -52.6520   37.9600 O   0  0  0  0  0  0  0  0  0  0  0  0
   19.1590  -53.7630   38.7690 C   0  0  0  0  0  0  0  0  0  0  0  0
   17.7130  -54.0430   39.1170 C   0  0  0  0  0  0  0  0  0  0  0  0
   11.6730  -59.9870   41.3940 H   0  0  0  0  0  0  0  0  0  0  0  0
    9.7490  -62.6900   37.7300 H   0  0  0  0  0  0  0  0  0  0  0  0
    9.8670  -63.6570   39.9720 H   0  0  0  0  0  0  0  0  0  0  0  0
   12.0130  -58.8520   36.5690 H   0  0  0  0  0  0  0  0  0  0  0  0
   12.5630  -60.6150   36.4290 H   0  0  0  0  0  0  0  0  0  0  0  0
   11.4480  -59.8840   35.2260 H   0  0  0  0  0  0  0  0  0  0  0  0
   11.1010  -58.0490   38.4260 H   0  0  0  0  0  0  0  0  0  0  0  0
   12.7380  -56.1620   39.8390 H   0  0  0  0  0  0  0  0  0  0  0  0
   17.6510  -57.3960   35.0170 H   0  0  0  0  0  0  0  0  0  0  0  0
   17.5400  -59.2290   34.8800 H   0  0  0  0  0  0  0  0  0  0  0  0
   17.5280  -58.3350   32.6940 H   0  0  0  0  0  0  0  0  0  0  0  0
   16.1460  -57.2230   33.0310 H   0  0  0  0  0  0  0  0  0  0  0  0
   14.0530  -58.1940   33.5050 H   0  0  0  0  0  0  0  0  0  0  0  0
   13.9140  -60.0100   33.3770 H   0  0  0  0  0  0  0  0  0  0  0  0
   13.8470  -59.1180   35.7470 H   0  0  0  0  0  0  0  0  0  0  0  0
   15.2150  -60.2790   35.3620 H   0  0  0  0  0  0  0  0  0  0  0  0
   16.6640  -52.3720   37.1500 H   0  0  0  0  0  0  0  0  0  0  0  0
   16.8350  -53.6610   35.8450 H   0  0  0  0  0  0  0  0  0  0  0  0
   19.1810  -53.7170   36.1660 H   0  0  0  0  0  0  0  0  0  0  0  0
   18.6890  -51.9320   36.1540 H   0  0  0  0  0  0  0  0  0  0  0  0
   19.6250  -54.6100   38.2260 H   0  0  0  0  0  0  0  0  0  0  0  0
   19.7680  -53.5700   39.6570 H   0  0  0  0  0  0  0  0  0  0  0  0
   17.3090  -53.1420   39.5890 H   0  0  0  0  0  0  0  0  0  0  0  0
   17.6090  -54.8990   39.8030 H   0  0  0  0  0  0  0  0  0  0  0  0
  2  1  1  0  0  0  0
  3  2  1  0  0  0  0
  3 31  1  0  0  0  0
  4  3  2  0  0  0  0
  5  6  2  0  0  0  0
  5  4  1  0  0  0  0
  6  7  1  0  0  0  0
  7 33  1  0  0  0  0
  7  2  2  0  0  0  0
  8  5  1  0  0  0  0
  9 35  1  0  0  0  0
  9 34  1  0  0  0  0
  9  8  1  0  0  0  0
 10  4  1  0  0  0  0
 10 11  2  0  0  0  0
 12 11  1  0  0  0  0
 12 38  1  0  0  0  0
 13 14  2  0  0  0  0
 13 12  1  0  0  0  0
 15 25  1  0  0  0  0
 15 14  2  0  0  0  0
 16 15  1  0  0  0  0
 17 16  2  0  0  0  0
 17 18  1  0  0  0  0
 18 13  1  0  0  0  0
 19 17  1  0  0  0  0
 20 40  1  0  0  0  0
 20 39  1  0  0  0  0
 20 19  1  0  0  0  0
 21 20  1  0  0  0  0
 22 21  1  0  0  0  0
 22 23  1  0  0  0  0
 23 24  1  0  0  0  0
 24 46  1  0  0  0  0
 24 19  1  0  0  0  0
 24 45  1  0  0  0  0
 25 30  1  0  0  0  0
 26 47  1  0  0  0  0
 26 25  1  0  0  0  0
 27 26  1  0  0  0  0
 27 28  1  0  0  0  0
 28 29  1  0  0  0  0
 29 30  1  0  0  0  0
 29 52  1  0  0  0  0
 30 53  1  0  0  0  0
 30 54  1  0  0  0  0
 32  6  1  0  0  0  0
 36  9  1  0  0  0  0
 37 10  1  0  0  0  0
 41 21  1  0  0  0  0
 42 21  1  0  0  0  0
 43 23  1  0  0  0  0
 44 23  1  0  0  0  0
 48 26  1  0  0  0  0
 49 27  1  0  0  0  0
 50 27  1  0  0  0  0
 51 29  1  0  0  0  0
M  END
>  <Pose>
1

>  <Score>
-6.96

$$$$
