
 OpenBabel03232204043D

 50 53  0  0  0  0  0  0  0  0999 V2000
   19.0710  -53.8220   37.4270 B   0  0  0  0  0  0  0  0  0  0  0  0
   17.3320  -54.1770   38.1140 C   0  0  0  0  0  0  0  0  0  0  0  0
   16.5470  -55.2160   37.6310 C   0  0  0  0  0  0  0  0  0  0  0  0
   15.2940  -55.4730   38.1230 C   0  0  0  0  0  0  0  0  0  0  0  0
   14.7970  -54.6780   39.1290 C   0  0  0  0  0  0  0  0  0  0  0  0
   15.5680  -53.6500   39.6110 C   0  0  0  0  0  0  0  0  0  0  0  0
   16.8390  -53.3780   39.1220 C   0  0  0  0  0  0  0  0  0  0  0  0
   14.4970  -56.5740   37.5910 C   0  0  0  0  0  0  0  0  0  0  0  0
   13.2450  -56.6050   37.7110 O   0  0  0  0  0  0  0  0  0  0  0  0
   15.1740  -57.6720   36.8980 C   0  0  0  0  0  0  0  0  0  0  0  0
   15.6730  -57.3310   35.6240 N   0  0  0  0  0  0  0  0  0  0  0  0
   15.1010  -57.9990   34.5160 C   0  0  0  0  0  0  0  0  0  0  0  0
   15.7110  -57.7150   33.1970 C   0  0  0  0  0  0  0  0  0  0  0  0
   17.1250  -57.9040   33.2300 N   0  0  0  0  0  0  0  0  0  0  0  0
   17.7930  -57.8520   34.4990 C   0  0  0  0  0  0  0  0  0  0  0  0
   17.0620  -57.0420   35.5440 C   0  0  0  0  0  0  0  0  0  0  0  0
   17.8920  -58.1130   32.0530 C   0  0  0  0  0  0  0  0  0  0  0  0
   18.1880  -57.0530   31.3040 C   0  0  0  0  0  0  0  0  0  0  0  0
   17.9180  -55.6650   31.3770 N   0  0  0  0  0  0  0  0  0  0  0  0
   18.5390  -55.1070   30.2370 N   0  0  0  0  0  0  0  0  0  0  0  0
   19.1640  -56.1410   29.5010 C   0  0  0  0  0  0  0  0  0  0  0  0
   18.9890  -57.3150   30.0880 C   0  0  0  0  0  0  0  0  0  0  0  0
   19.3960  -58.6430   29.7770 N   0  0  0  0  0  0  0  0  0  0  0  0
   19.0840  -59.6340   30.5370 C   0  0  0  0  0  0  0  0  0  0  0  0
   18.3240  -59.4460   31.7070 N   0  0  0  0  0  0  0  0  0  0  0  0
   19.9310  -55.9940   28.2350 C   0  0  0  0  0  0  0  0  0  0  0  0
   17.1680  -54.9740   32.3980 C   0  0  0  0  0  0  0  0  0  0  0  0
   16.9940  -55.8020   36.8410 H   0  0  0  0  0  0  0  0  0  0  0  0
   13.7970  -54.9050   39.5020 H   0  0  0  0  0  0  0  0  0  0  0  0
   15.1960  -53.0140   40.4000 H   0  0  0  0  0  0  0  0  0  0  0  0
   17.4290  -52.5450   39.5340 H   0  0  0  0  0  0  0  0  0  0  0  0
   14.4820  -58.5520   36.8140 H   0  0  0  0  0  0  0  0  0  0  0  0
   16.0320  -58.0700   37.5170 H   0  0  0  0  0  0  0  0  0  0  0  0
   15.0100  -59.0810   34.7260 H   0  0  0  0  0  0  0  0  0  0  0  0
   14.0240  -57.6430   34.4580 H   0  0  0  0  0  0  0  0  0  0  0  0
   15.5150  -56.6360   32.9510 H   0  0  0  0  0  0  0  0  0  0  0  0
   15.2050  -58.2800   32.3890 H   0  0  0  0  0  0  0  0  0  0  0  0
   18.1600  -58.8100   34.8840 H   0  0  0  0  0  0  0  0  0  0  0  0
   18.7410  -57.2600   34.2960 H   0  0  0  0  0  0  0  0  0  0  0  0
   17.5310  -57.2790   36.5220 H   0  0  0  0  0  0  0  0  0  0  0  0
   17.1840  -55.9470   35.3980 H   0  0  0  0  0  0  0  0  0  0  0  0
   18.5000  -54.0860   30.0350 H   0  0  0  0  0  0  0  0  0  0  0  0
   19.4310  -60.6430   30.2400 H   0  0  0  0  0  0  0  0  0  0  0  0
   18.0480  -60.2100   32.3480 H   0  0  0  0  0  0  0  0  0  0  0  0
   19.6930  -55.0150   27.7760 H   0  0  0  0  0  0  0  0  0  0  0  0
   19.8040  -56.8470   27.5650 H   0  0  0  0  0  0  0  0  0  0  0  0
   21.0190  -55.9490   28.5170 H   0  0  0  0  0  0  0  0  0  0  0  0
   16.2240  -55.4330   32.6740 H   0  0  0  0  0  0  0  0  0  0  0  0
   17.8430  -54.7160   33.2410 H   0  0  0  0  0  0  0  0  0  0  0  0
   16.8700  -53.9840   31.9200 H   0  0  0  0  0  0  0  0  0  0  0  0
  1  2  1  0  0  0  0
  2  7  1  0  0  0  0
  3  2  2  0  0  0  0
  3  4  1  0  0  0  0
  4  5  2  0  0  0  0
  5 29  1  0  0  0  0
  5  6  1  0  0  0  0
  6 30  1  0  0  0  0
  7 31  1  0  0  0  0
  7  6  2  0  0  0  0
  8  9  2  0  0  0  0
  8  4  1  0  0  0  0
 10 33  1  0  0  0  0
 10  8  1  0  0  0  0
 11 10  1  0  0  0  0
 12 34  1  0  0  0  0
 12 11  1  0  0  0  0
 13 14  1  0  0  0  0
 13 12  1  0  0  0  0
 14 15  1  0  0  0  0
 15 38  1  0  0  0  0
 15 16  1  0  0  0  0
 16 11  1  0  0  0  0
 16 40  1  0  0  0  0
 17 14  1  0  0  0  0
 18 19  1  0  0  0  0
 18 17  2  0  0  0  0
 19 27  1  0  0  0  0
 20 19  1  0  0  0  0
 21 22  2  0  0  0  0
 21 20  1  0  0  0  0
 22 18  1  0  0  0  0
 23 22  1  0  0  0  0
 23 24  2  0  0  0  0
 24 25  1  0  0  0  0
 25 17  1  0  0  0  0
 25 44  1  0  0  0  0
 26 47  1  0  0  0  0
 26 21  1  0  0  0  0
 27 48  1  0  0  0  0
 27 49  1  0  0  0  0
 28  3  1  0  0  0  0
 32 10  1  0  0  0  0
 35 12  1  0  0  0  0
 36 13  1  0  0  0  0
 37 13  1  0  0  0  0
 39 15  1  0  0  0  0
 41 16  1  0  0  0  0
 42 20  1  0  0  0  0
 43 24  1  0  0  0  0
 45 26  1  0  0  0  0
 46 26  1  0  0  0  0
 50 27  1  0  0  0  0
M  END
>  <Pose>
1

>  <Score>
-6.77

$$$$
