
 OpenBabel03232204043D

 52 55  0  0  1  0  0  0  0  0999 V2000
   18.9390  -55.1960   34.2030 B   0  0  0  0  0  0  0  0  0  0  0  0
   19.0120  -53.9380   35.6600 C   0  0  0  0  0  0  0  0  0  0  0  0
   18.4390  -54.2640   36.8670 C   0  0  0  0  0  0  0  0  0  0  0  0
   18.4850  -53.3570   37.9030 C   0  0  0  0  0  0  0  0  0  0  0  0
   19.0930  -52.1520   37.7430 C   0  0  0  0  0  0  0  0  0  0  0  0
   19.6600  -51.8490   36.5360 C   0  0  0  0  0  0  0  0  0  0  0  0
   19.6400  -52.7280   35.4510 C   0  0  0  0  0  0  0  0  0  0  0  0
   17.8790  -53.7820   39.2200 C   0  0  0  0  0  0  0  0  0  0  0  0
   18.6670  -54.0870   40.0980 O   0  0  0  0  0  0  0  0  0  0  0  0
   16.4880  -53.7460   39.2250 N   0  0  0  0  0  0  0  0  0  0  0  0
   15.6450  -54.6560   38.5390 C   0  0  1  0  0  0  0  0  0  0  0  0
   16.3520  -55.5440   37.5260 C   0  0  0  0  0  0  0  0  0  0  0  0
   14.8090  -55.4710   39.4080 C   0  0  0  0  0  0  0  0  0  0  0  0
   14.5680  -55.0080   40.5670 O   0  0  0  0  0  0  0  0  0  0  0  0
   14.2860  -56.7360   39.0120 N   0  0  0  0  0  0  0  0  0  0  0  0
   13.2390  -56.8700   38.0320 C   0  0  0  0  0  0  0  0  0  0  0  0
   13.9520  -57.5920   36.8640 C   0  0  0  0  0  0  0  0  0  0  0  0
   14.1190  -59.0110   37.3390 C   0  0  2  0  0  0  0  0  0  0  0  0
   15.0990  -59.6310   36.4490 N   0  0  0  0  0  0  0  0  0  0  0  0
   14.7300  -59.5780   35.0840 C   0  0  0  0  0  0  0  0  0  0  0  0
   13.4650  -60.3580   34.7760 C   0  0  0  0  0  0  0  0  0  0  0  0
   12.5090  -60.3180   35.8990 C   0  0  0  0  0  0  0  0  0  0  0  0
   11.2690  -60.8280   35.9770 N   0  0  0  0  0  0  0  0  0  0  0  0
   10.7940  -60.5420   37.2090 C   0  0  0  0  0  0  0  0  0  0  0  0
   11.7520  -59.8530   37.8810 N   0  0  0  0  0  0  0  0  0  0  0  0
   12.8300  -59.6950   37.0900 C   0  0  0  0  0  0  0  0  0  0  0  0
   14.6030  -59.1620   38.7380 C   0  0  0  0  0  0  0  0  0  0  0  0
   14.7970  -57.9380   39.5660 C   0  0  0  0  0  0  0  0  0  0  0  0
   17.9450  -55.2300   37.0490 H   0  0  0  0  0  0  0  0  0  0  0  0
   19.1340  -51.4380   38.5920 H   0  0  0  0  0  0  0  0  0  0  0  0
   20.1580  -50.8900   36.3680 H   0  0  0  0  0  0  0  0  0  0  0  0
   20.0970  -52.5030   34.4960 H   0  0  0  0  0  0  0  0  0  0  0  0
   15.9900  -52.9540   39.7330 H   0  0  0  0  0  0  0  0  0  0  0  0
   15.0150  -54.0060   37.8600 H   0  0  0  0  0  0  0  0  0  0  0  0
   15.7820  -56.5220   37.4390 H   0  0  0  0  0  0  0  0  0  0  0  0
   16.2580  -55.1040   36.4680 H   0  0  0  0  0  0  0  0  0  0  0  0
   17.3710  -55.7700   37.7520 H   0  0  0  0  0  0  0  0  0  0  0  0
   12.8420  -55.9430   37.5930 H   0  0  0  0  0  0  0  0  0  0  0  0
   12.4130  -57.5200   38.3000 H   0  0  0  0  0  0  0  0  0  0  0  0
   13.2030  -57.5480   36.0500 H   0  0  0  0  0  0  0  0  0  0  0  0
   14.8470  -57.0810   36.5440 H   0  0  0  0  0  0  0  0  0  0  0  0
   15.3610  -60.6000   36.7650 H   0  0  0  0  0  0  0  0  0  0  0  0
   14.6800  -58.5400   34.7370 H   0  0  0  0  0  0  0  0  0  0  0  0
   15.5310  -60.0640   34.4870 H   0  0  0  0  0  0  0  0  0  0  0  0
   13.7060  -61.4390   34.5780 H   0  0  0  0  0  0  0  0  0  0  0  0
   13.0260  -59.9160   33.8550 H   0  0  0  0  0  0  0  0  0  0  0  0
    9.8040  -60.8270   37.5840 H   0  0  0  0  0  0  0  0  0  0  0  0
   11.5620  -59.5490   38.8570 H   0  0  0  0  0  0  0  0  0  0  0  0
   13.8870  -59.8130   39.2810 H   0  0  0  0  0  0  0  0  0  0  0  0
   15.5780  -59.7360   38.7620 H   0  0  0  0  0  0  0  0  0  0  0  0
   15.8590  -57.7710   39.7970 H   0  0  0  0  0  0  0  0  0  0  0  0
   14.2930  -58.0570   40.5770 H   0  0  0  0  0  0  0  0  0  0  0  0
  1  2  1  0  0  0  0
  2  3  1  0  0  0  0
  3 29  1  0  0  0  0
  3  4  2  0  0  0  0
  4  8  1  0  0  0  0
  5  4  1  0  0  0  0
  5 30  1  0  0  0  0
  6  5  2  0  0  0  0
  7  2  2  0  0  0  0
  7  6  1  0  0  0  0
  8 10  1  0  0  0  0
  8  9  2  0  0  0  0
 10 33  1  0  0  0  0
 11 34  1  6  0  0  0
 11 10  1  0  0  0  0
 11 13  1  0  0  0  0
 12 37  1  0  0  0  0
 12 11  1  0  0  0  0
 13 14  2  0  0  0  0
 15 13  1  0  0  0  0
 15 28  1  0  0  0  0
 16 39  1  0  0  0  0
 16 15  1  0  0  0  0
 17 18  1  0  0  0  0
 17 16  1  0  0  0  0
 18 26  1  6  0  0  0
 18 27  1  0  0  0  0
 19 42  1  0  0  0  0
 19 18  1  0  0  0  0
 20 19  1  0  0  0  0
 21 20  1  0  0  0  0
 21 22  1  0  0  0  0
 22 23  1  0  0  0  0
 22 26  2  0  0  0  0
 23 24  2  0  0  0  0
 24 47  1  0  0  0  0
 24 25  1  0  0  0  0
 25 48  1  0  0  0  0
 26 25  1  0  0  0  0
 27 50  1  0  0  0  0
 27 49  1  0  0  0  0
 27 28  1  0  0  0  0
 28 51  1  0  0  0  0
 28 52  1  0  0  0  0
 31  6  1  0  0  0  0
 32  7  1  0  0  0  0
 35 12  1  0  0  0  0
 36 12  1  0  0  0  0
 38 16  1  0  0  0  0
 40 17  1  0  0  0  0
 41 17  1  0  0  0  0
 43 20  1  0  0  0  0
 44 20  1  0  0  0  0
 45 21  1  0  0  0  0
 46 21  1  0  0  0  0
M  END
>  <Pose>
1

>  <Score>
-6.32

$$$$
