
 OpenBabel03232204043D

 49 52  0  0  0  0  0  0  0  0999 V2000
   19.3430  -53.8090   36.7870 B   0  0  0  0  0  0  0  0  0  0  0  0
   17.8460  -53.5870   37.9130 C   0  0  0  0  0  0  0  0  0  0  0  0
   16.9930  -54.6580   38.1350 C   0  0  0  0  0  0  0  0  0  0  0  0
   15.8950  -54.5280   38.9440 C   0  0  0  0  0  0  0  0  0  0  0  0
   15.5840  -53.3560   39.5660 C   0  0  0  0  0  0  0  0  0  0  0  0
   16.4390  -52.2710   39.3470 C   0  0  0  0  0  0  0  0  0  0  0  0
   17.5490  -52.3990   38.5330 C   0  0  0  0  0  0  0  0  0  0  0  0
   14.9820  -55.6920   39.2220 C   0  0  0  0  0  0  0  0  0  0  0  0
   14.3150  -55.5620   40.3080 O   0  0  0  0  0  0  0  0  0  0  0  0
   14.9590  -56.6900   38.3540 N   0  0  0  0  0  0  0  0  0  0  0  0
   14.9360  -57.7350   37.4440 C   0  0  0  0  0  0  0  0  0  0  0  0
   13.5250  -58.1600   37.1260 C   0  0  0  0  0  0  0  0  0  0  0  0
   12.7220  -58.1290   38.1240 O   0  0  0  0  0  0  0  0  0  0  0  0
   13.0940  -58.5630   35.8540 N   0  0  0  0  0  0  0  0  0  0  0  0
   13.0130  -57.6700   34.7430 C   0  0  0  0  0  0  0  0  0  0  0  0
   13.3730  -58.3290   33.4410 C   0  0  0  0  0  0  0  0  0  0  0  0
   14.2180  -59.5760   33.5730 C   0  0  0  0  0  0  0  0  0  0  0  0
   14.1720  -60.1680   32.2430 N   0  0  0  0  0  0  0  0  0  0  0  0
   15.0520  -61.2480   32.0100 C   0  0  0  0  0  0  0  0  0  0  0  0
   16.1950  -61.4270   32.9410 C   0  0  0  0  0  0  0  0  0  0  0  0
   16.6150  -60.1300   33.5580 C   0  0  0  0  0  0  0  0  0  0  0  0
   17.8130  -59.6500   33.8890 N   0  0  0  0  0  0  0  0  0  0  0  0
   17.5880  -58.4260   34.4090 C   0  0  0  0  0  0  0  0  0  0  0  0
   16.2650  -58.1500   34.4020 N   0  0  0  0  0  0  0  0  0  0  0  0
   15.6270  -59.2290   33.8620 C   0  0  0  0  0  0  0  0  0  0  0  0
   13.7080  -60.5540   34.6010 C   0  0  0  0  0  0  0  0  0  0  0  0
   12.7180  -59.9440   35.5760 C   0  0  0  0  0  0  0  0  0  0  0  0
   17.1940  -55.5960   37.6720 H   0  0  0  0  0  0  0  0  0  0  0  0
   14.7200  -53.2840   40.1940 H   0  0  0  0  0  0  0  0  0  0  0  0
   16.2280  -51.3290   39.8180 H   0  0  0  0  0  0  0  0  0  0  0  0
   18.2100  -51.5610   38.3670 H   0  0  0  0  0  0  0  0  0  0  0  0
   16.0040  -57.3090   39.0170 H   0  0  0  0  0  0  0  0  0  0  0  0
   15.4780  -58.6530   37.8610 H   0  0  0  0  0  0  0  0  0  0  0  0
   15.5140  -57.5160   36.5140 H   0  0  0  0  0  0  0  0  0  0  0  0
   11.9190  -57.3890   34.6600 H   0  0  0  0  0  0  0  0  0  0  0  0
   13.5210  -56.7010   34.9050 H   0  0  0  0  0  0  0  0  0  0  0  0
   12.4640  -58.5800   32.8820 H   0  0  0  0  0  0  0  0  0  0  0  0
   13.9910  -57.5960   32.8790 H   0  0  0  0  0  0  0  0  0  0  0  0
   13.1580  -60.4570   32.1300 H   0  0  0  0  0  0  0  0  0  0  0  0
   15.4920  -61.1020   30.9770 H   0  0  0  0  0  0  0  0  0  0  0  0
   14.4490  -62.2000   31.9240 H   0  0  0  0  0  0  0  0  0  0  0  0
   15.9280  -62.1710   33.7270 H   0  0  0  0  0  0  0  0  0  0  0  0
   17.0530  -61.9050   32.3890 H   0  0  0  0  0  0  0  0  0  0  0  0
   18.3770  -57.7930   34.7670 H   0  0  0  0  0  0  0  0  0  0  0  0
   15.8290  -57.2790   34.7470 H   0  0  0  0  0  0  0  0  0  0  0  0
   14.5800  -60.9010   35.2340 H   0  0  0  0  0  0  0  0  0  0  0  0
   13.2270  -61.4450   34.1660 H   0  0  0  0  0  0  0  0  0  0  0  0
   11.6730  -60.0090   35.1950 H   0  0  0  0  0  0  0  0  0  0  0  0
   12.7990  -60.5130   36.5200 H   0  0  0  0  0  0  0  0  0  0  0  0
  1  2  1  0  0  0  0
  2  3  2  0  0  0  0
  2  7  1  0  0  0  0
  3  4  1  0  0  0  0
  4  8  1  0  0  0  0
  4  5  2  0  0  0  0
  5 29  1  0  0  0  0
  6  5  1  0  0  0  0
  6 30  1  0  0  0  0
  7  6  2  0  0  0  0
  8  9  2  0  0  0  0
 10 32  1  0  0  0  0
 10  8  1  0  0  0  0
 11 33  1  0  0  0  0
 11 10  1  0  0  0  0
 12 11  1  0  0  0  0
 12 13  2  0  0  0  0
 14 12  1  0  0  0  0
 15 36  1  0  0  0  0
 15 14  1  0  0  0  0
 16 17  1  0  0  0  0
 16 15  1  0  0  0  0
 17 25  1  0  0  0  0
 17 26  1  0  0  0  0
 18 17  1  0  0  0  0
 19 18  1  0  0  0  0
 19 20  1  0  0  0  0
 20 21  1  0  0  0  0
 20 42  1  0  0  0  0
 21 25  2  0  0  0  0
 21 22  1  0  0  0  0
 22 23  2  0  0  0  0
 23 44  1  0  0  0  0
 24 23  1  0  0  0  0
 24 45  1  0  0  0  0
 25 24  1  0  0  0  0
 26 46  1  0  0  0  0
 26 27  1  0  0  0  0
 27 14  1  0  0  0  0
 27 49  1  0  0  0  0
 28  3  1  0  0  0  0
 31  7  1  0  0  0  0
 34 11  1  0  0  0  0
 35 15  1  0  0  0  0
 37 16  1  0  0  0  0
 38 16  1  0  0  0  0
 39 18  1  0  0  0  0
 40 19  1  0  0  0  0
 41 19  1  0  0  0  0
 43 20  1  0  0  0  0
 47 26  1  0  0  0  0
 48 27  1  0  0  0  0
M  END
>  <Pose>
1

>  <Score>
-7.62

$$$$
