
 OpenBabel03232204043D

 49 52  0  0  0  0  0  0  0  0999 V2000
   13.3920  -58.4030   34.3400 B   0  0  0  0  0  0  0  0  0  0  0  0
   13.1660  -58.2770   36.2160 C   0  0  0  0  0  0  0  0  0  0  0  0
   13.8510  -57.2980   36.9140 C   0  0  0  0  0  0  0  0  0  0  0  0
   13.7310  -57.1540   38.2840 C   0  0  0  0  0  0  0  0  0  0  0  0
   12.8890  -58.0280   38.9560 C   0  0  0  0  0  0  0  0  0  0  0  0
   12.2110  -58.9980   38.2560 C   0  0  0  0  0  0  0  0  0  0  0  0
   12.3200  -59.1570   36.8920 C   0  0  0  0  0  0  0  0  0  0  0  0
   14.4390  -56.1340   39.0450 C   0  0  0  0  0  0  0  0  0  0  0  0
   14.0020  -55.7900   40.1730 O   0  0  0  0  0  0  0  0  0  0  0  0
   15.6110  -55.4990   38.5780 N   0  0  0  0  0  0  0  0  0  0  0  0
   16.0950  -54.2630   39.1540 C   0  0  0  0  0  0  0  0  0  0  0  0
   17.4670  -53.9370   38.6840 C   0  0  0  0  0  0  0  0  0  0  0  0
   18.3840  -53.9670   39.5410 O   0  0  0  0  0  0  0  0  0  0  0  0
   17.7780  -53.6070   37.3560 N   0  0  0  0  0  0  0  0  0  0  0  0
   17.1180  -54.2210   36.2300 C   0  0  0  0  0  0  0  0  0  0  0  0
   18.1730  -55.0000   35.4750 C   0  0  0  0  0  0  0  0  0  0  0  0
   19.3650  -54.1120   35.2050 C   0  0  0  0  0  0  0  0  0  0  0  0
   20.5070  -54.6760   35.8940 N   0  0  0  0  0  0  0  0  0  0  0  0
   21.7430  -54.0230   35.6370 C   0  0  0  0  0  0  0  0  0  0  0  0
   21.9930  -53.5690   34.2460 C   0  0  0  0  0  0  0  0  0  0  0  0
   20.9470  -53.9510   33.2750 C   0  0  0  0  0  0  0  0  0  0  0  0
   20.9630  -54.1120   31.9160 N   0  0  0  0  0  0  0  0  0  0  0  0
   19.7220  -54.4630   31.5570 C   0  0  0  0  0  0  0  0  0  0  0  0
   18.9470  -54.5240   32.6520 N   0  0  0  0  0  0  0  0  0  0  0  0
   19.6810  -54.2080   33.7480 C   0  0  0  0  0  0  0  0  0  0  0  0
   19.1700  -52.6810   35.5900 C   0  0  0  0  0  0  0  0  0  0  0  0
   18.7880  -52.6200   37.0720 C   0  0  0  0  0  0  0  0  0  0  0  0
   14.4860  -56.6490   36.3640 H   0  0  0  0  0  0  0  0  0  0  0  0
   12.7360  -57.9840   40.0310 H   0  0  0  0  0  0  0  0  0  0  0  0
   11.5480  -59.6920   38.7640 H   0  0  0  0  0  0  0  0  0  0  0  0
   11.8090  -59.8960   36.3200 H   0  0  0  0  0  0  0  0  0  0  0  0
   16.1410  -55.9350   37.7970 H   0  0  0  0  0  0  0  0  0  0  0  0
   16.1530  -54.3380   40.2590 H   0  0  0  0  0  0  0  0  0  0  0  0
   15.3580  -53.4790   38.8900 H   0  0  0  0  0  0  0  0  0  0  0  0
   16.6940  -53.4410   35.5490 H   0  0  0  0  0  0  0  0  0  0  0  0
   16.2620  -54.8530   36.5230 H   0  0  0  0  0  0  0  0  0  0  0  0
   17.7690  -55.4350   34.5360 H   0  0  0  0  0  0  0  0  0  0  0  0
   18.4530  -55.8540   36.1500 H   0  0  0  0  0  0  0  0  0  0  0  0
   20.3220  -54.6300   36.9300 H   0  0  0  0  0  0  0  0  0  0  0  0
   22.5580  -54.7640   35.8930 H   0  0  0  0  0  0  0  0  0  0  0  0
   21.9400  -53.1760   36.3490 H   0  0  0  0  0  0  0  0  0  0  0  0
   22.9760  -53.9510   33.8370 H   0  0  0  0  0  0  0  0  0  0  0  0
   22.1220  -52.4500   34.1900 H   0  0  0  0  0  0  0  0  0  0  0  0
   21.8220  -53.9710   31.3070 H   0  0  0  0  0  0  0  0  0  0  0  0
   19.3960  -54.6670   30.5510 H   0  0  0  0  0  0  0  0  0  0  0  0
   18.4620  -52.1470   34.9560 H   0  0  0  0  0  0  0  0  0  0  0  0
   20.1460  -52.1720   35.5120 H   0  0  0  0  0  0  0  0  0  0  0  0
   18.3870  -51.6180   37.3270 H   0  0  0  0  0  0  0  0  0  0  0  0
   19.7110  -52.7630   37.6400 H   0  0  0  0  0  0  0  0  0  0  0  0
  1  2  1  0  0  0  0
  2  7  2  0  0  0  0
  2  3  1  0  0  0  0
  3  4  2  0  0  0  0
  4  5  1  0  0  0  0
  4  8  1  0  0  0  0
  5 29  1  0  0  0  0
  6 30  1  0  0  0  0
  6  5  2  0  0  0  0
  7  6  1  0  0  0  0
  8  9  2  0  0  0  0
 10  8  1  0  0  0  0
 10 11  1  0  0  0  0
 11 33  1  0  0  0  0
 12 11  1  0  0  0  0
 12 13  2  0  0  0  0
 14 12  1  0  0  0  0
 15 36  1  0  0  0  0
 15 14  1  0  0  0  0
 16 38  1  0  0  0  0
 16 15  1  0  0  0  0
 17 16  1  0  0  0  0
 17 26  1  0  0  0  0
 17 18  1  0  0  0  0
 18 39  1  0  0  0  0
 19 40  1  0  0  0  0
 19 18  1  0  0  0  0
 19 41  1  0  0  0  0
 20 19  1  0  0  0  0
 21 25  2  0  0  0  0
 21 20  1  0  0  0  0
 22 21  1  0  0  0  0
 23 22  1  0  0  0  0
 23 24  2  0  0  0  0
 24 25  1  0  0  0  0
 25 17  1  0  0  0  0
 26 27  1  0  0  0  0
 27 48  1  0  0  0  0
 27 14  1  0  0  0  0
 27 49  1  0  0  0  0
 28  3  1  0  0  0  0
 31  7  1  0  0  0  0
 32 10  1  0  0  0  0
 34 11  1  0  0  0  0
 35 15  1  0  0  0  0
 37 16  1  0  0  0  0
 42 20  1  0  0  0  0
 43 20  1  0  0  0  0
 44 22  1  0  0  0  0
 45 23  1  0  0  0  0
 46 26  1  0  0  0  0
 47 26  1  0  0  0  0
M  END
>  <Pose>
1

>  <Score>
-7.61

$$$$
