
 OpenBabel03232204043D

 42 45  0  0  1  0  0  0  0  0999 V2000
    9.9200  -62.8260   32.9780 B   0  0  0  0  0  0  0  0  0  0  0  0
   11.5470  -62.0660   33.6020 C   0  0  0  0  0  0  0  0  0  0  0  0
   11.6520  -61.4550   34.8250 C   0  0  0  0  0  0  0  0  0  0  0  0
   12.8130  -60.8990   35.2990 C   0  0  0  0  0  0  0  0  0  0  0  0
   13.9160  -60.9730   34.4830 C   0  0  0  0  0  0  0  0  0  0  0  0
   13.8530  -61.5890   33.2240 C   0  0  0  0  0  0  0  0  0  0  0  0
   12.6570  -62.1370   32.7880 C   0  0  0  0  0  0  0  0  0  0  0  0
   12.9090  -60.2550   36.5980 C   0  0  0  0  0  0  0  0  0  0  0  0
   11.8280  -60.2380   37.2840 O   0  0  0  0  0  0  0  0  0  0  0  0
   14.0770  -59.6680   37.1320 N   0  0  0  0  0  0  0  0  0  0  0  0
   14.2930  -58.2730   37.0170 C   0  0  2  0  0  0  0  0  0  0  0  0
   15.6780  -57.8700   36.6340 C   0  0  0  0  0  0  0  0  0  0  0  0
   15.7390  -56.4620   37.0640 N   0  0  0  0  0  0  0  0  0  0  0  0
   14.6040  -56.1760   37.9290 C   0  0  1  0  0  0  0  0  0  0  0  0
   14.1390  -57.5350   38.3550 C   0  0  0  0  0  0  0  0  0  0  0  0
   15.0730  -55.3290   39.0220 C   0  0  0  0  0  0  0  0  0  0  0  0
   14.6120  -55.4450   40.1640 O   0  0  0  0  0  0  0  0  0  0  0  0
   16.0840  -54.3430   38.7700 N   0  0  0  0  0  0  0  0  0  0  0  0
   16.3860  -54.0840   37.3830 C   0  0  1  0  0  0  0  0  0  0  0  0
   17.5050  -53.1310   37.2700 C   0  0  0  0  0  0  0  0  0  0  0  0
   17.5510  -52.5190   38.6560 C   0  0  0  0  0  0  0  0  0  0  0  0
   16.9160  -53.5050   39.5770 C   0  0  0  0  0  0  0  0  0  0  0  0
   16.6780  -55.4290   36.7780 C   0  0  0  0  0  0  0  0  0  0  0  0
   17.6860  -55.6270   36.0640 O   0  0  0  0  0  0  0  0  0  0  0  0
   10.7800  -61.3940   35.4760 H   0  0  0  0  0  0  0  0  0  0  0  0
   14.8700  -60.5620   34.7760 H   0  0  0  0  0  0  0  0  0  0  0  0
   14.7200  -61.6470   32.5830 H   0  0  0  0  0  0  0  0  0  0  0  0
   12.6540  -62.6020   31.8110 H   0  0  0  0  0  0  0  0  0  0  0  0
   14.7720  -60.2710   37.6080 H   0  0  0  0  0  0  0  0  0  0  0  0
   13.5880  -57.7700   36.3250 H   0  0  0  0  0  0  0  0  0  0  0  0
   16.3800  -58.4700   37.2790 H   0  0  0  0  0  0  0  0  0  0  0  0
   15.9300  -57.9930   35.5820 H   0  0  0  0  0  0  0  0  0  0  0  0
   13.8330  -55.6710   37.2910 H   0  0  0  0  0  0  0  0  0  0  0  0
   14.8210  -57.9320   39.1100 H   0  0  0  0  0  0  0  0  0  0  0  0
   13.0710  -57.5450   38.6520 H   0  0  0  0  0  0  0  0  0  0  0  0
   15.4500  -53.7480   36.8580 H   0  0  0  0  0  0  0  0  0  0  0  0
   17.2100  -52.3160   36.5630 H   0  0  0  0  0  0  0  0  0  0  0  0
   18.4680  -53.5460   36.9470 H   0  0  0  0  0  0  0  0  0  0  0  0
   16.9330  -51.5760   38.6750 H   0  0  0  0  0  0  0  0  0  0  0  0
   18.5960  -52.2710   38.8830 H   0  0  0  0  0  0  0  0  0  0  0  0
   17.7320  -54.0640   40.0900 H   0  0  0  0  0  0  0  0  0  0  0  0
   16.3270  -52.9460   40.3600 H   0  0  0  0  0  0  0  0  0  0  0  0
  1  2  1  0  0  0  0
  2  3  1  0  0  0  0
  3  4  2  0  0  0  0
  3 25  1  0  0  0  0
  4  8  1  0  0  0  0
  5 26  1  0  0  0  0
  5  4  1  0  0  0  0
  6  5  2  0  0  0  0
  7  6  1  0  0  0  0
  7  2  2  0  0  0  0
  8 10  1  0  0  0  0
  8  9  2  0  0  0  0
 10 29  1  0  0  0  0
 11 30  1  6  0  0  0
 11 10  1  0  0  0  0
 11 15  1  0  0  0  0
 12 11  1  0  0  0  0
 12 13  1  0  0  0  0
 12 31  1  0  0  0  0
 13 14  1  0  0  0  0
 14 33  1  6  0  0  0
 14 15  1  0  0  0  0
 14 16  1  0  0  0  0
 15 35  1  0  0  0  0
 15 34  1  0  0  0  0
 16 17  2  0  0  0  0
 18 16  1  0  0  0  0
 18 22  1  0  0  0  0
 19 36  1  6  0  0  0
 19 18  1  0  0  0  0
 20 19  1  0  0  0  0
 20 21  1  0  0  0  0
 21 39  1  0  0  0  0
 21 40  1  0  0  0  0
 21 22  1  0  0  0  0
 22 41  1  0  0  0  0
 22 42  1  0  0  0  0
 23 13  1  0  0  0  0
 23 19  1  0  0  0  0
 24 23  2  0  0  0  0
 27  6  1  0  0  0  0
 28  7  1  0  0  0  0
 32 12  1  0  0  0  0
 37 20  1  0  0  0  0
 38 20  1  0  0  0  0
M  END
>  <Pose>
1

>  <Score>
-6.42

$$$$
