
 OpenBabel03232204043D

 44 47  0  0  0  0  0  0  0  0999 V2000
   13.7280  -58.0640   33.7840 B   0  0  0  0  0  0  0  0  0  0  0  0
   13.3390  -58.3590   35.6290 C   0  0  0  0  0  0  0  0  0  0  0  0
   13.9450  -57.5120   36.5670 C   0  0  0  0  0  0  0  0  0  0  0  0
   13.7020  -57.6430   37.9430 C   0  0  0  0  0  0  0  0  0  0  0  0
   12.8550  -58.6420   38.3300 C   0  0  0  0  0  0  0  0  0  0  0  0
   12.2310  -59.5080   37.4060 C   0  0  0  0  0  0  0  0  0  0  0  0
   12.5010  -59.3370   36.0230 C   0  0  0  0  0  0  0  0  0  0  0  0
   14.0360  -56.5100   38.8470 C   0  0  0  0  0  0  0  0  0  0  0  0
   14.9980  -55.6450   38.5070 C   0  0  0  0  0  0  0  0  0  0  0  0
   15.7400  -55.6840   37.4000 O   0  0  0  0  0  0  0  0  0  0  0  0
   16.6310  -54.5810   37.3770 C   0  0  0  0  0  0  0  0  0  0  0  0
   16.4710  -53.8070   38.4770 C   0  0  0  0  0  0  0  0  0  0  0  0
   17.2220  -52.6380   38.5690 C   0  0  0  0  0  0  0  0  0  0  0  0
   18.1050  -52.3040   37.5900 C   0  0  0  0  0  0  0  0  0  0  0  0
   18.2670  -53.1300   36.4960 C   0  0  0  0  0  0  0  0  0  0  0  0
   17.5550  -54.2950   36.3350 C   0  0  0  0  0  0  0  0  0  0  0  0
   17.9090  -55.4580   35.5460 C   0  0  0  0  0  0  0  0  0  0  0  0
   17.5050  -56.1820   34.4840 N   0  0  0  0  0  4  0  0  0  0  0  0
   17.5120  -55.7940   33.1420 C   0  0  0  0  0  0  0  0  0  0  0  0
   18.7600  -56.2630   32.3610 C   0  0  0  0  0  0  0  0  0  0  0  0
   18.8410  -57.6290   32.2300 O   0  0  0  0  0  0  0  0  0  0  0  0
   18.4200  -58.2390   33.4170 C   0  0  0  0  0  0  0  0  0  0  0  0
   18.5010  -57.3740   34.5620 C   0  0  0  0  0  0  0  0  0  0  0  0
   19.1930  -52.7510   35.5220 O   0  0  0  0  0  0  0  0  0  0  0  0
   15.4090  -54.4630   39.2760 C   0  0  0  0  0  0  0  0  0  0  0  0
   14.9640  -54.0880   40.3760 O   0  0  0  0  0  0  0  0  0  0  0  0
   14.5540  -56.7550   36.1930 H   0  0  0  0  0  0  0  0  0  0  0  0
   12.6070  -58.8130   39.3440 H   0  0  0  0  0  0  0  0  0  0  0  0
   11.5520  -60.2960   37.6410 H   0  0  0  0  0  0  0  0  0  0  0  0
   12.0260  -59.9680   35.3070 H   0  0  0  0  0  0  0  0  0  0  0  0
   13.5440  -56.3880   39.7840 H   0  0  0  0  0  0  0  0  0  0  0  0
   17.1040  -52.0190   39.4190 H   0  0  0  0  0  0  0  0  0  0  0  0
   18.6960  -51.3630   37.6560 H   0  0  0  0  0  0  0  0  0  0  0  0
   18.9700  -54.9070   35.0030 H   0  0  0  0  0  0  0  0  0  0  0  0
   18.6670  -56.0960   36.2490 H   0  0  0  0  0  0  0  0  0  0  0  0
   16.5520  -56.6570   34.7110 H   0  0  0  0  0  0  0  0  0  0  0  0
   17.3980  -54.7130   32.9560 H   0  0  0  0  0  0  0  0  0  0  0  0
   16.6390  -56.3120   32.5610 H   0  0  0  0  0  0  0  0  0  0  0  0
   19.6560  -55.7820   32.8050 H   0  0  0  0  0  0  0  0  0  0  0  0
   18.5970  -55.8560   31.3170 H   0  0  0  0  0  0  0  0  0  0  0  0
   17.4520  -58.7460   33.3660 H   0  0  0  0  0  0  0  0  0  0  0  0
   19.1800  -59.0730   33.6190 H   0  0  0  0  0  0  0  0  0  0  0  0
   19.4960  -56.8120   34.6730 H   0  0  0  0  0  0  0  0  0  0  0  0
   18.2620  -57.8250   35.4850 H   0  0  0  0  0  0  0  0  0  0  0  0
  1  2  1  0  0  0  0
  2  7  2  0  0  0  0
  2  3  1  0  0  0  0
  3  4  2  0  0  0  0
  4  5  1  0  0  0  0
  4  8  1  0  0  0  0
  5 28  1  0  0  0  0
  6 29  1  0  0  0  0
  6  5  2  0  0  0  0
  7  6  1  0  0  0  0
  8 31  1  0  0  0  0
  9  8  2  0  0  0  0
  9 25  1  0  0  0  0
 10  9  1  0  0  0  0
 11 10  1  0  0  0  0
 11 12  1  0  0  0  0
 12 13  2  0  0  0  0
 12 25  1  0  0  0  0
 13 32  1  0  0  0  0
 14 33  1  0  0  0  0
 14 13  1  0  0  0  0
 15 14  2  0  0  0  0
 16 15  1  0  0  0  0
 16 11  2  0  0  0  0
 17 35  1  0  0  0  0
 17 16  1  0  0  0  0
 18 23  1  0  0  0  0
 18 36  1  0  0  0  0
 18 17  1  0  0  0  0
 19 18  1  0  0  0  0
 20 39  1  0  0  0  0
 20 19  1  0  0  0  0
 21 20  1  0  0  0  0
 21 22  1  0  0  0  0
 22 42  1  0  0  0  0
 22 23  1  0  0  0  0
 23 43  1  0  0  0  0
 23 44  1  0  0  0  0
 24 15  1  0  0  0  0
 25 26  2  0  0  0  0
 27  3  1  0  0  0  0
 30  7  1  0  0  0  0
 34 17  1  0  0  0  0
 37 19  1  0  0  0  0
 38 19  1  0  0  0  0
 40 20  1  0  0  0  0
 41 22  1  0  0  0  0
M  END
>  <Pose>
1

>  <Score>
-7.17

$$$$
