
 OpenBabel03232204043D

 52 55  0  0  0  0  0  0  0  0999 V2000
    8.9370  -62.8750   32.5990 B   0  0  0  0  0  0  0  0  0  0  0  0
    9.9750  -63.2100   34.1760 C   0  0  0  0  0  0  0  0  0  0  0  0
   11.0020  -62.3530   34.5700 C   0  0  0  0  0  0  0  0  0  0  0  0
   11.7420  -62.6580   35.6960 C   0  0  0  0  0  0  0  0  0  0  0  0
   11.4210  -63.8080   36.3940 C   0  0  0  0  0  0  0  0  0  0  0  0
   10.4050  -64.6160   35.9740 C   0  0  0  0  0  0  0  0  0  0  0  0
    9.6440  -64.3740   34.8600 C   0  0  0  0  0  0  0  0  0  0  0  0
   12.9390  -61.9230   36.1500 C   0  0  0  0  0  0  0  0  0  0  0  0
   13.1000  -60.6450   35.9470 N   0  0  0  0  0  0  0  0  0  0  0  0
   14.1230  -59.8930   36.2870 N   0  0  0  0  0  0  0  0  0  0  0  0
   15.0050  -58.8640   36.1310 C   0  0  0  0  0  0  0  0  0  0  0  0
   16.0470  -58.8340   35.4390 O   0  0  0  0  0  0  0  0  0  0  0  0
   14.6490  -57.5910   36.8870 C   0  0  0  0  0  0  0  0  0  0  0  0
   13.6670  -57.3110   37.6720 N   0  0  0  0  0  0  0  0  0  0  0  0
   13.8780  -56.1390   38.2640 N   0  0  0  0  0  0  0  0  0  0  0  0
   15.0710  -55.6470   37.8370 N   0  0  0  0  0  0  0  0  0  0  0  0
   15.5690  -56.4740   36.9790 C   0  0  0  0  0  0  0  0  0  0  0  0
   16.7520  -56.5120   36.1260 C   0  0  0  0  0  0  0  0  0  0  0  0
   17.0960  -55.4920   35.2440 N   0  0  0  0  0  0  0  0  0  0  0  0
   17.8450  -54.3790   35.2960 C   0  0  0  0  0  0  0  0  0  0  0  0
   19.1270  -54.6110   34.4510 C   0  0  0  0  0  0  0  0  0  0  0  0
   19.3570  -56.0110   34.4100 N   0  0  0  0  0  0  0  0  0  0  0  0
   18.3800  -56.6700   33.5980 C   0  0  0  0  0  0  0  0  0  0  0  0
   17.0340  -55.9730   33.8320 C   0  0  0  0  0  0  0  0  0  0  0  0
   20.6700  -56.4980   34.3380 C   0  0  0  0  0  0  0  0  0  0  0  0
   15.7070  -54.6500   38.6850 C   0  0  0  0  0  0  0  0  0  0  0  0
   14.8160  -54.0770   39.6660 N   0  0  0  0  0  0  0  0  0  0  0  0
   15.4050  -53.2260   40.3630 O   0  0  0  0  0  0  0  0  0  0  0  0
   16.6370  -53.1300   39.9670 N   0  0  0  0  0  0  0  0  0  0  0  0
   16.8120  -54.0300   38.9170 C   0  0  0  0  0  0  0  0  0  0  0  0
   18.0750  -54.1340   38.3010 N   0  0  0  0  0  0  0  0  0  0  0  0
   11.2160  -61.4810   33.9980 H   0  0  0  0  0  0  0  0  0  0  0  0
   12.0100  -64.0210   37.2800 H   0  0  0  0  0  0  0  0  0  0  0  0
   10.1400  -65.5330   36.5480 H   0  0  0  0  0  0  0  0  0  0  0  0
    8.8630  -65.0430   34.5620 H   0  0  0  0  0  0  0  0  0  0  0  0
   13.7770  -62.4260   36.5800 H   0  0  0  0  0  0  0  0  0  0  0  0
   14.4160  -60.3400   37.3880 H   0  0  0  0  0  0  0  0  0  0  0  0
   17.6390  -56.5060   36.9900 H   0  0  0  0  0  0  0  0  0  0  0  0
   16.9880  -57.4860   35.6890 H   0  0  0  0  0  0  0  0  0  0  0  0
   18.0990  -53.9010   36.2210 H   0  0  0  0  0  0  0  0  0  0  0  0
   17.2850  -53.5440   34.7070 H   0  0  0  0  0  0  0  0  0  0  0  0
   18.9710  -54.2200   33.4620 H   0  0  0  0  0  0  0  0  0  0  0  0
   19.9390  -54.1180   34.9930 H   0  0  0  0  0  0  0  0  0  0  0  0
   18.2390  -57.7700   33.8340 H   0  0  0  0  0  0  0  0  0  0  0  0
   18.6670  -56.6140   32.5420 H   0  0  0  0  0  0  0  0  0  0  0  0
   16.1770  -56.5740   33.6700 H   0  0  0  0  0  0  0  0  0  0  0  0
   16.9880  -55.0920   33.2200 H   0  0  0  0  0  0  0  0  0  0  0  0
   21.3670  -55.6100   34.3150 H   0  0  0  0  0  0  0  0  0  0  0  0
   20.8900  -57.0620   35.2990 H   0  0  0  0  0  0  0  0  0  0  0  0
   20.8650  -57.1290   33.4700 H   0  0  0  0  0  0  0  0  0  0  0  0
   18.4140  -55.1570   38.2180 H   0  0  0  0  0  0  0  0  0  0  0  0
   18.7050  -53.4480   37.9330 H   0  0  0  0  0  0  0  0  0  0  0  0
  1  2  1  0  0  0  0
  2  3  2  0  0  0  0
  2  7  1  0  0  0  0
  3  4  1  0  0  0  0
  4  8  1  0  0  0  0
  4  5  2  0  0  0  0
  5 33  1  0  0  0  0
  6  5  1  0  0  0  0
  6 34  1  0  0  0  0
  7  6  2  0  0  0  0
  8 36  1  0  0  0  0
  9  8  2  0  0  0  0
  9 10  1  0  0  0  0
 10 37  1  0  0  0  0
 11 10  1  0  0  0  0
 11 13  1  0  0  0  0
 12 11  2  0  0  0  0
 13 17  2  0  0  0  0
 13 14  1  0  0  0  0
 14 15  2  0  0  0  0
 16 15  1  0  0  0  0
 16 26  1  0  0  0  0
 17 16  1  0  0  0  0
 18 17  1  0  0  0  0
 18 38  1  0  0  0  0
 19 20  1  0  0  0  0
 19 18  1  0  0  0  0
 20 40  1  0  0  0  0
 21 43  1  0  0  0  0
 21 20  1  0  0  0  0
 22 21  1  0  0  0  0
 23 24  1  0  0  0  0
 23 44  1  0  0  0  0
 23 22  1  0  0  0  0
 24 19  1  0  0  0  0
 25 22  1  0  0  0  0
 25 49  1  0  0  0  0
 26 30  1  0  0  0  0
 26 27  2  0  0  0  0
 27 28  1  0  0  0  0
 29 28  1  0  0  0  0
 30 29  2  0  0  0  0
 31 30  1  0  0  0  0
 32  3  1  0  0  0  0
 35  7  1  0  0  0  0
 39 18  1  0  0  0  0
 41 20  1  0  0  0  0
 42 21  1  0  0  0  0
 45 23  1  0  0  0  0
 46 24  1  0  0  0  0
 47 24  1  0  0  0  0
 48 25  1  0  0  0  0
 50 25  1  0  0  0  0
 51 31  1  0  0  0  0
 52 31  1  0  0  0  0
M  END
>  <Pose>
1

>  <Score>
-6.56

$$$$
