
 OpenBabel03232204043D

 63 66  0  0  1  0  0  0  0  0999 V2000
   16.0300  -59.7430   28.2180 B   0  0  0  0  0  0  0  0  0  0  0  0
   17.6290  -59.0820   29.0130 C   0  0  0  0  0  0  0  0  0  0  0  0
   17.5910  -58.4470   30.2490 C   0  0  0  0  0  0  0  0  0  0  0  0
   18.7390  -57.9650   30.8370 C   0  0  0  0  0  0  0  0  0  0  0  0
   19.9380  -58.1200   30.1780 C   0  0  0  0  0  0  0  0  0  0  0  0
   19.9810  -58.7500   28.9500 C   0  0  0  0  0  0  0  0  0  0  0  0
   18.8380  -59.2370   28.3530 C   0  0  0  0  0  0  0  0  0  0  0  0
   18.7210  -57.2890   32.1470 C   0  0  1  0  0  0  0  0  0  0  0  0
   18.7490  -55.8430   32.0430 N   0  0  0  0  0  0  0  0  0  0  0  0
   17.4390  -55.3180   32.0240 C   0  0  0  0  0  0  0  0  0  0  0  0
   17.0030  -54.1990   31.6500 O   0  0  0  0  0  0  0  0  0  0  0  0
   16.5690  -56.3920   32.5640 C   0  0  0  0  0  0  0  0  0  0  0  0
   15.3340  -56.2770   32.6980 O   0  0  0  0  0  0  0  0  0  0  0  0
   17.4270  -57.5200   32.8770 C   0  0  0  0  0  0  0  0  0  0  0  0
   17.1330  -58.5080   33.6830 C   0  0  0  0  0  0  0  0  0  0  0  0
   18.1000  -59.4940   33.9410 O   0  0  0  0  0  0  0  0  0  0  0  0
   15.8460  -58.6290   34.3150 C   0  0  0  0  0  0  0  0  0  0  0  0
   15.8100  -58.4650   35.7080 C   0  0  0  0  0  0  0  0  0  0  0  0
   14.6370  -58.6040   36.3970 C   0  0  0  0  0  0  0  0  0  0  0  0
   13.4420  -58.9100   35.7580 C   0  0  0  0  0  0  0  0  0  0  0  0
   13.5010  -59.0650   34.4090 C   0  0  0  0  0  0  0  0  0  0  0  0
   14.6760  -58.9300   33.6970 C   0  0  0  0  0  0  0  0  0  0  0  0
   12.3010  -59.0320   36.5260 O   0  0  0  0  0  0  0  0  0  0  0  0
   11.5970  -60.2630   36.5940 C   0  0  0  0  0  0  0  0  0  0  0  0
   14.6160  -58.4260   37.8840 C   0  0  0  0  0  0  0  0  0  0  0  0
   19.9570  -55.0060   31.9740 C   0  0  0  0  0  0  0  0  0  0  0  0
   19.7800  -53.7820   32.8290 C   0  0  0  0  0  0  0  0  0  0  0  0
   20.1030  -53.9670   34.2720 C   0  0  0  0  0  0  0  0  0  0  0  0
   19.1730  -53.3110   35.1650 N   0  0  0  0  0  4  0  0  0  0  0  0
   18.5730  -54.2440   36.0980 C   0  0  0  0  0  0  0  0  0  0  0  0
   18.9760  -53.9210   37.5120 C   0  0  0  0  0  0  0  0  0  0  0  0
   18.5020  -52.6260   37.8060 O   0  0  0  0  0  0  0  0  0  0  0  0
   19.1310  -51.6810   36.9990 C   0  0  0  0  0  0  0  0  0  0  0  0
   19.9230  -52.2730   35.8780 C   0  0  0  0  0  0  0  0  0  0  0  0
   16.6560  -58.3300   30.7530 H   0  0  0  0  0  0  0  0  0  0  0  0
   20.8760  -57.7620   30.5890 H   0  0  0  0  0  0  0  0  0  0  0  0
   20.9290  -58.8650   28.4450 H   0  0  0  0  0  0  0  0  0  0  0  0
   18.8730  -59.7280   27.3920 H   0  0  0  0  0  0  0  0  0  0  0  0
   19.5940  -57.5670   32.7770 H   0  0  0  0  0  0  0  0  0  0  0  0
   16.7400  -58.2230   36.2440 H   0  0  0  0  0  0  0  0  0  0  0  0
   12.5860  -59.3050   33.8720 H   0  0  0  0  0  0  0  0  0  0  0  0
   14.6870  -59.0950   32.6080 H   0  0  0  0  0  0  0  0  0  0  0  0
   10.8630  -60.2760   37.4070 H   0  0  0  0  0  0  0  0  0  0  0  0
   12.2890  -61.1360   36.6900 H   0  0  0  0  0  0  0  0  0  0  0  0
   11.0280  -60.4480   35.6410 H   0  0  0  0  0  0  0  0  0  0  0  0
   15.3510  -59.1720   38.2790 H   0  0  0  0  0  0  0  0  0  0  0  0
   13.6370  -58.6760   38.2850 H   0  0  0  0  0  0  0  0  0  0  0  0
   14.9090  -57.3950   38.1810 H   0  0  0  0  0  0  0  0  0  0  0  0
   20.1740  -54.7270   30.9290 H   0  0  0  0  0  0  0  0  0  0  0  0
   20.7990  -55.6030   32.4200 H   0  0  0  0  0  0  0  0  0  0  0  0
   20.4300  -52.9390   32.4660 H   0  0  0  0  0  0  0  0  0  0  0  0
   18.7180  -53.4180   32.7810 H   0  0  0  0  0  0  0  0  0  0  0  0
   21.1440  -53.5760   34.4230 H   0  0  0  0  0  0  0  0  0  0  0  0
   20.1480  -55.0300   34.5800 H   0  0  0  0  0  0  0  0  0  0  0  0
   18.4120  -52.8020   34.6690 H   0  0  0  0  0  0  0  0  0  0  0  0
   18.8930  -55.2860   35.8890 H   0  0  0  0  0  0  0  0  0  0  0  0
   17.4470  -54.1600   36.0720 H   0  0  0  0  0  0  0  0  0  0  0  0
   18.4960  -54.5930   38.2260 H   0  0  0  0  0  0  0  0  0  0  0  0
   20.0760  -53.9640   37.6530 H   0  0  0  0  0  0  0  0  0  0  0  0
   18.3830  -50.9870   36.5600 H   0  0  0  0  0  0  0  0  0  0  0  0
   19.8430  -51.1030   37.6390 H   0  0  0  0  0  0  0  0  0  0  0  0
   20.0430  -51.4510   35.1110 H   0  0  0  0  0  0  0  0  0  0  0  0
   20.9330  -52.6160   36.1600 H   0  0  0  0  0  0  0  0  0  0  0  0
  1  2  1  0  0  0  0
  2  3  1  0  0  0  0
  3 35  1  0  0  0  0
  3  4  2  0  0  0  0
  4  8  1  0  0  0  0
  5 36  1  0  0  0  0
  5  4  1  0  0  0  0
  6  5  2  0  0  0  0
  7  6  1  0  0  0  0
  7  2  2  0  0  0  0
  8 39  1  1  0  0  0
  8 14  1  0  0  0  0
  9  8  1  0  0  0  0
 10  9  1  0  0  0  0
 10 12  1  0  0  0  0
 11 10  2  0  0  0  0
 12 13  2  0  0  0  0
 12 14  1  0  0  0  0
 14 15  2  0  0  0  0
 15 16  1  0  0  0  0
 15 17  1  0  0  0  0
 17 18  1  0  0  0  0
 18 40  1  0  0  0  0
 18 19  2  0  0  0  0
 19 25  1  0  0  0  0
 20 19  1  0  0  0  0
 20 23  1  0  0  0  0
 21 20  2  0  0  0  0
 22 17  2  0  0  0  0
 22 21  1  0  0  0  0
 23 24  1  0  0  0  0
 24 44  1  0  0  0  0
 24 43  1  0  0  0  0
 25 48  1  0  0  0  0
 25 46  1  0  0  0  0
 25 47  1  0  0  0  0
 26  9  1  0  0  0  0
 26 50  1  0  0  0  0
 26 27  1  0  0  0  0
 27 28  1  0  0  0  0
 28 53  1  0  0  0  0
 28 54  1  0  0  0  0
 28 29  1  0  0  0  0
 29 34  1  0  0  0  0
 29 30  1  0  0  0  0
 30 31  1  0  0  0  0
 31 59  1  0  0  0  0
 31 32  1  0  0  0  0
 31 58  1  0  0  0  0
 33 61  1  0  0  0  0
 33 32  1  0  0  0  0
 34 63  1  0  0  0  0
 34 33  1  0  0  0  0
 37  6  1  0  0  0  0
 38  7  1  0  0  0  0
 41 21  1  0  0  0  0
 42 22  1  0  0  0  0
 45 24  1  0  0  0  0
 49 26  1  0  0  0  0
 51 27  1  0  0  0  0
 52 27  1  0  0  0  0
 55 29  1  0  0  0  0
 56 30  1  0  0  0  0
 57 30  1  0  0  0  0
 60 33  1  0  0  0  0
 62 34  1  0  0  0  0
M  END
>  <Pose>
1

>  <Score>
-6.60

$$$$
