
 OpenBabel03232204043D

 56 59  0  0  1  0  0  0  0  0999 V2000
   15.9120  -53.5420   39.4910 B   0  0  0  0  0  0  0  0  0  0  0  0
   16.6320  -54.0970   37.8120 C   0  0  0  0  0  0  0  0  0  0  0  0
   16.5180  -55.4140   37.3800 C   0  0  0  0  0  0  0  0  0  0  0  0
   17.0270  -55.8460   36.1730 C   0  0  0  0  0  0  0  0  0  0  0  0
   17.6700  -54.8910   35.3980 C   0  0  0  0  0  0  0  0  0  0  0  0
   17.7950  -53.5810   35.8070 C   0  0  0  0  0  0  0  0  0  0  0  0
   17.2710  -53.1990   37.0160 C   0  0  0  0  0  0  0  0  0  0  0  0
   16.9030  -57.2580   35.7130 C   0  0  2  0  0  0  0  0  0  0  0  0
   17.0180  -57.3920   34.2920 N   0  0  0  0  0  0  0  0  0  0  0  0
   15.7020  -57.2740   33.7730 C   0  0  0  0  0  0  0  0  0  0  0  0
   15.4030  -57.0030   32.5830 O   0  0  0  0  0  0  0  0  0  0  0  0
   14.7250  -57.5240   34.8590 C   0  0  0  0  0  0  0  0  0  0  0  0
   13.4850  -57.5100   34.7850 O   0  0  0  0  0  0  0  0  0  0  0  0
   15.5300  -57.7890   36.0360 C   0  0  0  0  0  0  0  0  0  0  0  0
   15.1720  -58.4080   37.1390 C   0  0  0  0  0  0  0  0  0  0  0  0
   16.1000  -58.6300   38.1340 O   0  0  0  0  0  0  0  0  0  0  0  0
   13.8210  -58.8630   37.3480 C   0  0  0  0  0  0  0  0  0  0  0  0
   13.1630  -59.8180   36.6280 C   0  0  0  0  0  0  0  0  0  0  0  0
   11.8750  -60.1860   36.9670 C   0  0  0  0  0  0  0  0  0  0  0  0
   11.1790  -59.6360   38.0190 C   0  0  0  0  0  0  0  0  0  0  0  0
   11.8440  -58.6700   38.7440 C   0  0  0  0  0  0  0  0  0  0  0  0
   13.1240  -58.2890   38.4240 C   0  0  0  0  0  0  0  0  0  0  0  0
    9.7900  -60.0500   38.3630 C   0  0  0  0  0  0  0  0  0  0  0  0
   18.2380  -57.6060   33.4900 C   0  0  0  0  0  0  0  0  0  0  0  0
   17.9270  -58.6750   32.4790 C   0  0  0  0  0  0  0  0  0  0  0  0
   18.8310  -58.7610   31.3900 N   0  0  0  0  0  4  0  0  0  0  0  0
   18.2800  -59.2170   30.1480 C   0  0  0  0  0  0  0  0  0  0  0  0
   17.7790  -58.1180   29.2520 C   0  0  0  0  0  0  0  0  0  0  0  0
   18.6020  -57.0150   29.2110 O   0  0  0  0  0  0  0  0  0  0  0  0
   18.8320  -56.4870   30.4600 C   0  0  0  0  0  0  0  0  0  0  0  0
   19.5620  -57.5240   31.2710 C   0  0  0  0  0  0  0  0  0  0  0  0
   16.0150  -56.0950   38.0190 H   0  0  0  0  0  0  0  0  0  0  0  0
   18.0850  -55.1750   34.4480 H   0  0  0  0  0  0  0  0  0  0  0  0
   18.3010  -52.8620   35.1780 H   0  0  0  0  0  0  0  0  0  0  0  0
   17.3690  -52.1610   37.3420 H   0  0  0  0  0  0  0  0  0  0  0  0
   17.6890  -57.8460   36.1870 H   0  0  0  0  0  0  0  0  0  0  0  0
   13.6750  -60.2490   35.7740 H   0  0  0  0  0  0  0  0  0  0  0  0
   11.3770  -60.9480   36.3790 H   0  0  0  0  0  0  0  0  0  0  0  0
   11.2970  -58.2240   39.5830 H   0  0  0  0  0  0  0  0  0  0  0  0
   13.5900  -57.5220   39.0370 H   0  0  0  0  0  0  0  0  0  0  0  0
    9.6070  -61.1290   38.1100 H   0  0  0  0  0  0  0  0  0  0  0  0
    9.6670  -60.0110   39.4850 H   0  0  0  0  0  0  0  0  0  0  0  0
    9.0260  -59.3980   37.9400 H   0  0  0  0  0  0  0  0  0  0  0  0
   18.4610  -56.6720   32.9260 H   0  0  0  0  0  0  0  0  0  0  0  0
   19.0090  -57.8790   34.2130 H   0  0  0  0  0  0  0  0  0  0  0  0
   16.8600  -58.4910   32.1550 H   0  0  0  0  0  0  0  0  0  0  0  0
   17.8760  -59.6400   33.0400 H   0  0  0  0  0  0  0  0  0  0  0  0
   19.5690  -59.4760   31.6690 H   0  0  0  0  0  0  0  0  0  0  0  0
   17.4370  -59.9230   30.2930 H   0  0  0  0  0  0  0  0  0  0  0  0
   19.0400  -59.7800   29.5610 H   0  0  0  0  0  0  0  0  0  0  0  0
   17.7200  -58.5180   28.2050 H   0  0  0  0  0  0  0  0  0  0  0  0
   16.7560  -57.7840   29.4920 H   0  0  0  0  0  0  0  0  0  0  0  0
   17.9180  -56.1130   30.9600 H   0  0  0  0  0  0  0  0  0  0  0  0
   19.5130  -55.6190   30.3500 H   0  0  0  0  0  0  0  0  0  0  0  0
   19.7690  -57.1770   32.3130 H   0  0  0  0  0  0  0  0  0  0  0  0
   20.5530  -57.6900   30.7990 H   0  0  0  0  0  0  0  0  0  0  0  0
  2  1  1  0  0  0  0
  3  2  1  0  0  0  0
  3 32  1  0  0  0  0
  4  3  2  0  0  0  0
  5  6  2  0  0  0  0
  5  4  1  0  0  0  0
  6  7  1  0  0  0  0
  7 35  1  0  0  0  0
  7  2  2  0  0  0  0
  8 14  1  0  0  0  0
  8  4  1  0  0  0  0
  8 36  1  1  0  0  0
  9  8  1  0  0  0  0
 10  9  1  0  0  0  0
 10 12  1  0  0  0  0
 11 10  2  0  0  0  0
 12 14  1  0  0  0  0
 13 12  2  0  0  0  0
 14 15  2  0  0  0  0
 15 17  1  0  0  0  0
 15 16  1  0  0  0  0
 17 22  1  0  0  0  0
 18 19  1  0  0  0  0
 18 17  2  0  0  0  0
 19 20  2  0  0  0  0
 20 23  1  0  0  0  0
 20 21  1  0  0  0  0
 21 39  1  0  0  0  0
 22 21  2  0  0  0  0
 22 40  1  0  0  0  0
 23 42  1  0  0  0  0
 24 45  1  0  0  0  0
 24  9  1  0  0  0  0
 25 47  1  0  0  0  0
 25 24  1  0  0  0  0
 26 48  1  0  0  0  0
 26 25  1  0  0  0  0
 27 49  1  0  0  0  0
 27 26  1  0  0  0  0
 28 52  1  0  0  0  0
 28 27  1  0  0  0  0
 29 28  1  0  0  0  0
 29 30  1  0  0  0  0
 30 53  1  0  0  0  0
 30 31  1  0  0  0  0
 31 26  1  0  0  0  0
 31 55  1  0  0  0  0
 33  5  1  0  0  0  0
 34  6  1  0  0  0  0
 37 18  1  0  0  0  0
 38 19  1  0  0  0  0
 41 23  1  0  0  0  0
 43 23  1  0  0  0  0
 44 24  1  0  0  0  0
 46 25  1  0  0  0  0
 50 27  1  0  0  0  0
 51 28  1  0  0  0  0
 54 30  1  0  0  0  0
 56 31  1  0  0  0  0
M  END
>  <Pose>
1

>  <Score>
-6.53

$$$$
