
 OpenBabel03232204043D

 38 41  0  0  1  0  0  0  0  0999 V2000
   11.1870  -60.1310   42.1660 B   0  0  0  0  0  0  0  0  0  0  0  0
   11.3930  -60.2580   40.2760 C   0  0  0  0  0  0  0  0  0  0  0  0
   11.7640  -59.1720   39.5180 C   0  0  0  0  0  0  0  0  0  0  0  0
   11.9250  -59.2320   38.1260 C   0  0  0  0  0  0  0  0  0  0  0  0
   11.6900  -60.4470   37.5450 C   0  0  0  0  0  0  0  0  0  0  0  0
   11.3140  -61.5450   38.3220 C   0  0  0  0  0  0  0  0  0  0  0  0
   11.1660  -61.4580   39.6700 C   0  0  0  0  0  0  0  0  0  0  0  0
   12.3080  -58.0700   37.4290 N   0  0  0  0  0  0  0  0  0  0  0  0
   13.5250  -57.8930   36.7530 C   0  0  0  0  0  0  0  0  0  0  0  0
   13.6520  -57.5690   35.5630 O   0  0  0  0  0  0  0  0  0  0  0  0
   14.8150  -58.1060   37.4980 C   0  0  2  0  0  0  0  0  0  0  0  0
   14.9190  -57.3140   38.7750 C   0  0  0  0  0  0  0  0  0  0  0  0
   15.6730  -56.2540   38.0910 N   0  0  2  0  0  0  0  0  0  0  0  0
   15.9450  -57.2270   37.0490 C   0  0  0  0  0  0  0  0  0  0  0  0
   15.9580  -54.8950   38.3980 C   0  0  2  0  0  0  0  0  0  0  0  0
   15.3090  -54.2270   39.3870 N   0  0  0  0  0  0  0  0  0  0  0  0
   15.6020  -52.9220   39.6620 C   0  0  0  0  0  0  0  0  0  0  0  0
   16.5330  -52.2600   38.9690 N   0  0  0  0  0  0  0  0  0  0  0  0
   17.2090  -52.8540   37.9840 C   0  0  0  0  0  0  0  0  0  0  0  0
   18.1750  -52.4140   37.1530 N   0  0  0  0  0  0  0  0  0  0  0  0
   18.4820  -53.4270   36.3720 N   0  0  0  0  0  0  0  0  0  0  0  0
   17.7410  -54.4970   36.6790 N   0  0  0  0  0  0  0  0  0  0  0  0
   16.9110  -54.1730   37.7070 C   0  0  0  0  0  0  0  0  0  0  0  0
   18.7830  -51.0870   37.1020 C   0  0  0  0  0  0  0  0  0  0  0  0
   11.9400  -58.2290   40.0230 H   0  0  0  0  0  0  0  0  0  0  0  0
   11.7930  -60.5830   36.4650 H   0  0  0  0  0  0  0  0  0  0  0  0
   11.1390  -62.4950   37.8010 H   0  0  0  0  0  0  0  0  0  0  0  0
   10.8710  -62.3290   40.2540 H   0  0  0  0  0  0  0  0  0  0  0  0
   11.5900  -57.2560   37.4270 H   0  0  0  0  0  0  0  0  0  0  0  0
   15.0500  -59.1700   37.6710 H   0  0  0  0  0  0  0  0  0  0  0  0
   13.9730  -56.8660   39.1460 H   0  0  0  0  0  0  0  0  0  0  0  0
   15.5430  -57.7510   39.5610 H   0  0  0  0  0  0  0  0  0  0  0  0
   15.8030  -56.8490   36.0150 H   0  0  0  0  0  0  0  0  0  0  0  0
   16.9500  -57.6520   37.1890 H   0  0  0  0  0  0  0  0  0  0  0  0
   15.0470  -52.4560   40.4610 H   0  0  0  0  0  0  0  0  0  0  0  0
   19.8230  -51.1330   36.7380 H   0  0  0  0  0  0  0  0  0  0  0  0
   18.8500  -50.6450   38.1390 H   0  0  0  0  0  0  0  0  0  0  0  0
   18.1980  -50.3820   36.5100 H   0  0  0  0  0  0  0  0  0  0  0  0
  2  1  1  0  0  0  0
  3 25  1  0  0  0  0
  3  2  2  0  0  0  0
  4  3  1  0  0  0  0
  5  4  2  0  0  0  0
  5  6  1  0  0  0  0
  6  7  2  0  0  0  0
  7 28  1  0  0  0  0
  7  2  1  0  0  0  0
  8  4  1  0  0  0  0
  9  8  1  0  0  0  0
  9 11  1  0  0  0  0
 10  9  2  0  0  0  0
 11 30  1  1  0  0  0
 11 12  1  0  0  0  0
 12 31  1  0  0  0  0
 12 32  1  0  0  0  0
 13 14  1  1  0  0  0
 13 15  1  0  0  0  0
 13 12  1  0  0  0  0
 14 34  1  0  0  0  0
 14 11  1  0  0  0  0
 15 23  1  6  0  0  0
 15 16  1  0  0  0  0
 16 17  2  0  0  0  0
 17 35  1  0  0  0  0
 18 17  1  0  0  0  0
 19 18  1  0  0  0  0
 20 19  1  0  0  0  0
 21 22  2  0  0  0  0
 21 20  1  0  0  0  0
 22 23  1  0  0  0  0
 23 19  2  0  0  0  0
 24 20  1  0  0  0  0
 24 37  1  0  0  0  0
 26  5  1  0  0  0  0
 27  6  1  0  0  0  0
 29  8  1  0  0  0  0
 33 14  1  0  0  0  0
 36 24  1  0  0  0  0
 38 24  1  0  0  0  0
M  END
>  <Pose>
1

>  <Score>
-7.52

$$$$
