
 OpenBabel03232204043D

 38 41  0  0  0  0  0  0  0  0999 V2000
   18.7110  -55.9900   32.3710 B   0  0  0  0  0  0  0  0  0  0  0  0
   18.7890  -54.8010   33.8580 C   0  0  0  0  0  0  0  0  0  0  0  0
   17.7880  -54.8080   34.8360 C   0  0  0  0  0  0  0  0  0  0  0  0
   17.8460  -53.9500   35.9080 C   0  0  0  0  0  0  0  0  0  0  0  0
   18.9170  -53.0870   35.9870 C   0  0  0  0  0  0  0  0  0  0  0  0
   19.9240  -53.0700   35.0160 C   0  0  0  0  0  0  0  0  0  0  0  0
   19.8560  -53.9340   33.9470 C   0  0  0  0  0  0  0  0  0  0  0  0
   16.8470  -53.9180   36.9350 N   0  0  0  0  0  0  0  0  0  0  0  0
   16.2840  -52.8900   37.5130 N   0  0  0  0  0  0  0  0  0  0  0  0
   15.4050  -53.2860   38.4190 N   0  0  0  0  0  0  0  0  0  0  0  0
   15.3910  -54.6410   38.4320 C   0  0  0  0  0  0  0  0  0  0  0  0
   16.3130  -55.0220   37.4840 C   0  0  0  0  0  0  0  0  0  0  0  0
   14.5800  -55.5200   39.2650 C   0  0  0  0  0  0  0  0  0  0  0  0
   14.6960  -55.4300   40.5130 O   0  0  0  0  0  0  0  0  0  0  0  0
   13.6750  -56.4610   38.7320 N   0  0  0  0  0  0  0  0  0  0  0  0
   13.9650  -57.8650   38.5530 C   0  0  0  0  0  0  0  0  0  0  0  0
   13.1750  -58.4400   37.4080 C   0  0  0  0  0  0  0  0  0  0  0  0
   13.5660  -58.6120   36.1230 N   0  0  0  0  0  0  0  0  0  0  0  0
   12.5670  -59.1580   35.4220 C   0  0  0  0  0  0  0  0  0  0  0  0
   11.5450  -59.3210   36.2960 N   0  0  0  0  0  0  0  0  0  0  0  0
   11.9100  -58.8910   37.4870 N   0  0  0  0  0  0  0  0  0  0  0  0
   12.9650  -59.3660   33.9820 C   0  0  0  0  0  0  0  0  0  0  0  0
   14.1640  -58.4460   33.8820 C   0  0  0  0  0  0  0  0  0  0  0  0
   14.7320  -58.3800   35.2870 C   0  0  0  0  0  0  0  0  0  0  0  0
   16.9510  -55.4850   34.7720 H   0  0  0  0  0  0  0  0  0  0  0  0
   18.9690  -52.4100   36.8250 H   0  0  0  0  0  0  0  0  0  0  0  0
   20.7700  -52.3810   35.0880 H   0  0  0  0  0  0  0  0  0  0  0  0
   20.6320  -53.9260   33.1920 H   0  0  0  0  0  0  0  0  0  0  0  0
   16.5570  -56.0490   37.2320 H   0  0  0  0  0  0  0  0  0  0  0  0
   12.7300  -56.1190   38.4450 H   0  0  0  0  0  0  0  0  0  0  0  0
   15.0480  -58.0290   38.4020 H   0  0  0  0  0  0  0  0  0  0  0  0
   13.6110  -58.4280   39.4660 H   0  0  0  0  0  0  0  0  0  0  0  0
   12.1460  -59.0890   33.3140 H   0  0  0  0  0  0  0  0  0  0  0  0
   13.3250  -60.4160   33.8400 H   0  0  0  0  0  0  0  0  0  0  0  0
   14.9650  -58.8620   33.2410 H   0  0  0  0  0  0  0  0  0  0  0  0
   13.7880  -57.4630   33.5320 H   0  0  0  0  0  0  0  0  0  0  0  0
   15.5440  -59.1080   35.4400 H   0  0  0  0  0  0  0  0  0  0  0  0
   15.1610  -57.3660   35.4210 H   0  0  0  0  0  0  0  0  0  0  0  0
  1  2  1  0  0  0  0
  2  7  2  0  0  0  0
  2  3  1  0  0  0  0
  3  4  2  0  0  0  0
  4  5  1  0  0  0  0
  4  8  1  0  0  0  0
  5 26  1  0  0  0  0
  6 27  1  0  0  0  0
  6  5  2  0  0  0  0
  7  6  1  0  0  0  0
  8 12  1  0  0  0  0
  8  9  1  0  0  0  0
  9 10  2  0  0  0  0
 10 11  1  0  0  0  0
 11 13  1  0  0  0  0
 12 11  2  0  0  0  0
 13 14  2  0  0  0  0
 15 13  1  0  0  0  0
 16 15  1  0  0  0  0
 16 32  1  0  0  0  0
 17 21  2  0  0  0  0
 17 16  1  0  0  0  0
 18 17  1  0  0  0  0
 19 18  1  0  0  0  0
 19 20  2  0  0  0  0
 20 21  1  0  0  0  0
 22 19  1  0  0  0  0
 23 22  1  0  0  0  0
 23 24  1  0  0  0  0
 24 38  1  0  0  0  0
 24 37  1  0  0  0  0
 24 18  1  0  0  0  0
 25  3  1  0  0  0  0
 28  7  1  0  0  0  0
 29 12  1  0  0  0  0
 30 15  1  0  0  0  0
 31 16  1  0  0  0  0
 33 22  1  0  0  0  0
 34 22  1  0  0  0  0
 35 23  1  0  0  0  0
 36 23  1  0  0  0  0
M  END
>  <Pose>
1

>  <Score>
-7.25

$$$$
