
 OpenBabel03232204043D

 33 36  0  0  1  0  0  0  0  0999 V2000
   18.7080  -52.1220   37.1820 B   0  0  0  0  0  0  0  0  0  0  0  0
   17.3150  -53.3020   37.7420 C   0  0  0  0  0  0  0  0  0  0  0  0
   17.2060  -54.5340   37.1830 C   0  0  0  0  0  0  0  0  0  0  0  0
   16.2350  -55.4670   37.5150 C   0  0  0  0  0  0  0  0  0  0  0  0
   15.3330  -55.0870   38.4820 C   0  0  0  0  0  0  0  0  0  0  0  0
   15.4170  -53.8250   39.0770 C   0  0  0  0  0  0  0  0  0  0  0  0
   16.4030  -52.9330   38.7120 C   0  0  0  0  0  0  0  0  0  0  0  0
   16.1710  -56.7660   36.8810 N   0  0  0  0  0  0  0  0  0  0  0  0
   15.6960  -57.9710   37.4630 C   0  0  0  0  0  0  0  0  0  0  0  0
   15.6940  -58.2230   38.7240 O   0  0  0  0  0  0  0  0  0  0  0  0
   15.2170  -58.8610   36.3960 C   0  0  1  0  0  0  0  0  0  0  0  0
   13.7470  -58.6350   36.2190 C   0  0  1  0  0  0  0  0  0  0  0  0
   13.7730  -57.3420   35.6370 O   0  0  0  0  0  0  0  0  0  0  0  0
   14.5190  -57.7060   34.4840 C   0  0  1  0  0  0  0  0  0  0  0  0
   15.7730  -58.2540   35.1390 C   0  0  1  0  0  0  0  0  0  0  0  0
   16.5720  -57.0850   35.5590 C   0  0  0  0  0  0  0  0  0  0  0  0
   17.4400  -56.4970   34.8630 O   0  0  0  0  0  0  0  0  0  0  0  0
   13.6710  -58.8060   33.9710 C   0  0  0  0  0  0  0  0  0  0  0  0
   13.1620  -59.3860   35.0750 C   0  0  0  0  0  0  0  0  0  0  0  0
   12.9380  -58.7030   37.4580 C   0  0  0  0  0  0  0  0  0  0  0  0
   12.9730  -60.0110   37.9440 O   0  0  0  0  0  0  0  0  0  0  0  0
   17.9300  -54.8250   36.4140 H   0  0  0  0  0  0  0  0  0  0  0  0
   14.5500  -55.7520   38.7960 H   0  0  0  0  0  0  0  0  0  0  0  0
   14.7250  -53.4980   39.8400 H   0  0  0  0  0  0  0  0  0  0  0  0
   16.5130  -51.9530   39.1360 H   0  0  0  0  0  0  0  0  0  0  0  0
   15.4890  -59.9230   36.5340 H   0  0  0  0  0  0  0  0  0  0  0  0
   14.6830  -56.8870   33.8080 H   0  0  0  0  0  0  0  0  0  0  0  0
   16.3240  -58.9620   34.5030 H   0  0  0  0  0  0  0  0  0  0  0  0
   13.4780  -59.1080   32.9500 H   0  0  0  0  0  0  0  0  0  0  0  0
   12.4710  -60.2250   35.0860 H   0  0  0  0  0  0  0  0  0  0  0  0
   13.3380  -58.0660   38.2730 H   0  0  0  0  0  0  0  0  0  0  0  0
   11.8950  -58.4220   37.2930 H   0  0  0  0  0  0  0  0  0  0  0  0
   13.7670  -60.4870   37.5930 H   0  0  0  0  0  0  0  0  0  0  0  0
  1  2  1  0  0  0  0
  2  7  1  0  0  0  0
  3  4  1  0  0  0  0
  3  2  2  0  0  0  0
  4  5  2  0  0  0  0
  5 23  1  0  0  0  0
  5  6  1  0  0  0  0
  6 24  1  0  0  0  0
  7  6  2  0  0  0  0
  7 25  1  0  0  0  0
  8  9  1  0  0  0  0
  8  4  1  0  0  0  0
  9 10  2  0  0  0  0
 11 26  1  1  0  0  0
 11  9  1  0  0  0  0
 12 11  1  0  0  0  0
 12 20  1  1  0  0  0
 13 12  1  0  0  0  0
 14 27  1  6  0  0  0
 14 15  1  0  0  0  0
 14 13  1  0  0  0  0
 15 28  1  6  0  0  0
 15 16  1  0  0  0  0
 15 11  1  0  0  0  0
 16  8  1  0  0  0  0
 17 16  2  0  0  0  0
 18 14  1  0  0  0  0
 18 19  2  0  0  0  0
 19 30  1  0  0  0  0
 19 12  1  0  0  0  0
 20 21  1  0  0  0  0
 20 31  1  0  0  0  0
 22  3  1  0  0  0  0
 29 18  1  0  0  0  0
 32 20  1  0  0  0  0
 33 21  1  0  0  0  0
M  END
>  <Pose>
1

>  <Score>
-5.53

$$$$
