
 OpenBabel03232204043D

 37 40  0  0  1  0  0  0  0  0999 V2000
   15.8030  -53.1560   39.5660 B   0  0  0  0  0  0  0  0  0  0  0  0
   16.0290  -54.5250   38.2640 C   0  0  0  0  0  0  0  0  0  0  0  0
   16.8540  -54.3190   37.1540 C   0  0  0  0  0  0  0  0  0  0  0  0
   17.0320  -55.2960   36.2020 C   0  0  0  0  0  0  0  0  0  0  0  0
   16.3670  -56.4840   36.3800 C   0  0  0  0  0  0  0  0  0  0  0  0
   15.5380  -56.6960   37.4910 C   0  0  0  0  0  0  0  0  0  0  0  0
   15.3620  -55.7150   38.4440 C   0  0  0  0  0  0  0  0  0  0  0  0
   17.8770  -55.0640   35.0930 N   0  0  0  0  0  0  0  0  0  0  0  0
   19.2010  -54.4890   35.1400 C   0  0  0  0  0  0  0  0  0  0  0  0
   19.9920  -54.4720   36.0900 O   0  0  0  0  0  0  0  0  0  0  0  0
   19.4790  -53.8920   33.8010 C   0  0  1  0  0  0  0  0  0  0  0  0
   20.7940  -54.0050   33.3890 O   0  0  0  0  0  0  0  0  0  0  0  0
   20.6500  -54.0820   32.0240 N   0  0  0  0  0  0  0  0  0  0  0  0
   19.5610  -55.0020   31.8310 C   0  0  0  0  0  0  0  0  0  0  0  0
   18.8130  -54.9180   32.9050 C   0  0  0  0  0  0  0  0  0  0  0  0
   17.6430  -55.3280   33.6910 C   0  0  0  0  0  0  0  0  0  0  0  0
   16.6340  -55.8220   33.1760 O   0  0  0  0  0  0  0  0  0  0  0  0
   19.3050  -55.8680   30.7120 C   0  0  0  0  0  0  0  0  0  0  0  0
   18.3220  -56.8550   30.7390 C   0  0  0  0  0  0  0  0  0  0  0  0
   18.2970  -57.4960   29.5570 N   0  0  0  0  0  0  0  0  0  0  0  0
   19.2340  -56.9260   28.8190 N   0  0  0  0  0  0  0  0  0  0  0  0
   19.8680  -55.9460   29.4590 C   0  0  0  0  0  0  0  0  0  0  0  0
   20.9760  -55.0690   28.9500 C   0  0  0  0  0  0  0  0  0  0  0  0
   17.4060  -58.6050   29.1790 C   0  0  0  0  0  0  0  0  0  0  0  0
   17.3460  -53.3790   37.0590 H   0  0  0  0  0  0  0  0  0  0  0  0
   16.4860  -57.2610   35.6560 H   0  0  0  0  0  0  0  0  0  0  0  0
   15.0250  -57.6500   37.6040 H   0  0  0  0  0  0  0  0  0  0  0  0
   14.7150  -55.8970   39.3020 H   0  0  0  0  0  0  0  0  0  0  0  0
   19.0360  -52.8970   33.6870 H   0  0  0  0  0  0  0  0  0  0  0  0
   21.1820  -53.6060   31.2870 H   0  0  0  0  0  0  0  0  0  0  0  0
   17.6680  -57.0860   31.5770 H   0  0  0  0  0  0  0  0  0  0  0  0
   21.9300  -55.5970   28.9190 H   0  0  0  0  0  0  0  0  0  0  0  0
   20.9790  -54.1260   29.4930 H   0  0  0  0  0  0  0  0  0  0  0  0
   20.6980  -54.8450   27.8870 H   0  0  0  0  0  0  0  0  0  0  0  0
   16.5070  -58.0900   28.7340 H   0  0  0  0  0  0  0  0  0  0  0  0
   17.1260  -59.1940   30.0570 H   0  0  0  0  0  0  0  0  0  0  0  0
   17.8810  -59.1520   28.3690 H   0  0  0  0  0  0  0  0  0  0  0  0
  2  7  1  0  0  0  0
  2  1  1  0  0  0  0
  3  2  2  0  0  0  0
  4  5  2  0  0  0  0
  4  3  1  0  0  0  0
  5  6  1  0  0  0  0
  6 27  1  0  0  0  0
  6  7  2  0  0  0  0
  7 28  1  0  0  0  0
  8  9  1  0  0  0  0
  8  4  1  0  0  0  0
  9 10  2  0  0  0  0
 11 29  1  6  0  0  0
 11  9  1  0  0  0  0
 12 11  1  0  0  0  0
 13 12  1  0  0  0  0
 14 13  1  0  0  0  0
 14 15  2  0  0  0  0
 15 16  1  0  0  0  0
 15 11  1  0  0  0  0
 16  8  1  0  0  0  0
 17 16  2  0  0  0  0
 18 19  2  0  0  0  0
 18 14  1  0  0  0  0
 19 31  1  0  0  0  0
 20 19  1  0  0  0  0
 21 22  2  0  0  0  0
 21 20  1  0  0  0  0
 22 18  1  0  0  0  0
 23 22  1  0  0  0  0
 23 33  1  0  0  0  0
 24 20  1  0  0  0  0
 24 36  1  0  0  0  0
 25  3  1  0  0  0  0
 26  5  1  0  0  0  0
 30 13  1  0  0  0  0
 32 23  1  0  0  0  0
 34 23  1  0  0  0  0
 35 24  1  0  0  0  0
 37 24  1  0  0  0  0
M  END
>  <Pose>
1

>  <Score>
-6.33

$$$$
