
 OpenBabel03232204043D

 52 55  0  0  1  0  0  0  0  0999 V2000
   14.9600  -60.6810   32.2280 B   0  0  0  0  0  0  0  0  0  0  0  0
   15.8520  -59.5990   33.4940 C   0  0  0  0  0  0  0  0  0  0  0  0
   15.1580  -59.1470   34.6110 C   0  0  0  0  0  0  0  0  0  0  0  0
   15.7420  -58.3520   35.5790 C   0  0  0  0  0  0  0  0  0  0  0  0
   17.0650  -58.0300   35.3730 C   0  0  0  0  0  0  0  0  0  0  0  0
   17.8130  -58.4430   34.2890 C   0  0  0  0  0  0  0  0  0  0  0  0
   17.1890  -59.2340   33.3490 C   0  0  0  0  0  0  0  0  0  0  0  0
   14.9840  -57.9320   36.6960 N   0  0  0  0  0  0  0  0  0  0  0  0
   15.5160  -57.1820   37.8240 C   0  0  0  0  0  0  0  0  0  0  0  0
   14.3980  -56.1200   37.8810 C   0  0  1  0  0  0  0  0  0  0  0  0
   13.2270  -57.0900   38.0680 C   0  0  0  0  0  0  0  0  0  0  0  0
   13.6090  -58.0860   37.0290 C   0  0  0  0  0  0  0  0  0  0  0  0
   12.8380  -58.9330   36.5240 O   0  0  0  0  0  0  0  0  0  0  0  0
   14.5760  -55.1890   38.9780 C   0  0  0  0  0  0  0  0  0  0  0  0
   14.3130  -55.5840   40.1410 O   0  0  0  0  0  0  0  0  0  0  0  0
   15.0360  -53.8800   38.7230 N   0  0  0  0  0  0  0  0  0  0  0  0
   14.6840  -53.1270   37.5270 C   0  0  0  0  0  0  0  0  0  0  0  0
   15.8050  -52.1420   37.2190 C   0  0  0  0  0  0  0  0  0  0  0  0
   17.0950  -52.5880   37.7080 N   0  0  0  0  0  0  0  0  0  0  0  0
   17.0900  -52.5650   39.1290 C   0  0  0  0  0  0  0  0  0  0  0  0
   15.9140  -53.2630   39.7250 C   0  0  0  0  0  0  0  0  0  0  0  0
   17.5320  -53.7830   37.0780 C   0  0  0  0  0  0  0  0  0  0  0  0
   19.0300  -53.9340   37.0170 C   0  0  0  0  0  0  0  0  0  0  0  0
   19.6130  -53.4970   35.7800 N   0  0  0  0  0  0  0  0  0  0  0  0
   20.1050  -52.2960   35.4720 C   0  0  0  0  0  0  0  0  0  0  0  0
   20.5510  -52.3050   34.1970 N   0  0  0  0  0  0  0  0  0  0  0  0
   20.3400  -53.5250   33.6900 C   0  0  0  0  0  0  0  0  0  0  0  0
   19.7520  -54.2640   34.6900 C   0  0  0  0  0  0  0  0  0  0  0  0
   14.1240  -59.4180   34.7420 H   0  0  0  0  0  0  0  0  0  0  0  0
   17.5560  -57.4100   36.1060 H   0  0  0  0  0  0  0  0  0  0  0  0
   18.8520  -58.1820   34.1410 H   0  0  0  0  0  0  0  0  0  0  0  0
   17.7330  -59.5880   32.4760 H   0  0  0  0  0  0  0  0  0  0  0  0
   16.4870  -56.7050   37.5990 H   0  0  0  0  0  0  0  0  0  0  0  0
   15.5090  -57.8080   38.7230 H   0  0  0  0  0  0  0  0  0  0  0  0
   14.3590  -55.7000   36.8730 H   0  0  0  0  0  0  0  0  0  0  0  0
   13.2430  -57.5040   39.0920 H   0  0  0  0  0  0  0  0  0  0  0  0
   12.2670  -56.5970   37.8370 H   0  0  0  0  0  0  0  0  0  0  0  0
   13.7370  -52.5970   37.7490 H   0  0  0  0  0  0  0  0  0  0  0  0
   14.5340  -53.7320   36.6350 H   0  0  0  0  0  0  0  0  0  0  0  0
   15.5580  -51.1970   37.7020 H   0  0  0  0  0  0  0  0  0  0  0  0
   15.8910  -51.9430   36.1290 H   0  0  0  0  0  0  0  0  0  0  0  0
   18.0420  -52.9950   39.5250 H   0  0  0  0  0  0  0  0  0  0  0  0
   17.0790  -51.4800   39.4300 H   0  0  0  0  0  0  0  0  0  0  0  0
   16.2690  -54.0270   40.4510 H   0  0  0  0  0  0  0  0  0  0  0  0
   15.2990  -52.5060   40.2950 H   0  0  0  0  0  0  0  0  0  0  0  0
   17.1570  -54.7030   37.5920 H   0  0  0  0  0  0  0  0  0  0  0  0
   17.1340  -53.8430   36.0210 H   0  0  0  0  0  0  0  0  0  0  0  0
   19.4960  -53.4280   37.9030 H   0  0  0  0  0  0  0  0  0  0  0  0
   19.2390  -55.0300   37.1910 H   0  0  0  0  0  0  0  0  0  0  0  0
   20.1620  -51.4320   36.1040 H   0  0  0  0  0  0  0  0  0  0  0  0
   20.5970  -53.8410   32.6720 H   0  0  0  0  0  0  0  0  0  0  0  0
   19.4670  -55.3090   34.5510 H   0  0  0  0  0  0  0  0  0  0  0  0
  1  2  1  0  0  0  0
  2  3  1  0  0  0  0
  3 29  1  0  0  0  0
  3  4  2  0  0  0  0
  4  8  1  0  0  0  0
  5  4  1  0  0  0  0
  5 30  1  0  0  0  0
  6  5  2  0  0  0  0
  7  2  2  0  0  0  0
  7  6  1  0  0  0  0
  8 12  1  0  0  0  0
  8  9  1  0  0  0  0
  9 10  1  0  0  0  0
  9 34  1  0  0  0  0
 10 35  1  6  0  0  0
 10 11  1  0  0  0  0
 10 14  1  0  0  0  0
 11 36  1  0  0  0  0
 12 11  1  0  0  0  0
 13 12  2  0  0  0  0
 14 15  2  0  0  0  0
 16 14  1  0  0  0  0
 16 21  1  0  0  0  0
 17 38  1  0  0  0  0
 17 16  1  0  0  0  0
 18 17  1  0  0  0  0
 18 40  1  0  0  0  0
 18 19  1  0  0  0  0
 19 20  1  0  0  0  0
 20 43  1  0  0  0  0
 20 42  1  0  0  0  0
 20 21  1  0  0  0  0
 21 45  1  0  0  0  0
 21 44  1  0  0  0  0
 22 46  1  0  0  0  0
 22 19  1  0  0  0  0
 23 22  1  0  0  0  0
 23 49  1  0  0  0  0
 23 48  1  0  0  0  0
 24 23  1  0  0  0  0
 25 24  1  0  0  0  0
 25 50  1  0  0  0  0
 26 25  2  0  0  0  0
 27 26  1  0  0  0  0
 27 28  2  0  0  0  0
 28 24  1  0  0  0  0
 31  6  1  0  0  0  0
 32  7  1  0  0  0  0
 33  9  1  0  0  0  0
 37 11  1  0  0  0  0
 39 17  1  0  0  0  0
 41 18  1  0  0  0  0
 47 22  1  0  0  0  0
 51 27  1  0  0  0  0
 52 28  1  0  0  0  0
M  END
>  <Pose>
1

>  <Score>
-6.46

$$$$
