
 OpenBabel03232204043D

 50 53  0  0  0  0  0  0  0  0999 V2000
    8.5050  -61.6350   39.3800 B   0  0  0  0  0  0  0  0  0  0  0  0
   10.0860  -60.6640   38.9610 C   0  0  0  0  0  0  0  0  0  0  0  0
   10.7880  -60.0070   39.9610 C   0  0  0  0  0  0  0  0  0  0  0  0
   11.9420  -59.2920   39.6860 C   0  0  0  0  0  0  0  0  0  0  0  0
   12.4430  -59.2000   38.4110 C   0  0  0  0  0  0  0  0  0  0  0  0
   11.7340  -59.8590   37.4230 C   0  0  0  0  0  0  0  0  0  0  0  0
   10.5870  -60.5740   37.6810 C   0  0  0  0  0  0  0  0  0  0  0  0
   13.6620  -58.4480   38.1190 C   0  0  0  0  0  0  0  0  0  0  0  0
   14.7580  -58.9800   38.3590 O   0  0  0  0  0  0  0  0  0  0  0  0
   13.5910  -57.0690   37.5430 C   0  0  0  0  0  0  0  0  0  0  0  0
   14.8790  -56.5280   37.2150 N   0  0  0  0  0  0  0  0  0  0  0  0
   15.5660  -55.5910   37.8900 C   0  0  0  0  0  0  0  0  0  0  0  0
   16.7620  -55.3350   37.2470 C   0  0  0  0  0  0  0  0  0  0  0  0
   16.7600  -56.1410   36.1790 N   0  0  0  0  0  0  0  0  0  0  0  0
   15.6340  -56.8750   36.1330 C   0  0  0  0  0  0  0  0  0  0  0  0
   15.2370  -57.8360   35.1730 N   0  0  0  0  0  0  0  0  0  0  0  0
   13.9210  -57.7670   34.6260 C   0  0  0  0  0  0  0  0  0  0  0  0
   13.6590  -58.5470   33.3910 C   0  0  0  0  0  0  0  0  0  0  0  0
   14.5080  -59.6810   33.1770 N   0  0  0  0  0  0  0  0  0  0  0  0
   15.8830  -59.2410   33.3030 C   0  0  0  0  0  0  0  0  0  0  0  0
   16.1520  -58.8550   34.7590 C   0  0  0  0  0  0  0  0  0  0  0  0
   14.2000  -60.8000   34.0210 C   0  0  0  0  0  0  0  0  0  0  0  0
   17.6160  -54.4240   37.7470 N   0  0  0  0  0  0  0  0  0  0  0  0
   17.3210  -53.7530   38.8750 C   0  0  0  0  0  0  0  0  0  0  0  0
   18.0890  -52.8950   39.3750 O   0  0  0  0  0  0  0  0  0  0  0  0
   16.1460  -53.9950   39.5180 N   0  0  0  0  0  0  0  0  0  0  0  0
   15.2600  -54.8960   39.0580 C   0  0  0  0  0  0  0  0  0  0  0  0
   14.1720  -55.0960   39.6900 O   0  0  0  0  0  0  0  0  0  0  0  0
   18.8770  -54.1330   37.0980 C   0  0  0  0  0  0  0  0  0  0  0  0
   10.3940  -60.0790   40.9730 H   0  0  0  0  0  0  0  0  0  0  0  0
   12.4760  -58.7830   40.5010 H   0  0  0  0  0  0  0  0  0  0  0  0
   12.1170  -59.7980   36.4050 H   0  0  0  0  0  0  0  0  0  0  0  0
   10.0540  -61.0760   36.8930 H   0  0  0  0  0  0  0  0  0  0  0  0
   12.8860  -57.0580   36.6840 H   0  0  0  0  0  0  0  0  0  0  0  0
   13.1180  -56.4320   38.3140 H   0  0  0  0  0  0  0  0  0  0  0  0
   13.2350  -58.1270   35.4400 H   0  0  0  0  0  0  0  0  0  0  0  0
   13.6410  -56.7040   34.4300 H   0  0  0  0  0  0  0  0  0  0  0  0
   13.6820  -57.9040   32.4770 H   0  0  0  0  0  0  0  0  0  0  0  0
   12.6130  -58.9760   33.4770 H   0  0  0  0  0  0  0  0  0  0  0  0
   15.9640  -58.2900   32.7240 H   0  0  0  0  0  0  0  0  0  0  0  0
   16.6330  -59.9450   32.9610 H   0  0  0  0  0  0  0  0  0  0  0  0
   16.1110  -59.7640   35.4110 H   0  0  0  0  0  0  0  0  0  0  0  0
   17.2140  -58.5330   34.7740 H   0  0  0  0  0  0  0  0  0  0  0  0
   13.7630  -60.4180   34.9880 H   0  0  0  0  0  0  0  0  0  0  0  0
   15.0810  -61.4330   34.2420 H   0  0  0  0  0  0  0  0  0  0  0  0
   13.4140  -61.4530   33.5940 H   0  0  0  0  0  0  0  0  0  0  0  0
   15.9540  -53.4510   40.3910 H   0  0  0  0  0  0  0  0  0  0  0  0
   19.5640  -54.9650   37.3630 H   0  0  0  0  0  0  0  0  0  0  0  0
   18.7330  -54.1630   36.0000 H   0  0  0  0  0  0  0  0  0  0  0  0
   19.2880  -53.1630   37.4380 H   0  0  0  0  0  0  0  0  0  0  0  0
  2  1  1  0  0  0  0
  2  3  1  0  0  0  0
  3 30  1  0  0  0  0
  4  3  2  0  0  0  0
  4 31  1  0  0  0  0
  5  4  1  0  0  0  0
  6  7  1  0  0  0  0
  6  5  2  0  0  0  0
  7  2  2  0  0  0  0
  8  9  2  0  0  0  0
  8  5  1  0  0  0  0
 10  8  1  0  0  0  0
 10 35  1  0  0  0  0
 11 10  1  0  0  0  0
 11 12  1  0  0  0  0
 12 27  1  0  0  0  0
 13 23  1  0  0  0  0
 13 12  2  0  0  0  0
 14 13  1  0  0  0  0
 15 14  2  0  0  0  0
 15 11  1  0  0  0  0
 16 15  1  0  0  0  0
 17 16  1  0  0  0  0
 17 36  1  0  0  0  0
 18 39  1  0  0  0  0
 18 17  1  0  0  0  0
 19 20  1  0  0  0  0
 19 18  1  0  0  0  0
 19 22  1  0  0  0  0
 20 21  1  0  0  0  0
 21 43  1  0  0  0  0
 21 16  1  0  0  0  0
 21 42  1  0  0  0  0
 22 45  1  0  0  0  0
 22 44  1  0  0  0  0
 23 24  1  0  0  0  0
 24 25  2  0  0  0  0
 24 26  1  0  0  0  0
 26 47  1  0  0  0  0
 27 26  1  0  0  0  0
 27 28  2  0  0  0  0
 29 48  1  0  0  0  0
 29 50  1  0  0  0  0
 29 23  1  0  0  0  0
 32  6  1  0  0  0  0
 33  7  1  0  0  0  0
 34 10  1  0  0  0  0
 37 17  1  0  0  0  0
 38 18  1  0  0  0  0
 40 20  1  0  0  0  0
 41 20  1  0  0  0  0
 46 22  1  0  0  0  0
 49 29  1  0  0  0  0
M  END
>  <Pose>
1

>  <Score>
-6.97

$$$$
