
 OpenBabel03232204043D

 58 61  0  0  1  0  0  0  0  0999 V2000
   20.5640  -53.3690   33.7820 B   0  0  0  0  0  0  0  0  0  0  0  0
   19.1230  -54.6040   33.7930 C   0  0  0  0  0  0  0  0  0  0  0  0
   18.5040  -54.9130   32.6060 C   0  0  0  0  0  0  0  0  0  0  0  0
   17.4620  -55.8030   32.6000 C   0  0  0  0  0  0  0  0  0  0  0  0
   17.0050  -56.4130   33.7740 C   0  0  0  0  0  0  0  0  0  0  0  0
   17.6690  -56.0600   34.9320 C   0  0  0  0  0  0  0  0  0  0  0  0
   18.7230  -55.1660   34.9770 C   0  0  0  0  0  0  0  0  0  0  0  0
   15.9040  -57.3580   33.7400 C   0  0  0  0  0  0  0  0  0  0  0  0
   14.8480  -57.0700   34.3400 O   0  0  0  0  0  0  0  0  0  0  0  0
   16.0430  -58.6100   33.0200 C   0  0  2  0  0  0  0  0  0  0  0  0
   14.8270  -59.5040   33.0450 C   0  0  1  0  0  0  0  0  0  0  0  0
   15.3620  -60.7590   32.5690 N   0  0  0  0  0  0  0  0  0  0  0  0
   16.6970  -60.8350   33.0590 C   0  0  0  0  0  0  0  0  0  0  0  0
   17.4600  -61.8470   32.9800 O   0  0  0  0  0  0  0  0  0  0  0  0
   17.0370  -59.5380   33.6740 C   0  0  0  0  0  0  0  0  0  0  0  0
   17.9240  -59.3090   34.5120 O   0  0  0  0  0  0  0  0  0  0  0  0
   14.7450  -61.7810   31.7610 C   0  0  0  0  0  0  0  0  0  0  0  0
   15.2420  -61.8080   30.3470 C   0  0  0  0  0  0  0  0  0  0  0  0
   14.2480  -61.7020   29.3500 N   0  0  0  0  0  4  0  0  0  0  0  0
   14.1680  -62.9880   28.6490 C   0  0  0  0  0  0  0  0  0  0  0  0
   15.3630  -63.2500   27.7940 C   0  0  0  0  0  0  0  0  0  0  0  0
   16.1580  -62.1540   27.5630 O   0  0  0  0  0  0  0  0  0  0  0  0
   15.4040  -61.0420   27.2800 C   0  0  0  0  0  0  0  0  0  0  0  0
   14.4300  -60.6900   28.3710 C   0  0  0  0  0  0  0  0  0  0  0  0
   14.1640  -59.5840   34.3370 C   0  0  0  0  0  0  0  0  0  0  0  0
   14.6630  -58.9290   35.4710 C   0  0  0  0  0  0  0  0  0  0  0  0
   14.0270  -59.0070   36.6930 C   0  0  0  0  0  0  0  0  0  0  0  0
   12.8630  -59.7380   36.8450 C   0  0  0  0  0  0  0  0  0  0  0  0
   12.3540  -60.3900   35.7430 C   0  0  0  0  0  0  0  0  0  0  0  0
   13.0060  -60.3020   34.5220 C   0  0  0  0  0  0  0  0  0  0  0  0
   12.2030  -59.8330   38.0640 O   0  0  0  0  0  0  0  0  0  0  0  0
   14.5150  -58.3620   37.8160 O   0  0  0  0  0  0  0  0  0  0  0  0
   13.8800  -57.2650   38.4220 C   0  0  0  0  0  0  0  0  0  0  0  0
   18.8570  -54.4430   31.7070 H   0  0  0  0  0  0  0  0  0  0  0  0
   16.9420  -56.0810   31.6960 H   0  0  0  0  0  0  0  0  0  0  0  0
   17.3810  -56.4890   35.8810 H   0  0  0  0  0  0  0  0  0  0  0  0
   19.2260  -54.9050   35.8830 H   0  0  0  0  0  0  0  0  0  0  0  0
   16.3920  -58.4950   31.9720 H   0  0  0  0  0  0  0  0  0  0  0  0
   14.1080  -59.0560   32.3230 H   0  0  0  0  0  0  0  0  0  0  0  0
   13.6520  -61.5250   31.7140 H   0  0  0  0  0  0  0  0  0  0  0  0
   14.8160  -62.7850   32.1780 H   0  0  0  0  0  0  0  0  0  0  0  0
   15.8340  -62.7480   30.1450 H   0  0  0  0  0  0  0  0  0  0  0  0
   15.9770  -60.9840   30.2390 H   0  0  0  0  0  0  0  0  0  0  0  0
   13.2900  -61.5730   29.7790 H   0  0  0  0  0  0  0  0  0  0  0  0
   13.9280  -63.8160   29.3430 H   0  0  0  0  0  0  0  0  0  0  0  0
   13.2840  -62.8930   27.9610 H   0  0  0  0  0  0  0  0  0  0  0  0
   15.9960  -64.0140   28.3090 H   0  0  0  0  0  0  0  0  0  0  0  0
   15.0740  -63.6560   26.7820 H   0  0  0  0  0  0  0  0  0  0  0  0
   16.1030  -60.1840   27.0540 H   0  0  0  0  0  0  0  0  0  0  0  0
   14.8940  -61.2340   26.2960 H   0  0  0  0  0  0  0  0  0  0  0  0
   14.7100  -59.6960   28.7650 H   0  0  0  0  0  0  0  0  0  0  0  0
   13.4320  -60.5330   27.8630 H   0  0  0  0  0  0  0  0  0  0  0  0
   15.5800  -58.3530   35.3530 H   0  0  0  0  0  0  0  0  0  0  0  0
   11.4440  -60.9590   35.8750 H   0  0  0  0  0  0  0  0  0  0  0  0
   12.5740  -60.8200   33.7040 H   0  0  0  0  0  0  0  0  0  0  0  0
   13.6090  -56.4740   37.6740 H   0  0  0  0  0  0  0  0  0  0  0  0
   14.6070  -56.7810   39.1070 H   0  0  0  0  0  0  0  0  0  0  0  0
   12.9910  -57.5260   39.0080 H   0  0  0  0  0  0  0  0  0  0  0  0
  1  2  1  0  0  0  0
  2  7  1  0  0  0  0
  3  2  2  0  0  0  0
  4  3  1  0  0  0  0
  4  5  2  0  0  0  0
  5  6  1  0  0  0  0
  6  7  2  0  0  0  0
  6 36  1  0  0  0  0
  7 37  1  0  0  0  0
  8  5  1  0  0  0  0
  8  9  2  0  0  0  0
 10 38  1  6  0  0  0
 10 11  1  0  0  0  0
 10 15  1  0  0  0  0
 10  8  1  0  0  0  0
 11 39  1  6  0  0  0
 11 25  1  0  0  0  0
 12 11  1  0  0  0  0
 12 13  1  0  0  0  0
 13 15  1  0  0  0  0
 14 13  2  0  0  0  0
 15 16  2  0  0  0  0
 17 41  1  0  0  0  0
 17 12  1  0  0  0  0
 18 17  1  0  0  0  0
 19 44  1  0  0  0  0
 19 18  1  0  0  0  0
 20 45  1  0  0  0  0
 20 19  1  0  0  0  0
 21 47  1  0  0  0  0
 21 20  1  0  0  0  0
 22 21  1  0  0  0  0
 23 22  1  0  0  0  0
 23 24  1  0  0  0  0
 24 51  1  0  0  0  0
 24 19  1  0  0  0  0
 25 30  2  0  0  0  0
 25 26  1  0  0  0  0
 26 27  2  0  0  0  0
 27 28  1  0  0  0  0
 27 32  1  0  0  0  0
 28 31  1  0  0  0  0
 29 54  1  0  0  0  0
 29 28  2  0  0  0  0
 30 29  1  0  0  0  0
 32 33  1  0  0  0  0
 33 58  1  0  0  0  0
 33 57  1  0  0  0  0
 34  3  1  0  0  0  0
 35  4  1  0  0  0  0
 40 17  1  0  0  0  0
 42 18  1  0  0  0  0
 43 18  1  0  0  0  0
 46 20  1  0  0  0  0
 48 21  1  0  0  0  0
 49 23  1  0  0  0  0
 50 23  1  0  0  0  0
 52 24  1  0  0  0  0
 53 26  1  0  0  0  0
 55 30  1  0  0  0  0
 56 33  1  0  0  0  0
M  END
>  <Pose>
1

>  <Score>
-6.60

$$$$
