
 OpenBabel03232204043D

 41 44  0  0  1  0  0  0  0  0999 V2000
   18.5740  -51.9460   37.1860 B   0  0  0  0  0  0  0  0  0  0  0  0
   17.9830  -53.6470   36.5510 C   0  0  0  0  0  0  0  0  0  0  0  0
   18.4000  -54.1380   35.3330 C   0  0  0  0  0  0  0  0  0  0  0  0
   18.0020  -55.3570   34.8330 C   0  0  0  0  0  0  0  0  0  0  0  0
   17.1480  -56.1500   35.5560 C   0  0  0  0  0  0  0  0  0  0  0  0
   16.7220  -55.6660   36.7830 C   0  0  0  0  0  0  0  0  0  0  0  0
   17.1260  -54.4460   37.2750 C   0  0  0  0  0  0  0  0  0  0  0  0
   16.6920  -57.4370   35.0820 C   0  0  0  0  0  0  0  0  0  0  0  0
   17.4080  -58.4590   35.3370 O   0  0  0  0  0  0  0  0  0  0  0  0
   15.4590  -57.6760   34.3190 C   0  0  1  0  0  0  0  0  0  0  0  0
   15.3550  -59.0650   33.9000 N   0  0  0  0  0  0  0  0  0  0  0  0
   16.1520  -60.1910   33.9250 N   0  0  0  0  0  0  0  0  0  0  0  0
   15.7450  -61.3590   33.5720 C   0  0  0  0  0  0  0  0  0  0  0  0
   14.3880  -61.5330   33.1080 C   0  0  0  0  0  0  0  0  0  0  0  0
   13.5770  -60.5040   33.0290 C   0  0  0  0  0  0  0  0  0  0  0  0
   13.9920  -59.1600   33.3840 C   0  0  1  0  0  0  0  0  0  0  0  0
   13.2240  -58.4980   34.4730 C   0  0  2  0  0  0  0  0  0  0  0  0
   14.2100  -57.5490   35.1630 C   0  0  1  0  0  0  0  0  0  0  0  0
   14.3650  -58.1140   36.5020 C   0  0  0  0  0  0  0  0  0  0  0  0
   15.2750  -57.8150   37.3230 O   0  0  0  0  0  0  0  0  0  0  0  0
   13.3290  -59.0500   36.7270 N   0  0  0  0  0  0  0  0  0  0  0  0
   12.7240  -59.4240   35.4960 C   0  0  0  0  0  0  0  0  0  0  0  0
   11.9150  -60.3650   35.3100 O   0  0  0  0  0  0  0  0  0  0  0  0
   12.9230  -59.5670   38.0130 C   0  0  0  0  0  0  0  0  0  0  0  0
   12.2660  -58.5450   38.8890 C   0  0  0  0  0  0  0  0  0  0  0  0
   19.0840  -53.5370   34.7220 H   0  0  0  0  0  0  0  0  0  0  0  0
   18.3540  -55.7240   33.8610 H   0  0  0  0  0  0  0  0  0  0  0  0
   16.0360  -56.2800   37.3870 H   0  0  0  0  0  0  0  0  0  0  0  0
   16.7710  -54.1060   38.2340 H   0  0  0  0  0  0  0  0  0  0  0  0
   15.3990  -56.9710   33.4940 H   0  0  0  0  0  0  0  0  0  0  0  0
   16.3960  -62.2460   33.6080 H   0  0  0  0  0  0  0  0  0  0  0  0
   14.0590  -62.5370   32.8260 H   0  0  0  0  0  0  0  0  0  0  0  0
   12.5600  -60.6590   32.6870 H   0  0  0  0  0  0  0  0  0  0  0  0
   13.9990  -58.5360   32.4420 H   0  0  0  0  0  0  0  0  0  0  0  0
   12.3440  -57.9490   34.0690 H   0  0  0  0  0  0  0  0  0  0  0  0
   13.7380  -56.5620   35.1370 H   0  0  0  0  0  0  0  0  0  0  0  0
   13.7760  -60.0060   38.5790 H   0  0  0  0  0  0  0  0  0  0  0  0
   12.1890  -60.4100   37.8940 H   0  0  0  0  0  0  0  0  0  0  0  0
   12.6110  -57.5100   38.6740 H   0  0  0  0  0  0  0  0  0  0  0  0
   11.1530  -58.6260   38.8260 H   0  0  0  0  0  0  0  0  0  0  0  0
   12.5130  -58.7430   39.9650 H   0  0  0  0  0  0  0  0  0  0  0  0
  2  1  1  0  0  0  0
  2  7  1  0  0  0  0
  3  2  2  0  0  0  0
  4  3  1  0  0  0  0
  4  5  2  0  0  0  0
  5  6  1  0  0  0  0
  6  7  2  0  0  0  0
  6 28  1  0  0  0  0
  7 29  1  0  0  0  0
  8  9  2  0  0  0  0
  8  5  1  0  0  0  0
 10 30  1  6  0  0  0
 10  8  1  0  0  0  0
 10 18  1  0  0  0  0
 11 12  1  0  0  0  0
 11 10  1  0  0  0  0
 13 31  1  0  0  0  0
 13 12  2  0  0  0  0
 14 13  1  0  0  0  0
 15 14  2  0  0  0  0
 15 16  1  0  0  0  0
 16 34  1  6  0  0  0
 16 11  1  0  0  0  0
 16 17  1  0  0  0  0
 17 35  1  6  0  0  0
 17 18  1  0  0  0  0
 17 22  1  0  0  0  0
 18 36  1  1  0  0  0
 18 19  1  0  0  0  0
 19 21  1  0  0  0  0
 19 20  2  0  0  0  0
 21 24  1  0  0  0  0
 22 21  1  0  0  0  0
 23 22  2  0  0  0  0
 24 37  1  0  0  0  0
 24 25  1  0  0  0  0
 25 41  1  0  0  0  0
 26  3  1  0  0  0  0
 27  4  1  0  0  0  0
 32 14  1  0  0  0  0
 33 15  1  0  0  0  0
 38 24  1  0  0  0  0
 39 25  1  0  0  0  0
 40 25  1  0  0  0  0
M  END
>  <Pose>
1

>  <Score>
-4.98

$$$$
