
 OpenBabel03232204043D

 35 38  0  0  1  0  0  0  0  0999 V2000
   10.3830  -59.2420   40.4640 B   0  0  0  0  0  0  0  0  0  0  0  0
   11.5670  -59.1320   38.9660 C   0  0  0  0  0  0  0  0  0  0  0  0
   11.3390  -59.9060   37.8660 C   0  0  0  0  0  0  0  0  0  0  0  0
   12.1810  -59.8370   36.7750 C   0  0  0  0  0  0  0  0  0  0  0  0
   13.2780  -58.9810   36.7690 C   0  0  0  0  0  0  0  0  0  0  0  0
   13.4920  -58.2080   37.8870 C   0  0  0  0  0  0  0  0  0  0  0  0
   12.6620  -58.2690   38.9760 C   0  0  0  0  0  0  0  0  0  0  0  0
   14.1230  -58.9360   35.5990 C   0  0  0  0  0  0  0  0  0  0  0  0
   13.6240  -58.4600   34.5280 O   0  0  0  0  0  0  0  0  0  0  0  0
   15.4520  -59.4070   35.6530 N   0  0  0  0  0  0  0  0  0  0  0  0
   16.5420  -58.5950   35.2440 N   0  0  0  0  0  0  0  0  0  0  0  0
   17.5070  -58.8360   34.2270 C   0  0  0  0  0  0  0  0  0  0  0  0
   17.5840  -59.9660   33.6350 O   0  0  0  0  0  0  0  0  0  0  0  0
   18.3400  -57.6270   33.9990 C   0  0  2  0  0  0  0  0  0  0  0  0
   17.6500  -56.6010   34.8780 C   0  0  1  0  0  0  0  0  0  0  0  0
   16.8130  -55.8690   33.8500 C   0  0  1  0  0  0  0  0  0  0  0  0
   17.9410  -55.6060   32.8310 C   0  0  0  0  0  0  0  0  0  0  0  0
   18.1800  -57.1090   32.5980 C   0  0  2  0  0  0  0  0  0  0  0  0
   16.7800  -57.4720   32.1810 C   0  0  0  0  0  0  0  0  0  0  0  0
   16.0040  -56.8200   33.0390 C   0  0  0  0  0  0  0  0  0  0  0  0
   16.8250  -57.3470   35.8440 C   0  0  0  0  0  0  0  0  0  0  0  0
   16.4640  -56.9340   36.9670 O   0  0  0  0  0  0  0  0  0  0  0  0
   10.5080  -60.5720   37.8360 H   0  0  0  0  0  0  0  0  0  0  0  0
   11.9650  -60.4750   35.9250 H   0  0  0  0  0  0  0  0  0  0  0  0
   14.3520  -57.5270   37.9010 H   0  0  0  0  0  0  0  0  0  0  0  0
   12.8130  -57.6710   39.8670 H   0  0  0  0  0  0  0  0  0  0  0  0
   15.6490  -60.3660   35.9910 H   0  0  0  0  0  0  0  0  0  0  0  0
   19.3960  -57.7970   34.2830 H   0  0  0  0  0  0  0  0  0  0  0  0
   18.3800  -55.9300   35.3190 H   0  0  0  0  0  0  0  0  0  0  0  0
   16.3260  -54.9840   34.1850 H   0  0  0  0  0  0  0  0  0  0  0  0
   17.5470  -55.1070   31.9400 H   0  0  0  0  0  0  0  0  0  0  0  0
   18.7860  -55.1180   33.3100 H   0  0  0  0  0  0  0  0  0  0  0  0
   18.9430  -57.3260   31.8940 H   0  0  0  0  0  0  0  0  0  0  0  0
   16.5660  -58.1230   31.3570 H   0  0  0  0  0  0  0  0  0  0  0  0
   14.9400  -56.9710   33.1230 H   0  0  0  0  0  0  0  0  0  0  0  0
  2  7  1  0  0  0  0
  2  1  1  0  0  0  0
  3  2  2  0  0  0  0
  4  3  1  0  0  0  0
  5  4  2  0  0  0  0
  5  6  1  0  0  0  0
  6 25  1  0  0  0  0
  6  7  2  0  0  0  0
  7 26  1  0  0  0  0
  8 10  1  0  0  0  0
  8  5  1  0  0  0  0
  9  8  2  0  0  0  0
 10 27  1  0  0  0  0
 11 10  1  0  0  0  0
 11 21  1  0  0  0  0
 12 11  1  0  0  0  0
 13 12  2  0  0  0  0
 14 12  1  0  0  0  0
 14 28  1  1  0  0  0
 14 15  1  0  0  0  0
 15 29  1  1  0  0  0
 15 21  1  0  0  0  0
 16 30  1  1  0  0  0
 16 15  1  0  0  0  0
 17 32  1  0  0  0  0
 17 16  1  0  0  0  0
 18 33  1  6  0  0  0
 18 17  1  0  0  0  0
 18 14  1  0  0  0  0
 19 18  1  0  0  0  0
 19 20  2  0  0  0  0
 20 35  1  0  0  0  0
 20 16  1  0  0  0  0
 21 22  2  0  0  0  0
 23  3  1  0  0  0  0
 24  4  1  0  0  0  0
 31 17  1  0  0  0  0
 34 19  1  0  0  0  0
M  END
>  <Pose>
1

>  <Score>
-5.38

$$$$
