
 OpenBabel03232204043D

 55 58  0  0  1  0  0  0  0  0999 V2000
   20.0230  -56.2020   28.4440 B   0  0  0  0  0  0  0  0  0  0  0  0
   19.1890  -56.2310   30.1770 C   0  0  0  0  0  0  0  0  0  0  0  0
   19.5570  -57.2330   31.0470 C   0  0  0  0  0  0  0  0  0  0  0  0
   18.9790  -57.2740   32.2840 C   0  0  0  0  0  0  0  0  0  0  0  0
   18.0340  -56.3230   32.6640 C   0  0  0  0  0  0  0  0  0  0  0  0
   17.6790  -55.3410   31.7970 C   0  0  0  0  0  0  0  0  0  0  0  0
   18.2550  -55.2870   30.5450 C   0  0  0  0  0  0  0  0  0  0  0  0
   17.4540  -56.5020   33.9840 C   0  0  0  0  0  0  0  0  0  0  0  0
   16.4820  -57.3520   34.1870 C   0  0  0  0  0  0  0  0  0  0  0  0
   15.7910  -57.6500   35.4920 C   0  0  2  0  0  0  0  0  0  0  0  0
   14.4630  -57.9690   35.0950 N   0  0  0  0  0  0  0  0  0  0  0  0
   14.5430  -58.5420   33.7670 C   0  0  0  0  0  0  0  0  0  0  0  0
   13.6840  -59.2530   33.1910 O   0  0  0  0  0  0  0  0  0  0  0  0
   15.8220  -58.1550   33.1830 C   0  0  0  0  0  0  0  0  0  0  0  0
   16.2290  -58.4800   32.0170 O   0  0  0  0  0  0  0  0  0  0  0  0
   13.1720  -57.8730   35.7510 C   0  0  0  0  0  0  0  0  0  0  0  0
   12.5180  -59.1760   36.0780 C   0  0  0  0  0  0  0  0  0  0  0  0
   11.6760  -59.1040   37.2610 N   0  0  0  0  0  4  0  0  0  0  0  0
   12.4920  -59.1260   38.4800 C   0  0  0  0  0  0  0  0  0  0  0  0
   11.4970  -58.8850   39.6240 C   0  0  0  0  0  0  0  0  0  0  0  0
   10.5250  -59.8540   39.6840 O   0  0  0  0  0  0  0  0  0  0  0  0
    9.8600  -60.0670   38.4870 C   0  0  0  0  0  0  0  0  0  0  0  0
   10.8140  -60.2570   37.3330 C   0  0  0  0  0  0  0  0  0  0  0  0
   15.9780  -56.5710   36.4530 C   0  0  0  0  0  0  0  0  0  0  0  0
   15.2340  -56.3630   37.5840 C   0  0  0  0  0  0  0  0  0  0  0  0
   15.4810  -55.3260   38.4450 C   0  0  0  0  0  0  0  0  0  0  0  0
   16.5040  -54.4570   38.1770 C   0  0  0  0  0  0  0  0  0  0  0  0
   17.2950  -54.6150   37.0430 C   0  0  0  0  0  0  0  0  0  0  0  0
   17.0210  -55.6640   36.2030 C   0  0  0  0  0  0  0  0  0  0  0  0
   14.6760  -55.1730   39.5910 N   0  0  0  0  0  0  0  0  0  0  0  0
   13.8120  -56.0240   39.9240 O   0  0  0  0  0  0  0  0  0  0  0  0
   14.8460  -54.0500   40.3670 O   0  0  0  0  0  0  0  0  0  0  0  0
   17.9290  -55.7580   35.0870 O   0  0  0  0  0  0  0  0  0  0  0  0
   20.2950  -57.9980   30.7860 H   0  0  0  0  0  0  0  0  0  0  0  0
   19.2680  -58.0750   32.9900 H   0  0  0  0  0  0  0  0  0  0  0  0
   16.9120  -54.6080   32.0840 H   0  0  0  0  0  0  0  0  0  0  0  0
   17.9680  -54.4960   29.8500 H   0  0  0  0  0  0  0  0  0  0  0  0
   16.2490  -58.5990   35.8740 H   0  0  0  0  0  0  0  0  0  0  0  0
   12.4980  -57.3310   35.0490 H   0  0  0  0  0  0  0  0  0  0  0  0
   13.2360  -57.2790   36.6870 H   0  0  0  0  0  0  0  0  0  0  0  0
   13.1450  -60.0530   36.1330 H   0  0  0  0  0  0  0  0  0  0  0  0
   11.8270  -59.3770   35.1820 H   0  0  0  0  0  0  0  0  0  0  0  0
   11.1070  -58.2570   37.3240 H   0  0  0  0  0  0  0  0  0  0  0  0
   13.2050  -58.2810   38.5120 H   0  0  0  0  0  0  0  0  0  0  0  0
   12.9460  -60.1030   38.6660 H   0  0  0  0  0  0  0  0  0  0  0  0
   12.0010  -58.8280   40.5890 H   0  0  0  0  0  0  0  0  0  0  0  0
   11.0500  -57.8760   39.4110 H   0  0  0  0  0  0  0  0  0  0  0  0
    9.3200  -61.0510   38.6080 H   0  0  0  0  0  0  0  0  0  0  0  0
    9.1030  -59.3060   38.2530 H   0  0  0  0  0  0  0  0  0  0  0  0
   10.2330  -60.3090   36.3960 H   0  0  0  0  0  0  0  0  0  0  0  0
   11.4140  -61.1850   37.4830 H   0  0  0  0  0  0  0  0  0  0  0  0
   14.4250  -57.0370   37.7960 H   0  0  0  0  0  0  0  0  0  0  0  0
   16.7510  -53.6190   38.8150 H   0  0  0  0  0  0  0  0  0  0  0  0
   18.1110  -53.9200   36.8310 H   0  0  0  0  0  0  0  0  0  0  0  0
   17.6470  -55.7870   35.3080 H   0  0  0  0  0  0  0  0  0  0  0  0
  1  2  1  0  0  0  0
  2  7  2  0  0  0  0
  2  3  1  0  0  0  0
  3  4  2  0  0  0  0
  4  5  1  0  0  0  0
  4 35  1  0  0  0  0
  5  8  1  0  0  0  0
  6 36  1  0  0  0  0
  6  5  2  0  0  0  0
  7  6  1  0  0  0  0
  8  9  2  0  0  0  0
  8 33  1  0  0  0  0
  9 10  1  0  0  0  0
 10 38  1  1  0  0  0
 10 24  1  0  0  0  0
 11 10  1  0  0  0  0
 11 16  1  0  0  0  0
 12 11  1  0  0  0  0
 13 12  2  0  0  0  0
 14 12  1  0  0  0  0
 14  9  1  0  0  0  0
 15 14  2  0  0  0  0
 16 17  1  0  0  0  0
 16 40  1  0  0  0  0
 17 41  1  0  0  0  0
 17 18  1  0  0  0  0
 18 43  1  0  0  0  0
 18 23  1  0  0  0  0
 18 19  1  0  0  0  0
 19 44  1  0  0  0  0
 19 45  1  0  0  0  0
 19 20  1  0  0  0  0
 20 21  1  0  0  0  0
 20 46  1  0  0  0  0
 22 48  1  0  0  0  0
 22 21  1  0  0  0  0
 23 51  1  0  0  0  0
 23 22  1  0  0  0  0
 24 25  1  0  0  0  0
 25 52  1  0  0  0  0
 25 26  2  0  0  0  0
 26 30  1  0  0  0  0
 27 26  1  0  0  0  0
 27 53  1  0  0  0  0
 28 27  2  0  0  0  0
 29 24  2  0  0  0  0
 29 28  1  0  0  0  0
 30 31  2  0  0  0  0
 30 32  2  0  0  0  0
 34  3  1  0  0  0  0
 37  7  1  0  0  0  0
 39 16  1  0  0  0  0
 42 17  1  0  0  0  0
 47 20  1  0  0  0  0
 49 22  1  0  0  0  0
 50 23  1  0  0  0  0
 54 28  1  0  0  0  0
 55 29  1  0  0  0  0
M  END
>  <Pose>
1

>  <Score>
-7.28

$$$$
