
 OpenBabel03232204043D

 59 62  0  0  1  0  0  0  0  0999 V2000
   20.1880  -55.4720   29.5790 B   0  0  0  0  0  0  0  0  0  0  0  0
   19.3430  -56.1470   31.1570 C   0  0  0  0  0  0  0  0  0  0  0  0
   18.7050  -55.2780   32.0160 C   0  0  0  0  0  0  0  0  0  0  0  0
   18.0890  -55.7470   33.1560 C   0  0  0  0  0  0  0  0  0  0  0  0
   18.0710  -57.1020   33.5090 C   0  0  0  0  0  0  0  0  0  0  0  0
   18.7130  -57.9540   32.6410 C   0  0  0  0  0  0  0  0  0  0  0  0
   19.3410  -57.4830   31.4800 C   0  0  0  0  0  0  0  0  0  0  0  0
   17.4350  -57.5300   34.7460 C   0  0  0  0  0  0  0  0  0  0  0  0
   16.1690  -57.8700   34.8380 C   0  0  0  0  0  0  0  0  0  0  0  0
   15.4650  -58.3240   36.0910 C   0  0  2  0  0  0  0  0  0  0  0  0
   14.1410  -58.6630   35.6990 N   0  0  0  0  0  0  0  0  0  0  0  0
   13.9060  -58.3280   34.3150 C   0  0  0  0  0  0  0  0  0  0  0  0
   12.8570  -58.4230   33.6630 O   0  0  0  0  0  0  0  0  0  0  0  0
   15.1900  -57.8260   33.7760 C   0  0  0  0  0  0  0  0  0  0  0  0
   15.3710  -57.4280   32.5800 O   0  0  0  0  0  0  0  0  0  0  0  0
   13.1020  -59.2520   36.5020 C   0  0  0  0  0  0  0  0  0  0  0  0
   12.6430  -60.5990   36.0610 C   0  0  0  0  0  0  0  0  0  0  0  0
   12.6600  -61.6150   37.0710 N   0  0  0  0  0  4  0  0  0  0  0  0
   12.3480  -62.9410   36.5780 C   0  0  0  0  0  0  0  0  0  0  0  0
   12.6000  -63.9090   37.7150 C   0  0  0  0  0  0  0  0  0  0  0  0
   11.6110  -63.6250   38.6870 O   0  0  0  0  0  0  0  0  0  0  0  0
   11.9410  -62.3710   39.2060 C   0  0  0  0  0  0  0  0  0  0  0  0
   11.6640  -61.3380   38.1250 C   0  0  0  0  0  0  0  0  0  0  0  0
   15.4840  -57.1260   36.9850 C   0  0  0  0  0  0  0  0  0  0  0  0
   14.5580  -57.0490   37.9780 C   0  0  0  0  0  0  0  0  0  0  0  0
   14.5270  -55.9630   38.8280 C   0  0  0  0  0  0  0  0  0  0  0  0
   15.4350  -54.9500   38.6760 C   0  0  0  0  0  0  0  0  0  0  0  0
   16.3690  -55.0310   37.6750 C   0  0  0  0  0  0  0  0  0  0  0  0
   16.4050  -56.1190   36.8180 C   0  0  0  0  0  0  0  0  0  0  0  0
   15.4100  -53.7910   39.5710 C   0  0  0  0  0  0  0  0  0  0  0  0
   14.9590  -53.9190   40.7370 O   0  0  0  0  0  0  0  0  0  0  0  0
   15.8580  -52.5520   39.2010 O   0  0  0  0  0  0  0  0  0  0  0  0
   17.1650  -52.3170   38.7250 C   0  0  0  0  0  0  0  0  0  0  0  0
   18.1760  -57.5990   35.9490 O   0  0  0  0  0  0  0  0  0  0  0  0
   18.7060  -54.2130   31.7600 H   0  0  0  0  0  0  0  0  0  0  0  0
   17.5990  -55.0530   33.8120 H   0  0  0  0  0  0  0  0  0  0  0  0
   18.7540  -59.0240   32.8750 H   0  0  0  0  0  0  0  0  0  0  0  0
   19.8360  -58.1760   30.8170 H   0  0  0  0  0  0  0  0  0  0  0  0
   16.0810  -59.1420   36.4910 H   0  0  0  0  0  0  0  0  0  0  0  0
   13.4060  -59.3070   37.5880 H   0  0  0  0  0  0  0  0  0  0  0  0
   12.1870  -58.5930   36.5150 H   0  0  0  0  0  0  0  0  0  0  0  0
   13.3650  -60.9440   35.2640 H   0  0  0  0  0  0  0  0  0  0  0  0
   11.6620  -60.5800   35.5460 H   0  0  0  0  0  0  0  0  0  0  0  0
   13.5690  -61.6250   37.6050 H   0  0  0  0  0  0  0  0  0  0  0  0
   12.9120  -63.2170   35.6650 H   0  0  0  0  0  0  0  0  0  0  0  0
   11.2510  -62.9830   36.3660 H   0  0  0  0  0  0  0  0  0  0  0  0
   12.4620  -64.9540   37.3610 H   0  0  0  0  0  0  0  0  0  0  0  0
   13.6210  -63.7480   38.1580 H   0  0  0  0  0  0  0  0  0  0  0  0
   13.0560  -62.3650   39.3540 H   0  0  0  0  0  0  0  0  0  0  0  0
   11.3840  -62.1510   40.1360 H   0  0  0  0  0  0  0  0  0  0  0  0
   10.6610  -61.4950   37.6530 H   0  0  0  0  0  0  0  0  0  0  0  0
   11.7660  -60.3030   38.5100 H   0  0  0  0  0  0  0  0  0  0  0  0
   13.8320  -57.8160   38.1310 H   0  0  0  0  0  0  0  0  0  0  0  0
   13.7950  -55.9150   39.6010 H   0  0  0  0  0  0  0  0  0  0  0  0
   17.0850  -54.2050   37.5760 H   0  0  0  0  0  0  0  0  0  0  0  0
   17.1290  -56.1780   36.0430 H   0  0  0  0  0  0  0  0  0  0  0  0
   17.8300  -51.8950   39.4800 H   0  0  0  0  0  0  0  0  0  0  0  0
   17.6180  -53.2600   38.3300 H   0  0  0  0  0  0  0  0  0  0  0  0
   17.1370  -51.5920   37.8650 H   0  0  0  0  0  0  0  0  0  0  0  0
  1  2  1  0  0  0  0
  2  7  2  0  0  0  0
  2  3  1  0  0  0  0
  3  4  2  0  0  0  0
  4  5  1  0  0  0  0
  4 36  1  0  0  0  0
  5  8  1  0  0  0  0
  6 37  1  0  0  0  0
  6  5  2  0  0  0  0
  7  6  1  0  0  0  0
  8  9  2  0  0  0  0
  8 34  1  0  0  0  0
  9 10  1  0  0  0  0
 10 39  1  1  0  0  0
 10 24  1  0  0  0  0
 11 10  1  0  0  0  0
 11 16  1  0  0  0  0
 12 11  1  0  0  0  0
 13 12  2  0  0  0  0
 14 12  1  0  0  0  0
 14  9  1  0  0  0  0
 15 14  2  0  0  0  0
 16 41  1  0  0  0  0
 16 40  1  0  0  0  0
 17 16  1  0  0  0  0
 17 18  1  0  0  0  0
 18 44  1  0  0  0  0
 18 23  1  0  0  0  0
 19 18  1  0  0  0  0
 19 20  1  0  0  0  0
 20 48  1  0  0  0  0
 20 21  1  0  0  0  0
 21 22  1  0  0  0  0
 22 49  1  0  0  0  0
 22 50  1  0  0  0  0
 23 52  1  0  0  0  0
 23 22  1  0  0  0  0
 24 25  1  0  0  0  0
 25 53  1  0  0  0  0
 25 26  2  0  0  0  0
 26 54  1  0  0  0  0
 27 26  1  0  0  0  0
 27 30  1  0  0  0  0
 28 27  2  0  0  0  0
 29 24  2  0  0  0  0
 29 28  1  0  0  0  0
 30 31  2  0  0  0  0
 32 30  1  0  0  0  0
 33 32  1  0  0  0  0
 33 57  1  0  0  0  0
 35  3  1  0  0  0  0
 38  7  1  0  0  0  0
 42 17  1  0  0  0  0
 43 17  1  0  0  0  0
 45 19  1  0  0  0  0
 46 19  1  0  0  0  0
 47 20  1  0  0  0  0
 51 23  1  0  0  0  0
 55 28  1  0  0  0  0
 56 29  1  0  0  0  0
 58 33  1  0  0  0  0
 59 33  1  0  0  0  0
M  END
>  <Pose>
1

>  <Score>
-6.90

$$$$
