
 OpenBabel03232204043D

 53 56  0  0  1  0  0  0  0  0999 V2000
   11.3100  -62.9900   34.9700 B   0  0  0  0  0  0  0  0  0  0  0  0
   12.2920  -61.3830   34.6060 C   0  0  0  0  0  0  0  0  0  0  0  0
   12.1440  -60.2630   35.3910 C   0  0  0  0  0  0  0  0  0  0  0  0
   12.8560  -59.1050   35.1210 C   0  0  0  0  0  0  0  0  0  0  0  0
   13.7360  -59.0260   34.0650 C   0  0  0  0  0  0  0  0  0  0  0  0
   13.8830  -60.1470   33.2820 C   0  0  0  0  0  0  0  0  0  0  0  0
   13.1680  -61.3180   33.5480 C   0  0  0  0  0  0  0  0  0  0  0  0
   14.5030  -57.8200   33.8040 C   0  0  0  0  0  0  0  0  0  0  0  0
   15.8130  -57.7190   33.9190 C   0  0  0  0  0  0  0  0  0  0  0  0
   16.7080  -56.5480   33.6880 C   0  0  1  0  0  0  0  0  0  0  0  0
   17.7680  -56.7440   34.6910 N   0  0  0  0  0  0  0  0  0  0  0  0
   17.9420  -58.1450   34.7650 C   0  0  0  0  0  0  0  0  0  0  0  0
   18.9640  -58.7100   35.1750 O   0  0  0  0  0  0  0  0  0  0  0  0
   16.7290  -58.7970   34.2850 C   0  0  0  0  0  0  0  0  0  0  0  0
   16.4460  -60.0160   34.1720 O   0  0  0  0  0  0  0  0  0  0  0  0
   18.3990  -55.6640   35.3570 C   0  0  0  0  0  0  0  0  0  0  0  0
   17.7010  -55.0180   36.4820 C   0  0  0  0  0  0  0  0  0  0  0  0
   17.4740  -53.6100   36.3670 N   0  0  0  0  0  4  0  0  0  0  0  0
   18.6350  -52.7990   36.2650 C   0  0  0  0  0  0  0  0  0  0  0  0
   18.8430  -52.0730   37.5760 C   0  0  0  0  0  0  0  0  0  0  0  0
   18.5720  -52.8820   38.6760 O   0  0  0  0  0  0  0  0  0  0  0  0
   17.2310  -53.2060   38.7770 C   0  0  0  0  0  0  0  0  0  0  0  0
   16.6110  -53.0870   37.4030 C   0  0  0  0  0  0  0  0  0  0  0  0
   17.2240  -56.4470   32.3220 C   0  0  0  0  0  0  0  0  0  0  0  0
   17.9220  -55.3090   31.9000 C   0  0  0  0  0  0  0  0  0  0  0  0
   18.4280  -55.1540   30.6460 C   0  0  0  0  0  0  0  0  0  0  0  0
   18.2610  -56.1560   29.7080 C   0  0  0  0  0  0  0  0  0  0  0  0
   17.5830  -57.2780   30.0900 C   0  0  0  0  0  0  0  0  0  0  0  0
   17.0650  -57.4370   31.3780 C   0  0  0  0  0  0  0  0  0  0  0  0
   13.7980  -56.6690   33.3990 O   0  0  0  0  0  0  0  0  0  0  0  0
   11.4590  -60.3090   36.2220 H   0  0  0  0  0  0  0  0  0  0  0  0
   12.7520  -58.2130   35.7290 H   0  0  0  0  0  0  0  0  0  0  0  0
   14.5540  -60.2150   32.4380 H   0  0  0  0  0  0  0  0  0  0  0  0
   13.2890  -62.1990   32.9250 H   0  0  0  0  0  0  0  0  0  0  0  0
   16.1380  -55.6210   33.9060 H   0  0  0  0  0  0  0  0  0  0  0  0
   19.4140  -56.0200   35.6840 H   0  0  0  0  0  0  0  0  0  0  0  0
   18.6590  -54.9000   34.5630 H   0  0  0  0  0  0  0  0  0  0  0  0
   18.3730  -55.1410   37.3870 H   0  0  0  0  0  0  0  0  0  0  0  0
   16.7530  -55.4910   36.7820 H   0  0  0  0  0  0  0  0  0  0  0  0
   16.9280  -53.4940   35.4580 H   0  0  0  0  0  0  0  0  0  0  0  0
   19.5460  -53.3480   35.9460 H   0  0  0  0  0  0  0  0  0  0  0  0
   18.4730  -51.9970   35.4870 H   0  0  0  0  0  0  0  0  0  0  0  0
   18.2040  -51.1650   37.5470 H   0  0  0  0  0  0  0  0  0  0  0  0
   19.8990  -51.7230   37.5890 H   0  0  0  0  0  0  0  0  0  0  0  0
   16.7110  -52.5070   39.4610 H   0  0  0  0  0  0  0  0  0  0  0  0
   17.1010  -54.2200   39.2080 H   0  0  0  0  0  0  0  0  0  0  0  0
   15.5960  -53.5830   37.3750 H   0  0  0  0  0  0  0  0  0  0  0  0
   16.3920  -52.0140   37.2440 H   0  0  0  0  0  0  0  0  0  0  0  0
   18.0670  -54.5080   32.6190 H   0  0  0  0  0  0  0  0  0  0  0  0
   18.9600  -54.2580   30.3650 H   0  0  0  0  0  0  0  0  0  0  0  0
   18.6670  -56.0240   28.7110 H   0  0  0  0  0  0  0  0  0  0  0  0
   17.4260  -58.0860   29.4010 H   0  0  0  0  0  0  0  0  0  0  0  0
   16.5460  -58.3330   31.6130 H   0  0  0  0  0  0  0  0  0  0  0  0
  2  1  1  0  0  0  0
  2  3  1  0  0  0  0
  3 31  1  0  0  0  0
  4  3  2  0  0  0  0
  4 32  1  0  0  0  0
  5  4  1  0  0  0  0
  6  7  1  0  0  0  0
  6  5  2  0  0  0  0
  7  2  2  0  0  0  0
  8  9  2  0  0  0  0
  8  5  1  0  0  0  0
  9 14  1  0  0  0  0
 10 35  1  1  0  0  0
 10  9  1  0  0  0  0
 10 11  1  0  0  0  0
 11 12  1  0  0  0  0
 11 16  1  0  0  0  0
 12 13  2  0  0  0  0
 14 12  1  0  0  0  0
 15 14  2  0  0  0  0
 16 36  1  0  0  0  0
 16 17  1  0  0  0  0
 17 39  1  0  0  0  0
 17 38  1  0  0  0  0
 18 17  1  0  0  0  0
 18 23  1  0  0  0  0
 19 18  1  0  0  0  0
 19 20  1  0  0  0  0
 20 44  1  0  0  0  0
 20 21  1  0  0  0  0
 21 22  1  0  0  0  0
 22 46  1  0  0  0  0
 22 45  1  0  0  0  0
 23 22  1  0  0  0  0
 24 10  1  0  0  0  0
 25 24  1  0  0  0  0
 25 49  1  0  0  0  0
 26 25  2  0  0  0  0
 27 28  2  0  0  0  0
 27 26  1  0  0  0  0
 28 29  1  0  0  0  0
 29 53  1  0  0  0  0
 29 24  2  0  0  0  0
 30  8  1  0  0  0  0
 33  6  1  0  0  0  0
 34  7  1  0  0  0  0
 37 16  1  0  0  0  0
 40 18  1  0  0  0  0
 41 19  1  0  0  0  0
 42 19  1  0  0  0  0
 43 20  1  0  0  0  0
 47 23  1  0  0  0  0
 48 23  1  0  0  0  0
 50 26  1  0  0  0  0
 51 27  1  0  0  0  0
 52 28  1  0  0  0  0
M  END
>  <Pose>
1

>  <Score>
-5.72

$$$$
