
 OpenBabel03232204043D

 48 51  0  0  1  0  0  0  0  0999 V2000
   20.4850  -61.7890   29.0550 B   0  0  0  0  0  0  0  0  0  0  0  0
   20.1650  -59.9090   29.2320 C   0  0  0  0  0  0  0  0  0  0  0  0
   18.9920  -59.4780   29.8090 C   0  0  0  0  0  0  0  0  0  0  0  0
   18.7700  -58.1320   29.9320 C   0  0  0  0  0  0  0  0  0  0  0  0
   19.7050  -57.2320   29.4850 C   0  0  0  0  0  0  0  0  0  0  0  0
   20.8640  -57.7000   28.9130 C   0  0  0  0  0  0  0  0  0  0  0  0
   21.1340  -59.0520   28.7660 C   0  0  0  0  0  0  0  0  0  0  0  0
   19.4550  -55.7480   29.6180 C   0  0  1  0  0  0  0  0  0  0  0  0
   19.3860  -55.2330   28.3380 O   0  0  0  0  0  0  0  0  0  0  0  0
   18.2370  -55.4890   30.4520 C   0  0  0  0  0  0  0  0  0  0  0  0
   18.5040  -55.4650   31.8600 N   0  0  0  0  0  0  0  0  0  0  0  0
   17.7230  -56.1210   32.7510 C   0  0  0  0  0  0  0  0  0  0  0  0
   18.2710  -55.8760   34.0000 C   0  0  0  0  0  0  0  0  0  0  0  0
   17.6710  -56.4390   35.1100 C   0  0  0  0  0  0  0  0  0  0  0  0
   16.5300  -57.2440   35.0060 C   0  0  0  0  0  0  0  0  0  0  0  0
   16.0180  -57.4610   33.7340 C   0  0  0  0  0  0  0  0  0  0  0  0
   16.5940  -56.9140   32.6140 C   0  0  0  0  0  0  0  0  0  0  0  0
   19.3730  -55.0780   33.8760 N   0  0  0  0  0  0  0  0  0  0  0  0
   19.4870  -54.8460   32.5410 C   0  0  2  0  0  0  0  0  0  0  0  0
   20.4250  -54.1230   32.0270 N   0  0  0  0  0  0  0  0  0  0  0  0
   20.1640  -54.6240   34.9810 C   0  0  0  0  0  0  0  0  0  0  0  0
   19.4540  -53.6360   35.8640 C   0  0  0  0  0  0  0  0  0  0  0  0
   19.8150  -52.3010   35.8010 C   0  0  0  0  0  0  0  0  0  0  0  0
   19.2090  -51.3330   36.5790 C   0  0  0  0  0  0  0  0  0  0  0  0
   18.2160  -51.7400   37.4350 C   0  0  0  0  0  0  0  0  0  0  0  0
   17.8400  -53.0540   37.5180 C   0  0  0  0  0  0  0  0  0  0  0  0
   18.4600  -53.9890   36.7330 C   0  0  0  0  0  0  0  0  0  0  0  0
   18.2440  -60.2140   30.1670 H   0  0  0  0  0  0  0  0  0  0  0  0
   17.8510  -57.7770   30.3850 H   0  0  0  0  0  0  0  0  0  0  0  0
   21.6250  -56.9910   28.5450 H   0  0  0  0  0  0  0  0  0  0  0  0
   22.0620  -59.4120   28.3090 H   0  0  0  0  0  0  0  0  0  0  0  0
   20.3810  -55.3140   30.0780 H   0  0  0  0  0  0  0  0  0  0  0  0
   19.2610  -54.2650   28.3100 H   0  0  0  0  0  0  0  0  0  0  0  0
   17.8950  -54.4470   30.1820 H   0  0  0  0  0  0  0  0  0  0  0  0
   17.3900  -56.1410   30.2050 H   0  0  0  0  0  0  0  0  0  0  0  0
   18.1110  -56.2520   36.0790 H   0  0  0  0  0  0  0  0  0  0  0  0
   16.1020  -57.6560   35.8920 H   0  0  0  0  0  0  0  0  0  0  0  0
   15.1340  -58.0820   33.6350 H   0  0  0  0  0  0  0  0  0  0  0  0
   16.1680  -57.1050   31.6420 H   0  0  0  0  0  0  0  0  0  0  0  0
   20.4470  -53.9860   30.9720 H   0  0  0  0  0  0  0  0  0  0  0  0
   21.1800  -53.6530   32.5310 H   0  0  0  0  0  0  0  0  0  0  0  0
   21.0980  -54.1230   34.6350 H   0  0  0  0  0  0  0  0  0  0  0  0
   20.4290  -55.4950   35.6150 H   0  0  0  0  0  0  0  0  0  0  0  0
   20.6110  -51.9410   35.1290 H   0  0  0  0  0  0  0  0  0  0  0  0
   19.5060  -50.2780   36.5160 H   0  0  0  0  0  0  0  0  0  0  0  0
   17.7060  -51.0160   38.0690 H   0  0  0  0  0  0  0  0  0  0  0  0
   17.0350  -53.3330   38.2220 H   0  0  0  0  0  0  0  0  0  0  0  0
   18.1560  -55.0050   36.8150 H   0  0  0  0  0  0  0  0  0  0  0  0
  1  2  1  0  0  0  0
  2  3  1  0  0  0  0
  3  4  2  0  0  0  0
  3 28  1  0  0  0  0
  4 29  1  0  0  0  0
  5  8  1  0  0  0  0
  5  4  1  0  0  0  0
  6  5  2  0  0  0  0
  7  6  1  0  0  0  0
  7  2  2  0  0  0  0
  8 32  1  1  0  0  0
  8 10  1  0  0  0  0
  9  8  1  0  0  0  0
 10 11  1  0  0  0  0
 11 19  1  0  0  0  0
 11 12  1  0  0  0  0
 12 13  1  0  0  0  0
 13 14  2  0  0  0  0
 14 36  1  0  0  0  0
 15 14  1  0  0  0  0
 15 37  1  0  0  0  0
 16 15  2  0  0  0  0
 17 12  2  0  0  0  0
 17 16  1  0  0  0  0
 18 13  1  0  0  0  0
 18 21  1  0  0  0  0
 19 20  1  1  0  0  0
 19 18  1  0  0  0  0
 20 41  1  0  0  0  0
 21 43  1  0  0  0  0
 21 22  1  0  0  0  0
 22 27  1  0  0  0  0
 23 22  2  0  0  0  0
 23 24  1  0  0  0  0
 24 25  2  0  0  0  0
 25 26  1  0  0  0  0
 25 46  1  0  0  0  0
 26 47  1  0  0  0  0
 27 48  1  0  0  0  0
 27 26  2  0  0  0  0
 30  6  1  0  0  0  0
 31  7  1  0  0  0  0
 33  9  1  0  0  0  0
 34 10  1  0  0  0  0
 35 10  1  0  0  0  0
 38 16  1  0  0  0  0
 39 17  1  0  0  0  0
 40 20  1  0  0  0  0
 42 21  1  0  0  0  0
 44 23  1  0  0  0  0
 45 24  1  0  0  0  0
M  END
>  <Pose>
1

>  <Score>
-5.95

$$$$
