
 OpenBabel03232204043D

 55 58  0  0  0  0  0  0  0  0999 V2000
   21.8500  -54.9220   28.1160 B   0  0  0  0  0  0  0  0  0  0  0  0
   20.4570  -55.3710   29.3620 C   0  0  0  0  0  0  0  0  0  0  0  0
   19.3820  -56.1410   28.9680 C   0  0  0  0  0  0  0  0  0  0  0  0
   18.3750  -56.4640   29.8640 C   0  0  0  0  0  0  0  0  0  0  0  0
   18.4360  -56.0190   31.1600 C   0  0  0  0  0  0  0  0  0  0  0  0
   19.5040  -55.2500   31.5710 C   0  0  0  0  0  0  0  0  0  0  0  0
   20.4990  -54.9360   30.6670 C   0  0  0  0  0  0  0  0  0  0  0  0
   17.3330  -56.3780   32.0720 C   0  0  0  0  0  0  0  0  0  0  0  0
   17.4230  -57.6890   32.6250 N   0  0  0  0  0  0  0  0  0  0  0  0
   18.6410  -58.0230   33.2320 C   0  0  0  0  0  0  0  0  0  0  0  0
   18.5090  -58.2250   34.7380 C   0  0  0  0  0  0  0  0  0  0  0  0
   17.1750  -57.8820   35.0920 N   0  0  0  0  0  0  0  0  0  0  0  0
   16.1280  -58.6620   34.4780 C   0  0  0  0  0  0  0  0  0  0  0  0
   16.2280  -58.3350   32.9830 C   0  0  0  0  0  0  0  0  0  0  0  0
   16.8460  -56.8350   35.9710 C   0  0  0  0  0  0  0  0  0  0  0  0
   17.3120  -55.5750   35.9730 N   0  0  0  0  0  0  0  0  0  0  0  0
   16.7750  -54.9040   37.0190 C   0  0  0  0  0  0  0  0  0  0  0  0
   15.9390  -55.7570   37.7060 C   0  0  0  0  0  0  0  0  0  0  0  0
   15.9990  -56.9160   37.0520 N   0  0  0  0  0  0  0  0  0  0  0  0
   15.2870  -55.3110   38.7960 N   0  0  0  0  0  0  0  0  0  0  0  0
   15.4250  -54.0540   39.2380 C   0  0  0  0  0  0  0  0  0  0  0  0
   14.7930  -53.6690   40.2740 O   0  0  0  0  0  0  0  0  0  0  0  0
   16.2360  -53.2060   38.5820 N   0  0  0  0  0  0  0  0  0  0  0  0
   16.9000  -53.6170   37.4930 C   0  0  0  0  0  0  0  0  0  0  0  0
   17.6570  -52.8230   36.8830 O   0  0  0  0  0  0  0  0  0  0  0  0
   14.4100  -56.2490   39.5050 C   0  0  0  0  0  0  0  0  0  0  0  0
   18.1970  -54.9460   35.0310 C   0  0  0  0  0  0  0  0  0  0  0  0
   19.6070  -54.8250   35.5650 C   0  0  0  0  0  0  0  0  0  0  0  0
   20.5210  -54.3680   34.6380 O   0  0  0  0  0  0  0  0  0  0  0  0
   20.0310  -53.1160   34.2000 C   0  0  0  0  0  0  0  0  0  0  0  0
   19.3470  -56.4800   27.9510 H   0  0  0  0  0  0  0  0  0  0  0  0
   17.5660  -57.0740   29.4760 H   0  0  0  0  0  0  0  0  0  0  0  0
   19.5840  -54.8800   32.6050 H   0  0  0  0  0  0  0  0  0  0  0  0
   21.3330  -54.3240   31.0140 H   0  0  0  0  0  0  0  0  0  0  0  0
   16.3490  -56.1840   31.6100 H   0  0  0  0  0  0  0  0  0  0  0  0
   17.4130  -55.6630   32.9460 H   0  0  0  0  0  0  0  0  0  0  0  0
   19.3310  -57.1240   33.1410 H   0  0  0  0  0  0  0  0  0  0  0  0
   19.2160  -58.8580   32.7590 H   0  0  0  0  0  0  0  0  0  0  0  0
   18.7090  -59.3330   34.8970 H   0  0  0  0  0  0  0  0  0  0  0  0
   19.3160  -57.7280   35.2940 H   0  0  0  0  0  0  0  0  0  0  0  0
   15.1520  -58.3920   34.8880 H   0  0  0  0  0  0  0  0  0  0  0  0
   16.3030  -59.7700   34.5980 H   0  0  0  0  0  0  0  0  0  0  0  0
   15.3790  -57.6460   32.7750 H   0  0  0  0  0  0  0  0  0  0  0  0
   16.0100  -59.2470   32.3910 H   0  0  0  0  0  0  0  0  0  0  0  0
   16.3490  -52.2080   38.9260 H   0  0  0  0  0  0  0  0  0  0  0  0
   15.0680  -56.8780   40.1500 H   0  0  0  0  0  0  0  0  0  0  0  0
   13.6250  -55.7530   40.0690 H   0  0  0  0  0  0  0  0  0  0  0  0
   13.9900  -56.9360   38.7300 H   0  0  0  0  0  0  0  0  0  0  0  0
   18.2590  -55.4660   34.0540 H   0  0  0  0  0  0  0  0  0  0  0  0
   17.8330  -53.9040   34.7790 H   0  0  0  0  0  0  0  0  0  0  0  0
   19.9160  -55.8010   36.0190 H   0  0  0  0  0  0  0  0  0  0  0  0
   19.6180  -54.1100   36.4060 H   0  0  0  0  0  0  0  0  0  0  0  0
   19.9750  -52.4430   35.0990 H   0  0  0  0  0  0  0  0  0  0  0  0
   19.0030  -53.1780   33.8220 H   0  0  0  0  0  0  0  0  0  0  0  0
   20.7360  -52.7060   33.4520 H   0  0  0  0  0  0  0  0  0  0  0  0
  1  2  1  0  0  0  0
  2  7  1  0  0  0  0
  3  2  2  0  0  0  0
  3  4  1  0  0  0  0
  4  5  2  0  0  0  0
  5  6  1  0  0  0  0
  5  8  1  0  0  0  0
  6 33  1  0  0  0  0
  7 34  1  0  0  0  0
  7  6  2  0  0  0  0
  8  9  1  0  0  0  0
  8 36  1  0  0  0  0
  9 14  1  0  0  0  0
  9 10  1  0  0  0  0
 10 11  1  0  0  0  0
 11 39  1  0  0  0  0
 11 12  1  0  0  0  0
 11 40  1  0  0  0  0
 12 15  1  0  0  0  0
 13 42  1  0  0  0  0
 13 41  1  0  0  0  0
 13 12  1  0  0  0  0
 14 13  1  0  0  0  0
 15 16  1  0  0  0  0
 15 19  2  0  0  0  0
 16 17  1  0  0  0  0
 17 24  1  0  0  0  0
 17 18  2  0  0  0  0
 18 20  1  0  0  0  0
 19 18  1  0  0  0  0
 20 21  1  0  0  0  0
 20 26  1  0  0  0  0
 21 22  2  0  0  0  0
 23 45  1  0  0  0  0
 23 21  1  0  0  0  0
 24 23  1  0  0  0  0
 25 24  2  0  0  0  0
 26 47  1  0  0  0  0
 26 46  1  0  0  0  0
 27 28  1  0  0  0  0
 27 16  1  0  0  0  0
 28 51  1  0  0  0  0
 28 52  1  0  0  0  0
 29 28  1  0  0  0  0
 30 29  1  0  0  0  0
 30 53  1  0  0  0  0
 31  3  1  0  0  0  0
 32  4  1  0  0  0  0
 35  8  1  0  0  0  0
 37 10  1  0  0  0  0
 38 10  1  0  0  0  0
 43 14  1  0  0  0  0
 44 14  1  0  0  0  0
 48 26  1  0  0  0  0
 49 27  1  0  0  0  0
 50 27  1  0  0  0  0
 54 30  1  0  0  0  0
 55 30  1  0  0  0  0
M  END
>  <Pose>
1

>  <Score>
-7.37

$$$$
