
 OpenBabel03232204043D

 44 47  0  0  0  0  0  0  0  0999 V2000
   18.6470  -58.0900   30.5900 B   0  0  0  0  0  0  0  0  0  0  0  0
   18.7550  -56.7440   31.9590 C   0  0  0  0  0  0  0  0  0  0  0  0
   19.1050  -55.4490   31.6540 C   0  0  0  0  0  0  0  0  0  0  0  0
   19.1860  -54.4810   32.6380 C   0  0  0  0  0  0  0  0  0  0  0  0
   18.9190  -54.7660   33.9670 C   0  0  0  0  0  0  0  0  0  0  0  0
   18.5690  -56.0630   34.2670 C   0  0  0  0  0  0  0  0  0  0  0  0
   18.4860  -57.0460   33.2770 C   0  0  0  0  0  0  0  0  0  0  0  0
   19.0100  -53.7180   34.9790 C   0  0  0  0  0  0  0  0  0  0  0  0
   18.2010  -53.7570   36.0440 C   0  0  0  0  0  0  0  0  0  0  0  0
   17.2610  -54.7530   36.2530 O   0  0  0  0  0  0  0  0  0  0  0  0
   16.5560  -54.5530   37.4360 C   0  0  0  0  0  0  0  0  0  0  0  0
   17.0280  -53.4170   38.0200 C   0  0  0  0  0  0  0  0  0  0  0  0
   16.4970  -52.9840   39.2180 C   0  0  0  0  0  0  0  0  0  0  0  0
   15.4960  -53.7360   39.7750 C   0  0  0  0  0  0  0  0  0  0  0  0
   15.0090  -54.9050   39.1760 C   0  0  0  0  0  0  0  0  0  0  0  0
   15.5230  -55.3510   37.9840 C   0  0  0  0  0  0  0  0  0  0  0  0
   15.1170  -56.5490   37.2390 C   0  0  0  0  0  0  0  0  0  0  0  0
   13.7600  -56.9350   37.2760 N   0  0  0  0  0  4  0  0  0  0  0  0
   13.4850  -58.0700   36.4190 C   0  0  0  0  0  0  0  0  0  0  0  0
   13.7560  -59.3550   37.1800 C   0  0  0  0  0  0  0  0  0  0  0  0
   12.6800  -59.5880   38.0220 O   0  0  0  0  0  0  0  0  0  0  0  0
   12.2150  -58.3490   38.4770 C   0  0  0  0  0  0  0  0  0  0  0  0
   13.3780  -57.3810   38.6270 C   0  0  0  0  0  0  0  0  0  0  0  0
   13.9870  -55.6130   39.8090 O   0  0  0  0  0  0  0  0  0  0  0  0
   18.0880  -52.8640   37.1650 C   0  0  0  0  0  0  0  0  0  0  0  0
   18.7790  -51.8280   37.3420 O   0  0  0  0  0  0  0  0  0  0  0  0
   19.3130  -55.2350   30.6110 H   0  0  0  0  0  0  0  0  0  0  0  0
   19.4640  -53.4590   32.3890 H   0  0  0  0  0  0  0  0  0  0  0  0
   18.3510  -56.3360   35.2800 H   0  0  0  0  0  0  0  0  0  0  0  0
   18.2130  -58.0700   33.5000 H   0  0  0  0  0  0  0  0  0  0  0  0
   19.7100  -52.8850   34.9250 H   0  0  0  0  0  0  0  0  0  0  0  0
   16.8620  -52.0820   39.6970 H   0  0  0  0  0  0  0  0  0  0  0  0
   15.0630  -53.4260   40.7080 H   0  0  0  0  0  0  0  0  0  0  0  0
   15.8090  -57.3850   37.4980 H   0  0  0  0  0  0  0  0  0  0  0  0
   15.3550  -56.3220   36.1530 H   0  0  0  0  0  0  0  0  0  0  0  0
   13.1190  -56.1400   37.0770 H   0  0  0  0  0  0  0  0  0  0  0  0
   12.4740  -58.0620   35.9720 H   0  0  0  0  0  0  0  0  0  0  0  0
   14.2110  -58.0650   35.5790 H   0  0  0  0  0  0  0  0  0  0  0  0
   14.7050  -59.2380   37.7350 H   0  0  0  0  0  0  0  0  0  0  0  0
   13.8680  -60.1530   36.4000 H   0  0  0  0  0  0  0  0  0  0  0  0
   11.7100  -58.5380   39.4420 H   0  0  0  0  0  0  0  0  0  0  0  0
   11.4440  -57.9260   37.7890 H   0  0  0  0  0  0  0  0  0  0  0  0
   13.0170  -56.5080   39.2100 H   0  0  0  0  0  0  0  0  0  0  0  0
   14.1880  -57.8770   39.1600 H   0  0  0  0  0  0  0  0  0  0  0  0
  1  2  1  0  0  0  0
  2  7  1  0  0  0  0
  3  2  2  0  0  0  0
  3  4  1  0  0  0  0
  4  5  2  0  0  0  0
  5  6  1  0  0  0  0
  5  8  1  0  0  0  0
  6 29  1  0  0  0  0
  7 30  1  0  0  0  0
  7  6  2  0  0  0  0
  8  9  2  0  0  0  0
  9 10  1  0  0  0  0
  9 25  1  0  0  0  0
 10 11  1  0  0  0  0
 11 16  2  0  0  0  0
 11 12  1  0  0  0  0
 12 13  2  0  0  0  0
 13 32  1  0  0  0  0
 13 14  1  0  0  0  0
 14 33  1  0  0  0  0
 15 14  2  0  0  0  0
 15 24  1  0  0  0  0
 16 15  1  0  0  0  0
 17 18  1  0  0  0  0
 17 34  1  0  0  0  0
 17 16  1  0  0  0  0
 18 23  1  0  0  0  0
 19 20  1  0  0  0  0
 19 18  1  0  0  0  0
 20 39  1  0  0  0  0
 20 21  1  0  0  0  0
 21 22  1  0  0  0  0
 22 23  1  0  0  0  0
 22 41  1  0  0  0  0
 23 44  1  0  0  0  0
 23 43  1  0  0  0  0
 25 26  2  0  0  0  0
 25 12  1  0  0  0  0
 27  3  1  0  0  0  0
 28  4  1  0  0  0  0
 31  8  1  0  0  0  0
 35 17  1  0  0  0  0
 36 18  1  0  0  0  0
 37 19  1  0  0  0  0
 38 19  1  0  0  0  0
 40 20  1  0  0  0  0
 42 22  1  0  0  0  0
M  END
>  <Pose>
1

>  <Score>
-7.02

$$$$
