
 OpenBabel03232204043D

 50 54  0  0  1  0  0  0  0  0999 V2000
   20.9850  -55.8560   29.0340 B   0  0  0  0  0  0  0  0  0  0  0  0
   20.0850  -55.6530   30.6920 C   0  0  0  0  0  0  0  0  0  0  0  0
   19.3450  -56.6950   31.2170 C   0  0  0  0  0  0  0  0  0  0  0  0
   18.6860  -56.5430   32.4350 C   0  0  0  0  0  0  0  0  0  0  0  0
   18.7450  -55.3690   33.1500 C   0  0  0  0  0  0  0  0  0  0  0  0
   19.4850  -54.3360   32.6200 C   0  0  0  0  0  0  0  0  0  0  0  0
   20.1530  -54.4700   31.4000 C   0  0  0  0  0  0  0  0  0  0  0  0
   18.0540  -55.2090   34.4260 C   0  0  0  0  0  0  0  0  0  0  0  0
   17.3060  -56.1350   35.0590 N   0  0  0  0  0  0  0  0  0  0  0  0
   16.8230  -55.6290   36.2210 C   0  0  1  0  0  0  0  0  0  0  0  0
   17.2600  -54.3630   36.3420 N   0  0  0  0  0  0  0  0  0  0  0  0
   18.0130  -54.1020   35.2490 C   0  0  0  0  0  0  0  0  0  0  0  0
   16.7560  -53.9060   37.5040 C   0  0  0  0  0  0  0  0  0  0  0  0
   16.0010  -54.8860   38.1130 C   0  0  0  0  0  0  0  0  0  0  0  0
   15.3640  -54.6800   39.3310 C   0  0  0  0  0  0  0  0  0  0  0  0
   15.4810  -53.4620   39.9610 C   0  0  0  0  0  0  0  0  0  0  0  0
   16.2370  -52.4890   39.3460 C   0  0  0  0  0  0  0  0  0  0  0  0
   16.8800  -52.6660   38.1390 C   0  0  0  0  0  0  0  0  0  0  0  0
   16.0650  -55.9570   37.2790 N   0  0  0  0  0  0  0  0  0  0  0  0
   15.3910  -57.2070   37.5660 C   0  0  0  0  0  0  0  0  0  0  0  0
   14.5610  -57.6780   36.3920 C   0  0  0  0  0  0  0  0  0  0  0  0
   13.2260  -57.9880   36.8170 N   0  0  0  0  0  4  0  0  0  0  0  0
   13.0700  -57.7170   38.2300 C   0  0  0  0  0  0  0  0  0  0  0  0
   12.3490  -58.8240   38.9600 C   0  0  0  0  0  0  0  0  0  0  0  0
   11.1630  -59.1130   38.2820 O   0  0  0  0  0  0  0  0  0  0  0  0
   11.3880  -59.4980   36.9780 C   0  0  0  0  0  0  0  0  0  0  0  0
   12.8330  -59.3450   36.5810 C   0  0  0  0  0  0  0  0  0  0  0  0
   19.2920  -57.6260   30.6590 H   0  0  0  0  0  0  0  0  0  0  0  0
   18.1220  -57.3730   32.8070 H   0  0  0  0  0  0  0  0  0  0  0  0
   19.5700  -53.3920   33.1340 H   0  0  0  0  0  0  0  0  0  0  0  0
   20.7360  -53.6410   30.9940 H   0  0  0  0  0  0  0  0  0  0  0  0
   17.1140  -57.1020   34.7270 H   0  0  0  0  0  0  0  0  0  0  0  0
   18.5130  -53.1680   35.0380 H   0  0  0  0  0  0  0  0  0  0  0  0
   14.7920  -55.4830   39.7500 H   0  0  0  0  0  0  0  0  0  0  0  0
   14.9900  -53.2620   40.9270 H   0  0  0  0  0  0  0  0  0  0  0  0
   16.3350  -51.5340   39.8310 H   0  0  0  0  0  0  0  0  0  0  0  0
   17.4680  -51.9270   37.6490 H   0  0  0  0  0  0  0  0  0  0  0  0
   16.1490  -57.9970   37.7840 H   0  0  0  0  0  0  0  0  0  0  0  0
   14.7720  -57.0860   38.4760 H   0  0  0  0  0  0  0  0  0  0  0  0
   14.9940  -58.5670   35.9310 H   0  0  0  0  0  0  0  0  0  0  0  0
   14.5240  -56.8480   35.6600 H   0  0  0  0  0  0  0  0  0  0  0  0
   12.5310  -57.3740   36.3210 H   0  0  0  0  0  0  0  0  0  0  0  0
   14.0750  -57.5640   38.7160 H   0  0  0  0  0  0  0  0  0  0  0  0
   12.5010  -56.7790   38.4160 H   0  0  0  0  0  0  0  0  0  0  0  0
   12.0920  -58.4300   39.9650 H   0  0  0  0  0  0  0  0  0  0  0  0
   13.0060  -59.7020   39.0760 H   0  0  0  0  0  0  0  0  0  0  0  0
   11.1240  -60.5910   36.9190 H   0  0  0  0  0  0  0  0  0  0  0  0
   10.7500  -58.9490   36.2480 H   0  0  0  0  0  0  0  0  0  0  0  0
   12.8700  -59.5210   35.4690 H   0  0  0  0  0  0  0  0  0  0  0  0
   13.4350  -60.0890   37.1200 H   0  0  0  0  0  0  0  0  0  0  0  0
  1  2  1  0  0  0  0
  2  3  2  0  0  0  0
  2  7  1  0  0  0  0
  3  4  1  0  0  0  0
  4 29  1  0  0  0  0
  4  5  2  0  0  0  0
  5  8  1  0  0  0  0
  6 30  1  0  0  0  0
  6  5  1  0  0  0  0
  7  6  2  0  0  0  0
  8  9  1  0  0  0  0
  8 12  2  0  0  0  0
 10  9  1  6  0  0  0
 10 11  1  0  0  0  0
 10 19  1  0  0  0  0
 11 13  1  0  0  0  0
 12 11  1  0  0  0  0
 13 14  2  0  0  0  0
 13 18  1  0  0  0  0
 14 15  1  0  0  0  0
 15 34  1  0  0  0  0
 15 16  2  0  0  0  0
 16 35  1  0  0  0  0
 17 36  1  0  0  0  0
 17 16  1  0  0  0  0
 18 17  2  0  0  0  0
 19 20  1  0  0  0  0
 19 14  1  0  0  0  0
 20 38  1  0  0  0  0
 20 39  1  0  0  0  0
 21 22  1  0  0  0  0
 21 20  1  0  0  0  0
 22 23  1  0  0  0  0
 23 44  1  0  0  0  0
 23 43  1  0  0  0  0
 23 24  1  0  0  0  0
 24 46  1  0  0  0  0
 24 45  1  0  0  0  0
 25 24  1  0  0  0  0
 26 25  1  0  0  0  0
 27 22  1  0  0  0  0
 27 26  1  0  0  0  0
 27 50  1  0  0  0  0
 28  3  1  0  0  0  0
 31  7  1  0  0  0  0
 32  9  1  0  0  0  0
 33 12  1  0  0  0  0
 37 18  1  0  0  0  0
 40 21  1  0  0  0  0
 41 21  1  0  0  0  0
 42 22  1  0  0  0  0
 47 26  1  0  0  0  0
 48 26  1  0  0  0  0
 49 27  1  0  0  0  0
M  END
>  <Pose>
1

>  <Score>
-6.84

$$$$
