
 OpenBabel03232204043D

 41 44  0  0  0  0  0  0  0  0999 V2000
   16.6360  -60.5250   30.7190 B   0  0  0  0  0  0  0  0  0  0  0  0
   16.7050  -59.2890   32.1520 C   0  0  0  0  0  0  0  0  0  0  0  0
   16.9790  -57.9620   31.8970 C   0  0  0  0  0  0  0  0  0  0  0  0
   17.0290  -57.0730   32.9250 C   0  0  0  0  0  0  0  0  0  0  0  0
   16.8100  -57.4490   34.2520 C   0  0  0  0  0  0  0  0  0  0  0  0
   16.5450  -58.7820   34.4360 C   0  0  0  0  0  0  0  0  0  0  0  0
   16.4820  -59.7240   33.4400 C   0  0  0  0  0  0  0  0  0  0  0  0
   17.0480  -56.4550   35.2810 C   0  0  0  0  0  0  0  0  0  0  0  0
   16.4870  -56.0990   36.4290 N   0  0  0  0  0  0  0  0  0  0  0  0
   17.1640  -55.0680   36.9930 C   0  0  0  0  0  0  0  0  0  0  0  0
   18.1740  -54.7770   36.1520 N   0  0  0  0  0  0  0  0  0  0  0  0
   18.1250  -55.5760   35.1370 N   0  0  0  0  0  0  0  0  0  0  0  0
   16.6170  -54.6840   38.1520 N   0  0  0  0  0  0  0  0  0  0  0  0
   15.5610  -55.4860   38.3250 C   0  0  0  0  0  0  0  0  0  0  0  0
   15.4450  -56.3860   37.2570 C   0  0  0  0  0  0  0  0  0  0  0  0
   14.4470  -57.2520   37.1970 N   0  0  0  0  0  0  0  0  0  0  0  0
   13.5410  -57.2430   38.2230 C   0  0  0  0  0  0  0  0  0  0  0  0
   12.5820  -58.0510   38.2070 O   0  0  0  0  0  0  0  0  0  0  0  0
   13.6280  -56.4030   39.2610 N   0  0  0  0  0  0  0  0  0  0  0  0
   14.6300  -55.5100   39.3370 C   0  0  0  0  0  0  0  0  0  0  0  0
   14.7440  -54.7030   40.2960 O   0  0  0  0  0  0  0  0  0  0  0  0
   14.1350  -58.1420   36.1090 C   0  0  0  0  0  0  0  0  0  0  0  0
   17.0700  -53.6310   39.0330 C   0  0  0  0  0  0  0  0  0  0  0  0
   17.0640  -52.2720   38.3690 C   0  0  0  0  0  0  0  0  0  0  0  0
   18.3240  -51.6860   38.3760 O   0  0  0  0  0  0  0  0  0  0  0  0
   18.9220  -51.9700   37.1480 C   0  0  0  0  0  0  0  0  0  0  0  0
   17.1570  -57.6130   30.8860 H   0  0  0  0  0  0  0  0  0  0  0  0
   17.2470  -56.0250   32.7020 H   0  0  0  0  0  0  0  0  0  0  0  0
   16.4080  -59.1320   35.4770 H   0  0  0  0  0  0  0  0  0  0  0  0
   16.2690  -60.7440   33.6610 H   0  0  0  0  0  0  0  0  0  0  0  0
   12.9410  -56.3970   40.0420 H   0  0  0  0  0  0  0  0  0  0  0  0
   14.2280  -57.6620   35.1220 H   0  0  0  0  0  0  0  0  0  0  0  0
   14.5250  -59.1630   36.2110 H   0  0  0  0  0  0  0  0  0  0  0  0
   12.9880  -58.3390   36.1290 H   0  0  0  0  0  0  0  0  0  0  0  0
   18.0650  -53.8250   39.4110 H   0  0  0  0  0  0  0  0  0  0  0  0
   16.3450  -53.6190   39.8790 H   0  0  0  0  0  0  0  0  0  0  0  0
   16.3740  -51.5990   38.9390 H   0  0  0  0  0  0  0  0  0  0  0  0
   16.6620  -52.3770   37.3610 H   0  0  0  0  0  0  0  0  0  0  0  0
   18.3020  -51.5480   36.3170 H   0  0  0  0  0  0  0  0  0  0  0  0
   19.0890  -53.0560   36.9940 H   0  0  0  0  0  0  0  0  0  0  0  0
   19.9350  -51.4850   37.0820 H   0  0  0  0  0  0  0  0  0  0  0  0
  1  2  1  0  0  0  0
  2  7  1  0  0  0  0
  3  2  2  0  0  0  0
  3  4  1  0  0  0  0
  4  5  2  0  0  0  0
  5  6  1  0  0  0  0
  5  8  1  0  0  0  0
  6 29  1  0  0  0  0
  7 30  1  0  0  0  0
  7  6  2  0  0  0  0
  8  9  1  0  0  0  0
  9 10  1  0  0  0  0
  9 15  1  0  0  0  0
 10 13  1  0  0  0  0
 11 10  2  0  0  0  0
 12  8  2  0  0  0  0
 12 11  1  0  0  0  0
 13 14  1  0  0  0  0
 13 23  1  0  0  0  0
 14 20  1  0  0  0  0
 15 14  2  0  0  0  0
 16 15  1  0  0  0  0
 16 17  1  0  0  0  0
 17 19  1  0  0  0  0
 18 17  2  0  0  0  0
 19 20  1  0  0  0  0
 19 31  1  0  0  0  0
 20 21  2  0  0  0  0
 22 34  1  0  0  0  0
 22 33  1  0  0  0  0
 22 16  1  0  0  0  0
 23 35  1  0  0  0  0
 23 36  1  0  0  0  0
 24 25  1  0  0  0  0
 24 37  1  0  0  0  0
 24 23  1  0  0  0  0
 26 25  1  0  0  0  0
 27  3  1  0  0  0  0
 28  4  1  0  0  0  0
 32 22  1  0  0  0  0
 38 24  1  0  0  0  0
 39 26  1  0  0  0  0
 40 26  1  0  0  0  0
 41 26  1  0  0  0  0
M  END
>  <Pose>
1

>  <Score>
-7.25

$$$$
