
 OpenBabel03232204043D

 57 60  0  0  0  0  0  0  0  0999 V2000
   10.7700  -60.0650   39.8780 B   0  0  0  0  0  0  0  0  0  0  0  0
   12.1630  -58.8800   39.3170 C   0  0  0  0  0  0  0  0  0  0  0  0
   13.1380  -58.5490   40.2120 C   0  0  0  0  0  0  0  0  0  0  0  0
   14.1460  -57.6940   39.8210 C   0  0  0  0  0  0  0  0  0  0  0  0
   14.2270  -57.1390   38.5470 C   0  0  0  0  0  0  0  0  0  0  0  0
   13.2350  -57.4880   37.6680 C   0  0  0  0  0  0  0  0  0  0  0  0
   12.1980  -58.3580   38.0420 C   0  0  0  0  0  0  0  0  0  0  0  0
   15.2720  -56.2350   38.1460 C   0  0  0  0  0  0  0  0  0  0  0  0
   16.1460  -56.5740   37.1410 C   0  0  0  0  0  0  0  0  0  0  0  0
   17.1350  -55.7890   36.7580 O   0  0  0  0  0  0  0  0  0  0  0  0
   17.3460  -54.6270   37.3210 C   0  0  0  0  0  0  0  0  0  0  0  0
   16.5200  -54.2370   38.3140 C   0  0  0  0  0  0  0  0  0  0  0  0
   16.7180  -53.0190   38.9270 C   0  0  0  0  0  0  0  0  0  0  0  0
   17.7610  -52.2360   38.5040 C   0  0  0  0  0  0  0  0  0  0  0  0
   18.6170  -52.6530   37.4670 C   0  0  0  0  0  0  0  0  0  0  0  0
   18.4400  -53.8520   36.8440 C   0  0  0  0  0  0  0  0  0  0  0  0
   19.2150  -54.4040   35.7600 C   0  0  0  0  0  0  0  0  0  0  0  0
   18.9310  -54.1650   34.4040 N   0  0  0  0  0  4  0  0  0  0  0  0
   17.8080  -54.9020   33.9450 C   0  0  0  0  0  0  0  0  0  0  0  0
   17.7220  -55.2690   32.5160 C   0  0  0  0  0  0  0  0  0  0  0  0
   18.9480  -55.2180   31.8450 N   0  0  0  0  0  0  0  0  0  0  0  0
   19.7870  -54.1220   32.0640 C   0  0  0  0  0  0  0  0  0  0  0  0
   20.0120  -53.8970   33.5260 C   0  0  0  0  0  0  0  0  0  0  0  0
   19.3290  -56.2500   30.9770 C   0  0  0  0  0  0  0  0  0  0  0  0
   19.6110  -51.7340   37.1770 O   0  0  0  0  0  0  0  0  0  0  0  0
   15.4630  -55.0010   38.7690 C   0  0  0  0  0  0  0  0  0  0  0  0
   14.7080  -54.6410   39.6790 O   0  0  0  0  0  0  0  0  0  0  0  0
   15.9610  -57.8690   36.4690 C   0  0  0  0  0  0  0  0  0  0  0  0
   16.2480  -58.9110   37.1100 O   0  0  0  0  0  0  0  0  0  0  0  0
   15.4980  -58.0010   35.1970 O   0  0  0  0  0  0  0  0  0  0  0  0
   14.2370  -58.5740   34.9490 C   0  0  0  0  0  0  0  0  0  0  0  0
   13.4780  -57.6970   33.9910 C   0  0  0  0  0  0  0  0  0  0  0  0
   13.0920  -58.9740   41.2220 H   0  0  0  0  0  0  0  0  0  0  0  0
   14.9030  -57.4390   40.5190 H   0  0  0  0  0  0  0  0  0  0  0  0
   13.1980  -57.1180   36.6550 H   0  0  0  0  0  0  0  0  0  0  0  0
   11.4210  -58.6270   37.3490 H   0  0  0  0  0  0  0  0  0  0  0  0
   16.0420  -52.7180   39.7260 H   0  0  0  0  0  0  0  0  0  0  0  0
   17.9250  -51.2810   38.9740 H   0  0  0  0  0  0  0  0  0  0  0  0
   19.2870  -55.5570   35.8810 H   0  0  0  0  0  0  0  0  0  0  0  0
   20.3140  -54.1350   35.9160 H   0  0  0  0  0  0  0  0  0  0  0  0
   18.4730  -53.1260   34.4730 H   0  0  0  0  0  0  0  0  0  0  0  0
   17.7100  -55.8380   34.5640 H   0  0  0  0  0  0  0  0  0  0  0  0
   16.8240  -54.3700   34.2180 H   0  0  0  0  0  0  0  0  0  0  0  0
   16.9460  -54.6450   31.9610 H   0  0  0  0  0  0  0  0  0  0  0  0
   17.3040  -56.3180   32.3760 H   0  0  0  0  0  0  0  0  0  0  0  0
   19.4250  -53.1610   31.6020 H   0  0  0  0  0  0  0  0  0  0  0  0
   20.7710  -54.3070   31.5600 H   0  0  0  0  0  0  0  0  0  0  0  0
   20.9290  -54.4220   33.8590 H   0  0  0  0  0  0  0  0  0  0  0  0
   20.3400  -52.8000   33.5950 H   0  0  0  0  0  0  0  0  0  0  0  0
   20.4040  -56.4880   31.1310 H   0  0  0  0  0  0  0  0  0  0  0  0
   18.7940  -57.1980   31.2760 H   0  0  0  0  0  0  0  0  0  0  0  0
   19.0800  -56.1170   29.9060 H   0  0  0  0  0  0  0  0  0  0  0  0
   14.3270  -59.6230   34.5670 H   0  0  0  0  0  0  0  0  0  0  0  0
   13.6620  -58.6940   35.9150 H   0  0  0  0  0  0  0  0  0  0  0  0
   12.4120  -57.5600   34.3160 H   0  0  0  0  0  0  0  0  0  0  0  0
   14.0230  -56.7440   33.8680 H   0  0  0  0  0  0  0  0  0  0  0  0
   13.5060  -58.2250   33.0020 H   0  0  0  0  0  0  0  0  0  0  0  0
  2  1  1  0  0  0  0
  2  3  1  0  0  0  0
  3 33  1  0  0  0  0
  4  3  2  0  0  0  0
  4 34  1  0  0  0  0
  5  4  1  0  0  0  0
  6  7  1  0  0  0  0
  6  5  2  0  0  0  0
  7  2  2  0  0  0  0
  8  5  1  0  0  0  0
  8 26  1  0  0  0  0
  9  8  2  0  0  0  0
 10  9  1  0  0  0  0
 10 11  1  0  0  0  0
 11 12  1  0  0  0  0
 12 26  1  0  0  0  0
 12 13  2  0  0  0  0
 13 37  1  0  0  0  0
 14 13  1  0  0  0  0
 14 38  1  0  0  0  0
 15 14  2  0  0  0  0
 16 11  2  0  0  0  0
 16 15  1  0  0  0  0
 17 39  1  0  0  0  0
 17 40  1  0  0  0  0
 17 16  1  0  0  0  0
 18 41  1  0  0  0  0
 18 17  1  0  0  0  0
 19 43  1  0  0  0  0
 19 18  1  0  0  0  0
 19 42  1  0  0  0  0
 20 19  1  0  0  0  0
 21 22  1  0  0  0  0
 21 20  1  0  0  0  0
 22 23  1  0  0  0  0
 23 49  1  0  0  0  0
 23 48  1  0  0  0  0
 23 18  1  0  0  0  0
 24 50  1  0  0  0  0
 24 51  1  0  0  0  0
 24 21  1  0  0  0  0
 25 15  1  0  0  0  0
 26 27  2  0  0  0  0
 28 29  2  0  0  0  0
 28  9  1  0  0  0  0
 30 28  1  0  0  0  0
 31 30  1  0  0  0  0
 31 54  1  0  0  0  0
 32 55  1  0  0  0  0
 32 31  1  0  0  0  0
 35  6  1  0  0  0  0
 36  7  1  0  0  0  0
 44 20  1  0  0  0  0
 45 20  1  0  0  0  0
 46 22  1  0  0  0  0
 47 22  1  0  0  0  0
 52 24  1  0  0  0  0
 53 31  1  0  0  0  0
 56 32  1  0  0  0  0
 57 32  1  0  0  0  0
M  END
>  <Pose>
1

>  <Score>
-6.93

$$$$
