
 OpenBabel03232204043D

 58 62  0  0  1  0  0  0  0  0999 V2000
   16.0390  -52.6710   39.5410 B   0  0  0  0  0  0  0  0  0  0  0  0
   16.3610  -54.0190   38.2030 C   0  0  0  0  0  0  0  0  0  0  0  0
   15.6930  -55.2050   38.2100 C   0  0  0  0  0  0  0  0  0  0  0  0
   15.9260  -56.1580   37.2590 C   0  0  0  0  0  0  0  0  0  0  0  0
   16.8450  -55.9730   36.2460 C   0  0  0  0  0  0  0  0  0  0  0  0
   17.5100  -54.7940   36.2380 C   0  0  0  0  0  0  0  0  0  0  0  0
   17.2800  -53.7970   37.2170 C   0  0  0  0  0  0  0  0  0  0  0  0
   17.0390  -57.0370   35.2850 C   0  0  0  0  0  0  0  0  0  0  0  0
   16.2740  -58.2140   35.2880 C   0  0  0  0  0  0  0  0  0  0  0  0
   16.7050  -58.9520   34.2720 N   0  0  0  0  0  0  0  0  0  0  0  0
   16.4410  -60.1570   33.6820 C   0  0  0  0  0  0  0  0  0  0  0  0
   17.3170  -60.2450   32.6300 C   0  0  0  0  0  0  0  0  0  0  0  0
   18.0430  -59.1370   32.6270 N   0  0  0  0  0  0  0  0  0  0  0  0
   17.6710  -58.3170   33.6510 C   0  0  1  0  0  0  0  0  0  0  0  0
   17.9000  -57.1180   34.2640 N   0  0  0  0  0  0  0  0  0  0  0  0
   18.8970  -56.2130   33.7790 C   0  0  0  0  0  0  0  0  0  0  0  0
   18.4610  -55.1620   32.8400 C   0  0  0  0  0  0  0  0  0  0  0  0
   17.5870  -55.5380   31.6980 C   0  0  0  0  0  0  0  0  0  0  0  0
   18.1870  -55.2070   30.4250 N   0  0  0  0  0  4  0  0  0  0  0  0
   19.2810  -56.0640   30.0740 C   0  0  0  0  0  0  0  0  0  0  0  0
   18.8910  -57.4450   29.6320 C   0  0  0  0  0  0  0  0  0  0  0  0
   20.1490  -58.3130   29.7840 C   0  0  0  0  0  0  0  0  0  0  0  0
   21.2040  -57.7800   28.8780 C   0  0  0  0  0  0  0  0  0  0  0  0
   21.4730  -56.3030   29.0570 C   0  0  0  0  0  0  0  0  0  0  0  0
   20.1670  -55.5050   28.9680 C   0  0  0  0  0  0  0  0  0  0  0  0
   17.3340  -61.3600   31.7870 C   0  0  0  0  0  0  0  0  0  0  0  0
   16.4570  -62.3990   32.0130 C   0  0  0  0  0  0  0  0  0  0  0  0
   15.5890  -62.2870   33.0750 C   0  0  0  0  0  0  0  0  0  0  0  0
   15.5640  -61.1810   33.9160 C   0  0  0  0  0  0  0  0  0  0  0  0
   14.9490  -55.3990   38.9990 H   0  0  0  0  0  0  0  0  0  0  0  0
   15.3450  -57.1010   37.3210 H   0  0  0  0  0  0  0  0  0  0  0  0
   18.2420  -54.5080   35.5370 H   0  0  0  0  0  0  0  0  0  0  0  0
   17.8140  -52.8630   37.2030 H   0  0  0  0  0  0  0  0  0  0  0  0
   15.4830  -58.4770   35.9850 H   0  0  0  0  0  0  0  0  0  0  0  0
   18.7780  -58.9470   31.9190 H   0  0  0  0  0  0  0  0  0  0  0  0
   19.7970  -56.7220   33.4480 H   0  0  0  0  0  0  0  0  0  0  0  0
   19.2530  -55.6120   34.7130 H   0  0  0  0  0  0  0  0  0  0  0  0
   17.8250  -54.4510   33.4690 H   0  0  0  0  0  0  0  0  0  0  0  0
   19.2890  -54.4630   32.5080 H   0  0  0  0  0  0  0  0  0  0  0  0
   16.5890  -55.0550   31.7210 H   0  0  0  0  0  0  0  0  0  0  0  0
   17.5060  -56.6610   31.7160 H   0  0  0  0  0  0  0  0  0  0  0  0
   17.5490  -55.0570   29.6470 H   0  0  0  0  0  0  0  0  0  0  0  0
   18.6390  -54.2310   30.5730 H   0  0  0  0  0  0  0  0  0  0  0  0
   19.9880  -56.1980   30.9470 H   0  0  0  0  0  0  0  0  0  0  0  0
   18.0490  -57.8750   30.1740 H   0  0  0  0  0  0  0  0  0  0  0  0
   18.6950  -57.4240   28.5210 H   0  0  0  0  0  0  0  0  0  0  0  0
   20.4740  -58.2850   30.8550 H   0  0  0  0  0  0  0  0  0  0  0  0
   19.9140  -59.3450   29.4690 H   0  0  0  0  0  0  0  0  0  0  0  0
   22.1520  -58.3090   29.1030 H   0  0  0  0  0  0  0  0  0  0  0  0
   20.9240  -57.9910   27.8300 H   0  0  0  0  0  0  0  0  0  0  0  0
   22.1310  -55.9890   28.2310 H   0  0  0  0  0  0  0  0  0  0  0  0
   21.9180  -56.1480   30.0410 H   0  0  0  0  0  0  0  0  0  0  0  0
   19.7040  -55.6980   27.9680 H   0  0  0  0  0  0  0  0  0  0  0  0
   20.3810  -54.4580   29.1810 H   0  0  0  0  0  0  0  0  0  0  0  0
   18.0180  -61.4380   30.9600 H   0  0  0  0  0  0  0  0  0  0  0  0
   16.4410  -63.2920   31.3720 H   0  0  0  0  0  0  0  0  0  0  0  0
   14.9050  -63.0960   33.2500 H   0  0  0  0  0  0  0  0  0  0  0  0
   14.8880  -61.0960   34.7420 H   0  0  0  0  0  0  0  0  0  0  0  0
  2  3  1  0  0  0  0
  2  1  1  0  0  0  0
  3 30  1  0  0  0  0
  4 31  1  0  0  0  0
  4  3  2  0  0  0  0
  5  4  1  0  0  0  0
  6  5  2  0  0  0  0
  6  7  1  0  0  0  0
  7  2  2  0  0  0  0
  8  9  2  0  0  0  0
  8  5  1  0  0  0  0
  9 34  1  0  0  0  0
 10  9  1  0  0  0  0
 11 29  1  0  0  0  0
 11 10  1  0  0  0  0
 12 11  2  0  0  0  0
 13 12  1  0  0  0  0
 14 13  1  6  0  0  0
 14 15  1  0  0  0  0
 14 10  1  0  0  0  0
 15  8  1  0  0  0  0
 16 15  1  0  0  0  0
 16 37  1  0  0  0  0
 17 38  1  0  0  0  0
 17 16  1  0  0  0  0
 18 41  1  0  0  0  0
 18 40  1  0  0  0  0
 18 17  1  0  0  0  0
 19 43  1  0  0  0  0
 19 18  1  0  0  0  0
 20 19  1  0  0  0  0
 20 44  1  0  0  0  0
 21 22  1  0  0  0  0
 21 20  1  0  0  0  0
 21 45  1  0  0  0  0
 22 47  1  0  0  0  0
 23 24  1  0  0  0  0
 23 49  1  0  0  0  0
 23 22  1  0  0  0  0
 24 52  1  0  0  0  0
 25 24  1  0  0  0  0
 25 54  1  0  0  0  0
 25 20  1  0  0  0  0
 26 27  2  0  0  0  0
 26 12  1  0  0  0  0
 27 28  1  0  0  0  0
 28 57  1  0  0  0  0
 28 29  2  0  0  0  0
 29 58  1  0  0  0  0
 32  6  1  0  0  0  0
 33  7  1  0  0  0  0
 35 13  1  0  0  0  0
 36 16  1  0  0  0  0
 39 17  1  0  0  0  0
 42 19  1  0  0  0  0
 46 21  1  0  0  0  0
 48 22  1  0  0  0  0
 50 23  1  0  0  0  0
 51 24  1  0  0  0  0
 53 25  1  0  0  0  0
 55 26  1  0  0  0  0
 56 27  1  0  0  0  0
M  END
>  <Pose>
1

>  <Score>
-7.03

$$$$
