
 OpenBabel03232204043D

 61 65  0  0  1  0  0  0  0  0999 V2000
   17.8860  -52.0050   37.6680 B   0  0  0  0  0  0  0  0  0  0  0  0
   16.8200  -53.5910   37.8260 C   0  0  0  0  0  0  0  0  0  0  0  0
   15.7810  -53.6560   38.7190 C   0  0  0  0  0  0  0  0  0  0  0  0
   15.0020  -54.8190   38.8340 C   0  0  0  0  0  0  0  0  0  0  0  0
   15.2210  -55.9320   38.0860 C   0  0  0  0  0  0  0  0  0  0  0  0
   16.2830  -55.8430   37.1840 C   0  0  0  0  0  0  0  0  0  0  0  0
   17.0570  -54.7000   37.0630 C   0  0  0  0  0  0  0  0  0  0  0  0
   14.4870  -57.1930   38.1790 C   0  0  0  0  0  0  0  0  0  0  0  0
   13.4850  -57.4400   39.1360 C   0  0  0  0  0  0  0  0  0  0  0  0
   12.9570  -58.6580   38.9690 N   0  0  0  0  0  0  0  0  0  0  0  0
   12.0370  -59.5300   39.4470 C   0  0  0  0  0  0  0  0  0  0  0  0
   12.1240  -60.6500   38.6570 C   0  0  0  0  0  0  0  0  0  0  0  0
   13.0910  -60.4310   37.7230 N   0  0  0  0  0  0  0  0  0  0  0  0
   13.5920  -59.1990   37.9330 C   0  0  1  0  0  0  0  0  0  0  0  0
   14.5270  -58.3070   37.4460 N   0  0  0  0  0  0  0  0  0  0  0  0
   15.3640  -58.6010   36.3020 C   0  0  0  0  0  0  0  0  0  0  0  0
   14.9310  -57.9100   35.0300 C   0  0  0  0  0  0  0  0  0  0  0  0
   15.6670  -58.4580   33.8330 C   0  0  0  0  0  0  0  0  0  0  0  0
   17.0940  -58.5330   33.9820 N   0  0  0  0  0  0  0  0  0  0  0  0
   17.4930  -57.2890   34.6220 C   0  0  0  0  0  0  0  0  0  0  0  0
   18.6750  -56.6310   34.0170 C   0  0  0  0  0  0  0  0  0  0  0  0
   18.6940  -56.5600   32.5810 N   0  0  0  0  0  4  0  0  0  0  0  0
   17.8440  -57.5430   31.9430 C   0  0  0  0  0  0  0  0  0  0  0  0
   17.8390  -58.7950   32.7960 C   0  0  0  0  0  0  0  0  0  0  0  0
   18.5280  -55.2240   32.1050 C   0  0  0  0  0  0  0  0  0  0  0  0
   19.7600  -54.3860   32.0620 C   0  0  0  0  0  0  0  0  0  0  0  0
   20.3130  -54.2680   30.7880 O   0  0  0  0  0  0  0  0  0  0  0  0
   11.2820  -61.7060   38.9340 C   0  0  0  0  0  0  0  0  0  0  0  0
   10.3650  -61.6570   39.9760 C   0  0  0  0  0  0  0  0  0  0  0  0
   10.2790  -60.5370   40.7650 C   0  0  0  0  0  0  0  0  0  0  0  0
   11.1340  -59.4660   40.4820 C   0  0  0  0  0  0  0  0  0  0  0  0
   15.5610  -52.8000   39.3400 H   0  0  0  0  0  0  0  0  0  0  0  0
   14.2110  -54.7600   39.5410 H   0  0  0  0  0  0  0  0  0  0  0  0
   16.4900  -56.7070   36.5760 H   0  0  0  0  0  0  0  0  0  0  0  0
   17.8650  -54.6800   36.3550 H   0  0  0  0  0  0  0  0  0  0  0  0
   13.1910  -56.7240   39.9110 H   0  0  0  0  0  0  0  0  0  0  0  0
   13.3700  -61.1180   36.9890 H   0  0  0  0  0  0  0  0  0  0  0  0
   16.4090  -58.1510   36.5110 H   0  0  0  0  0  0  0  0  0  0  0  0
   15.5740  -59.6390   36.1340 H   0  0  0  0  0  0  0  0  0  0  0  0
   13.8570  -58.2280   34.8830 H   0  0  0  0  0  0  0  0  0  0  0  0
   14.9160  -56.8270   35.0680 H   0  0  0  0  0  0  0  0  0  0  0  0
   15.4700  -57.8360   32.9350 H   0  0  0  0  0  0  0  0  0  0  0  0
   15.2250  -59.4650   33.5760 H   0  0  0  0  0  0  0  0  0  0  0  0
   16.6640  -56.5730   34.7550 H   0  0  0  0  0  0  0  0  0  0  0  0
   17.7840  -57.5890   35.6710 H   0  0  0  0  0  0  0  0  0  0  0  0
   19.6130  -57.0950   34.4420 H   0  0  0  0  0  0  0  0  0  0  0  0
   18.7010  -55.5780   34.4270 H   0  0  0  0  0  0  0  0  0  0  0  0
   19.6830  -56.8420   32.2930 H   0  0  0  0  0  0  0  0  0  0  0  0
   18.2840  -57.8240   30.9560 H   0  0  0  0  0  0  0  0  0  0  0  0
   16.8150  -57.2330   31.7870 H   0  0  0  0  0  0  0  0  0  0  0  0
   18.8840  -59.0870   33.0810 H   0  0  0  0  0  0  0  0  0  0  0  0
   17.4450  -59.6150   32.2020 H   0  0  0  0  0  0  0  0  0  0  0  0
   17.7620  -54.6340   32.6880 H   0  0  0  0  0  0  0  0  0  0  0  0
   18.1060  -55.2540   31.0630 H   0  0  0  0  0  0  0  0  0  0  0  0
   19.4340  -53.3390   32.3350 H   0  0  0  0  0  0  0  0  0  0  0  0
   20.5140  -54.6560   32.8240 H   0  0  0  0  0  0  0  0  0  0  0  0
   20.3720  -53.3300   30.5400 H   0  0  0  0  0  0  0  0  0  0  0  0
   11.3190  -62.6040   38.3370 H   0  0  0  0  0  0  0  0  0  0  0  0
    9.7060  -62.4760   40.1980 H   0  0  0  0  0  0  0  0  0  0  0  0
    9.5670  -60.4940   41.5770 H   0  0  0  0  0  0  0  0  0  0  0  0
   11.0820  -58.5780   41.0910 H   0  0  0  0  0  0  0  0  0  0  0  0
  1  2  1  0  0  0  0
  2  3  1  0  0  0  0
  3  4  2  0  0  0  0
  3 32  1  0  0  0  0
  4 33  1  0  0  0  0
  5  8  1  0  0  0  0
  5  4  1  0  0  0  0
  6  5  2  0  0  0  0
  7  6  1  0  0  0  0
  7  2  2  0  0  0  0
  8  9  2  0  0  0  0
  9 36  1  0  0  0  0
 10  9  1  0  0  0  0
 10 11  1  0  0  0  0
 11 31  1  0  0  0  0
 12 28  1  0  0  0  0
 12 11  2  0  0  0  0
 13 14  1  0  0  0  0
 13 12  1  0  0  0  0
 14 15  1  6  0  0  0
 14 10  1  0  0  0  0
 15  8  1  0  0  0  0
 16 38  1  0  0  0  0
 16 15  1  0  0  0  0
 17 41  1  0  0  0  0
 17 16  1  0  0  0  0
 18 19  1  0  0  0  0
 18 17  1  0  0  0  0
 19 20  1  0  0  0  0
 20 44  1  0  0  0  0
 20 45  1  0  0  0  0
 21 47  1  0  0  0  0
 21 46  1  0  0  0  0
 21 20  1  0  0  0  0
 22 21  1  0  0  0  0
 23 22  1  0  0  0  0
 23 24  1  0  0  0  0
 24 51  1  0  0  0  0
 24 19  1  0  0  0  0
 25 22  1  0  0  0  0
 25 53  1  0  0  0  0
 26 25  1  0  0  0  0
 26 55  1  0  0  0  0
 26 56  1  0  0  0  0
 27 26  1  0  0  0  0
 28 29  2  0  0  0  0
 29 59  1  0  0  0  0
 29 30  1  0  0  0  0
 30 60  1  0  0  0  0
 31 30  2  0  0  0  0
 31 61  1  0  0  0  0
 34  6  1  0  0  0  0
 35  7  1  0  0  0  0
 37 13  1  0  0  0  0
 39 16  1  0  0  0  0
 40 17  1  0  0  0  0
 42 18  1  0  0  0  0
 43 18  1  0  0  0  0
 48 22  1  0  0  0  0
 49 23  1  0  0  0  0
 50 23  1  0  0  0  0
 52 24  1  0  0  0  0
 54 25  1  0  0  0  0
 57 27  1  0  0  0  0
 58 28  1  0  0  0  0
M  END
>  <Pose>
1

>  <Score>
-7.49

$$$$
