
 OpenBabel03232204043D

 63 66  0  0  1  0  0  0  0  0999 V2000
   18.9390  -52.7340   37.5770 B   0  0  0  0  0  0  0  0  0  0  0  0
   18.3250  -53.7900   36.0940 C   0  0  0  0  0  0  0  0  0  0  0  0
   16.9740  -53.9170   35.8620 C   0  0  0  0  0  0  0  0  0  0  0  0
   16.5010  -54.6780   34.7890 C   0  0  0  0  0  0  0  0  0  0  0  0
   17.3720  -55.3210   33.9360 C   0  0  0  0  0  0  0  0  0  0  0  0
   18.7150  -55.1700   34.2010 C   0  0  0  0  0  0  0  0  0  0  0  0
   19.1960  -54.4250   35.2520 C   0  0  0  0  0  0  0  0  0  0  0  0
   16.8740  -56.1170   32.8110 C   0  0  2  0  0  0  0  0  0  0  0  0
   16.4450  -57.4350   33.1920 N   0  0  0  0  0  0  0  0  0  0  0  0
   17.1150  -58.4270   32.4380 C   0  0  0  0  0  0  0  0  0  0  0  0
   16.9700  -59.6880   32.4920 O   0  0  0  0  0  0  0  0  0  0  0  0
   18.0710  -57.7690   31.5190 C   0  0  0  0  0  0  0  0  0  0  0  0
   18.8210  -58.3620   30.7110 O   0  0  0  0  0  0  0  0  0  0  0  0
   17.9300  -56.3500   31.7710 C   0  0  0  0  0  0  0  0  0  0  0  0
   18.6160  -55.4380   31.1180 C   0  0  0  0  0  0  0  0  0  0  0  0
   18.3420  -54.0840   31.4050 O   0  0  0  0  0  0  0  0  0  0  0  0
   19.6370  -55.6850   30.1320 C   0  0  0  0  0  0  0  0  0  0  0  0
   20.9730  -55.6620   30.3280 C   0  0  0  0  0  0  0  0  0  0  0  0
   21.8450  -55.9520   29.2990 C   0  0  0  0  0  0  0  0  0  0  0  0
   21.4280  -56.2810   28.0270 C   0  0  0  0  0  0  0  0  0  0  0  0
   20.0580  -56.2960   27.8530 C   0  0  0  0  0  0  0  0  0  0  0  0
   19.1670  -56.0130   28.8510 C   0  0  0  0  0  0  0  0  0  0  0  0
   22.3110  -56.5720   26.9950 O   0  0  0  0  0  0  0  0  0  0  0  0
   23.0730  -57.7700   27.0290 C   0  0  0  0  0  0  0  0  0  0  0  0
   23.3200  -55.9150   29.5670 C   0  0  0  0  0  0  0  0  0  0  0  0
   15.4460  -57.6880   34.2140 C   0  0  0  0  0  0  0  0  0  0  0  0
   15.8500  -58.7570   35.1920 C   0  0  0  0  0  0  0  0  0  0  0  0
   14.8370  -59.8590   35.2600 C   0  0  0  0  0  0  0  0  0  0  0  0
   13.9500  -59.7440   36.3810 N   0  0  0  0  0  4  0  0  0  0  0  0
   12.5560  -59.9300   36.0310 C   0  0  0  0  0  0  0  0  0  0  0  0
   11.7800  -60.0250   37.3490 C   0  0  0  0  0  0  0  0  0  0  0  0
   12.5830  -59.6600   38.4190 O   0  0  0  0  0  0  0  0  0  0  0  0
   13.1620  -58.3930   38.1860 C   0  0  0  0  0  0  0  0  0  0  0  0
   14.1780  -58.4970   37.0540 C   0  0  0  0  0  0  0  0  0  0  0  0
   16.2790  -53.4170   36.5220 H   0  0  0  0  0  0  0  0  0  0  0  0
   15.4430  -54.7800   34.6050 H   0  0  0  0  0  0  0  0  0  0  0  0
   19.4010  -55.6890   33.5130 H   0  0  0  0  0  0  0  0  0  0  0  0
   20.2510  -54.3400   35.4130 H   0  0  0  0  0  0  0  0  0  0  0  0
   15.9930  -55.6030   32.3800 H   0  0  0  0  0  0  0  0  0  0  0  0
   21.3430  -55.3840   31.3200 H   0  0  0  0  0  0  0  0  0  0  0  0
   19.7290  -56.5570   26.8330 H   0  0  0  0  0  0  0  0  0  0  0  0
   18.1020  -56.0460   28.6390 H   0  0  0  0  0  0  0  0  0  0  0  0
   22.3500  -58.6260   27.0820 H   0  0  0  0  0  0  0  0  0  0  0  0
   23.6780  -57.9110   26.1320 H   0  0  0  0  0  0  0  0  0  0  0  0
   23.6640  -57.8260   27.9860 H   0  0  0  0  0  0  0  0  0  0  0  0
   23.5750  -55.1570   30.3350 H   0  0  0  0  0  0  0  0  0  0  0  0
   23.8240  -55.7290   28.6020 H   0  0  0  0  0  0  0  0  0  0  0  0
   23.5930  -56.9510   29.8780 H   0  0  0  0  0  0  0  0  0  0  0  0
   14.5000  -58.0180   33.7190 H   0  0  0  0  0  0  0  0  0  0  0  0
   15.2140  -56.7720   34.7950 H   0  0  0  0  0  0  0  0  0  0  0  0
   15.9980  -58.2780   36.1880 H   0  0  0  0  0  0  0  0  0  0  0  0
   16.8010  -59.1860   34.8230 H   0  0  0  0  0  0  0  0  0  0  0  0
   14.1950  -59.8900   34.3560 H   0  0  0  0  0  0  0  0  0  0  0  0
   15.3700  -60.8300   35.3050 H   0  0  0  0  0  0  0  0  0  0  0  0
   14.1820  -60.5180   37.0730 H   0  0  0  0  0  0  0  0  0  0  0  0
   12.4390  -60.8880   35.5230 H   0  0  0  0  0  0  0  0  0  0  0  0
   12.1610  -59.0620   35.4910 H   0  0  0  0  0  0  0  0  0  0  0  0
   10.8590  -59.4270   37.3200 H   0  0  0  0  0  0  0  0  0  0  0  0
   11.4720  -61.0880   37.5490 H   0  0  0  0  0  0  0  0  0  0  0  0
   13.7050  -58.1540   39.1340 H   0  0  0  0  0  0  0  0  0  0  0  0
   12.4150  -57.6140   38.0200 H   0  0  0  0  0  0  0  0  0  0  0  0
   14.0380  -57.6790   36.3130 H   0  0  0  0  0  0  0  0  0  0  0  0
   15.2110  -58.5320   37.4720 H   0  0  0  0  0  0  0  0  0  0  0  0
  2  1  1  0  0  0  0
  3  2  1  0  0  0  0
  3 35  1  0  0  0  0
  4  3  2  0  0  0  0
  5  6  2  0  0  0  0
  5  4  1  0  0  0  0
  6  7  1  0  0  0  0
  7 38  1  0  0  0  0
  7  2  2  0  0  0  0
  8 39  1  6  0  0  0
  8  9  1  0  0  0  0
  8  5  1  0  0  0  0
  9 26  1  0  0  0  0
 10 11  2  0  0  0  0
 10  9  1  0  0  0  0
 12 14  1  0  0  0  0
 12 10  1  0  0  0  0
 13 12  2  0  0  0  0
 14  8  1  0  0  0  0
 15 16  1  0  0  0  0
 15 14  2  0  0  0  0
 17 18  1  0  0  0  0
 17 15  1  0  0  0  0
 18 40  1  0  0  0  0
 19 25  1  0  0  0  0
 19 18  2  0  0  0  0
 20 19  1  0  0  0  0
 21 20  2  0  0  0  0
 21 22  1  0  0  0  0
 22 17  2  0  0  0  0
 23 24  1  0  0  0  0
 23 20  1  0  0  0  0
 24 43  1  0  0  0  0
 24 45  1  0  0  0  0
 25 48  1  0  0  0  0
 25 46  1  0  0  0  0
 26 50  1  0  0  0  0
 26 27  1  0  0  0  0
 27 28  1  0  0  0  0
 27 51  1  0  0  0  0
 28 54  1  0  0  0  0
 28 29  1  0  0  0  0
 29 34  1  0  0  0  0
 29 55  1  0  0  0  0
 30 29  1  0  0  0  0
 30 31  1  0  0  0  0
 31 59  1  0  0  0  0
 31 32  1  0  0  0  0
 33 32  1  0  0  0  0
 33 60  1  0  0  0  0
 34 63  1  0  0  0  0
 34 33  1  0  0  0  0
 36  4  1  0  0  0  0
 37  6  1  0  0  0  0
 41 21  1  0  0  0  0
 42 22  1  0  0  0  0
 44 24  1  0  0  0  0
 47 25  1  0  0  0  0
 49 26  1  0  0  0  0
 52 27  1  0  0  0  0
 53 28  1  0  0  0  0
 56 30  1  0  0  0  0
 57 30  1  0  0  0  0
 58 31  1  0  0  0  0
 61 33  1  0  0  0  0
 62 34  1  0  0  0  0
M  END
>  <Pose>
1

>  <Score>
-6.28

$$$$
