
 OpenBabel03232204043D

 60 63  0  0  1  0  0  0  0  0999 V2000
   14.4270  -62.7540   29.1430 B   0  0  0  0  0  0  0  0  0  0  0  0
   14.8960  -61.7100   30.6690 C   0  0  0  0  0  0  0  0  0  0  0  0
   14.1710  -61.8250   31.8320 C   0  0  0  0  0  0  0  0  0  0  0  0
   14.5130  -61.0620   32.9520 C   0  0  0  0  0  0  0  0  0  0  0  0
   15.5710  -60.1870   32.9220 C   0  0  0  0  0  0  0  0  0  0  0  0
   16.2780  -60.0930   31.7450 C   0  0  0  0  0  0  0  0  0  0  0  0
   15.9540  -60.8400   30.6270 C   0  0  0  0  0  0  0  0  0  0  0  0
   15.9230  -59.4090   34.1020 C   0  0  2  0  0  0  0  0  0  0  0  0
   14.7460  -58.8640   34.7460 N   0  0  0  0  0  0  0  0  0  0  0  0
   14.3640  -57.7180   33.9820 C   0  0  0  0  0  0  0  0  0  0  0  0
   13.2150  -57.2200   33.8930 O   0  0  0  0  0  0  0  0  0  0  0  0
   15.5830  -57.2500   33.3310 C   0  0  0  0  0  0  0  0  0  0  0  0
   15.7510  -56.2740   32.5580 O   0  0  0  0  0  0  0  0  0  0  0  0
   16.6630  -58.1450   33.7350 C   0  0  0  0  0  0  0  0  0  0  0  0
   17.9480  -57.8900   33.7270 C   0  0  0  0  0  0  0  0  0  0  0  0
   18.7910  -58.9460   34.1150 O   0  0  0  0  0  0  0  0  0  0  0  0
   18.5080  -56.5950   33.3520 C   0  0  0  0  0  0  0  0  0  0  0  0
   18.9100  -56.2680   32.0770 C   0  0  0  0  0  0  0  0  0  0  0  0
   19.4610  -55.0510   31.7180 C   0  0  0  0  0  0  0  0  0  0  0  0
   19.6230  -54.1010   32.6850 C   0  0  0  0  0  0  0  0  0  0  0  0
   19.2300  -54.3880   33.9890 C   0  0  0  0  0  0  0  0  0  0  0  0
   18.6840  -55.6130   34.3100 C   0  0  0  0  0  0  0  0  0  0  0  0
   19.8060  -54.8950   30.3950 O   0  0  0  0  0  0  0  0  0  0  0  0
   20.7080  -55.6460   29.6560 C   0  0  0  0  0  0  0  0  0  0  0  0
   14.0600  -59.3710   35.9470 C   0  0  0  0  0  0  0  0  0  0  0  0
   12.9420  -60.3460   35.5500 C   0  0  0  0  0  0  0  0  0  0  0  0
   12.1490  -60.7110   36.7730 C   0  0  0  0  0  0  0  0  0  0  0  0
   12.5280  -62.0360   37.2000 N   0  0  0  0  0  4  0  0  0  0  0  0
   12.0130  -63.0850   36.3770 C   0  0  0  0  0  0  0  0  0  0  0  0
   10.5480  -63.3010   36.5470 C   0  0  0  0  0  0  0  0  0  0  0  0
   10.2340  -63.5420   37.8740 O   0  0  0  0  0  0  0  0  0  0  0  0
   10.6020  -62.4140   38.6070 C   0  0  0  0  0  0  0  0  0  0  0  0
   12.1140  -62.3090   38.5650 C   0  0  0  0  0  0  0  0  0  0  0  0
   13.3440  -62.5160   31.8330 H   0  0  0  0  0  0  0  0  0  0  0  0
   13.9180  -61.1910   33.8250 H   0  0  0  0  0  0  0  0  0  0  0  0
   17.1060  -59.3970   31.7490 H   0  0  0  0  0  0  0  0  0  0  0  0
   16.5350  -60.7420   29.7250 H   0  0  0  0  0  0  0  0  0  0  0  0
   16.5310  -60.0230   34.7930 H   0  0  0  0  0  0  0  0  0  0  0  0
   18.7730  -57.0030   31.3030 H   0  0  0  0  0  0  0  0  0  0  0  0
   20.0540  -53.1390   32.4280 H   0  0  0  0  0  0  0  0  0  0  0  0
   19.3860  -53.5880   34.7140 H   0  0  0  0  0  0  0  0  0  0  0  0
   18.3920  -55.7850   35.3580 H   0  0  0  0  0  0  0  0  0  0  0  0
   21.3490  -55.0150   28.9790 H   0  0  0  0  0  0  0  0  0  0  0  0
   21.3180  -56.2710   30.3140 H   0  0  0  0  0  0  0  0  0  0  0  0
   20.1380  -56.2980   28.9620 H   0  0  0  0  0  0  0  0  0  0  0  0
   13.5610  -58.5340   36.4320 H   0  0  0  0  0  0  0  0  0  0  0  0
   14.8330  -59.8790   36.5300 H   0  0  0  0  0  0  0  0  0  0  0  0
   12.2630  -59.9010   34.8270 H   0  0  0  0  0  0  0  0  0  0  0  0
   13.3790  -61.2660   35.1080 H   0  0  0  0  0  0  0  0  0  0  0  0
   12.3920  -59.9400   37.5400 H   0  0  0  0  0  0  0  0  0  0  0  0
   11.0860  -60.6800   36.5460 H   0  0  0  0  0  0  0  0  0  0  0  0
   13.5730  -62.0930   37.1970 H   0  0  0  0  0  0  0  0  0  0  0  0
   12.2510  -62.8620   35.3130 H   0  0  0  0  0  0  0  0  0  0  0  0
   12.5630  -64.0260   36.6300 H   0  0  0  0  0  0  0  0  0  0  0  0
    9.9890  -62.3800   36.2460 H   0  0  0  0  0  0  0  0  0  0  0  0
   10.2330  -64.1370   35.8810 H   0  0  0  0  0  0  0  0  0  0  0  0
   10.2700  -62.4610   39.6630 H   0  0  0  0  0  0  0  0  0  0  0  0
   10.1790  -61.4780   38.1780 H   0  0  0  0  0  0  0  0  0  0  0  0
   12.5030  -63.3080   38.8410 H   0  0  0  0  0  0  0  0  0  0  0  0
   12.4770  -61.5500   39.2730 H   0  0  0  0  0  0  0  0  0  0  0  0
  1  2  1  0  0  0  0
  2  3  1  0  0  0  0
  3 34  1  0  0  0  0
  3  4  2  0  0  0  0
  4 35  1  0  0  0  0
  5  4  1  0  0  0  0
  5  8  1  0  0  0  0
  6 36  1  0  0  0  0
  6  5  2  0  0  0  0
  7  2  2  0  0  0  0
  7  6  1  0  0  0  0
  8  9  1  0  0  0  0
  8 38  1  1  0  0  0
  9 25  1  0  0  0  0
 10  9  1  0  0  0  0
 11 10  2  0  0  0  0
 12 14  1  0  0  0  0
 12 10  1  0  0  0  0
 13 12  2  0  0  0  0
 14  8  1  0  0  0  0
 15 14  2  0  0  0  0
 15 16  1  0  0  0  0
 17 15  1  0  0  0  0
 17 22  1  0  0  0  0
 18 17  2  0  0  0  0
 19 18  1  0  0  0  0
 19 20  2  0  0  0  0
 20 21  1  0  0  0  0
 21 22  2  0  0  0  0
 21 41  1  0  0  0  0
 22 42  1  0  0  0  0
 23 19  1  0  0  0  0
 24 44  1  0  0  0  0
 24 23  1  0  0  0  0
 25 46  1  0  0  0  0
 25 47  1  0  0  0  0
 26 25  1  0  0  0  0
 26 27  1  0  0  0  0
 27 28  1  0  0  0  0
 27 50  1  0  0  0  0
 28 33  1  0  0  0  0
 29 30  1  0  0  0  0
 29 54  1  0  0  0  0
 29 28  1  0  0  0  0
 30 31  1  0  0  0  0
 31 32  1  0  0  0  0
 32 57  1  0  0  0  0
 33 32  1  0  0  0  0
 33 59  1  0  0  0  0
 33 60  1  0  0  0  0
 37  7  1  0  0  0  0
 39 18  1  0  0  0  0
 40 20  1  0  0  0  0
 43 24  1  0  0  0  0
 45 24  1  0  0  0  0
 48 26  1  0  0  0  0
 49 26  1  0  0  0  0
 51 27  1  0  0  0  0
 52 28  1  0  0  0  0
 53 29  1  0  0  0  0
 55 30  1  0  0  0  0
 56 30  1  0  0  0  0
 58 32  1  0  0  0  0
M  END
>  <Pose>
1

>  <Score>
-6.73

$$$$
