
 OpenBabel03232204043D

 55 58  0  0  1  0  0  0  0  0999 V2000
   13.9910  -60.2840   33.3380 B   0  0  0  0  0  0  0  0  0  0  0  0
   15.3730  -58.9940   33.6020 C   0  0  0  0  0  0  0  0  0  0  0  0
   15.1570  -57.6420   33.4410 C   0  0  0  0  0  0  0  0  0  0  0  0
   16.1680  -56.7210   33.6350 C   0  0  0  0  0  0  0  0  0  0  0  0
   17.4220  -57.0850   33.9920 C   0  0  0  0  0  0  0  0  0  0  0  0
   17.6300  -58.4650   34.1530 C   0  0  0  0  0  0  0  0  0  0  0  0
   16.6380  -59.4000   33.9660 C   0  0  0  0  0  0  0  0  0  0  0  0
   18.5640  -56.2160   34.2000 C   0  0  1  0  0  0  0  0  0  0  0  0
   18.9700  -55.3570   33.1340 N   0  0  0  0  0  0  0  0  0  0  0  0
   19.7500  -54.3050   33.7580 C   0  0  0  0  0  0  0  0  0  0  0  0
   20.5730  -53.5720   33.1520 O   0  0  0  0  0  0  0  0  0  0  0  0
   19.4020  -54.2680   35.1660 C   0  0  0  0  0  0  0  0  0  0  0  0
   19.8570  -53.4890   36.0580 O   0  0  0  0  0  0  0  0  0  0  0  0
   18.4150  -55.3090   35.3690 C   0  0  0  0  0  0  0  0  0  0  0  0
   17.5610  -55.3820   36.3740 C   0  0  0  0  0  0  0  0  0  0  0  0
   16.6520  -56.4670   36.3400 O   0  0  0  0  0  0  0  0  0  0  0  0
   17.5100  -54.4450   37.4780 C   0  0  0  0  0  0  0  0  0  0  0  0
   16.4760  -53.5020   37.4380 C   0  0  0  0  0  0  0  0  0  0  0  0
   16.2830  -52.5780   38.4440 C   0  0  0  0  0  0  0  0  0  0  0  0
   17.1090  -52.5710   39.5060 N   0  0  0  0  0  0  0  0  0  0  0  0
   18.1140  -53.4690   39.5710 C   0  0  0  0  0  0  0  0  0  0  0  0
   18.3190  -54.4070   38.5610 C   0  0  0  0  0  0  0  0  0  0  0  0
   18.7890  -55.4410   31.6840 C   0  0  0  0  0  0  0  0  0  0  0  0
   18.4530  -56.7970   31.1640 C   0  0  0  0  0  0  0  0  0  0  0  0
   19.6640  -57.7170   31.1490 C   0  0  0  0  0  0  0  0  0  0  0  0
   19.3020  -59.0550   30.7440 N   0  0  0  0  0  4  0  0  0  0  0  0
   17.9590  -59.4110   31.1410 C   0  0  0  0  0  0  0  0  0  0  0  0
   17.5620  -60.6300   30.3030 C   0  0  0  0  0  0  0  0  0  0  0  0
   17.2680  -60.1980   29.0110 O   0  0  0  0  0  0  0  0  0  0  0  0
   18.1600  -59.2160   28.5820 C   0  0  0  0  0  0  0  0  0  0  0  0
   19.4690  -59.2850   29.3410 C   0  0  0  0  0  0  0  0  0  0  0  0
   14.1610  -57.3340   33.1560 H   0  0  0  0  0  0  0  0  0  0  0  0
   15.9490  -55.6520   33.5120 H   0  0  0  0  0  0  0  0  0  0  0  0
   18.6030  -58.8450   34.4380 H   0  0  0  0  0  0  0  0  0  0  0  0
   16.8450  -60.4700   34.1030 H   0  0  0  0  0  0  0  0  0  0  0  0
   19.4730  -56.8310   34.4510 H   0  0  0  0  0  0  0  0  0  0  0  0
   15.7870  -53.4680   36.6060 H   0  0  0  0  0  0  0  0  0  0  0  0
   15.4880  -51.8470   38.4210 H   0  0  0  0  0  0  0  0  0  0  0  0
   18.7850  -53.4670   40.4280 H   0  0  0  0  0  0  0  0  0  0  0  0
   19.1170  -55.1190   38.6820 H   0  0  0  0  0  0  0  0  0  0  0  0
   19.7360  -55.1130   31.2230 H   0  0  0  0  0  0  0  0  0  0  0  0
   18.0070  -54.7380   31.3310 H   0  0  0  0  0  0  0  0  0  0  0  0
   17.6420  -57.2830   31.7970 H   0  0  0  0  0  0  0  0  0  0  0  0
   18.0610  -56.7530   30.1450 H   0  0  0  0  0  0  0  0  0  0  0  0
   20.3770  -57.3310   30.4200 H   0  0  0  0  0  0  0  0  0  0  0  0
   20.0440  -57.7680   32.1810 H   0  0  0  0  0  0  0  0  0  0  0  0
   19.9500  -59.7040   31.2510 H   0  0  0  0  0  0  0  0  0  0  0  0
   17.8750  -59.7200   32.1930 H   0  0  0  0  0  0  0  0  0  0  0  0
   17.2480  -58.5980   30.9410 H   0  0  0  0  0  0  0  0  0  0  0  0
   16.7480  -61.1840   30.7660 H   0  0  0  0  0  0  0  0  0  0  0  0
   18.4650  -61.2680   30.2470 H   0  0  0  0  0  0  0  0  0  0  0  0
   18.4090  -59.3600   27.5110 H   0  0  0  0  0  0  0  0  0  0  0  0
   17.7090  -58.2090   28.7330 H   0  0  0  0  0  0  0  0  0  0  0  0
   20.1450  -58.5410   28.9240 H   0  0  0  0  0  0  0  0  0  0  0  0
   19.9030  -60.2940   29.1200 H   0  0  0  0  0  0  0  0  0  0  0  0
  1  2  1  0  0  0  0
  2  7  1  0  0  0  0
  3  2  2  0  0  0  0
  3  4  1  0  0  0  0
  4  5  2  0  0  0  0
  5  6  1  0  0  0  0
  5  8  1  0  0  0  0
  6 34  1  0  0  0  0
  7 35  1  0  0  0  0
  7  6  2  0  0  0  0
  8 36  1  1  0  0  0
  8 14  1  0  0  0  0
  9 10  1  0  0  0  0
  9  8  1  0  0  0  0
 10 12  1  0  0  0  0
 11 10  2  0  0  0  0
 12 14  1  0  0  0  0
 12 13  2  0  0  0  0
 14 15  2  0  0  0  0
 15 17  1  0  0  0  0
 16 15  1  0  0  0  0
 17 22  1  0  0  0  0
 18 17  2  0  0  0  0
 18 19  1  0  0  0  0
 19 20  2  0  0  0  0
 20 21  1  0  0  0  0
 21 39  1  0  0  0  0
 22 40  1  0  0  0  0
 22 21  2  0  0  0  0
 23  9  1  0  0  0  0
 24 23  1  0  0  0  0
 24 43  1  0  0  0  0
 25 24  1  0  0  0  0
 25 46  1  0  0  0  0
 26 27  1  0  0  0  0
 26 25  1  0  0  0  0
 26 47  1  0  0  0  0
 27 48  1  0  0  0  0
 28 50  1  0  0  0  0
 28 27  1  0  0  0  0
 29 28  1  0  0  0  0
 30 53  1  0  0  0  0
 30 29  1  0  0  0  0
 30 31  1  0  0  0  0
 31 26  1  0  0  0  0
 32  3  1  0  0  0  0
 33  4  1  0  0  0  0
 37 18  1  0  0  0  0
 38 19  1  0  0  0  0
 41 23  1  0  0  0  0
 42 23  1  0  0  0  0
 44 24  1  0  0  0  0
 45 25  1  0  0  0  0
 49 27  1  0  0  0  0
 51 28  1  0  0  0  0
 52 30  1  0  0  0  0
 54 31  1  0  0  0  0
 55 31  1  0  0  0  0
M  END
>  <Pose>
1

>  <Score>
-6.89

$$$$
