
 OpenBabel03232204043D

 57 60  0  0  1  0  0  0  0  0999 V2000
   17.4460  -52.5000   37.9840 B   0  0  0  0  0  0  0  0  0  0  0  0
   17.3100  -54.1420   36.9960 C   0  0  0  0  0  0  0  0  0  0  0  0
   16.6190  -55.2230   37.5130 C   0  0  0  0  0  0  0  0  0  0  0  0
   16.5280  -56.4080   36.7840 C   0  0  0  0  0  0  0  0  0  0  0  0
   17.1080  -56.5530   35.5460 C   0  0  0  0  0  0  0  0  0  0  0  0
   17.7920  -55.4640   35.0490 C   0  0  0  0  0  0  0  0  0  0  0  0
   17.8870  -54.2910   35.7600 C   0  0  0  0  0  0  0  0  0  0  0  0
   17.0120  -57.8240   34.7940 C   0  0  1  0  0  0  0  0  0  0  0  0
   15.6060  -58.2490   34.6640 N   0  0  0  0  0  0  0  0  0  0  0  0
   15.0590  -57.3720   33.6850 C   0  0  0  0  0  0  0  0  0  0  0  0
   13.8310  -57.0850   33.5950 O   0  0  0  0  0  0  0  0  0  0  0  0
   16.1400  -56.8840   32.8340 C   0  0  0  0  0  0  0  0  0  0  0  0
   16.0380  -56.1020   31.8670 O   0  0  0  0  0  0  0  0  0  0  0  0
   17.3420  -57.5060   33.3560 C   0  0  0  0  0  0  0  0  0  0  0  0
   18.4550  -57.7760   32.7230 C   0  0  0  0  0  0  0  0  0  0  0  0
   19.5020  -58.4260   33.3610 O   0  0  0  0  0  0  0  0  0  0  0  0
   18.6520  -57.4070   31.3340 C   0  0  0  0  0  0  0  0  0  0  0  0
   18.6640  -58.1450   30.2050 N   0  0  0  0  0  0  0  0  0  0  0  0
   18.9230  -57.3770   29.1360 C   0  0  0  0  0  0  0  0  0  0  0  0
   19.0790  -56.1210   29.6080 N   0  0  0  0  0  0  0  0  0  0  0  0
   18.9260  -56.0860   30.9170 C   0  0  0  0  0  0  0  0  0  0  0  0
   19.0060  -54.9220   31.8570 C   0  0  0  0  0  0  0  0  0  0  0  0
   18.9770  -57.8780   27.8350 C   0  0  0  0  0  0  0  0  0  0  0  0
   18.7580  -59.2160   27.6030 C   0  0  0  0  0  0  0  0  0  0  0  0
   18.4910  -59.9870   28.7100 C   0  0  0  0  0  0  0  0  0  0  0  0
   18.4450  -59.4660   29.9810 C   0  0  0  0  0  0  0  0  0  0  0  0
   14.9640  -59.3090   35.3950 C   0  0  0  0  0  0  0  0  0  0  0  0
   14.0880  -58.9750   36.5380 C   0  0  0  0  0  0  0  0  0  0  0  0
   13.3650  -57.6880   36.5840 C   0  0  0  0  0  0  0  0  0  0  0  0
   12.7230  -57.3190   37.8090 N   0  0  0  0  0  4  0  0  0  0  0  0
   12.2230  -58.5810   38.4230 C   0  0  0  0  0  0  0  0  0  0  0  0
   13.7060  -56.8320   38.7550 C   0  0  0  0  0  0  0  0  0  0  0  0
   16.1490  -55.1260   38.4990 H   0  0  0  0  0  0  0  0  0  0  0  0
   15.9830  -57.2330   37.2090 H   0  0  0  0  0  0  0  0  0  0  0  0
   18.2590  -55.5740   34.0820 H   0  0  0  0  0  0  0  0  0  0  0  0
   18.4280  -53.4680   35.3390 H   0  0  0  0  0  0  0  0  0  0  0  0
   17.6490  -58.6180   35.1900 H   0  0  0  0  0  0  0  0  0  0  0  0
   19.4750  -55.2030   32.8070 H   0  0  0  0  0  0  0  0  0  0  0  0
   17.9720  -54.5020   32.0360 H   0  0  0  0  0  0  0  0  0  0  0  0
   19.5990  -54.1070   31.3960 H   0  0  0  0  0  0  0  0  0  0  0  0
   19.1910  -57.2280   26.9970 H   0  0  0  0  0  0  0  0  0  0  0  0
   18.7950  -59.6280   26.5970 H   0  0  0  0  0  0  0  0  0  0  0  0
   18.3160  -61.0490   28.5250 H   0  0  0  0  0  0  0  0  0  0  0  0
   18.2380  -60.0760   30.8390 H   0  0  0  0  0  0  0  0  0  0  0  0
   15.7170  -60.0880   35.7130 H   0  0  0  0  0  0  0  0  0  0  0  0
   14.3040  -59.8430   34.6280 H   0  0  0  0  0  0  0  0  0  0  0  0
   14.5860  -59.2090   37.5280 H   0  0  0  0  0  0  0  0  0  0  0  0
   13.2600  -59.7790   36.5140 H   0  0  0  0  0  0  0  0  0  0  0  0
   12.6340  -57.5900   35.7210 H   0  0  0  0  0  0  0  0  0  0  0  0
   14.1100  -56.8650   36.3330 H   0  0  0  0  0  0  0  0  0  0  0  0
   11.9440  -56.6630   37.7440 H   0  0  0  0  0  0  0  0  0  0  0  0
   11.7260  -58.3720   39.3800 H   0  0  0  0  0  0  0  0  0  0  0  0
   11.5460  -59.0900   37.7080 H   0  0  0  0  0  0  0  0  0  0  0  0
   13.1430  -59.1620   38.6400 H   0  0  0  0  0  0  0  0  0  0  0  0
   14.5930  -56.3990   38.2370 H   0  0  0  0  0  0  0  0  0  0  0  0
   13.2440  -56.0020   39.3250 H   0  0  0  0  0  0  0  0  0  0  0  0
   14.0030  -57.5890   39.5030 H   0  0  0  0  0  0  0  0  0  0  0  0
  2  3  1  0  0  0  0
  2  1  1  0  0  0  0
  3 33  1  0  0  0  0
  4 34  1  0  0  0  0
  4  3  2  0  0  0  0
  5  4  1  0  0  0  0
  6  5  2  0  0  0  0
  6  7  1  0  0  0  0
  7  2  2  0  0  0  0
  8 37  1  1  0  0  0
  8  5  1  0  0  0  0
  9  8  1  0  0  0  0
  9 27  1  0  0  0  0
 10  9  1  0  0  0  0
 11 10  2  0  0  0  0
 12 14  1  0  0  0  0
 12 10  1  0  0  0  0
 13 12  2  0  0  0  0
 14  8  1  0  0  0  0
 15 14  2  0  0  0  0
 15 16  1  0  0  0  0
 17 15  1  0  0  0  0
 18 17  1  0  0  0  0
 19 20  2  0  0  0  0
 19 18  1  0  0  0  0
 20 21  1  0  0  0  0
 21 17  2  0  0  0  0
 21 22  1  0  0  0  0
 22 39  1  0  0  0  0
 22 38  1  0  0  0  0
 23 19  1  0  0  0  0
 24 23  2  0  0  0  0
 24 25  1  0  0  0  0
 25 26  2  0  0  0  0
 26 18  1  0  0  0  0
 26 44  1  0  0  0  0
 27 45  1  0  0  0  0
 27 28  1  0  0  0  0
 28 29  1  0  0  0  0
 28 47  1  0  0  0  0
 29 30  1  0  0  0  0
 30 31  1  0  0  0  0
 30 32  1  0  0  0  0
 31 54  1  0  0  0  0
 31 52  1  0  0  0  0
 32 56  1  0  0  0  0
 32 57  1  0  0  0  0
 35  6  1  0  0  0  0
 36  7  1  0  0  0  0
 40 22  1  0  0  0  0
 41 23  1  0  0  0  0
 42 24  1  0  0  0  0
 43 25  1  0  0  0  0
 46 27  1  0  0  0  0
 48 28  1  0  0  0  0
 49 29  1  0  0  0  0
 50 29  1  0  0  0  0
 51 30  1  0  0  0  0
 53 31  1  0  0  0  0
 55 32  1  0  0  0  0
M  END
>  <Pose>
1

>  <Score>
-7.34

$$$$
