
 OpenBabel03232204043D

 54 57  0  0  1  0  0  0  0  0999 V2000
   15.9740  -52.9990   39.5680 B   0  0  0  0  0  0  0  0  0  0  0  0
   15.8070  -54.5720   38.4970 C   0  0  0  0  0  0  0  0  0  0  0  0
   14.8350  -55.4800   38.8060 C   0  0  0  0  0  0  0  0  0  0  0  0
   14.7050  -56.6170   38.0440 C   0  0  0  0  0  0  0  0  0  0  0  0
   15.5000  -56.9190   36.9620 C   0  0  0  0  0  0  0  0  0  0  0  0
   16.4830  -55.9710   36.6730 C   0  0  0  0  0  0  0  0  0  0  0  0
   16.6280  -54.8290   37.4240 C   0  0  0  0  0  0  0  0  0  0  0  0
   15.3290  -58.1600   36.1600 C   0  0  1  0  0  0  0  0  0  0  0  0
   13.9470  -58.4380   35.8800 N   0  0  0  0  0  0  0  0  0  0  0  0
   13.7170  -58.1190   34.5190 C   0  0  0  0  0  0  0  0  0  0  0  0
   12.5840  -58.0430   33.9620 O   0  0  0  0  0  0  0  0  0  0  0  0
   15.0020  -57.8900   33.8540 C   0  0  0  0  0  0  0  0  0  0  0  0
   15.2010  -57.5920   32.6510 O   0  0  0  0  0  0  0  0  0  0  0  0
   16.0310  -58.0780   34.8610 C   0  0  0  0  0  0  0  0  0  0  0  0
   17.3270  -58.2060   34.6260 C   0  0  0  0  0  0  0  0  0  0  0  0
   18.1590  -58.4600   35.7340 O   0  0  0  0  0  0  0  0  0  0  0  0
   17.9780  -58.1030   33.3440 C   0  0  0  0  0  0  0  0  0  0  0  0
   18.0710  -58.9310   32.2960 N   0  0  0  0  0  0  0  0  0  0  0  0
   18.8350  -58.3950   31.3280 C   0  0  0  0  0  0  0  0  0  0  0  0
   19.2390  -57.1920   31.7680 N   0  0  0  0  0  0  0  0  0  0  0  0
   18.7380  -56.9820   32.9860 C   0  0  0  0  0  0  0  0  0  0  0  0
   18.9610  -55.7580   33.8070 C   0  0  0  0  0  0  0  0  0  0  0  0
   19.0920  -59.0260   30.1150 C   0  0  0  0  0  0  0  0  0  0  0  0
   18.5390  -60.2570   29.8950 C   0  0  0  0  0  0  0  0  0  0  0  0
   17.7520  -60.8100   30.8880 C   0  0  0  0  0  0  0  0  0  0  0  0
   17.5270  -60.1470   32.0720 C   0  0  0  0  0  0  0  0  0  0  0  0
   12.9420  -58.9630   36.8300 C   0  0  0  0  0  0  0  0  0  0  0  0
   12.3250  -60.2320   36.2790 C   0  0  0  0  0  0  0  0  0  0  0  0
   12.6160  -61.3850   37.0560 N   0  0  0  0  0  4  0  0  0  0  0  0
   11.6650  -61.4250   38.1670 C   0  0  0  0  0  0  0  0  0  0  0  0
   12.5500  -62.6280   36.3510 C   0  0  0  0  0  0  0  0  0  0  0  0
   14.1500  -55.3250   39.6530 H   0  0  0  0  0  0  0  0  0  0  0  0
   13.9250  -57.3090   38.3200 H   0  0  0  0  0  0  0  0  0  0  0  0
   17.1510  -56.1330   35.8380 H   0  0  0  0  0  0  0  0  0  0  0  0
   17.3940  -54.1040   37.1890 H   0  0  0  0  0  0  0  0  0  0  0  0
   15.7190  -58.9860   36.7980 H   0  0  0  0  0  0  0  0  0  0  0  0
   18.0330  -55.1470   33.8790 H   0  0  0  0  0  0  0  0  0  0  0  0
   19.2440  -56.1260   34.8290 H   0  0  0  0  0  0  0  0  0  0  0  0
   19.8100  -55.2000   33.4150 H   0  0  0  0  0  0  0  0  0  0  0  0
   19.7260  -58.5100   29.3930 H   0  0  0  0  0  0  0  0  0  0  0  0
   18.7370  -60.7510   28.9520 H   0  0  0  0  0  0  0  0  0  0  0  0
   17.2970  -61.7910   30.7400 H   0  0  0  0  0  0  0  0  0  0  0  0
   16.9150  -60.5560   32.8680 H   0  0  0  0  0  0  0  0  0  0  0  0
   12.1650  -58.1990   37.0210 H   0  0  0  0  0  0  0  0  0  0  0  0
   13.4910  -59.1740   37.7560 H   0  0  0  0  0  0  0  0  0  0  0  0
   12.7150  -60.3390   35.2340 H   0  0  0  0  0  0  0  0  0  0  0  0
   11.2240  -60.0460   36.1550 H   0  0  0  0  0  0  0  0  0  0  0  0
   13.5750  -61.3310   37.5020 H   0  0  0  0  0  0  0  0  0  0  0  0
   10.6420  -61.5980   37.8050 H   0  0  0  0  0  0  0  0  0  0  0  0
   11.9790  -62.2030   38.9180 H   0  0  0  0  0  0  0  0  0  0  0  0
   11.6510  -60.4680   38.7310 H   0  0  0  0  0  0  0  0  0  0  0  0
   12.1930  -63.4080   37.0680 H   0  0  0  0  0  0  0  0  0  0  0  0
   11.8200  -62.6250   35.5160 H   0  0  0  0  0  0  0  0  0  0  0  0
   13.5640  -62.9750   36.0310 H   0  0  0  0  0  0  0  0  0  0  0  0
  2  3  1  0  0  0  0
  2  1  1  0  0  0  0
  3 32  1  0  0  0  0
  4 33  1  0  0  0  0
  4  3  2  0  0  0  0
  5  4  1  0  0  0  0
  6  5  2  0  0  0  0
  6  7  1  0  0  0  0
  7  2  2  0  0  0  0
  8 36  1  1  0  0  0
  8  5  1  0  0  0  0
  9  8  1  0  0  0  0
  9 27  1  0  0  0  0
 10  9  1  0  0  0  0
 11 10  2  0  0  0  0
 12 10  1  0  0  0  0
 12 14  1  0  0  0  0
 13 12  2  0  0  0  0
 14  8  1  0  0  0  0
 15 14  2  0  0  0  0
 15 16  1  0  0  0  0
 17 15  1  0  0  0  0
 18 17  1  0  0  0  0
 19 20  2  0  0  0  0
 19 18  1  0  0  0  0
 20 21  1  0  0  0  0
 21 17  2  0  0  0  0
 21 22  1  0  0  0  0
 22 37  1  0  0  0  0
 22 38  1  0  0  0  0
 23 19  1  0  0  0  0
 24 23  2  0  0  0  0
 24 25  1  0  0  0  0
 25 26  2  0  0  0  0
 26 18  1  0  0  0  0
 26 43  1  0  0  0  0
 27 44  1  0  0  0  0
 27 45  1  0  0  0  0
 28 27  1  0  0  0  0
 28 29  1  0  0  0  0
 29 48  1  0  0  0  0
 29 30  1  0  0  0  0
 30 51  1  0  0  0  0
 30 50  1  0  0  0  0
 31 29  1  0  0  0  0
 31 52  1  0  0  0  0
 34  6  1  0  0  0  0
 35  7  1  0  0  0  0
 39 22  1  0  0  0  0
 40 23  1  0  0  0  0
 41 24  1  0  0  0  0
 42 25  1  0  0  0  0
 46 28  1  0  0  0  0
 47 28  1  0  0  0  0
 49 30  1  0  0  0  0
 53 31  1  0  0  0  0
 54 31  1  0  0  0  0
M  END
>  <Pose>
1

>  <Score>
-7.24

$$$$
