
 OpenBabel03232204043D

 44 47  0  0  0  0  0  0  0  0999 V2000
   10.5750  -62.7730   40.9770 B   0  0  0  0  0  0  0  0  0  0  0  0
   11.1030  -61.2110   40.0120 C   0  0  0  0  0  0  0  0  0  0  0  0
   11.2400  -61.2140   38.6490 C   0  0  0  0  0  0  0  0  0  0  0  0
   11.6310  -60.0610   37.9530 C   0  0  0  0  0  0  0  0  0  0  0  0
   11.8990  -58.8680   38.5760 C   0  0  0  0  0  0  0  0  0  0  0  0
   11.7470  -58.9010   39.9760 C   0  0  0  0  0  0  0  0  0  0  0  0
   11.3670  -60.0210   40.6610 C   0  0  0  0  0  0  0  0  0  0  0  0
   12.3190  -57.6770   37.9780 N   0  0  0  0  0  0  0  0  0  0  0  0
   13.5070  -57.4960   37.2600 C   0  0  0  0  0  0  0  0  0  0  0  0
   13.4410  -57.2710   35.9870 O   0  0  0  0  0  0  0  0  0  0  0  0
   14.8780  -57.5260   37.7680 C   0  0  0  0  0  0  0  0  0  0  0  0
   15.3640  -56.1620   38.0380 N   0  0  0  0  0  0  0  0  0  0  0  0
   16.1750  -55.5180   37.2040 N   0  0  0  0  0  0  0  0  0  0  0  0
   16.6420  -54.2670   37.4810 C   0  0  0  0  0  0  0  0  0  0  0  0
   16.2740  -53.6680   38.6240 N   0  0  0  0  0  0  0  0  0  0  0  0
   16.8560  -52.3460   38.7120 C   0  0  0  0  0  0  0  0  0  0  0  0
   17.6770  -52.1470   37.4730 C   0  0  0  0  0  0  0  0  0  0  0  0
   17.5340  -53.4120   36.7760 N   0  0  0  0  0  0  0  0  0  0  0  0
   18.2120  -53.7010   35.5680 C   0  0  0  0  0  0  0  0  0  0  0  0
   19.4020  -53.1290   35.2060 C   0  0  0  0  0  0  0  0  0  0  0  0
   20.0320  -53.4210   34.0100 C   0  0  0  0  0  0  0  0  0  0  0  0
   19.4540  -54.3220   33.1360 C   0  0  0  0  0  0  0  0  0  0  0  0
   18.2720  -54.9020   33.4770 C   0  0  0  0  0  0  0  0  0  0  0  0
   17.6510  -54.6040   34.6710 C   0  0  0  0  0  0  0  0  0  0  0  0
   15.4590  -54.2660   39.5030 C   0  0  0  0  0  0  0  0  0  0  0  0
   15.1170  -53.7030   40.5700 O   0  0  0  0  0  0  0  0  0  0  0  0
   15.0170  -55.5310   39.1740 C   0  0  0  0  0  0  0  0  0  0  0  0
   14.2490  -56.1330   39.9670 O   0  0  0  0  0  0  0  0  0  0  0  0
   11.0410  -62.1270   38.1070 H   0  0  0  0  0  0  0  0  0  0  0  0
   11.7150  -60.1050   36.8700 H   0  0  0  0  0  0  0  0  0  0  0  0
   11.9470  -57.9820   40.5120 H   0  0  0  0  0  0  0  0  0  0  0  0
   11.2570  -60.0340   41.7490 H   0  0  0  0  0  0  0  0  0  0  0  0
   11.6930  -56.8280   38.0730 H   0  0  0  0  0  0  0  0  0  0  0  0
   15.6040  -57.9520   37.0340 H   0  0  0  0  0  0  0  0  0  0  0  0
   14.9330  -58.0910   38.7140 H   0  0  0  0  0  0  0  0  0  0  0  0
   16.0090  -51.6240   38.6480 H   0  0  0  0  0  0  0  0  0  0  0  0
   17.4390  -52.1950   39.6500 H   0  0  0  0  0  0  0  0  0  0  0  0
   18.7380  -52.0410   37.8210 H   0  0  0  0  0  0  0  0  0  0  0  0
   17.3650  -51.2870   36.8460 H   0  0  0  0  0  0  0  0  0  0  0  0
   19.8480  -52.4350   35.8780 H   0  0  0  0  0  0  0  0  0  0  0  0
   20.9720  -52.9490   33.7480 H   0  0  0  0  0  0  0  0  0  0  0  0
   19.9580  -54.5470   32.1880 H   0  0  0  0  0  0  0  0  0  0  0  0
   17.8010  -55.6040   32.8140 H   0  0  0  0  0  0  0  0  0  0  0  0
   16.7280  -55.0610   34.9250 H   0  0  0  0  0  0  0  0  0  0  0  0
  2  7  1  0  0  0  0
  2  1  1  0  0  0  0
  3  2  2  0  0  0  0
  4  5  2  0  0  0  0
  4  3  1  0  0  0  0
  5  6  1  0  0  0  0
  6 31  1  0  0  0  0
  6  7  2  0  0  0  0
  7 32  1  0  0  0  0
  8 33  1  0  0  0  0
  8  5  1  0  0  0  0
  9 11  1  0  0  0  0
  9  8  1  0  0  0  0
 10  9  2  0  0  0  0
 11 12  1  0  0  0  0
 11 35  1  0  0  0  0
 12 27  1  0  0  0  0
 13 14  2  0  0  0  0
 13 12  1  0  0  0  0
 14 15  1  0  0  0  0
 15 16  1  0  0  0  0
 15 25  1  0  0  0  0
 16 37  1  0  0  0  0
 17 38  1  0  0  0  0
 17 16  1  0  0  0  0
 18 17  1  0  0  0  0
 18 14  1  0  0  0  0
 19 18  1  0  0  0  0
 20 19  1  0  0  0  0
 20 40  1  0  0  0  0
 21 20  2  0  0  0  0
 22 23  2  0  0  0  0
 22 21  1  0  0  0  0
 23 24  1  0  0  0  0
 24 44  1  0  0  0  0
 24 19  2  0  0  0  0
 25 26  2  0  0  0  0
 27 25  1  0  0  0  0
 27 28  2  0  0  0  0
 29  3  1  0  0  0  0
 30  4  1  0  0  0  0
 34 11  1  0  0  0  0
 36 16  1  0  0  0  0
 39 17  1  0  0  0  0
 41 21  1  0  0  0  0
 42 22  1  0  0  0  0
 43 23  1  0  0  0  0
M  END
>  <Pose>
1

>  <Score>
-8.33

$$$$
