
 OpenBabel03232204043D

 44 47  0  0  0  0  0  0  0  0999 V2000
   14.4290  -58.0820   35.4210 B   0  0  0  0  0  0  0  0  0  0  0  0
   16.0440  -58.1240   34.4200 C   0  0  0  0  0  0  0  0  0  0  0  0
   17.2770  -58.2420   35.0100 C   0  0  0  0  0  0  0  0  0  0  0  0
   18.4280  -58.2660   34.2340 C   0  0  0  0  0  0  0  0  0  0  0  0
   18.4120  -58.1770   32.8580 C   0  0  0  0  0  0  0  0  0  0  0  0
   17.1300  -58.0590   32.2880 C   0  0  0  0  0  0  0  0  0  0  0  0
   16.0030  -58.0340   33.0460 C   0  0  0  0  0  0  0  0  0  0  0  0
   19.5530  -58.1720   32.0240 N   0  0  0  0  0  0  0  0  0  0  0  0
   19.8000  -57.2810   30.9710 C   0  0  0  0  0  0  0  0  0  0  0  0
   20.6080  -57.5650   30.0620 O   0  0  0  0  0  0  0  0  0  0  0  0
   19.0830  -55.9420   30.9270 C   0  0  0  0  0  0  0  0  0  0  0  0
   19.7510  -55.0310   31.8340 N   0  0  0  0  0  0  0  0  0  0  0  0
   20.9150  -54.4320   31.5800 N   0  0  0  0  0  0  0  0  0  0  0  0
   21.2460  -53.6710   32.5980 N   0  0  0  0  0  0  0  0  0  0  0  0
   20.2800  -53.7740   33.5420 C   0  0  0  0  0  0  0  0  0  0  0  0
   19.3630  -54.6180   33.0540 C   0  0  0  0  0  0  0  0  0  0  0  0
   18.4010  -54.6950   34.0390 C   0  0  0  0  0  0  0  0  0  0  0  0
   17.3650  -55.4140   33.9250 O   0  0  0  0  0  0  0  0  0  0  0  0
   18.7040  -53.9310   35.0990 N   0  0  0  0  0  0  0  0  0  0  0  0
   19.8950  -53.3430   34.7900 C   0  0  0  0  0  0  0  0  0  0  0  0
   20.4870  -52.5460   35.5680 O   0  0  0  0  0  0  0  0  0  0  0  0
   17.9660  -53.7440   36.3160 C   0  0  0  0  0  0  0  0  0  0  0  0
   17.7650  -52.4830   36.8360 C   0  0  0  0  0  0  0  0  0  0  0  0
   17.0470  -52.2940   38.0000 C   0  0  0  0  0  0  0  0  0  0  0  0
   16.4960  -53.3510   38.7020 C   0  0  0  0  0  0  0  0  0  0  0  0
   16.6950  -54.6130   38.1830 C   0  0  0  0  0  0  0  0  0  0  0  0
   17.4160  -54.7970   37.0150 C   0  0  0  0  0  0  0  0  0  0  0  0
   15.7230  -53.1120   39.9500 C   0  0  0  0  0  0  0  0  0  0  0  0
   17.3340  -58.3140   36.0800 H   0  0  0  0  0  0  0  0  0  0  0  0
   19.4050  -58.3710   34.7310 H   0  0  0  0  0  0  0  0  0  0  0  0
   17.1070  -57.9880   31.1880 H   0  0  0  0  0  0  0  0  0  0  0  0
   15.0280  -57.9390   32.5620 H   0  0  0  0  0  0  0  0  0  0  0  0
   20.2820  -58.9250   32.2340 H   0  0  0  0  0  0  0  0  0  0  0  0
   18.0450  -56.0690   31.2510 H   0  0  0  0  0  0  0  0  0  0  0  0
   19.1810  -55.5530   29.8830 H   0  0  0  0  0  0  0  0  0  0  0  0
   21.4460  -54.5750   30.6970 H   0  0  0  0  0  0  0  0  0  0  0  0
   22.0980  -53.0680   32.7150 H   0  0  0  0  0  0  0  0  0  0  0  0
   18.1920  -51.6440   36.2970 H   0  0  0  0  0  0  0  0  0  0  0  0
   16.8800  -51.2960   38.4220 H   0  0  0  0  0  0  0  0  0  0  0  0
   16.2680  -55.4670   38.7200 H   0  0  0  0  0  0  0  0  0  0  0  0
   17.5750  -55.7900   36.6040 H   0  0  0  0  0  0  0  0  0  0  0  0
   16.3240  -52.5820   40.7240 H   0  0  0  0  0  0  0  0  0  0  0  0
   15.4930  -54.1140   40.3870 H   0  0  0  0  0  0  0  0  0  0  0  0
   14.7640  -52.6040   39.7630 H   0  0  0  0  0  0  0  0  0  0  0  0
  2  3  1  0  0  0  0
  2  1  1  0  0  0  0
  3 29  1  0  0  0  0
  4 30  1  0  0  0  0
  4  3  2  0  0  0  0
  5  4  1  0  0  0  0
  6  5  2  0  0  0  0
  6  7  1  0  0  0  0
  7  2  2  0  0  0  0
  8 33  1  0  0  0  0
  8  5  1  0  0  0  0
  9  8  1  0  0  0  0
 10  9  2  0  0  0  0
 11  9  1  0  0  0  0
 11 34  1  0  0  0  0
 11 12  1  0  0  0  0
 12 16  1  0  0  0  0
 13 12  1  0  0  0  0
 13 14  1  0  0  0  0
 14 37  1  0  0  0  0
 14 15  1  0  0  0  0
 15 20  1  0  0  0  0
 16 15  2  0  0  0  0
 16 17  1  0  0  0  0
 17 19  1  0  0  0  0
 18 17  2  0  0  0  0
 19 22  1  0  0  0  0
 20 19  1  0  0  0  0
 20 21  2  0  0  0  0
 22 23  2  0  0  0  0
 22 27  1  0  0  0  0
 23 24  1  0  0  0  0
 24 39  1  0  0  0  0
 24 25  2  0  0  0  0
 25 28  1  0  0  0  0
 26 25  1  0  0  0  0
 26 40  1  0  0  0  0
 27 26  2  0  0  0  0
 28 43  1  0  0  0  0
 28 42  1  0  0  0  0
 31  6  1  0  0  0  0
 32  7  1  0  0  0  0
 35 11  1  0  0  0  0
 36 13  1  0  0  0  0
 38 23  1  0  0  0  0
 41 27  1  0  0  0  0
 44 28  1  0  0  0  0
M  END
>  <Pose>
1

>  <Score>
-8.24

$$$$
