
 OpenBabel03232204043D

 52 55  0  0  1  0  0  0  0  0999 V2000
    9.7440  -60.2300   38.7350 B   0  0  0  0  0  0  0  0  0  0  0  0
   11.2970  -59.9580   37.6870 C   0  0  0  0  0  0  0  0  0  0  0  0
   11.5430  -60.7750   36.5980 C   0  0  0  0  0  0  0  0  0  0  0  0
   12.6300  -60.6460   35.8000 C   0  0  0  0  0  0  0  0  0  0  0  0
   13.5620  -59.6040   36.1110 C   0  0  0  0  0  0  0  0  0  0  0  0
   13.2880  -58.8100   37.1990 C   0  0  0  0  0  0  0  0  0  0  0  0
   12.1750  -58.9600   37.9970 C   0  0  0  0  0  0  0  0  0  0  0  0
   14.5970  -59.4900   35.2170 N   0  0  0  0  0  0  0  0  0  0  0  0
   15.6150  -59.3790   34.3410 C   0  0  0  0  0  0  0  0  0  0  0  0
   16.3770  -60.3280   33.8690 O   0  0  0  0  0  0  0  0  0  0  0  0
   16.0220  -58.0740   33.7540 C   0  0  2  0  0  0  0  0  0  0  0  0
   16.7690  -58.1930   32.4390 C   0  0  0  0  0  0  0  0  0  0  0  0
   16.7830  -56.8430   31.7980 C   0  0  0  0  0  0  0  0  0  0  0  0
   16.4660  -56.7040   30.6300 O   0  0  0  0  0  0  0  0  0  0  0  0
   17.1780  -55.7700   32.6090 N   0  0  0  0  0  0  0  0  0  0  0  0
   17.1050  -55.8620   34.0180 C   0  0  0  0  0  0  0  0  0  0  0  0
   17.5730  -54.8770   34.8110 N   0  0  0  0  0  0  0  0  0  0  0  0
   17.6280  -54.9180   36.1430 C   0  0  0  0  0  0  0  0  0  0  0  0
   17.1640  -56.0660   36.7020 N   0  0  0  0  0  0  0  0  0  0  0  0
   16.6760  -57.0980   35.9660 C   0  0  0  0  0  0  0  0  0  0  0  0
   16.6170  -57.0520   34.6070 C   0  0  0  0  0  0  0  0  0  0  0  0
   16.2240  -58.2410   36.6200 O   0  0  0  0  0  0  0  0  0  0  0  0
   18.0770  -53.8500   36.9540 N   0  0  0  0  0  0  0  0  0  0  0  0
   17.4740  -52.5480   37.0720 C   0  0  0  0  0  0  0  0  0  0  0  0
   17.5630  -52.1090   38.5300 C   0  0  0  0  0  0  0  0  0  0  0  0
   17.5520  -53.2740   39.4750 C   0  0  2  0  0  0  0  0  0  0  0  0
   18.6950  -54.1940   39.2250 C   0  0  0  0  0  0  0  0  0  0  0  0
   19.2640  -54.0500   37.7940 C   0  0  0  0  0  0  0  0  0  0  0  0
   16.2420  -53.9680   39.4860 C   0  0  0  0  0  0  0  0  0  0  0  0
   16.2120  -55.1570   39.1080 O   0  0  0  0  0  0  0  0  0  0  0  0
   15.0330  -53.3600   39.8920 N   0  0  0  0  0  0  0  0  0  0  0  0
   10.8200  -61.5810   36.3620 H   0  0  0  0  0  0  0  0  0  0  0  0
   12.8180  -61.2970   34.9450 H   0  0  0  0  0  0  0  0  0  0  0  0
   13.9700  -57.9970   37.4540 H   0  0  0  0  0  0  0  0  0  0  0  0
   11.9810  -58.3190   38.8500 H   0  0  0  0  0  0  0  0  0  0  0  0
   15.2150  -60.5270   35.8170 H   0  0  0  0  0  0  0  0  0  0  0  0
   14.9870  -57.6750   33.3740 H   0  0  0  0  0  0  0  0  0  0  0  0
   16.2660  -58.8790   31.7310 H   0  0  0  0  0  0  0  0  0  0  0  0
   17.7990  -58.5300   32.5820 H   0  0  0  0  0  0  0  0  0  0  0  0
   17.5470  -54.8620   32.2180 H   0  0  0  0  0  0  0  0  0  0  0  0
   16.8570  -58.8900   37.0840 H   0  0  0  0  0  0  0  0  0  0  0  0
   16.4070  -52.5640   36.7880 H   0  0  0  0  0  0  0  0  0  0  0  0
   17.9450  -51.7520   36.4710 H   0  0  0  0  0  0  0  0  0  0  0  0
   18.4160  -51.4270   38.6710 H   0  0  0  0  0  0  0  0  0  0  0  0
   16.6610  -51.4860   38.7420 H   0  0  0  0  0  0  0  0  0  0  0  0
   17.6890  -52.8630   40.5120 H   0  0  0  0  0  0  0  0  0  0  0  0
   18.3610  -55.2650   39.3300 H   0  0  0  0  0  0  0  0  0  0  0  0
   19.5330  -54.0770   39.9330 H   0  0  0  0  0  0  0  0  0  0  0  0
   19.9290  -53.1870   37.7680 H   0  0  0  0  0  0  0  0  0  0  0  0
   19.7500  -55.0170   37.5700 H   0  0  0  0  0  0  0  0  0  0  0  0
   14.1650  -53.4070   39.3270 H   0  0  0  0  0  0  0  0  0  0  0  0
   15.0130  -52.8440   40.7960 H   0  0  0  0  0  0  0  0  0  0  0  0
  2  7  1  0  0  0  0
  2  1  1  0  0  0  0
  3  2  2  0  0  0  0
  4  5  2  0  0  0  0
  4  3  1  0  0  0  0
  5  6  1  0  0  0  0
  6 34  1  0  0  0  0
  6  7  2  0  0  0  0
  7 35  1  0  0  0  0
  8 36  1  0  0  0  0
  8  5  1  0  0  0  0
  9  8  1  0  0  0  0
 10  9  2  0  0  0  0
 11 37  1  6  0  0  0
 11  9  1  0  0  0  0
 11 21  1  0  0  0  0
 12 39  1  0  0  0  0
 12 11  1  0  0  0  0
 13 12  1  0  0  0  0
 13 15  1  0  0  0  0
 14 13  2  0  0  0  0
 15 16  1  0  0  0  0
 16 21  2  0  0  0  0
 16 17  1  0  0  0  0
 17 18  2  0  0  0  0
 18 19  1  0  0  0  0
 18 23  1  0  0  0  0
 20 22  1  0  0  0  0
 20 19  2  0  0  0  0
 21 20  1  0  0  0  0
 22 41  1  0  0  0  0
 23 24  1  0  0  0  0
 23 28  1  0  0  0  0
 24 25  1  0  0  0  0
 25 44  1  0  0  0  0
 25 45  1  0  0  0  0
 25 26  1  0  0  0  0
 26 29  1  0  0  0  0
 26 46  1  1  0  0  0
 27 47  1  0  0  0  0
 27 26  1  0  0  0  0
 27 48  1  0  0  0  0
 28 27  1  0  0  0  0
 29 31  1  0  0  0  0
 30 29  2  0  0  0  0
 31 52  1  0  0  0  0
 32  3  1  0  0  0  0
 33  4  1  0  0  0  0
 38 12  1  0  0  0  0
 40 15  1  0  0  0  0
 42 24  1  0  0  0  0
 43 24  1  0  0  0  0
 49 28  1  0  0  0  0
 50 28  1  0  0  0  0
 51 31  1  0  0  0  0
M  END
>  <Pose>
1

>  <Score>
-7.44

$$$$
