
 OpenBabel03232204043D

 42 45  0  0  0  0  0  0  0  0999 V2000
    9.5920  -60.5720   42.0870 B   0  0  0  0  0  0  0  0  0  0  0  0
   10.3660  -60.2270   40.3720 C   0  0  0  0  0  0  0  0  0  0  0  0
   11.7350  -60.2350   40.2090 C   0  0  0  0  0  0  0  0  0  0  0  0
   12.2770  -59.9850   38.9640 C   0  0  0  0  0  0  0  0  0  0  0  0
   11.5090  -59.7190   37.8460 C   0  0  0  0  0  0  0  0  0  0  0  0
   10.1370  -59.7150   38.0260 C   0  0  0  0  0  0  0  0  0  0  0  0
    9.5810  -59.9650   39.2650 C   0  0  0  0  0  0  0  0  0  0  0  0
   12.0940  -59.4630   36.5670 N   0  0  0  0  0  0  0  0  0  0  0  0
   11.7370  -60.0220   35.4380 N   0  0  0  0  0  0  0  0  0  0  0  0
   12.4680  -59.5860   34.3930 C   0  0  0  0  0  0  0  0  0  0  0  0
   13.3550  -58.6810   34.9090 C   0  0  0  0  0  0  0  0  0  0  0  0
   13.1030  -58.6200   36.2630 C   0  0  0  0  0  0  0  0  0  0  0  0
   13.7990  -57.7920   37.2230 N   0  0  0  0  0  0  0  0  0  0  0  0
   15.1000  -57.7290   37.4640 C   0  0  0  0  0  0  0  0  0  0  0  0
   15.3620  -56.8140   38.4570 C   0  0  0  0  0  0  0  0  0  0  0  0
   14.1360  -56.3100   38.8200 C   0  0  0  0  0  0  0  0  0  0  0  0
   13.1820  -56.9280   38.0440 C   0  0  0  0  0  0  0  0  0  0  0  0
   14.3520  -57.9470   34.1390 C   0  0  0  0  0  0  0  0  0  0  0  0
   13.9190  -57.0710   33.3530 O   0  0  0  0  0  0  0  0  0  0  0  0
   15.7410  -58.1780   34.2420 N   0  0  0  0  0  0  0  0  0  0  0  0
   16.3040  -59.3540   33.6230 C   0  0  0  0  0  0  0  0  0  0  0  0
   17.1870  -58.9050   32.4970 C   0  0  0  0  0  0  0  0  0  0  0  0
   17.6170  -57.5200   32.6510 N   0  0  0  0  0  0  0  0  0  0  0  0
   17.6540  -56.8660   33.9150 C   0  0  0  0  0  0  0  0  0  0  0  0
   18.4870  -55.9500   34.1200 O   0  0  0  0  0  0  0  0  0  0  0  0
   16.6780  -57.3210   34.9330 C   0  0  0  0  0  0  0  0  0  0  0  0
   12.3740  -60.4420   41.0800 H   0  0  0  0  0  0  0  0  0  0  0  0
   13.3540  -59.9960   38.8620 H   0  0  0  0  0  0  0  0  0  0  0  0
    9.5300  -59.5070   37.1470 H   0  0  0  0  0  0  0  0  0  0  0  0
    8.5170  -59.9590   39.3940 H   0  0  0  0  0  0  0  0  0  0  0  0
   12.3370  -59.9230   33.3600 H   0  0  0  0  0  0  0  0  0  0  0  0
   15.8620  -58.3130   36.9560 H   0  0  0  0  0  0  0  0  0  0  0  0
   16.3440  -56.5420   38.8740 H   0  0  0  0  0  0  0  0  0  0  0  0
   13.9560  -55.5600   39.5810 H   0  0  0  0  0  0  0  0  0  0  0  0
   12.0960  -56.7380   38.0990 H   0  0  0  0  0  0  0  0  0  0  0  0
   15.5540  -60.1030   33.3400 H   0  0  0  0  0  0  0  0  0  0  0  0
   16.9800  -59.8530   34.3770 H   0  0  0  0  0  0  0  0  0  0  0  0
   16.6660  -59.0360   31.5280 H   0  0  0  0  0  0  0  0  0  0  0  0
   18.1290  -59.5090   32.4330 H   0  0  0  0  0  0  0  0  0  0  0  0
   17.9100  -56.9970   31.7720 H   0  0  0  0  0  0  0  0  0  0  0  0
   17.2000  -57.9310   35.6970 H   0  0  0  0  0  0  0  0  0  0  0  0
   16.1920  -56.4910   35.4680 H   0  0  0  0  0  0  0  0  0  0  0  0
  2  1  1  0  0  0  0
  3  2  1  0  0  0  0
  3 27  1  0  0  0  0
  4  3  2  0  0  0  0
  5  6  2  0  0  0  0
  5  4  1  0  0  0  0
  6  7  1  0  0  0  0
  7 30  1  0  0  0  0
  7  2  2  0  0  0  0
  8  5  1  0  0  0  0
  9  8  1  0  0  0  0
 10 11  1  0  0  0  0
 10  9  2  0  0  0  0
 11 12  2  0  0  0  0
 12  8  1  0  0  0  0
 12 13  1  0  0  0  0
 13 14  1  0  0  0  0
 13 17  1  0  0  0  0
 14 15  2  0  0  0  0
 15 16  1  0  0  0  0
 15 33  1  0  0  0  0
 16 34  1  0  0  0  0
 17 35  1  0  0  0  0
 17 16  2  0  0  0  0
 18 20  1  0  0  0  0
 18 11  1  0  0  0  0
 19 18  2  0  0  0  0
 20 26  1  0  0  0  0
 21 20  1  0  0  0  0
 21 37  1  0  0  0  0
 22 23  1  0  0  0  0
 22 21  1  0  0  0  0
 23 24  1  0  0  0  0
 24 25  2  0  0  0  0
 24 26  1  0  0  0  0
 26 42  1  0  0  0  0
 26 41  1  0  0  0  0
 28  4  1  0  0  0  0
 29  6  1  0  0  0  0
 31 10  1  0  0  0  0
 32 14  1  0  0  0  0
 36 21  1  0  0  0  0
 38 22  1  0  0  0  0
 39 22  1  0  0  0  0
 40 23  1  0  0  0  0
M  END
>  <Pose>
1

>  <Score>
-5.74

$$$$
