
 OpenBabel03232204043D

 47 50  0  0  1  0  0  0  0  0999 V2000
   19.5630  -57.6710   30.8490 B   0  0  0  0  0  0  0  0  0  0  0  0
   18.1690  -57.7840   32.1580 C   0  0  0  0  0  0  0  0  0  0  0  0
   18.2350  -58.6650   33.2030 C   0  0  0  0  0  0  0  0  0  0  0  0
   17.2130  -58.7430   34.1550 C   0  0  0  0  0  0  0  0  0  0  0  0
   16.1090  -57.9430   34.0820 C   0  0  0  0  0  0  0  0  0  0  0  0
   16.0390  -57.0630   33.0410 C   0  0  0  0  0  0  0  0  0  0  0  0
   17.0570  -56.9770   32.0790 C   0  0  0  0  0  0  0  0  0  0  0  0
   15.0630  -58.0180   35.0540 N   0  0  0  0  0  0  0  0  0  0  0  0
   15.1600  -58.0730   36.4730 C   0  0  0  0  0  0  0  0  0  0  0  0
   16.2270  -58.1760   37.1150 O   0  0  0  0  0  0  0  0  0  0  0  0
   13.8330  -57.9940   37.1010 C   0  0  2  0  0  0  0  0  0  0  0  0
   12.9210  -58.4860   35.9820 C   0  0  0  0  0  0  0  0  0  0  0  0
   13.6550  -58.0470   34.7530 C   0  0  0  0  0  0  0  0  0  0  0  0
   13.0440  -57.7780   33.7020 O   0  0  0  0  0  0  0  0  0  0  0  0
   13.4320  -56.6740   37.5300 N   0  0  0  0  0  4  0  0  0  0  0  0
   13.7860  -56.4100   38.9040 C   0  0  0  0  0  0  0  0  0  0  0  0
   15.0680  -55.6260   39.0780 C   0  0  0  0  0  0  0  0  0  0  0  0
   15.1750  -54.5700   38.1040 N   0  0  0  0  0  0  0  0  0  0  0  0
   13.9680  -54.3290   37.3500 C   0  0  0  0  0  0  0  0  0  0  0  0
   13.7300  -55.6510   36.5940 C   0  0  0  0  0  0  0  0  0  0  0  0
   16.3440  -53.8370   37.8720 C   0  0  0  0  0  0  0  0  0  0  0  0
   16.6430  -52.6110   38.4300 C   0  0  0  0  0  0  0  0  0  0  0  0
   17.8070  -51.9140   38.1470 C   0  0  0  0  0  0  0  0  0  0  0  0
   18.7250  -52.4370   37.2760 C   0  0  0  0  0  0  0  0  0  0  0  0
   18.4760  -53.6610   36.6880 C   0  0  0  0  0  0  0  0  0  0  0  0
   17.3060  -54.3370   36.9870 C   0  0  0  0  0  0  0  0  0  0  0  0
   19.9160  -51.7890   36.9480 O   0  0  0  0  0  0  0  0  0  0  0  0
   19.0890  -59.3000   33.2800 H   0  0  0  0  0  0  0  0  0  0  0  0
   17.3540  -59.4550   34.9290 H   0  0  0  0  0  0  0  0  0  0  0  0
   15.2300  -56.3950   32.8810 H   0  0  0  0  0  0  0  0  0  0  0  0
   16.9950  -56.2790   31.2600 H   0  0  0  0  0  0  0  0  0  0  0  0
   13.7010  -58.7380   37.9220 H   0  0  0  0  0  0  0  0  0  0  0  0
   12.7960  -59.5800   36.0170 H   0  0  0  0  0  0  0  0  0  0  0  0
   11.9490  -57.9690   36.0710 H   0  0  0  0  0  0  0  0  0  0  0  0
   12.3580  -56.7360   37.5580 H   0  0  0  0  0  0  0  0  0  0  0  0
   13.9190  -57.3860   39.4180 H   0  0  0  0  0  0  0  0  0  0  0  0
   12.9780  -55.8730   39.4500 H   0  0  0  0  0  0  0  0  0  0  0  0
   14.9940  -55.1280   40.0900 H   0  0  0  0  0  0  0  0  0  0  0  0
   15.8830  -56.3330   39.1250 H   0  0  0  0  0  0  0  0  0  0  0  0
   13.1270  -54.2040   38.0610 H   0  0  0  0  0  0  0  0  0  0  0  0
   13.9820  -53.5000   36.6630 H   0  0  0  0  0  0  0  0  0  0  0  0
   14.6610  -55.9290   36.0420 H   0  0  0  0  0  0  0  0  0  0  0  0
   12.9110  -55.5400   35.8720 H   0  0  0  0  0  0  0  0  0  0  0  0
   15.9140  -52.1810   39.1390 H   0  0  0  0  0  0  0  0  0  0  0  0
   17.9700  -50.9770   38.6150 H   0  0  0  0  0  0  0  0  0  0  0  0
   19.1810  -54.1020   35.9920 H   0  0  0  0  0  0  0  0  0  0  0  0
   17.0850  -55.3040   36.5360 H   0  0  0  0  0  0  0  0  0  0  0  0
  1  2  1  0  0  0  0
  2  3  1  0  0  0  0
  3 28  1  0  0  0  0
  3  4  2  0  0  0  0
  4 29  1  0  0  0  0
  5  4  1  0  0  0  0
  5  8  1  0  0  0  0
  6  5  2  0  0  0  0
  7  2  2  0  0  0  0
  7  6  1  0  0  0  0
  8  9  1  0  0  0  0
  9 11  1  0  0  0  0
  9 10  2  0  0  0  0
 11 15  1  0  0  0  0
 11 32  1  1  0  0  0
 12 33  1  0  0  0  0
 12 34  1  0  0  0  0
 12 11  1  0  0  0  0
 13  8  1  0  0  0  0
 13 12  1  0  0  0  0
 14 13  2  0  0  0  0
 15 35  1  0  0  0  0
 15 16  1  0  0  0  0
 16 17  1  0  0  0  0
 16 36  1  0  0  0  0
 16 37  1  0  0  0  0
 17 39  1  0  0  0  0
 17 38  1  0  0  0  0
 18 17  1  0  0  0  0
 19 40  1  0  0  0  0
 19 18  1  0  0  0  0
 20 19  1  0  0  0  0
 20 15  1  0  0  0  0
 21 18  1  0  0  0  0
 21 22  1  0  0  0  0
 22 44  1  0  0  0  0
 23 22  2  0  0  0  0
 23 45  1  0  0  0  0
 24 23  1  0  0  0  0
 25 26  1  0  0  0  0
 25 24  2  0  0  0  0
 26 21  2  0  0  0  0
 27 24  1  0  0  0  0
 30  6  1  0  0  0  0
 31  7  1  0  0  0  0
 41 19  1  0  0  0  0
 42 20  1  0  0  0  0
 43 20  1  0  0  0  0
 46 25  1  0  0  0  0
 47 26  1  0  0  0  0
M  END
>  <Pose>
1

>  <Score>
-6.28

$$$$
