
 OpenBabel03232204043D

 56 59  0  0  1  0  0  0  0  0999 V2000
   19.7350  -51.5280   36.7520 B   0  0  0  0  0  0  0  0  0  0  0  0
   18.2440  -52.6630   37.1350 C   0  0  0  0  0  0  0  0  0  0  0  0
   18.0770  -53.8830   36.5210 C   0  0  0  0  0  0  0  0  0  0  0  0
   16.9820  -54.7080   36.8070 C   0  0  0  0  0  0  0  0  0  0  0  0
   16.0330  -54.3230   37.7160 C   0  0  0  0  0  0  0  0  0  0  0  0
   16.2100  -53.1000   38.3240 C   0  0  0  0  0  0  0  0  0  0  0  0
   17.2890  -52.2760   38.0490 C   0  0  0  0  0  0  0  0  0  0  0  0
   14.9220  -55.1790   37.9940 N   0  0  0  0  0  0  0  0  0  0  0  0
   13.9680  -55.6790   37.0500 C   0  0  0  0  0  0  0  0  0  0  0  0
   13.6270  -55.1620   35.9580 O   0  0  0  0  0  0  0  0  0  0  0  0
   13.4260  -56.9530   37.5880 C   0  0  2  0  0  0  0  0  0  0  0  0
   13.8570  -57.0300   39.0360 C   0  0  0  0  0  0  0  0  0  0  0  0
   14.5190  -55.7150   39.2480 C   0  0  0  0  0  0  0  0  0  0  0  0
   14.7090  -55.1370   40.3760 O   0  0  0  0  0  0  0  0  0  0  0  0
   13.8680  -58.0280   36.7970 N   0  0  2  0  0  0  0  0  0  0  0  0
   15.2470  -58.2020   36.5750 C   0  0  0  0  0  0  0  0  0  0  0  0
   15.4410  -59.3500   35.5750 C   0  0  0  0  0  0  0  0  0  0  0  0
   14.9220  -58.9750   34.2050 C   0  0  1  0  0  0  0  0  0  0  0  0
   13.6500  -58.2400   34.3420 C   0  0  0  0  0  0  0  0  0  0  0  0
   13.0430  -58.4060   35.7130 C   0  0  0  0  0  0  0  0  0  0  0  0
   15.9520  -58.3350   33.4990 N   0  0  0  0  0  0  0  0  0  0  0  0
   17.0280  -59.1020   33.0270 C   0  0  0  0  0  0  0  0  0  0  0  0
   18.3100  -58.4600   33.5840 C   0  0  0  0  0  0  0  0  0  0  0  0
   18.3990  -57.0930   32.9360 C   0  0  0  0  0  0  0  0  0  0  0  0
   17.1140  -56.6380   32.3290 C   0  0  0  0  0  0  0  0  0  0  0  0
   15.8900  -56.9900   33.1880 C   0  0  0  0  0  0  0  0  0  0  0  0
   14.6380  -60.2840   33.5160 C   0  0  0  0  0  0  0  0  0  0  0  0
   14.8440  -61.3760   34.1250 O   0  0  0  0  0  0  0  0  0  0  0  0
   14.1420  -60.3640   32.1930 N   0  0  0  0  0  0  0  0  0  0  0  0
   18.8240  -54.1760   35.8110 H   0  0  0  0  0  0  0  0  0  0  0  0
   16.9190  -55.6550   36.2820 H   0  0  0  0  0  0  0  0  0  0  0  0
   15.4800  -52.7690   39.0410 H   0  0  0  0  0  0  0  0  0  0  0  0
   17.4080  -51.3090   38.5440 H   0  0  0  0  0  0  0  0  0  0  0  0
   12.3090  -56.8290   37.5960 H   0  0  0  0  0  0  0  0  0  0  0  0
   14.6320  -57.8030   39.2190 H   0  0  0  0  0  0  0  0  0  0  0  0
   13.0040  -57.0850   39.7230 H   0  0  0  0  0  0  0  0  0  0  0  0
   15.6780  -57.2770   36.1160 H   0  0  0  0  0  0  0  0  0  0  0  0
   15.8400  -58.5150   37.4720 H   0  0  0  0  0  0  0  0  0  0  0  0
   14.7570  -60.1570   35.9510 H   0  0  0  0  0  0  0  0  0  0  0  0
   16.4710  -59.7020   35.5800 H   0  0  0  0  0  0  0  0  0  0  0  0
   12.8940  -58.7040   33.6380 H   0  0  0  0  0  0  0  0  0  0  0  0
   13.6790  -57.1840   34.0120 H   0  0  0  0  0  0  0  0  0  0  0  0
   12.0190  -57.9300   35.7490 H   0  0  0  0  0  0  0  0  0  0  0  0
   12.7980  -59.5030   35.8690 H   0  0  0  0  0  0  0  0  0  0  0  0
   16.9710  -60.1330   33.3820 H   0  0  0  0  0  0  0  0  0  0  0  0
   17.0820  -59.0210   31.9210 H   0  0  0  0  0  0  0  0  0  0  0  0
   18.2110  -58.3090   34.6900 H   0  0  0  0  0  0  0  0  0  0  0  0
   19.1710  -59.1050   33.3520 H   0  0  0  0  0  0  0  0  0  0  0  0
   18.8540  -56.3420   33.6150 H   0  0  0  0  0  0  0  0  0  0  0  0
   19.1490  -57.2100   32.1030 H   0  0  0  0  0  0  0  0  0  0  0  0
   17.1370  -55.5150   32.2780 H   0  0  0  0  0  0  0  0  0  0  0  0
   16.9550  -57.0090   31.2850 H   0  0  0  0  0  0  0  0  0  0  0  0
   15.0180  -56.6190   32.6360 H   0  0  0  0  0  0  0  0  0  0  0  0
   15.9690  -56.3630   34.1050 H   0  0  0  0  0  0  0  0  0  0  0  0
   14.7640  -60.6660   31.4340 H   0  0  0  0  0  0  0  0  0  0  0  0
   13.1560  -60.1220   31.9770 H   0  0  0  0  0  0  0  0  0  0  0  0
  1  2  1  0  0  0  0
  2  7  1  0  0  0  0
  3  4  1  0  0  0  0
  3  2  2  0  0  0  0
  4  5  2  0  0  0  0
  5  8  1  0  0  0  0
  5  6  1  0  0  0  0
  6 32  1  0  0  0  0
  7  6  2  0  0  0  0
  7 33  1  0  0  0  0
  8 13  1  0  0  0  0
  9 11  1  0  0  0  0
  9  8  1  0  0  0  0
 10  9  2  0  0  0  0
 11 34  1  6  0  0  0
 11 12  1  0  0  0  0
 12 35  1  0  0  0  0
 12 13  1  0  0  0  0
 12 36  1  0  0  0  0
 13 14  2  0  0  0  0
 15 20  1  6  0  0  0
 15 11  1  0  0  0  0
 16 15  1  0  0  0  0
 16 38  1  0  0  0  0
 17 40  1  0  0  0  0
 17 39  1  0  0  0  0
 17 16  1  0  0  0  0
 18 27  1  6  0  0  0
 18 19  1  0  0  0  0
 18 17  1  0  0  0  0
 19 20  1  0  0  0  0
 20 43  1  0  0  0  0
 20 44  1  0  0  0  0
 21 18  1  0  0  0  0
 22 45  1  0  0  0  0
 22 21  1  0  0  0  0
 22 23  1  0  0  0  0
 23 47  1  0  0  0  0
 24 23  1  0  0  0  0
 24 49  1  0  0  0  0
 25 24  1  0  0  0  0
 25 26  1  0  0  0  0
 26 21  1  0  0  0  0
 26 54  1  0  0  0  0
 27 28  2  0  0  0  0
 29 27  1  0  0  0  0
 30  3  1  0  0  0  0
 31  4  1  0  0  0  0
 37 16  1  0  0  0  0
 41 19  1  0  0  0  0
 42 19  1  0  0  0  0
 46 22  1  0  0  0  0
 48 23  1  0  0  0  0
 50 24  1  0  0  0  0
 51 25  1  0  0  0  0
 52 25  1  0  0  0  0
 53 26  1  0  0  0  0
 55 29  1  0  0  0  0
 56 29  1  0  0  0  0
M  END
>  <Pose>
1

>  <Score>
-6.49

$$$$
