
 OpenBabel03232204043D

 49 52  0  0  0  0  0  0  0  0999 V2000
   20.3570  -54.5890   31.3910 B   0  0  0  0  0  0  0  0  0  0  0  0
   19.4240  -54.4270   33.0560 C   0  0  0  0  0  0  0  0  0  0  0  0
   19.9720  -53.7420   34.1220 C   0  0  0  0  0  0  0  0  0  0  0  0
   19.2890  -53.6270   35.3290 C   0  0  0  0  0  0  0  0  0  0  0  0
   18.0440  -54.1930   35.5080 C   0  0  0  0  0  0  0  0  0  0  0  0
   17.5020  -54.8750   34.4410 C   0  0  0  0  0  0  0  0  0  0  0  0
   18.1770  -54.9900   33.2430 C   0  0  0  0  0  0  0  0  0  0  0  0
   17.3170  -54.0960   36.7270 N   0  0  0  0  0  0  0  0  0  0  0  0
   16.6340  -55.0340   37.4030 C   0  0  0  0  0  0  0  0  0  0  0  0
   16.5450  -56.2230   37.0040 O   0  0  0  0  0  0  0  0  0  0  0  0
   16.0700  -54.5100   38.5550 C   0  0  0  0  0  0  0  0  0  0  0  0
   16.4190  -53.2300   38.5780 C   0  0  0  0  0  0  0  0  0  0  0  0
   15.8720  -52.7220   39.6930 N   0  0  0  0  0  0  0  0  0  0  0  0
   15.2080  -53.6670   40.3340 N   0  0  0  0  0  0  0  0  0  0  0  0
   15.3180  -54.7750   39.6500 N   0  0  0  0  0  0  0  0  0  0  0  0
   14.7560  -56.0660   39.9660 C   0  0  0  0  0  0  0  0  0  0  0  0
   13.7010  -56.4110   38.9410 C   0  0  0  0  0  0  0  0  0  0  0  0
   13.6340  -55.7430   37.8860 O   0  0  0  0  0  0  0  0  0  0  0  0
   12.8120  -57.4700   39.1760 N   0  0  0  0  0  0  0  0  0  0  0  0
   12.5660  -58.5500   38.3050 C   0  0  0  0  0  0  0  0  0  0  0  0
   12.9940  -58.6520   37.0060 C   0  0  0  0  0  0  0  0  0  0  0  0
   12.7040  -59.7320   36.1980 C   0  0  0  0  0  0  0  0  0  0  0  0
   11.9470  -60.7550   36.7310 C   0  0  0  0  0  0  0  0  0  0  0  0
   11.4950  -60.6910   38.0390 C   0  0  0  0  0  0  0  0  0  0  0  0
   11.7940  -59.6100   38.8220 C   0  0  0  0  0  0  0  0  0  0  0  0
   11.6430  -61.8540   35.9330 O   0  0  0  0  0  0  0  0  0  0  0  0
   10.8010  -62.8670   36.4460 C   0  0  0  0  0  0  0  0  0  0  0  0
   13.1530  -59.8070   34.8820 O   0  0  0  0  0  0  0  0  0  0  0  0
   13.2350  -58.5840   34.1390 C   0  0  0  0  0  0  0  0  0  0  0  0
   17.1830  -52.9680   37.4600 C   0  0  0  0  0  0  0  0  0  0  0  0
   17.6890  -51.8360   37.1600 O   0  0  0  0  0  0  0  0  0  0  0  0
   20.9560  -53.2990   33.9730 H   0  0  0  0  0  0  0  0  0  0  0  0
   19.7250  -53.0920   36.1550 H   0  0  0  0  0  0  0  0  0  0  0  0
   16.5200  -55.3180   34.5890 H   0  0  0  0  0  0  0  0  0  0  0  0
   17.7210  -55.5380   32.4140 H   0  0  0  0  0  0  0  0  0  0  0  0
   15.9380  -51.7420   40.0330 H   0  0  0  0  0  0  0  0  0  0  0  0
   14.6700  -53.5720   41.2460 H   0  0  0  0  0  0  0  0  0  0  0  0
   14.2620  -56.0890   40.9650 H   0  0  0  0  0  0  0  0  0  0  0  0
   15.5150  -56.8620   39.9040 H   0  0  0  0  0  0  0  0  0  0  0  0
   12.2780  -57.4520   40.1050 H   0  0  0  0  0  0  0  0  0  0  0  0
   13.5960  -57.8680   36.5670 H   0  0  0  0  0  0  0  0  0  0  0  0
   10.8980  -61.5180   38.4280 H   0  0  0  0  0  0  0  0  0  0  0  0
   11.4270  -59.5720   39.8620 H   0  0  0  0  0  0  0  0  0  0  0  0
    9.8710  -62.3560   36.7910 H   0  0  0  0  0  0  0  0  0  0  0  0
   11.2860  -63.3460   37.3070 H   0  0  0  0  0  0  0  0  0  0  0  0
   10.5570  -63.5840   35.6280 H   0  0  0  0  0  0  0  0  0  0  0  0
   14.0120  -57.9110   34.5970 H   0  0  0  0  0  0  0  0  0  0  0  0
   13.4980  -58.7860   33.0820 H   0  0  0  0  0  0  0  0  0  0  0  0
   12.2620  -58.0510   34.1640 H   0  0  0  0  0  0  0  0  0  0  0  0
  1  2  1  0  0  0  0
  2  7  2  0  0  0  0
  2  3  1  0  0  0  0
  3  4  2  0  0  0  0
  4  5  1  0  0  0  0
  4 33  1  0  0  0  0
  5  8  1  0  0  0  0
  6 34  1  0  0  0  0
  6  5  2  0  0  0  0
  7  6  1  0  0  0  0
  8  9  1  0  0  0  0
  8 30  1  0  0  0  0
  9 11  1  0  0  0  0
 10  9  2  0  0  0  0
 11 12  2  0  0  0  0
 11 15  1  0  0  0  0
 12 13  1  0  0  0  0
 13 36  1  0  0  0  0
 13 14  1  0  0  0  0
 14 37  1  0  0  0  0
 15 16  1  0  0  0  0
 15 14  1  0  0  0  0
 16 38  1  0  0  0  0
 17 19  1  0  0  0  0
 17 16  1  0  0  0  0
 18 17  2  0  0  0  0
 19 40  1  0  0  0  0
 20 25  1  0  0  0  0
 20 19  1  0  0  0  0
 21 20  2  0  0  0  0
 22 23  2  0  0  0  0
 22 21  1  0  0  0  0
 23 24  1  0  0  0  0
 24 42  1  0  0  0  0
 24 25  2  0  0  0  0
 25 43  1  0  0  0  0
 26 27  1  0  0  0  0
 26 23  1  0  0  0  0
 27 44  1  0  0  0  0
 27 45  1  0  0  0  0
 28 22  1  0  0  0  0
 29 49  1  0  0  0  0
 29 47  1  0  0  0  0
 29 28  1  0  0  0  0
 30 12  1  0  0  0  0
 31 30  2  0  0  0  0
 32  3  1  0  0  0  0
 35  7  1  0  0  0  0
 39 16  1  0  0  0  0
 41 21  1  0  0  0  0
 46 27  1  0  0  0  0
 48 29  1  0  0  0  0
M  END
>  <Pose>
1

>  <Score>
-8.57

$$$$
