
 OpenBabel03232204043D

 49 52  0  0  0  0  0  0  0  0999 V2000
   20.2990  -55.9340   28.5350 B   0  0  0  0  0  0  0  0  0  0  0  0
   19.2090  -56.6670   29.9470 C   0  0  0  0  0  0  0  0  0  0  0  0
   19.1130  -56.0420   31.1670 C   0  0  0  0  0  0  0  0  0  0  0  0
   18.3220  -56.5790   32.1950 C   0  0  0  0  0  0  0  0  0  0  0  0
   17.6230  -57.7460   32.0010 C   0  0  0  0  0  0  0  0  0  0  0  0
   17.7350  -58.3530   30.7680 C   0  0  0  0  0  0  0  0  0  0  0  0
   18.5080  -57.8360   29.7560 C   0  0  0  0  0  0  0  0  0  0  0  0
   16.8160  -58.3000   33.0440 N   0  0  0  0  0  0  0  0  0  0  0  0
   15.9070  -57.7150   33.8270 C   0  0  0  0  0  0  0  0  0  0  0  0
   15.5990  -56.4780   33.7650 O   0  0  0  0  0  0  0  0  0  0  0  0
   15.3220  -58.5770   34.7260 C   0  0  0  0  0  0  0  0  0  0  0  0
   15.9120  -59.7620   34.4730 C   0  0  0  0  0  0  0  0  0  0  0  0
   15.3520  -60.6330   35.3470 N   0  0  0  0  0  0  0  0  0  0  0  0
   14.4600  -60.0110   36.0990 N   0  0  0  0  0  0  0  0  0  0  0  0
   14.4380  -58.7490   35.7210 N   0  0  0  0  0  0  0  0  0  0  0  0
   13.5940  -57.7400   36.2930 C   0  0  0  0  0  0  0  0  0  0  0  0
   13.3590  -57.9100   37.7250 C   0  0  0  0  0  0  0  0  0  0  0  0
   14.3000  -58.0650   38.5560 O   0  0  0  0  0  0  0  0  0  0  0  0
   12.0230  -57.9070   38.1860 N   0  0  0  0  0  0  0  0  0  0  0  0
   11.5100  -59.0710   38.8120 C   0  0  0  0  0  0  0  0  0  0  0  0
   11.6440  -59.1430   40.1760 C   0  0  0  0  0  0  0  0  0  0  0  0
   11.1910  -60.2740   40.8670 C   0  0  0  0  0  0  0  0  0  0  0  0
   10.6150  -61.3080   40.1770 C   0  0  0  0  0  0  0  0  0  0  0  0
   10.4730  -61.2500   38.7930 C   0  0  0  0  0  0  0  0  0  0  0  0
   10.9310  -60.1160   38.1390 C   0  0  0  0  0  0  0  0  0  0  0  0
    9.8890  -62.3300   38.1660 O   0  0  0  0  0  0  0  0  0  0  0  0
   10.3650  -63.0140   37.0490 C   0  0  0  0  0  0  0  0  0  0  0  0
   11.3720  -60.2370   42.2290 O   0  0  0  0  0  0  0  0  0  0  0  0
   10.4850  -59.6700   43.1220 C   0  0  0  0  0  0  0  0  0  0  0  0
   16.8220  -59.6060   33.4530 C   0  0  0  0  0  0  0  0  0  0  0  0
   17.5670  -60.4710   32.9330 O   0  0  0  0  0  0  0  0  0  0  0  0
   19.6580  -55.1270   31.3250 H   0  0  0  0  0  0  0  0  0  0  0  0
   18.2660  -56.0710   33.1470 H   0  0  0  0  0  0  0  0  0  0  0  0
   17.1710  -59.2790   30.6400 H   0  0  0  0  0  0  0  0  0  0  0  0
   18.5860  -58.3240   28.7880 H   0  0  0  0  0  0  0  0  0  0  0  0
   15.6090  -61.6460   35.4000 H   0  0  0  0  0  0  0  0  0  0  0  0
   13.9030  -60.4980   36.8510 H   0  0  0  0  0  0  0  0  0  0  0  0
   14.0020  -56.7090   36.1230 H   0  0  0  0  0  0  0  0  0  0  0  0
   12.5830  -57.7090   35.7930 H   0  0  0  0  0  0  0  0  0  0  0  0
   11.4090  -57.0430   38.0630 H   0  0  0  0  0  0  0  0  0  0  0  0
   12.1060  -58.3100   40.7230 H   0  0  0  0  0  0  0  0  0  0  0  0
   10.2720  -62.1700   40.7330 H   0  0  0  0  0  0  0  0  0  0  0  0
   10.8190  -60.0650   37.0620 H   0  0  0  0  0  0  0  0  0  0  0  0
    9.5110  -63.4000   36.4470 H   0  0  0  0  0  0  0  0  0  0  0  0
   10.9370  -63.9430   37.3460 H   0  0  0  0  0  0  0  0  0  0  0  0
   11.0070  -62.4090   36.3810 H   0  0  0  0  0  0  0  0  0  0  0  0
   10.4290  -60.2920   44.0480 H   0  0  0  0  0  0  0  0  0  0  0  0
    9.4770  -59.5500   42.7330 H   0  0  0  0  0  0  0  0  0  0  0  0
   10.9220  -58.6810   43.4530 H   0  0  0  0  0  0  0  0  0  0  0  0
  1  2  1  0  0  0  0
  2  3  1  0  0  0  0
  3 32  1  0  0  0  0
  3  4  2  0  0  0  0
  4 33  1  0  0  0  0
  5  4  1  0  0  0  0
  5  8  1  0  0  0  0
  6  5  2  0  0  0  0
  7  2  2  0  0  0  0
  7  6  1  0  0  0  0
  8 30  1  0  0  0  0
  8  9  1  0  0  0  0
  9 11  1  0  0  0  0
 10  9  2  0  0  0  0
 11 15  1  0  0  0  0
 12 11  2  0  0  0  0
 12 13  1  0  0  0  0
 13 36  1  0  0  0  0
 13 14  1  0  0  0  0
 14 37  1  0  0  0  0
 15 14  1  0  0  0  0
 15 16  1  0  0  0  0
 16 17  1  0  0  0  0
 17 19  1  0  0  0  0
 17 18  2  0  0  0  0
 19 20  1  0  0  0  0
 20 21  1  0  0  0  0
 21 41  1  0  0  0  0
 21 22  2  0  0  0  0
 22 28  1  0  0  0  0
 23 42  1  0  0  0  0
 23 22  1  0  0  0  0
 24 23  2  0  0  0  0
 25 24  1  0  0  0  0
 25 20  2  0  0  0  0
 26 24  1  0  0  0  0
 27 45  1  0  0  0  0
 27 26  1  0  0  0  0
 28 29  1  0  0  0  0
 29 49  1  0  0  0  0
 29 47  1  0  0  0  0
 30 12  1  0  0  0  0
 31 30  2  0  0  0  0
 34  6  1  0  0  0  0
 35  7  1  0  0  0  0
 38 16  1  0  0  0  0
 39 16  1  0  0  0  0
 40 19  1  0  0  0  0
 43 25  1  0  0  0  0
 44 27  1  0  0  0  0
 46 27  1  0  0  0  0
 48 29  1  0  0  0  0
M  END
>  <Pose>
1

>  <Score>
-7.36

$$$$
