
 OpenBabel03232204043D

 50 53  0  0  0  0  0  0  0  0999 V2000
   17.9000  -60.8160   30.4870 B   0  0  0  0  0  0  0  0  0  0  0  0
   16.8910  -60.2060   31.9800 C   0  0  0  0  0  0  0  0  0  0  0  0
   17.0220  -58.9410   32.5120 C   0  0  0  0  0  0  0  0  0  0  0  0
   16.2860  -58.5350   33.5810 C   0  0  0  0  0  0  0  0  0  0  0  0
   15.3670  -59.3820   34.1830 C   0  0  0  0  0  0  0  0  0  0  0  0
   15.2270  -60.6430   33.6630 C   0  0  0  0  0  0  0  0  0  0  0  0
   15.9750  -61.0370   32.5870 C   0  0  0  0  0  0  0  0  0  0  0  0
   14.6130  -58.9200   35.3010 N   0  0  0  0  0  0  0  0  0  0  0  0
   15.1700  -58.3470   36.3990 C   0  0  0  0  0  0  0  0  0  0  0  0
   16.4080  -58.1410   36.5890 O   0  0  0  0  0  0  0  0  0  0  0  0
   14.1750  -58.0120   37.3010 C   0  0  0  0  0  0  0  0  0  0  0  0
   13.0330  -58.3890   36.7310 C   0  0  0  0  0  0  0  0  0  0  0  0
   12.0410  -58.0720   37.5970 N   0  0  0  0  0  0  0  0  0  0  0  0
   12.6060  -57.5120   38.6620 N   0  0  0  0  0  0  0  0  0  0  0  0
   13.9160  -57.4590   38.5170 N   0  0  0  0  0  0  0  0  0  0  0  0
   14.9260  -56.9310   39.4260 C   0  0  0  0  0  0  0  0  0  0  0  0
   14.9930  -55.4320   39.2710 C   0  0  0  0  0  0  0  0  0  0  0  0
   14.9260  -54.8300   40.3720 O   0  0  0  0  0  0  0  0  0  0  0  0
   15.1150  -54.8680   38.0020 N   0  0  0  0  0  0  0  0  0  0  0  0
   16.2660  -54.2650   37.4390 C   0  0  0  0  0  0  0  0  0  0  0  0
   16.6160  -52.9430   37.5790 C   0  0  0  0  0  0  0  0  0  0  0  0
   17.7750  -52.4200   36.9880 C   0  0  0  0  0  0  0  0  0  0  0  0
   18.6160  -53.2090   36.2400 C   0  0  0  0  0  0  0  0  0  0  0  0
   18.2760  -54.5320   36.0950 C   0  0  0  0  0  0  0  0  0  0  0  0
   17.1330  -55.0450   36.6770 C   0  0  0  0  0  0  0  0  0  0  0  0
   19.8110  -52.6220   35.6440 C   0  0  0  0  0  0  0  0  0  0  0  0
   20.5390  -51.8980   36.3690 O   0  0  0  0  0  0  0  0  0  0  0  0
   20.1960  -52.8040   34.3460 O   0  0  0  0  0  0  0  0  0  0  0  0
   20.5350  -54.0210   33.7450 C   0  0  0  0  0  0  0  0  0  0  0  0
   19.3970  -54.3580   32.7710 C   0  0  0  0  0  0  0  0  0  0  0  0
   13.2880  -58.9500   35.5020 C   0  0  0  0  0  0  0  0  0  0  0  0
   12.4520  -59.4120   34.6950 O   0  0  0  0  0  0  0  0  0  0  0  0
   17.7400  -58.2800   32.0410 H   0  0  0  0  0  0  0  0  0  0  0  0
   16.4200  -57.5160   33.9770 H   0  0  0  0  0  0  0  0  0  0  0  0
   14.5190  -61.3290   34.1080 H   0  0  0  0  0  0  0  0  0  0  0  0
   15.8730  -62.0430   32.1610 H   0  0  0  0  0  0  0  0  0  0  0  0
   11.0260  -58.2400   37.4420 H   0  0  0  0  0  0  0  0  0  0  0  0
   12.0840  -57.1690   39.4880 H   0  0  0  0  0  0  0  0  0  0  0  0
   14.7230  -57.2180   40.4740 H   0  0  0  0  0  0  0  0  0  0  0  0
   15.8880  -57.4050   39.1360 H   0  0  0  0  0  0  0  0  0  0  0  0
   14.2340  -54.9020   37.3970 H   0  0  0  0  0  0  0  0  0  0  0  0
   15.9810  -52.3040   38.1550 H   0  0  0  0  0  0  0  0  0  0  0  0
   18.0200  -51.3640   37.1220 H   0  0  0  0  0  0  0  0  0  0  0  0
   18.9500  -55.1500   35.5000 H   0  0  0  0  0  0  0  0  0  0  0  0
   16.8930  -56.1090   36.5390 H   0  0  0  0  0  0  0  0  0  0  0  0
   21.4620  -53.9810   33.1410 H   0  0  0  0  0  0  0  0  0  0  0  0
   20.6380  -54.8640   34.4530 H   0  0  0  0  0  0  0  0  0  0  0  0
   19.4640  -53.6420   31.9010 H   0  0  0  0  0  0  0  0  0  0  0  0
   18.4110  -54.1890   33.2350 H   0  0  0  0  0  0  0  0  0  0  0  0
   19.4450  -55.3910   32.4210 H   0  0  0  0  0  0  0  0  0  0  0  0
  1  2  1  0  0  0  0
  2  3  2  0  0  0  0
  2  7  1  0  0  0  0
  3  4  1  0  0  0  0
  4 34  1  0  0  0  0
  4  5  2  0  0  0  0
  5  8  1  0  0  0  0
  6 35  1  0  0  0  0
  6  5  1  0  0  0  0
  7  6  2  0  0  0  0
  8 31  1  0  0  0  0
  8  9  1  0  0  0  0
  9 10  2  0  0  0  0
  9 11  1  0  0  0  0
 11 15  1  0  0  0  0
 12 11  2  0  0  0  0
 12 13  1  0  0  0  0
 13 14  1  0  0  0  0
 14 38  1  0  0  0  0
 15 14  1  0  0  0  0
 15 16  1  0  0  0  0
 16 39  1  0  0  0  0
 17 16  1  0  0  0  0
 17 18  2  0  0  0  0
 19 17  1  0  0  0  0
 20 21  1  0  0  0  0
 20 19  1  0  0  0  0
 21 42  1  0  0  0  0
 22 43  1  0  0  0  0
 22 21  2  0  0  0  0
 23 22  1  0  0  0  0
 24 23  2  0  0  0  0
 24 25  1  0  0  0  0
 25 20  2  0  0  0  0
 26 23  1  0  0  0  0
 26 27  2  0  0  0  0
 28 26  1  0  0  0  0
 29 28  1  0  0  0  0
 29 47  1  0  0  0  0
 30 49  1  0  0  0  0
 30 29  1  0  0  0  0
 31 12  1  0  0  0  0
 32 31  2  0  0  0  0
 33  3  1  0  0  0  0
 36  7  1  0  0  0  0
 37 13  1  0  0  0  0
 40 16  1  0  0  0  0
 41 19  1  0  0  0  0
 44 24  1  0  0  0  0
 45 25  1  0  0  0  0
 46 29  1  0  0  0  0
 48 30  1  0  0  0  0
 50 30  1  0  0  0  0
M  END
>  <Pose>
1

>  <Score>
-8.16

$$$$
