
 OpenBabel03232204043D

 48 51  0  0  0  0  0  0  0  0999 V2000
   12.2610  -61.0420   35.7710 B   0  0  0  0  0  0  0  0  0  0  0  0
   13.1520  -59.5200   36.5000 C   0  0  0  0  0  0  0  0  0  0  0  0
   13.1010  -59.2130   37.8430 C   0  0  0  0  0  0  0  0  0  0  0  0
   13.7570  -58.1040   38.3570 C   0  0  0  0  0  0  0  0  0  0  0  0
   14.4920  -57.2550   37.5560 C   0  0  0  0  0  0  0  0  0  0  0  0
   14.5440  -57.5600   36.2080 C   0  0  0  0  0  0  0  0  0  0  0  0
   13.8910  -58.6620   35.6960 C   0  0  0  0  0  0  0  0  0  0  0  0
   15.1840  -56.1100   38.0450 N   0  0  0  0  0  0  0  0  0  0  0  0
   16.3580  -55.5870   37.5920 C   0  0  0  0  0  0  0  0  0  0  0  0
   17.0110  -56.0670   36.6350 O   0  0  0  0  0  0  0  0  0  0  0  0
   16.7160  -54.4750   38.3230 C   0  0  0  0  0  0  0  0  0  0  0  0
   15.7620  -54.3140   39.2280 C   0  0  0  0  0  0  0  0  0  0  0  0
   16.0870  -53.2330   39.9600 N   0  0  0  0  0  0  0  0  0  0  0  0
   17.2300  -52.7510   39.4950 N   0  0  0  0  0  0  0  0  0  0  0  0
   17.6460  -53.4930   38.4860 N   0  0  0  0  0  0  0  0  0  0  0  0
   18.8370  -53.3370   37.7030 C   0  0  0  0  0  0  0  0  0  0  0  0
   18.5870  -53.3830   36.2140 C   0  0  0  0  0  0  0  0  0  0  0  0
   17.5150  -52.8690   35.8300 O   0  0  0  0  0  0  0  0  0  0  0  0
   19.4990  -53.9600   35.3320 N   0  0  0  0  0  0  0  0  0  0  0  0
   19.3170  -54.4260   34.0190 C   0  0  0  0  0  0  0  0  0  0  0  0
   18.3260  -55.3680   33.7430 C   0  0  0  0  0  0  0  0  0  0  0  0
   18.1270  -55.8630   32.4820 C   0  0  0  0  0  0  0  0  0  0  0  0
   18.9240  -55.4310   31.4210 C   0  0  0  0  0  0  0  0  0  0  0  0
   19.8900  -54.5030   31.7250 C   0  0  0  0  0  0  0  0  0  0  0  0
   20.0940  -54.0010   32.9900 C   0  0  0  0  0  0  0  0  0  0  0  0
   18.6920  -55.9580   30.1720 O   0  0  0  0  0  0  0  0  0  0  0  0
   19.4090  -55.6950   29.0100 C   0  0  0  0  0  0  0  0  0  0  0  0
   20.8630  -56.0090   29.0970 C   0  0  0  0  0  0  0  0  0  0  0  0
   14.8260  -55.3090   39.0590 C   0  0  0  0  0  0  0  0  0  0  0  0
   13.7680  -55.4800   39.7420 O   0  0  0  0  0  0  0  0  0  0  0  0
   12.5220  -59.8820   38.4770 H   0  0  0  0  0  0  0  0  0  0  0  0
   13.7160  -57.8660   39.4080 H   0  0  0  0  0  0  0  0  0  0  0  0
   15.1220  -56.8890   35.5810 H   0  0  0  0  0  0  0  0  0  0  0  0
   13.9480  -58.8780   34.6410 H   0  0  0  0  0  0  0  0  0  0  0  0
   15.5620  -52.8200   40.7500 H   0  0  0  0  0  0  0  0  0  0  0  0
   17.7260  -51.8960   39.8830 H   0  0  0  0  0  0  0  0  0  0  0  0
   19.3160  -52.3450   37.9230 H   0  0  0  0  0  0  0  0  0  0  0  0
   19.5920  -54.1470   37.8970 H   0  0  0  0  0  0  0  0  0  0  0  0
   20.5030  -54.0680   35.7150 H   0  0  0  0  0  0  0  0  0  0  0  0
   17.7000  -55.7160   34.5440 H   0  0  0  0  0  0  0  0  0  0  0  0
   17.3370  -56.6040   32.2980 H   0  0  0  0  0  0  0  0  0  0  0  0
   20.5310  -54.1410   30.9390 H   0  0  0  0  0  0  0  0  0  0  0  0
   20.8820  -53.2560   33.1630 H   0  0  0  0  0  0  0  0  0  0  0  0
   18.9810  -56.3450   28.1880 H   0  0  0  0  0  0  0  0  0  0  0  0
   19.2890  -54.6420   28.6750 H   0  0  0  0  0  0  0  0  0  0  0  0
   21.2040  -56.8410   28.4490 H   0  0  0  0  0  0  0  0  0  0  0  0
   21.4720  -55.1290   28.7850 H   0  0  0  0  0  0  0  0  0  0  0  0
   21.2140  -56.2450   30.1370 H   0  0  0  0  0  0  0  0  0  0  0  0
  1  2  1  0  0  0  0
  2  3  1  0  0  0  0
  3  4  2  0  0  0  0
  3 31  1  0  0  0  0
  4 32  1  0  0  0  0
  5  8  1  0  0  0  0
  5  4  1  0  0  0  0
  6  5  2  0  0  0  0
  7  6  1  0  0  0  0
  7  2  2  0  0  0  0
  8 29  1  0  0  0  0
  9  8  1  0  0  0  0
  9 11  1  0  0  0  0
 10  9  2  0  0  0  0
 11 15  1  0  0  0  0
 11 12  2  0  0  0  0
 12 13  1  0  0  0  0
 13 35  1  0  0  0  0
 14 36  1  0  0  0  0
 14 13  1  0  0  0  0
 15 14  1  0  0  0  0
 16 38  1  0  0  0  0
 16 37  1  0  0  0  0
 16 15  1  0  0  0  0
 17 16  1  0  0  0  0
 18 17  2  0  0  0  0
 19 39  1  0  0  0  0
 19 17  1  0  0  0  0
 20 19  1  0  0  0  0
 21 20  1  0  0  0  0
 21 40  1  0  0  0  0
 22 21  2  0  0  0  0
 23 24  2  0  0  0  0
 23 22  1  0  0  0  0
 24 25  1  0  0  0  0
 25 43  1  0  0  0  0
 25 20  2  0  0  0  0
 26 23  1  0  0  0  0
 27 28  1  0  0  0  0
 27 26  1  0  0  0  0
 28 48  1  0  0  0  0
 29 12  1  0  0  0  0
 29 30  2  0  0  0  0
 33  6  1  0  0  0  0
 34  7  1  0  0  0  0
 41 22  1  0  0  0  0
 42 24  1  0  0  0  0
 44 27  1  0  0  0  0
 45 27  1  0  0  0  0
 46 28  1  0  0  0  0
 47 28  1  0  0  0  0
M  END
>  <Pose>
1

>  <Score>
-8.31

$$$$
