
 OpenBabel03232204043D

 36 39  0  0  0  0  0  0  0  0999 V2000
   13.4680  -61.0650   34.6700 B   0  0  0  0  0  0  0  0  0  0  0  0
   13.9750  -59.5210   35.6820 C   0  0  0  0  0  0  0  0  0  0  0  0
   15.2630  -59.0290   35.6550 C   0  0  0  0  0  0  0  0  0  0  0  0
   15.6170  -57.9050   36.3970 C   0  0  0  0  0  0  0  0  0  0  0  0
   14.6920  -57.2480   37.1820 C   0  0  0  0  0  0  0  0  0  0  0  0
   13.4080  -57.7520   37.1990 C   0  0  0  0  0  0  0  0  0  0  0  0
   13.0470  -58.8670   36.4660 C   0  0  0  0  0  0  0  0  0  0  0  0
   15.0250  -56.0890   37.9560 N   0  0  0  0  0  0  0  0  0  0  0  0
   15.8920  -55.1160   37.5990 C   0  0  0  0  0  0  0  0  0  0  0  0
   16.5720  -55.0390   36.5260 O   0  0  0  0  0  0  0  0  0  0  0  0
   15.9760  -54.1460   38.5810 C   0  0  0  0  0  0  0  0  0  0  0  0
   15.1400  -54.5520   39.5400 C   0  0  0  0  0  0  0  0  0  0  0  0
   15.2190  -53.6030   40.5040 N   0  0  0  0  0  0  0  0  0  0  0  0
   16.0760  -52.6750   40.1120 N   0  0  0  0  0  0  0  0  0  0  0  0
   16.5630  -52.9860   38.9220 N   0  0  0  0  0  0  0  0  0  0  0  0
   17.5160  -52.2330   38.1620 C   0  0  0  0  0  0  0  0  0  0  0  0
   18.5430  -52.8610   37.4860 C   0  0  0  0  0  0  0  0  0  0  0  0
   19.4810  -52.1590   36.7410 C   0  0  0  0  0  0  0  0  0  0  0  0
   19.4080  -50.7850   36.6560 C   0  0  0  0  0  0  0  0  0  0  0  0
   18.3840  -50.1550   37.3300 C   0  0  0  0  0  0  0  0  0  0  0  0
   17.4480  -50.8590   38.0730 C   0  0  0  0  0  0  0  0  0  0  0  0
   20.3560  -50.0380   35.8990 N   0  0  0  0  0  0  0  0  0  0  0  0
   21.3350  -50.5740   35.3470 O   0  0  0  0  0  0  0  0  0  0  0  0
   20.1940  -48.6950   35.7730 O   0  0  0  0  0  0  0  0  0  0  0  0
   14.5530  -55.7420   39.1660 C   0  0  0  0  0  0  0  0  0  0  0  0
   13.7150  -56.4280   39.8030 O   0  0  0  0  0  0  0  0  0  0  0  0
   15.9840  -59.5540   35.0330 H   0  0  0  0  0  0  0  0  0  0  0  0
   16.6110  -57.5220   36.3780 H   0  0  0  0  0  0  0  0  0  0  0  0
   12.6650  -57.2430   37.8140 H   0  0  0  0  0  0  0  0  0  0  0  0
   12.0240  -59.2550   36.4900 H   0  0  0  0  0  0  0  0  0  0  0  0
   14.6760  -53.6270   41.4060 H   0  0  0  0  0  0  0  0  0  0  0  0
   16.3610  -51.8060   40.6340 H   0  0  0  0  0  0  0  0  0  0  0  0
   18.6180  -53.9340   37.5390 H   0  0  0  0  0  0  0  0  0  0  0  0
   20.2910  -52.6750   36.2100 H   0  0  0  0  0  0  0  0  0  0  0  0
   18.3410  -49.0790   37.2520 H   0  0  0  0  0  0  0  0  0  0  0  0
   16.6500  -50.3550   38.5970 H   0  0  0  0  0  0  0  0  0  0  0  0
  1  2  1  0  0  0  0
  2  7  1  0  0  0  0
  3  2  2  0  0  0  0
  3  4  1  0  0  0  0
  4  5  2  0  0  0  0
  5  6  1  0  0  0  0
  5  8  1  0  0  0  0
  6 29  1  0  0  0  0
  7 30  1  0  0  0  0
  7  6  2  0  0  0  0
  8 25  1  0  0  0  0
  9  8  1  0  0  0  0
  9 11  1  0  0  0  0
 10  9  2  0  0  0  0
 11 15  1  0  0  0  0
 11 12  2  0  0  0  0
 12 13  1  0  0  0  0
 13 31  1  0  0  0  0
 14 13  1  0  0  0  0
 14 32  1  0  0  0  0
 15 14  1  0  0  0  0
 16 15  1  0  0  0  0
 17 33  1  0  0  0  0
 17 16  2  0  0  0  0
 18 17  1  0  0  0  0
 19 18  2  0  0  0  0
 19 20  1  0  0  0  0
 20 21  2  0  0  0  0
 21 16  1  0  0  0  0
 21 36  1  0  0  0  0
 22 19  1  0  0  0  0
 23 22  2  0  0  0  0
 24 22  2  0  0  0  0
 25 12  1  0  0  0  0
 25 26  2  0  0  0  0
 27  3  1  0  0  0  0
 28  4  1  0  0  0  0
 34 18  1  0  0  0  0
 35 20  1  0  0  0  0
M  END
>  <Pose>
1

>  <Score>
-8.19

$$$$
