
 OpenBabel03232204043D

 41 44  0  0  1  0  0  0  0  0999 V2000
   12.7480  -60.9800   34.4400 B   0  0  0  0  0  0  0  0  0  0  0  0
   14.1470  -59.7650   33.9060 C   0  0  0  0  0  0  0  0  0  0  0  0
   13.9270  -58.4130   33.9630 C   0  0  0  0  0  0  0  0  0  0  0  0
   14.9230  -57.5730   33.5820 C   0  0  0  0  0  0  0  0  0  0  0  0
   16.1770  -58.0000   33.1270 C   0  0  0  0  0  0  0  0  0  0  0  0
   16.3710  -59.3540   33.0800 C   0  0  0  0  0  0  0  0  0  0  0  0
   15.3710  -60.2280   33.4630 C   0  0  0  0  0  0  0  0  0  0  0  0
   17.1570  -57.0550   32.7510 N   0  0  0  0  0  0  0  0  0  0  0  0
   17.4450  -56.5370   31.4380 C   0  0  0  0  0  0  0  0  0  0  0  0
   16.6410  -56.4780   30.4660 O   0  0  0  0  0  0  0  0  0  0  0  0
   18.8570  -56.0900   31.4540 C   0  0  1  0  0  0  0  0  0  0  0  0
   19.1280  -54.9270   30.6320 N   0  0  0  0  0  0  0  0  0  0  0  0
   20.1010  -54.2950   31.4660 N   0  0  0  0  0  0  0  0  0  0  0  0
   19.6800  -54.4140   32.8250 C   0  0  0  0  0  0  0  0  0  0  0  0
   18.9180  -55.5020   32.8450 C   0  0  0  0  0  0  0  0  0  0  0  0
   18.0830  -56.4040   33.6290 C   0  0  0  0  0  0  0  0  0  0  0  0
   18.2280  -56.5210   34.8770 O   0  0  0  0  0  0  0  0  0  0  0  0
   20.0080  -53.5480   33.9520 C   0  0  0  0  0  0  0  0  0  0  0  0
   21.0980  -52.9320   34.0160 O   0  0  0  0  0  0  0  0  0  0  0  0
   19.1370  -53.3560   35.0140 O   0  0  0  0  0  0  0  0  0  0  0  0
   19.5070  -53.6700   36.3500 C   0  0  0  0  0  0  0  0  0  0  0  0
   18.2970  -53.5780   37.2330 C   0  0  0  0  0  0  0  0  0  0  0  0
   18.0280  -52.4070   37.9400 C   0  0  0  0  0  0  0  0  0  0  0  0
   16.9340  -52.2790   38.7520 C   0  0  0  0  0  0  0  0  0  0  0  0
   16.0590  -53.3550   38.8790 C   0  0  0  0  0  0  0  0  0  0  0  0
   16.3290  -54.5110   38.1790 C   0  0  0  0  0  0  0  0  0  0  0  0
   17.4480  -54.6290   37.3520 C   0  0  0  0  0  0  0  0  0  0  0  0
   12.9630  -58.0430   34.3140 H   0  0  0  0  0  0  0  0  0  0  0  0
   14.7550  -56.5060   33.6270 H   0  0  0  0  0  0  0  0  0  0  0  0
   17.3150  -59.7630   32.7390 H   0  0  0  0  0  0  0  0  0  0  0  0
   15.5160  -61.2980   33.4280 H   0  0  0  0  0  0  0  0  0  0  0  0
   19.5830  -56.8940   31.3140 H   0  0  0  0  0  0  0  0  0  0  0  0
   18.2660  -54.3200   30.7230 H   0  0  0  0  0  0  0  0  0  0  0  0
   20.9710  -53.8250   31.1480 H   0  0  0  0  0  0  0  0  0  0  0  0
   19.9950  -54.6400   36.4410 H   0  0  0  0  0  0  0  0  0  0  0  0
   20.2090  -52.8880   36.6990 H   0  0  0  0  0  0  0  0  0  0  0  0
   18.6920  -51.5750   37.8490 H   0  0  0  0  0  0  0  0  0  0  0  0
   16.7200  -51.3760   39.3030 H   0  0  0  0  0  0  0  0  0  0  0  0
   15.1800  -53.2890   39.5180 H   0  0  0  0  0  0  0  0  0  0  0  0
   15.6940  -55.3710   38.2360 H   0  0  0  0  0  0  0  0  0  0  0  0
   17.6290  -55.5480   36.8180 H   0  0  0  0  0  0  0  0  0  0  0  0
  2  3  1  0  0  0  0
  2  1  1  0  0  0  0
  3 28  1  0  0  0  0
  4 29  1  0  0  0  0
  4  3  2  0  0  0  0
  5  4  1  0  0  0  0
  6  5  2  0  0  0  0
  6  7  1  0  0  0  0
  7  2  2  0  0  0  0
  8  5  1  0  0  0  0
  8 16  1  0  0  0  0
  9 11  1  0  0  0  0
  9  8  1  0  0  0  0
 10  9  2  0  0  0  0
 11 32  1  6  0  0  0
 11 15  1  0  0  0  0
 12 33  1  0  0  0  0
 12 11  1  0  0  0  0
 12 13  1  0  0  0  0
 13 14  1  0  0  0  0
 14 15  2  0  0  0  0
 14 18  1  0  0  0  0
 15 16  1  0  0  0  0
 16 17  2  0  0  0  0
 18 19  2  0  0  0  0
 18 20  1  0  0  0  0
 20 21  1  0  0  0  0
 21 35  1  0  0  0  0
 21 36  1  0  0  0  0
 21 22  1  0  0  0  0
 22 27  2  0  0  0  0
 22 23  1  0  0  0  0
 23 24  2  0  0  0  0
 24 25  1  0  0  0  0
 24 38  1  0  0  0  0
 25 39  1  0  0  0  0
 26 40  1  0  0  0  0
 26 25  2  0  0  0  0
 27 26  1  0  0  0  0
 30  6  1  0  0  0  0
 31  7  1  0  0  0  0
 34 13  1  0  0  0  0
 37 23  1  0  0  0  0
 41 27  1  0  0  0  0
M  END
>  <Pose>
1

>  <Score>
-7.37

$$$$
