
 OpenBabel03232204043D

 50 53  0  0  0  0  0  0  0  0999 V2000
   24.9980  -54.5870   27.0920 B   0  0  0  0  0  0  0  0  0  0  0  0
   23.3630  -54.8940   28.0390 C   0  0  0  0  0  0  0  0  0  0  0  0
   22.1680  -54.3690   27.5780 C   0  0  0  0  0  0  0  0  0  0  0  0
   20.9920  -54.5960   28.2670 C   0  0  0  0  0  0  0  0  0  0  0  0
   20.9580  -55.3430   29.4280 C   0  0  0  0  0  0  0  0  0  0  0  0
   22.1400  -55.8730   29.9000 C   0  0  0  0  0  0  0  0  0  0  0  0
   23.3050  -55.6370   29.1980 C   0  0  0  0  0  0  0  0  0  0  0  0
   19.7440  -55.5450   30.0930 N   0  0  0  0  0  0  0  0  0  0  0  0
   18.6490  -56.1480   29.4010 C   0  0  0  0  0  0  0  0  0  0  0  0
   18.8350  -56.4800   28.1870 O   0  0  0  0  0  0  0  0  0  0  0  0
   17.4190  -56.3510   30.0720 N   0  0  0  0  0  0  0  0  0  0  0  0
   17.1880  -55.9860   31.4300 C   0  0  0  0  0  0  0  0  0  0  0  0
   16.0790  -56.1810   32.0020 O   0  0  0  0  0  0  0  0  0  0  0  0
   18.2960  -55.3620   32.1750 C   0  0  0  0  0  0  0  0  0  0  0  0
   18.1430  -54.9990   33.4390 C   0  0  0  0  0  0  0  0  0  0  0  0
   19.2300  -54.4000   34.1310 N   0  0  0  0  0  0  0  0  0  0  0  0
   19.1170  -53.5730   35.2360 N   0  0  0  0  0  0  0  0  0  0  0  0
   18.1670  -53.7450   36.2810 C   0  0  0  0  0  0  0  0  0  0  0  0
   17.8680  -52.8300   37.2080 N   0  0  0  0  0  0  0  0  0  0  0  0
   16.9310  -53.3200   38.0360 C   0  0  0  0  0  0  0  0  0  0  0  0
   16.6320  -54.6050   37.6040 C   0  0  0  0  0  0  0  0  0  0  0  0
   17.4070  -54.8100   36.5410 N   0  0  0  0  0  0  0  0  0  0  0  0
   15.7210  -55.3670   38.2350 N   0  0  0  0  0  0  0  0  0  0  0  0
   15.0920  -54.8720   39.3010 C   0  0  0  0  0  0  0  0  0  0  0  0
   14.2250  -55.5580   39.9240 O   0  0  0  0  0  0  0  0  0  0  0  0
   15.3360  -53.6210   39.7770 N   0  0  0  0  0  0  0  0  0  0  0  0
   16.2550  -52.8620   39.1360 C   0  0  0  0  0  0  0  0  0  0  0  0
   16.4830  -51.7150   39.5710 O   0  0  0  0  0  0  0  0  0  0  0  0
   14.6290  -53.1310   40.9320 C   0  0  0  0  0  0  0  0  0  0  0  0
   15.4660  -56.6840   37.7310 C   0  0  0  0  0  0  0  0  0  0  0  0
   18.4110  -51.4780   37.3850 C   0  0  0  0  0  0  0  0  0  0  0  0
   19.5490  -55.1670   31.4550 C   0  0  0  0  0  0  0  0  0  0  0  0
   20.5230  -54.6380   32.0500 O   0  0  0  0  0  0  0  0  0  0  0  0
   22.2190  -53.7880   26.6670 H   0  0  0  0  0  0  0  0  0  0  0  0
   20.0970  -54.1420   27.8310 H   0  0  0  0  0  0  0  0  0  0  0  0
   22.1790  -56.4780   30.8190 H   0  0  0  0  0  0  0  0  0  0  0  0
   24.2100  -56.0680   29.6010 H   0  0  0  0  0  0  0  0  0  0  0  0
   16.6430  -56.7960   29.5290 H   0  0  0  0  0  0  0  0  0  0  0  0
   17.2240  -55.1410   33.9640 H   0  0  0  0  0  0  0  0  0  0  0  0
   20.1880  -54.6230   33.7470 H   0  0  0  0  0  0  0  0  0  0  0  0
   19.8090  -52.7680   35.2640 H   0  0  0  0  0  0  0  0  0  0  0  0
   13.8060  -53.8340   41.1740 H   0  0  0  0  0  0  0  0  0  0  0  0
   14.1400  -52.1530   40.7270 H   0  0  0  0  0  0  0  0  0  0  0  0
   15.3260  -53.0270   41.7830 H   0  0  0  0  0  0  0  0  0  0  0  0
   16.0230  -57.4710   38.2780 H   0  0  0  0  0  0  0  0  0  0  0  0
   14.3720  -56.8660   37.7730 H   0  0  0  0  0  0  0  0  0  0  0  0
   15.7600  -56.7530   36.6630 H   0  0  0  0  0  0  0  0  0  0  0  0
   17.6990  -50.7610   36.8840 H   0  0  0  0  0  0  0  0  0  0  0  0
   18.4600  -51.1930   38.4360 H   0  0  0  0  0  0  0  0  0  0  0  0
   19.3740  -51.3960   36.8450 H   0  0  0  0  0  0  0  0  0  0  0  0
  1  2  1  0  0  0  0
  2  7  1  0  0  0  0
  3  2  2  0  0  0  0
  3  4  1  0  0  0  0
  4  5  2  0  0  0  0
  5  6  1  0  0  0  0
  5  8  1  0  0  0  0
  6 36  1  0  0  0  0
  7 37  1  0  0  0  0
  7  6  2  0  0  0  0
  8 32  1  0  0  0  0
  9 11  1  0  0  0  0
  9  8  1  0  0  0  0
 10  9  2  0  0  0  0
 11 12  1  0  0  0  0
 12 13  2  0  0  0  0
 12 14  1  0  0  0  0
 14 15  2  0  0  0  0
 15 39  1  0  0  0  0
 15 16  1  0  0  0  0
 16 17  1  0  0  0  0
 17 41  1  0  0  0  0
 17 18  1  0  0  0  0
 18 22  2  0  0  0  0
 18 19  1  0  0  0  0
 19 31  1  0  0  0  0
 19 20  1  0  0  0  0
 20 27  1  0  0  0  0
 21 20  2  0  0  0  0
 21 23  1  0  0  0  0
 22 21  1  0  0  0  0
 23 24  1  0  0  0  0
 24 26  1  0  0  0  0
 24 25  2  0  0  0  0
 26 29  1  0  0  0  0
 27 28  2  0  0  0  0
 27 26  1  0  0  0  0
 29 42  1  0  0  0  0
 29 44  1  0  0  0  0
 30 46  1  0  0  0  0
 30 23  1  0  0  0  0
 30 45  1  0  0  0  0
 31 49  1  0  0  0  0
 32 33  2  0  0  0  0
 32 14  1  0  0  0  0
 34  3  1  0  0  0  0
 35  4  1  0  0  0  0
 38 11  1  0  0  0  0
 40 16  1  0  0  0  0
 43 29  1  0  0  0  0
 47 30  1  0  0  0  0
 48 31  1  0  0  0  0
 50 31  1  0  0  0  0
M  END
>  <Pose>
1

>  <Score>
-8.27

$$$$
