
 OpenBabel03232204043D

 44 48  0  0  1  0  0  0  0  0999 V2000
   12.0430  -60.9390   34.4480 B   0  0  0  0  0  0  0  0  0  0  0  0
   12.9440  -59.6130   35.4420 C   0  0  0  0  0  0  0  0  0  0  0  0
   13.9620  -58.8540   34.9050 C   0  0  0  0  0  0  0  0  0  0  0  0
   14.6130  -57.8790   35.6620 C   0  0  0  0  0  0  0  0  0  0  0  0
   14.2400  -57.6620   36.9680 C   0  0  0  0  0  0  0  0  0  0  0  0
   13.2200  -58.4380   37.4700 C   0  0  0  0  0  0  0  0  0  0  0  0
   12.5640  -59.4010   36.7520 C   0  0  0  0  0  0  0  0  0  0  0  0
   14.8390  -56.7010   37.8140 N   0  0  0  0  0  0  0  0  0  0  0  0
   14.4320  -56.6310   39.2030 C   0  0  0  0  0  0  0  0  0  0  0  0
   15.1100  -55.5130   39.9600 C   0  0  0  0  0  0  0  0  0  0  0  0
   15.0620  -54.2710   39.0570 C   0  0  0  0  0  0  0  0  0  0  0  0
   15.9740  -54.5590   37.9810 N   0  0  0  0  0  0  0  0  0  0  0  0
   15.8340  -55.7810   37.3830 C   0  0  0  0  0  0  0  0  0  0  0  0
   16.7550  -55.8870   36.4110 N   0  0  0  0  0  0  0  0  0  0  0  0
   17.4560  -54.7250   36.4160 C   0  0  0  0  0  0  0  0  0  0  0  0
   16.9700  -53.8820   37.4030 C   0  0  0  0  0  0  0  0  0  0  0  0
   17.5290  -52.6340   37.6020 C   0  0  0  0  0  0  0  0  0  0  0  0
   17.0510  -51.8880   38.5210 O   0  0  0  0  0  0  0  0  0  0  0  0
   18.5540  -52.2400   36.8260 N   0  0  0  0  0  0  0  0  0  0  0  0
   19.0060  -53.0770   35.8760 C   0  0  1  0  0  0  0  0  0  0  0  0
   19.9680  -52.6680   35.1720 O   0  0  0  0  0  0  0  0  0  0  0  0
   18.4830  -54.2850   35.6670 N   0  0  0  0  0  0  0  0  0  0  0  0
   18.9980  -55.1670   34.6290 C   0  0  0  0  0  0  0  0  0  0  0  0
   19.1470  -50.9290   37.0270 C   0  0  0  0  0  0  0  0  0  0  0  0
   20.2040  -50.7190   35.9820 C   0  0  1  0  0  0  0  0  0  0  0  0
   20.4670  -51.6200   35.1530 O   0  0  0  0  0  0  0  0  0  0  0  0
   20.9280  -49.5080   35.9020 N   0  0  0  0  0  0  0  0  0  0  0  0
   14.2740  -59.0070   33.8770 H   0  0  0  0  0  0  0  0  0  0  0  0
   15.4040  -57.3060   35.2000 H   0  0  0  0  0  0  0  0  0  0  0  0
   12.8840  -58.3030   38.5100 H   0  0  0  0  0  0  0  0  0  0  0  0
   11.7700  -59.9780   37.2020 H   0  0  0  0  0  0  0  0  0  0  0  0
   13.3270  -56.4050   39.2460 H   0  0  0  0  0  0  0  0  0  0  0  0
   14.5650  -57.6080   39.7230 H   0  0  0  0  0  0  0  0  0  0  0  0
   16.1840  -55.7820   40.1550 H   0  0  0  0  0  0  0  0  0  0  0  0
   14.5690  -55.3010   40.8790 H   0  0  0  0  0  0  0  0  0  0  0  0
   15.2990  -53.3570   39.6020 H   0  0  0  0  0  0  0  0  0  0  0  0
   14.0210  -54.2740   38.6260 H   0  0  0  0  0  0  0  0  0  0  0  0
   18.6690  -56.1930   34.7820 H   0  0  0  0  0  0  0  0  0  0  0  0
   18.7830  -54.7480   33.6320 H   0  0  0  0  0  0  0  0  0  0  0  0
   20.1180  -55.1340   34.7440 H   0  0  0  0  0  0  0  0  0  0  0  0
   19.5830  -50.8530   38.0350 H   0  0  0  0  0  0  0  0  0  0  0  0
   18.3690  -50.1660   36.8840 H   0  0  0  0  0  0  0  0  0  0  0  0
   21.4420  -49.2130   35.0410 H   0  0  0  0  0  0  0  0  0  0  0  0
   20.9800  -48.8480   36.7170 H   0  0  0  0  0  0  0  0  0  0  0  0
  1  2  1  0  0  0  0
  2  7  1  0  0  0  0
  3  2  2  0  0  0  0
  3  4  1  0  0  0  0
  4  5  2  0  0  0  0
  5  6  1  0  0  0  0
  5  8  1  0  0  0  0
  6 30  1  0  0  0  0
  7 31  1  0  0  0  0
  7  6  2  0  0  0  0
  8  9  1  0  0  0  0
  9 32  1  0  0  0  0
  9 33  1  0  0  0  0
  9 10  1  0  0  0  0
 10 34  1  0  0  0  0
 10 35  1  0  0  0  0
 11 36  1  0  0  0  0
 11 10  1  0  0  0  0
 12 11  1  0  0  0  0
 13  8  1  0  0  0  0
 13 12  1  0  0  0  0
 14 15  1  0  0  0  0
 14 13  2  0  0  0  0
 15 16  2  0  0  0  0
 16 17  1  0  0  0  0
 16 12  1  0  0  0  0
 17 18  2  0  0  0  0
 19 24  1  0  0  0  0
 19 17  1  0  0  0  0
 20 21  1  1  0  0  0
 20 19  1  0  0  0  0
 22 20  1  0  0  0  0
 22 15  1  0  0  0  0
 23 40  1  0  0  0  0
 23 38  1  0  0  0  0
 23 22  1  0  0  0  0
 24 41  1  0  0  0  0
 25 27  1  6  0  0  0
 25 24  1  0  0  0  0
 26 21  1  0  0  0  0
 26 25  1  0  0  0  0
 27 44  1  0  0  0  0
 28  3  1  0  0  0  0
 29  4  1  0  0  0  0
 37 11  1  0  0  0  0
 39 23  1  0  0  0  0
 42 24  1  0  0  0  0
 43 27  1  0  0  0  0
M  END
>  <Pose>
1

>  <Score>
-6.74

$$$$
