
 OpenBabel03232204043D

 47 51  0  0  1  0  0  0  0  0999 V2000
    7.6930  -60.1690   40.1680 B   0  0  0  0  0  0  0  0  0  0  0  0
    9.4460  -59.7500   39.4980 C   0  0  0  0  0  0  0  0  0  0  0  0
    9.7780  -59.9340   38.1890 C   0  0  0  0  0  0  0  0  0  0  0  0
   11.0590  -59.6190   37.7420 C   0  0  0  0  0  0  0  0  0  0  0  0
   12.0200  -59.1180   38.5950 C   0  0  0  0  0  0  0  0  0  0  0  0
   11.6490  -58.9450   39.9110 C   0  0  0  0  0  0  0  0  0  0  0  0
   10.3910  -59.2480   40.3780 C   0  0  0  0  0  0  0  0  0  0  0  0
   13.3180  -58.8060   38.1040 N   0  0  0  0  0  0  0  0  0  0  0  0
   14.1610  -59.6090   37.4630 N   0  0  0  0  0  0  0  0  0  0  0  0
   15.2950  -58.9520   37.1550 C   0  0  0  0  0  0  0  0  0  0  0  0
   16.3450  -59.4530   36.5180 C   0  0  0  0  0  0  0  0  0  0  0  0
   15.1910  -57.6560   37.6190 C   0  0  1  0  0  0  0  0  0  0  0  0
   16.0810  -56.6640   37.5290 C   0  0  0  0  0  0  0  0  0  0  0  0
   15.7330  -55.4050   38.0910 N   0  0  0  0  0  4  0  0  0  0  0  0
   16.6690  -54.3220   38.1800 C   0  0  2  0  0  0  0  0  0  0  0  0
   17.7510  -54.6330   39.1650 C   0  0  0  0  0  0  0  0  0  0  0  0
   18.7300  -53.5560   39.1540 N   0  0  1  0  0  0  0  0  0  0  0  0
   19.2790  -53.4710   37.8060 C   0  0  0  0  0  0  0  0  0  0  0  0
   18.2720  -53.1030   36.8410 N   0  0  2  0  0  0  0  0  0  0  0  0
   17.6180  -51.8680   37.2640 C   0  0  0  0  0  0  0  0  0  0  0  0
   17.0380  -51.9940   38.5820 N   0  0  2  0  0  0  0  0  0  0  0  0
   18.0810  -52.3240   39.5250 C   0  0  0  0  0  0  0  0  0  0  0  0
   16.0220  -53.0190   38.5880 C   0  0  0  0  0  0  0  0  0  0  0  0
   17.2660  -54.1320   36.7820 C   0  0  0  0  0  0  0  0  0  0  0  0
   13.9350  -57.6100   38.2050 C   0  0  0  0  0  0  0  0  0  0  0  0
   13.4560  -56.5880   38.7490 O   0  0  0  0  0  0  0  0  0  0  0  0
    9.0430  -60.3240   37.5080 H   0  0  0  0  0  0  0  0  0  0  0  0
   11.3170  -59.7670   36.7040 H   0  0  0  0  0  0  0  0  0  0  0  0
   12.3890  -58.5540   40.5910 H   0  0  0  0  0  0  0  0  0  0  0  0
   10.0910  -59.1140   41.4150 H   0  0  0  0  0  0  0  0  0  0  0  0
   13.9710  -60.6040   37.2310 H   0  0  0  0  0  0  0  0  0  0  0  0
   16.3370  -60.4830   36.1910 H   0  0  0  0  0  0  0  0  0  0  0  0
   17.2260  -58.8840   36.2970 H   0  0  0  0  0  0  0  0  0  0  0  0
   17.0200  -56.8550   37.0410 H   0  0  0  0  0  0  0  0  0  0  0  0
   14.7710  -55.2820   38.4410 H   0  0  0  0  0  0  0  0  0  0  0  0
   18.2020  -55.6030   38.9330 H   0  0  0  0  0  0  0  0  0  0  0  0
   17.2810  -54.6920   40.1730 H   0  0  0  0  0  0  0  0  0  0  0  0
   19.6900  -54.4540   37.5430 H   0  0  0  0  0  0  0  0  0  0  0  0
   20.0600  -52.6740   37.7920 H   0  0  0  0  0  0  0  0  0  0  0  0
   16.8960  -51.5630   36.5000 H   0  0  0  0  0  0  0  0  0  0  0  0
   18.4190  -51.1000   37.3020 H   0  0  0  0  0  0  0  0  0  0  0  0
   17.6450  -52.4880   40.5440 H   0  0  0  0  0  0  0  0  0  0  0  0
   18.8470  -51.5320   39.5580 H   0  0  0  0  0  0  0  0  0  0  0  0
   15.6170  -53.1180   39.6150 H   0  0  0  0  0  0  0  0  0  0  0  0
   15.1950  -52.7310   37.9040 H   0  0  0  0  0  0  0  0  0  0  0  0
   17.7420  -55.1020   36.5290 H   0  0  0  0  0  0  0  0  0  0  0  0
   16.4360  -53.8600   36.1010 H   0  0  0  0  0  0  0  0  0  0  0  0
  2  1  1  0  0  0  0
  2  7  1  0  0  0  0
  3  2  2  0  0  0  0
  4  3  1  0  0  0  0
  4  5  2  0  0  0  0
  5  6  1  0  0  0  0
  6  7  2  0  0  0  0
  6 29  1  0  0  0  0
  7 30  1  0  0  0  0
  8 25  1  0  0  0  0
  8  5  1  0  0  0  0
  9  8  1  0  0  0  0
 10  9  1  0  0  0  0
 10 12  1  0  0  0  0
 11 10  2  0  0  0  0
 12 13  1  6  0  0  0
 12 25  1  0  0  0  0
 13 14  2  0  0  0  0
 14 35  1  0  0  0  0
 15 14  1  6  0  0  0
 15 23  1  0  0  0  0
 15 16  1  0  0  0  0
 16 37  1  0  0  0  0
 17 18  1  6  0  0  0
 17 16  1  0  0  0  0
 17 22  1  0  0  0  0
 19 24  1  1  0  0  0
 19 20  1  0  0  0  0
 19 18  1  0  0  0  0
 20 41  1  0  0  0  0
 21 20  1  6  0  0  0
 21 23  1  0  0  0  0
 21 22  1  0  0  0  0
 22 43  1  0  0  0  0
 22 42  1  0  0  0  0
 23 44  1  0  0  0  0
 24 15  1  0  0  0  0
 25 26  2  0  0  0  0
 27  3  1  0  0  0  0
 28  4  1  0  0  0  0
 31  9  1  0  0  0  0
 32 11  1  0  0  0  0
 33 11  1  0  0  0  0
 34 13  1  0  0  0  0
 36 16  1  0  0  0  0
 38 18  1  0  0  0  0
 39 18  1  0  0  0  0
 40 20  1  0  0  0  0
 45 23  1  0  0  0  0
 46 24  1  0  0  0  0
 47 24  1  0  0  0  0
M  END
>  <Pose>
1

>  <Score>
-5.79

$$$$
