
 OpenBabel03232204043D

 56 59  0  0  1  0  0  0  0  0999 V2000
    7.2210  -59.1870   40.3730 B   0  0  0  0  0  0  0  0  0  0  0  0
    9.0200  -59.3900   39.7950 C   0  0  0  0  0  0  0  0  0  0  0  0
   10.0330  -59.0470   40.6490 C   0  0  0  0  0  0  0  0  0  0  0  0
   11.3380  -59.1920   40.2340 C   0  0  0  0  0  0  0  0  0  0  0  0
   11.6660  -59.6740   38.9830 C   0  0  0  0  0  0  0  0  0  0  0  0
   10.5980  -60.0180   38.1240 C   0  0  0  0  0  0  0  0  0  0  0  0
    9.3160  -59.8730   38.5370 C   0  0  0  0  0  0  0  0  0  0  0  0
   12.8880  -59.8350   38.5370 O   0  0  0  0  0  0  0  0  0  0  0  0
   13.9320  -59.5990   37.7700 C   0  0  0  0  0  0  0  0  0  0  0  0
   14.7160  -58.3700   38.1060 C   0  0  1  0  0  0  0  0  0  0  0  0
   16.0710  -58.7300   38.1320 O   0  0  0  0  0  0  0  0  0  0  0  0
   14.4690  -57.1560   37.2580 C   0  0  0  0  0  0  0  0  0  0  0  0
   15.5470  -56.1920   37.2220 N   0  0  0  0  0  0  0  0  0  0  0  0
   15.7650  -55.2080   38.1250 C   0  0  0  0  0  0  0  0  0  0  0  0
   16.8460  -54.4660   37.7060 C   0  0  0  0  0  0  0  0  0  0  0  0
   17.2380  -55.0270   36.5800 N   0  0  0  0  0  0  0  0  0  0  0  0
   16.4610  -56.1040   36.2430 C   0  0  0  0  0  0  0  0  0  0  0  0
   16.7130  -56.9410   35.0970 N   0  0  0  0  0  0  0  0  0  0  0  0
   18.1500  -57.0780   34.7730 C   0  0  0  0  0  0  0  0  0  0  0  0
   18.4640  -58.1520   33.8120 C   0  0  0  0  0  0  0  0  0  0  0  0
   17.4490  -58.3390   32.8060 N   0  0  0  0  0  0  0  0  0  0  0  0
   16.2730  -58.7540   33.5030 C   0  0  0  0  0  0  0  0  0  0  0  0
   15.7070  -57.6290   34.3690 C   0  0  0  0  0  0  0  0  0  0  0  0
   17.2930  -57.2010   31.9620 C   0  0  0  0  0  0  0  0  0  0  0  0
   17.3420  -53.3910   38.3840 N   0  0  0  0  0  0  0  0  0  0  0  0
   16.7330  -53.0490   39.5210 C   0  0  0  0  0  0  0  0  0  0  0  0
   17.1780  -52.0570   40.1610 O   0  0  0  0  0  0  0  0  0  0  0  0
   15.6800  -53.7530   39.9550 N   0  0  0  0  0  0  0  0  0  0  0  0
   15.1650  -54.8230   39.3040 C   0  0  0  0  0  0  0  0  0  0  0  0
   14.1890  -55.4570   39.7300 O   0  0  0  0  0  0  0  0  0  0  0  0
   18.4930  -52.6590   37.8520 C   0  0  0  0  0  0  0  0  0  0  0  0
    9.8070  -58.6680   41.6460 H   0  0  0  0  0  0  0  0  0  0  0  0
   12.0920  -58.8970   40.9410 H   0  0  0  0  0  0  0  0  0  0  0  0
   10.8430  -60.3940   37.1440 H   0  0  0  0  0  0  0  0  0  0  0  0
    8.5040  -60.1540   37.8520 H   0  0  0  0  0  0  0  0  0  0  0  0
   14.6750  -60.4900   37.7120 H   0  0  0  0  0  0  0  0  0  0  0  0
   13.6510  -59.4550   36.6510 H   0  0  0  0  0  0  0  0  0  0  0  0
   14.4010  -58.0510   39.1520 H   0  0  0  0  0  0  0  0  0  0  0  0
   16.1640  -59.6700   37.7720 H   0  0  0  0  0  0  0  0  0  0  0  0
   13.4700  -56.7200   37.4270 H   0  0  0  0  0  0  0  0  0  0  0  0
   14.3650  -57.5800   36.2050 H   0  0  0  0  0  0  0  0  0  0  0  0
   18.5420  -56.0740   34.4850 H   0  0  0  0  0  0  0  0  0  0  0  0
   18.6750  -57.3170   35.7440 H   0  0  0  0  0  0  0  0  0  0  0  0
   19.4600  -57.9670   33.3890 H   0  0  0  0  0  0  0  0  0  0  0  0
   18.5110  -59.1330   34.3710 H   0  0  0  0  0  0  0  0  0  0  0  0
   15.4840  -59.0520   32.7660 H   0  0  0  0  0  0  0  0  0  0  0  0
   16.4950  -59.6330   34.1070 H   0  0  0  0  0  0  0  0  0  0  0  0
   15.0990  -58.2030   35.1380 H   0  0  0  0  0  0  0  0  0  0  0  0
   15.0910  -57.0480   33.6750 H   0  0  0  0  0  0  0  0  0  0  0  0
   17.7650  -57.4300   30.9640 H   0  0  0  0  0  0  0  0  0  0  0  0
   16.2510  -56.8820   31.7870 H   0  0  0  0  0  0  0  0  0  0  0  0
   17.8400  -56.2890   32.3160 H   0  0  0  0  0  0  0  0  0  0  0  0
   15.2310  -53.4560   40.8460 H   0  0  0  0  0  0  0  0  0  0  0  0
   18.5720  -51.6570   38.2810 H   0  0  0  0  0  0  0  0  0  0  0  0
   18.3020  -52.5210   36.7660 H   0  0  0  0  0  0  0  0  0  0  0  0
   19.4270  -53.2160   38.0310 H   0  0  0  0  0  0  0  0  0  0  0  0
  2  1  1  0  0  0  0
  2  3  1  0  0  0  0
  3 32  1  0  0  0  0
  4  3  2  0  0  0  0
  4 33  1  0  0  0  0
  5  4  1  0  0  0  0
  6  7  1  0  0  0  0
  6  5  2  0  0  0  0
  7  2  2  0  0  0  0
  8  5  1  0  0  0  0
  9 10  1  0  0  0  0
  9  8  1  0  0  0  0
 10 11  1  0  0  0  0
 10 38  1  1  0  0  0
 12 40  1  0  0  0  0
 12 10  1  0  0  0  0
 13 12  1  0  0  0  0
 13 14  1  0  0  0  0
 14 29  1  0  0  0  0
 15 14  2  0  0  0  0
 15 25  1  0  0  0  0
 16 15  1  0  0  0  0
 17 16  2  0  0  0  0
 17 13  1  0  0  0  0
 18 17  1  0  0  0  0
 19 18  1  0  0  0  0
 19 43  1  0  0  0  0
 20 45  1  0  0  0  0
 20 19  1  0  0  0  0
 21 22  1  0  0  0  0
 21 20  1  0  0  0  0
 22 47  1  0  0  0  0
 22 23  1  0  0  0  0
 23 18  1  0  0  0  0
 23 48  1  0  0  0  0
 24 52  1  0  0  0  0
 24 21  1  0  0  0  0
 25 26  1  0  0  0  0
 26 28  1  0  0  0  0
 26 27  2  0  0  0  0
 28 53  1  0  0  0  0
 29 30  2  0  0  0  0
 29 28  1  0  0  0  0
 31 56  1  0  0  0  0
 31 54  1  0  0  0  0
 31 25  1  0  0  0  0
 34  6  1  0  0  0  0
 35  7  1  0  0  0  0
 36  9  1  0  0  0  0
 37  9  1  0  0  0  0
 39 11  1  0  0  0  0
 41 12  1  0  0  0  0
 42 19  1  0  0  0  0
 44 20  1  0  0  0  0
 46 22  1  0  0  0  0
 49 23  1  0  0  0  0
 50 24  1  0  0  0  0
 51 24  1  0  0  0  0
 55 31  1  0  0  0  0
M  END
>  <Pose>
1

>  <Score>
-7.55

$$$$
