
 OpenBabel03232204043D

 39 43  0  0  1  0  0  0  0  0999 V2000
   13.2510  -57.9650   37.8160 B   0  0  0  0  0  0  0  0  0  0  0  0
   14.5620  -56.5940   38.0640 C   0  0  0  0  0  0  0  0  0  0  0  0
   14.3800  -55.6220   39.0310 C   0  0  0  0  0  0  0  0  0  0  0  0
   15.3140  -54.6230   39.2180 C   0  0  0  0  0  0  0  0  0  0  0  0
   16.4680  -54.4990   38.4820 C   0  0  0  0  0  0  0  0  0  0  0  0
   16.6410  -55.4630   37.5260 C   0  0  0  0  0  0  0  0  0  0  0  0
   15.7320  -56.4980   37.2930 C   0  0  0  0  0  0  0  0  0  0  0  0
   15.8780  -57.4210   36.1670 C   0  0  0  0  0  0  0  0  0  0  0  0
   16.3850  -56.9690   34.9400 N   0  0  2  0  0  4  0  0  0  0  0  0
   17.4130  -58.0330   34.6510 C   0  0  0  0  0  0  0  0  0  0  0  0
   18.3140  -57.7140   33.6260 N   0  0  2  0  0  0  0  0  0  0  0  0
   18.9570  -56.4630   33.9880 C   0  0  0  0  0  0  0  0  0  0  0  0
   17.9360  -55.4450   33.9980 N   0  0  2  0  0  0  0  0  0  0  0  0
   17.0060  -55.6510   35.0610 C   0  0  0  0  0  0  0  0  0  0  0  0
   17.1850  -55.3540   32.7400 C   0  0  0  0  0  0  0  0  0  0  0  0
   16.4870  -56.6180   32.5700 N   0  0  2  0  0  0  0  0  0  0  0  0
   15.6220  -56.9180   33.7310 C   0  0  0  0  0  0  0  0  0  0  0  0
   17.5160  -57.6150   32.3990 C   0  0  0  0  0  0  0  0  0  0  0  0
   17.0970  -53.3710   38.9830 O   0  0  0  0  0  0  0  0  0  0  0  0
   16.0690  -52.4930   39.5180 C   0  0  0  0  0  0  0  0  0  0  0  0
   15.2870  -53.5470   40.1580 O   0  0  0  0  0  0  0  0  0  0  0  0
   13.4710  -55.7230   39.5740 H   0  0  0  0  0  0  0  0  0  0  0  0
   17.5810  -55.3930   36.9060 H   0  0  0  0  0  0  0  0  0  0  0  0
   14.8000  -57.7830   35.9110 H   0  0  0  0  0  0  0  0  0  0  0  0
   16.3280  -58.3540   36.5920 H   0  0  0  0  0  0  0  0  0  0  0  0
   16.7440  -58.8870   34.3250 H   0  0  0  0  0  0  0  0  0  0  0  0
   17.9040  -58.3600   35.5600 H   0  0  0  0  0  0  0  0  0  0  0  0
   19.8240  -56.1920   33.3780 H   0  0  0  0  0  0  0  0  0  0  0  0
   19.2610  -56.6040   35.0680 H   0  0  0  0  0  0  0  0  0  0  0  0
   17.4920  -55.4460   35.9930 H   0  0  0  0  0  0  0  0  0  0  0  0
   16.1390  -54.9490   34.8490 H   0  0  0  0  0  0  0  0  0  0  0  0
   16.5540  -54.4770   32.8000 H   0  0  0  0  0  0  0  0  0  0  0  0
   17.9510  -55.3150   31.9420 H   0  0  0  0  0  0  0  0  0  0  0  0
   15.0710  -57.8530   33.4670 H   0  0  0  0  0  0  0  0  0  0  0  0
   14.8950  -56.0610   33.7900 H   0  0  0  0  0  0  0  0  0  0  0  0
   17.1450  -58.6010   32.1690 H   0  0  0  0  0  0  0  0  0  0  0  0
   18.2070  -57.1990   31.6320 H   0  0  0  0  0  0  0  0  0  0  0  0
   15.3550  -52.1500   38.7140 H   0  0  0  0  0  0  0  0  0  0  0  0
   16.4350  -51.7560   40.1960 H   0  0  0  0  0  0  0  0  0  0  0  0
  1  2  1  0  0  0  0
  2  3  1  0  0  0  0
  3  4  2  0  0  0  0
  3 22  1  0  0  0  0
  4 21  1  0  0  0  0
  5 19  1  0  0  0  0
  5  4  1  0  0  0  0
  6  5  2  0  0  0  0
  7  6  1  0  0  0  0
  7  2  2  0  0  0  0
  8 25  1  0  0  0  0
  8  7  1  0  0  0  0
  9 14  1  0  0  0  0
  9  8  1  1  0  0  0
 10  9  1  0  0  0  0
 10 27  1  0  0  0  0
 11 18  1  6  0  0  0
 11 12  1  0  0  0  0
 11 10  1  0  0  0  0
 12 13  1  0  0  0  0
 12 29  1  0  0  0  0
 13 15  1  6  0  0  0
 13 14  1  0  0  0  0
 14 30  1  0  0  0  0
 15 32  1  0  0  0  0
 16 18  1  1  0  0  0
 16 15  1  0  0  0  0
 16 17  1  0  0  0  0
 17 35  1  0  0  0  0
 17  9  1  0  0  0  0
 19 20  1  0  0  0  0
 20 21  1  0  0  0  0
 20 39  1  0  0  0  0
 23  6  1  0  0  0  0
 24  8  1  0  0  0  0
 26 10  1  0  0  0  0
 28 12  1  0  0  0  0
 31 14  1  0  0  0  0
 33 15  1  0  0  0  0
 34 17  1  0  0  0  0
 36 18  1  0  0  0  0
 37 18  1  0  0  0  0
 38 20  1  0  0  0  0
M  END
>  <Pose>
1

>  <Score>
-5.06

$$$$
