
 OpenBabel03232204043D

 41 44  0  0  0  0  0  0  0  0999 V2000
   11.6900  -61.4390   37.1460 B   0  0  0  0  0  0  0  0  0  0  0  0
   11.3810  -60.8110   38.9290 C   0  0  0  0  0  0  0  0  0  0  0  0
   10.6560  -61.5440   39.8350 C   0  0  0  0  0  0  0  0  0  0  0  0
   10.4440  -61.0760   41.1160 C   0  0  0  0  0  0  0  0  0  0  0  0
   10.9710  -59.8550   41.4790 C   0  0  0  0  0  0  0  0  0  0  0  0
   11.7070  -59.1170   40.5530 C   0  0  0  0  0  0  0  0  0  0  0  0
   11.9280  -59.5670   39.2720 C   0  0  0  0  0  0  0  0  0  0  0  0
   12.7370  -58.8150   38.2960 C   0  0  0  0  0  0  0  0  0  0  0  0
   12.7810  -57.4390   38.5290 O   0  0  0  0  0  0  0  0  0  0  0  0
   13.9180  -56.6650   38.3780 C   0  0  0  0  0  0  0  0  0  0  0  0
   14.2350  -55.6750   39.3180 C   0  0  0  0  0  0  0  0  0  0  0  0
   15.3540  -54.8800   39.2170 C   0  0  0  0  0  0  0  0  0  0  0  0
   16.2270  -55.0330   38.1620 C   0  0  0  0  0  0  0  0  0  0  0  0
   15.9310  -56.0030   37.2280 C   0  0  0  0  0  0  0  0  0  0  0  0
   14.7970  -56.8100   37.3280 C   0  0  0  0  0  0  0  0  0  0  0  0
   17.4220  -54.1940   38.0420 C   0  0  0  0  0  0  0  0  0  0  0  0
   17.5860  -53.0570   37.3460 N   0  0  0  0  0  0  0  0  0  0  0  0
   18.8400  -52.6260   37.5180 N   0  0  0  0  0  0  0  0  0  0  0  0
   19.4690  -53.4780   38.3130 N   0  0  0  0  0  0  0  0  0  0  0  0
   18.6060  -54.4290   38.6290 N   0  0  0  0  0  0  0  0  0  0  0  0
   19.4650  -51.4440   36.9620 C   0  0  0  0  0  0  0  0  0  0  0  0
   20.0250  -51.7430   35.6260 C   0  0  0  0  0  0  0  0  0  0  0  0
   20.6630  -50.8690   35.0170 O   0  0  0  0  0  0  0  0  0  0  0  0
   19.8250  -53.0220   35.0640 N   0  0  0  0  0  0  0  0  0  0  0  0
   10.6110  -59.6370   42.7940 O   0  0  0  0  0  0  0  0  0  0  0  0
   10.1170  -60.8300   43.3760 C   0  0  0  0  0  0  0  0  0  0  0  0
    9.7680  -61.5770   42.2310 O   0  0  0  0  0  0  0  0  0  0  0  0
   10.2310  -62.5210   39.5570 H   0  0  0  0  0  0  0  0  0  0  0  0
   12.1050  -58.1740   40.9140 H   0  0  0  0  0  0  0  0  0  0  0  0
   13.7590  -59.2330   38.1770 H   0  0  0  0  0  0  0  0  0  0  0  0
   12.2430  -58.9610   37.3050 H   0  0  0  0  0  0  0  0  0  0  0  0
   13.5230  -55.5820   40.1380 H   0  0  0  0  0  0  0  0  0  0  0  0
   15.5700  -54.1250   39.9600 H   0  0  0  0  0  0  0  0  0  0  0  0
   16.6170  -56.1170   36.4070 H   0  0  0  0  0  0  0  0  0  0  0  0
   14.6140  -57.5650   36.5680 H   0  0  0  0  0  0  0  0  0  0  0  0
   18.7060  -50.6420   36.8740 H   0  0  0  0  0  0  0  0  0  0  0  0
   20.2500  -51.1130   37.6720 H   0  0  0  0  0  0  0  0  0  0  0  0
   19.0550  -53.2260   34.3660 H   0  0  0  0  0  0  0  0  0  0  0  0
   20.4480  -53.8130   35.3320 H   0  0  0  0  0  0  0  0  0  0  0  0
   10.9410  -61.2950   43.9510 H   0  0  0  0  0  0  0  0  0  0  0  0
    9.2620  -60.6060   44.0350 H   0  0  0  0  0  0  0  0  0  0  0  0
  1  2  1  0  0  0  0
  2  7  2  0  0  0  0
  2  3  1  0  0  0  0
  3  4  2  0  0  0  0
  4  5  1  0  0  0  0
  4 27  1  0  0  0  0
  5 25  1  0  0  0  0
  6 29  1  0  0  0  0
  6  5  2  0  0  0  0
  7  6  1  0  0  0  0
  8  9  1  0  0  0  0
  8  7  1  0  0  0  0
 10  9  1  0  0  0  0
 10 11  1  0  0  0  0
 11 32  1  0  0  0  0
 12 11  2  0  0  0  0
 12 33  1  0  0  0  0
 13 12  1  0  0  0  0
 14 15  1  0  0  0  0
 14 13  2  0  0  0  0
 15 10  2  0  0  0  0
 16 13  1  0  0  0  0
 16 20  1  0  0  0  0
 17 18  1  0  0  0  0
 17 16  2  0  0  0  0
 18 19  1  0  0  0  0
 19 20  2  0  0  0  0
 21 18  1  0  0  0  0
 21 37  1  0  0  0  0
 22 21  1  0  0  0  0
 23 22  2  0  0  0  0
 24 39  1  0  0  0  0
 24 22  1  0  0  0  0
 25 26  1  0  0  0  0
 26 40  1  0  0  0  0
 26 41  1  0  0  0  0
 27 26  1  0  0  0  0
 28  3  1  0  0  0  0
 30  8  1  0  0  0  0
 31  8  1  0  0  0  0
 34 14  1  0  0  0  0
 35 15  1  0  0  0  0
 36 21  1  0  0  0  0
 38 24  1  0  0  0  0
M  END
>  <Pose>
1

>  <Score>
-7.02

$$$$
