
 OpenBabel03232204043D

 44 47  0  0  1  0  0  0  0  0999 V2000
   19.9870  -53.6890   33.6950 B   0  0  0  0  0  0  0  0  0  0  0  0
   18.9840  -53.9490   35.2810 C   0  0  0  0  0  0  0  0  0  0  0  0
   19.3100  -53.2550   36.4310 C   0  0  0  0  0  0  0  0  0  0  0  0
   18.6010  -53.4150   37.6230 C   0  0  0  0  0  0  0  0  0  0  0  0
   17.5330  -54.3090   37.6260 C   0  0  0  0  0  0  0  0  0  0  0  0
   17.2260  -54.9900   36.4660 C   0  0  0  0  0  0  0  0  0  0  0  0
   17.9300  -54.8360   35.2740 C   0  0  0  0  0  0  0  0  0  0  0  0
   17.5640  -55.5820   34.0880 C   0  0  0  0  0  0  0  0  0  0  0  0
   17.3360  -55.0100   32.9830 N   0  0  0  0  0  0  0  0  0  0  0  0
   16.9780  -55.5820   31.7790 N   0  0  0  0  0  0  0  0  0  0  0  0
   17.6820  -56.6650   31.2100 C   0  0  1  0  0  0  0  0  0  0  0  0
   18.7920  -56.3600   30.5180 N   0  0  0  0  0  0  0  0  0  0  0  0
   19.5840  -57.3060   29.9430 C   0  0  0  0  0  0  0  0  0  0  0  0
   19.1920  -58.5690   30.1050 N   0  0  0  0  0  0  0  0  0  0  0  0
   18.1050  -58.9370   30.7780 C   0  0  0  0  0  0  0  0  0  0  0  0
   17.3440  -57.9480   31.3350 N   0  0  0  0  0  0  0  0  0  0  0  0
   17.7240  -60.2600   30.9290 O   0  0  0  0  0  0  0  0  0  0  0  0
   17.0450  -60.6820   32.0810 C   0  0  0  0  0  0  0  0  0  0  0  0
   20.7160  -56.9020   29.2320 N   0  0  0  0  0  0  0  0  0  0  0  0
   21.6310  -55.9230   29.7680 C   0  0  0  0  0  0  0  0  0  0  0  0
   22.9530  -55.9500   29.0300 C   0  0  0  0  0  0  0  0  0  0  0  0
   23.3550  -57.1650   28.5830 O   0  0  0  0  0  0  0  0  0  0  0  0
   22.4310  -58.0340   28.0930 C   0  0  0  0  0  0  0  0  0  0  0  0
   21.0260  -57.4590   27.9400 C   0  0  0  0  0  0  0  0  0  0  0  0
   17.0080  -54.2870   38.8980 O   0  0  0  0  0  0  0  0  0  0  0  0
   17.8260  -53.5330   39.7720 C   0  0  0  0  0  0  0  0  0  0  0  0
   18.6990  -52.8720   38.8940 O   0  0  0  0  0  0  0  0  0  0  0  0
   20.1540  -52.5510   36.4220 H   0  0  0  0  0  0  0  0  0  0  0  0
   16.3720  -55.6840   36.5240 H   0  0  0  0  0  0  0  0  0  0  0  0
   17.4800  -56.6500   34.1420 H   0  0  0  0  0  0  0  0  0  0  0  0
   16.1550  -55.1970   31.2680 H   0  0  0  0  0  0  0  0  0  0  0  0
   17.7780  -61.2600   32.7050 H   0  0  0  0  0  0  0  0  0  0  0  0
   16.2260  -61.4090   31.8450 H   0  0  0  0  0  0  0  0  0  0  0  0
   16.5860  -59.8310   32.6250 H   0  0  0  0  0  0  0  0  0  0  0  0
   21.7780  -55.9670   30.8550 H   0  0  0  0  0  0  0  0  0  0  0  0
   21.1800  -54.9050   29.5510 H   0  0  0  0  0  0  0  0  0  0  0  0
   22.9850  -55.2020   28.1860 H   0  0  0  0  0  0  0  0  0  0  0  0
   23.7240  -55.5720   29.7650 H   0  0  0  0  0  0  0  0  0  0  0  0
   22.7650  -58.5590   27.1660 H   0  0  0  0  0  0  0  0  0  0  0  0
   22.3090  -58.8510   28.8660 H   0  0  0  0  0  0  0  0  0  0  0  0
   21.0830  -56.5870   27.2400 H   0  0  0  0  0  0  0  0  0  0  0  0
   20.3620  -58.2450   27.5910 H   0  0  0  0  0  0  0  0  0  0  0  0
   18.3470  -54.1500   40.5320 H   0  0  0  0  0  0  0  0  0  0  0  0
   17.1550  -52.7810   40.2520 H   0  0  0  0  0  0  0  0  0  0  0  0
  1  2  1  0  0  0  0
  2  3  1  0  0  0  0
  3  4  2  0  0  0  0
  4  5  1  0  0  0  0
  4 27  1  0  0  0  0
  5 25  1  0  0  0  0
  6 29  1  0  0  0  0
  6  5  2  0  0  0  0
  7  2  2  0  0  0  0
  7  6  1  0  0  0  0
  8 30  1  0  0  0  0
  8  7  1  0  0  0  0
  9  8  2  0  0  0  0
 10  9  1  0  0  0  0
 11 16  1  0  0  0  0
 11 10  1  1  0  0  0
 12 11  1  0  0  0  0
 13 14  1  0  0  0  0
 13 12  2  0  0  0  0
 14 15  2  0  0  0  0
 15 17  1  0  0  0  0
 15 16  2  0  0  0  0
 17 18  1  0  0  0  0
 18 34  1  0  0  0  0
 18 32  1  0  0  0  0
 19 20  1  0  0  0  0
 19 13  1  0  0  0  0
 20 35  1  0  0  0  0
 21 38  1  0  0  0  0
 21 20  1  0  0  0  0
 22 21  1  0  0  0  0
 23 22  1  0  0  0  0
 23 40  1  0  0  0  0
 24 23  1  0  0  0  0
 24 19  1  0  0  0  0
 25 26  1  0  0  0  0
 26 44  1  0  0  0  0
 26 43  1  0  0  0  0
 27 26  1  0  0  0  0
 28  3  1  0  0  0  0
 31 10  1  0  0  0  0
 33 18  1  0  0  0  0
 36 20  1  0  0  0  0
 37 21  1  0  0  0  0
 39 23  1  0  0  0  0
 41 24  1  0  0  0  0
 42 24  1  0  0  0  0
M  END
>  <Pose>
1

>  <Score>
-6.44

$$$$
