
 OpenBabel03232204043D

 53 57  0  0  1  0  0  0  0  0999 V2000
   20.5210  -50.5270   36.1650 B   0  0  0  0  0  0  0  0  0  0  0  0
   19.2330  -51.7940   36.7500 C   0  0  0  0  0  0  0  0  0  0  0  0
   18.2740  -51.4730   37.6820 C   0  0  0  0  0  0  0  0  0  0  0  0
   17.3470  -52.3720   38.1070 C   0  0  0  0  0  0  0  0  0  0  0  0
   17.3590  -53.6510   37.5950 C   0  0  0  0  0  0  0  0  0  0  0  0
   18.3260  -54.0000   36.6460 C   0  0  0  0  0  0  0  0  0  0  0  0
   19.2720  -53.0870   36.2100 C   0  0  0  0  0  0  0  0  0  0  0  0
   20.2760  -53.3770   35.2550 N   0  0  0  0  0  0  0  0  0  0  0  0
   20.0450  -53.7610   33.9180 C   0  0  0  0  0  0  0  0  0  0  0  0
   20.9200  -53.9790   33.0640 O   0  0  0  0  0  0  0  0  0  0  0  0
   18.6080  -53.9230   33.4780 C   0  0  0  0  0  0  0  0  0  0  0  0
   18.2700  -55.3120   33.2710 N   0  0  0  0  0  0  0  0  0  0  0  0
   17.8640  -55.6580   31.9930 C   0  0  0  0  0  0  0  0  0  0  0  0
   16.9100  -56.7690   31.7780 C   0  0  0  0  0  0  0  0  0  0  0  0
   16.8880  -57.5970   32.9490 N   0  0  0  0  0  0  0  0  0  0  0  0
   16.5980  -56.8830   34.1680 C   0  0  0  0  0  0  0  0  0  0  0  0
   17.7670  -55.9660   34.4160 C   0  0  0  0  0  0  0  0  0  0  0  0
   17.1170  -58.9810   33.0000 C   0  0  1  0  0  0  0  0  0  0  0  0
   18.3520  -59.5440   32.9890 N   0  0  0  0  0  0  0  0  0  0  0  0
   18.5400  -60.8750   33.0410 C   0  0  0  0  0  0  0  0  0  0  0  0
   17.4970  -61.7210   33.1080 N   0  0  0  0  0  0  0  0  0  0  0  0
   16.2330  -61.2510   33.1240 C   0  0  0  0  0  0  0  0  0  0  0  0
   15.0190  -61.8550   33.1850 N   0  0  0  0  0  0  0  0  0  0  0  0
   14.1230  -60.8840   33.1690 N   0  0  0  0  0  0  0  0  0  0  0  0
   14.6970  -59.6810   33.1000 C   0  0  0  0  0  0  0  0  0  0  0  0
   16.0580  -59.8920   33.0710 C   0  0  0  0  0  0  0  0  0  0  0  0
   14.7830  -63.2980   33.2530 C   0  0  0  0  0  0  0  0  0  0  0  0
   16.4140  -54.5400   38.0380 O   0  0  0  0  0  0  0  0  0  0  0  0
   15.7560  -54.4430   39.2780 C   0  0  0  0  0  0  0  0  0  0  0  0
   15.9600  -53.1250   39.9540 C   0  0  0  0  0  0  0  0  0  0  0  0
   16.3630  -52.0920   39.0450 O   0  0  0  0  0  0  0  0  0  0  0  0
   18.2560  -50.4690   38.0890 H   0  0  0  0  0  0  0  0  0  0  0  0
   18.3050  -54.9990   36.2700 H   0  0  0  0  0  0  0  0  0  0  0  0
   21.2930  -53.2980   35.5730 H   0  0  0  0  0  0  0  0  0  0  0  0
   18.0010  -53.5190   34.3090 H   0  0  0  0  0  0  0  0  0  0  0  0
   18.4350  -53.2960   32.5820 H   0  0  0  0  0  0  0  0  0  0  0  0
   17.4270  -54.7430   31.4870 H   0  0  0  0  0  0  0  0  0  0  0  0
   18.7810  -55.8590   31.3590 H   0  0  0  0  0  0  0  0  0  0  0  0
   15.8710  -56.4050   31.5810 H   0  0  0  0  0  0  0  0  0  0  0  0
   17.1860  -57.3240   30.8580 H   0  0  0  0  0  0  0  0  0  0  0  0
   16.4250  -57.5450   35.0190 H   0  0  0  0  0  0  0  0  0  0  0  0
   15.7020  -56.2210   34.0350 H   0  0  0  0  0  0  0  0  0  0  0  0
   18.5870  -56.5170   34.9200 H   0  0  0  0  0  0  0  0  0  0  0  0
   17.4200  -55.1960   35.1410 H   0  0  0  0  0  0  0  0  0  0  0  0
   19.5730  -61.2110   33.0260 H   0  0  0  0  0  0  0  0  0  0  0  0
   14.2610  -58.6920   33.0710 H   0  0  0  0  0  0  0  0  0  0  0  0
   14.0250  -63.5620   34.0140 H   0  0  0  0  0  0  0  0  0  0  0  0
   14.4120  -63.6980   32.2820 H   0  0  0  0  0  0  0  0  0  0  0  0
   15.7590  -63.7940   33.4440 H   0  0  0  0  0  0  0  0  0  0  0  0
   14.6670  -54.6730   39.1250 H   0  0  0  0  0  0  0  0  0  0  0  0
   16.1670  -55.2540   39.9450 H   0  0  0  0  0  0  0  0  0  0  0  0
   16.8100  -53.2250   40.6860 H   0  0  0  0  0  0  0  0  0  0  0  0
   15.0890  -52.8070   40.5410 H   0  0  0  0  0  0  0  0  0  0  0  0
  1  2  1  0  0  0  0
  2  3  1  0  0  0  0
  3 32  1  0  0  0  0
  3  4  2  0  0  0  0
  4 31  1  0  0  0  0
  5 28  1  0  0  0  0
  5  4  1  0  0  0  0
  6  5  2  0  0  0  0
  7  6  1  0  0  0  0
  7  2  2  0  0  0  0
  8 34  1  0  0  0  0
  8  7  1  0  0  0  0
  9  8  1  0  0  0  0
 10  9  2  0  0  0  0
 11  9  1  0  0  0  0
 11 35  1  0  0  0  0
 12 11  1  0  0  0  0
 12 17  1  0  0  0  0
 13 12  1  0  0  0  0
 14 13  1  0  0  0  0
 14 15  1  0  0  0  0
 15 16  1  0  0  0  0
 16 17  1  0  0  0  0
 16 41  1  0  0  0  0
 17 43  1  0  0  0  0
 17 44  1  0  0  0  0
 18 15  1  1  0  0  0
 18 26  1  0  0  0  0
 19 18  1  0  0  0  0
 19 20  2  0  0  0  0
 20 21  1  0  0  0  0
 21 22  1  0  0  0  0
 22 23  1  0  0  0  0
 23 27  1  0  0  0  0
 24 23  1  0  0  0  0
 25 24  2  0  0  0  0
 26 25  1  0  0  0  0
 26 22  2  0  0  0  0
 27 49  1  0  0  0  0
 27 47  1  0  0  0  0
 28 29  1  0  0  0  0
 29 51  1  0  0  0  0
 29 30  1  0  0  0  0
 30 53  1  0  0  0  0
 30 52  1  0  0  0  0
 31 30  1  0  0  0  0
 33  6  1  0  0  0  0
 36 11  1  0  0  0  0
 37 13  1  0  0  0  0
 38 13  1  0  0  0  0
 39 14  1  0  0  0  0
 40 14  1  0  0  0  0
 42 16  1  0  0  0  0
 45 20  1  0  0  0  0
 46 25  1  0  0  0  0
 48 27  1  0  0  0  0
 50 29  1  0  0  0  0
M  END
>  <Pose>
1

>  <Score>
-6.19

$$$$
