
 OpenBabel03232204043D

 44 47  0  0  0  0  0  0  0  0999 V2000
   17.0400  -59.1970   33.3420 B   0  0  0  0  0  0  0  0  0  0  0  0
   15.9200  -58.6500   34.7850 C   0  0  0  0  0  0  0  0  0  0  0  0
   16.2830  -57.5810   35.5870 C   0  0  0  0  0  0  0  0  0  0  0  0
   15.4890  -57.1610   36.6440 C   0  0  0  0  0  0  0  0  0  0  0  0
   14.3190  -57.8680   36.8450 C   0  0  0  0  0  0  0  0  0  0  0  0
   13.9340  -58.9310   36.0650 C   0  0  0  0  0  0  0  0  0  0  0  0
   14.7390  -59.3270   35.0250 C   0  0  0  0  0  0  0  0  0  0  0  0
   13.5240  -57.4530   37.8970 C   0  0  0  0  0  0  0  0  0  0  0  0
   12.4300  -58.0630   38.1380 O   0  0  0  0  0  0  0  0  0  0  0  0
   13.9360  -56.3830   38.6630 C   0  0  0  0  0  0  0  0  0  0  0  0
   15.1120  -55.7170   38.4120 C   0  0  0  0  0  0  0  0  0  0  0  0
   15.8300  -56.1500   37.4050 O   0  0  0  0  0  0  0  0  0  0  0  0
   15.5080  -54.5830   39.2560 C   0  0  0  0  0  0  0  0  0  0  0  0
   14.9140  -54.4340   40.3630 O   0  0  0  0  0  0  0  0  0  0  0  0
   16.5130  -53.6680   38.8820 N   0  0  0  0  0  0  0  0  0  0  0  0
   17.7770  -53.7010   39.5720 C   0  0  0  0  0  0  0  0  0  0  0  0
   18.9550  -53.8530   38.6330 C   0  0  0  0  0  0  0  0  0  0  0  0
   18.6300  -53.2370   37.4010 N   0  0  0  0  0  0  0  0  0  0  0  0
   17.7820  -52.1200   37.5510 C   0  0  0  0  0  0  0  0  0  0  0  0
   16.3770  -52.6770   37.8420 C   0  0  0  0  0  0  0  0  0  0  0  0
   18.4160  -54.0810   36.2950 C   0  0  0  0  0  0  0  0  0  0  0  0
   19.2650  -53.8320   35.1340 C   0  0  0  0  0  0  0  0  0  0  0  0
   20.1750  -52.8500   35.0300 N   0  0  0  0  0  0  0  0  0  0  0  0
   20.7170  -52.9530   33.8700 O   0  0  0  0  0  0  0  0  0  0  0  0
   20.2150  -53.9570   33.1950 N   0  0  0  0  0  0  0  0  0  0  0  0
   19.2790  -54.5490   33.9690 C   0  0  0  0  0  0  0  0  0  0  0  0
   18.4420  -55.7340   33.6170 C   0  0  0  0  0  0  0  0  0  0  0  0
   17.2030  -57.0680   35.3840 H   0  0  0  0  0  0  0  0  0  0  0  0
   13.0050  -59.4370   36.2830 H   0  0  0  0  0  0  0  0  0  0  0  0
   14.4460  -60.1700   34.3970 H   0  0  0  0  0  0  0  0  0  0  0  0
   13.2980  -56.0680   39.4870 H   0  0  0  0  0  0  0  0  0  0  0  0
   17.7890  -54.5030   40.3600 H   0  0  0  0  0  0  0  0  0  0  0  0
   17.9120  -52.7240   40.1250 H   0  0  0  0  0  0  0  0  0  0  0  0
   19.2070  -54.9400   38.5190 H   0  0  0  0  0  0  0  0  0  0  0  0
   19.8640  -53.3710   39.1010 H   0  0  0  0  0  0  0  0  0  0  0  0
   18.0840  -51.5570   38.4570 H   0  0  0  0  0  0  0  0  0  0  0  0
   17.7020  -51.4500   36.6940 H   0  0  0  0  0  0  0  0  0  0  0  0
   15.7030  -51.8630   38.1780 H   0  0  0  0  0  0  0  0  0  0  0  0
   15.9300  -53.0850   36.9150 H   0  0  0  0  0  0  0  0  0  0  0  0
   17.3490  -54.0320   35.9930 H   0  0  0  0  0  0  0  0  0  0  0  0
   18.5730  -55.1480   36.6260 H   0  0  0  0  0  0  0  0  0  0  0  0
   18.1530  -56.3000   34.5430 H   0  0  0  0  0  0  0  0  0  0  0  0
   17.5310  -55.3780   33.1300 H   0  0  0  0  0  0  0  0  0  0  0  0
   19.0300  -56.4510   33.0050 H   0  0  0  0  0  0  0  0  0  0  0  0
  1  2  1  0  0  0  0
  2  7  2  0  0  0  0
  2  3  1  0  0  0  0
  3  4  2  0  0  0  0
  4  5  1  0  0  0  0
  4 12  1  0  0  0  0
  5  8  1  0  0  0  0
  6 29  1  0  0  0  0
  6  5  2  0  0  0  0
  7  6  1  0  0  0  0
  8  9  2  0  0  0  0
  8 10  1  0  0  0  0
 10 31  1  0  0  0  0
 11 10  2  0  0  0  0
 11 13  1  0  0  0  0
 12 11  1  0  0  0  0
 13 14  2  0  0  0  0
 15 13  1  0  0  0  0
 15 16  1  0  0  0  0
 16 33  1  0  0  0  0
 16 32  1  0  0  0  0
 17 35  1  0  0  0  0
 17 16  1  0  0  0  0
 18 19  1  0  0  0  0
 18 17  1  0  0  0  0
 19 20  1  0  0  0  0
 19 36  1  0  0  0  0
 20 38  1  0  0  0  0
 20 15  1  0  0  0  0
 21 41  1  0  0  0  0
 21 18  1  0  0  0  0
 22 21  1  0  0  0  0
 23 22  2  0  0  0  0
 24 23  1  0  0  0  0
 25 24  1  0  0  0  0
 25 26  2  0  0  0  0
 26 22  1  0  0  0  0
 27 26  1  0  0  0  0
 27 42  1  0  0  0  0
 28  3  1  0  0  0  0
 30  7  1  0  0  0  0
 34 17  1  0  0  0  0
 37 19  1  0  0  0  0
 39 20  1  0  0  0  0
 40 21  1  0  0  0  0
 43 27  1  0  0  0  0
 44 27  1  0  0  0  0
M  END
>  <Pose>
1

>  <Score>
-7.90

$$$$
