
 OpenBabel03232204043D

 49 52  0  0  0  0  0  0  0  0999 V2000
   11.5090  -62.5060   33.6450 B   0  0  0  0  0  0  0  0  0  0  0  0
   11.7660  -61.3400   35.1330 C   0  0  0  0  0  0  0  0  0  0  0  0
   12.3900  -60.1250   34.9310 C   0  0  0  0  0  0  0  0  0  0  0  0
   12.6000  -59.2430   35.9750 C   0  0  0  0  0  0  0  0  0  0  0  0
   12.1640  -59.6210   37.2300 C   0  0  0  0  0  0  0  0  0  0  0  0
   11.5420  -60.8370   37.4210 C   0  0  0  0  0  0  0  0  0  0  0  0
   11.3280  -61.7220   36.3830 C   0  0  0  0  0  0  0  0  0  0  0  0
   12.4970  -58.5390   38.1410 C   0  0  0  0  0  0  0  0  0  0  0  0
   12.2350  -58.5570   39.3860 O   0  0  0  0  0  0  0  0  0  0  0  0
   13.1400  -57.5140   37.3970 N   0  0  0  0  0  0  0  0  0  0  0  0
   13.2230  -57.9130   36.0520 C   0  0  0  0  0  0  0  0  0  0  0  0
   13.7230  -57.2810   35.0820 O   0  0  0  0  0  0  0  0  0  0  0  0
   13.6100  -56.2830   37.9930 C   0  0  0  0  0  0  0  0  0  0  0  0
   15.0880  -56.1610   38.0200 C   0  0  0  0  0  0  0  0  0  0  0  0
   15.5370  -55.6930   39.3750 C   0  0  0  0  0  0  0  0  0  0  0  0
   15.6560  -54.2220   39.5040 C   0  0  0  0  0  0  0  0  0  0  0  0
   14.7030  -53.4740   39.8460 O   0  0  0  0  0  0  0  0  0  0  0  0
   16.9090  -53.5640   39.2360 N   0  0  0  0  0  0  0  0  0  0  0  0
   18.1660  -54.2440   39.4530 C   0  0  0  0  0  0  0  0  0  0  0  0
   19.1490  -54.0460   38.3480 C   0  0  0  0  0  0  0  0  0  0  0  0
   18.6760  -53.2070   37.2730 N   0  0  0  0  0  0  0  0  0  0  0  0
   17.7130  -52.1490   37.4260 C   0  0  0  0  0  0  0  0  0  0  0  0
   16.9740  -52.2020   38.7400 C   0  0  0  0  0  0  0  0  0  0  0  0
   19.2030  -53.4430   35.9640 C   0  0  0  0  0  0  0  0  0  0  0  0
   19.9660  -52.5160   35.3240 N   0  0  0  0  0  0  0  0  0  0  0  0
   20.4750  -52.6970   34.1070 C   0  0  0  0  0  0  0  0  0  0  0  0
   20.2190  -53.8890   33.4460 C   0  0  0  0  0  0  0  0  0  0  0  0
   19.4630  -54.8340   34.0540 N   0  0  0  0  0  0  0  0  0  0  0  0
   18.9670  -54.6150   35.2830 C   0  0  0  0  0  0  0  0  0  0  0  0
   12.7470  -59.7930   33.9570 H   0  0  0  0  0  0  0  0  0  0  0  0
   11.2170  -61.0880   38.4250 H   0  0  0  0  0  0  0  0  0  0  0  0
   10.8380  -62.6660   36.5690 H   0  0  0  0  0  0  0  0  0  0  0  0
   13.2100  -56.2370   39.0170 H   0  0  0  0  0  0  0  0  0  0  0  0
   13.1860  -55.4420   37.3660 H   0  0  0  0  0  0  0  0  0  0  0  0
   15.5070  -55.5450   37.2050 H   0  0  0  0  0  0  0  0  0  0  0  0
   15.5700  -57.1740   37.8650 H   0  0  0  0  0  0  0  0  0  0  0  0
   14.8640  -56.0590   40.1860 H   0  0  0  0  0  0  0  0  0  0  0  0
   16.5340  -56.1230   39.6070 H   0  0  0  0  0  0  0  0  0  0  0  0
   17.9930  -55.3120   39.6860 H   0  0  0  0  0  0  0  0  0  0  0  0
   18.5920  -53.8050   40.3990 H   0  0  0  0  0  0  0  0  0  0  0  0
   20.0940  -53.5620   38.7270 H   0  0  0  0  0  0  0  0  0  0  0  0
   19.4800  -55.0250   37.9320 H   0  0  0  0  0  0  0  0  0  0  0  0
   18.2240  -51.1860   37.3530 H   0  0  0  0  0  0  0  0  0  0  0  0
   16.9420  -52.3050   36.6240 H   0  0  0  0  0  0  0  0  0  0  0  0
   15.9710  -51.7360   38.6760 H   0  0  0  0  0  0  0  0  0  0  0  0
   17.5950  -51.6380   39.4960 H   0  0  0  0  0  0  0  0  0  0  0  0
   21.0810  -51.9480   33.6130 H   0  0  0  0  0  0  0  0  0  0  0  0
   20.6110  -54.0680   32.4690 H   0  0  0  0  0  0  0  0  0  0  0  0
   18.3690  -55.3890   35.7370 H   0  0  0  0  0  0  0  0  0  0  0  0
  1  2  1  0  0  0  0
  2  7  1  0  0  0  0
  3  2  2  0  0  0  0
  3  4  1  0  0  0  0
  4 11  1  0  0  0  0
  4  5  2  0  0  0  0
  5  6  1  0  0  0  0
  5  8  1  0  0  0  0
  6 31  1  0  0  0  0
  7 32  1  0  0  0  0
  7  6  2  0  0  0  0
  8  9  2  0  0  0  0
 10 13  1  0  0  0  0
 10  8  1  0  0  0  0
 11 10  1  0  0  0  0
 12 11  2  0  0  0  0
 13 14  1  0  0  0  0
 13 33  1  0  0  0  0
 14 15  1  0  0  0  0
 15 16  1  0  0  0  0
 15 38  1  0  0  0  0
 15 37  1  0  0  0  0
 16 17  2  0  0  0  0
 18 19  1  0  0  0  0
 18 16  1  0  0  0  0
 19 39  1  0  0  0  0
 19 40  1  0  0  0  0
 20 41  1  0  0  0  0
 20 19  1  0  0  0  0
 21 22  1  0  0  0  0
 21 20  1  0  0  0  0
 22 23  1  0  0  0  0
 23 18  1  0  0  0  0
 23 46  1  0  0  0  0
 24 21  1  0  0  0  0
 25 24  1  0  0  0  0
 26 25  2  0  0  0  0
 27 28  2  0  0  0  0
 27 26  1  0  0  0  0
 28 29  1  0  0  0  0
 29 49  1  0  0  0  0
 29 24  2  0  0  0  0
 30  3  1  0  0  0  0
 34 13  1  0  0  0  0
 35 14  1  0  0  0  0
 36 14  1  0  0  0  0
 42 20  1  0  0  0  0
 43 22  1  0  0  0  0
 44 22  1  0  0  0  0
 45 23  1  0  0  0  0
 47 26  1  0  0  0  0
 48 27  1  0  0  0  0
M  END
>  <Pose>
1

>  <Score>
-7.33

$$$$
