
 OpenBabel03232204043D

 45 48  0  0  1  0  0  0  0  0999 V2000
   13.7280  -64.6700   36.5880 B   0  0  0  0  0  0  0  0  0  0  0  0
   13.3490  -62.9760   35.7560 C   0  0  0  0  0  0  0  0  0  0  0  0
   13.7910  -61.7810   36.2460 C   0  0  0  0  0  0  0  0  0  0  0  0
   13.4730  -60.5930   35.6400 C   0  0  0  0  0  0  0  0  0  0  0  0
   12.6940  -60.6500   34.5190 C   0  0  0  0  0  0  0  0  0  0  0  0
   12.2290  -61.8630   33.9940 C   0  0  0  0  0  0  0  0  0  0  0  0
   12.5550  -63.0520   34.6130 C   0  0  0  0  0  0  0  0  0  0  0  0
   12.4110  -59.3560   34.0240 N   0  0  0  0  0  0  0  0  0  0  0  0
   13.0360  -58.4410   34.8680 C   0  0  0  0  0  0  0  0  0  0  0  0
   12.9660  -57.1930   34.7200 O   0  0  0  0  0  0  0  0  0  0  0  0
   13.7810  -59.1850   35.9490 C   0  0  2  0  0  0  0  0  0  0  0  0
   15.1670  -58.7690   35.7990 C   0  0  0  0  0  0  0  0  0  0  0  0
   15.7700  -58.0330   36.7730 C   0  0  0  0  0  0  0  0  0  0  0  0
   17.0420  -57.7930   36.3480 N   0  0  0  0  0  0  0  0  0  0  0  0
   17.2190  -58.3470   35.1760 N   0  0  0  0  0  0  0  0  0  0  0  0
   16.0930  -58.9750   34.7640 C   0  0  0  0  0  0  0  0  0  0  0  0
   15.9530  -59.7240   33.4900 C   0  0  0  0  0  0  0  0  0  0  0  0
   16.3090  -58.8840   32.3260 C   0  0  0  0  0  0  0  0  0  0  0  0
   16.7320  -59.3110   31.2210 O   0  0  0  0  0  0  0  0  0  0  0  0
   16.1650  -57.5210   32.4630 O   0  0  0  0  0  0  0  0  0  0  0  0
   16.7850  -56.5370   31.6800 C   0  0  0  0  0  0  0  0  0  0  0  0
   17.3660  -55.4660   32.5730 C   0  0  0  0  0  0  0  0  0  0  0  0
   15.1100  -57.6440   37.9560 O   0  0  0  0  0  0  0  0  0  0  0  0
   13.7950  -58.0440   38.0930 C   0  0  0  0  0  0  0  0  0  0  0  0
   13.1660  -58.7460   37.1930 C   0  0  0  0  0  0  0  0  0  0  0  0
   11.7670  -59.1140   37.4290 C   0  0  0  0  0  0  0  0  0  0  0  0
   10.6760  -59.4190   37.6010 N   0  0  0  0  0  0  0  0  0  0  0  0
   13.1140  -57.6450   39.3070 N   0  0  0  0  0  0  0  0  0  0  0  0
   11.6040  -59.0350   32.8290 C   0  0  0  0  0  0  0  0  0  0  0  0
   14.3950  -61.7730   37.1210 H   0  0  0  0  0  0  0  0  0  0  0  0
   11.6160  -61.9220   33.1080 H   0  0  0  0  0  0  0  0  0  0  0  0
   12.2040  -63.9960   34.2210 H   0  0  0  0  0  0  0  0  0  0  0  0
   18.1030  -58.3330   34.5890 H   0  0  0  0  0  0  0  0  0  0  0  0
   16.6030  -60.6150   33.4510 H   0  0  0  0  0  0  0  0  0  0  0  0
   14.9110  -60.1180   33.3760 H   0  0  0  0  0  0  0  0  0  0  0  0
   16.0040  -56.0030   31.0490 H   0  0  0  0  0  0  0  0  0  0  0  0
   17.5230  -56.9810   30.9990 H   0  0  0  0  0  0  0  0  0  0  0  0
   17.0210  -55.6670   33.6300 H   0  0  0  0  0  0  0  0  0  0  0  0
   17.0070  -54.4700   32.3210 H   0  0  0  0  0  0  0  0  0  0  0  0
   18.4790  -55.5350   32.6280 H   0  0  0  0  0  0  0  0  0  0  0  0
   13.5320  -57.7270   40.2500 H   0  0  0  0  0  0  0  0  0  0  0  0
   12.1610  -57.2570   39.2170 H   0  0  0  0  0  0  0  0  0  0  0  0
   12.2300  -59.2290   31.9180 H   0  0  0  0  0  0  0  0  0  0  0  0
   10.6730  -59.6360   32.8210 H   0  0  0  0  0  0  0  0  0  0  0  0
   11.3830  -57.9590   32.8400 H   0  0  0  0  0  0  0  0  0  0  0  0
  2  3  1  0  0  0  0
  2  1  1  0  0  0  0
  3 30  1  0  0  0  0
  4 11  1  0  0  0  0
  4  3  2  0  0  0  0
  5  4  1  0  0  0  0
  6  5  2  0  0  0  0
  6  7  1  0  0  0  0
  7  2  2  0  0  0  0
  8  5  1  0  0  0  0
  8  9  1  0  0  0  0
 10  9  2  0  0  0  0
 11  9  1  6  0  0  0
 11 25  1  0  0  0  0
 12 11  1  0  0  0  0
 12 13  1  0  0  0  0
 13 23  1  0  0  0  0
 14 13  2  0  0  0  0
 15 14  1  0  0  0  0
 16 15  1  0  0  0  0
 16 12  2  0  0  0  0
 17 16  1  0  0  0  0
 18 20  1  0  0  0  0
 18 17  1  0  0  0  0
 19 18  2  0  0  0  0
 21 20  1  0  0  0  0
 21 22  1  0  0  0  0
 22 40  1  0  0  0  0
 22 38  1  0  0  0  0
 23 24  1  0  0  0  0
 24 28  1  0  0  0  0
 25 26  1  0  0  0  0
 25 24  2  0  0  0  0
 26 27  3  0  0  0  0
 28 41  1  0  0  0  0
 29 45  1  0  0  0  0
 29  8  1  0  0  0  0
 31  6  1  0  0  0  0
 32  7  1  0  0  0  0
 33 15  1  0  0  0  0
 34 17  1  0  0  0  0
 35 17  1  0  0  0  0
 36 21  1  0  0  0  0
 37 21  1  0  0  0  0
 39 22  1  0  0  0  0
 42 28  1  0  0  0  0
 43 29  1  0  0  0  0
 44 29  1  0  0  0  0
M  END
>  <Pose>
1

>  <Score>
-4.61

$$$$
