
 OpenBabel03232204043D

 36 39  0  0  1  0  0  0  0  0999 V2000
   14.5710  -64.5740   35.5580 B   0  0  0  0  0  0  0  0  0  0  0  0
   14.2180  -62.8690   34.7320 C   0  0  0  0  0  0  0  0  0  0  0  0
   14.9000  -61.7440   35.1140 C   0  0  0  0  0  0  0  0  0  0  0  0
   14.6310  -60.5350   34.5080 C   0  0  0  0  0  0  0  0  0  0  0  0
   13.6720  -60.5130   33.5310 C   0  0  0  0  0  0  0  0  0  0  0  0
   12.9710  -61.6720   33.1400 C   0  0  0  0  0  0  0  0  0  0  0  0
   13.2520  -62.8640   33.7520 C   0  0  0  0  0  0  0  0  0  0  0  0
   13.5080  -59.2000   33.0040 N   0  0  0  0  0  0  0  0  0  0  0  0
   14.3990  -58.3530   33.6730 C   0  0  0  0  0  0  0  0  0  0  0  0
   14.5240  -57.1080   33.4590 O   0  0  0  0  0  0  0  0  0  0  0  0
   15.1710  -59.1640   34.6790 C   0  0  2  0  0  0  0  0  0  0  0  0
   16.5730  -59.0490   34.2920 C   0  0  0  0  0  0  0  0  0  0  0  0
   17.4840  -58.4550   35.1090 C   0  0  0  0  0  0  0  0  0  0  0  0
   18.6840  -58.5110   34.4610 N   0  0  0  0  0  0  0  0  0  0  0  0
   18.5450  -59.1080   33.2960 N   0  0  0  0  0  0  0  0  0  0  0  0
   17.2680  -59.4550   33.1490 C   0  0  0  0  0  0  0  0  0  0  0  0
   16.6020  -60.1550   32.0060 C   0  0  0  0  0  0  0  0  0  0  0  0
   17.1470  -57.9210   36.3580 O   0  0  0  0  0  0  0  0  0  0  0  0
   15.8090  -58.0320   36.7230 C   0  0  0  0  0  0  0  0  0  0  0  0
   14.8890  -58.5910   35.9820 C   0  0  0  0  0  0  0  0  0  0  0  0
   13.5210  -58.6210   36.5290 C   0  0  0  0  0  0  0  0  0  0  0  0
   12.4460  -58.6480   36.9840 N   0  0  0  0  0  0  0  0  0  0  0  0
   15.3990  -57.4950   38.0120 N   0  0  0  0  0  0  0  0  0  0  0  0
   12.5720  -58.7930   31.9450 C   0  0  0  0  0  0  0  0  0  0  0  0
   15.6530  -61.7800   35.8840 H   0  0  0  0  0  0  0  0  0  0  0  0
   12.2140  -61.6500   32.3670 H   0  0  0  0  0  0  0  0  0  0  0  0
   12.7200  -63.7840   33.4660 H   0  0  0  0  0  0  0  0  0  0  0  0
   19.2790  -59.3040   32.5680 H   0  0  0  0  0  0  0  0  0  0  0  0
   17.4080  -60.3480   31.2520 H   0  0  0  0  0  0  0  0  0  0  0  0
   16.2410  -61.1690   32.3040 H   0  0  0  0  0  0  0  0  0  0  0  0
   15.8510  -59.5420   31.5100 H   0  0  0  0  0  0  0  0  0  0  0  0
   15.5900  -58.1170   38.8220 H   0  0  0  0  0  0  0  0  0  0  0  0
   14.9580  -56.5840   38.1260 H   0  0  0  0  0  0  0  0  0  0  0  0
   11.8920  -58.0340   32.3800 H   0  0  0  0  0  0  0  0  0  0  0  0
   13.2040  -58.2640   31.1940 H   0  0  0  0  0  0  0  0  0  0  0  0
   12.0630  -59.6500   31.5060 H   0  0  0  0  0  0  0  0  0  0  0  0
  2  3  1  0  0  0  0
  2  1  1  0  0  0  0
  3 25  1  0  0  0  0
  4 11  1  0  0  0  0
  4  3  2  0  0  0  0
  5  4  1  0  0  0  0
  6  5  2  0  0  0  0
  6  7  1  0  0  0  0
  7  2  2  0  0  0  0
  8  5  1  0  0  0  0
  8  9  1  0  0  0  0
 10  9  2  0  0  0  0
 11  9  1  6  0  0  0
 11 20  1  0  0  0  0
 12 11  1  0  0  0  0
 12 13  1  0  0  0  0
 13 18  1  0  0  0  0
 14 13  2  0  0  0  0
 15 14  1  0  0  0  0
 16 15  1  0  0  0  0
 16 12  2  0  0  0  0
 17 30  1  0  0  0  0
 17 16  1  0  0  0  0
 18 19  1  0  0  0  0
 19 23  1  0  0  0  0
 20 21  1  0  0  0  0
 20 19  2  0  0  0  0
 21 22  3  0  0  0  0
 23 33  1  0  0  0  0
 23 32  1  0  0  0  0
 24 34  1  0  0  0  0
 24  8  1  0  0  0  0
 26  6  1  0  0  0  0
 27  7  1  0  0  0  0
 28 15  1  0  0  0  0
 29 17  1  0  0  0  0
 31 17  1  0  0  0  0
 35 24  1  0  0  0  0
 36 24  1  0  0  0  0
M  END
>  <Pose>
1

>  <Score>
-4.20

$$$$
