
 OpenBabel03232204043D

 41 44  0  0  1  0  0  0  0  0999 V2000
   15.3540  -59.7960   27.0010 B   0  0  0  0  0  0  0  0  0  0  0  0
   16.2050  -59.7940   28.7000 C   0  0  0  0  0  0  0  0  0  0  0  0
   16.9800  -58.7510   29.1480 C   0  0  0  0  0  0  0  0  0  0  0  0
   17.5720  -58.8260   30.4090 C   0  0  0  0  0  0  0  0  0  0  0  0
   17.4240  -59.8890   31.2350 C   0  0  0  0  0  0  0  0  0  0  0  0
   16.6350  -60.9490   30.7790 C   0  0  0  0  0  0  0  0  0  0  0  0
   16.0440  -60.8920   29.5370 C   0  0  0  0  0  0  0  0  0  0  0  0
   18.1230  -59.7190   32.4540 N   0  0  0  0  0  0  0  0  0  0  0  0
   18.7620  -58.4650   32.4050 C   0  0  0  0  0  0  0  0  0  0  0  0
   19.4810  -57.9610   33.3110 O   0  0  0  0  0  0  0  0  0  0  0  0
   18.4460  -57.8230   31.0980 C   0  0  1  0  0  0  0  0  0  0  0  0
   19.6870  -57.6170   30.3090 C   0  0  0  0  0  0  0  0  0  0  0  0
   20.0120  -56.4770   29.8160 C   0  0  0  0  0  0  0  0  0  0  0  0
   19.1960  -55.2850   29.9850 N   0  0  0  0  0  0  0  0  0  0  0  0
   18.0120  -55.4680   30.7340 C   0  0  0  0  0  0  0  0  0  0  0  0
   17.6620  -56.6170   31.2440 C   0  0  0  0  0  0  0  0  0  0  0  0
   16.4120  -56.6520   31.9930 C   0  0  0  0  0  0  0  0  0  0  0  0
   15.4170  -56.7020   32.5840 N   0  0  0  0  0  0  0  0  0  0  0  0
   17.1550  -54.3100   30.9350 N   0  0  0  0  0  0  0  0  0  0  0  0
   21.3100  -56.6220   29.0870 C   0  0  0  0  0  0  0  0  0  0  0  0
   21.6630  -57.9480   29.2280 O   0  0  0  0  0  0  0  0  0  0  0  0
   20.7350  -58.6290   29.9550 C   0  0  0  0  0  0  0  0  0  0  0  0
   20.7010  -59.8490   30.2990 O   0  0  0  0  0  0  0  0  0  0  0  0
   22.3340  -55.6590   29.6560 C   0  0  0  0  0  0  0  0  0  0  0  0
   21.1280  -56.3380   27.6070 C   0  0  0  0  0  0  0  0  0  0  0  0
   18.1960  -60.6550   33.5860 C   0  0  0  0  0  0  0  0  0  0  0  0
   17.1070  -57.8990   28.5020 H   0  0  0  0  0  0  0  0  0  0  0  0
   16.5190  -61.7990   31.4430 H   0  0  0  0  0  0  0  0  0  0  0  0
   15.4400  -61.7370   29.2230 H   0  0  0  0  0  0  0  0  0  0  0  0
   19.5050  -54.3920   29.5660 H   0  0  0  0  0  0  0  0  0  0  0  0
   17.5260  -53.3910   30.6180 H   0  0  0  0  0  0  0  0  0  0  0  0
   16.2280  -54.3960   31.3730 H   0  0  0  0  0  0  0  0  0  0  0  0
   23.0340  -56.1670   30.3660 H   0  0  0  0  0  0  0  0  0  0  0  0
   22.8750  -55.1820   28.8180 H   0  0  0  0  0  0  0  0  0  0  0  0
   21.7780  -54.8770   30.1960 H   0  0  0  0  0  0  0  0  0  0  0  0
   20.8090  -57.2670   27.0960 H   0  0  0  0  0  0  0  0  0  0  0  0
   22.0670  -55.9600   27.1640 H   0  0  0  0  0  0  0  0  0  0  0  0
   20.3540  -55.5640   27.4350 H   0  0  0  0  0  0  0  0  0  0  0  0
   17.6650  -60.1840   34.4570 H   0  0  0  0  0  0  0  0  0  0  0  0
   17.6330  -61.5830   33.3450 H   0  0  0  0  0  0  0  0  0  0  0  0
   19.2260  -60.8920   33.8550 H   0  0  0  0  0  0  0  0  0  0  0  0
  1  2  1  0  0  0  0
  2  3  2  0  0  0  0
  2  7  1  0  0  0  0
  3  4  1  0  0  0  0
  4 11  1  0  0  0  0
  4  5  2  0  0  0  0
  5  8  1  0  0  0  0
  6  5  1  0  0  0  0
  6 28  1  0  0  0  0
  7  6  2  0  0  0  0
  8 26  1  0  0  0  0
  9  8  1  0  0  0  0
  9 10  2  0  0  0  0
 11 12  1  6  0  0  0
 11 16  1  0  0  0  0
 11  9  1  0  0  0  0
 13 14  1  0  0  0  0
 13 12  2  0  0  0  0
 14 15  1  0  0  0  0
 15 19  1  0  0  0  0
 15 16  2  0  0  0  0
 16 17  1  0  0  0  0
 17 18  3  0  0  0  0
 19 32  1  0  0  0  0
 20 21  1  0  0  0  0
 20 24  1  0  0  0  0
 20 13  1  0  0  0  0
 21 22  1  0  0  0  0
 22 23  2  0  0  0  0
 22 12  1  0  0  0  0
 24 35  1  0  0  0  0
 24 33  1  0  0  0  0
 25 20  1  0  0  0  0
 26 41  1  0  0  0  0
 26 39  1  0  0  0  0
 27  3  1  0  0  0  0
 29  7  1  0  0  0  0
 30 14  1  0  0  0  0
 31 19  1  0  0  0  0
 34 24  1  0  0  0  0
 36 25  1  0  0  0  0
 37 25  1  0  0  0  0
 38 25  1  0  0  0  0
 40 26  1  0  0  0  0
M  END
>  <Pose>
1

>  <Score>
-4.47

$$$$
