
 OpenBabel03232204043D

 46 49  0  0  0  0  0  0  0  0999 V2000
   17.3690  -58.8160   33.3070 B   0  0  0  0  0  0  0  0  0  0  0  0
   15.6120  -59.3950   33.8020 C   0  0  0  0  0  0  0  0  0  0  0  0
   14.9990  -58.8960   34.9510 C   0  0  0  0  0  0  0  0  0  0  0  0
   13.7390  -59.2780   35.3590 C   0  0  0  0  0  0  0  0  0  0  0  0
   13.0830  -60.1950   34.5730 C   0  0  0  0  0  0  0  0  0  0  0  0
   13.6690  -60.7180   33.4110 C   0  0  0  0  0  0  0  0  0  0  0  0
   14.9240  -60.3080   33.0440 C   0  0  0  0  0  0  0  0  0  0  0  0
   11.8200  -60.4450   35.1730 N   0  0  0  0  0  0  0  0  0  0  0  0
   11.6720  -59.6780   36.3530 C   0  0  0  0  0  0  0  0  0  0  0  0
   10.6990  -59.6330   37.1430 O   0  0  0  0  0  0  0  0  0  0  0  0
   12.9120  -58.8990   36.5090 C   0  0  0  0  0  0  0  0  0  0  0  0
   13.1780  -58.0570   37.4840 C   0  0  0  0  0  0  0  0  0  0  0  0
   14.3630  -57.3220   37.6170 N   0  0  0  0  0  0  0  0  0  0  0  0
   15.0330  -57.1330   38.8120 N   0  0  0  0  0  0  0  0  0  0  0  0
   15.0550  -55.9000   39.5180 C   0  0  0  0  0  0  0  0  0  0  0  0
   13.9750  -55.3010   39.6460 O   0  0  0  0  0  0  0  0  0  0  0  0
   16.2860  -55.3170   40.0950 C   0  0  0  0  0  0  0  0  0  0  0  0
   16.6060  -54.0880   39.5360 N   0  0  0  0  0  0  0  0  0  0  0  0
   17.5410  -53.7200   38.6610 C   0  0  0  0  0  0  0  0  0  0  0  0
   17.4710  -52.3460   38.4800 C   0  0  0  0  0  0  0  0  0  0  0  0
   16.4710  -51.9030   39.2670 N   0  0  0  0  0  0  0  0  0  0  0  0
   15.9560  -52.9360   39.8940 C   0  0  0  0  0  0  0  0  0  0  0  0
   18.3370  -51.7190   37.6070 C   0  0  0  0  0  0  0  0  0  0  0  0
   18.2510  -50.4710   37.4660 O   0  0  0  0  0  0  0  0  0  0  0  0
   19.2150  -52.4760   36.9670 N   0  0  0  0  0  0  0  0  0  0  0  0
   19.2720  -53.8080   37.1480 C   0  0  0  0  0  0  0  0  0  0  0  0
   20.1180  -54.4880   36.5210 O   0  0  0  0  0  0  0  0  0  0  0  0
   18.4410  -54.4750   37.9980 N   0  0  0  0  0  0  0  0  0  0  0  0
   18.5030  -55.9010   38.1410 C   0  0  0  0  0  0  0  0  0  0  0  0
   20.1630  -51.8580   36.0260 C   0  0  0  0  0  0  0  0  0  0  0  0
   15.5320  -58.1730   35.5460 H   0  0  0  0  0  0  0  0  0  0  0  0
   13.1230  -61.4330   32.8210 H   0  0  0  0  0  0  0  0  0  0  0  0
   15.3670  -60.7280   32.1310 H   0  0  0  0  0  0  0  0  0  0  0  0
   11.0900  -61.1000   34.8050 H   0  0  0  0  0  0  0  0  0  0  0  0
   12.4240  -57.9150   38.2450 H   0  0  0  0  0  0  0  0  0  0  0  0
   14.7480  -56.8970   36.7300 H   0  0  0  0  0  0  0  0  0  0  0  0
   15.5600  -57.9290   39.2330 H   0  0  0  0  0  0  0  0  0  0  0  0
   16.2140  -55.4330   41.1690 H   0  0  0  0  0  0  0  0  0  0  0  0
   17.1070  -56.0630   39.8090 H   0  0  0  0  0  0  0  0  0  0  0  0
   15.1330  -52.8620   40.5890 H   0  0  0  0  0  0  0  0  0  0  0  0
   19.4020  -56.2230   37.5060 H   0  0  0  0  0  0  0  0  0  0  0  0
   18.7720  -56.2990   39.1060 H   0  0  0  0  0  0  0  0  0  0  0  0
   17.6940  -56.4280   37.5830 H   0  0  0  0  0  0  0  0  0  0  0  0
   20.6210  -50.9810   36.5260 H   0  0  0  0  0  0  0  0  0  0  0  0
   19.6330  -51.4690   35.1290 H   0  0  0  0  0  0  0  0  0  0  0  0
   20.9450  -52.5790   35.7130 H   0  0  0  0  0  0  0  0  0  0  0  0
  1  2  1  0  0  0  0
  2  3  1  0  0  0  0
  3  4  2  0  0  0  0
  3 31  1  0  0  0  0
  4 11  1  0  0  0  0
  5  8  1  0  0  0  0
  5  4  1  0  0  0  0
  6  5  2  0  0  0  0
  7  6  1  0  0  0  0
  7  2  2  0  0  0  0
  8  9  1  0  0  0  0
  9 11  1  0  0  0  0
  9 10  2  0  0  0  0
 11 12  2  0  0  0  0
 12 13  1  0  0  0  0
 12 35  1  0  0  0  0
 13 14  1  0  0  0  0
 14 37  1  0  0  0  0
 14 15  1  0  0  0  0
 15 16  2  0  0  0  0
 15 17  1  0  0  0  0
 17 38  1  0  0  0  0
 18 22  1  0  0  0  0
 18 17  1  0  0  0  0
 19 18  1  0  0  0  0
 20 19  2  0  0  0  0
 20 21  1  0  0  0  0
 21 22  2  0  0  0  0
 22 40  1  0  0  0  0
 23 20  1  0  0  0  0
 24 23  2  0  0  0  0
 25 26  1  0  0  0  0
 25 23  1  0  0  0  0
 26 28  1  0  0  0  0
 27 26  2  0  0  0  0
 28 29  1  0  0  0  0
 28 19  1  0  0  0  0
 29 42  1  0  0  0  0
 30 44  1  0  0  0  0
 30 25  1  0  0  0  0
 32  6  1  0  0  0  0
 33  7  1  0  0  0  0
 34  8  1  0  0  0  0
 36 13  1  0  0  0  0
 39 17  1  0  0  0  0
 41 29  1  0  0  0  0
 43 29  1  0  0  0  0
 45 30  1  0  0  0  0
 46 30  1  0  0  0  0
M  END
>  <Pose>
1

>  <Score>
-7.56

$$$$
