
 OpenBabel03232204043D

 51 56  0  0  1  0  0  0  0  0999 V2000
   11.8170  -63.5430   37.5220 B   0  0  0  0  0  0  0  0  0  0  0  0
   12.0950  -62.1360   36.2630 C   0  0  0  0  0  0  0  0  0  0  0  0
   12.9090  -61.0450   36.5430 C   0  0  0  0  0  0  0  0  0  0  0  0
   13.1040  -60.0390   35.6350 C   0  0  0  0  0  0  0  0  0  0  0  0
   12.4540  -60.1500   34.4150 C   0  0  0  0  0  0  0  0  0  0  0  0
   11.6450  -61.2300   34.1310 C   0  0  0  0  0  0  0  0  0  0  0  0
   11.4560  -62.2340   35.0510 C   0  0  0  0  0  0  0  0  0  0  0  0
   12.7660  -59.0270   33.5870 N   0  0  0  0  0  0  0  0  0  0  0  0
   13.6390  -58.1720   34.2950 C   0  0  0  0  0  0  0  0  0  0  0  0
   14.0970  -57.1120   33.8450 O   0  0  0  0  0  0  0  0  0  0  0  0
   13.8680  -58.7940   35.6170 C   0  0  1  0  0  0  0  0  0  0  0  0
   13.5150  -57.8240   36.6090 N   0  0  2  0  0  0  0  0  0  0  0  0
   14.6340  -56.8840   36.6000 C   0  0  2  0  0  0  0  0  0  0  0  0
   15.8520  -57.6830   36.2720 C   0  0  1  0  0  0  0  0  0  0  0  0
   15.3310  -59.0280   35.8990 C   0  0  2  0  0  0  0  0  0  0  0  0
   16.0990  -59.4160   34.7200 C   0  0  0  0  0  0  0  0  0  0  0  0
   16.0860  -60.5370   34.1630 O   0  0  0  0  0  0  0  0  0  0  0  0
   16.8720  -58.3260   34.2870 N   0  0  0  0  0  0  0  0  0  0  0  0
   16.5720  -57.1590   35.0670 C   0  0  0  0  0  0  0  0  0  0  0  0
   16.8350  -55.9540   34.8230 O   0  0  0  0  0  0  0  0  0  0  0  0
   17.8300  -58.3410   33.2260 C   0  0  0  0  0  0  0  0  0  0  0  0
   17.5350  -57.4290   32.0910 C   0  0  2  0  0  0  0  0  0  0  0  0
   17.8120  -57.9770   30.8440 O   0  0  0  0  0  0  0  0  0  0  0  0
   17.6980  -56.8960   29.9790 C   0  0  0  0  0  0  0  0  0  0  0  0
   18.2240  -55.6820   30.6770 C   0  0  0  0  0  0  0  0  0  0  0  0
   18.1970  -56.0950   32.1480 C   0  0  0  0  0  0  0  0  0  0  0  0
   14.7620  -56.3910   38.0340 C   0  0  0  0  0  0  0  0  0  0  0  0
   13.6480  -57.0650   38.8080 C   0  0  0  0  0  0  0  0  0  0  0  0
   13.4580  -58.3330   37.9630 C   0  0  0  0  0  0  0  0  0  0  0  0
   13.3750  -61.0520   37.5300 H   0  0  0  0  0  0  0  0  0  0  0  0
   11.1210  -61.3360   33.1700 H   0  0  0  0  0  0  0  0  0  0  0  0
   10.8060  -63.0960   34.8140 H   0  0  0  0  0  0  0  0  0  0  0  0
   12.3900  -58.8800   32.6050 H   0  0  0  0  0  0  0  0  0  0  0  0
   14.4460  -56.0510   35.9070 H   0  0  0  0  0  0  0  0  0  0  0  0
   16.5710  -57.7200   37.1340 H   0  0  0  0  0  0  0  0  0  0  0  0
   15.3950  -59.7600   36.7290 H   0  0  0  0  0  0  0  0  0  0  0  0
   18.8120  -58.0450   33.6550 H   0  0  0  0  0  0  0  0  0  0  0  0
   17.9940  -59.3620   32.8020 H   0  0  0  0  0  0  0  0  0  0  0  0
   16.4250  -57.2450   32.0970 H   0  0  0  0  0  0  0  0  0  0  0  0
   18.3910  -57.1050   29.1150 H   0  0  0  0  0  0  0  0  0  0  0  0
   16.6730  -56.7740   29.5740 H   0  0  0  0  0  0  0  0  0  0  0  0
   17.5960  -54.7800   30.5220 H   0  0  0  0  0  0  0  0  0  0  0  0
   19.2880  -55.4960   30.4220 H   0  0  0  0  0  0  0  0  0  0  0  0
   19.1860  -56.0720   32.6010 H   0  0  0  0  0  0  0  0  0  0  0  0
   17.5640  -55.3590   32.7260 H   0  0  0  0  0  0  0  0  0  0  0  0
   14.7450  -55.2980   38.1090 H   0  0  0  0  0  0  0  0  0  0  0  0
   15.7240  -56.7240   38.4990 H   0  0  0  0  0  0  0  0  0  0  0  0
   12.7240  -56.4850   38.8450 H   0  0  0  0  0  0  0  0  0  0  0  0
   13.9330  -57.3690   39.8140 H   0  0  0  0  0  0  0  0  0  0  0  0
   12.5030  -58.7910   38.2240 H   0  0  0  0  0  0  0  0  0  0  0  0
   14.2940  -58.9830   38.2420 H   0  0  0  0  0  0  0  0  0  0  0  0
  2  3  1  0  0  0  0
  2  1  1  0  0  0  0
  3 30  1  0  0  0  0
  4  3  2  0  0  0  0
  5  4  1  0  0  0  0
  6  5  2  0  0  0  0
  6  7  1  0  0  0  0
  7  2  2  0  0  0  0
  8  9  1  0  0  0  0
  8  5  1  0  0  0  0
 10  9  2  0  0  0  0
 11  9  1  6  0  0  0
 11  4  1  0  0  0  0
 11 15  1  0  0  0  0
 11 12  1  0  0  0  0
 12 29  1  1  0  0  0
 13 34  1  6  0  0  0
 13 12  1  0  0  0  0
 13 27  1  0  0  0  0
 14 13  1  0  0  0  0
 14 35  1  1  0  0  0
 15 14  1  0  0  0  0
 15 36  1  1  0  0  0
 16 15  1  0  0  0  0
 17 16  2  0  0  0  0
 18 16  1  0  0  0  0
 18 19  1  0  0  0  0
 19 14  1  0  0  0  0
 20 19  2  0  0  0  0
 21 37  1  0  0  0  0
 21 18  1  0  0  0  0
 22 39  1  1  0  0  0
 22 26  1  0  0  0  0
 22 21  1  0  0  0  0
 23 22  1  0  0  0  0
 24 25  1  0  0  0  0
 24 23  1  0  0  0  0
 25 26  1  0  0  0  0
 26 44  1  0  0  0  0
 26 45  1  0  0  0  0
 27 46  1  0  0  0  0
 27 47  1  0  0  0  0
 27 28  1  0  0  0  0
 28 48  1  0  0  0  0
 28 49  1  0  0  0  0
 29 50  1  0  0  0  0
 29 51  1  0  0  0  0
 29 28  1  0  0  0  0
 31  6  1  0  0  0  0
 32  7  1  0  0  0  0
 33  8  1  0  0  0  0
 38 21  1  0  0  0  0
 40 24  1  0  0  0  0
 41 24  1  0  0  0  0
 42 25  1  0  0  0  0
 43 25  1  0  0  0  0
M  END
>  <Pose>
1

>  <Score>
-5.89

$$$$
