
 OpenBabel03232204043D

 38 41  0  0  1  0  0  0  0  0999 V2000
   16.6060  -64.9510   34.4440 B   0  0  0  0  0  0  0  0  0  0  0  0
   15.6720  -63.4510   33.7490 C   0  0  0  0  0  0  0  0  0  0  0  0
   15.1630  -62.4450   34.5760 C   0  0  0  0  0  0  0  0  0  0  0  0
   14.4910  -61.3650   34.0670 C   0  0  0  0  0  0  0  0  0  0  0  0
   14.3100  -61.2670   32.7190 C   0  0  0  0  0  0  0  0  0  0  0  0
   14.8010  -62.2490   31.8480 C   0  0  0  0  0  0  0  0  0  0  0  0
   15.4720  -63.3200   32.3880 C   0  0  0  0  0  0  0  0  0  0  0  0
   13.5950  -60.0870   32.3900 N   0  0  0  0  0  0  0  0  0  0  0  0
   13.3150  -59.4160   33.5930 C   0  0  0  0  0  0  0  0  0  0  0  0
   12.6980  -58.3300   33.7490 O   0  0  0  0  0  0  0  0  0  0  0  0
   13.8720  -60.1980   34.7190 C   0  0  1  0  0  0  0  0  0  0  0  0
   12.7590  -60.6240   35.6290 C   0  0  0  0  0  0  0  0  0  0  0  0
   12.6890  -60.3730   36.9100 C   0  0  0  0  0  0  0  0  0  0  0  0
   13.7420  -59.6390   37.5070 N   0  0  0  0  0  0  0  0  0  0  0  0
   14.8380  -59.1930   36.7240 C   0  0  0  0  0  0  0  0  0  0  0  0
   14.9110  -59.4430   35.4400 C   0  0  0  0  0  0  0  0  0  0  0  0
   16.0780  -58.9470   34.7040 C   0  0  0  0  0  0  0  0  0  0  0  0
   17.0000  -58.5720   34.1150 N   0  0  0  0  0  0  0  0  0  0  0  0
   15.9080  -58.4410   37.3600 N   0  0  0  0  0  0  0  0  0  0  0  0
   11.4360  -60.9660   37.4380 C   0  0  0  0  0  0  0  0  0  0  0  0
   10.7840  -61.5820   36.3580 O   0  0  0  0  0  0  0  0  0  0  0  0
   11.5650  -61.3920   35.2350 C   0  0  0  0  0  0  0  0  0  0  0  0
   11.2840  -61.8180   34.0620 O   0  0  0  0  0  0  0  0  0  0  0  0
   10.4900  -59.8740   37.9440 C   0  0  0  0  0  0  0  0  0  0  0  0
   11.7280  -61.9580   38.5550 C   0  0  0  0  0  0  0  0  0  0  0  0
   15.3330  -62.5720   35.6380 H   0  0  0  0  0  0  0  0  0  0  0  0
   14.6790  -62.2050   30.7820 H   0  0  0  0  0  0  0  0  0  0  0  0
   15.8550  -64.0850   31.7130 H   0  0  0  0  0  0  0  0  0  0  0  0
   13.3290  -59.7820   31.4020 H   0  0  0  0  0  0  0  0  0  0  0  0
   13.7390  -59.4080   38.5340 H   0  0  0  0  0  0  0  0  0  0  0  0
   16.1600  -57.4760   37.0920 H   0  0  0  0  0  0  0  0  0  0  0  0
   16.4350  -58.9050   38.1170 H   0  0  0  0  0  0  0  0  0  0  0  0
    9.4760  -60.3260   37.9240 H   0  0  0  0  0  0  0  0  0  0  0  0
   10.7040  -59.6010   38.9820 H   0  0  0  0  0  0  0  0  0  0  0  0
   10.4910  -59.0350   37.2400 H   0  0  0  0  0  0  0  0  0  0  0  0
   11.3390  -61.5840   39.5310 H   0  0  0  0  0  0  0  0  0  0  0  0
   11.2040  -62.9120   38.2800 H   0  0  0  0  0  0  0  0  0  0  0  0
   12.8070  -62.1680   38.5960 H   0  0  0  0  0  0  0  0  0  0  0  0
  2  1  1  0  0  0  0
  2  3  1  0  0  0  0
  3 26  1  0  0  0  0
  4  3  2  0  0  0  0
  4 11  1  0  0  0  0
  5  4  1  0  0  0  0
  6  7  1  0  0  0  0
  6  5  2  0  0  0  0
  7  2  2  0  0  0  0
  8  5  1  0  0  0  0
  8  9  1  0  0  0  0
  9 10  2  0  0  0  0
 11  9  1  6  0  0  0
 11 16  1  0  0  0  0
 11 12  1  0  0  0  0
 12 13  2  0  0  0  0
 13 20  1  0  0  0  0
 13 14  1  0  0  0  0
 14 30  1  0  0  0  0
 15 19  1  0  0  0  0
 15 14  1  0  0  0  0
 16 15  2  0  0  0  0
 17 16  1  0  0  0  0
 18 17  3  0  0  0  0
 19 32  1  0  0  0  0
 20 24  1  0  0  0  0
 20 25  1  0  0  0  0
 21 20  1  0  0  0  0
 22 12  1  0  0  0  0
 22 21  1  0  0  0  0
 23 22  2  0  0  0  0
 24 34  1  0  0  0  0
 25 38  1  0  0  0  0
 25 36  1  0  0  0  0
 27  6  1  0  0  0  0
 28  7  1  0  0  0  0
 29  8  1  0  0  0  0
 31 19  1  0  0  0  0
 33 24  1  0  0  0  0
 35 24  1  0  0  0  0
 37 25  1  0  0  0  0
M  END
>  <Pose>
1

>  <Score>
-4.76

$$$$
