
 OpenBabel03232204043D

 49 52  0  0  1  0  0  0  0  0999 V2000
   18.5360  -58.5820   34.0730 B   0  0  0  0  0  0  0  0  0  0  0  0
   16.8810  -59.3760   33.5130 C   0  0  0  0  0  0  0  0  0  0  0  0
   15.7940  -59.4660   34.3630 C   0  0  0  0  0  0  0  0  0  0  0  0
   14.6000  -60.0360   33.9700 C   0  0  0  0  0  0  0  0  0  0  0  0
   14.5450  -60.5140   32.6780 C   0  0  0  0  0  0  0  0  0  0  0  0
   15.6370  -60.4260   31.8200 C   0  0  0  0  0  0  0  0  0  0  0  0
   16.8030  -59.8590   32.2320 C   0  0  0  0  0  0  0  0  0  0  0  0
   13.2420  -61.0730   32.4470 N   0  0  0  0  0  0  0  0  0  0  0  0
   12.4660  -60.9400   33.6260 C   0  0  0  0  0  0  0  0  0  0  0  0
   11.2850  -61.3430   33.7400 O   0  0  0  0  0  0  0  0  0  0  0  0
   13.2990  -60.2620   34.6410 C   0  0  1  0  0  0  0  0  0  0  0  0
   13.4220  -61.0620   35.8290 N   0  0  0  0  0  0  0  0  0  0  0  0
   12.1900  -60.8110   36.5470 C   0  0  2  0  0  0  0  0  0  0  0  0
   11.9900  -59.3260   36.4000 C   0  0  2  0  0  0  0  0  0  0  0  0
   12.6230  -59.0070   35.0660 C   0  0  1  0  0  0  0  0  0  0  0  0
   13.5080  -57.8620   35.3200 C   0  0  0  0  0  0  0  0  0  0  0  0
   14.1390  -57.1940   34.4620 O   0  0  0  0  0  0  0  0  0  0  0  0
   13.5630  -57.5920   36.7390 N   0  0  0  0  0  0  0  0  0  0  0  0
   12.7400  -58.5380   37.4020 C   0  0  0  0  0  0  0  0  0  0  0  0
   12.6780  -58.6650   38.6490 O   0  0  0  0  0  0  0  0  0  0  0  0
   14.3140  -56.5480   37.3910 C   0  0  0  0  0  0  0  0  0  0  0  0
   14.1840  -56.6120   38.8930 C   0  0  0  0  0  0  0  0  0  0  0  0
   15.7880  -56.6810   36.9960 C   0  0  0  0  0  0  0  0  0  0  0  0
   13.8280  -55.1830   36.9570 C   0  0  0  0  0  0  0  0  0  0  0  0
   12.3120  -61.2660   37.9760 C   0  0  0  0  0  0  0  0  0  0  0  0
   12.2490  -62.7340   38.0710 C   0  0  0  0  0  0  0  0  0  0  0  0
   11.3660  -63.2550   38.8060 O   0  0  0  0  0  0  0  0  0  0  0  0
   13.1160  -63.6250   37.3890 N   0  0  0  0  0  0  0  0  0  0  0  0
   15.9290  -59.0680   35.3520 H   0  0  0  0  0  0  0  0  0  0  0  0
   15.5830  -60.8050   30.8060 H   0  0  0  0  0  0  0  0  0  0  0  0
   17.6440  -59.8050   31.5330 H   0  0  0  0  0  0  0  0  0  0  0  0
   12.9580  -61.4990   31.5390 H   0  0  0  0  0  0  0  0  0  0  0  0
   14.2090  -60.7050   36.3940 H   0  0  0  0  0  0  0  0  0  0  0  0
   11.3290  -61.3730   36.1080 H   0  0  0  0  0  0  0  0  0  0  0  0
   10.9350  -59.0160   36.3750 H   0  0  0  0  0  0  0  0  0  0  0  0
   11.8520  -58.7390   34.3100 H   0  0  0  0  0  0  0  0  0  0  0  0
   13.1130  -56.4950   39.1530 H   0  0  0  0  0  0  0  0  0  0  0  0
   14.6950  -55.7350   39.3630 H   0  0  0  0  0  0  0  0  0  0  0  0
   14.6480  -57.5310   39.3110 H   0  0  0  0  0  0  0  0  0  0  0  0
   16.0820  -57.7160   37.2650 H   0  0  0  0  0  0  0  0  0  0  0  0
   16.4060  -55.9500   37.5280 H   0  0  0  0  0  0  0  0  0  0  0  0
   15.8140  -56.5680   35.8860 H   0  0  0  0  0  0  0  0  0  0  0  0
   14.0220  -54.4690   37.7800 H   0  0  0  0  0  0  0  0  0  0  0  0
   14.3330  -54.8070   36.0550 H   0  0  0  0  0  0  0  0  0  0  0  0
   12.7460  -55.2580   36.7500 H   0  0  0  0  0  0  0  0  0  0  0  0
   13.3630  -60.9850   38.2840 H   0  0  0  0  0  0  0  0  0  0  0  0
   11.6610  -60.7310   38.6770 H   0  0  0  0  0  0  0  0  0  0  0  0
   12.8910  -64.5980   37.1350 H   0  0  0  0  0  0  0  0  0  0  0  0
   14.0660  -63.2540   37.1240 H   0  0  0  0  0  0  0  0  0  0  0  0
  2  1  1  0  0  0  0
  2  3  1  0  0  0  0
  3 29  1  0  0  0  0
  4  3  2  0  0  0  0
  4 11  1  0  0  0  0
  5  4  1  0  0  0  0
  6  7  1  0  0  0  0
  6  5  2  0  0  0  0
  7  2  2  0  0  0  0
  8  5  1  0  0  0  0
  8  9  1  0  0  0  0
  9 10  2  0  0  0  0
 11  9  1  6  0  0  0
 11 15  1  0  0  0  0
 11 12  1  0  0  0  0
 12 33  1  0  0  0  0
 12 13  1  0  0  0  0
 13 34  1  6  0  0  0
 13 25  1  0  0  0  0
 14 35  1  1  0  0  0
 14 13  1  0  0  0  0
 14 19  1  0  0  0  0
 15 36  1  6  0  0  0
 15 16  1  0  0  0  0
 15 14  1  0  0  0  0
 16 18  1  0  0  0  0
 17 16  2  0  0  0  0
 18 21  1  0  0  0  0
 18 19  1  0  0  0  0
 19 20  2  0  0  0  0
 21 22  1  0  0  0  0
 22 37  1  0  0  0  0
 22 39  1  0  0  0  0
 22 38  1  0  0  0  0
 23 40  1  0  0  0  0
 23 21  1  0  0  0  0
 23 41  1  0  0  0  0
 24 21  1  0  0  0  0
 24 43  1  0  0  0  0
 25 26  1  0  0  0  0
 25 46  1  0  0  0  0
 25 47  1  0  0  0  0
 26 27  2  0  0  0  0
 28 26  1  0  0  0  0
 30  6  1  0  0  0  0
 31  7  1  0  0  0  0
 32  8  1  0  0  0  0
 42 23  1  0  0  0  0
 44 24  1  0  0  0  0
 45 24  1  0  0  0  0
 48 28  1  0  0  0  0
 49 28  1  0  0  0  0
M  END
>  <Pose>
1

>  <Score>
-6.13

$$$$
