
 OpenBabel03232204043D

 49 52  0  0  1  0  0  0  0  0999 V2000
   11.3860  -63.5710   37.6780 B   0  0  0  0  0  0  0  0  0  0  0  0
   11.7000  -61.8420   36.9350 C   0  0  0  0  0  0  0  0  0  0  0  0
   12.6030  -61.6690   35.9170 C   0  0  0  0  0  0  0  0  0  0  0  0
   12.8430  -60.3990   35.3630 C   0  0  0  0  0  0  0  0  0  0  0  0
   12.1840  -59.2920   35.8190 C   0  0  0  0  0  0  0  0  0  0  0  0
   11.2600  -59.4690   36.8590 C   0  0  0  0  0  0  0  0  0  0  0  0
   11.0410  -60.7200   37.3870 C   0  0  0  0  0  0  0  0  0  0  0  0
   12.5900  -58.1300   35.1090 N   0  0  0  0  0  0  0  0  0  0  0  0
   13.5550  -58.5340   34.1580 C   0  0  0  0  0  0  0  0  0  0  0  0
   14.1110  -57.7050   33.3630 O   0  0  0  0  0  0  0  0  0  0  0  0
   13.7530  -59.9680   34.2790 C   0  0  2  0  0  0  0  0  0  0  0  0
   13.5120  -60.6920   33.0460 N   0  0  0  0  0  0  0  0  0  0  0  0
   14.7860  -60.7210   32.3510 C   0  0  1  0  0  0  0  0  0  0  0  0
   15.7470  -60.9920   33.4720 C   0  0  2  0  0  0  0  0  0  0  0  0
   15.1970  -60.2470   34.6410 C   0  0  1  0  0  0  0  0  0  0  0  0
   16.0080  -59.0250   34.7540 C   0  0  0  0  0  0  0  0  0  0  0  0
   15.7570  -57.9580   35.4060 O   0  0  0  0  0  0  0  0  0  0  0  0
   17.2010  -59.1740   33.9940 N   0  0  0  0  0  0  0  0  0  0  0  0
   17.0700  -60.3690   33.2500 C   0  0  0  0  0  0  0  0  0  0  0  0
   17.9440  -60.8750   32.4830 O   0  0  0  0  0  0  0  0  0  0  0  0
   18.3390  -58.2770   33.9790 C   0  0  0  0  0  0  0  0  0  0  0  0
   18.4520  -57.5180   32.6970 C   0  0  0  0  0  0  0  0  0  0  0  0
   18.1790  -56.0460   33.0280 C   0  0  0  0  0  0  0  0  0  0  0  0
   18.0860  -55.2320   31.7670 C   0  0  0  0  0  0  0  0  0  0  0  0
   14.7590  -61.8030   31.3170 C   0  0  2  0  0  0  0  0  0  0  0  0
   13.7720  -61.4730   30.3790 O   0  0  0  0  0  0  0  0  0  0  0  0
   14.3540  -63.1130   31.9460 C   0  0  0  0  0  0  0  0  0  0  0  0
   13.1660  -62.5170   35.5060 H   0  0  0  0  0  0  0  0  0  0  0  0
   10.7320  -58.5870   37.2260 H   0  0  0  0  0  0  0  0  0  0  0  0
   10.3280  -60.8680   38.1930 H   0  0  0  0  0  0  0  0  0  0  0  0
   12.2070  -57.1690   35.3000 H   0  0  0  0  0  0  0  0  0  0  0  0
   12.7500  -60.2780   32.4790 H   0  0  0  0  0  0  0  0  0  0  0  0
   15.0480  -59.7460   31.9110 H   0  0  0  0  0  0  0  0  0  0  0  0
   15.8400  -62.0720   33.7050 H   0  0  0  0  0  0  0  0  0  0  0  0
   15.2740  -60.8740   35.5640 H   0  0  0  0  0  0  0  0  0  0  0  0
   18.3110  -57.5460   34.8090 H   0  0  0  0  0  0  0  0  0  0  0  0
   19.2630  -58.8830   34.1200 H   0  0  0  0  0  0  0  0  0  0  0  0
   17.6260  -57.8130   32.0010 H   0  0  0  0  0  0  0  0  0  0  0  0
   19.3890  -57.6420   32.1570 H   0  0  0  0  0  0  0  0  0  0  0  0
   17.1740  -56.0450   33.5250 H   0  0  0  0  0  0  0  0  0  0  0  0
   18.9120  -55.6560   33.7490 H   0  0  0  0  0  0  0  0  0  0  0  0
   18.7380  -55.5970   30.9590 H   0  0  0  0  0  0  0  0  0  0  0  0
   17.0380  -55.2480   31.3610 H   0  0  0  0  0  0  0  0  0  0  0  0
   18.2890  -54.1720   32.0160 H   0  0  0  0  0  0  0  0  0  0  0  0
   15.7550  -61.9080   30.8390 H   0  0  0  0  0  0  0  0  0  0  0  0
   13.3600  -60.5970   30.5920 H   0  0  0  0  0  0  0  0  0  0  0  0
   15.2430  -63.5940   32.4010 H   0  0  0  0  0  0  0  0  0  0  0  0
   13.5620  -62.9080   32.6780 H   0  0  0  0  0  0  0  0  0  0  0  0
   14.0190  -63.7840   31.1130 H   0  0  0  0  0  0  0  0  0  0  0  0
  2  7  1  0  0  0  0
  2  1  1  0  0  0  0
  3  2  2  0  0  0  0
  4  5  2  0  0  0  0
  4  3  1  0  0  0  0
  5  6  1  0  0  0  0
  6 29  1  0  0  0  0
  6  7  2  0  0  0  0
  7 30  1  0  0  0  0
  8 31  1  0  0  0  0
  8  5  1  0  0  0  0
  9  8  1  0  0  0  0
 10  9  2  0  0  0  0
 11  9  1  6  0  0  0
 11 15  1  0  0  0  0
 11  4  1  0  0  0  0
 12 11  1  0  0  0  0
 13 33  1  6  0  0  0
 13 12  1  0  0  0  0
 13 14  1  0  0  0  0
 14 34  1  1  0  0  0
 14 15  1  0  0  0  0
 15 16  1  0  0  0  0
 15 35  1  1  0  0  0
 16 17  2  0  0  0  0
 18 16  1  0  0  0  0
 19 14  1  0  0  0  0
 19 18  1  0  0  0  0
 20 19  2  0  0  0  0
 21 18  1  0  0  0  0
 21 37  1  0  0  0  0
 21 36  1  0  0  0  0
 22 23  1  0  0  0  0
 22 21  1  0  0  0  0
 23 40  1  0  0  0  0
 23 41  1  0  0  0  0
 24 44  1  0  0  0  0
 24 23  1  0  0  0  0
 25 45  1  6  0  0  0
 25 27  1  0  0  0  0
 25 13  1  0  0  0  0
 26 46  1  0  0  0  0
 26 25  1  0  0  0  0
 27 47  1  0  0  0  0
 27 48  1  0  0  0  0
 28  3  1  0  0  0  0
 32 12  1  0  0  0  0
 38 22  1  0  0  0  0
 39 22  1  0  0  0  0
 42 24  1  0  0  0  0
 43 24  1  0  0  0  0
 49 27  1  0  0  0  0
M  END
>  <Pose>
1

>  <Score>
-6.70

$$$$
