
 OpenBabel03232204043D

 53 57  0  0  1  0  0  0  0  0999 V2000
   14.0430  -63.1630   33.1580 B   0  0  0  0  0  0  0  0  0  0  0  0
   13.5180  -61.6520   34.2000 C   0  0  0  0  0  0  0  0  0  0  0  0
   14.4270  -60.7640   34.7290 C   0  0  0  0  0  0  0  0  0  0  0  0
   14.0360  -59.6580   35.5000 C   0  0  0  0  0  0  0  0  0  0  0  0
   12.6900  -59.4850   35.7150 C   0  0  0  0  0  0  0  0  0  0  0  0
   11.7680  -60.3760   35.1850 C   0  0  0  0  0  0  0  0  0  0  0  0
   12.1640  -61.4580   34.4300 C   0  0  0  0  0  0  0  0  0  0  0  0
   12.4480  -58.3450   36.5160 N   0  0  0  0  0  0  0  0  0  0  0  0
   13.6990  -57.7700   36.8240 C   0  0  0  0  0  0  0  0  0  0  0  0
   13.8130  -56.7310   37.5330 O   0  0  0  0  0  0  0  0  0  0  0  0
   14.7550  -58.5850   36.1870 C   0  0  1  0  0  0  0  0  0  0  0  0
   15.6630  -59.1290   37.2020 N   0  0  0  0  0  0  0  0  0  0  0  0
   16.9600  -59.1920   36.5670 C   0  0  1  0  0  0  0  0  0  0  0  0
   16.9980  -58.1770   35.4940 C   0  0  2  0  0  0  0  0  0  0  0  0
   15.5720  -57.6820   35.3420 C   0  0  1  0  0  0  0  0  0  0  0  0
   15.3120  -57.6680   33.9070 C   0  0  0  0  0  0  0  0  0  0  0  0
   14.2100  -57.4420   33.3500 O   0  0  0  0  0  0  0  0  0  0  0  0
   16.5260  -57.9580   33.1800 N   0  0  0  0  0  0  0  0  0  0  0  0
   17.3360  -58.6650   34.1420 C   0  0  0  0  0  0  0  0  0  0  0  0
   18.1730  -59.5350   33.8580 O   0  0  0  0  0  0  0  0  0  0  0  0
   16.8840  -57.6120   31.8420 C   0  0  0  0  0  0  0  0  0  0  0  0
   17.2450  -56.1750   31.6050 C   0  0  0  0  0  0  0  0  0  0  0  0
   18.4040  -55.9620   30.7210 C   0  0  0  0  0  0  0  0  0  0  0  0
   18.3670  -56.4450   29.4190 C   0  0  0  0  0  0  0  0  0  0  0  0
   19.4160  -56.2330   28.5890 C   0  0  0  0  0  0  0  0  0  0  0  0
   20.5340  -55.5520   28.9750 C   0  0  0  0  0  0  0  0  0  0  0  0
   20.5610  -55.0730   30.2760 C   0  0  0  0  0  0  0  0  0  0  0  0
   19.5160  -55.2750   31.1320 C   0  0  0  0  0  0  0  0  0  0  0  0
   18.0540  -59.0350   37.5960 C   0  0  1  0  0  0  0  0  0  0  0  0
   19.2900  -59.0730   36.9800 O   0  0  0  0  0  0  0  0  0  0  0  0
   17.8700  -57.8020   38.4470 C   0  0  0  0  0  0  0  0  0  0  0  0
   15.4740  -60.9380   34.5330 H   0  0  0  0  0  0  0  0  0  0  0  0
   10.6980  -60.2480   35.3490 H   0  0  0  0  0  0  0  0  0  0  0  0
   11.4540  -62.1690   34.0050 H   0  0  0  0  0  0  0  0  0  0  0  0
   11.5010  -57.9920   36.8260 H   0  0  0  0  0  0  0  0  0  0  0  0
   15.3510  -60.0720   37.5280 H   0  0  0  0  0  0  0  0  0  0  0  0
   17.0750  -60.2020   36.1340 H   0  0  0  0  0  0  0  0  0  0  0  0
   17.6880  -57.3270   35.6950 H   0  0  0  0  0  0  0  0  0  0  0  0
   15.5550  -56.6190   35.6880 H   0  0  0  0  0  0  0  0  0  0  0  0
   17.7560  -58.2780   31.5600 H   0  0  0  0  0  0  0  0  0  0  0  0
   16.0440  -57.8580   31.1380 H   0  0  0  0  0  0  0  0  0  0  0  0
   17.4410  -55.6530   32.5770 H   0  0  0  0  0  0  0  0  0  0  0  0
   16.3330  -55.6400   31.2050 H   0  0  0  0  0  0  0  0  0  0  0  0
   17.4900  -56.9960   29.0720 H   0  0  0  0  0  0  0  0  0  0  0  0
   19.3360  -56.6370   27.5680 H   0  0  0  0  0  0  0  0  0  0  0  0
   21.3720  -55.3780   28.3220 H   0  0  0  0  0  0  0  0  0  0  0  0
   21.4520  -54.5250   30.5850 H   0  0  0  0  0  0  0  0  0  0  0  0
   19.5340  -54.9060   32.1400 H   0  0  0  0  0  0  0  0  0  0  0  0
   17.9810  -59.9130   38.2770 H   0  0  0  0  0  0  0  0  0  0  0  0
   19.2240  -59.1770   36.0120 H   0  0  0  0  0  0  0  0  0  0  0  0
   17.1500  -57.9480   39.2640 H   0  0  0  0  0  0  0  0  0  0  0  0
   17.6030  -56.9120   37.8660 H   0  0  0  0  0  0  0  0  0  0  0  0
   18.8570  -57.5890   38.9280 H   0  0  0  0  0  0  0  0  0  0  0  0
  1  2  1  0  0  0  0
  2  7  2  0  0  0  0
  2  3  1  0  0  0  0
  3  4  2  0  0  0  0
  4  5  1  0  0  0  0
  5  8  1  0  0  0  0
  6 33  1  0  0  0  0
  6  5  2  0  0  0  0
  7  6  1  0  0  0  0
  8  9  1  0  0  0  0
  8 35  1  0  0  0  0
  9 10  2  0  0  0  0
 11  4  1  6  0  0  0
 11  9  1  0  0  0  0
 11 12  1  0  0  0  0
 12 36  1  0  0  0  0
 13 37  1  6  0  0  0
 13 12  1  0  0  0  0
 13 29  1  0  0  0  0
 14 38  1  1  0  0  0
 14 13  1  0  0  0  0
 15 14  1  0  0  0  0
 15 39  1  1  0  0  0
 15 11  1  0  0  0  0
 16 15  1  0  0  0  0
 17 16  2  0  0  0  0
 18 16  1  0  0  0  0
 18 19  1  0  0  0  0
 19 14  1  0  0  0  0
 20 19  2  0  0  0  0
 21 18  1  0  0  0  0
 22 21  1  0  0  0  0
 22 42  1  0  0  0  0
 23 28  1  0  0  0  0
 23 22  1  0  0  0  0
 24 23  2  0  0  0  0
 25 26  2  0  0  0  0
 25 24  1  0  0  0  0
 26 27  1  0  0  0  0
 27 47  1  0  0  0  0
 27 28  2  0  0  0  0
 28 48  1  0  0  0  0
 29 49  1  1  0  0  0
 29 31  1  0  0  0  0
 30 29  1  0  0  0  0
 31 53  1  0  0  0  0
 31 51  1  0  0  0  0
 32  3  1  0  0  0  0
 34  7  1  0  0  0  0
 40 21  1  0  0  0  0
 41 21  1  0  0  0  0
 43 22  1  0  0  0  0
 44 24  1  0  0  0  0
 45 25  1  0  0  0  0
 46 26  1  0  0  0  0
 50 30  1  0  0  0  0
 52 31  1  0  0  0  0
M  END
>  <Pose>
1

>  <Score>
-5.24

$$$$
