
 OpenBabel03232204043D

 45 48  0  0  1  0  0  0  0  0999 V2000
   15.1460  -56.6480   38.6300 B   0  0  0  0  0  0  0  0  0  0  0  0
   13.9530  -57.8430   37.7370 C   0  0  0  0  0  0  0  0  0  0  0  0
   14.3210  -58.5400   36.6140 C   0  0  0  0  0  0  0  0  0  0  0  0
   13.4700  -59.4270   35.9310 C   0  0  0  0  0  0  0  0  0  0  0  0
   12.2150  -59.5840   36.4370 C   0  0  0  0  0  0  0  0  0  0  0  0
   11.8200  -58.8770   37.5880 C   0  0  0  0  0  0  0  0  0  0  0  0
   12.6760  -58.0150   38.2330 C   0  0  0  0  0  0  0  0  0  0  0  0
   11.4700  -60.5120   35.6590 N   0  0  0  0  0  0  0  0  0  0  0  0
   12.3090  -60.9520   34.6170 C   0  0  0  0  0  0  0  0  0  0  0  0
   11.9920  -61.8090   33.7130 O   0  0  0  0  0  0  0  0  0  0  0  0
   13.6030  -60.2600   34.7530 C   0  0  2  0  0  0  0  0  0  0  0  0
   14.5550  -61.3560   35.0080 N   0  0  0  0  0  0  0  0  0  0  0  0
   15.2510  -61.6450   33.7930 C   0  0  2  0  0  0  0  0  0  0  0  0
   15.2540  -60.3580   33.0530 C   0  0  1  0  0  0  0  0  0  0  0  0
   14.0420  -59.5890   33.5050 C   0  0  2  0  0  0  0  0  0  0  0  0
   14.5120  -58.2250   33.5850 C   0  0  0  0  0  0  0  0  0  0  0  0
   13.7690  -57.2030   33.6690 O   0  0  0  0  0  0  0  0  0  0  0  0
   15.9330  -58.2200   33.5540 N   0  0  0  0  0  0  0  0  0  0  0  0
   16.4220  -59.5530   33.5320 C   0  0  0  0  0  0  0  0  0  0  0  0
   17.5770  -59.8980   33.8510 O   0  0  0  0  0  0  0  0  0  0  0  0
   16.7170  -56.9920   33.5490 C   0  0  0  0  0  0  0  0  0  0  0  0
   17.0330  -56.5330   32.1580 C   0  0  0  0  0  0  0  0  0  0  0  0
   17.4380  -55.0850   32.0880 C   0  0  0  0  0  0  0  0  0  0  0  0
   18.8840  -55.0630   31.5800 C   0  0  0  0  0  0  0  0  0  0  0  0
   14.6770  -62.7910   32.9930 C   0  0  0  0  0  0  0  0  0  0  0  0
   15.3180  -58.3900   36.2520 H   0  0  0  0  0  0  0  0  0  0  0  0
   10.8010  -59.0330   37.9590 H   0  0  0  0  0  0  0  0  0  0  0  0
   12.3900  -57.4610   39.1230 H   0  0  0  0  0  0  0  0  0  0  0  0
   10.4680  -60.8270   35.8170 H   0  0  0  0  0  0  0  0  0  0  0  0
   15.2080  -61.1080   35.7840 H   0  0  0  0  0  0  0  0  0  0  0  0
   16.3280  -61.8900   34.0710 H   0  0  0  0  0  0  0  0  0  0  0  0
   15.2860  -60.4790   31.9470 H   0  0  0  0  0  0  0  0  0  0  0  0
   13.1990  -59.7200   32.7590 H   0  0  0  0  0  0  0  0  0  0  0  0
   16.1610  -56.1840   34.0530 H   0  0  0  0  0  0  0  0  0  0  0  0
   17.6620  -57.1720   34.1180 H   0  0  0  0  0  0  0  0  0  0  0  0
   16.1250  -56.6540   31.5470 H   0  0  0  0  0  0  0  0  0  0  0  0
   17.8800  -57.1440   31.7790 H   0  0  0  0  0  0  0  0  0  0  0  0
   17.3800  -54.5950   33.0880 H   0  0  0  0  0  0  0  0  0  0  0  0
   16.8000  -54.5340   31.3960 H   0  0  0  0  0  0  0  0  0  0  0  0
   19.3910  -54.1270   31.8810 H   0  0  0  0  0  0  0  0  0  0  0  0
   19.4070  -55.9750   31.9150 H   0  0  0  0  0  0  0  0  0  0  0  0
   18.8020  -55.1520   30.4570 H   0  0  0  0  0  0  0  0  0  0  0  0
   15.5290  -63.3940   32.5530 H   0  0  0  0  0  0  0  0  0  0  0  0
   14.1640  -63.4700   33.6680 H   0  0  0  0  0  0  0  0  0  0  0  0
   14.1120  -62.4510   32.1100 H   0  0  0  0  0  0  0  0  0  0  0  0
  2  7  1  0  0  0  0
  2  1  1  0  0  0  0
  3  2  2  0  0  0  0
  4  5  2  0  0  0  0
  4  3  1  0  0  0  0
  5  6  1  0  0  0  0
  6 27  1  0  0  0  0
  6  7  2  0  0  0  0
  7 28  1  0  0  0  0
  8 29  1  0  0  0  0
  8  5  1  0  0  0  0
  9  8  1  0  0  0  0
 10  9  2  0  0  0  0
 11  9  1  6  0  0  0
 11 12  1  0  0  0  0
 11  4  1  0  0  0  0
 12 30  1  0  0  0  0
 13 31  1  1  0  0  0
 13 12  1  0  0  0  0
 14 32  1  6  0  0  0
 14 15  1  0  0  0  0
 14 19  1  0  0  0  0
 14 13  1  0  0  0  0
 15 33  1  6  0  0  0
 15 16  1  0  0  0  0
 15 11  1  0  0  0  0
 16 17  2  0  0  0  0
 18 16  1  0  0  0  0
 19 18  1  0  0  0  0
 19 20  2  0  0  0  0
 21 18  1  0  0  0  0
 21 34  1  0  0  0  0
 21 35  1  0  0  0  0
 22 21  1  0  0  0  0
 23 22  1  0  0  0  0
 23 38  1  0  0  0  0
 24 40  1  0  0  0  0
 24 41  1  0  0  0  0
 24 23  1  0  0  0  0
 25 44  1  0  0  0  0
 25 13  1  0  0  0  0
 26  3  1  0  0  0  0
 36 22  1  0  0  0  0
 37 22  1  0  0  0  0
 39 23  1  0  0  0  0
 42 24  1  0  0  0  0
 43 25  1  0  0  0  0
 45 25  1  0  0  0  0
M  END
>  <Pose>
1

>  <Score>
-6.19

$$$$
