
 OpenBabel03232204043D

 37 40  0  0  0  0  0  0  0  0999 V2000
   18.9430  -53.7360   37.8660 B   0  0  0  0  0  0  0  0  0  0  0  0
   18.6730  -54.3470   36.0660 C   0  0  0  0  0  0  0  0  0  0  0  0
   19.5650  -54.0070   35.0720 C   0  0  0  0  0  0  0  0  0  0  0  0
   19.3670  -54.4500   33.7800 C   0  0  0  0  0  0  0  0  0  0  0  0
   18.2900  -55.2360   33.4160 C   0  0  0  0  0  0  0  0  0  0  0  0
   17.3980  -55.5680   34.4320 C   0  0  0  0  0  0  0  0  0  0  0  0
   17.5910  -55.1310   35.7260 C   0  0  0  0  0  0  0  0  0  0  0  0
   17.9420  -55.7660   32.1580 N   0  0  0  0  0  0  0  0  0  0  0  0
   16.7550  -56.2840   31.8870 N   0  0  0  0  0  0  0  0  0  0  0  0
   16.7700  -56.6850   30.6250 N   0  0  0  0  0  0  0  0  0  0  0  0
   17.9490  -56.4220   30.1150 N   0  0  0  0  0  0  0  0  0  0  0  0
   18.7240  -55.8360   31.0610 C   0  0  0  0  0  0  0  0  0  0  0  0
   20.0990  -55.4370   30.7560 C   0  0  0  0  0  0  0  0  0  0  0  0
   20.6260  -54.3420   31.4950 N   0  0  0  0  0  0  0  0  0  0  0  0
   20.4060  -53.9980   32.8530 C   0  0  0  0  0  0  0  0  0  0  0  0
   21.1940  -53.1830   33.4030 O   0  0  0  0  0  0  0  0  0  0  0  0
   21.0800  -56.6040   30.9530 C   0  0  0  0  0  0  0  0  0  0  0  0
   22.1880  -56.4800   29.9380 C   0  0  0  0  0  0  0  0  0  0  0  0
   21.6690  -56.9430   28.6700 N   0  0  0  0  0  0  0  0  0  0  0  0
   20.3960  -56.3160   28.4280 C   0  0  0  0  0  0  0  0  0  0  0  0
   20.1680  -55.0880   29.2730 C   0  0  0  0  0  0  0  0  0  0  0  0
   21.5500  -58.3980   28.7450 C   0  0  0  0  0  0  0  0  0  0  0  0
   20.4370  -53.3930   35.2700 H   0  0  0  0  0  0  0  0  0  0  0  0
   16.5540  -56.1840   34.1540 H   0  0  0  0  0  0  0  0  0  0  0  0
   16.8840  -55.4050   36.4920 H   0  0  0  0  0  0  0  0  0  0  0  0
   21.2590  -53.7100   30.9630 H   0  0  0  0  0  0  0  0  0  0  0  0
   21.5700  -56.5240   31.9620 H   0  0  0  0  0  0  0  0  0  0  0  0
   20.5490  -57.5510   30.9300 H   0  0  0  0  0  0  0  0  0  0  0  0
   22.4590  -55.4160   29.8490 H   0  0  0  0  0  0  0  0  0  0  0  0
   23.0750  -57.0340   30.2510 H   0  0  0  0  0  0  0  0  0  0  0  0
   19.6080  -57.0670   28.5360 H   0  0  0  0  0  0  0  0  0  0  0  0
   20.3890  -55.9830   27.3710 H   0  0  0  0  0  0  0  0  0  0  0  0
   20.9140  -54.3290   29.0440 H   0  0  0  0  0  0  0  0  0  0  0  0
   19.1730  -54.6820   28.9910 H   0  0  0  0  0  0  0  0  0  0  0  0
   20.4680  -58.6350   28.6380 H   0  0  0  0  0  0  0  0  0  0  0  0
   22.1570  -58.9040   27.9660 H   0  0  0  0  0  0  0  0  0  0  0  0
   21.9190  -58.7840   29.7270 H   0  0  0  0  0  0  0  0  0  0  0  0
  2  1  1  0  0  0  0
  3 23  1  0  0  0  0
  3  2  2  0  0  0  0
  4  3  1  0  0  0  0
  5  4  2  0  0  0  0
  5  6  1  0  0  0  0
  6  7  2  0  0  0  0
  7  2  1  0  0  0  0
  7 25  1  0  0  0  0
  8  5  1  0  0  0  0
  9  8  1  0  0  0  0
 10  9  2  0  0  0  0
 11 10  1  0  0  0  0
 11 12  2  0  0  0  0
 12  8  1  0  0  0  0
 13 17  1  0  0  0  0
 13 12  1  0  0  0  0
 13 14  1  0  0  0  0
 14 15  1  0  0  0  0
 15 16  2  0  0  0  0
 15  4  1  0  0  0  0
 17 27  1  0  0  0  0
 18 30  1  0  0  0  0
 18 17  1  0  0  0  0
 19 22  1  0  0  0  0
 19 18  1  0  0  0  0
 20 31  1  0  0  0  0
 20 19  1  0  0  0  0
 20 21  1  0  0  0  0
 21 13  1  0  0  0  0
 22 37  1  0  0  0  0
 24  6  1  0  0  0  0
 26 14  1  0  0  0  0
 28 17  1  0  0  0  0
 29 18  1  0  0  0  0
 32 20  1  0  0  0  0
 33 21  1  0  0  0  0
 34 21  1  0  0  0  0
 35 22  1  0  0  0  0
 36 22  1  0  0  0  0
M  END
>  <Pose>
1

>  <Score>
-5.67

$$$$
