
 OpenBabel03232204043D

 33 36  0  0  1  0  0  0  0  0999 V2000
   19.9320  -53.0300   35.1530 B   0  0  0  0  0  0  0  0  0  0  0  0
   18.6910  -54.3890   35.6190 C   0  0  0  0  0  0  0  0  0  0  0  0
   18.5240  -55.4510   34.7740 C   0  0  0  0  0  0  0  0  0  0  0  0
   17.6090  -56.4520   35.1180 C   0  0  0  0  0  0  0  0  0  0  0  0
   16.9180  -56.3370   36.2780 C   0  0  0  0  0  0  0  0  0  0  0  0
   17.0930  -55.2400   37.1470 C   0  0  0  0  0  0  0  0  0  0  0  0
   17.9920  -54.2590   36.8060 C   0  0  0  0  0  0  0  0  0  0  0  0
   16.0030  -57.3000   36.6640 O   0  0  0  0  0  0  0  0  0  0  0  0
   15.8040  -58.3870   35.8400 C   0  0  0  0  0  0  0  0  0  0  0  0
   16.4350  -58.5660   34.7050 C   0  0  0  0  0  0  0  0  0  0  0  0
   17.4170  -57.6070   34.2160 C   0  0  1  0  0  0  0  0  0  0  0  0
   17.1510  -57.1690   32.8250 C   0  0  0  0  0  0  0  0  0  0  0  0
   18.1920  -57.5720   32.0360 C   0  0  0  0  0  0  0  0  0  0  0  0
   17.9440  -57.1680   30.7550 N   0  0  0  0  0  0  0  0  0  0  0  0
   16.7820  -56.5400   30.7800 N   0  0  0  0  0  0  0  0  0  0  0  0
   16.2640  -56.5160   32.0150 C   0  0  0  0  0  0  0  0  0  0  0  0
   14.9600  -55.8780   32.3690 C   0  0  0  0  0  0  0  0  0  0  0  0
   19.1650  -58.2630   32.7900 N   0  0  0  0  0  0  0  0  0  0  0  0
   18.7200  -58.2990   34.1210 C   0  0  0  0  0  0  0  0  0  0  0  0
   19.3070  -58.8250   35.1050 O   0  0  0  0  0  0  0  0  0  0  0  0
   16.1720  -59.7330   33.8970 C   0  0  0  0  0  0  0  0  0  0  0  0
   15.9800  -60.6710   33.2450 N   0  0  0  0  0  0  0  0  0  0  0  0
   14.8490  -59.3780   36.2540 N   0  0  0  0  0  0  0  0  0  0  0  0
   19.0510  -55.5850   33.8430 H   0  0  0  0  0  0  0  0  0  0  0  0
   16.5250  -55.1750   38.0710 H   0  0  0  0  0  0  0  0  0  0  0  0
   18.1780  -53.3910   37.4230 H   0  0  0  0  0  0  0  0  0  0  0  0
   16.3610  -56.1270   29.9060 H   0  0  0  0  0  0  0  0  0  0  0  0
   14.7830  -55.9430   33.4470 H   0  0  0  0  0  0  0  0  0  0  0  0
   14.1520  -56.3710   31.7740 H   0  0  0  0  0  0  0  0  0  0  0  0
   14.9370  -54.8010   32.0670 H   0  0  0  0  0  0  0  0  0  0  0  0
   20.0740  -58.6760   32.3940 H   0  0  0  0  0  0  0  0  0  0  0  0
   13.8300  -59.1710   36.1820 H   0  0  0  0  0  0  0  0  0  0  0  0
   15.1380  -60.3100   36.6290 H   0  0  0  0  0  0  0  0  0  0  0  0
  1  2  1  0  0  0  0
  2  7  1  0  0  0  0
  3  4  1  0  0  0  0
  3  2  2  0  0  0  0
  4  5  2  0  0  0  0
  5  8  1  0  0  0  0
  5  6  1  0  0  0  0
  6 25  1  0  0  0  0
  7  6  2  0  0  0  0
  7 26  1  0  0  0  0
  9 23  1  0  0  0  0
  9  8  1  0  0  0  0
 10  9  2  0  0  0  0
 11 12  1  6  0  0  0
 11 10  1  0  0  0  0
 11  4  1  0  0  0  0
 13 18  1  0  0  0  0
 13 12  1  0  0  0  0
 14 15  1  0  0  0  0
 14 13  2  0  0  0  0
 15 16  1  0  0  0  0
 16 17  1  0  0  0  0
 16 12  2  0  0  0  0
 17 28  1  0  0  0  0
 18 19  1  0  0  0  0
 19 11  1  0  0  0  0
 19 20  2  0  0  0  0
 21 10  1  0  0  0  0
 22 21  3  0  0  0  0
 23 33  1  0  0  0  0
 24  3  1  0  0  0  0
 27 15  1  0  0  0  0
 29 17  1  0  0  0  0
 30 17  1  0  0  0  0
 31 18  1  0  0  0  0
 32 23  1  0  0  0  0
M  END
>  <Pose>
1

>  <Score>
-5.84

$$$$
