
 OpenBabel03232204043D

 44 47  0  0  0  0  0  0  0  0999 V2000
   15.5730  -53.3020   39.3790 B   0  0  0  0  0  0  0  0  0  0  0  0
   17.0160  -53.2580   38.1520 C   0  0  0  0  0  0  0  0  0  0  0  0
   16.9910  -53.9930   36.9800 C   0  0  0  0  0  0  0  0  0  0  0  0
   18.0160  -53.9830   36.0510 C   0  0  0  0  0  0  0  0  0  0  0  0
   19.1140  -53.1910   36.3190 C   0  0  0  0  0  0  0  0  0  0  0  0
   19.1960  -52.4320   37.4770 C   0  0  0  0  0  0  0  0  0  0  0  0
   18.1560  -52.4720   38.3760 C   0  0  0  0  0  0  0  0  0  0  0  0
   20.1170  -53.1630   35.4390 O   0  0  0  0  0  0  0  0  0  0  0  0
   20.1150  -53.8400   34.3460 C   0  0  0  0  0  0  0  0  0  0  0  0
   21.0640  -53.8170   33.5020 O   0  0  0  0  0  0  0  0  0  0  0  0
   19.0480  -54.6510   34.0210 C   0  0  0  0  0  0  0  0  0  0  0  0
   17.9860  -54.7190   34.8930 C   0  0  0  0  0  0  0  0  0  0  0  0
   19.0580  -55.4480   32.7950 C   0  0  0  0  0  0  0  0  0  0  0  0
   19.5360  -54.9230   31.6050 C   0  0  0  0  0  0  0  0  0  0  0  0
   19.5930  -55.7050   30.4710 C   0  0  0  0  0  0  0  0  0  0  0  0
   20.0460  -55.1530   29.4190 O   0  0  0  0  0  0  0  0  0  0  0  0
   19.1990  -56.9410   30.4970 O   0  0  0  0  0  0  0  0  0  0  0  0
   18.7460  -57.4850   31.5600 C   0  0  0  0  0  0  0  0  0  0  0  0
   18.6550  -56.7600   32.7630 C   0  0  0  0  0  0  0  0  0  0  0  0
   18.1560  -57.3640   33.8800 C   0  0  0  0  0  0  0  0  0  0  0  0
   17.7570  -58.7010   33.7780 C   0  0  0  0  0  0  0  0  0  0  0  0
   17.8640  -59.3870   32.5840 C   0  0  0  0  0  0  0  0  0  0  0  0
   18.3590  -58.8070   31.4370 C   0  0  0  0  0  0  0  0  0  0  0  0
   18.5330  -59.6140   30.2600 C   0  0  0  0  0  0  0  0  0  0  0  0
   19.7360  -60.2520   29.9090 N   0  0  0  0  0  4  0  0  0  0  0  0
   19.6680  -61.6350   29.5260 C   0  0  0  0  0  0  0  0  0  0  0  0
   20.5530  -59.4390   28.9720 C   0  0  0  0  0  0  0  0  0  0  0  0
   17.4390  -60.7330   32.5900 O   0  0  0  0  0  0  0  0  0  0  0  0
   16.1210  -54.6220   36.7380 H   0  0  0  0  0  0  0  0  0  0  0  0
   20.0870  -51.8440   37.6260 H   0  0  0  0  0  0  0  0  0  0  0  0
   18.1510  -51.9070   39.3010 H   0  0  0  0  0  0  0  0  0  0  0  0
   17.1040  -55.3670   34.7060 H   0  0  0  0  0  0  0  0  0  0  0  0
   19.8500  -53.8810   31.5990 H   0  0  0  0  0  0  0  0  0  0  0  0
   18.0440  -56.8220   34.8110 H   0  0  0  0  0  0  0  0  0  0  0  0
   17.3760  -59.1530   34.6820 H   0  0  0  0  0  0  0  0  0  0  0  0
   18.2920  -58.9180   29.3680 H   0  0  0  0  0  0  0  0  0  0  0  0
   17.6910  -60.3570   30.1630 H   0  0  0  0  0  0  0  0  0  0  0  0
   20.3390  -60.2720   30.7820 H   0  0  0  0  0  0  0  0  0  0  0  0
   19.6740  -61.8000   28.4170 H   0  0  0  0  0  0  0  0  0  0  0  0
   18.8480  -62.2100   30.0120 H   0  0  0  0  0  0  0  0  0  0  0  0
   20.6000  -62.2190   29.8410 H   0  0  0  0  0  0  0  0  0  0  0  0
   20.0070  -58.5030   28.6830 H   0  0  0  0  0  0  0  0  0  0  0  0
   21.4710  -59.0240   29.4630 H   0  0  0  0  0  0  0  0  0  0  0  0
   20.9060  -60.0490   28.1370 H   0  0  0  0  0  0  0  0  0  0  0  0
  2  7  1  0  0  0  0
  2  1  1  0  0  0  0
  3  2  2  0  0  0  0
  4  5  2  0  0  0  0
  4  3  1  0  0  0  0
  5  6  1  0  0  0  0
  6 30  1  0  0  0  0
  6  7  2  0  0  0  0
  7 31  1  0  0  0  0
  8  5  1  0  0  0  0
  9  8  1  0  0  0  0
 10  9  2  0  0  0  0
 11  9  1  0  0  0  0
 11 12  2  0  0  0  0
 12  4  1  0  0  0  0
 13 11  1  0  0  0  0
 14 13  2  0  0  0  0
 15 17  1  0  0  0  0
 15 14  1  0  0  0  0
 16 15  2  0  0  0  0
 17 18  1  0  0  0  0
 18 19  1  0  0  0  0
 19 13  1  0  0  0  0
 19 20  2  0  0  0  0
 20 34  1  0  0  0  0
 21 20  1  0  0  0  0
 21 35  1  0  0  0  0
 22 28  1  0  0  0  0
 22 21  2  0  0  0  0
 23 18  2  0  0  0  0
 23 22  1  0  0  0  0
 24 23  1  0  0  0  0
 25 24  1  0  0  0  0
 25 38  1  0  0  0  0
 26 41  1  0  0  0  0
 26 25  1  0  0  0  0
 26 40  1  0  0  0  0
 27 43  1  0  0  0  0
 27 25  1  0  0  0  0
 29  3  1  0  0  0  0
 32 12  1  0  0  0  0
 33 14  1  0  0  0  0
 36 24  1  0  0  0  0
 37 24  1  0  0  0  0
 39 26  1  0  0  0  0
 42 27  1  0  0  0  0
 44 27  1  0  0  0  0
M  END
>  <Pose>
1

>  <Score>
-6.29

$$$$
