
 OpenBabel03232204043D

 51 54  0  0  0  0  0  0  0  0999 V2000
   12.7340  -60.5510   36.1310 B   0  0  0  0  0  0  0  0  0  0  0  0
   13.4770  -59.0110   36.9780 C   0  0  0  0  0  0  0  0  0  0  0  0
   14.5780  -58.3590   36.4290 C   0  0  0  0  0  0  0  0  0  0  0  0
   15.1180  -57.2380   37.0430 C   0  0  0  0  0  0  0  0  0  0  0  0
   14.5650  -56.7590   38.2110 C   0  0  0  0  0  0  0  0  0  0  0  0
   15.0890  -55.6610   38.8110 N   0  0  0  0  0  0  0  0  0  0  0  0
   16.1500  -55.0110   38.2990 C   0  0  0  0  0  0  0  0  0  0  0  0
   16.6740  -55.4910   37.1640 N   0  0  0  0  0  0  0  0  0  0  0  0
   16.2070  -56.5740   36.5160 C   0  0  0  0  0  0  0  0  0  0  0  0
   16.8490  -57.0140   35.2880 C   0  0  0  0  0  0  0  0  0  0  0  0
   16.6030  -56.3540   34.0920 C   0  0  0  0  0  0  0  0  0  0  0  0
   17.2040  -56.7330   32.9110 C   0  0  0  0  0  0  0  0  0  0  0  0
   18.0850  -57.7940   32.8690 C   0  0  0  0  0  0  0  0  0  0  0  0
   18.3300  -58.4530   34.0680 C   0  0  0  0  0  0  0  0  0  0  0  0
   17.7250  -58.0680   35.2440 C   0  0  0  0  0  0  0  0  0  0  0  0
   15.4800  -54.9920   34.1140 Cl  0  0  0  0  0  0  0  0  0  0  0  0
   16.6750  -53.8530   38.9600 N   0  0  0  0  0  4  0  0  0  0  0  0
   16.5870  -52.7090   38.0930 C   0  0  0  0  0  0  0  0  0  0  0  0
   17.6000  -52.6850   36.9990 C   0  0  0  0  0  0  0  0  0  0  0  0
   18.6620  -53.6440   37.2050 N   0  0  0  0  0  0  0  0  0  0  0  0
   19.1110  -53.8350   38.5670 C   0  0  0  0  0  0  0  0  0  0  0  0
   17.9760  -54.0610   39.5170 C   0  0  0  0  0  0  0  0  0  0  0  0
   19.1890  -54.3270   36.0820 C   0  0  0  0  0  0  0  0  0  0  0  0
   20.1940  -55.0630   36.1910 O   0  0  0  0  0  0  0  0  0  0  0  0
   18.4840  -54.1170   34.7840 C   0  0  0  0  0  0  0  0  0  0  0  0
   19.4470  -54.0710   33.6360 C   0  0  0  0  0  0  0  0  0  0  0  0
   20.5450  -53.1120   33.8350 C   0  0  0  0  0  0  0  0  0  0  0  0
   20.3990  -52.0900   34.5370 O   0  0  0  0  0  0  0  0  0  0  0  0
   21.7650  -53.3460   33.2350 O   0  0  0  0  0  0  0  0  0  0  0  0
   13.4680  -57.4270   38.7400 C   0  0  0  0  0  0  0  0  0  0  0  0
   12.9150  -58.5400   38.1460 C   0  0  0  0  0  0  0  0  0  0  0  0
   15.0050  -58.7230   35.5240 H   0  0  0  0  0  0  0  0  0  0  0  0
   17.0100  -56.2190   31.9790 H   0  0  0  0  0  0  0  0  0  0  0  0
   18.5630  -58.0980   31.9440 H   0  0  0  0  0  0  0  0  0  0  0  0
   19.0160  -59.2870   34.0580 H   0  0  0  0  0  0  0  0  0  0  0  0
   17.9660  -58.6190   36.1350 H   0  0  0  0  0  0  0  0  0  0  0  0
   15.9860  -53.6670   39.7490 H   0  0  0  0  0  0  0  0  0  0  0  0
   15.5620  -52.6690   37.6800 H   0  0  0  0  0  0  0  0  0  0  0  0
   16.7120  -51.8070   38.7450 H   0  0  0  0  0  0  0  0  0  0  0  0
   18.0980  -51.6750   36.9770 H   0  0  0  0  0  0  0  0  0  0  0  0
   17.0850  -52.8280   36.0280 H   0  0  0  0  0  0  0  0  0  0  0  0
   19.8670  -54.6440   38.6480 H   0  0  0  0  0  0  0  0  0  0  0  0
   19.5900  -52.8530   38.8520 H   0  0  0  0  0  0  0  0  0  0  0  0
   18.0640  -53.3760   40.4030 H   0  0  0  0  0  0  0  0  0  0  0  0
   18.0120  -55.1020   39.9150 H   0  0  0  0  0  0  0  0  0  0  0  0
   17.8040  -54.9790   34.6220 H   0  0  0  0  0  0  0  0  0  0  0  0
   17.8480  -53.2100   34.8050 H   0  0  0  0  0  0  0  0  0  0  0  0
   18.8770  -53.7380   32.7340 H   0  0  0  0  0  0  0  0  0  0  0  0
   19.8310  -55.0880   33.4150 H   0  0  0  0  0  0  0  0  0  0  0  0
   13.0380  -57.0590   39.6440 H   0  0  0  0  0  0  0  0  0  0  0  0
   12.0610  -59.0740   38.5430 H   0  0  0  0  0  0  0  0  0  0  0  0
  1  2  1  0  0  0  0
  2 31  1  0  0  0  0
  3  2  2  0  0  0  0
  3  4  1  0  0  0  0
  4  5  2  0  0  0  0
  5 30  1  0  0  0  0
  5  6  1  0  0  0  0
  7  6  2  0  0  0  0
  7 17  1  0  0  0  0
  8  7  1  0  0  0  0
  9  4  1  0  0  0  0
  9  8  2  0  0  0  0
 10  9  1  0  0  0  0
 11 16  1  0  0  0  0
 11 10  2  0  0  0  0
 12 11  1  0  0  0  0
 13 12  2  0  0  0  0
 13 14  1  0  0  0  0
 14 15  2  0  0  0  0
 15 10  1  0  0  0  0
 15 36  1  0  0  0  0
 17 22  1  0  0  0  0
 17 37  1  0  0  0  0
 18 39  1  0  0  0  0
 18 17  1  0  0  0  0
 19 20  1  0  0  0  0
 19 18  1  0  0  0  0
 20 21  1  0  0  0  0
 21 42  1  0  0  0  0
 21 43  1  0  0  0  0
 21 22  1  0  0  0  0
 22 45  1  0  0  0  0
 22 44  1  0  0  0  0
 23 24  2  0  0  0  0
 23 20  1  0  0  0  0
 25 47  1  0  0  0  0
 25 23  1  0  0  0  0
 26 27  1  0  0  0  0
 26 25  1  0  0  0  0
 27 28  1  0  0  0  0
 29 27  2  0  0  0  0
 30 50  1  0  0  0  0
 31 51  1  0  0  0  0
 31 30  2  0  0  0  0
 32  3  1  0  0  0  0
 33 12  1  0  0  0  0
 34 13  1  0  0  0  0
 35 14  1  0  0  0  0
 38 18  1  0  0  0  0
 40 19  1  0  0  0  0
 41 19  1  0  0  0  0
 46 25  1  0  0  0  0
 48 26  1  0  0  0  0
 49 26  1  0  0  0  0
M  END
>  <Pose>
1

>  <Score>
-5.81

$$$$
