
 OpenBabel03232204043D

 54 57  0  0  0  0  0  0  0  0999 V2000
   18.2170  -52.9550   37.3590 B   0  0  0  0  0  0  0  0  0  0  0  0
   16.7890  -54.0490   38.0050 C   0  0  0  0  0  0  0  0  0  0  0  0
   16.4300  -55.2310   37.3810 C   0  0  0  0  0  0  0  0  0  0  0  0
   15.4060  -56.0410   37.8200 C   0  0  0  0  0  0  0  0  0  0  0  0
   14.6810  -55.6800   38.9420 C   0  0  0  0  0  0  0  0  0  0  0  0
   13.6640  -56.4590   39.3870 N   0  0  0  0  0  0  0  0  0  0  0  0
   13.3120  -57.6030   38.7760 C   0  0  0  0  0  0  0  0  0  0  0  0
   14.0170  -57.9560   37.6860 N   0  0  0  0  0  0  0  0  0  0  0  0
   15.0400  -57.2130   37.2010 C   0  0  0  0  0  0  0  0  0  0  0  0
   15.7680  -57.6410   36.0160 C   0  0  0  0  0  0  0  0  0  0  0  0
   15.1240  -57.9010   34.8160 C   0  0  0  0  0  0  0  0  0  0  0  0
   15.8020  -58.3270   33.6880 C   0  0  0  0  0  0  0  0  0  0  0  0
   17.1880  -58.4920   33.7920 C   0  0  0  0  0  0  0  0  0  0  0  0
   17.8590  -58.2420   34.9700 C   0  0  0  0  0  0  0  0  0  0  0  0
   17.1520  -57.8260   36.0530 C   0  0  0  0  0  0  0  0  0  0  0  0
   13.3840  -57.6870   34.7130 Cl  0  0  0  0  0  0  0  0  0  0  0  0
   12.2390  -58.3950   39.2720 N   0  0  0  0  0  4  0  0  0  0  0  0
   12.7070  -59.3410   40.2600 C   0  0  0  0  0  0  0  0  0  0  0  0
   11.5330  -59.8130   41.0590 C   0  0  0  0  0  0  0  0  0  0  0  0
   10.3200  -59.4600   40.3520 N   0  0  0  0  0  0  0  0  0  0  0  0
   10.2880  -59.7070   38.9220 C   0  0  0  0  0  0  0  0  0  0  0  0
   11.5440  -59.1360   38.2520 C   0  0  0  0  0  0  0  0  0  0  0  0
    9.2480  -58.9040   41.0720 C   0  0  0  0  0  0  0  0  0  0  0  0
    8.5320  -59.6810   41.7510 O   0  0  0  0  0  0  0  0  0  0  0  0
    8.9460  -57.4710   41.0520 C   0  0  0  0  0  0  0  0  0  0  0  0
    7.5240  -57.2440   41.4750 C   0  0  0  0  0  0  0  0  0  0  0  0
    7.2170  -55.7840   41.7230 C   0  0  0  0  0  0  0  0  0  0  0  0
    7.8420  -55.2610   42.9540 C   0  0  0  0  0  0  0  0  0  0  0  0
    8.8300  -54.5000   42.8210 O   0  0  0  0  0  0  0  0  0  0  0  0
    7.3360  -55.6140   44.1960 O   0  0  0  0  0  0  0  0  0  0  0  0
   15.0320  -54.5060   39.5700 C   0  0  0  0  0  0  0  0  0  0  0  0
   16.0650  -53.6920   39.1220 C   0  0  0  0  0  0  0  0  0  0  0  0
   16.9990  -55.4910   36.5000 H   0  0  0  0  0  0  0  0  0  0  0  0
   15.2940  -58.5290   32.7490 H   0  0  0  0  0  0  0  0  0  0  0  0
   17.7190  -58.8300   32.8960 H   0  0  0  0  0  0  0  0  0  0  0  0
   18.9450  -58.3730   35.0390 H   0  0  0  0  0  0  0  0  0  0  0  0
   17.6710  -57.6340   36.9800 H   0  0  0  0  0  0  0  0  0  0  0  0
   11.5560  -57.7450   39.7130 H   0  0  0  0  0  0  0  0  0  0  0  0
   13.4550  -58.8110   40.8850 H   0  0  0  0  0  0  0  0  0  0  0  0
   13.2300  -60.1560   39.7160 H   0  0  0  0  0  0  0  0  0  0  0  0
   11.5850  -59.3260   42.0550 H   0  0  0  0  0  0  0  0  0  0  0  0
   11.5870  -60.9100   41.2230 H   0  0  0  0  0  0  0  0  0  0  0  0
   10.3390  -60.8070   38.7910 H   0  0  0  0  0  0  0  0  0  0  0  0
    9.3700  -59.3640   38.4400 H   0  0  0  0  0  0  0  0  0  0  0  0
   12.1530  -59.9220   37.7920 H   0  0  0  0  0  0  0  0  0  0  0  0
   11.1910  -58.4720   37.4520 H   0  0  0  0  0  0  0  0  0  0  0  0
    9.5830  -56.8880   41.7780 H   0  0  0  0  0  0  0  0  0  0  0  0
    9.1600  -57.0090   40.0670 H   0  0  0  0  0  0  0  0  0  0  0  0
    6.8050  -57.5740   40.6810 H   0  0  0  0  0  0  0  0  0  0  0  0
    7.2660  -57.8180   42.3770 H   0  0  0  0  0  0  0  0  0  0  0  0
    6.1180  -55.6920   41.8290 H   0  0  0  0  0  0  0  0  0  0  0  0
    7.5120  -55.1910   40.8200 H   0  0  0  0  0  0  0  0  0  0  0  0
   14.4650  -54.2210   40.4490 H   0  0  0  0  0  0  0  0  0  0  0  0
   16.3480  -52.7730   39.6070 H   0  0  0  0  0  0  0  0  0  0  0  0
  1  2  1  0  0  0  0
  2 32  1  0  0  0  0
  3  4  1  0  0  0  0
  3  2  2  0  0  0  0
  4  5  2  0  0  0  0
  5  6  1  0  0  0  0
  5 31  1  0  0  0  0
  7 17  1  0  0  0  0
  7  6  2  0  0  0  0
  8  7  1  0  0  0  0
  9  8  2  0  0  0  0
  9  4  1  0  0  0  0
 10 15  1  0  0  0  0
 10  9  1  0  0  0  0
 11 10  2  0  0  0  0
 12 13  2  0  0  0  0
 12 11  1  0  0  0  0
 13 14  1  0  0  0  0
 14 36  1  0  0  0  0
 14 15  2  0  0  0  0
 15 37  1  0  0  0  0
 16 11  1  0  0  0  0
 17 38  1  0  0  0  0
 17 18  1  0  0  0  0
 18 39  1  0  0  0  0
 18 19  1  0  0  0  0
 19 42  1  0  0  0  0
 19 41  1  0  0  0  0
 20 19  1  0  0  0  0
 20 23  1  0  0  0  0
 21 20  1  0  0  0  0
 22 21  1  0  0  0  0
 22 17  1  0  0  0  0
 23 24  2  0  0  0  0
 25 23  1  0  0  0  0
 25 26  1  0  0  0  0
 25 47  1  0  0  0  0
 26 27  1  0  0  0  0
 26 50  1  0  0  0  0
 27 51  1  0  0  0  0
 27 28  1  0  0  0  0
 28 30  1  0  0  0  0
 29 28  2  0  0  0  0
 31 53  1  0  0  0  0
 32 31  2  0  0  0  0
 32 54  1  0  0  0  0
 33  3  1  0  0  0  0
 34 12  1  0  0  0  0
 35 13  1  0  0  0  0
 40 18  1  0  0  0  0
 43 21  1  0  0  0  0
 44 21  1  0  0  0  0
 45 22  1  0  0  0  0
 46 22  1  0  0  0  0
 48 25  1  0  0  0  0
 49 26  1  0  0  0  0
 52 27  1  0  0  0  0
M  END
>  <Pose>
1

>  <Score>
-7.41

$$$$
