
 OpenBabel03232204043D

 50 53  0  0  0  0  0  0  0  0999 V2000
   20.2490  -56.0640   28.6780 B   0  0  0  0  0  0  0  0  0  0  0  0
   19.6340  -55.6200   30.4400 C   0  0  0  0  0  0  0  0  0  0  0  0
   20.2560  -54.6680   31.2060 C   0  0  0  0  0  0  0  0  0  0  0  0
   19.8020  -54.3510   32.4890 C   0  0  0  0  0  0  0  0  0  0  0  0
   18.7120  -54.9990   33.0030 C   0  0  0  0  0  0  0  0  0  0  0  0
   18.4750  -54.5120   34.2610 N   0  0  0  0  0  0  0  0  0  0  0  0
   19.3650  -53.5720   34.5900 C   0  0  0  0  0  0  0  0  0  0  0  0
   20.2080  -53.4750   33.4550 C   0  0  0  0  0  0  0  0  0  0  0  0
   19.5410  -52.7780   35.7910 C   0  0  0  0  0  0  0  0  0  0  0  0
   20.4150  -51.8300   35.7750 O   0  0  0  0  0  0  0  0  0  0  0  0
   18.8460  -52.9410   36.9890 N   0  0  0  0  0  0  0  0  0  0  0  0
   17.8790  -52.0340   37.5460 C   0  0  0  0  0  0  0  0  0  0  0  0
   17.2710  -52.5660   38.8510 C   0  0  0  0  0  0  0  0  0  0  0  0
   16.8650  -53.9470   38.6420 N   0  0  0  0  0  0  0  0  0  0  0  0
   17.7520  -54.8650   37.9260 C   0  0  0  0  0  0  0  0  0  0  0  0
   19.1010  -54.1500   37.8180 C   0  0  0  0  0  0  0  0  0  0  0  0
   15.6240  -54.4240   39.1170 C   0  0  0  0  0  0  0  0  0  0  0  0
   14.8380  -53.5820   39.6130 O   0  0  0  0  0  0  0  0  0  0  0  0
   15.3150  -55.8420   39.0100 C   0  0  0  0  0  0  0  0  0  0  0  0
   14.5260  -56.2110   37.8560 N   0  0  0  0  0  0  0  0  0  0  0  0
   13.4140  -57.0590   38.2930 C   0  0  0  0  0  0  0  0  0  0  0  0
   13.7390  -58.5020   38.1160 C   0  0  0  0  0  0  0  0  0  0  0  0
   15.0890  -58.7380   38.3660 O   0  0  0  0  0  0  0  0  0  0  0  0
   15.8930  -58.1850   37.3670 C   0  0  0  0  0  0  0  0  0  0  0  0
   15.3000  -56.8990   36.8380 C   0  0  0  0  0  0  0  0  0  0  0  0
   18.0790  -55.9590   32.2380 C   0  0  0  0  0  0  0  0  0  0  0  0
   18.5380  -56.2680   30.9650 C   0  0  0  0  0  0  0  0  0  0  0  0
   21.1190  -54.1400   30.8240 H   0  0  0  0  0  0  0  0  0  0  0  0
   17.6890  -54.8660   34.8250 H   0  0  0  0  0  0  0  0  0  0  0  0
   21.0410  -52.8080   33.3730 H   0  0  0  0  0  0  0  0  0  0  0  0
   17.0550  -51.9350   36.7880 H   0  0  0  0  0  0  0  0  0  0  0  0
   18.3520  -51.0780   37.8200 H   0  0  0  0  0  0  0  0  0  0  0  0
   18.0070  -52.5290   39.6730 H   0  0  0  0  0  0  0  0  0  0  0  0
   16.4130  -51.9420   39.0940 H   0  0  0  0  0  0  0  0  0  0  0  0
   17.9020  -55.8070   38.4990 H   0  0  0  0  0  0  0  0  0  0  0  0
   17.4120  -55.0870   36.9080 H   0  0  0  0  0  0  0  0  0  0  0  0
   19.4800  -53.8550   38.8050 H   0  0  0  0  0  0  0  0  0  0  0  0
   19.8300  -54.7910   37.3240 H   0  0  0  0  0  0  0  0  0  0  0  0
   14.6920  -56.1170   39.9060 H   0  0  0  0  0  0  0  0  0  0  0  0
   16.2080  -56.5010   39.0540 H   0  0  0  0  0  0  0  0  0  0  0  0
   13.2250  -56.8690   39.3770 H   0  0  0  0  0  0  0  0  0  0  0  0
   12.5120  -56.7550   37.7260 H   0  0  0  0  0  0  0  0  0  0  0  0
   13.1640  -59.0750   38.8800 H   0  0  0  0  0  0  0  0  0  0  0  0
   13.4900  -58.8880   37.0970 H   0  0  0  0  0  0  0  0  0  0  0  0
   16.9120  -58.0930   37.7490 H   0  0  0  0  0  0  0  0  0  0  0  0
   15.9130  -58.9100   36.5290 H   0  0  0  0  0  0  0  0  0  0  0  0
   16.0780  -56.2760   36.4230 H   0  0  0  0  0  0  0  0  0  0  0  0
   14.5820  -57.1700   36.0370 H   0  0  0  0  0  0  0  0  0  0  0  0
   17.2090  -56.4760   32.6510 H   0  0  0  0  0  0  0  0  0  0  0  0
   18.0370  -57.0290   30.3540 H   0  0  0  0  0  0  0  0  0  0  0  0
  1  2  1  0  0  0  0
  2 27  2  0  0  0  0
  2  3  1  0  0  0  0
  3  4  2  0  0  0  0
  4  5  1  0  0  0  0
  4  8  1  0  0  0  0
  5  6  1  0  0  0  0
  6  7  1  0  0  0  0
  6 29  1  0  0  0  0
  7  9  1  0  0  0  0
  8  7  2  0  0  0  0
  9 11  1  0  0  0  0
 10  9  2  0  0  0  0
 11 12  1  0  0  0  0
 11 16  1  0  0  0  0
 12 32  1  0  0  0  0
 12 13  1  0  0  0  0
 13 34  1  0  0  0  0
 13 33  1  0  0  0  0
 14 13  1  0  0  0  0
 14 17  1  0  0  0  0
 15 35  1  0  0  0  0
 15 14  1  0  0  0  0
 16 15  1  0  0  0  0
 16 37  1  0  0  0  0
 17 18  2  0  0  0  0
 19 40  1  0  0  0  0
 19 17  1  0  0  0  0
 19 39  1  0  0  0  0
 20 21  1  0  0  0  0
 20 19  1  0  0  0  0
 21 41  1  0  0  0  0
 22 21  1  0  0  0  0
 22 23  1  0  0  0  0
 22 43  1  0  0  0  0
 24 45  1  0  0  0  0
 24 23  1  0  0  0  0
 25 24  1  0  0  0  0
 25 20  1  0  0  0  0
 26 49  1  0  0  0  0
 26  5  2  0  0  0  0
 27 26  1  0  0  0  0
 28  3  1  0  0  0  0
 30  8  1  0  0  0  0
 31 12  1  0  0  0  0
 36 15  1  0  0  0  0
 38 16  1  0  0  0  0
 42 21  1  0  0  0  0
 44 22  1  0  0  0  0
 46 24  1  0  0  0  0
 47 25  1  0  0  0  0
 48 25  1  0  0  0  0
 50 27  1  0  0  0  0
M  END
>  <Pose>
1

>  <Score>
-7.51

$$$$
