
 OpenBabel03232204043D

 37 40  0  0  0  0  0  0  0  0999 V2000
   11.3080  -60.3360   37.9700 B   0  0  0  0  0  0  0  0  0  0  0  0
   12.7570  -59.1600   37.5890 C   0  0  0  0  0  0  0  0  0  0  0  0
   13.5430  -59.4070   36.4840 C   0  0  0  0  0  0  0  0  0  0  0  0
   14.6170  -58.5610   36.1780 C   0  0  0  0  0  0  0  0  0  0  0  0
   14.8530  -57.5030   36.9950 C   0  0  0  0  0  0  0  0  0  0  0  0
   14.0950  -57.2150   38.1090 C   0  0  0  0  0  0  0  0  0  0  0  0
   13.0510  -58.0580   38.3890 C   0  0  0  0  0  0  0  0  0  0  0  0
   14.4460  -56.1150   38.8460 C   0  0  0  0  0  0  0  0  0  0  0  0
   13.7710  -55.8450   39.8530 O   0  0  0  0  0  0  0  0  0  0  0  0
   15.5160  -55.2990   38.5110 C   0  0  0  0  0  0  0  0  0  0  0  0
   16.2330  -55.6420   37.3850 C   0  0  0  0  0  0  0  0  0  0  0  0
   15.8900  -56.7420   36.6400 N   0  0  0  0  0  0  0  0  0  0  0  0
   16.4560  -57.3190   35.4410 C   0  0  0  0  0  0  0  0  0  0  0  0
   15.6300  -58.5310   35.1080 C   0  0  0  0  0  0  0  0  0  0  0  0
   15.8750  -54.1300   39.3060 C   0  0  0  0  0  0  0  0  0  0  0  0
   15.1190  -53.7680   40.2360 O   0  0  0  0  0  0  0  0  0  0  0  0
   17.0780  -53.3980   39.0330 N   0  0  0  0  0  0  0  0  0  0  0  0
   17.0530  -52.0920   38.4100 C   0  0  0  0  0  0  0  0  0  0  0  0
   17.9810  -52.1860   37.1920 C   0  0  0  0  0  0  0  0  0  0  0  0
   19.2080  -52.6600   37.5900 O   0  0  0  0  0  0  0  0  0  0  0  0
   19.1850  -53.9520   38.0720 C   0  0  0  0  0  0  0  0  0  0  0  0
   18.3780  -53.9430   39.3730 C   0  0  0  0  0  0  0  0  0  0  0  0
   13.3720  -60.2430   35.8220 H   0  0  0  0  0  0  0  0  0  0  0  0
   12.4480  -57.8530   39.2500 H   0  0  0  0  0  0  0  0  0  0  0  0
   17.0800  -55.0710   37.0450 H   0  0  0  0  0  0  0  0  0  0  0  0
   17.5180  -57.6380   35.6440 H   0  0  0  0  0  0  0  0  0  0  0  0
   16.4780  -56.5910   34.6030 H   0  0  0  0  0  0  0  0  0  0  0  0
   15.1750  -58.4360   34.0950 H   0  0  0  0  0  0  0  0  0  0  0  0
   16.2430  -59.4750   35.1660 H   0  0  0  0  0  0  0  0  0  0  0  0
   17.5740  -51.3660   39.0990 H   0  0  0  0  0  0  0  0  0  0  0  0
   16.0500  -51.7590   38.1240 H   0  0  0  0  0  0  0  0  0  0  0  0
   18.1070  -51.2090   36.7140 H   0  0  0  0  0  0  0  0  0  0  0  0
   17.5500  -52.8720   36.4520 H   0  0  0  0  0  0  0  0  0  0  0  0
   20.2220  -54.2250   38.3530 H   0  0  0  0  0  0  0  0  0  0  0  0
   18.7310  -54.6830   37.3570 H   0  0  0  0  0  0  0  0  0  0  0  0
   18.8810  -53.1570   40.0080 H   0  0  0  0  0  0  0  0  0  0  0  0
   18.3400  -54.9200   39.8480 H   0  0  0  0  0  0  0  0  0  0  0  0
  2  1  1  0  0  0  0
  2  7  1  0  0  0  0
  3  2  2  0  0  0  0
  4  3  1  0  0  0  0
  4  5  2  0  0  0  0
  5  6  1  0  0  0  0
  6  7  2  0  0  0  0
  6  8  1  0  0  0  0
  7 24  1  0  0  0  0
  8  9  2  0  0  0  0
 10  8  1  0  0  0  0
 10 15  1  0  0  0  0
 11 10  2  0  0  0  0
 12  5  1  0  0  0  0
 12 11  1  0  0  0  0
 13 26  1  0  0  0  0
 13 12  1  0  0  0  0
 14 29  1  0  0  0  0
 14 13  1  0  0  0  0
 14  4  1  0  0  0  0
 15 16  2  0  0  0  0
 17 15  1  0  0  0  0
 17 22  1  0  0  0  0
 18 17  1  0  0  0  0
 18 30  1  0  0  0  0
 19 20  1  0  0  0  0
 19 18  1  0  0  0  0
 20 21  1  0  0  0  0
 21 34  1  0  0  0  0
 21 22  1  0  0  0  0
 22 37  1  0  0  0  0
 22 36  1  0  0  0  0
 23  3  1  0  0  0  0
 25 11  1  0  0  0  0
 27 13  1  0  0  0  0
 28 14  1  0  0  0  0
 31 18  1  0  0  0  0
 32 19  1  0  0  0  0
 33 19  1  0  0  0  0
 35 21  1  0  0  0  0
M  END
>  <Pose>
1

>  <Score>
-6.14

$$$$
