
 OpenBabel03232204043D

 55 58  0  0  0  0  0  0  0  0999 V2000
   14.2330  -56.5290   39.1620 B   0  0  0  0  0  0  0  0  0  0  0  0
   15.5540  -55.4300   38.3880 C   0  0  0  0  0  0  0  0  0  0  0  0
   16.2490  -55.8280   37.2570 C   0  0  0  0  0  0  0  0  0  0  0  0
   17.2220  -55.0590   36.6880 C   0  0  0  0  0  0  0  0  0  0  0  0
   17.9600  -55.2580   35.5550 N   0  0  0  0  0  0  0  0  0  0  0  0
   18.7270  -54.1670   35.3830 C   0  0  0  0  0  0  0  0  0  0  0  0
   18.4930  -53.2610   36.4520 C   0  0  0  0  0  0  0  0  0  0  0  0
   17.5380  -53.8630   37.2310 C   0  0  0  0  0  0  0  0  0  0  0  0
   16.8500  -53.4390   38.3700 C   0  0  0  0  0  0  0  0  0  0  0  0
   15.8570  -54.2090   38.9590 C   0  0  0  0  0  0  0  0  0  0  0  0
   15.1410  -53.8050   40.1000 O   0  0  0  0  0  0  0  0  0  0  0  0
   19.2370  -52.0380   36.7810 C   0  0  0  0  0  0  0  0  0  0  0  0
   19.1800  -51.6310   37.9730 O   0  0  0  0  0  0  0  0  0  0  0  0
   19.9900  -51.3150   35.9180 O   0  0  0  0  0  0  0  0  0  0  0  0
   20.9500  -50.3410   36.1210 C   0  0  0  0  0  0  0  0  0  0  0  0
   20.4210  -48.9130   36.0870 C   0  0  0  0  0  0  0  0  0  0  0  0
   19.6280  -53.8250   34.2820 C   0  0  0  0  0  0  0  0  0  0  0  0
   19.6250  -54.6380   33.1070 N   0  0  0  0  0  4  0  0  0  0  0  0
   20.6260  -54.9590   32.2510 C   0  0  0  0  0  0  0  0  0  0  0  0
   20.0120  -55.0950   30.8370 C   0  0  0  0  0  0  0  0  0  0  0  0
   18.5760  -55.4600   31.2060 C   0  0  0  0  0  0  0  0  0  0  0  0
   18.3760  -54.4700   32.3460 C   0  0  0  0  0  0  0  0  0  0  0  0
   18.0550  -56.5930   34.9320 C   0  0  0  0  0  0  0  0  0  0  0  0
   16.6100  -57.1420   34.9310 C   0  0  0  0  0  0  0  0  0  0  0  0
   15.9270  -56.9870   33.7600 C   0  0  0  0  0  0  0  0  0  0  0  0
   14.6110  -57.4720   33.6790 C   0  0  0  0  0  0  0  0  0  0  0  0
   13.9910  -58.0980   34.7190 C   0  0  0  0  0  0  0  0  0  0  0  0
   14.7320  -58.2360   35.8930 C   0  0  0  0  0  0  0  0  0  0  0  0
   16.0430  -57.7520   35.9890 C   0  0  0  0  0  0  0  0  0  0  0  0
   16.0130  -56.7800   36.7880 H   0  0  0  0  0  0  0  0  0  0  0  0
   17.0800  -52.4640   38.8100 H   0  0  0  0  0  0  0  0  0  0  0  0
   15.2150  -52.8280   40.4170 H   0  0  0  0  0  0  0  0  0  0  0  0
   21.3590  -50.4860   37.1650 H   0  0  0  0  0  0  0  0  0  0  0  0
   21.7870  -50.4120   35.4190 H   0  0  0  0  0  0  0  0  0  0  0  0
   21.1500  -48.2260   36.5710 H   0  0  0  0  0  0  0  0  0  0  0  0
   20.2710  -48.5410   35.0560 H   0  0  0  0  0  0  0  0  0  0  0  0
   19.4390  -48.8190   36.6220 H   0  0  0  0  0  0  0  0  0  0  0  0
   19.4430  -52.7930   33.9560 H   0  0  0  0  0  0  0  0  0  0  0  0
   20.7110  -53.8950   34.6800 H   0  0  0  0  0  0  0  0  0  0  0  0
   19.3230  -55.6610   33.6110 H   0  0  0  0  0  0  0  0  0  0  0  0
   21.0370  -56.0470   32.4090 H   0  0  0  0  0  0  0  0  0  0  0  0
   21.5200  -54.3540   32.1390 H   0  0  0  0  0  0  0  0  0  0  0  0
   20.5300  -55.8520   30.2580 H   0  0  0  0  0  0  0  0  0  0  0  0
   19.9820  -54.1060   30.4130 H   0  0  0  0  0  0  0  0  0  0  0  0
   18.6060  -56.5010   31.5620 H   0  0  0  0  0  0  0  0  0  0  0  0
   17.9020  -55.3260   30.3740 H   0  0  0  0  0  0  0  0  0  0  0  0
   18.3560  -53.4580   31.9240 H   0  0  0  0  0  0  0  0  0  0  0  0
   17.4820  -54.6880   32.9490 H   0  0  0  0  0  0  0  0  0  0  0  0
   18.6610  -57.3190   35.3970 H   0  0  0  0  0  0  0  0  0  0  0  0
   18.2750  -56.4500   33.8660 H   0  0  0  0  0  0  0  0  0  0  0  0
   16.3610  -56.5090   32.8930 H   0  0  0  0  0  0  0  0  0  0  0  0
   14.0380  -57.3590   32.7620 H   0  0  0  0  0  0  0  0  0  0  0  0
   12.9720  -58.4720   34.6440 H   0  0  0  0  0  0  0  0  0  0  0  0
   14.2730  -58.7380   36.7170 H   0  0  0  0  0  0  0  0  0  0  0  0
   16.5630  -57.8770   36.9040 H   0  0  0  0  0  0  0  0  0  0  0  0
  2 10  1  0  0  0  0
  2  1  1  0  0  0  0
  3  2  2  0  0  0  0
  4  8  2  0  0  0  0
  4  3  1  0  0  0  0
  5  4  1  0  0  0  0
  6  5  1  0  0  0  0
  6  7  2  0  0  0  0
  7 12  1  0  0  0  0
  7  8  1  0  0  0  0
  8  9  1  0  0  0  0
  9 31  1  0  0  0  0
  9 10  2  0  0  0  0
 10 11  1  0  0  0  0
 11 32  1  0  0  0  0
 12 13  2  0  0  0  0
 14 15  1  0  0  0  0
 14 12  1  0  0  0  0
 15 33  1  0  0  0  0
 16 15  1  0  0  0  0
 16 35  1  0  0  0  0
 16 37  1  0  0  0  0
 17 39  1  0  0  0  0
 17  6  1  0  0  0  0
 18 40  1  0  0  0  0
 18 17  1  0  0  0  0
 19 41  1  0  0  0  0
 19 18  1  0  0  0  0
 20 21  1  0  0  0  0
 20 19  1  0  0  0  0
 21 45  1  0  0  0  0
 21 22  1  0  0  0  0
 22 48  1  0  0  0  0
 22 18  1  0  0  0  0
 23 49  1  0  0  0  0
 23  5  1  0  0  0  0
 24 23  1  0  0  0  0
 24 29  1  0  0  0  0
 25 24  2  0  0  0  0
 26 25  1  0  0  0  0
 26 27  2  0  0  0  0
 27 28  1  0  0  0  0
 28 29  2  0  0  0  0
 28 54  1  0  0  0  0
 29 55  1  0  0  0  0
 30  3  1  0  0  0  0
 34 15  1  0  0  0  0
 36 16  1  0  0  0  0
 38 17  1  0  0  0  0
 42 19  1  0  0  0  0
 43 20  1  0  0  0  0
 44 20  1  0  0  0  0
 46 21  1  0  0  0  0
 47 22  1  0  0  0  0
 50 23  1  0  0  0  0
 51 25  1  0  0  0  0
 52 26  1  0  0  0  0
 53 27  1  0  0  0  0
M  END
>  <Pose>
1

>  <Score>
-6.50

$$$$
