
 OpenBabel03232204043D

 51 54  0  0  0  0  0  0  0  0999 V2000
   18.3460  -51.9830   37.3840 B   0  0  0  0  0  0  0  0  0  0  0  0
   17.2040  -53.5200   37.4880 C   0  0  0  0  0  0  0  0  0  0  0  0
   16.4240  -53.6940   38.6080 C   0  0  0  0  0  0  0  0  0  0  0  0
   15.6010  -54.7870   38.7220 C   0  0  0  0  0  0  0  0  0  0  0  0
   14.7350  -55.2540   39.6420 N   0  0  0  0  0  0  0  0  0  0  0  0
   14.1820  -56.4080   39.2220 C   0  0  0  0  0  0  0  0  0  0  0  0
   14.7290  -56.6430   38.0170 N   0  0  0  0  0  0  0  0  0  0  0  0
   15.6020  -55.6710   37.6810 C   0  0  0  0  0  0  0  0  0  0  0  0
   16.3940  -55.4980   36.5370 C   0  0  0  0  0  0  0  0  0  0  0  0
   17.2200  -54.4030   36.4200 C   0  0  0  0  0  0  0  0  0  0  0  0
   18.0490  -54.1240   35.3110 N   0  0  0  0  0  0  0  0  0  0  0  0
   18.5990  -55.0380   34.4040 C   0  0  0  0  0  0  0  0  0  0  0  0
   19.6500  -55.6650   34.6960 O   0  0  0  0  0  0  0  0  0  0  0  0
   18.0220  -55.3340   33.0880 C   0  0  0  0  0  0  0  0  0  0  0  0
   18.9000  -55.6440   32.0310 N   0  0  0  0  0  0  0  0  0  0  0  0
   19.8390  -54.6610   31.6270 C   0  0  0  0  0  0  0  0  0  0  0  0
   20.3840  -54.9250   30.2230 C   0  0  0  0  0  0  0  0  0  0  0  0
   20.8900  -56.2300   30.1940 N   0  0  0  0  0  0  0  0  0  0  0  0
   20.6920  -57.0620   31.3150 C   0  0  0  0  0  0  0  0  0  0  0  0
   19.3460  -56.9940   31.9720 C   0  0  0  0  0  0  0  0  0  0  0  0
   21.1260  -56.7840   28.9380 C   0  0  0  0  0  0  0  0  0  0  0  0
   22.5080  -57.0400   28.5310 C   0  0  0  0  0  0  0  0  0  0  0  0
   22.8170  -58.2870   28.3930 O   0  0  0  0  0  0  0  0  0  0  0  0
   23.5140  -56.1150   28.2770 N   0  0  0  0  0  0  0  0  0  0  0  0
   23.3990  -55.0600   27.2740 C   0  0  0  0  0  0  0  0  0  0  0  0
   22.3970  -53.9910   27.4130 C   0  0  0  0  0  0  0  0  0  0  0  0
   23.8600  -53.6710   27.6600 C   0  0  0  0  0  0  0  0  0  0  0  0
   13.2330  -57.1880   39.9130 O   0  0  0  0  0  0  0  0  0  0  0  0
   16.4330  -52.9870   39.4250 H   0  0  0  0  0  0  0  0  0  0  0  0
   14.5130  -57.4770   37.4030 H   0  0  0  0  0  0  0  0  0  0  0  0
   16.3440  -56.2300   35.7650 H   0  0  0  0  0  0  0  0  0  0  0  0
   18.2850  -53.1030   35.1140 H   0  0  0  0  0  0  0  0  0  0  0  0
   17.3540  -56.2360   33.2510 H   0  0  0  0  0  0  0  0  0  0  0  0
   17.3280  -54.5310   32.7360 H   0  0  0  0  0  0  0  0  0  0  0  0
   20.7530  -54.8180   32.2910 H   0  0  0  0  0  0  0  0  0  0  0  0
   19.5240  -53.6420   31.8000 H   0  0  0  0  0  0  0  0  0  0  0  0
   21.2380  -54.2060   30.1040 H   0  0  0  0  0  0  0  0  0  0  0  0
   19.5960  -54.7590   29.5030 H   0  0  0  0  0  0  0  0  0  0  0  0
   21.0060  -58.1130   31.1090 H   0  0  0  0  0  0  0  0  0  0  0  0
   21.4280  -56.7200   32.1080 H   0  0  0  0  0  0  0  0  0  0  0  0
   18.6080  -57.6860   31.5050 H   0  0  0  0  0  0  0  0  0  0  0  0
   19.4740  -57.3570   33.0230 H   0  0  0  0  0  0  0  0  0  0  0  0
   20.5310  -57.7650   28.8890 H   0  0  0  0  0  0  0  0  0  0  0  0
   20.5750  -56.1860   28.1250 H   0  0  0  0  0  0  0  0  0  0  0  0
   24.4030  -56.1420   28.8160 H   0  0  0  0  0  0  0  0  0  0  0  0
   23.6890  -55.3410   26.2420 H   0  0  0  0  0  0  0  0  0  0  0  0
   21.9710  -53.5050   26.5000 H   0  0  0  0  0  0  0  0  0  0  0  0
   21.7480  -53.8780   28.2800 H   0  0  0  0  0  0  0  0  0  0  0  0
   24.1760  -53.4630   28.7050 H   0  0  0  0  0  0  0  0  0  0  0  0
   24.4090  -53.0540   26.9080 H   0  0  0  0  0  0  0  0  0  0  0  0
   12.2640  -57.0860   39.5840 H   0  0  0  0  0  0  0  0  0  0  0  0
  1  2  1  0  0  0  0
  2  3  1  0  0  0  0
  3  4  2  0  0  0  0
  3 29  1  0  0  0  0
  4  5  1  0  0  0  0
  6  5  2  0  0  0  0
  6 28  1  0  0  0  0
  7  6  1  0  0  0  0
  8  7  1  0  0  0  0
  8  4  1  0  0  0  0
  9  8  2  0  0  0  0
 10  9  1  0  0  0  0
 10  2  2  0  0  0  0
 11 10  1  0  0  0  0
 12 13  2  0  0  0  0
 12 11  1  0  0  0  0
 14 33  1  0  0  0  0
 14 12  1  0  0  0  0
 15 14  1  0  0  0  0
 16 36  1  0  0  0  0
 16 15  1  0  0  0  0
 16 35  1  0  0  0  0
 17 16  1  0  0  0  0
 18 17  1  0  0  0  0
 18 19  1  0  0  0  0
 19 20  1  0  0  0  0
 19 40  1  0  0  0  0
 20 15  1  0  0  0  0
 20 42  1  0  0  0  0
 21 18  1  0  0  0  0
 22 21  1  0  0  0  0
 23 22  2  0  0  0  0
 24 22  1  0  0  0  0
 24 45  1  0  0  0  0
 25 26  1  0  0  0  0
 25 27  1  0  0  0  0
 25 24  1  0  0  0  0
 26 27  1  0  0  0  0
 26 48  1  0  0  0  0
 27 49  1  0  0  0  0
 30  7  1  0  0  0  0
 31  9  1  0  0  0  0
 32 11  1  0  0  0  0
 34 14  1  0  0  0  0
 37 17  1  0  0  0  0
 38 17  1  0  0  0  0
 39 19  1  0  0  0  0
 41 20  1  0  0  0  0
 43 21  1  0  0  0  0
 44 21  1  0  0  0  0
 46 25  1  0  0  0  0
 47 26  1  0  0  0  0
 50 27  1  0  0  0  0
 51 28  1  0  0  0  0
M  END
>  <Pose>
1

>  <Score>
-7.11

$$$$
