
 OpenBabel03232204043D

 41 44  0  0  0  0  0  0  0  0999 V2000
    8.8280  -59.4740   39.2590 B   0  0  0  0  0  0  0  0  0  0  0  0
   10.6530  -59.4830   38.6920 C   0  0  0  0  0  0  0  0  0  0  0  0
   11.5690  -58.5860   39.1750 C   0  0  0  0  0  0  0  0  0  0  0  0
   12.8430  -58.6160   38.7680 N   0  0  0  0  0  0  0  0  0  0  0  0
   13.3270  -59.5120   37.8670 C   0  0  0  0  0  0  0  0  0  0  0  0
   12.3830  -60.4230   37.3770 C   0  0  0  0  0  0  0  0  0  0  0  0
   11.0730  -60.4180   37.7750 C   0  0  0  0  0  0  0  0  0  0  0  0
   14.6880  -59.5110   37.4840 N   0  0  0  0  0  0  0  0  0  0  0  0
   15.2650  -58.2860   37.0740 C   0  0  0  0  0  0  0  0  0  0  0  0
   15.6820  -57.9320   35.8940 C   0  0  0  0  0  0  0  0  0  0  0  0
   16.1870  -56.5640   36.0230 C   0  0  0  0  0  0  0  0  0  0  0  0
   16.6750  -55.8960   35.0580 O   0  0  0  0  0  0  0  0  0  0  0  0
   16.0550  -56.0900   37.3710 N   0  0  0  0  0  0  0  0  0  0  0  0
   15.4630  -57.1930   38.0560 C   0  0  0  0  0  0  0  0  0  0  0  0
   15.1620  -57.2280   39.2790 O   0  0  0  0  0  0  0  0  0  0  0  0
   16.4220  -54.8190   37.8810 C   0  0  0  0  0  0  0  0  0  0  0  0
   17.4990  -54.1030   37.4250 C   0  0  0  0  0  0  0  0  0  0  0  0
   17.8240  -52.8330   37.9450 C   0  0  0  0  0  0  0  0  0  0  0  0
   17.0570  -52.2700   38.9390 C   0  0  0  0  0  0  0  0  0  0  0  0
   15.9780  -52.9810   39.3990 C   0  0  0  0  0  0  0  0  0  0  0  0
   15.6720  -54.2370   38.8730 C   0  0  0  0  0  0  0  0  0  0  0  0
   15.6820  -58.6910   34.6840 N   0  0  0  0  0  0  0  0  0  0  0  0
   16.8400  -58.9330   34.0430 C   0  0  0  0  0  0  0  0  0  0  0  0
   16.8740  -59.6690   32.8460 C   0  0  0  0  0  0  0  0  0  0  0  0
   15.7000  -60.1570   32.3050 C   0  0  0  0  0  0  0  0  0  0  0  0
   14.5270  -59.8970   32.9800 C   0  0  0  0  0  0  0  0  0  0  0  0
   14.5370  -59.1760   34.1450 C   0  0  0  0  0  0  0  0  0  0  0  0
   11.2420  -57.8500   39.8900 H   0  0  0  0  0  0  0  0  0  0  0  0
   12.7480  -61.1470   36.6530 H   0  0  0  0  0  0  0  0  0  0  0  0
   10.3350  -61.1280   37.3950 H   0  0  0  0  0  0  0  0  0  0  0  0
   15.2390  -60.3690   37.4990 H   0  0  0  0  0  0  0  0  0  0  0  0
   18.1180  -54.5240   36.6480 H   0  0  0  0  0  0  0  0  0  0  0  0
   18.6890  -52.3050   37.5500 H   0  0  0  0  0  0  0  0  0  0  0  0
   17.3180  -51.2880   39.3330 H   0  0  0  0  0  0  0  0  0  0  0  0
   15.3710  -52.5470   40.1840 H   0  0  0  0  0  0  0  0  0  0  0  0
   14.8070  -54.7350   39.2800 H   0  0  0  0  0  0  0  0  0  0  0  0
   17.7490  -58.5410   34.4860 H   0  0  0  0  0  0  0  0  0  0  0  0
   17.8390  -59.8420   32.3630 H   0  0  0  0  0  0  0  0  0  0  0  0
   15.7100  -60.7310   31.3720 H   0  0  0  0  0  0  0  0  0  0  0  0
   13.6060  -60.2700   32.5660 H   0  0  0  0  0  0  0  0  0  0  0  0
   13.6040  -58.9640   34.6920 H   0  0  0  0  0  0  0  0  0  0  0  0
  2  3  1  0  0  0  0
  2  1  1  0  0  0  0
  3 28  1  0  0  0  0
  4  3  2  0  0  0  0
  5  4  1  0  0  0  0
  6  7  1  0  0  0  0
  6  5  2  0  0  0  0
  7  2  2  0  0  0  0
  8 31  1  0  0  0  0
  8  5  1  0  0  0  0
  9  8  1  0  0  0  0
  9 14  1  0  0  0  0
 10 11  1  0  0  0  0
 10  9  2  0  0  0  0
 11 13  1  0  0  0  0
 12 11  2  0  0  0  0
 13 16  1  0  0  0  0
 13 14  1  0  0  0  0
 14 15  2  0  0  0  0
 16 21  1  0  0  0  0
 17 16  2  0  0  0  0
 17 18  1  0  0  0  0
 18 19  2  0  0  0  0
 19 34  1  0  0  0  0
 19 20  1  0  0  0  0
 20 35  1  0  0  0  0
 21 36  1  0  0  0  0
 21 20  2  0  0  0  0
 22 10  1  0  0  0  0
 23 37  1  0  0  0  0
 23 22  1  0  0  0  0
 24 23  1  0  0  0  0
 25 24  2  0  0  0  0
 25 26  1  0  0  0  0
 26 27  2  0  0  0  0
 27 22  1  0  0  0  0
 27 41  1  0  0  0  0
 29  6  1  0  0  0  0
 30  7  1  0  0  0  0
 32 17  1  0  0  0  0
 33 18  1  0  0  0  0
 38 24  1  0  0  0  0
 39 25  1  0  0  0  0
 40 26  1  0  0  0  0
M  END
>  <Pose>
1

>  <Score>
-6.88

$$$$
