
 OpenBabel03232204043D

 38 41  0  0  0  0  0  0  0  0999 V2000
   17.0860  -52.2690   38.5660 B   0  0  0  0  0  0  0  0  0  0  0  0
   16.0680  -53.8830   38.6940 C   0  0  0  0  0  0  0  0  0  0  0  0
   16.1740  -54.8550   37.7260 C   0  0  0  0  0  0  0  0  0  0  0  0
   15.4590  -55.9660   37.8340 N   0  0  0  0  0  0  0  0  0  0  0  0
   14.6060  -56.2430   38.8440 C   0  0  0  0  0  0  0  0  0  0  0  0
   14.5050  -55.2740   39.8010 N   0  0  0  0  0  0  0  0  0  0  0  0
   15.2060  -54.1280   39.7420 C   0  0  0  0  0  0  0  0  0  0  0  0
   13.8610  -57.4230   38.9370 N   0  0  0  0  0  0  0  0  0  0  0  0
   13.4300  -58.2950   39.9920 C   0  0  0  0  0  0  0  0  0  0  0  0
   12.1690  -58.4740   39.1690 C   0  0  0  0  0  0  0  0  0  0  0  0
   13.1820  -58.3150   38.0400 C   0  0  0  0  0  0  0  0  0  0  0  0
   11.5210  -59.8190   39.2540 C   0  0  0  0  0  0  0  0  0  0  0  0
   10.1670  -59.6320   39.7050 N   0  0  0  0  0  0  0  0  0  0  0  0
    9.7640  -58.4060   40.2350 N   0  0  0  0  0  0  0  0  0  0  0  0
    8.4390  -58.1730   40.6930 C   0  0  0  0  0  0  0  0  0  0  0  0
    8.1110  -56.9950   41.1860 C   0  0  0  0  0  0  0  0  0  0  0  0
    8.3340  -55.5940   41.5960 C   0  0  0  0  0  0  0  0  0  0  0  0
    7.0040  -56.1520   41.7880 C   0  0  0  0  0  0  0  0  0  0  0  0
    7.4450  -59.2260   40.6210 C   0  0  0  0  0  0  0  0  0  0  0  0
    7.8050  -60.3970   40.1210 C   0  0  0  0  0  0  0  0  0  0  0  0
    9.1800  -60.6490   39.6420 C   0  0  0  0  0  0  0  0  0  0  0  0
    9.4970  -61.7740   39.1710 O   0  0  0  0  0  0  0  0  0  0  0  0
   16.8560  -54.6480   36.9070 H   0  0  0  0  0  0  0  0  0  0  0  0
   15.1350  -53.3530   40.4960 H   0  0  0  0  0  0  0  0  0  0  0  0
   13.9610  -59.2890   40.0240 H   0  0  0  0  0  0  0  0  0  0  0  0
   13.2790  -57.8370   40.9830 H   0  0  0  0  0  0  0  0  0  0  0  0
   11.5150  -57.6020   39.2700 H   0  0  0  0  0  0  0  0  0  0  0  0
   13.6990  -59.2790   37.8430 H   0  0  0  0  0  0  0  0  0  0  0  0
   12.7790  -57.8690   37.1150 H   0  0  0  0  0  0  0  0  0  0  0  0
   12.0700  -60.4670   39.9740 H   0  0  0  0  0  0  0  0  0  0  0  0
   11.4950  -60.3310   38.2930 H   0  0  0  0  0  0  0  0  0  0  0  0
   10.4980  -57.6410   40.2850 H   0  0  0  0  0  0  0  0  0  0  0  0
    8.9380  -55.4030   42.5160 H   0  0  0  0  0  0  0  0  0  0  0  0
    8.4720  -54.8110   40.8340 H   0  0  0  0  0  0  0  0  0  0  0  0
    6.6840  -56.4320   42.8230 H   0  0  0  0  0  0  0  0  0  0  0  0
    6.1710  -55.9180   41.0850 H   0  0  0  0  0  0  0  0  0  0  0  0
    6.4080  -59.0630   40.9730 H   0  0  0  0  0  0  0  0  0  0  0  0
    7.0540  -61.1710   40.0740 H   0  0  0  0  0  0  0  0  0  0  0  0
  1  2  1  0  0  0  0
  2  7  1  0  0  0  0
  3  4  1  0  0  0  0
  3  2  2  0  0  0  0
  4  5  2  0  0  0  0
  5  8  1  0  0  0  0
  5  6  1  0  0  0  0
  7  6  2  0  0  0  0
  7 24  1  0  0  0  0
  8  9  1  0  0  0  0
  9 25  1  0  0  0  0
  9 26  1  0  0  0  0
 10 12  1  0  0  0  0
 10 27  1  0  0  0  0
 10  9  1  0  0  0  0
 11  8  1  0  0  0  0
 11 10  1  0  0  0  0
 12 13  1  0  0  0  0
 12 30  1  0  0  0  0
 13 14  1  0  0  0  0
 14 32  1  0  0  0  0
 14 15  1  0  0  0  0
 15 16  2  0  0  0  0
 16 17  1  0  0  0  0
 16 18  1  0  0  0  0
 17 18  1  0  0  0  0
 17 33  1  0  0  0  0
 18 35  1  0  0  0  0
 19 15  1  0  0  0  0
 19 37  1  0  0  0  0
 20 19  2  0  0  0  0
 21 13  1  0  0  0  0
 21 20  1  0  0  0  0
 22 21  2  0  0  0  0
 23  3  1  0  0  0  0
 28 11  1  0  0  0  0
 29 11  1  0  0  0  0
 31 12  1  0  0  0  0
 34 17  1  0  0  0  0
 36 18  1  0  0  0  0
 38 20  1  0  0  0  0
M  END
>  <Pose>
1

>  <Score>
-6.33

$$$$
