
 OpenBabel03232204043D

 43 46  0  0  0  0  0  0  0  0999 V2000
   15.1360  -59.3220   35.3710 B   0  0  0  0  0  0  0  0  0  0  0  0
   14.3390  -58.3100   36.7810 C   0  0  0  0  0  0  0  0  0  0  0  0
   13.1600  -58.7020   37.3320 C   0  0  0  0  0  0  0  0  0  0  0  0
   12.5930  -58.0070   38.3160 N   0  0  0  0  0  0  0  0  0  0  0  0
   13.1900  -56.8980   38.7760 C   0  0  0  0  0  0  0  0  0  0  0  0
   14.3970  -56.4500   38.2500 C   0  0  0  0  0  0  0  0  0  0  0  0
   14.9900  -57.1640   37.2340 C   0  0  0  0  0  0  0  0  0  0  0  0
   14.9730  -55.2500   38.8100 C   0  0  0  0  0  0  0  0  0  0  0  0
   14.7610  -54.9350   39.9930 O   0  0  0  0  0  0  0  0  0  0  0  0
   15.8270  -54.3680   37.9880 N   0  0  0  0  0  0  0  0  0  0  0  0
   17.1110  -54.8500   37.7230 C   0  0  0  0  0  0  0  0  0  0  0  0
   17.8730  -54.6060   36.5170 C   0  0  0  0  0  0  0  0  0  0  0  0
   18.6280  -53.3830   36.6120 C   0  0  0  0  0  0  0  0  0  0  0  0
   19.3910  -52.9830   35.5780 C   0  0  0  0  0  0  0  0  0  0  0  0
   19.4680  -53.7400   34.3950 C   0  0  0  0  0  0  0  0  0  0  0  0
   18.7570  -54.9110   34.2880 C   0  0  0  0  0  0  0  0  0  0  0  0
   17.9590  -55.3390   35.3610 C   0  0  0  0  0  0  0  0  0  0  0  0
   17.2590  -56.6480   35.2990 C   0  0  0  0  0  0  0  0  0  0  0  0
   17.8110  -57.5870   34.2310 C   0  0  0  0  0  0  0  0  0  0  0  0
   18.0050  -56.9080   32.9710 N   0  0  0  0  0  0  0  0  0  0  0  0
   18.7840  -55.7070   33.0650 C   0  0  0  0  0  0  0  0  0  0  0  0
   19.4610  -55.4040   32.0610 O   0  0  0  0  0  0  0  0  0  0  0  0
   17.4580  -57.3980   31.7240 C   0  0  0  0  0  0  0  0  0  0  0  0
   20.2520  -53.2730   33.4070 O   0  0  0  0  0  0  0  0  0  0  0  0
   19.9990  -51.7750   35.9550 O   0  0  0  0  0  0  0  0  0  0  0  0
   19.4100  -51.2920   37.1430 C   0  0  0  0  0  0  0  0  0  0  0  0
   18.7470  -52.4390   37.6370 O   0  0  0  0  0  0  0  0  0  0  0  0
   12.6180  -59.6030   36.9990 H   0  0  0  0  0  0  0  0  0  0  0  0
   12.7580  -56.3050   39.5780 H   0  0  0  0  0  0  0  0  0  0  0  0
   15.9260  -56.8460   36.8070 H   0  0  0  0  0  0  0  0  0  0  0  0
   15.3430  -53.4890   37.7580 H   0  0  0  0  0  0  0  0  0  0  0  0
   17.7710  -54.5260   38.6360 H   0  0  0  0  0  0  0  0  0  0  0  0
   17.1160  -55.9980   37.9550 H   0  0  0  0  0  0  0  0  0  0  0  0
   16.1850  -56.5680   35.1020 H   0  0  0  0  0  0  0  0  0  0  0  0
   17.4290  -57.2290   36.2380 H   0  0  0  0  0  0  0  0  0  0  0  0
   17.0560  -58.4070   34.1450 H   0  0  0  0  0  0  0  0  0  0  0  0
   18.7770  -57.9740   34.6240 H   0  0  0  0  0  0  0  0  0  0  0  0
   16.3690  -57.1460   31.7370 H   0  0  0  0  0  0  0  0  0  0  0  0
   17.5470  -58.4980   31.6760 H   0  0  0  0  0  0  0  0  0  0  0  0
   17.9170  -56.8640   30.8820 H   0  0  0  0  0  0  0  0  0  0  0  0
   20.0730  -53.0940   32.4790 H   0  0  0  0  0  0  0  0  0  0  0  0
   20.1680  -50.9090   37.8580 H   0  0  0  0  0  0  0  0  0  0  0  0
   18.7150  -50.4850   36.8600 H   0  0  0  0  0  0  0  0  0  0  0  0
  1  2  1  0  0  0  0
  2  7  2  0  0  0  0
  2  3  1  0  0  0  0
  3  4  2  0  0  0  0
  4  5  1  0  0  0  0
  5 29  1  0  0  0  0
  6  5  2  0  0  0  0
  6  8  1  0  0  0  0
  7  6  1  0  0  0  0
  8  9  2  0  0  0  0
 10  8  1  0  0  0  0
 11 33  1  0  0  0  0
 11 10  1  0  0  0  0
 11 32  1  0  0  0  0
 12 13  1  0  0  0  0
 12 11  1  0  0  0  0
 13 27  1  0  0  0  0
 14 25  1  0  0  0  0
 14 13  2  0  0  0  0
 15 14  1  0  0  0  0
 16 15  2  0  0  0  0
 16 17  1  0  0  0  0
 17 12  2  0  0  0  0
 18 17  1  0  0  0  0
 18 35  1  0  0  0  0
 19 37  1  0  0  0  0
 19 18  1  0  0  0  0
 20 21  1  0  0  0  0
 20 19  1  0  0  0  0
 21 16  1  0  0  0  0
 22 21  2  0  0  0  0
 23 38  1  0  0  0  0
 23 20  1  0  0  0  0
 24 15  1  0  0  0  0
 25 26  1  0  0  0  0
 26 27  1  0  0  0  0
 26 42  1  0  0  0  0
 28  3  1  0  0  0  0
 30  7  1  0  0  0  0
 31 10  1  0  0  0  0
 34 18  1  0  0  0  0
 36 19  1  0  0  0  0
 39 23  1  0  0  0  0
 40 23  1  0  0  0  0
 41 24  1  0  0  0  0
 43 26  1  0  0  0  0
M  END
>  <Pose>
1

>  <Score>
-7.50

$$$$
