
 OpenBabel03232204043D

 37 40  0  0  1  0  0  0  0  0999 V2000
   19.9920  -53.6880   33.8040 B   0  0  0  0  0  0  0  0  0  0  0  0
   19.0710  -55.0650   32.8290 C   0  0  0  0  0  0  0  0  0  0  0  0
   18.8370  -54.8740   31.4870 C   0  0  0  0  0  0  0  0  0  0  0  0
   18.1940  -55.8460   30.8300 N   0  0  0  0  0  0  0  0  0  0  0  0
   17.7790  -56.9920   31.4450 C   0  0  0  0  0  0  0  0  0  0  0  0
   17.9840  -57.2400   32.7780 C   0  0  0  0  0  0  0  0  0  0  0  0
   18.6600  -56.2120   33.4600 C   0  0  0  0  0  0  0  0  0  0  0  0
   17.5720  -58.4140   33.5070 C   0  0  0  0  0  0  0  0  0  0  0  0
   18.4300  -59.3330   33.6920 O   0  0  0  0  0  0  0  0  0  0  0  0
   16.2800  -58.5910   34.0170 N   0  0  0  0  0  0  0  0  0  0  0  0
   15.6020  -59.0200   35.2120 C   0  0  0  0  0  0  0  0  0  0  0  0
   14.2450  -59.0040   34.5240 C   0  0  0  0  0  0  0  0  0  0  0  0
   14.9670  -58.3310   33.3960 C   0  0  0  0  0  0  0  0  0  0  0  0
   13.2350  -58.2650   35.1380 O   0  0  0  0  0  0  0  0  0  0  0  0
   13.0340  -58.1350   36.4970 C   0  0  2  0  0  0  0  0  0  0  0  0
   13.8030  -57.3100   37.2020 C   0  0  0  0  0  0  0  0  0  0  0  0
   13.6400  -57.1290   38.6390 C   0  0  0  0  0  0  0  0  0  0  0  0
   14.4210  -56.3000   39.3080 C   0  0  0  0  0  0  0  0  0  0  0  0
   12.6170  -57.8750   39.2830 N   0  0  0  0  0  0  0  0  0  0  0  0
   11.8030  -58.7580   38.4960 C   0  0  0  0  0  0  0  0  0  0  0  0
   12.0040  -58.8800   37.1760 N   0  0  0  0  0  0  0  0  0  0  0  0
   11.1240  -59.7600   36.6860 N   0  0  0  0  0  0  0  0  0  0  0  0
   10.3780  -60.1820   37.7130 C   0  0  0  0  0  0  0  0  0  0  0  0
   10.7920  -59.5690   38.8260 N   0  0  0  0  0  0  0  0  0  0  0  0
   19.1620  -53.9570   30.9710 H   0  0  0  0  0  0  0  0  0  0  0  0
   17.2670  -57.7570   30.8660 H   0  0  0  0  0  0  0  0  0  0  0  0
   18.8530  -56.3470   34.5150 H   0  0  0  0  0  0  0  0  0  0  0  0
   15.8370  -60.0710   35.5240 H   0  0  0  0  0  0  0  0  0  0  0  0
   15.7180  -58.2790   36.0110 H   0  0  0  0  0  0  0  0  0  0  0  0
   13.8830  -60.0380   34.2870 H   0  0  0  0  0  0  0  0  0  0  0  0
   14.8340  -57.2540   33.3310 H   0  0  0  0  0  0  0  0  0  0  0  0
   14.8380  -58.8320   32.4280 H   0  0  0  0  0  0  0  0  0  0  0  0
   14.5890  -56.7600   36.6620 H   0  0  0  0  0  0  0  0  0  0  0  0
   14.2730  -56.1920   40.3620 H   0  0  0  0  0  0  0  0  0  0  0  0
   15.1850  -55.7450   38.8230 H   0  0  0  0  0  0  0  0  0  0  0  0
   12.4910  -57.7540   40.3020 H   0  0  0  0  0  0  0  0  0  0  0  0
    9.5550  -60.9090   37.6890 H   0  0  0  0  0  0  0  0  0  0  0  0
  2  7  1  0  0  0  0
  2  1  1  0  0  0  0
  3  2  2  0  0  0  0
  4  5  2  0  0  0  0
  4  3  1  0  0  0  0
  5  6  1  0  0  0  0
  6  7  2  0  0  0  0
  6  8  1  0  0  0  0
  7 27  1  0  0  0  0
  8  9  2  0  0  0  0
  8 10  1  0  0  0  0
 10 11  1  0  0  0  0
 11 28  1  0  0  0  0
 11 29  1  0  0  0  0
 12 14  1  0  0  0  0
 12 11  1  0  0  0  0
 13 10  1  0  0  0  0
 13 12  1  0  0  0  0
 15 14  1  1  0  0  0
 15 21  1  0  0  0  0
 15 16  1  0  0  0  0
 16 17  2  0  0  0  0
 17 19  1  0  0  0  0
 17 18  1  0  0  0  0
 18 34  1  0  0  0  0
 19 36  1  0  0  0  0
 20 24  2  0  0  0  0
 20 19  1  0  0  0  0
 21 20  1  0  0  0  0
 22 21  1  0  0  0  0
 22 23  2  0  0  0  0
 23 24  1  0  0  0  0
 25  3  1  0  0  0  0
 26  5  1  0  0  0  0
 30 12  1  0  0  0  0
 31 13  1  0  0  0  0
 32 13  1  0  0  0  0
 33 16  1  0  0  0  0
 35 18  1  0  0  0  0
 37 23  1  0  0  0  0
M  END
>  <Pose>
1

>  <Score>
-6.68

$$$$
