
 OpenBabel03232204043D

 45 40  0  0  1  0  0  0  0  0999 V2000
   14.9400  -55.4690   39.5190 B   0  0  0  0  0  0  0  0  0  0  0  0
   14.3410  -56.7960   38.2900 C   0  0  0  0  0  0  0  0  0  0  0  0
   13.2500  -57.5970   38.5510 C   0  0  0  0  0  0  0  0  0  0  0  0
   12.8220  -58.5350   37.6890 N   0  0  0  0  0  0  0  0  0  0  0  0
   13.4810  -58.6960   36.5320 C   0  0  0  0  0  0  0  0  0  0  0  0
   14.5790  -57.9360   36.1960 C   0  0  0  0  0  0  0  0  0  0  0  0
   14.9940  -56.9870   37.0930 C   0  0  0  0  0  0  0  0  0  0  0  0
   15.2840  -58.1230   34.9340 C   0  0  0  0  0  0  0  0  0  0  0  0
   16.2050  -57.3310   34.6150 O   0  0  0  0  0  0  0  0  0  0  0  0
   14.9090  -59.1830   34.1220 O   0  0  0  0  0  0  0  0  0  0  0  0
   13.5600  -60.4890   36.2020 N   0  0  0  0  0  0  0  0  0  0  0  0
   12.1080  -60.3960   35.9600 C   0  0  0  0  0  0  0  0  0  0  0  0
   11.3940  -60.6210   37.2520 C   0  0  0  0  0  0  0  0  0  0  0  0
   11.7950  -59.5540   38.2350 C   0  0  0  0  0  0  0  0  0  0  0  0
   13.0040  -58.8020   37.8610 C   0  0  0  0  0  0  0  0  0  0  0  0
   13.8600  -59.2520   36.8810 C   0  0  2  0  0  0  0  0  0  0  0  0
   14.9370  -58.5240   36.5920 N   0  0  0  0  0  0  0  0  0  0  0  0
   15.2410  -57.3630   37.2090 C   0  0  0  0  0  0  0  0  0  0  0  0
   14.4070  -56.8810   38.1960 C   0  0  0  0  0  0  0  0  0  0  0  0
   13.2800  -57.6010   38.5280 C   0  0  0  0  0  0  0  0  0  0  0  0
   12.4220  -57.1010   39.5470 N   0  0  0  0  0  0  0  0  0  0  0  0
   14.7180  -55.6800   38.8370 C   0  0  2  0  0  0  0  0  0  0  0  0
   15.8390  -54.9450   38.5200 C   0  0  0  0  0  0  0  0  0  0  0  0
   16.6710  -55.4320   37.5320 C   0  0  0  0  0  0  0  0  0  0  0  0
   16.3620  -56.6250   36.8950 C   0  0  0  0  0  0  0  0  0  0  0  0
   14.1790  -60.5380   34.8940 C   0  0  0  0  0  0  0  0  0  0  0  0
   12.7400  -57.4340   39.5080 H   0  0  0  0  0  0  0  0  0  0  0  0
   13.1300  -59.4520   35.8450 H   0  0  0  0  0  0  0  0  0  0  0  0
   15.8500  -56.3470   36.9060 H   0  0  0  0  0  0  0  0  0  0  0  0
   13.7800  -61.3160   36.7820 H   0  0  0  0  0  0  0  0  0  0  0  0
   11.7780  -61.1550   35.2300 H   0  0  0  0  0  0  0  0  0  0  0  0
   11.9350  -59.3570   35.5980 H   0  0  0  0  0  0  0  0  0  0  0  0
   10.2970  -60.6370   37.0740 H   0  0  0  0  0  0  0  0  0  0  0  0
   11.6950  -61.6470   37.6180 H   0  0  0  0  0  0  0  0  0  0  0  0
   10.9060  -58.8880   38.3600 H   0  0  0  0  0  0  0  0  0  0  0  0
   11.9090  -60.0630   39.2260 H   0  0  0  0  0  0  0  0  0  0  0  0
   11.4450  -57.4680   39.5630 H   0  0  0  0  0  0  0  0  0  0  0  0
   12.6930  -56.4100   40.2610 H   0  0  0  0  0  0  0  0  0  0  0  0
   14.0710  -55.3020   39.6050 H   0  0  0  0  0  0  0  0  0  0  0  0
   16.0450  -54.0150   39.0430 H   0  0  0  0  0  0  0  0  0  0  0  0
   17.5470  -54.8440   37.2950 H   0  0  0  0  0  0  0  0  0  0  0  0
   17.0370  -56.9790   36.1230 H   0  0  0  0  0  0  0  0  0  0  0  0
   14.0500  -59.5450   34.4170 H   0  0  0  0  0  0  0  0  0  0  0  0
   15.2620  -60.8080   35.0050 H   0  0  0  0  0  0  0  0  0  0  0  0
   13.6280  -61.3030   34.3100 H   0  0  0  0  0  0  0  0  0  0  0  0
  1 39  1  0  0  0  0
  2 20  2  0  0  0  0
  4 20  1  0  0  0  0
  5 16  1  0  0  0  0
  5  4  1  0  0  0  0
  6 17  1  0  0  0  0
  6 18  1  0  0  0  0
  7 18  1  0  0  0  0
  7 19  1  0  0  0  0
  8 17  1  0  0  0  0
  9  8  2  0  0  0  0
 10 43  1  0  0  0  0
 10  8  1  0  0  0  0
 11 30  1  0  0  0  0
 12 13  1  0  0  0  0
 13 34  1  0  0  0  0
 13 14  1  0  0  0  0
 14 35  1  0  0  0  0
 14 36  1  0  0  0  0
 15 14  1  0  0  0  0
 16 15  1  1  0  0  0
 17 16  1  0  0  0  0
 21 37  1  0  0  0  0
 21 38  1  0  0  0  0
 22  2  1  1  0  0  0
 22  1  1  0  0  0  0
 23 22  1  0  0  0  0
 23 40  1  0  0  0  0
 24 23  2  0  0  0  0
 25 29  1  0  0  0  0
 26 44  1  0  0  0  0
 26 11  1  0  0  0  0
 27 21  1  0  0  0  0
 28  5  1  0  0  0  0
 31 12  1  0  0  0  0
 32 12  1  0  0  0  0
 33 13  1  0  0  0  0
 41 24  1  0  0  0  0
 42 25  1  0  0  0  0
 45 26  1  0  0  0  0
M  END
>  <Pose>
1

>  <Score>
-7.03

$$$$
