
 OpenBabel03232204043D

 57 60  0  0  0  0  0  0  0  0999 V2000
   15.9780  -53.4130   38.2280 B   0  0  0  0  0  0  0  0  0  0  0  0
   17.5190  -53.9640   37.2620 C   0  0  0  0  0  0  0  0  0  0  0  0
   17.3660  -54.6550   36.0750 C   0  0  0  0  0  0  0  0  0  0  0  0
   18.4610  -55.0910   35.3140 C   0  0  0  0  0  0  0  0  0  0  0  0
   19.7320  -54.8240   35.7600 C   0  0  0  0  0  0  0  0  0  0  0  0
   19.8910  -54.1330   36.9460 C   0  0  0  0  0  0  0  0  0  0  0  0
   18.8160  -53.7050   37.6930 C   0  0  0  0  0  0  0  0  0  0  0  0
   21.6390  -53.7460   37.5930 B   0  0  0  0  0  0  0  0  0  0  0  0
   18.2490  -55.8290   34.0750 C   0  0  0  0  0  0  0  0  0  0  0  0
   19.2100  -56.5530   33.6950 O   0  0  0  0  0  0  0  0  0  0  0  0
   17.0080  -55.7440   33.3150 C   0  0  0  0  0  0  0  0  0  0  0  0
   15.9820  -54.9160   34.1340 C   0  0  0  0  0  0  0  0  0  0  0  0
   16.1530  -54.9940   35.5020 O   0  0  0  0  0  0  0  0  0  0  0  0
   17.0460  -55.0740   32.0190 C   0  0  0  0  0  0  0  0  0  0  0  0
   18.1020  -55.0660   31.1170 N   0  0  0  0  0  4  0  0  0  0  0  0
   18.4690  -56.2500   30.4060 C   0  0  0  0  0  0  0  0  0  0  0  0
   19.1850  -55.7720   29.1170 C   0  0  0  0  0  0  0  0  0  0  0  0
   20.5390  -55.2750   29.5800 C   0  0  0  0  0  0  0  0  0  0  0  0
   20.5600  -55.0080   31.0680 C   0  0  0  0  0  0  0  0  0  0  0  0
   19.2880  -54.3340   31.5380 C   0  0  0  0  0  0  0  0  0  0  0  0
   16.4650  -57.1550   33.1500 C   0  0  0  0  0  0  0  0  0  0  0  0
   16.2970  -57.8440   34.4060 N   0  0  0  0  0  4  0  0  0  0  0  0
   16.4830  -59.2670   34.1620 C   0  0  0  0  0  0  0  0  0  0  0  0
   15.5670  -59.6980   33.0660 C   0  0  0  0  0  0  0  0  0  0  0  0
   14.1360  -59.3590   33.2670 C   0  0  0  0  0  0  0  0  0  0  0  0
   13.8740  -58.0670   33.9620 C   0  0  0  0  0  0  0  0  0  0  0  0
   14.9610  -57.7470   34.9640 C   0  0  0  0  0  0  0  0  0  0  0  0
   20.6050  -55.1560   35.1800 H   0  0  0  0  0  0  0  0  0  0  0  0
   18.9360  -53.1630   38.6230 H   0  0  0  0  0  0  0  0  0  0  0  0
   14.9530  -55.1700   33.7870 H   0  0  0  0  0  0  0  0  0  0  0  0
   16.1220  -53.8670   33.8040 H   0  0  0  0  0  0  0  0  0  0  0  0
   16.7640  -53.9770   32.1640 H   0  0  0  0  0  0  0  0  0  0  0  0
   16.1170  -55.4410   31.4600 H   0  0  0  0  0  0  0  0  0  0  0  0
   17.7360  -54.4370   30.3110 H   0  0  0  0  0  0  0  0  0  0  0  0
   17.5980  -56.8320   30.0810 H   0  0  0  0  0  0  0  0  0  0  0  0
   19.2800  -56.8510   30.8740 H   0  0  0  0  0  0  0  0  0  0  0  0
   18.5990  -54.9660   28.6370 H   0  0  0  0  0  0  0  0  0  0  0  0
   19.2750  -56.6510   28.4470 H   0  0  0  0  0  0  0  0  0  0  0  0
   21.2540  -56.1290   29.4130 H   0  0  0  0  0  0  0  0  0  0  0  0
   20.9180  -54.4360   28.9810 H   0  0  0  0  0  0  0  0  0  0  0  0
   21.3750  -54.2380   31.2160 H   0  0  0  0  0  0  0  0  0  0  0  0
   20.8630  -55.8620   31.6770 H   0  0  0  0  0  0  0  0  0  0  0  0
   19.3350  -53.2940   31.0930 H   0  0  0  0  0  0  0  0  0  0  0  0
   19.3570  -54.1610   32.6110 H   0  0  0  0  0  0  0  0  0  0  0  0
   15.5680  -57.1660   32.5240 H   0  0  0  0  0  0  0  0  0  0  0  0
   17.2660  -57.6960   32.6100 H   0  0  0  0  0  0  0  0  0  0  0  0
   16.9440  -57.4840   35.1290 H   0  0  0  0  0  0  0  0  0  0  0  0
   17.5160  -59.5190   33.9050 H   0  0  0  0  0  0  0  0  0  0  0  0
   16.1500  -59.7970   35.0930 H   0  0  0  0  0  0  0  0  0  0  0  0
   15.6520  -60.8240   33.0040 H   0  0  0  0  0  0  0  0  0  0  0  0
   15.8690  -59.3490   32.0580 H   0  0  0  0  0  0  0  0  0  0  0  0
   13.6230  -59.3000   32.2620 H   0  0  0  0  0  0  0  0  0  0  0  0
   13.6230  -60.2240   33.7740 H   0  0  0  0  0  0  0  0  0  0  0  0
   12.9410  -58.2230   34.5830 H   0  0  0  0  0  0  0  0  0  0  0  0
   13.6240  -57.2220   33.2990 H   0  0  0  0  0  0  0  0  0  0  0  0
   14.7530  -56.8430   35.5260 H   0  0  0  0  0  0  0  0  0  0  0  0
   14.9050  -58.5840   35.7260 H   0  0  0  0  0  0  0  0  0  0  0  0
  2  7  1  0  0  0  0
  2  1  1  0  0  0  0
  3  2  2  0  0  0  0
  4  5  2  0  0  0  0
  4  3  1  0  0  0  0
  5  6  1  0  0  0  0
  6  8  1  0  0  0  0
  6  7  2  0  0  0  0
  7 29  1  0  0  0  0
  9  4  1  0  0  0  0
 10  9  2  0  0  0  0
 11  9  1  0  0  0  0
 11 12  1  0  0  0  0
 12 13  1  0  0  0  0
 13  3  1  0  0  0  0
 14 32  1  0  0  0  0
 14 11  1  0  0  0  0
 15 20  1  0  0  0  0
 15 14  1  0  0  0  0
 16 36  1  0  0  0  0
 16 15  1  0  0  0  0
 17 18  1  0  0  0  0
 17 16  1  0  0  0  0
 18 19  1  0  0  0  0
 19 41  1  0  0  0  0
 19 20  1  0  0  0  0
 19 42  1  0  0  0  0
 20 44  1  0  0  0  0
 21 11  1  0  0  0  0
 21 22  1  0  0  0  0
 22 27  1  0  0  0  0
 22 47  1  0  0  0  0
 23 22  1  0  0  0  0
 23 49  1  0  0  0  0
 24 25  1  0  0  0  0
 24 23  1  0  0  0  0
 25 53  1  0  0  0  0
 25 26  1  0  0  0  0
 26 54  1  0  0  0  0
 26 27  1  0  0  0  0
 27 56  1  0  0  0  0
 27 57  1  0  0  0  0
 28  5  1  0  0  0  0
 30 12  1  0  0  0  0
 31 12  1  0  0  0  0
 33 14  1  0  0  0  0
 34 15  1  0  0  0  0
 35 16  1  0  0  0  0
 37 17  1  0  0  0  0
 38 17  1  0  0  0  0
 39 18  1  0  0  0  0
 40 18  1  0  0  0  0
 43 20  1  0  0  0  0
 45 21  1  0  0  0  0
 46 21  1  0  0  0  0
 48 23  1  0  0  0  0
 50 24  1  0  0  0  0
 51 24  1  0  0  0  0
 52 25  1  0  0  0  0
 55 26  1  0  0  0  0
M  END
>  <Pose>
1

>  <Score>
-4.85

$$$$
