
 OpenBabel03232204043D

 44 47  0  0  1  0  0  0  0  0999 V2000
   20.9330  -55.4690   29.6680 B   0  0  0  0  0  0  0  0  0  0  0  0
   19.7630  -55.8470   31.1350 C   0  0  0  0  0  0  0  0  0  0  0  0
   19.7040  -55.0290   32.2450 C   0  0  0  0  0  0  0  0  0  0  0  0
   18.8600  -55.2920   33.3110 C   0  0  0  0  0  0  0  0  0  0  0  0
   18.0750  -56.4200   33.2100 C   0  0  0  0  0  0  0  0  0  0  0  0
   18.1070  -57.2600   32.1190 C   0  0  0  0  0  0  0  0  0  0  0  0
   18.9570  -56.9830   31.0610 C   0  0  0  0  0  0  0  0  0  0  0  0
   16.9910  -58.8090   32.0420 B   0  0  0  0  0  0  0  0  0  0  0  0
   18.9910  -54.2760   34.3450 C   0  0  0  0  0  0  0  0  0  0  0  0
   18.3930  -54.1610   35.4700 N   0  0  0  0  0  0  0  0  0  0  0  0
   18.6420  -53.1070   36.3560 N   0  0  0  0  0  0  0  0  0  0  0  0
   18.1100  -53.1980   37.6610 C   0  0  0  0  0  0  0  0  0  0  0  0
   18.7440  -53.7830   38.5640 O   0  0  0  0  0  0  0  0  0  0  0  0
   16.7820  -52.6110   38.0280 C   0  0  0  0  0  0  0  0  0  0  0  0
   15.7340  -53.5930   38.0030 N   0  0  0  0  0  0  0  0  0  0  0  0
   15.3520  -54.3440   39.1470 C   0  0  0  0  0  0  0  0  0  0  0  0
   15.1240  -53.7280   40.2120 O   0  0  0  0  0  0  0  0  0  0  0  0
   15.2090  -55.8310   39.1490 C   0  0  2  0  0  0  0  0  0  0  0  0
   15.9340  -56.4250   38.1130 O   0  0  0  0  0  0  0  0  0  0  0  0
   15.3700  -57.0340   36.9940 C   0  0  0  0  0  0  0  0  0  0  0  0
   14.0530  -57.3980   37.0820 C   0  0  0  0  0  0  0  0  0  0  0  0
   13.4620  -58.0100   35.9770 C   0  0  0  0  0  0  0  0  0  0  0  0
   14.1540  -58.2600   34.8130 C   0  0  0  0  0  0  0  0  0  0  0  0
   15.4800  -57.8790   34.7610 C   0  0  0  0  0  0  0  0  0  0  0  0
   16.0680  -57.2740   35.8480 C   0  0  0  0  0  0  0  0  0  0  0  0
   13.3570  -57.1550   38.2340 O   0  0  0  0  0  0  0  0  0  0  0  0
   13.7890  -56.2690   39.2290 C   0  0  0  0  0  0  0  0  0  0  0  0
   19.9980  -53.3330   33.8470 C   0  0  0  0  0  0  0  0  0  0  0  0
   20.3780  -52.3110   34.4800 O   0  0  0  0  0  0  0  0  0  0  0  0
   20.3930  -53.8310   32.5840 N   0  0  0  0  0  0  0  0  0  0  0  0
   17.4030  -56.6660   34.0140 H   0  0  0  0  0  0  0  0  0  0  0  0
   18.9970  -57.6180   30.2060 H   0  0  0  0  0  0  0  0  0  0  0  0
   19.2080  -52.3070   36.0020 H   0  0  0  0  0  0  0  0  0  0  0  0
   16.8980  -52.2440   39.0710 H   0  0  0  0  0  0  0  0  0  0  0  0
   16.5490  -51.7230   37.3990 H   0  0  0  0  0  0  0  0  0  0  0  0
   15.2010  -53.7960   37.1250 H   0  0  0  0  0  0  0  0  0  0  0  0
   15.7240  -56.1530   40.1010 H   0  0  0  0  0  0  0  0  0  0  0  0
   12.4200  -58.2890   36.0700 H   0  0  0  0  0  0  0  0  0  0  0  0
   13.6580  -58.7360   33.9810 H   0  0  0  0  0  0  0  0  0  0  0  0
   16.0290  -58.0810   33.8250 H   0  0  0  0  0  0  0  0  0  0  0  0
   17.1080  -56.9870   35.7810 H   0  0  0  0  0  0  0  0  0  0  0  0
   13.5810  -56.7440   40.2380 H   0  0  0  0  0  0  0  0  0  0  0  0
   13.1240  -55.3750   39.1810 H   0  0  0  0  0  0  0  0  0  0  0  0
   21.0990  -53.3810   31.9770 H   0  0  0  0  0  0  0  0  0  0  0  0
  1  2  1  0  0  0  0
  2  3  1  0  0  0  0
  3 30  1  0  0  0  0
  3  4  2  0  0  0  0
  4  9  1  0  0  0  0
  5  4  1  0  0  0  0
  5 31  1  0  0  0  0
  6  5  2  0  0  0  0
  7  2  2  0  0  0  0
  7  6  1  0  0  0  0
  8  6  1  0  0  0  0
  9 10  2  0  0  0  0
 10 11  1  0  0  0  0
 11 12  1  0  0  0  0
 12 14  1  0  0  0  0
 12 13  2  0  0  0  0
 14 34  1  0  0  0  0
 15 14  1  0  0  0  0
 15 16  1  0  0  0  0
 16 18  1  0  0  0  0
 16 17  2  0  0  0  0
 18 27  1  0  0  0  0
 18 37  1  1  0  0  0
 19 18  1  0  0  0  0
 20 21  1  0  0  0  0
 20 19  1  0  0  0  0
 21 26  1  0  0  0  0
 22 38  1  0  0  0  0
 22 21  2  0  0  0  0
 23 22  1  0  0  0  0
 24 23  2  0  0  0  0
 24 25  1  0  0  0  0
 25 20  2  0  0  0  0
 26 27  1  0  0  0  0
 27 42  1  0  0  0  0
 28  9  1  0  0  0  0
 28 29  2  0  0  0  0
 30 28  1  0  0  0  0
 32  7  1  0  0  0  0
 33 11  1  0  0  0  0
 35 14  1  0  0  0  0
 36 15  1  0  0  0  0
 39 23  1  0  0  0  0
 40 24  1  0  0  0  0
 41 25  1  0  0  0  0
 43 27  1  0  0  0  0
 44 30  1  0  0  0  0
M  END
>  <Pose>
1

>  <Score>
-8.67

$$$$
