
 OpenBabel03232204043D

 31 34  0  0  0  0  0  0  0  0999 V2000
   20.4720  -53.8640   33.4110 B   0  0  0  0  0  0  0  0  0  0  0  0
   19.0950  -54.3730   34.6490 C   0  0  0  0  0  0  0  0  0  0  0  0
   18.7930  -53.4890   35.6640 C   0  0  0  0  0  0  0  0  0  0  0  0
   17.8080  -53.8530   36.5490 C   0  0  0  0  0  0  0  0  0  0  0  0
   17.1500  -55.0760   36.4120 C   0  0  0  0  0  0  0  0  0  0  0  0
   17.4430  -55.9650   35.4040 C   0  0  0  0  0  0  0  0  0  0  0  0
   18.4470  -55.5840   34.5090 C   0  0  0  0  0  0  0  0  0  0  0  0
   16.7580  -57.2710   35.2330 C   0  0  0  0  0  0  0  0  0  0  0  0
   16.6760  -57.9410   36.5080 N   0  0  0  0  0  0  0  0  0  0  0  0
   15.3770  -58.1280   37.1000 C   0  0  0  0  0  0  0  0  0  0  0  0
   14.5750  -59.1270   36.7060 N   0  0  0  0  0  0  0  0  0  0  0  0
   13.3630  -59.2950   37.2650 C   0  0  0  0  0  0  0  0  0  0  0  0
   12.9040  -58.4420   38.2640 C   0  0  0  0  0  0  0  0  0  0  0  0
   13.7070  -57.4520   38.6510 N   0  0  0  0  0  0  0  0  0  0  0  0
   14.9310  -57.2790   38.0890 C   0  0  0  0  0  0  0  0  0  0  0  0
   15.5020  -56.2140   38.6730 N   0  0  0  0  0  0  0  0  0  0  0  0
   14.6840  -55.7090   39.5820 N   0  0  0  0  0  0  0  0  0  0  0  0
   13.5870  -56.4710   39.5630 C   0  0  0  0  0  0  0  0  0  0  0  0
   17.6960  -52.8030   37.4630 O   0  0  0  0  0  0  0  0  0  0  0  0
   18.9390  -52.0840   37.4360 C   0  0  0  0  0  0  0  0  0  0  0  0
   19.2650  -52.2280   36.0470 O   0  0  0  0  0  0  0  0  0  0  0  0
   16.3920  -55.3190   37.1270 H   0  0  0  0  0  0  0  0  0  0  0  0
   18.7250  -56.2360   33.6970 H   0  0  0  0  0  0  0  0  0  0  0  0
   17.3930  -57.9160   34.5670 H   0  0  0  0  0  0  0  0  0  0  0  0
   15.7630  -57.1570   34.7540 H   0  0  0  0  0  0  0  0  0  0  0  0
   17.5170  -58.2860   37.0000 H   0  0  0  0  0  0  0  0  0  0  0  0
   12.7000  -60.0880   36.9680 H   0  0  0  0  0  0  0  0  0  0  0  0
   11.9370  -58.5800   38.7060 H   0  0  0  0  0  0  0  0  0  0  0  0
   12.7320  -56.2900   40.2140 H   0  0  0  0  0  0  0  0  0  0  0  0
   18.8260  -51.0440   37.7360 H   0  0  0  0  0  0  0  0  0  0  0  0
   19.6930  -52.6570   38.0090 H   0  0  0  0  0  0  0  0  0  0  0  0
  1  2  1  0  0  0  0
  2  3  1  0  0  0  0
  3 21  1  0  0  0  0
  3  4  2  0  0  0  0
  4 19  1  0  0  0  0
  5  4  1  0  0  0  0
  5 22  1  0  0  0  0
  6  5  2  0  0  0  0
  7  2  2  0  0  0  0
  7  6  1  0  0  0  0
  8  6  1  0  0  0  0
  8  9  1  0  0  0  0
  9 26  1  0  0  0  0
  9 10  1  0  0  0  0
 10 15  1  0  0  0  0
 11 10  2  0  0  0  0
 11 12  1  0  0  0  0
 12 13  2  0  0  0  0
 13 14  1  0  0  0  0
 13 28  1  0  0  0  0
 14 18  1  0  0  0  0
 15 14  1  0  0  0  0
 15 16  2  0  0  0  0
 16 17  1  0  0  0  0
 18 17  2  0  0  0  0
 18 29  1  0  0  0  0
 20 19  1  0  0  0  0
 20 30  1  0  0  0  0
 20 31  1  0  0  0  0
 21 20  1  0  0  0  0
 23  7  1  0  0  0  0
 24  8  1  0  0  0  0
 25  8  1  0  0  0  0
 27 12  1  0  0  0  0
M  END
>  <Pose>
1

>  <Score>
-6.04

$$$$
