
 OpenBabel03232204043D

 56 59  0  0  1  0  0  0  0  0999 V2000
   16.5020  -56.8740   36.0940 B   0  0  0  0  0  0  0  0  0  0  0  0
   16.9880  -56.2140   34.3770 C   0  0  0  0  0  0  0  0  0  0  0  0
   18.0900  -55.3900   34.2560 C   0  0  0  0  0  0  0  0  0  0  0  0
   18.4660  -54.8980   33.0230 C   0  0  0  0  0  0  0  0  0  0  0  0
   17.6970  -55.2660   31.9380 C   0  0  0  0  0  0  0  0  0  0  0  0
   16.5970  -56.0910   32.0680 C   0  0  0  0  0  0  0  0  0  0  0  0
   16.2130  -56.5890   33.2970 C   0  0  0  0  0  0  0  0  0  0  0  0
   15.1050  -57.4220   33.4410 O   0  0  0  0  0  0  0  0  0  0  0  0
   15.3420  -58.7820   33.7480 C   0  0  0  0  0  0  0  0  0  0  0  0
   14.5360  -59.2440   34.9350 C   0  0  2  0  0  0  0  0  0  0  0  0
   14.8450  -60.5190   35.3330 O   0  0  0  0  0  0  0  0  0  0  0  0
   13.0780  -59.0630   34.6900 C   0  0  0  0  0  0  0  0  0  0  0  0
   12.3270  -58.6910   35.8680 N   0  0  0  0  0  4  0  0  0  0  0  0
   13.2900  -58.4910   36.9360 C   0  0  0  0  0  0  0  0  0  0  0  0
   12.6090  -58.3390   38.3030 C   0  0  0  0  0  0  0  0  0  0  0  0
   11.8200  -59.4920   38.5520 N   0  0  0  0  0  0  0  0  0  0  0  0
   11.8010  -60.4780   37.4510 C   0  0  0  0  0  0  0  0  0  0  0  0
   11.4100  -59.7730   36.1950 C   0  0  0  0  0  0  0  0  0  0  0  0
   11.0950  -59.7400   39.7230 C   0  0  0  0  0  0  0  0  0  0  0  0
   11.6500  -60.6610   40.4940 O   0  0  0  0  0  0  0  0  0  0  0  0
    9.8820  -59.1920   40.2360 C   0  0  0  0  0  0  0  0  0  0  0  0
    9.7500  -58.3500   41.3030 C   0  0  0  0  0  0  0  0  0  0  0  0
    8.5350  -57.8520   41.7520 C   0  0  0  0  0  0  0  0  0  0  0  0
    7.3830  -58.1960   41.1220 C   0  0  0  0  0  0  0  0  0  0  0  0
    7.4810  -59.0460   40.0390 C   0  0  0  0  0  0  0  0  0  0  0  0
    8.6830  -59.5390   39.5960 C   0  0  0  0  0  0  0  0  0  0  0  0
   19.5700  -54.0720   32.9030 C   0  0  0  0  0  0  0  0  0  0  0  0
   20.3400  -53.7030   33.9870 C   0  0  0  0  0  0  0  0  0  0  0  0
   19.9640  -54.1950   35.2210 C   0  0  0  0  0  0  0  0  0  0  0  0
   18.8630  -55.0190   35.3420 C   0  0  0  0  0  0  0  0  0  0  0  0
   17.9860  -54.8840   30.9670 H   0  0  0  0  0  0  0  0  0  0  0  0
   15.9930  -56.3790   31.2090 H   0  0  0  0  0  0  0  0  0  0  0  0
   15.0460  -59.3740   32.8580 H   0  0  0  0  0  0  0  0  0  0  0  0
   16.4340  -58.8980   33.9240 H   0  0  0  0  0  0  0  0  0  0  0  0
   14.8050  -58.5430   35.7790 H   0  0  0  0  0  0  0  0  0  0  0  0
   14.7660  -60.6830   36.2910 H   0  0  0  0  0  0  0  0  0  0  0  0
   12.6600  -60.0500   34.3510 H   0  0  0  0  0  0  0  0  0  0  0  0
   12.8960  -58.2860   33.9280 H   0  0  0  0  0  0  0  0  0  0  0  0
   11.7870  -57.8060   35.7600 H   0  0  0  0  0  0  0  0  0  0  0  0
   14.0550  -59.2830   36.9290 H   0  0  0  0  0  0  0  0  0  0  0  0
   13.7890  -57.5180   36.7400 H   0  0  0  0  0  0  0  0  0  0  0  0
   13.4420  -58.2980   39.0290 H   0  0  0  0  0  0  0  0  0  0  0  0
   12.0720  -57.3730   38.3020 H   0  0  0  0  0  0  0  0  0  0  0  0
   12.8390  -60.8430   37.3560 H   0  0  0  0  0  0  0  0  0  0  0  0
   11.1040  -61.2850   37.6630 H   0  0  0  0  0  0  0  0  0  0  0  0
   10.3690  -59.4080   36.2920 H   0  0  0  0  0  0  0  0  0  0  0  0
   11.3970  -60.5370   35.3760 H   0  0  0  0  0  0  0  0  0  0  0  0
   10.5970  -58.0270   41.8560 H   0  0  0  0  0  0  0  0  0  0  0  0
    8.4990  -57.1840   42.6100 H   0  0  0  0  0  0  0  0  0  0  0  0
    6.4190  -57.8290   41.4440 H   0  0  0  0  0  0  0  0  0  0  0  0
    6.5610  -59.3200   39.5390 H   0  0  0  0  0  0  0  0  0  0  0  0
    8.6420  -60.1960   38.7400 H   0  0  0  0  0  0  0  0  0  0  0  0
   19.8670  -53.6850   31.9360 H   0  0  0  0  0  0  0  0  0  0  0  0
   21.1990  -53.0540   33.8590 H   0  0  0  0  0  0  0  0  0  0  0  0
   20.5760  -53.9000   36.0710 H   0  0  0  0  0  0  0  0  0  0  0  0
   18.5690  -55.4050   36.3120 H   0  0  0  0  0  0  0  0  0  0  0  0
  2  1  1  0  0  0  0
  3  2  1  0  0  0  0
  3 30  1  0  0  0  0
  4  3  2  0  0  0  0
  5  6  2  0  0  0  0
  5  4  1  0  0  0  0
  6  7  1  0  0  0  0
  7  8  1  0  0  0  0
  7  2  2  0  0  0  0
  8  9  1  0  0  0  0
  9 34  1  0  0  0  0
  9 10  1  0  0  0  0
 10 11  1  0  0  0  0
 10 35  1  1  0  0  0
 11 36  1  0  0  0  0
 12 10  1  0  0  0  0
 12 13  1  0  0  0  0
 13 18  1  0  0  0  0
 13 14  1  0  0  0  0
 14 15  1  0  0  0  0
 15 16  1  0  0  0  0
 15 42  1  0  0  0  0
 16 19  1  0  0  0  0
 17 45  1  0  0  0  0
 17 16  1  0  0  0  0
 18 46  1  0  0  0  0
 18 17  1  0  0  0  0
 19 21  1  0  0  0  0
 19 20  2  0  0  0  0
 21 22  1  0  0  0  0
 22 23  2  0  0  0  0
 22 48  1  0  0  0  0
 23 49  1  0  0  0  0
 24 50  1  0  0  0  0
 24 23  1  0  0  0  0
 25 24  2  0  0  0  0
 26 25  1  0  0  0  0
 26 21  2  0  0  0  0
 27  4  1  0  0  0  0
 27 28  2  0  0  0  0
 28 29  1  0  0  0  0
 29 30  2  0  0  0  0
 29 55  1  0  0  0  0
 30 56  1  0  0  0  0
 31  5  1  0  0  0  0
 32  6  1  0  0  0  0
 33  9  1  0  0  0  0
 37 12  1  0  0  0  0
 38 12  1  0  0  0  0
 39 13  1  0  0  0  0
 40 14  1  0  0  0  0
 41 14  1  0  0  0  0
 43 15  1  0  0  0  0
 44 17  1  0  0  0  0
 47 18  1  0  0  0  0
 51 25  1  0  0  0  0
 52 26  1  0  0  0  0
 53 27  1  0  0  0  0
 54 28  1  0  0  0  0
M  END
>  <Pose>
1

>  <Score>
-7.23

$$$$
