
 OpenBabel03232204043D

 46 49  0  0  0  0  0  0  0  0999 V2000
   14.8490  -57.6910   33.8630 B   0  0  0  0  0  0  0  0  0  0  0  0
   13.8990  -58.3790   35.3940 C   0  0  0  0  0  0  0  0  0  0  0  0
   13.8740  -57.8580   36.6350 N   0  0  0  0  0  0  0  0  0  0  0  0
   13.1010  -58.6200   37.4240 C   0  0  0  0  0  0  0  0  0  0  0  0
   12.6220  -59.6590   36.6500 C   0  0  0  0  0  0  0  0  0  0  0  0
   13.1280  -59.4800   35.4230 N   0  0  0  0  0  0  0  0  0  0  0  0
   11.8100  -60.5710   37.2200 N   0  0  0  0  0  0  0  0  0  0  0  0
   11.4410  -60.5120   38.5190 C   0  0  0  0  0  0  0  0  0  0  0  0
   10.6750  -61.3910   39.0160 O   0  0  0  0  0  0  0  0  0  0  0  0
   11.8880  -59.5130   39.3020 N   0  0  0  0  0  0  0  0  0  0  0  0
   12.6990  -58.5980   38.7430 C   0  0  0  0  0  0  0  0  0  0  0  0
   13.1180  -57.6670   39.4600 O   0  0  0  0  0  0  0  0  0  0  0  0
   11.4780  -59.4710   40.6930 C   0  0  0  0  0  0  0  0  0  0  0  0
   11.3130  -61.6580   36.4010 C   0  0  0  0  0  0  0  0  0  0  0  0
   14.5730  -56.6700   36.9920 C   0  0  0  0  0  0  0  0  0  0  0  0
   15.9870  -56.5530   36.5520 C   0  0  0  0  0  0  0  0  0  0  0  0
   16.6770  -55.3490   36.8700 N   0  0  0  0  0  0  0  0  0  0  0  0
   17.6360  -54.7660   36.1070 C   0  0  0  0  0  0  0  0  0  0  0  0
   18.0820  -53.6260   36.7290 C   0  0  0  0  0  0  0  0  0  0  0  0
   17.3710  -53.5460   37.8660 N   0  0  0  0  0  0  0  0  0  0  0  0
   16.5250  -54.5820   37.9530 C   0  0  0  0  0  0  0  0  0  0  0  0
   15.2800  -54.9600   39.3750 B   0  0  0  0  0  0  0  0  0  0  0  0
   19.0460  -52.8210   36.2080 N   0  0  0  0  0  0  0  0  0  0  0  0
   19.5670  -53.1900   35.0240 C   0  0  0  0  0  0  0  0  0  0  0  0
   20.4620  -52.4520   34.5300 O   0  0  0  0  0  0  0  0  0  0  0  0
   19.1700  -54.2960   34.3700 N   0  0  0  0  0  0  0  0  0  0  0  0
   18.2250  -55.0780   34.8880 C   0  0  0  0  0  0  0  0  0  0  0  0
   17.8090  -56.1270   34.3270 O   0  0  0  0  0  0  0  0  0  0  0  0
   19.7630  -54.6490   33.0970 C   0  0  0  0  0  0  0  0  0  0  0  0
   19.4930  -51.6180   36.8960 C   0  0  0  0  0  0  0  0  0  0  0  0
   12.1740  -58.8470   41.2840 H   0  0  0  0  0  0  0  0  0  0  0  0
   10.4620  -59.0330   40.8210 H   0  0  0  0  0  0  0  0  0  0  0  0
   11.4740  -60.5160   41.0680 H   0  0  0  0  0  0  0  0  0  0  0  0
   11.2990  -62.5820   37.0400 H   0  0  0  0  0  0  0  0  0  0  0  0
   11.9840  -61.8420   35.5570 H   0  0  0  0  0  0  0  0  0  0  0  0
   10.2660  -61.4420   36.0940 H   0  0  0  0  0  0  0  0  0  0  0  0
   14.0580  -55.7350   36.6190 H   0  0  0  0  0  0  0  0  0  0  0  0
   14.4810  -56.5690   38.1140 H   0  0  0  0  0  0  0  0  0  0  0  0
   15.9970  -56.7300   35.4440 H   0  0  0  0  0  0  0  0  0  0  0  0
   16.6060  -57.4220   36.9410 H   0  0  0  0  0  0  0  0  0  0  0  0
   19.6330  -55.7240   32.8620 H   0  0  0  0  0  0  0  0  0  0  0  0
   19.2870  -54.0900   32.2430 H   0  0  0  0  0  0  0  0  0  0  0  0
   20.8700  -54.4790   33.0990 H   0  0  0  0  0  0  0  0  0  0  0  0
   18.6510  -51.0720   37.3710 H   0  0  0  0  0  0  0  0  0  0  0  0
   20.3030  -51.8490   37.6220 H   0  0  0  0  0  0  0  0  0  0  0  0
   19.8940  -50.9350   36.1170 H   0  0  0  0  0  0  0  0  0  0  0  0
  1  2  1  0  0  0  0
  2  6  2  0  0  0  0
  2  3  1  0  0  0  0
  3 15  1  0  0  0  0
  3  4  1  0  0  0  0
  4 11  1  0  0  0  0
  5  7  1  0  0  0  0
  5  4  2  0  0  0  0
  6  5  1  0  0  0  0
  7  8  1  0  0  0  0
  8  9  2  0  0  0  0
  8 10  1  0  0  0  0
 10 13  1  0  0  0  0
 11 10  1  0  0  0  0
 11 12  2  0  0  0  0
 13 32  1  0  0  0  0
 13 33  1  0  0  0  0
 13 31  1  0  0  0  0
 14 34  1  0  0  0  0
 14  7  1  0  0  0  0
 15 38  1  0  0  0  0
 16 17  1  0  0  0  0
 16 40  1  0  0  0  0
 16 15  1  0  0  0  0
 17 21  1  0  0  0  0
 18 19  2  0  0  0  0
 18 17  1  0  0  0  0
 19 20  1  0  0  0  0
 20 21  2  0  0  0  0
 21 22  1  0  0  0  0
 23 19  1  0  0  0  0
 23 30  1  0  0  0  0
 24 23  1  0  0  0  0
 25 24  2  0  0  0  0
 26 27  1  0  0  0  0
 26 24  1  0  0  0  0
 27 18  1  0  0  0  0
 28 27  2  0  0  0  0
 29 43  1  0  0  0  0
 29 26  1  0  0  0  0
 30 44  1  0  0  0  0
 30 45  1  0  0  0  0
 35 14  1  0  0  0  0
 36 14  1  0  0  0  0
 37 15  1  0  0  0  0
 39 16  1  0  0  0  0
 41 29  1  0  0  0  0
 42 29  1  0  0  0  0
 46 30  1  0  0  0  0
M  END
>  <Pose>
1

>  <Score>
-7.55

$$$$
