
 OpenBabel03232204043D

 40 43  0  0  0  0  0  0  0  0999 V2000
   17.5670  -58.0870   34.7770 B   0  0  0  0  0  0  0  0  0  0  0  0
   16.0990  -58.0470   35.9970 C   0  0  0  0  0  0  0  0  0  0  0  0
   15.9800  -57.1210   36.9780 N   0  0  0  0  0  0  0  0  0  0  0  0
   14.8290  -57.4100   37.6290 C   0  0  0  0  0  0  0  0  0  0  0  0
   14.2220  -58.5230   37.0550 C   0  0  0  0  0  0  0  0  0  0  0  0
   15.0490  -58.8820   36.0470 N   0  0  0  0  0  0  0  0  0  0  0  0
   13.0570  -59.0010   37.5280 N   0  0  0  0  0  0  0  0  0  0  0  0
   12.4480  -58.4090   38.5700 C   0  0  0  0  0  0  0  0  0  0  0  0
   11.3460  -58.8540   39.0240 O   0  0  0  0  0  0  0  0  0  0  0  0
   12.9870  -57.3280   39.1630 N   0  0  0  0  0  0  0  0  0  0  0  0
   14.1640  -56.8430   38.6900 C   0  0  0  0  0  0  0  0  0  0  0  0
   14.7020  -55.8260   39.2190 O   0  0  0  0  0  0  0  0  0  0  0  0
   12.4220  -60.1570   36.9380 C   0  0  0  0  0  0  0  0  0  0  0  0
   16.9000  -56.0630   37.2230 C   0  0  0  0  0  0  0  0  0  0  0  0
   16.5880  -54.7400   36.6190 C   0  0  0  0  0  0  0  0  0  0  0  0
   17.2410  -53.5910   37.1390 N   0  0  0  0  0  0  0  0  0  0  0  0
   18.2370  -52.8870   36.5770 C   0  0  0  0  0  0  0  0  0  0  0  0
   18.5860  -51.8510   37.4190 C   0  0  0  0  0  0  0  0  0  0  0  0
   17.7620  -51.9770   38.4790 N   0  0  0  0  0  0  0  0  0  0  0  0
   16.9420  -53.0120   38.3390 C   0  0  0  0  0  0  0  0  0  0  0  0
   15.5850  -53.6100   39.5700 B   0  0  0  0  0  0  0  0  0  0  0  0
   19.5540  -51.0030   37.0740 N   0  0  0  0  0  0  0  0  0  0  0  0
   20.1990  -51.1450   35.9130 C   0  0  0  0  0  0  0  0  0  0  0  0
   21.1310  -50.3500   35.5570 O   0  0  0  0  0  0  0  0  0  0  0  0
   19.9180  -52.1280   35.0390 N   0  0  0  0  0  0  0  0  0  0  0  0
   18.9430  -52.9770   35.3880 C   0  0  0  0  0  0  0  0  0  0  0  0
   18.6720  -53.8930   34.5790 O   0  0  0  0  0  0  0  0  0  0  0  0
   19.9310  -49.9150   37.9460 C   0  0  0  0  0  0  0  0  0  0  0  0
   12.5320  -56.8540   39.9720 H   0  0  0  0  0  0  0  0  0  0  0  0
   11.4320  -59.8410   36.5190 H   0  0  0  0  0  0  0  0  0  0  0  0
   12.3210  -60.9190   37.7250 H   0  0  0  0  0  0  0  0  0  0  0  0
   13.0800  -60.5710   36.1340 H   0  0  0  0  0  0  0  0  0  0  0  0
   17.9500  -56.3830   37.0180 H   0  0  0  0  0  0  0  0  0  0  0  0
   16.9190  -55.8820   38.3460 H   0  0  0  0  0  0  0  0  0  0  0  0
   15.4700  -54.6310   36.5900 H   0  0  0  0  0  0  0  0  0  0  0  0
   16.8880  -54.8200   35.5270 H   0  0  0  0  0  0  0  0  0  0  0  0
   20.4450  -52.2100   34.1320 H   0  0  0  0  0  0  0  0  0  0  0  0
   19.0390  -49.6610   38.5490 H   0  0  0  0  0  0  0  0  0  0  0  0
   20.7790  -50.1380   38.5960 H   0  0  0  0  0  0  0  0  0  0  0  0
   20.1750  -48.9900   37.3650 H   0  0  0  0  0  0  0  0  0  0  0  0
  1  2  1  0  0  0  0
  2  6  2  0  0  0  0
  2  3  1  0  0  0  0
  3 14  1  0  0  0  0
  3  4  1  0  0  0  0
  4 11  1  0  0  0  0
  5  7  1  0  0  0  0
  5  4  2  0  0  0  0
  6  5  1  0  0  0  0
  7  8  1  0  0  0  0
  8  9  2  0  0  0  0
  8 10  1  0  0  0  0
 10 29  1  0  0  0  0
 11 10  1  0  0  0  0
 11 12  2  0  0  0  0
 13  7  1  0  0  0  0
 13 31  1  0  0  0  0
 14 34  1  0  0  0  0
 15 16  1  0  0  0  0
 15 14  1  0  0  0  0
 16 20  1  0  0  0  0
 17 16  1  0  0  0  0
 17 18  2  0  0  0  0
 18 19  1  0  0  0  0
 20 19  2  0  0  0  0
 20 21  1  0  0  0  0
 22 18  1  0  0  0  0
 22 28  1  0  0  0  0
 23 22  1  0  0  0  0
 24 23  2  0  0  0  0
 25 26  1  0  0  0  0
 25 23  1  0  0  0  0
 26 17  1  0  0  0  0
 27 26  2  0  0  0  0
 28 38  1  0  0  0  0
 28 39  1  0  0  0  0
 30 13  1  0  0  0  0
 32 13  1  0  0  0  0
 33 14  1  0  0  0  0
 35 15  1  0  0  0  0
 36 15  1  0  0  0  0
 37 25  1  0  0  0  0
 40 28  1  0  0  0  0
M  END
>  <Pose>
1

>  <Score>
-8.15

$$$$
