
 OpenBabel03232204043D

 50 54  0  0  1  0  0  0  0  0999 V2000
   12.8400  -58.0510   38.1920 B   0  0  0  0  0  0  0  0  0  0  0  0
   14.0470  -56.6140   38.5840 C   0  0  0  0  0  0  0  0  0  0  0  0
   15.1100  -56.2130   37.8620 N   0  0  0  0  0  0  0  0  0  0  0  0
   15.7110  -55.1830   38.4450 N   0  0  0  0  0  0  0  0  0  0  0  0
   15.0010  -54.9380   39.5610 C   0  0  0  0  0  0  0  0  0  0  0  0
   13.9790  -55.8020   39.6630 N   0  0  0  0  0  0  0  0  0  0  0  0
   16.8950  -54.4640   37.9770 C   0  0  2  0  0  0  0  0  0  0  0  0
   17.5270  -55.2310   36.8380 C   0  0  0  0  0  0  0  0  0  0  0  0
   18.6080  -54.3970   36.2140 C   0  0  2  0  0  0  0  0  0  0  0  0
   19.7020  -54.2500   37.2800 C   0  0  0  0  0  0  0  0  0  0  0  0
   19.1050  -53.5870   38.4960 C   0  0  2  0  0  0  0  0  0  0  0  0
   17.9380  -54.3490   39.0680 C   0  0  0  0  0  0  0  0  0  0  0  0
   18.6840  -52.2010   38.1250 C   0  0  0  0  0  0  0  0  0  0  0  0
   17.6280  -52.2910   37.0460 C   0  0  2  0  0  0  0  0  0  0  0  0
   16.4810  -53.0800   37.5830 C   0  0  0  0  0  0  0  0  0  0  0  0
   18.1830  -53.0170   35.8400 C   0  0  0  0  0  0  0  0  0  0  0  0
   19.1880  -55.0610   35.0280 C   0  0  0  0  0  0  0  0  0  0  0  0
   20.2520  -54.5920   34.5500 O   0  0  0  0  0  0  0  0  0  0  0  0
   18.5600  -56.1990   34.4430 N   0  0  0  0  0  0  0  0  0  0  0  0
   18.9620  -56.8160   33.2300 C   0  0  0  0  0  0  0  0  0  0  0  0
   19.1300  -56.1570   32.0450 C   0  0  0  0  0  0  0  0  0  0  0  0
   19.5140  -57.0750   31.1270 N   0  0  0  0  0  0  0  0  0  0  0  0
   19.5820  -58.2530   31.7100 N   0  0  0  0  0  0  0  0  0  0  0  0
   19.2510  -58.1460   33.0010 C   0  0  0  0  0  0  0  0  0  0  0  0
   19.8140  -56.8560   29.7230 C   0  0  0  0  0  0  0  0  0  0  0  0
   18.9660  -54.7590   31.7010 C   0  0  0  0  0  0  0  0  0  0  0  0
   17.8400  -54.2040   31.7460 O   0  0  0  0  0  0  0  0  0  0  0  0
   20.0400  -53.9220   31.2930 N   0  0  0  0  0  0  0  0  0  0  0  0
   15.2190  -54.1570   40.2740 H   0  0  0  0  0  0  0  0  0  0  0  0
   18.0440  -56.1130   37.3180 H   0  0  0  0  0  0  0  0  0  0  0  0
   16.8090  -55.6460   36.1320 H   0  0  0  0  0  0  0  0  0  0  0  0
   20.5250  -53.6270   36.9200 H   0  0  0  0  0  0  0  0  0  0  0  0
   20.1040  -55.2220   37.5910 H   0  0  0  0  0  0  0  0  0  0  0  0
   19.8820  -53.5250   39.2790 H   0  0  0  0  0  0  0  0  0  0  0  0
   18.2410  -55.3290   39.4760 H   0  0  0  0  0  0  0  0  0  0  0  0
   17.5310  -53.7560   39.9000 H   0  0  0  0  0  0  0  0  0  0  0  0
   19.5670  -51.6050   37.7880 H   0  0  0  0  0  0  0  0  0  0  0  0
   18.2670  -51.6700   38.9990 H   0  0  0  0  0  0  0  0  0  0  0  0
   17.2700  -51.3040   36.7190 H   0  0  0  0  0  0  0  0  0  0  0  0
   16.0760  -52.5760   38.4720 H   0  0  0  0  0  0  0  0  0  0  0  0
   15.6970  -53.1210   36.7990 H   0  0  0  0  0  0  0  0  0  0  0  0
   17.3910  -53.0840   35.0650 H   0  0  0  0  0  0  0  0  0  0  0  0
   19.0740  -52.4580   35.5120 H   0  0  0  0  0  0  0  0  0  0  0  0
   17.7490  -56.5910   34.9570 H   0  0  0  0  0  0  0  0  0  0  0  0
   19.2130  -58.9460   33.7470 H   0  0  0  0  0  0  0  0  0  0  0  0
   20.3520  -57.7410   29.3320 H   0  0  0  0  0  0  0  0  0  0  0  0
   20.5790  -56.0320   29.6920 H   0  0  0  0  0  0  0  0  0  0  0  0
   18.9100  -56.6230   29.1250 H   0  0  0  0  0  0  0  0  0  0  0  0
   19.8100  -53.0830   30.6860 H   0  0  0  0  0  0  0  0  0  0  0  0
   21.0380  -54.0680   31.5420 H   0  0  0  0  0  0  0  0  0  0  0  0
  1  2  1  0  0  0  0
  2  6  1  0  0  0  0
  3  4  1  0  0  0  0
  3  2  2  0  0  0  0
  4  5  1  0  0  0  0
  5  6  2  0  0  0  0
  5 29  1  0  0  0  0
  7  4  1  1  0  0  0
  7 12  1  0  0  0  0
  8 30  1  0  0  0  0
  8  7  1  0  0  0  0
  9 17  1  6  0  0  0
  9  8  1  0  0  0  0
  9 10  1  0  0  0  0
 10 33  1  0  0  0  0
 10 11  1  0  0  0  0
 11 12  1  0  0  0  0
 11 34  1  1  0  0  0
 12 35  1  0  0  0  0
 12 36  1  0  0  0  0
 13 11  1  0  0  0  0
 13 38  1  0  0  0  0
 14 39  1  6  0  0  0
 14 15  1  0  0  0  0
 14 13  1  0  0  0  0
 15  7  1  0  0  0  0
 15 40  1  0  0  0  0
 16  9  1  0  0  0  0
 16 14  1  0  0  0  0
 18 17  2  0  0  0  0
 19 44  1  0  0  0  0
 19 17  1  0  0  0  0
 20 19  1  0  0  0  0
 21 20  2  0  0  0  0
 22 23  1  0  0  0  0
 22 21  1  0  0  0  0
 23 24  2  0  0  0  0
 24 20  1  0  0  0  0
 24 45  1  0  0  0  0
 25 22  1  0  0  0  0
 26 27  2  0  0  0  0
 26 21  1  0  0  0  0
 28 50  1  0  0  0  0
 28 26  1  0  0  0  0
 31  8  1  0  0  0  0
 32 10  1  0  0  0  0
 37 13  1  0  0  0  0
 41 15  1  0  0  0  0
 42 16  1  0  0  0  0
 43 16  1  0  0  0  0
 46 25  1  0  0  0  0
 47 25  1  0  0  0  0
 48 25  1  0  0  0  0
 49 28  1  0  0  0  0
M  END
>  <Pose>
1

>  <Score>
-7.26

$$$$
