
 OpenBabel03232204043D

 35 38  0  0  0  0  0  0  0  0999 V2000
   17.5750  -55.3910   35.2070 B   0  0  0  0  0  0  0  0  0  0  0  0
   16.8880  -54.5880   36.7900 C   0  0  0  0  0  0  0  0  0  0  0  0
   17.1420  -53.3160   37.2190 N   0  0  0  0  0  0  0  0  0  0  0  0
   16.4810  -53.1080   38.3320 N   0  0  0  0  0  0  0  0  0  0  0  0
   15.7880  -54.2090   38.6660 C   0  0  0  0  0  0  0  0  0  0  0  0
   14.9620  -54.5160   39.6790 N   0  0  0  0  0  0  0  0  0  0  0  0
   14.3770  -55.7070   39.7730 C   0  0  0  0  0  0  0  0  0  0  0  0
   14.6100  -56.6310   38.8460 N   0  0  0  0  0  0  0  0  0  0  0  0
   15.4380  -56.4230   37.7690 C   0  0  0  0  0  0  0  0  0  0  0  0
   16.0300  -55.1870   37.6870 C   0  0  0  0  0  0  0  0  0  0  0  0
   15.6820  -57.4370   36.8430 N   0  0  0  0  0  0  0  0  0  0  0  0
   15.7500  -58.8240   37.2500 C   0  0  0  0  0  0  0  0  0  0  0  0
   14.4720  -59.5150   36.7280 C   0  0  0  0  0  0  0  0  0  0  0  0
   14.1310  -58.9680   35.3970 C   0  0  0  0  0  0  0  0  0  0  0  0
   13.1620  -59.4090   34.5620 N   0  0  0  0  0  0  0  0  0  0  0  0
   13.1870  -58.6380   33.4610 C   0  0  0  0  0  0  0  0  0  0  0  0
   14.1430  -57.7170   33.5660 N   0  0  0  0  0  0  0  0  0  0  0  0
   14.7300  -57.9190   34.7660 C   0  0  0  0  0  0  0  0  0  0  0  0
   15.8480  -57.2070   35.4310 C   0  0  0  0  0  0  0  0  0  0  0  0
   12.2410  -60.4980   34.7610 C   0  0  0  0  0  0  0  0  0  0  0  0
   16.4500  -51.8880   39.1530 C   0  0  0  0  0  0  0  0  0  0  0  0
   13.7250  -55.9190   40.5900 H   0  0  0  0  0  0  0  0  0  0  0  0
   15.7600  -58.9790   38.3360 H   0  0  0  0  0  0  0  0  0  0  0  0
   16.6330  -59.3520   36.8180 H   0  0  0  0  0  0  0  0  0  0  0  0
   13.6270  -59.3550   37.4240 H   0  0  0  0  0  0  0  0  0  0  0  0
   14.6970  -60.5960   36.7170 H   0  0  0  0  0  0  0  0  0  0  0  0
   12.5330  -58.7210   32.5800 H   0  0  0  0  0  0  0  0  0  0  0  0
   15.8920  -56.1320   35.1680 H   0  0  0  0  0  0  0  0  0  0  0  0
   16.7870  -57.7390   35.0960 H   0  0  0  0  0  0  0  0  0  0  0  0
   11.2130  -60.2300   34.4350 H   0  0  0  0  0  0  0  0  0  0  0  0
   12.5420  -61.3670   34.1270 H   0  0  0  0  0  0  0  0  0  0  0  0
   12.1810  -60.7810   35.8390 H   0  0  0  0  0  0  0  0  0  0  0  0
   15.4010  -51.5610   39.2940 H   0  0  0  0  0  0  0  0  0  0  0  0
   17.0660  -51.1120   38.6660 H   0  0  0  0  0  0  0  0  0  0  0  0
   16.9170  -52.0990   40.1410 H   0  0  0  0  0  0  0  0  0  0  0  0
  1  2  1  0  0  0  0
  2  3  2  0  0  0  0
  2 10  1  0  0  0  0
  3  4  1  0  0  0  0
  4  5  1  0  0  0  0
  4 21  1  0  0  0  0
  5  6  1  0  0  0  0
  6  7  2  0  0  0  0
  7 22  1  0  0  0  0
  8  7  1  0  0  0  0
  9  8  2  0  0  0  0
 10  9  1  0  0  0  0
 10  5  2  0  0  0  0
 11 12  1  0  0  0  0
 11  9  1  0  0  0  0
 12 23  1  0  0  0  0
 13 12  1  0  0  0  0
 13 25  1  0  0  0  0
 14 13  1  0  0  0  0
 15 20  1  0  0  0  0
 15 14  1  0  0  0  0
 16 17  2  0  0  0  0
 16 15  1  0  0  0  0
 17 18  1  0  0  0  0
 18 14  2  0  0  0  0
 18 19  1  0  0  0  0
 19 11  1  0  0  0  0
 20 32  1  0  0  0  0
 21 33  1  0  0  0  0
 21 35  1  0  0  0  0
 24 12  1  0  0  0  0
 26 13  1  0  0  0  0
 27 16  1  0  0  0  0
 28 19  1  0  0  0  0
 29 19  1  0  0  0  0
 30 20  1  0  0  0  0
 31 20  1  0  0  0  0
 34 21  1  0  0  0  0
M  END
>  <Pose>
1

>  <Score>
-5.61

$$$$
