
 OpenBabel03232204043D

 53 56  0  0  1  0  0  0  0  0999 V2000
   15.6350  -60.7480   32.8920 B   0  0  0  0  0  0  0  0  0  0  0  0
   16.5780  -59.2920   32.1260 C   0  0  0  0  0  0  0  0  0  0  0  0
   17.3230  -59.2750   31.0060 N   0  0  0  0  0  0  0  0  0  0  0  0
   17.8430  -58.0970   30.7870 N   0  0  0  0  0  0  0  0  0  0  0  0
   17.4420  -57.2880   31.7860 C   0  0  0  0  0  0  0  0  0  0  0  0
   17.6770  -55.9960   32.0730 N   0  0  0  0  0  0  0  0  0  0  0  0
   17.1670  -55.3960   33.1520 C   0  0  0  0  0  0  0  0  0  0  0  0
   16.3960  -56.0950   33.9770 N   0  0  0  0  0  0  0  0  0  0  0  0
   16.1010  -57.4010   33.7740 C   0  0  0  0  0  0  0  0  0  0  0  0
   16.6350  -58.0220   32.6500 C   0  0  0  0  0  0  0  0  0  0  0  0
   15.2570  -58.1000   34.6440 N   0  0  0  0  0  0  0  0  0  0  0  0
   13.8750  -57.7470   34.8000 C   0  0  0  0  0  0  0  0  0  0  0  0
   13.7830  -57.1040   36.1870 C   0  0  0  0  0  0  0  0  0  0  0  0
   14.9290  -57.4900   37.0190 N   0  0  0  0  0  0  0  0  0  0  0  0
   15.1940  -58.9220   36.8520 C   0  0  0  0  0  0  0  0  0  0  0  0
   15.7310  -59.1930   35.4590 C   0  0  0  0  0  0  0  0  0  0  0  0
   14.5310  -57.2580   38.3980 C   0  0  2  0  0  0  0  0  0  0  0  0
   13.0120  -57.5700   38.4840 C   0  0  0  0  0  0  0  0  0  0  0  0
   14.7400  -55.8520   38.7850 C   0  0  0  0  0  0  0  0  0  0  0  0
   13.9900  -55.4720   39.7770 O   0  0  0  0  0  0  0  0  0  0  0  0
   15.6170  -54.9080   38.2270 N   0  0  0  0  0  0  0  0  0  0  0  0
   16.6550  -55.1130   37.2620 C   0  0  0  0  0  0  0  0  0  0  0  0
   17.9600  -54.4190   37.5920 C   0  0  0  0  0  0  0  0  0  0  0  0
   17.8040  -53.1000   38.2670 C   0  0  0  0  0  0  0  0  0  0  0  0
   16.7480  -53.1290   39.3520 C   0  0  0  0  0  0  0  0  0  0  0  0
   15.4570  -53.5040   38.6710 C   0  0  0  0  0  0  0  0  0  0  0  0
   18.7040  -57.6470   29.7020 C   0  0  0  0  0  0  0  0  0  0  0  0
   17.3840  -54.3240   33.3580 H   0  0  0  0  0  0  0  0  0  0  0  0
   13.3030  -58.7170   34.9520 H   0  0  0  0  0  0  0  0  0  0  0  0
   13.4470  -57.1140   34.0290 H   0  0  0  0  0  0  0  0  0  0  0  0
   13.8710  -56.0130   36.0330 H   0  0  0  0  0  0  0  0  0  0  0  0
   12.8130  -57.2940   36.6810 H   0  0  0  0  0  0  0  0  0  0  0  0
   15.9810  -59.1880   37.5720 H   0  0  0  0  0  0  0  0  0  0  0  0
   14.2910  -59.5230   36.9930 H   0  0  0  0  0  0  0  0  0  0  0  0
   16.8060  -59.3370   35.4640 H   0  0  0  0  0  0  0  0  0  0  0  0
   15.2370  -60.1240   35.0490 H   0  0  0  0  0  0  0  0  0  0  0  0
   15.0680  -57.9190   39.0820 H   0  0  0  0  0  0  0  0  0  0  0  0
   12.5390  -57.3830   37.5010 H   0  0  0  0  0  0  0  0  0  0  0  0
   12.5310  -56.8940   39.2090 H   0  0  0  0  0  0  0  0  0  0  0  0
   12.8580  -58.6080   38.8070 H   0  0  0  0  0  0  0  0  0  0  0  0
   16.2590  -54.6390   36.3040 H   0  0  0  0  0  0  0  0  0  0  0  0
   16.8870  -56.1430   37.0200 H   0  0  0  0  0  0  0  0  0  0  0  0
   18.4630  -54.2240   36.6060 H   0  0  0  0  0  0  0  0  0  0  0  0
   18.6320  -55.0960   38.1320 H   0  0  0  0  0  0  0  0  0  0  0  0
   17.5600  -52.3190   37.5270 H   0  0  0  0  0  0  0  0  0  0  0  0
   18.7600  -52.8280   38.7370 H   0  0  0  0  0  0  0  0  0  0  0  0
   17.0450  -53.8820   40.1220 H   0  0  0  0  0  0  0  0  0  0  0  0
   16.6990  -52.1240   39.8010 H   0  0  0  0  0  0  0  0  0  0  0  0
   14.5840  -53.3780   39.3180 H   0  0  0  0  0  0  0  0  0  0  0  0
   15.3440  -52.8670   37.7750 H   0  0  0  0  0  0  0  0  0  0  0  0
   19.7280  -57.3920   30.0780 H   0  0  0  0  0  0  0  0  0  0  0  0
   18.2690  -56.7140   29.3070 H   0  0  0  0  0  0  0  0  0  0  0  0
   18.8440  -58.4390   28.9510 H   0  0  0  0  0  0  0  0  0  0  0  0
  2 10  1  0  0  0  0
  2  1  1  0  0  0  0
  3  2  2  0  0  0  0
  4  3  1  0  0  0  0
  4  5  1  0  0  0  0
  5  6  1  0  0  0  0
  5 10  2  0  0  0  0
  6  7  2  0  0  0  0
  7 28  1  0  0  0  0
  7  8  1  0  0  0  0
  9  8  2  0  0  0  0
  9 11  1  0  0  0  0
 10  9  1  0  0  0  0
 11 12  1  0  0  0  0
 11 16  1  0  0  0  0
 12 29  1  0  0  0  0
 12 13  1  0  0  0  0
 13 32  1  0  0  0  0
 13 14  1  0  0  0  0
 14 17  1  0  0  0  0
 15 34  1  0  0  0  0
 15 14  1  0  0  0  0
 15 33  1  0  0  0  0
 16 35  1  0  0  0  0
 16 15  1  0  0  0  0
 17 18  1  0  0  0  0
 17 19  1  0  0  0  0
 17 37  1  1  0  0  0
 18 40  1  0  0  0  0
 18 39  1  0  0  0  0
 19 20  2  0  0  0  0
 21 26  1  0  0  0  0
 21 19  1  0  0  0  0
 22 23  1  0  0  0  0
 22 21  1  0  0  0  0
 23 44  1  0  0  0  0
 23 24  1  0  0  0  0
 24 46  1  0  0  0  0
 24 25  1  0  0  0  0
 25 48  1  0  0  0  0
 25 47  1  0  0  0  0
 26 49  1  0  0  0  0
 26 25  1  0  0  0  0
 27 51  1  0  0  0  0
 27  4  1  0  0  0  0
 30 12  1  0  0  0  0
 31 13  1  0  0  0  0
 36 16  1  0  0  0  0
 38 18  1  0  0  0  0
 41 22  1  0  0  0  0
 42 22  1  0  0  0  0
 43 23  1  0  0  0  0
 45 24  1  0  0  0  0
 50 26  1  0  0  0  0
 52 27  1  0  0  0  0
 53 27  1  0  0  0  0
M  END
>  <Pose>
1

>  <Score>
-5.74

$$$$
