
 OpenBabel03232204043D

 32 35  0  0  1  0  0  0  0  0999 V2000
   14.5320  -61.2960   34.1740 B   0  0  0  0  0  0  0  0  0  0  0  0
   14.6510  -59.4070   33.8720 C   0  0  0  0  0  0  0  0  0  0  0  0
   15.7280  -58.6180   33.9680 N   0  0  0  0  0  0  0  0  0  0  0  0
   15.3890  -57.3640   33.6770 C   0  0  0  0  0  0  0  0  0  0  0  0
   14.0600  -57.3660   33.3890 N   0  0  0  0  0  0  0  0  0  0  0  0
   13.5810  -58.6180   33.5020 C   0  0  0  0  0  0  0  0  0  0  0  0
   16.4070  -56.2730   33.7090 C   0  0  0  0  0  0  0  0  0  0  0  0
   17.7100  -56.7930   33.3780 N   0  0  2  0  0  0  0  0  0  0  0  0
   18.1010  -58.1710   33.5670 C   0  0  0  0  0  0  0  0  0  0  0  0
   17.0860  -58.9750   34.3260 C   0  0  0  0  0  0  0  0  0  0  0  0
   18.6590  -55.9020   32.8400 C   0  0  2  0  0  0  0  0  0  0  0  0
   19.0380  -56.0430   31.5900 C   0  0  0  0  0  0  0  0  0  0  0  0
   20.0250  -55.1420   30.9750 C   0  0  0  0  0  0  0  0  0  0  0  0
   20.4150  -55.2720   29.7190 C   0  0  0  0  0  0  0  0  0  0  0  0
   20.5300  -54.1240   31.8250 N   0  0  0  0  0  0  0  0  0  0  0  0
   20.1050  -53.9870   33.1870 C   0  0  0  0  0  0  0  0  0  0  0  0
   19.1860  -54.8740   33.6550 N   0  0  0  0  0  0  0  0  0  0  0  0
   18.9670  -54.5290   34.9280 N   0  0  0  0  0  0  0  0  0  0  0  0
   19.7080  -53.4660   35.2750 C   0  0  0  0  0  0  0  0  0  0  0  0
   20.4140  -53.1360   34.1810 N   0  0  0  0  0  0  0  0  0  0  0  0
   12.5480  -58.9500   33.3360 H   0  0  0  0  0  0  0  0  0  0  0  0
   16.0880  -55.4560   33.0320 H   0  0  0  0  0  0  0  0  0  0  0  0
   16.4770  -55.8580   34.7500 H   0  0  0  0  0  0  0  0  0  0  0  0
   19.0450  -58.1600   34.1760 H   0  0  0  0  0  0  0  0  0  0  0  0
   18.3500  -58.5980   32.5940 H   0  0  0  0  0  0  0  0  0  0  0  0
   17.2850  -60.0450   34.1080 H   0  0  0  0  0  0  0  0  0  0  0  0
   17.1780  -58.8630   35.4250 H   0  0  0  0  0  0  0  0  0  0  0  0
   18.6450  -56.8300   30.9390 H   0  0  0  0  0  0  0  0  0  0  0  0
   20.0350  -56.0470   29.0650 H   0  0  0  0  0  0  0  0  0  0  0  0
   21.1410  -54.6090   29.2690 H   0  0  0  0  0  0  0  0  0  0  0  0
   21.2340  -53.4530   31.4480 H   0  0  0  0  0  0  0  0  0  0  0  0
   19.7280  -52.9700   36.2590 H   0  0  0  0  0  0  0  0  0  0  0  0
  2  3  1  0  0  0  0
  2  1  1  0  0  0  0
  3 10  1  0  0  0  0
  4  7  1  0  0  0  0
  4  3  1  0  0  0  0
  5  6  1  0  0  0  0
  5  4  2  0  0  0  0
  6  2  2  0  0  0  0
  7 23  1  0  0  0  0
  8  9  1  1  0  0  0
  8  7  1  0  0  0  0
  9 24  1  0  0  0  0
  9 10  1  0  0  0  0
 10 27  1  0  0  0  0
 11 12  1  1  0  0  0
 11  8  1  0  0  0  0
 11 17  1  0  0  0  0
 13 12  2  0  0  0  0
 13 15  1  0  0  0  0
 14 13  1  0  0  0  0
 15 16  1  0  0  0  0
 16 17  1  0  0  0  0
 16 20  2  0  0  0  0
 17 18  1  0  0  0  0
 18 19  2  0  0  0  0
 19 32  1  0  0  0  0
 20 19  1  0  0  0  0
 21  6  1  0  0  0  0
 22  7  1  0  0  0  0
 25  9  1  0  0  0  0
 26 10  1  0  0  0  0
 28 12  1  0  0  0  0
 29 14  1  0  0  0  0
 30 14  1  0  0  0  0
 31 15  1  0  0  0  0
M  END
>  <Pose>
1

>  <Score>
-5.85

$$$$
