
 OpenBabel03232204043D

 49 52  0  0  0  0  0  0  0  0999 V2000
   13.6990  -58.4430   34.5020 B   0  0  0  0  0  0  0  0  0  0  0  0
   14.6450  -57.4900   35.8930 C   0  0  0  0  0  0  0  0  0  0  0  0
   14.1540  -56.8430   36.8870 O   0  0  0  0  0  0  0  0  0  0  0  0
   15.0780  -56.3190   37.6340 C   0  0  0  0  0  0  0  0  0  0  0  0
   16.2890  -56.6560   37.0740 C   0  0  0  0  0  0  0  0  0  0  0  0
   16.0140  -57.4050   35.9590 C   0  0  0  0  0  0  0  0  0  0  0  0
   14.9170  -55.5110   38.8560 C   0  0  0  0  0  0  0  0  0  0  0  0
   13.8080  -55.4820   39.4080 O   0  0  0  0  0  0  0  0  0  0  0  0
   15.9970  -54.7760   39.4040 N   0  0  0  0  0  0  0  0  0  0  0  0
   15.8120  -53.3860   39.7660 C   0  0  0  0  0  0  0  0  0  0  0  0
   16.7350  -52.4690   39.0000 C   0  0  0  0  0  0  0  0  0  0  0  0
   17.9430  -53.2540   38.6980 N   0  0  0  0  0  0  0  0  0  0  0  0
   18.3520  -54.1830   39.6950 C   0  0  0  0  0  0  0  0  0  0  0  0
   17.3190  -55.3240   39.6400 C   0  0  0  0  0  0  0  0  0  0  0  0
   18.5720  -53.0050   37.4540 C   0  0  0  0  0  0  0  0  0  0  0  0
   18.4360  -53.8610   36.4030 N   0  0  0  0  0  0  0  0  0  0  0  0
   19.0280  -53.6380   35.2190 C   0  0  0  0  0  0  0  0  0  0  0  0
   19.7890  -52.5370   35.0390 N   0  0  0  0  0  0  0  0  0  0  0  0
   19.9790  -51.6360   36.0180 C   0  0  0  0  0  0  0  0  0  0  0  0
   19.3460  -51.9010   37.2420 C   0  0  0  0  0  0  0  0  0  0  0  0
   20.8120  -50.4160   35.8420 C   0  0  0  0  0  0  0  0  0  0  0  0
   18.8540  -54.5600   34.1560 N   0  0  0  0  0  0  0  0  0  0  0  0
   18.0460  -55.7500   34.2640 C   0  0  0  0  0  0  0  0  0  0  0  0
   17.0550  -55.8020   33.1400 C   0  0  0  0  0  0  0  0  0  0  0  0
   17.2960  -54.8470   32.1550 O   0  0  0  0  0  0  0  0  0  0  0  0
   18.6380  -54.8490   31.7850 C   0  0  0  0  0  0  0  0  0  0  0  0
   19.5130  -54.3110   32.8920 C   0  0  0  0  0  0  0  0  0  0  0  0
   17.2900  -56.3790   37.4470 H   0  0  0  0  0  0  0  0  0  0  0  0
   16.7510  -57.8380   35.2770 H   0  0  0  0  0  0  0  0  0  0  0  0
   15.9290  -53.2170   40.8550 H   0  0  0  0  0  0  0  0  0  0  0  0
   14.7650  -53.0530   39.5060 H   0  0  0  0  0  0  0  0  0  0  0  0
   16.2960  -52.1000   38.0740 H   0  0  0  0  0  0  0  0  0  0  0  0
   17.1080  -51.6300   39.6570 H   0  0  0  0  0  0  0  0  0  0  0  0
   19.3470  -54.5790   39.4850 H   0  0  0  0  0  0  0  0  0  0  0  0
   18.2910  -53.7170   40.7110 H   0  0  0  0  0  0  0  0  0  0  0  0
   17.6810  -55.9930   38.8650 H   0  0  0  0  0  0  0  0  0  0  0  0
   17.2830  -55.8810   40.5960 H   0  0  0  0  0  0  0  0  0  0  0  0
   19.5150  -51.1670   38.0090 H   0  0  0  0  0  0  0  0  0  0  0  0
   21.6650  -50.4270   36.5490 H   0  0  0  0  0  0  0  0  0  0  0  0
   21.0940  -50.3390   34.7930 H   0  0  0  0  0  0  0  0  0  0  0  0
   20.1620  -49.5480   36.0990 H   0  0  0  0  0  0  0  0  0  0  0  0
   17.4730  -55.7550   35.2310 H   0  0  0  0  0  0  0  0  0  0  0  0
   18.6950  -56.6630   34.2400 H   0  0  0  0  0  0  0  0  0  0  0  0
   17.1030  -56.8050   32.6340 H   0  0  0  0  0  0  0  0  0  0  0  0
   16.0180  -55.6740   33.5110 H   0  0  0  0  0  0  0  0  0  0  0  0
   18.7660  -54.2220   30.8870 H   0  0  0  0  0  0  0  0  0  0  0  0
   18.9480  -55.8900   31.4980 H   0  0  0  0  0  0  0  0  0  0  0  0
   19.7000  -53.2250   32.7250 H   0  0  0  0  0  0  0  0  0  0  0  0
   20.4820  -54.8690   32.8660 H   0  0  0  0  0  0  0  0  0  0  0  0
  1  2  1  0  0  0  0
  2  6  2  0  0  0  0
  2  3  1  0  0  0  0
  3  4  1  0  0  0  0
  4  7  1  0  0  0  0
  5 28  1  0  0  0  0
  5  4  2  0  0  0  0
  6  5  1  0  0  0  0
  7  9  1  0  0  0  0
  7  8  2  0  0  0  0
  9 14  1  0  0  0  0
  9 10  1  0  0  0  0
 10 30  1  0  0  0  0
 11 33  1  0  0  0  0
 11 10  1  0  0  0  0
 12 11  1  0  0  0  0
 12 13  1  0  0  0  0
 13 35  1  0  0  0  0
 14 13  1  0  0  0  0
 14 37  1  0  0  0  0
 15 12  1  0  0  0  0
 16 15  1  0  0  0  0
 17 16  2  0  0  0  0
 18 17  1  0  0  0  0
 18 19  2  0  0  0  0
 19 20  1  0  0  0  0
 20 15  2  0  0  0  0
 20 38  1  0  0  0  0
 21 19  1  0  0  0  0
 21 41  1  0  0  0  0
 21 39  1  0  0  0  0
 22 23  1  0  0  0  0
 22 17  1  0  0  0  0
 23 42  1  0  0  0  0
 24 45  1  0  0  0  0
 24 23  1  0  0  0  0
 25 24  1  0  0  0  0
 26 25  1  0  0  0  0
 26 27  1  0  0  0  0
 27 22  1  0  0  0  0
 29  6  1  0  0  0  0
 31 10  1  0  0  0  0
 32 11  1  0  0  0  0
 34 13  1  0  0  0  0
 36 14  1  0  0  0  0
 40 21  1  0  0  0  0
 43 23  1  0  0  0  0
 44 24  1  0  0  0  0
 46 26  1  0  0  0  0
 47 26  1  0  0  0  0
 48 27  1  0  0  0  0
 49 27  1  0  0  0  0
M  END
>  <Pose>
1

>  <Score>
-6.36

$$$$
