
 OpenBabel03232204043D

 43 46  0  0  0  0  0  0  0  0999 V2000
   21.0170  -55.5260   29.1430 B   0  0  0  0  0  0  0  0  0  0  0  0
   20.0860  -55.0890   30.7370 C   0  0  0  0  0  0  0  0  0  0  0  0
   20.5120  -54.4460   31.7810 O   0  0  0  0  0  0  0  0  0  0  0  0
   19.5900  -54.3250   32.7030 C   0  0  0  0  0  0  0  0  0  0  0  0
   18.4590  -54.9490   32.2110 C   0  0  0  0  0  0  0  0  0  0  0  0
   18.7530  -55.4470   30.9510 C   0  0  0  0  0  0  0  0  0  0  0  0
   19.7040  -53.6680   33.9990 C   0  0  0  0  0  0  0  0  0  0  0  0
   20.3790  -52.5350   34.2970 N   0  0  0  0  0  0  0  0  0  0  0  0
   20.2440  -52.2670   35.5640 O   0  0  0  0  0  0  0  0  0  0  0  0
   19.5000  -53.1750   36.1430 C   0  0  0  0  0  0  0  0  0  0  0  0
   19.1690  -54.0390   35.1760 N   0  0  0  0  0  0  0  0  0  0  0  0
   19.1600  -53.1590   37.5600 C   0  0  0  0  0  0  0  0  0  0  0  0
   19.5530  -54.1080   38.3200 O   0  0  0  0  0  0  0  0  0  0  0  0
   18.3960  -52.1090   38.1410 N   0  0  0  0  0  0  0  0  0  0  0  0
   17.1080  -52.3380   38.7030 C   0  0  0  0  0  0  0  0  0  0  0  0
   16.7780  -53.8090   38.8400 C   0  0  0  0  0  0  0  0  0  0  0  0
   15.4020  -54.0820   38.4480 N   0  0  0  0  0  0  0  0  0  0  0  0
   14.7990  -55.2810   38.8640 C   0  0  0  0  0  0  0  0  0  0  0  0
   14.4180  -55.3070   40.0880 O   0  0  0  0  0  0  0  0  0  0  0  0
   14.5610  -56.4700   38.0860 C   0  0  0  0  0  0  0  0  0  0  0  0
   13.4060  -57.2100   38.3360 C   0  0  0  0  0  0  0  0  0  0  0  0
   13.1500  -58.3410   37.6030 C   0  0  0  0  0  0  0  0  0  0  0  0
   14.0180  -58.7440   36.6360 C   0  0  0  0  0  0  0  0  0  0  0  0
   13.7520  -59.8960   35.8920 C   0  0  0  0  0  0  0  0  0  0  0  0
   12.6250  -60.6510   36.1080 C   0  0  0  0  0  0  0  0  0  0  0  0
   11.7550  -60.2410   37.0850 C   0  0  0  0  0  0  0  0  0  0  0  0
   12.0020  -59.1070   37.8270 C   0  0  0  0  0  0  0  0  0  0  0  0
   15.0870  -58.0310   36.4250 O   0  0  0  0  0  0  0  0  0  0  0  0
   15.3950  -56.9280   37.0970 C   0  0  0  0  0  0  0  0  0  0  0  0
   16.4580  -56.3350   36.7960 O   0  0  0  0  0  0  0  0  0  0  0  0
   17.5430  -55.0100   32.7450 H   0  0  0  0  0  0  0  0  0  0  0  0
   18.0860  -55.9920   30.2880 H   0  0  0  0  0  0  0  0  0  0  0  0
   18.7950  -51.1510   38.1500 H   0  0  0  0  0  0  0  0  0  0  0  0
   16.3500  -51.9130   37.9890 H   0  0  0  0  0  0  0  0  0  0  0  0
   16.9630  -51.7930   39.6550 H   0  0  0  0  0  0  0  0  0  0  0  0
   17.4230  -54.3550   38.1200 H   0  0  0  0  0  0  0  0  0  0  0  0
   17.0110  -54.1840   39.8530 H   0  0  0  0  0  0  0  0  0  0  0  0
   14.8570  -53.4120   37.8750 H   0  0  0  0  0  0  0  0  0  0  0  0
   12.6980  -56.9030   39.1100 H   0  0  0  0  0  0  0  0  0  0  0  0
   14.4590  -60.1860   35.1330 H   0  0  0  0  0  0  0  0  0  0  0  0
   12.4580  -61.5330   35.5120 H   0  0  0  0  0  0  0  0  0  0  0  0
   10.8680  -60.8260   37.2630 H   0  0  0  0  0  0  0  0  0  0  0  0
   11.3240  -58.7770   38.5970 H   0  0  0  0  0  0  0  0  0  0  0  0
  1  2  1  0  0  0  0
  2  6  2  0  0  0  0
  2  3  1  0  0  0  0
  3  4  1  0  0  0  0
  4  7  1  0  0  0  0
  5  4  2  0  0  0  0
  5 31  1  0  0  0  0
  6  5  1  0  0  0  0
  7  8  2  0  0  0  0
  7 11  1  0  0  0  0
  8  9  1  0  0  0  0
  9 10  1  0  0  0  0
 10 12  1  0  0  0  0
 11 10  2  0  0  0  0
 12 14  1  0  0  0  0
 12 13  2  0  0  0  0
 14 33  1  0  0  0  0
 14 15  1  0  0  0  0
 15 16  1  0  0  0  0
 15 35  1  0  0  0  0
 16 37  1  0  0  0  0
 17 16  1  0  0  0  0
 17 18  1  0  0  0  0
 18 19  2  0  0  0  0
 20 21  2  0  0  0  0
 20 18  1  0  0  0  0
 21 39  1  0  0  0  0
 22 27  1  0  0  0  0
 22 21  1  0  0  0  0
 23 22  2  0  0  0  0
 24 25  2  0  0  0  0
 24 23  1  0  0  0  0
 25 26  1  0  0  0  0
 26 42  1  0  0  0  0
 26 27  2  0  0  0  0
 27 43  1  0  0  0  0
 28 23  1  0  0  0  0
 28 29  1  0  0  0  0
 29 20  1  0  0  0  0
 30 29  2  0  0  0  0
 32  6  1  0  0  0  0
 34 15  1  0  0  0  0
 36 16  1  0  0  0  0
 38 17  1  0  0  0  0
 40 24  1  0  0  0  0
 41 25  1  0  0  0  0
M  END
>  <Pose>
1

>  <Score>
-8.22

$$$$
