
 OpenBabel03232204043D

 43 46  0  0  0  0  0  0  0  0999 V2000
   19.4060  -53.4650   35.7310 B   0  0  0  0  0  0  0  0  0  0  0  0
   18.1440  -53.1390   37.0910 C   0  0  0  0  0  0  0  0  0  0  0  0
   17.2360  -54.1200   37.4990 C   0  0  0  0  0  0  0  0  0  0  0  0
   16.3380  -53.8340   38.4920 C   0  0  0  0  0  0  0  0  0  0  0  0
   16.3920  -52.5510   39.0440 C   0  0  0  0  0  0  0  0  0  0  0  0
   17.2520  -51.6760   38.6330 O   0  0  0  0  0  0  0  0  0  0  0  0
   18.1100  -51.9100   37.7030 C   0  0  0  0  0  0  0  0  0  0  0  0
   18.9050  -50.9930   37.3720 O   0  0  0  0  0  0  0  0  0  0  0  0
   15.3560  -54.7820   38.9840 C   0  0  0  0  0  0  0  0  0  0  0  0
   14.6120  -54.2710   39.9470 O   0  0  0  0  0  0  0  0  0  0  0  0
   15.0640  -56.0920   38.6340 N   0  0  0  0  0  0  0  0  0  0  0  0
   13.9890  -56.8070   39.3690 C   0  0  0  0  0  0  0  0  0  0  0  0
   12.9700  -57.3040   38.3710 C   0  0  0  0  0  0  0  0  0  0  0  0
   13.5990  -58.1370   37.4250 N   0  0  0  0  0  0  0  0  0  0  0  0
   14.9990  -58.2540   37.6530 C   0  0  0  0  0  0  0  0  0  0  0  0
   15.6810  -56.8650   37.6260 C   0  0  0  0  0  0  0  0  0  0  0  0
   12.9780  -59.4000   37.1810 C   0  0  0  0  0  0  0  0  0  0  0  0
   13.1930  -59.9680   35.8380 C   0  0  0  0  0  0  0  0  0  0  0  0
   14.3590  -59.9040   35.1480 C   0  0  0  0  0  0  0  0  0  0  0  0
   14.4630  -60.4620   33.8980 C   0  0  0  0  0  0  0  0  0  0  0  0
   13.3790  -61.0870   33.3440 C   0  0  0  0  0  0  0  0  0  0  0  0
   12.1850  -61.1650   34.0260 C   0  0  0  0  0  0  0  0  0  0  0  0
   12.1110  -60.6050   35.2600 C   0  0  0  0  0  0  0  0  0  0  0  0
   13.7130  -61.5680   32.0900 O   0  0  0  0  0  0  0  0  0  0  0  0
   14.9150  -60.9080   31.7200 C   0  0  0  0  0  0  0  0  0  0  0  0
   15.5020  -60.5570   32.9590 O   0  0  0  0  0  0  0  0  0  0  0  0
   17.3010  -55.0560   36.9960 H   0  0  0  0  0  0  0  0  0  0  0  0
   15.6910  -52.2530   39.8560 H   0  0  0  0  0  0  0  0  0  0  0  0
   13.5200  -56.0750   40.0680 H   0  0  0  0  0  0  0  0  0  0  0  0
   14.4130  -57.6390   39.9270 H   0  0  0  0  0  0  0  0  0  0  0  0
   12.1700  -57.8670   38.9460 H   0  0  0  0  0  0  0  0  0  0  0  0
   12.3920  -56.4500   37.9300 H   0  0  0  0  0  0  0  0  0  0  0  0
   15.3250  -58.7420   38.5650 H   0  0  0  0  0  0  0  0  0  0  0  0
   15.4120  -58.8320   36.7800 H   0  0  0  0  0  0  0  0  0  0  0  0
   15.6040  -56.4980   36.5930 H   0  0  0  0  0  0  0  0  0  0  0  0
   16.7740  -57.0250   37.8460 H   0  0  0  0  0  0  0  0  0  0  0  0
   13.4410  -60.1330   37.9070 H   0  0  0  0  0  0  0  0  0  0  0  0
   11.8990  -59.4210   37.4120 H   0  0  0  0  0  0  0  0  0  0  0  0
   15.2240  -59.4210   35.5640 H   0  0  0  0  0  0  0  0  0  0  0  0
   11.3380  -61.6590   33.5810 H   0  0  0  0  0  0  0  0  0  0  0  0
   11.1630  -60.6760   35.7860 H   0  0  0  0  0  0  0  0  0  0  0  0
   14.7530  -60.0570   31.0620 H   0  0  0  0  0  0  0  0  0  0  0  0
   15.6240  -61.6060   31.2240 H   0  0  0  0  0  0  0  0  0  0  0  0
  1  2  1  0  0  0  0
  2  3  2  0  0  0  0
  2  7  1  0  0  0  0
  3  4  1  0  0  0  0
  4  9  1  0  0  0  0
  4  5  2  0  0  0  0
  5 28  1  0  0  0  0
  6  5  1  0  0  0  0
  7  6  1  0  0  0  0
  8  7  2  0  0  0  0
  9 10  2  0  0  0  0
 11  9  1  0  0  0  0
 11 12  1  0  0  0  0
 12 30  1  0  0  0  0
 12 29  1  0  0  0  0
 13 31  1  0  0  0  0
 13 12  1  0  0  0  0
 14 15  1  0  0  0  0
 14 13  1  0  0  0  0
 15 33  1  0  0  0  0
 16 15  1  0  0  0  0
 16 36  1  0  0  0  0
 16 11  1  0  0  0  0
 17 38  1  0  0  0  0
 17 14  1  0  0  0  0
 17 37  1  0  0  0  0
 18 17  1  0  0  0  0
 19 39  1  0  0  0  0
 19 18  2  0  0  0  0
 20 19  1  0  0  0  0
 21 20  2  0  0  0  0
 21 22  1  0  0  0  0
 22 23  2  0  0  0  0
 23 41  1  0  0  0  0
 23 18  1  0  0  0  0
 24 21  1  0  0  0  0
 25 24  1  0  0  0  0
 25 26  1  0  0  0  0
 26 20  1  0  0  0  0
 27  3  1  0  0  0  0
 32 13  1  0  0  0  0
 34 15  1  0  0  0  0
 35 16  1  0  0  0  0
 40 22  1  0  0  0  0
 42 25  1  0  0  0  0
 43 25  1  0  0  0  0
M  END
>  <Pose>
1

>  <Score>
-6.50

$$$$
