
 OpenBabel03232204043D

 63 66  0  0  1  0  0  0  0  0999 V2000
   16.9030  -53.1070   37.4290 B   0  0  0  0  0  0  0  0  0  0  0  0
   17.3960  -54.6160   36.3780 C   0  0  0  0  0  0  0  0  0  0  0  0
   16.7390  -55.8010   36.5920 C   0  0  0  0  0  0  0  0  0  0  0  0
   17.0130  -56.9230   35.9020 N   0  0  0  0  0  0  0  0  0  0  0  0
   18.0010  -56.7970   34.9650 C   0  0  0  0  0  0  0  0  0  0  0  0
   18.3170  -57.8090   34.2740 O   0  0  0  0  0  0  0  0  0  0  0  0
   18.6540  -55.6690   34.7350 N   0  0  0  0  0  0  0  0  0  0  0  0
   18.3800  -54.5480   35.4230 C   0  0  0  0  0  0  0  0  0  0  0  0
   18.9750  -53.4580   35.2340 O   0  0  0  0  0  0  0  0  0  0  0  0
   16.3490  -58.1720   36.0990 C   0  0  2  0  0  0  0  0  0  0  0  0
   15.0860  -58.3070   35.2390 C   0  0  2  0  0  0  0  0  0  0  0  0
   13.9390  -57.6780   35.9530 C   0  0  0  0  0  0  0  0  0  0  0  0
   13.6970  -58.4340   37.2390 C   0  0  0  0  0  0  0  0  0  0  0  0
   14.7920  -59.1800   37.6330 O   0  0  0  0  0  0  0  0  0  0  0  0
   15.9990  -58.5050   37.5110 C   0  0  0  0  0  0  0  0  0  0  0  0
   13.2310  -57.4580   38.2570 C   0  0  0  0  0  0  0  0  0  0  0  0
   12.9440  -58.2190   39.5610 C   0  0  0  0  0  0  0  0  0  0  0  0
   11.8220  -59.0670   39.3290 N   0  0  0  0  0  0  0  0  0  0  0  0
   11.3920  -59.1530   37.8930 C   0  0  0  0  0  0  0  0  0  0  0  0
   12.5570  -59.3990   36.9930 C   0  0  0  0  0  0  0  0  0  0  0  0
   11.1290  -59.7910   40.2800 C   0  0  0  0  0  0  0  0  0  0  0  0
   11.4980  -61.0480   40.4090 O   0  0  0  0  0  0  0  0  0  0  0  0
   10.0760  -59.4110   41.1540 C   0  0  0  0  0  0  0  0  0  0  0  0
    9.2760  -58.2940   40.8540 C   0  0  0  0  0  0  0  0  0  0  0  0
    8.2330  -57.8430   41.5980 C   0  0  0  0  0  0  0  0  0  0  0  0
    7.9370  -58.5690   42.7700 C   0  0  0  0  0  0  0  0  0  0  0  0
    8.6920  -59.6470   43.0810 C   0  0  0  0  0  0  0  0  0  0  0  0
    9.7670  -60.0880   42.2890 C   0  0  0  0  0  0  0  0  0  0  0  0
    7.4830  -56.7510   41.2750 O   0  0  0  0  0  0  0  0  0  0  0  0
    7.1760  -55.6160   41.9640 C   0  0  0  0  0  0  0  0  0  0  0  0
    8.3350  -55.0580   42.7170 C   0  0  0  0  0  0  0  0  0  0  0  0
    8.6760  -53.7390   42.1830 N   0  0  0  0  0  0  0  0  0  0  0  0
   14.8270  -59.6760   35.1380 O   0  0  0  0  0  0  0  0  0  0  0  0
   15.3110  -57.7810   33.8590 C   0  0  0  0  0  0  0  0  0  0  0  0
   15.9810  -55.8460   37.3300 H   0  0  0  0  0  0  0  0  0  0  0  0
   19.4020  -55.6020   34.0130 H   0  0  0  0  0  0  0  0  0  0  0  0
   17.0330  -58.9730   35.6880 H   0  0  0  0  0  0  0  0  0  0  0  0
   14.0430  -56.5890   36.1170 H   0  0  0  0  0  0  0  0  0  0  0  0
   13.0430  -57.7750   35.2700 H   0  0  0  0  0  0  0  0  0  0  0  0
   15.9870  -57.6720   38.2120 H   0  0  0  0  0  0  0  0  0  0  0  0
   16.7770  -59.2220   37.9100 H   0  0  0  0  0  0  0  0  0  0  0  0
   12.2890  -56.9990   37.9350 H   0  0  0  0  0  0  0  0  0  0  0  0
   13.9430  -56.6310   38.4520 H   0  0  0  0  0  0  0  0  0  0  0  0
   12.7110  -57.3970   40.3030 H   0  0  0  0  0  0  0  0  0  0  0  0
   13.8870  -58.7220   39.8200 H   0  0  0  0  0  0  0  0  0  0  0  0
   10.8060  -58.2790   37.6110 H   0  0  0  0  0  0  0  0  0  0  0  0
   10.6900  -60.0180   37.8530 H   0  0  0  0  0  0  0  0  0  0  0  0
   12.8770  -60.4660   37.1790 H   0  0  0  0  0  0  0  0  0  0  0  0
   12.2060  -59.3520   35.9360 H   0  0  0  0  0  0  0  0  0  0  0  0
    9.5090  -57.7780   39.9470 H   0  0  0  0  0  0  0  0  0  0  0  0
    7.1070  -58.1990   43.3500 H   0  0  0  0  0  0  0  0  0  0  0  0
    8.4490  -60.1980   43.9930 H   0  0  0  0  0  0  0  0  0  0  0  0
   10.2540  -60.9550   42.6600 H   0  0  0  0  0  0  0  0  0  0  0  0
    6.3830  -55.8570   42.7450 H   0  0  0  0  0  0  0  0  0  0  0  0
    6.7470  -54.8250   41.2770 H   0  0  0  0  0  0  0  0  0  0  0  0
    8.2390  -54.9430   43.7860 H   0  0  0  0  0  0  0  0  0  0  0  0
    9.2460  -55.6820   42.4750 H   0  0  0  0  0  0  0  0  0  0  0  0
    8.0100  -53.4270   41.4620 H   0  0  0  0  0  0  0  0  0  0  0  0
    9.6660  -53.6540   41.9310 H   0  0  0  0  0  0  0  0  0  0  0  0
   15.0070  -60.1660   35.9790 H   0  0  0  0  0  0  0  0  0  0  0  0
   15.8090  -56.8030   33.8190 H   0  0  0  0  0  0  0  0  0  0  0  0
   15.8700  -58.5570   33.2880 H   0  0  0  0  0  0  0  0  0  0  0  0
   14.3170  -57.7010   33.3650 H   0  0  0  0  0  0  0  0  0  0  0  0
  2  3  2  0  0  0  0
  2  1  1  0  0  0  0
  3 35  1  0  0  0  0
  4 10  1  0  0  0  0
  4  3  1  0  0  0  0
  5  4  1  0  0  0  0
  6  5  2  0  0  0  0
  7  5  1  0  0  0  0
  7  8  1  0  0  0  0
  8  2  1  0  0  0  0
  9  8  2  0  0  0  0
 10 37  1  6  0  0  0
 10 15  1  0  0  0  0
 11 33  1  6  0  0  0
 11 12  1  0  0  0  0
 11 10  1  0  0  0  0
 12 38  1  0  0  0  0
 12 13  1  0  0  0  0
 13 14  1  0  0  0  0
 13 16  1  0  0  0  0
 15 14  1  0  0  0  0
 15 41  1  0  0  0  0
 15 40  1  0  0  0  0
 16 43  1  0  0  0  0
 16 17  1  0  0  0  0
 17 45  1  0  0  0  0
 17 44  1  0  0  0  0
 18 17  1  0  0  0  0
 18 21  1  0  0  0  0
 19 18  1  0  0  0  0
 20 48  1  0  0  0  0
 20 13  1  0  0  0  0
 20 19  1  0  0  0  0
 21 22  2  0  0  0  0
 21 23  1  0  0  0  0
 23 28  1  0  0  0  0
 24 23  2  0  0  0  0
 24 25  1  0  0  0  0
 25 26  2  0  0  0  0
 26 27  1  0  0  0  0
 26 51  1  0  0  0  0
 27 52  1  0  0  0  0
 28 53  1  0  0  0  0
 28 27  2  0  0  0  0
 29 25  1  0  0  0  0
 29 30  1  0  0  0  0
 30 31  1  0  0  0  0
 30 54  1  0  0  0  0
 31 56  1  0  0  0  0
 32 31  1  0  0  0  0
 33 60  1  0  0  0  0
 34 11  1  0  0  0  0
 36  7  1  0  0  0  0
 39 12  1  0  0  0  0
 42 16  1  0  0  0  0
 46 19  1  0  0  0  0
 47 19  1  0  0  0  0
 49 20  1  0  0  0  0
 50 24  1  0  0  0  0
 55 30  1  0  0  0  0
 57 31  1  0  0  0  0
 58 32  1  0  0  0  0
 59 32  1  0  0  0  0
 61 34  1  0  0  0  0
 62 34  1  0  0  0  0
 63 34  1  0  0  0  0
M  END
>  <Pose>
1

>  <Score>
-7.08

$$$$
