
 OpenBabel03232204043D

 63 66  0  0  1  0  0  0  0  0999 V2000
   17.2260  -61.4870   31.7810 B   0  0  0  0  0  0  0  0  0  0  0  0
   15.7320  -60.8100   32.7820 C   0  0  0  0  0  0  0  0  0  0  0  0
   15.9270  -60.2370   34.0170 C   0  0  0  0  0  0  0  0  0  0  0  0
   14.9040  -59.7640   34.7210 N   0  0  0  0  0  0  0  0  0  0  0  0
   13.6640  -59.8350   34.2450 C   0  0  0  0  0  0  0  0  0  0  0  0
   12.6570  -59.3930   34.8900 O   0  0  0  0  0  0  0  0  0  0  0  0
   13.4540  -60.3910   33.0420 N   0  0  0  0  0  0  0  0  0  0  0  0
   14.4490  -60.8870   32.2830 C   0  0  0  0  0  0  0  0  0  0  0  0
   14.2170  -61.4050   31.1510 O   0  0  0  0  0  0  0  0  0  0  0  0
   15.1440  -59.1590   36.0160 C   0  0  1  0  0  0  0  0  0  0  0  0
   15.9110  -57.8980   35.9740 C   0  0  1  0  0  0  0  0  0  0  0  0
   15.6010  -56.9400   37.1310 C   0  0  0  0  0  0  0  0  0  0  0  0
   14.1200  -56.6690   37.2130 C   0  0  2  0  0  0  0  0  0  0  0  0
   13.3810  -57.6650   36.6030 O   0  0  0  0  0  0  0  0  0  0  0  0
   13.8570  -58.9300   36.7590 C   0  0  0  0  0  0  0  0  0  0  0  0
   13.8690  -55.3140   36.5740 C   0  0  0  0  0  0  0  0  0  0  0  0
   13.8250  -54.2370   37.6240 C   0  0  0  0  0  0  0  0  0  0  0  0
   14.8450  -54.5050   38.6050 N   0  0  0  0  0  0  0  0  0  0  0  0
   14.6270  -55.6760   39.4420 C   0  0  0  0  0  0  0  0  0  0  0  0
   13.7340  -56.6220   38.6720 C   0  0  0  0  0  0  0  0  0  0  0  0
   15.9560  -53.6690   38.7400 C   0  0  0  0  0  0  0  0  0  0  0  0
   16.1260  -53.1650   39.9100 O   0  0  0  0  0  0  0  0  0  0  0  0
   16.9500  -53.2800   37.7450 C   0  0  1  0  0  0  0  0  0  0  0  0
   17.3230  -51.8700   37.8660 N   0  0  0  0  0  0  0  0  0  0  0  0
   18.2470  -54.0560   37.7910 C   0  0  0  0  0  0  0  0  0  0  0  0
   18.8270  -53.9740   36.3990 C   0  0  0  0  0  0  0  0  0  0  0  0
   18.6670  -55.0150   35.5220 C   0  0  0  0  0  0  0  0  0  0  0  0
   19.2180  -54.8980   34.2490 C   0  0  0  0  0  0  0  0  0  0  0  0
   19.9100  -53.7740   33.8590 C   0  0  0  0  0  0  0  0  0  0  0  0
   20.0500  -52.7470   34.7710 C   0  0  0  0  0  0  0  0  0  0  0  0
   19.5160  -52.8340   36.0410 C   0  0  0  0  0  0  0  0  0  0  0  0
   20.4350  -53.7130   32.5820 O   0  0  0  0  0  0  0  0  0  0  0  0
   17.2740  -58.2350   36.1770 O   0  0  0  0  0  0  0  0  0  0  0  0
   15.8660  -57.1560   34.6780 C   0  0  0  0  0  0  0  0  0  0  0  0
   16.9620  -60.2010   34.3670 H   0  0  0  0  0  0  0  0  0  0  0  0
   12.4610  -60.4480   32.6610 H   0  0  0  0  0  0  0  0  0  0  0  0
   15.7120  -59.9520   36.6000 H   0  0  0  0  0  0  0  0  0  0  0  0
   15.9420  -57.3540   38.0870 H   0  0  0  0  0  0  0  0  0  0  0  0
   16.1280  -55.9980   36.9490 H   0  0  0  0  0  0  0  0  0  0  0  0
   13.0710  -59.6650   36.4640 H   0  0  0  0  0  0  0  0  0  0  0  0
   14.0680  -59.0920   37.8580 H   0  0  0  0  0  0  0  0  0  0  0  0
   14.6410  -55.0590   35.8340 H   0  0  0  0  0  0  0  0  0  0  0  0
   12.8800  -55.2840   36.0650 H   0  0  0  0  0  0  0  0  0  0  0  0
   13.8850  -53.2280   37.1650 H   0  0  0  0  0  0  0  0  0  0  0  0
   12.8020  -54.2660   38.0800 H   0  0  0  0  0  0  0  0  0  0  0  0
   15.5350  -56.2040   39.7190 H   0  0  0  0  0  0  0  0  0  0  0  0
   14.0950  -55.3830   40.3640 H   0  0  0  0  0  0  0  0  0  0  0  0
   12.6590  -56.3680   38.7900 H   0  0  0  0  0  0  0  0  0  0  0  0
   13.8590  -57.6100   39.1500 H   0  0  0  0  0  0  0  0  0  0  0  0
   16.5180  -53.4160   36.7330 H   0  0  0  0  0  0  0  0  0  0  0  0
   17.4050  -51.5880   38.8670 H   0  0  0  0  0  0  0  0  0  0  0  0
   16.5500  -51.2870   37.4590 H   0  0  0  0  0  0  0  0  0  0  0  0
   18.9880  -53.6350   38.4670 H   0  0  0  0  0  0  0  0  0  0  0  0
   18.1120  -55.1090   38.0320 H   0  0  0  0  0  0  0  0  0  0  0  0
   18.1240  -55.8840   35.8410 H   0  0  0  0  0  0  0  0  0  0  0  0
   19.0940  -55.7150   33.5570 H   0  0  0  0  0  0  0  0  0  0  0  0
   20.5870  -51.8690   34.4810 H   0  0  0  0  0  0  0  0  0  0  0  0
   19.6200  -52.0340   36.7620 H   0  0  0  0  0  0  0  0  0  0  0  0
   21.2870  -53.2060   32.3390 H   0  0  0  0  0  0  0  0  0  0  0  0
   17.4150  -58.6730   37.0480 H   0  0  0  0  0  0  0  0  0  0  0  0
   14.8710  -56.8800   34.3230 H   0  0  0  0  0  0  0  0  0  0  0  0
   16.4570  -56.2250   34.7900 H   0  0  0  0  0  0  0  0  0  0  0  0
   16.4370  -57.7550   33.9070 H   0  0  0  0  0  0  0  0  0  0  0  0
  1  2  1  0  0  0  0
  2  3  2  0  0  0  0
  3 35  1  0  0  0  0
  3  4  1  0  0  0  0
  4 10  1  0  0  0  0
  5  4  1  0  0  0  0
  5  6  2  0  0  0  0
  7  5  1  0  0  0  0
  8  2  1  0  0  0  0
  8  7  1  0  0  0  0
  9  8  2  0  0  0  0
 10 37  1  1  0  0  0
 10 15  1  0  0  0  0
 11 10  1  0  0  0  0
 11 33  1  1  0  0  0
 11 12  1  0  0  0  0
 12 13  1  0  0  0  0
 12 38  1  0  0  0  0
 13 14  1  6  0  0  0
 13 20  1  0  0  0  0
 14 15  1  0  0  0  0
 15 41  1  0  0  0  0
 16 13  1  0  0  0  0
 16 17  1  0  0  0  0
 17 45  1  0  0  0  0
 17 18  1  0  0  0  0
 18 21  1  0  0  0  0
 18 19  1  0  0  0  0
 19 46  1  0  0  0  0
 19 47  1  0  0  0  0
 20 48  1  0  0  0  0
 20 49  1  0  0  0  0
 20 19  1  0  0  0  0
 21 22  2  0  0  0  0
 23 50  1  6  0  0  0
 23 25  1  0  0  0  0
 23 24  1  0  0  0  0
 23 21  1  0  0  0  0
 24 51  1  0  0  0  0
 25 54  1  0  0  0  0
 25 53  1  0  0  0  0
 26 25  1  0  0  0  0
 27 55  1  0  0  0  0
 27 26  2  0  0  0  0
 28 27  1  0  0  0  0
 29 28  2  0  0  0  0
 29 30  1  0  0  0  0
 30 31  2  0  0  0  0
 31 26  1  0  0  0  0
 31 58  1  0  0  0  0
 32 29  1  0  0  0  0
 33 60  1  0  0  0  0
 34 62  1  0  0  0  0
 34 11  1  0  0  0  0
 36  7  1  0  0  0  0
 39 12  1  0  0  0  0
 40 15  1  0  0  0  0
 42 16  1  0  0  0  0
 43 16  1  0  0  0  0
 44 17  1  0  0  0  0
 52 24  1  0  0  0  0
 56 28  1  0  0  0  0
 57 30  1  0  0  0  0
 59 32  1  0  0  0  0
 61 34  1  0  0  0  0
 63 34  1  0  0  0  0
M  END
>  <Pose>
1

>  <Score>
-6.76

$$$$
