
 OpenBabel03232204043D

 64 67  0  0  1  0  0  0  0  0999 V2000
   11.2630  -61.6020   36.8260 B   0  0  0  0  0  0  0  0  0  0  0  0
   12.0440  -59.9070   37.1470 C   0  0  0  0  0  0  0  0  0  0  0  0
   13.1120  -59.5010   36.3480 C   0  0  0  0  0  0  0  0  0  0  0  0
   13.7140  -58.3200   36.5130 N   0  0  0  0  0  0  0  0  0  0  0  0
   13.2240  -57.5260   37.5120 C   0  0  0  0  0  0  0  0  0  0  0  0
   13.7580  -56.4000   37.7080 O   0  0  0  0  0  0  0  0  0  0  0  0
   12.1960  -57.8900   38.2970 N   0  0  0  0  0  0  0  0  0  0  0  0
   11.5810  -59.0760   38.1430 C   0  0  0  0  0  0  0  0  0  0  0  0
   10.6060  -59.4220   38.8860 O   0  0  0  0  0  0  0  0  0  0  0  0
   14.7940  -57.8370   35.7530 C   0  0  1  0  0  0  0  0  0  0  0  0
   16.1510  -58.0400   36.4460 C   0  0  1  0  0  0  0  0  0  0  0  0
   17.0700  -57.0160   35.7660 C   0  0  0  0  0  0  0  0  0  0  0  0
   17.0100  -57.1600   34.2710 C   0  0  2  0  0  0  0  0  0  0  0  0
   16.2930  -58.2890   33.9540 O   0  0  0  0  0  0  0  0  0  0  0  0
   14.9600  -58.2680   34.3540 C   0  0  0  0  0  0  0  0  0  0  0  0
   18.4410  -57.4050   33.8110 C   0  0  0  0  0  0  0  0  0  0  0  0
   19.1520  -56.0870   33.6380 C   0  0  0  0  0  0  0  0  0  0  0  0
   18.4890  -55.0390   34.4320 N   0  0  0  0  0  0  0  0  0  0  0  0
   17.1780  -54.6700   33.9860 C   0  0  0  0  0  0  0  0  0  0  0  0
   16.5000  -55.9650   33.5470 C   0  0  0  0  0  0  0  0  0  0  0  0
   19.0770  -54.4720   35.5620 C   0  0  0  0  0  0  0  0  0  0  0  0
   20.1650  -54.9600   36.0590 O   0  0  0  0  0  0  0  0  0  0  0  0
   18.5270  -53.3160   36.2540 C   0  0  1  0  0  0  0  0  0  0  0  0
   17.5980  -53.7210   37.2800 N   0  0  0  0  0  0  0  0  0  0  0  0
   17.4080  -53.1780   38.5450 C   0  0  0  0  0  0  0  0  0  0  0  0
   18.3120  -52.8930   39.3570 O   0  0  0  0  0  0  0  0  0  0  0  0
   16.0110  -52.8750   39.0550 C   0  0  0  0  0  0  0  0  0  0  0  0
   19.6490  -52.4510   36.9090 C   0  0  0  0  0  0  0  0  0  0  0  0
   20.2230  -51.5320   35.9100 C   0  0  0  0  0  0  0  0  0  0  0  0
   20.5260  -51.7450   34.6390 N   0  0  0  0  0  0  0  0  0  0  0  0
   21.0400  -50.6270   34.0560 C   0  0  0  0  0  0  0  0  0  0  0  0
   21.0550  -49.6790   35.0120 N   0  0  0  0  0  0  0  0  0  0  0  0
   20.5610  -50.2110   36.1500 C   0  0  0  0  0  0  0  0  0  0  0  0
   16.0940  -57.7550   37.7930 O   0  0  0  0  0  0  0  0  0  0  0  0
   16.6460  -59.4410   36.2730 C   0  0  0  0  0  0  0  0  0  0  0  0
   13.4950  -60.1390   35.5600 H   0  0  0  0  0  0  0  0  0  0  0  0
   11.8790  -57.2180   39.0460 H   0  0  0  0  0  0  0  0  0  0  0  0
   14.6920  -56.7060   35.7200 H   0  0  0  0  0  0  0  0  0  0  0  0
   18.0840  -57.1560   36.1890 H   0  0  0  0  0  0  0  0  0  0  0  0
   16.6960  -56.0310   36.1020 H   0  0  0  0  0  0  0  0  0  0  0  0
   14.4410  -57.5520   33.6470 H   0  0  0  0  0  0  0  0  0  0  0  0
   14.5530  -59.2540   34.0720 H   0  0  0  0  0  0  0  0  0  0  0  0
   19.0200  -58.0120   34.5110 H   0  0  0  0  0  0  0  0  0  0  0  0
   18.3770  -57.9700   32.8570 H   0  0  0  0  0  0  0  0  0  0  0  0
   19.1260  -55.7130   32.5900 H   0  0  0  0  0  0  0  0  0  0  0  0
   20.1970  -56.1360   33.9720 H   0  0  0  0  0  0  0  0  0  0  0  0
   16.5520  -54.1630   34.7590 H   0  0  0  0  0  0  0  0  0  0  0  0
   17.2700  -53.9710   33.1350 H   0  0  0  0  0  0  0  0  0  0  0  0
   15.4250  -55.7790   33.6260 H   0  0  0  0  0  0  0  0  0  0  0  0
   16.7390  -56.0860   32.4710 H   0  0  0  0  0  0  0  0  0  0  0  0
   18.0200  -52.5460   35.6250 H   0  0  0  0  0  0  0  0  0  0  0  0
   16.9850  -54.5530   37.0140 H   0  0  0  0  0  0  0  0  0  0  0  0
   15.9470  -53.0150   40.1350 H   0  0  0  0  0  0  0  0  0  0  0  0
   15.7580  -51.8220   38.8080 H   0  0  0  0  0  0  0  0  0  0  0  0
   15.2870  -53.5220   38.5350 H   0  0  0  0  0  0  0  0  0  0  0  0
   19.2620  -51.8880   37.7500 H   0  0  0  0  0  0  0  0  0  0  0  0
   20.4380  -53.1560   37.2830 H   0  0  0  0  0  0  0  0  0  0  0  0
   21.3670  -50.5400   33.0210 H   0  0  0  0  0  0  0  0  0  0  0  0
   21.4040  -48.7040   34.8480 H   0  0  0  0  0  0  0  0  0  0  0  0
   20.4660  -49.6570   37.0710 H   0  0  0  0  0  0  0  0  0  0  0  0
   16.5380  -58.4820   38.2980 H   0  0  0  0  0  0  0  0  0  0  0  0
   16.7260  -59.9910   37.2520 H   0  0  0  0  0  0  0  0  0  0  0  0
   15.9750  -60.0710   35.6400 H   0  0  0  0  0  0  0  0  0  0  0  0
   17.6370  -59.4740   35.8150 H   0  0  0  0  0  0  0  0  0  0  0  0
  1  2  1  0  0  0  0
  2  8  1  0  0  0  0
  3  4  1  0  0  0  0
  3  2  2  0  0  0  0
  4  5  1  0  0  0  0
  5  6  2  0  0  0  0
  5  7  1  0  0  0  0
  7 37  1  0  0  0  0
  8  7  1  0  0  0  0
  8  9  2  0  0  0  0
 10 38  1  6  0  0  0
 10 11  1  0  0  0  0
 10  4  1  0  0  0  0
 11 34  1  1  0  0  0
 12 40  1  0  0  0  0
 12 39  1  0  0  0  0
 12 11  1  0  0  0  0
 13 14  1  6  0  0  0
 13 12  1  0  0  0  0
 14 15  1  0  0  0  0
 15 10  1  0  0  0  0
 16 13  1  0  0  0  0
 16 43  1  0  0  0  0
 17 16  1  0  0  0  0
 17 46  1  0  0  0  0
 17 18  1  0  0  0  0
 18 21  1  0  0  0  0
 19 18  1  0  0  0  0
 19 47  1  0  0  0  0
 20 49  1  0  0  0  0
 20 19  1  0  0  0  0
 20 13  1  0  0  0  0
 21 22  2  0  0  0  0
 21 23  1  0  0  0  0
 23 51  1  6  0  0  0
 23 28  1  0  0  0  0
 23 24  1  0  0  0  0
 24 25  1  0  0  0  0
 25 27  1  0  0  0  0
 25 26  2  0  0  0  0
 27 53  1  0  0  0  0
 28 57  1  0  0  0  0
 28 56  1  0  0  0  0
 29 33  2  0  0  0  0
 29 28  1  0  0  0  0
 30 29  1  0  0  0  0
 31 30  2  0  0  0  0
 31 32  1  0  0  0  0
 32 33  1  0  0  0  0
 33 60  1  0  0  0  0
 34 61  1  0  0  0  0
 35 11  1  0  0  0  0
 35 62  1  0  0  0  0
 36  3  1  0  0  0  0
 41 15  1  0  0  0  0
 42 15  1  0  0  0  0
 44 16  1  0  0  0  0
 45 17  1  0  0  0  0
 48 19  1  0  0  0  0
 50 20  1  0  0  0  0
 52 24  1  0  0  0  0
 54 27  1  0  0  0  0
 55 27  1  0  0  0  0
 58 31  1  0  0  0  0
 59 32  1  0  0  0  0
 63 35  1  0  0  0  0
 64 35  1  0  0  0  0
M  END
>  <Pose>
1

>  <Score>
-6.93

$$$$
