
 OpenBabel03232204043D

 41 44  0  0  1  0  0  0  0  0999 V2000
   18.1610  -63.0540   31.2160 B   0  0  0  0  0  0  0  0  0  0  0  0
   16.7160  -62.6520   32.4070 C   0  0  0  0  0  0  0  0  0  0  0  0
   16.0170  -61.4680   32.3350 C   0  0  0  0  0  0  0  0  0  0  0  0
   14.9880  -61.1780   33.1810 N   0  0  0  0  0  0  0  0  0  0  0  0
   14.6470  -62.0840   34.1160 C   0  0  0  0  0  0  0  0  0  0  0  0
   13.6190  -61.5930   34.8280 N   0  0  0  0  0  0  0  0  0  0  0  0
   13.2900  -60.3740   34.3610 C   0  0  0  0  0  0  0  0  0  0  0  0
   14.1620  -60.1250   33.3220 C   0  0  0  0  0  0  0  0  0  0  0  0
   12.2170  -59.4730   34.8530 C   0  0  0  0  0  0  0  0  0  0  0  0
   12.7710  -58.3080   35.5060 N   0  0  0  0  0  0  0  0  0  0  0  0
   14.1630  -58.1720   35.6200 C   0  0  0  0  0  0  0  0  0  0  0  0
   14.7730  -57.3580   34.8970 O   0  0  0  0  0  0  0  0  0  0  0  0
   14.9180  -58.9850   36.5920 C   0  0  1  0  0  0  0  0  0  0  0  0
   15.9530  -58.1440   37.2960 C   0  0  0  0  0  0  0  0  0  0  0  0
   15.2400  -57.0850   37.9840 N   0  0  0  0  0  0  0  0  0  0  0  0
   14.0430  -57.3320   38.5430 C   0  0  0  0  0  0  0  0  0  0  0  0
   13.6280  -56.1770   39.1020 N   0  0  0  0  0  0  0  0  0  0  0  0
   14.5210  -55.2530   38.9050 N   0  0  0  0  0  0  0  0  0  0  0  0
   15.5270  -55.8030   38.2130 C   0  0  0  0  0  0  0  0  0  0  0  0
   16.7400  -55.0310   37.8010 C   0  0  0  0  0  0  0  0  0  0  0  0
   13.3600  -58.6340   38.5180 C   0  0  0  0  0  0  0  0  0  0  0  0
   13.9620  -59.6120   37.5740 C   0  0  0  0  0  0  0  0  0  0  0  0
   15.3340  -63.2910   34.2140 C   0  0  0  0  0  0  0  0  0  0  0  0
   16.3710  -63.5830   33.3640 C   0  0  0  0  0  0  0  0  0  0  0  0
   16.2940  -60.7540   31.5910 H   0  0  0  0  0  0  0  0  0  0  0  0
   14.2350  -59.2570   32.6810 H   0  0  0  0  0  0  0  0  0  0  0  0
   11.5510  -59.2010   33.9980 H   0  0  0  0  0  0  0  0  0  0  0  0
   11.5670  -60.0320   35.5800 H   0  0  0  0  0  0  0  0  0  0  0  0
   12.1540  -57.5680   35.8920 H   0  0  0  0  0  0  0  0  0  0  0  0
   15.3960  -59.8250   36.0370 H   0  0  0  0  0  0  0  0  0  0  0  0
   16.4830  -58.7820   38.0410 H   0  0  0  0  0  0  0  0  0  0  0  0
   16.6660  -57.7570   36.5410 H   0  0  0  0  0  0  0  0  0  0  0  0
   17.2490  -55.5440   36.9800 H   0  0  0  0  0  0  0  0  0  0  0  0
   16.4430  -54.0110   37.4350 H   0  0  0  0  0  0  0  0  0  0  0  0
   17.3840  -54.8890   38.6920 H   0  0  0  0  0  0  0  0  0  0  0  0
   13.3860  -59.0940   39.5450 H   0  0  0  0  0  0  0  0  0  0  0  0
   12.2850  -58.4530   38.3070 H   0  0  0  0  0  0  0  0  0  0  0  0
   13.1450  -60.0990   36.9760 H   0  0  0  0  0  0  0  0  0  0  0  0
   14.4950  -60.4350   38.0990 H   0  0  0  0  0  0  0  0  0  0  0  0
   15.0110  -63.9760   34.9860 H   0  0  0  0  0  0  0  0  0  0  0  0
   16.8770  -64.5360   33.4780 H   0  0  0  0  0  0  0  0  0  0  0  0
  1  2  1  0  0  0  0
  2 24  1  0  0  0  0
  3  2  2  0  0  0  0
  3  4  1  0  0  0  0
  4  8  1  0  0  0  0
  4  5  1  0  0  0  0
  5 23  1  0  0  0  0
  5  6  2  0  0  0  0
  7  6  1  0  0  0  0
  7  9  1  0  0  0  0
  8  7  2  0  0  0  0
  9 10  1  0  0  0  0
  9 28  1  0  0  0  0
 10 11  1  0  0  0  0
 10 29  1  0  0  0  0
 11 13  1  0  0  0  0
 12 11  2  0  0  0  0
 13 30  1  6  0  0  0
 13 14  1  0  0  0  0
 13 22  1  0  0  0  0
 14 15  1  0  0  0  0
 14 31  1  0  0  0  0
 15 19  1  0  0  0  0
 15 16  1  0  0  0  0
 16 17  2  0  0  0  0
 18 17  1  0  0  0  0
 19 18  2  0  0  0  0
 20 19  1  0  0  0  0
 20 35  1  0  0  0  0
 21 16  1  0  0  0  0
 21 36  1  0  0  0  0
 22 39  1  0  0  0  0
 22 21  1  0  0  0  0
 23 40  1  0  0  0  0
 24 41  1  0  0  0  0
 24 23  2  0  0  0  0
 25  3  1  0  0  0  0
 26  8  1  0  0  0  0
 27  9  1  0  0  0  0
 32 14  1  0  0  0  0
 33 20  1  0  0  0  0
 34 20  1  0  0  0  0
 37 21  1  0  0  0  0
 38 22  1  0  0  0  0
M  END
>  <Pose>
1

>  <Score>
-5.10

$$$$
