
 OpenBabel03232204043D

 37 40  0  0  1  0  0  0  0  0999 V2000
   11.0780  -60.6590   37.6110 B   0  0  0  0  0  0  0  0  0  0  0  0
   12.5280  -59.4040   37.7310 C   0  0  0  0  0  0  0  0  0  0  0  0
   12.4400  -58.2740   38.5140 C   0  0  0  0  0  0  0  0  0  0  0  0
   13.4560  -57.3770   38.6090 N   0  0  0  0  0  0  0  0  0  0  0  0
   13.6190  -56.2440   39.2720 N   0  0  0  0  0  0  0  0  0  0  0  0
   14.8240  -55.7020   39.0430 C   0  0  0  0  0  0  0  0  0  0  0  0
   15.4340  -56.5970   38.1630 C   0  0  0  0  0  0  0  0  0  0  0  0
   14.5690  -57.6390   37.8990 C   0  0  0  0  0  0  0  0  0  0  0  0
   14.6670  -58.7510   37.1240 N   0  0  0  0  0  0  0  0  0  0  0  0
   13.6780  -59.6510   37.0140 C   0  0  0  0  0  0  0  0  0  0  0  0
   15.4190  -54.4650   39.5660 C   0  0  0  0  0  0  0  0  0  0  0  0
   14.9000  -53.9110   40.5730 O   0  0  0  0  0  0  0  0  0  0  0  0
   16.5630  -53.8600   38.9870 N   0  0  0  0  0  0  0  0  0  0  0  0
   16.4170  -52.9310   37.9260 C   0  0  0  0  0  0  0  0  0  0  0  0
   17.5890  -52.8620   37.0200 C   0  0  2  0  0  0  0  0  0  0  0  0
   18.6950  -53.7120   37.3570 N   0  0  2  0  0  0  0  0  0  0  0  0
   19.0200  -53.6260   38.7690 C   0  0  0  0  0  0  0  0  0  0  0  0
   17.8470  -54.2300   39.5180 C   0  0  0  0  0  0  0  0  0  0  0  0
   19.7380  -53.2730   36.4820 C   0  0  0  0  0  0  0  0  0  0  0  0
   19.5820  -51.7750   36.3910 C   0  0  0  0  0  0  0  0  0  0  0  0
   18.2280  -51.4850   37.0000 C   0  0  0  0  0  0  0  0  0  0  0  0
   11.5290  -58.1040   39.0660 H   0  0  0  0  0  0  0  0  0  0  0  0
   16.4320  -56.4430   37.7820 H   0  0  0  0  0  0  0  0  0  0  0  0
   13.7660  -60.5430   36.3880 H   0  0  0  0  0  0  0  0  0  0  0  0
   16.2030  -51.9170   38.3440 H   0  0  0  0  0  0  0  0  0  0  0  0
   15.4810  -53.1760   37.3350 H   0  0  0  0  0  0  0  0  0  0  0  0
   17.2890  -53.1230   35.9780 H   0  0  0  0  0  0  0  0  0  0  0  0
   19.9030  -54.2700   38.9400 H   0  0  0  0  0  0  0  0  0  0  0  0
   19.2740  -52.6130   39.1020 H   0  0  0  0  0  0  0  0  0  0  0  0
   17.8810  -53.9390   40.5880 H   0  0  0  0  0  0  0  0  0  0  0  0
   17.9630  -55.3590   39.5110 H   0  0  0  0  0  0  0  0  0  0  0  0
   19.5350  -53.7380   35.4760 H   0  0  0  0  0  0  0  0  0  0  0  0
   20.7500  -53.5660   36.8210 H   0  0  0  0  0  0  0  0  0  0  0  0
   20.4120  -51.2850   36.9390 H   0  0  0  0  0  0  0  0  0  0  0  0
   19.6390  -51.4250   35.3380 H   0  0  0  0  0  0  0  0  0  0  0  0
   17.6310  -50.7800   36.4060 H   0  0  0  0  0  0  0  0  0  0  0  0
   18.3230  -51.1320   38.0440 H   0  0  0  0  0  0  0  0  0  0  0  0
  1  2  1  0  0  0  0
  2  3  2  0  0  0  0
  3  4  1  0  0  0  0
  3 22  1  0  0  0  0
  4  5  1  0  0  0  0
  6  5  2  0  0  0  0
  6 11  1  0  0  0  0
  7  6  1  0  0  0  0
  8  7  2  0  0  0  0
  8  4  1  0  0  0  0
  9  8  1  0  0  0  0
 10  9  2  0  0  0  0
 10  2  1  0  0  0  0
 11 12  2  0  0  0  0
 13 18  1  0  0  0  0
 13 11  1  0  0  0  0
 14 25  1  0  0  0  0
 14 13  1  0  0  0  0
 15 27  1  6  0  0  0
 15 16  1  0  0  0  0
 15 14  1  0  0  0  0
 16 19  1  6  0  0  0
 16 17  1  0  0  0  0
 17 28  1  0  0  0  0
 17 29  1  0  0  0  0
 17 18  1  0  0  0  0
 18 30  1  0  0  0  0
 19 33  1  0  0  0  0
 20 19  1  0  0  0  0
 20 34  1  0  0  0  0
 20 21  1  0  0  0  0
 21 15  1  0  0  0  0
 21 37  1  0  0  0  0
 23  7  1  0  0  0  0
 24 10  1  0  0  0  0
 26 14  1  0  0  0  0
 31 18  1  0  0  0  0
 32 19  1  0  0  0  0
 35 20  1  0  0  0  0
 36 21  1  0  0  0  0
M  END
>  <Pose>
1

>  <Score>
-6.42

$$$$
