
 OpenBabel03232204043D

 40 43  0  0  0  0  0  0  0  0999 V2000
   17.9950  -63.6670   30.3180 B   0  0  0  0  0  0  0  0  0  0  0  0
   16.7010  -62.5260   31.1560 C   0  0  0  0  0  0  0  0  0  0  0  0
   17.0730  -61.5460   32.0500 C   0  0  0  0  0  0  0  0  0  0  0  0
   16.1920  -60.7240   32.6610 N   0  0  0  0  0  0  0  0  0  0  0  0
   14.8700  -60.8140   32.4290 C   0  0  0  0  0  0  0  0  0  0  0  0
   13.9800  -60.0050   33.0280 N   0  0  0  0  0  0  0  0  0  0  0  0
   14.3390  -59.0390   33.9070 C   0  0  0  0  0  0  0  0  0  0  0  0
   15.6900  -58.9300   34.1610 C   0  0  0  0  0  0  0  0  0  0  0  0
   16.5980  -59.7760   33.5310 C   0  0  0  0  0  0  0  0  0  0  0  0
   17.8160  -59.6860   33.7520 O   0  0  0  0  0  0  0  0  0  0  0  0
   13.3330  -58.1560   34.5510 C   0  0  0  0  0  0  0  0  0  0  0  0
   13.8300  -57.4470   35.6550 O   0  0  0  0  0  0  0  0  0  0  0  0
   13.6500  -57.7940   36.9780 C   0  0  0  0  0  0  0  0  0  0  0  0
   12.5140  -58.1150   37.3820 O   0  0  0  0  0  0  0  0  0  0  0  0
   14.8220  -57.7760   37.8830 C   0  0  0  0  0  0  0  0  0  0  0  0
   15.3160  -56.4410   38.0610 N   0  0  0  0  0  0  0  0  0  0  0  0
   14.8960  -55.5220   39.0460 C   0  0  0  0  0  0  0  0  0  0  0  0
   14.0310  -55.6610   39.9500 O   0  0  0  0  0  0  0  0  0  0  0  0
   15.6630  -54.2710   38.8670 C   0  0  0  0  0  0  0  0  0  0  0  0
   16.5100  -54.4530   37.8070 C   0  0  0  0  0  0  0  0  0  0  0  0
   17.3580  -53.4680   37.3900 C   0  0  0  0  0  0  0  0  0  0  0  0
   17.3510  -52.2690   38.0600 C   0  0  0  0  0  0  0  0  0  0  0  0
   16.4970  -52.0850   39.1310 C   0  0  0  0  0  0  0  0  0  0  0  0
   15.6370  -53.0730   39.5590 C   0  0  0  0  0  0  0  0  0  0  0  0
   16.3080  -55.8080   37.2870 C   0  0  0  0  0  0  0  0  0  0  0  0
   16.9390  -56.2970   36.3010 O   0  0  0  0  0  0  0  0  0  0  0  0
   14.4630  -61.7990   31.5250 C   0  0  0  0  0  0  0  0  0  0  0  0
   15.3520  -62.6430   30.8970 C   0  0  0  0  0  0  0  0  0  0  0  0
   18.1410  -61.4520   32.2570 H   0  0  0  0  0  0  0  0  0  0  0  0
   16.0540  -58.1680   34.8590 H   0  0  0  0  0  0  0  0  0  0  0  0
   12.9220  -57.4230   33.8300 H   0  0  0  0  0  0  0  0  0  0  0  0
   12.4490  -58.7520   34.9130 H   0  0  0  0  0  0  0  0  0  0  0  0
   15.6220  -58.3590   37.3440 H   0  0  0  0  0  0  0  0  0  0  0  0
   14.6070  -58.2860   38.8480 H   0  0  0  0  0  0  0  0  0  0  0  0
   18.0180  -53.6230   36.5560 H   0  0  0  0  0  0  0  0  0  0  0  0
   18.0290  -51.5050   37.7140 H   0  0  0  0  0  0  0  0  0  0  0  0
   16.5360  -51.1200   39.6180 H   0  0  0  0  0  0  0  0  0  0  0  0
   14.9690  -52.9360   40.3920 H   0  0  0  0  0  0  0  0  0  0  0  0
   13.4030  -61.8640   31.3460 H   0  0  0  0  0  0  0  0  0  0  0  0
   15.0310  -63.4050   30.1990 H   0  0  0  0  0  0  0  0  0  0  0  0
  1  2  1  0  0  0  0
  2  3  1  0  0  0  0
  3 29  1  0  0  0  0
  3  4  1  0  0  0  0
  4  9  1  0  0  0  0
  5  4  1  0  0  0  0
  5  6  1  0  0  0  0
  6  7  2  0  0  0  0
  7  8  1  0  0  0  0
  7 11  1  0  0  0  0
  8 30  1  0  0  0  0
  9 10  2  0  0  0  0
  9  8  1  0  0  0  0
 11 32  1  0  0  0  0
 11 12  1  0  0  0  0
 12 13  1  0  0  0  0
 13 14  2  0  0  0  0
 13 15  1  0  0  0  0
 15 16  1  0  0  0  0
 15 34  1  0  0  0  0
 16 17  1  0  0  0  0
 17 18  2  0  0  0  0
 19 17  1  0  0  0  0
 19 24  1  0  0  0  0
 20 19  2  0  0  0  0
 21 20  1  0  0  0  0
 21 22  2  0  0  0  0
 22 23  1  0  0  0  0
 23 24  2  0  0  0  0
 23 37  1  0  0  0  0
 24 38  1  0  0  0  0
 25 20  1  0  0  0  0
 25 16  1  0  0  0  0
 26 25  2  0  0  0  0
 27  5  2  0  0  0  0
 28  2  2  0  0  0  0
 28 27  1  0  0  0  0
 31 11  1  0  0  0  0
 33 15  1  0  0  0  0
 35 21  1  0  0  0  0
 36 22  1  0  0  0  0
 39 27  1  0  0  0  0
 40 28  1  0  0  0  0
M  END
>  <Pose>
1

>  <Score>
-6.23

$$$$
