
 OpenBabel03232204043D

 56 59  0  0  1  0  0  0  0  0999 V2000
   19.9700  -55.7790   29.3130 B   0  0  0  0  0  0  0  0  0  0  0  0
   18.9710  -55.8200   30.9570 C   0  0  0  0  0  0  0  0  0  0  0  0
   19.4850  -55.2140   32.0900 C   0  0  0  0  0  0  0  0  0  0  0  0
   18.7680  -55.2410   33.2830 C   0  0  0  0  0  0  0  0  0  0  0  0
   17.5430  -55.8620   33.3680 C   0  0  0  0  0  0  0  0  0  0  0  0
   17.0630  -56.4550   32.2220 C   0  0  0  0  0  0  0  0  0  0  0  0
   17.7490  -56.4440   31.0320 C   0  0  0  0  0  0  0  0  0  0  0  0
   16.7860  -55.8980   34.6000 C   0  0  0  0  0  0  0  0  0  0  0  0
   15.7630  -55.1710   34.7180 O   0  0  0  0  0  0  0  0  0  0  0  0
   17.1540  -56.7600   35.7550 C   0  0  0  0  0  0  0  0  0  0  0  0
   16.2880  -56.5470   36.8760 N   0  0  0  0  0  0  0  0  0  0  0  0
   16.3060  -55.5280   37.7040 N   0  0  0  0  0  0  0  0  0  0  0  0
   15.3510  -55.6600   38.6360 C   0  0  0  0  0  0  0  0  0  0  0  0
   14.7100  -56.8090   38.3780 N   0  0  0  0  0  0  0  0  0  0  0  0
   15.3010  -57.3570   37.2760 C   0  0  2  0  0  0  0  0  0  0  0  0
   14.9270  -58.6170   36.6360 C   0  0  0  0  0  0  0  0  0  0  0  0
   13.4890  -58.6420   36.1750 C   0  0  0  0  0  0  0  0  0  0  0  0
   12.5250  -58.7480   37.3370 C   0  0  0  0  0  0  0  0  0  0  0  0
   12.4410  -57.4940   38.1500 C   0  0  0  0  0  0  0  0  0  0  0  0
   13.5990  -57.3610   39.1280 C   0  0  0  0  0  0  0  0  0  0  0  0
   15.0370  -54.7440   39.7410 C   0  0  0  0  0  0  0  0  0  0  0  0
   15.8420  -53.5610   39.7210 N   0  0  0  0  0  0  0  0  0  0  0  0
   16.9270  -53.3760   38.8180 C   0  0  0  0  0  0  0  0  0  0  0  0
   16.9250  -52.3890   37.8580 C   0  0  0  0  0  0  0  0  0  0  0  0
   17.9780  -52.2180   36.9970 C   0  0  0  0  0  0  0  0  0  0  0  0
   19.0570  -53.0390   37.0840 C   0  0  0  0  0  0  0  0  0  0  0  0
   19.0630  -54.0290   38.0420 C   0  0  0  0  0  0  0  0  0  0  0  0
   18.0100  -54.2100   38.9150 C   0  0  0  0  0  0  0  0  0  0  0  0
   20.1270  -52.8920   36.2330 O   0  0  0  0  0  0  0  0  0  0  0  0
   20.0030  -52.9390   34.8340 C   0  0  0  0  0  0  0  0  0  0  0  0
   20.4400  -54.7310   32.0150 H   0  0  0  0  0  0  0  0  0  0  0  0
   19.1870  -54.7620   34.1500 H   0  0  0  0  0  0  0  0  0  0  0  0
   16.0860  -56.9570   32.2700 H   0  0  0  0  0  0  0  0  0  0  0  0
   17.3230  -56.9240   30.1740 H   0  0  0  0  0  0  0  0  0  0  0  0
   17.2360  -57.8240   35.4610 H   0  0  0  0  0  0  0  0  0  0  0  0
   18.1870  -56.4210   36.0610 H   0  0  0  0  0  0  0  0  0  0  0  0
   15.5530  -58.8210   35.7490 H   0  0  0  0  0  0  0  0  0  0  0  0
   15.0550  -59.5130   37.3090 H   0  0  0  0  0  0  0  0  0  0  0  0
   13.2190  -57.8100   35.5240 H   0  0  0  0  0  0  0  0  0  0  0  0
   13.3650  -59.5790   35.5770 H   0  0  0  0  0  0  0  0  0  0  0  0
   12.7110  -59.6340   37.9470 H   0  0  0  0  0  0  0  0  0  0  0  0
   11.5080  -58.8990   36.8730 H   0  0  0  0  0  0  0  0  0  0  0  0
   12.4270  -56.6010   37.5260 H   0  0  0  0  0  0  0  0  0  0  0  0
   11.4800  -57.5360   38.7320 H   0  0  0  0  0  0  0  0  0  0  0  0
   13.8420  -58.3210   39.6100 H   0  0  0  0  0  0  0  0  0  0  0  0
   13.3090  -56.6490   39.9150 H   0  0  0  0  0  0  0  0  0  0  0  0
   15.2060  -55.2950   40.7030 H   0  0  0  0  0  0  0  0  0  0  0  0
   13.9730  -54.4570   39.7360 H   0  0  0  0  0  0  0  0  0  0  0  0
   15.6480  -52.7930   40.3800 H   0  0  0  0  0  0  0  0  0  0  0  0
   16.0290  -51.7540   37.8320 H   0  0  0  0  0  0  0  0  0  0  0  0
   17.9310  -51.4340   36.2650 H   0  0  0  0  0  0  0  0  0  0  0  0
   19.9160  -54.7050   38.1380 H   0  0  0  0  0  0  0  0  0  0  0  0
   18.0340  -55.0040   39.6750 H   0  0  0  0  0  0  0  0  0  0  0  0
   20.9850  -53.0560   34.3580 H   0  0  0  0  0  0  0  0  0  0  0  0
   19.3630  -53.8040   34.5670 H   0  0  0  0  0  0  0  0  0  0  0  0
   19.5090  -52.0250   34.4330 H   0  0  0  0  0  0  0  0  0  0  0  0
  1  2  1  0  0  0  0
  2  7  2  0  0  0  0
  2  3  1  0  0  0  0
  3  4  2  0  0  0  0
  4  5  1  0  0  0  0
  4 32  1  0  0  0  0
  5  8  1  0  0  0  0
  6 33  1  0  0  0  0
  6  5  2  0  0  0  0
  7  6  1  0  0  0  0
  8  9  2  0  0  0  0
  8 10  1  0  0  0  0
 10 36  1  0  0  0  0
 10 11  1  0  0  0  0
 11 15  1  0  0  0  0
 11 12  1  0  0  0  0
 12 13  2  0  0  0  0
 13 21  1  0  0  0  0
 14 13  1  0  0  0  0
 14 20  1  0  0  0  0
 15 16  1  1  0  0  0
 15 14  1  0  0  0  0
 16 38  1  0  0  0  0
 17 16  1  0  0  0  0
 17 18  1  0  0  0  0
 18 41  1  0  0  0  0
 18 19  1  0  0  0  0
 19 44  1  0  0  0  0
 19 20  1  0  0  0  0
 20 45  1  0  0  0  0
 20 46  1  0  0  0  0
 21 47  1  0  0  0  0
 22 21  1  0  0  0  0
 22 49  1  0  0  0  0
 23 28  1  0  0  0  0
 23 22  1  0  0  0  0
 24 23  2  0  0  0  0
 25 26  2  0  0  0  0
 25 24  1  0  0  0  0
 26 27  1  0  0  0  0
 27 52  1  0  0  0  0
 27 28  2  0  0  0  0
 28 53  1  0  0  0  0
 29 26  1  0  0  0  0
 30 29  1  0  0  0  0
 31  3  1  0  0  0  0
 34  7  1  0  0  0  0
 35 10  1  0  0  0  0
 37 16  1  0  0  0  0
 39 17  1  0  0  0  0
 40 17  1  0  0  0  0
 42 18  1  0  0  0  0
 43 19  1  0  0  0  0
 48 21  1  0  0  0  0
 50 24  1  0  0  0  0
 51 25  1  0  0  0  0
 54 30  1  0  0  0  0
 55 30  1  0  0  0  0
 56 30  1  0  0  0  0
M  END
>  <Pose>
1

>  <Score>
-6.26

$$$$
