
 OpenBabel03232204043D

 53 56  0  0  1  0  0  0  0  0999 V2000
   12.1890  -59.4780   35.5330 B   0  0  0  0  0  0  0  0  0  0  0  0
   13.6880  -59.9800   34.4900 C   0  0  0  0  0  0  0  0  0  0  0  0
   14.4660  -61.0500   34.8900 C   0  0  0  0  0  0  0  0  0  0  0  0
   15.5570  -61.4360   34.1400 C   0  0  0  0  0  0  0  0  0  0  0  0
   15.8890  -60.7650   32.9860 C   0  0  0  0  0  0  0  0  0  0  0  0
   15.1200  -59.7100   32.5950 C   0  0  0  0  0  0  0  0  0  0  0  0
   14.0070  -59.3010   33.3410 C   0  0  0  0  0  0  0  0  0  0  0  0
   17.0630  -61.1390   32.1480 C   0  0  2  0  0  0  0  0  0  0  0  0
   17.5770  -59.9750   31.4290 N   0  0  0  0  0  4  0  0  0  0  0  0
   17.1050  -59.9830   30.1390 C   0  0  0  0  0  0  0  0  0  0  0  0
   17.5400  -59.3420   29.0820 C   0  0  0  0  0  0  0  0  0  0  0  0
   17.1090  -59.2700   27.6560 C   0  0  0  0  0  0  0  0  0  0  0  0
   16.0390  -60.2490   27.2890 C   0  0  0  0  0  0  0  0  0  0  0  0
   14.8110  -60.0830   28.1530 C   0  0  0  0  0  0  0  0  0  0  0  0
   14.8510  -61.0700   29.3030 C   0  0  0  0  0  0  0  0  0  0  0  0
   16.0460  -60.9650   30.0760 N   0  0  0  0  0  0  0  0  0  0  0  0
   16.4090  -62.0180   31.0340 C   0  0  0  0  0  0  0  0  0  0  0  0
   17.7940  -58.8490   32.1780 C   0  0  0  0  0  0  0  0  0  0  0  0
   18.0320  -57.6010   31.6870 C   0  0  0  0  0  0  0  0  0  0  0  0
   18.4200  -56.5210   32.4980 C   0  0  0  0  0  0  0  0  0  0  0  0
   18.5780  -56.6810   33.8490 C   0  0  0  0  0  0  0  0  0  0  0  0
   18.3350  -57.9480   34.3580 C   0  0  0  0  0  0  0  0  0  0  0  0
   17.9560  -59.0050   33.5590 C   0  0  0  0  0  0  0  0  0  0  0  0
   18.9700  -55.6310   34.6630 O   0  0  0  0  0  0  0  0  0  0  0  0
   19.5720  -54.4410   34.2200 C   0  0  0  0  0  0  0  0  0  0  0  0
   19.5850  -53.5030   35.4420 C   0  0  0  0  0  0  0  0  0  0  0  0
   18.0190  -61.8770   32.7310 O   0  0  0  0  0  0  0  0  0  0  0  0
   14.2540  -61.6170   35.7810 H   0  0  0  0  0  0  0  0  0  0  0  0
   16.1340  -62.2930   34.5010 H   0  0  0  0  0  0  0  0  0  0  0  0
   15.3710  -59.1780   31.7000 H   0  0  0  0  0  0  0  0  0  0  0  0
   13.3850  -58.4690   33.0380 H   0  0  0  0  0  0  0  0  0  0  0  0
   18.6430  -60.3450   31.2680 H   0  0  0  0  0  0  0  0  0  0  0  0
   18.4420  -58.7500   29.2250 H   0  0  0  0  0  0  0  0  0  0  0  0
   17.9830  -59.4500   27.0070 H   0  0  0  0  0  0  0  0  0  0  0  0
   16.6730  -58.2480   27.4940 H   0  0  0  0  0  0  0  0  0  0  0  0
   16.3860  -61.2720   27.2090 H   0  0  0  0  0  0  0  0  0  0  0  0
   15.7100  -59.9550   26.2480 H   0  0  0  0  0  0  0  0  0  0  0  0
   14.7050  -59.0550   28.4770 H   0  0  0  0  0  0  0  0  0  0  0  0
   13.8970  -60.3590   27.5430 H   0  0  0  0  0  0  0  0  0  0  0  0
   13.9030  -61.0720   29.8620 H   0  0  0  0  0  0  0  0  0  0  0  0
   14.8960  -62.0830   28.7960 H   0  0  0  0  0  0  0  0  0  0  0  0
   17.1270  -62.7000   30.5850 H   0  0  0  0  0  0  0  0  0  0  0  0
   15.5020  -62.4860   31.4000 H   0  0  0  0  0  0  0  0  0  0  0  0
   17.9050  -57.3610   30.6500 H   0  0  0  0  0  0  0  0  0  0  0  0
   18.5990  -55.5680   32.0350 H   0  0  0  0  0  0  0  0  0  0  0  0
   18.4320  -58.1560   35.4330 H   0  0  0  0  0  0  0  0  0  0  0  0
   17.8060  -59.9820   34.0430 H   0  0  0  0  0  0  0  0  0  0  0  0
   18.9340  -53.9510   33.4110 H   0  0  0  0  0  0  0  0  0  0  0  0
   20.5620  -54.6010   33.7860 H   0  0  0  0  0  0  0  0  0  0  0  0
   20.6500  -53.4690   35.7340 H   0  0  0  0  0  0  0  0  0  0  0  0
   19.0130  -53.9400   36.2800 H   0  0  0  0  0  0  0  0  0  0  0  0
   19.1450  -52.5200   35.2210 H   0  0  0  0  0  0  0  0  0  0  0  0
   18.9370  -61.5700   32.7570 H   0  0  0  0  0  0  0  0  0  0  0  0
  2  3  1  0  0  0  0
  2  1  1  0  0  0  0
  3 28  1  0  0  0  0
  4 29  1  0  0  0  0
  4  3  2  0  0  0  0
  5  4  1  0  0  0  0
  6  5  2  0  0  0  0
  6  7  1  0  0  0  0
  7  2  2  0  0  0  0
  8 27  1  1  0  0  0
  8  5  1  0  0  0  0
  9  8  1  0  0  0  0
  9 18  1  0  0  0  0
 10  9  1  0  0  0  0
 11 33  1  0  0  0  0
 11 10  2  0  0  0  0
 12 11  1  0  0  0  0
 13 12  1  0  0  0  0
 13 14  1  0  0  0  0
 14 38  1  0  0  0  0
 14 15  1  0  0  0  0
 15 40  1  0  0  0  0
 15 16  1  0  0  0  0
 16 10  1  0  0  0  0
 16 17  1  0  0  0  0
 17 43  1  0  0  0  0
 17  8  1  0  0  0  0
 18 23  1  0  0  0  0
 19 18  2  0  0  0  0
 19 20  1  0  0  0  0
 20 21  2  0  0  0  0
 21 22  1  0  0  0  0
 21 24  1  0  0  0  0
 22 46  1  0  0  0  0
 23 47  1  0  0  0  0
 23 22  2  0  0  0  0
 25 24  1  0  0  0  0
 25 26  1  0  0  0  0
 26 50  1  0  0  0  0
 26 51  1  0  0  0  0
 27 53  1  0  0  0  0
 30  6  1  0  0  0  0
 31  7  1  0  0  0  0
 32  9  1  0  0  0  0
 34 12  1  0  0  0  0
 35 12  1  0  0  0  0
 36 13  1  0  0  0  0
 37 13  1  0  0  0  0
 39 14  1  0  0  0  0
 41 15  1  0  0  0  0
 42 17  1  0  0  0  0
 44 19  1  0  0  0  0
 45 20  1  0  0  0  0
 48 25  1  0  0  0  0
 49 25  1  0  0  0  0
 52 26  1  0  0  0  0
M  END
>  <Pose>
1

>  <Score>
-5.36

$$$$
