
 OpenBabel03232204043D

 50 53  0  0  1  0  0  0  0  0999 V2000
   15.8370  -52.9000   39.4110 B   0  0  0  0  0  0  0  0  0  0  0  0
   15.9590  -54.5540   38.4540 C   0  0  0  0  0  0  0  0  0  0  0  0
   15.2350  -55.6400   38.8900 C   0  0  0  0  0  0  0  0  0  0  0  0
   15.3040  -56.8590   38.2140 C   0  0  0  0  0  0  0  0  0  0  0  0
   16.1350  -56.9170   37.0920 C   0  0  0  0  0  0  0  0  0  0  0  0
   16.8550  -55.8500   36.6540 C   0  0  0  0  0  0  0  0  0  0  0  0
   16.7740  -54.6490   37.3390 C   0  0  0  0  0  0  0  0  0  0  0  0
   16.1980  -58.1820   36.3320 C   0  0  1  0  0  0  0  0  0  0  0  0
   15.0800  -58.2770   35.4040 N   0  0  0  0  0  0  0  0  0  0  0  0
   13.7760  -57.6850   35.6800 C   0  0  0  0  0  0  0  0  0  0  0  0
   12.7110  -58.1560   34.7590 C   0  0  0  0  0  0  0  0  0  0  0  0
   12.6160  -59.6560   34.6440 C   0  0  0  0  0  0  0  0  0  0  0  0
   13.4030  -60.0300   33.4010 C   0  0  0  0  0  0  0  0  0  0  0  0
   14.8100  -59.7600   33.4480 C   0  0  0  0  0  0  0  0  0  0  0  0
   15.5340  -59.0070   34.3070 C   0  0  0  0  0  0  0  0  0  0  0  0
   16.9270  -58.8700   34.1480 N   0  0  0  0  0  4  0  0  0  0  0  0
   17.3360  -58.2530   35.3760 C   0  0  0  0  0  0  0  0  0  0  0  0
   17.1140  -58.0150   33.0190 C   0  0  0  0  0  0  0  0  0  0  0  0
   17.6580  -58.5020   31.8430 C   0  0  0  0  0  0  0  0  0  0  0  0
   17.8710  -57.5740   30.8320 C   0  0  0  0  0  0  0  0  0  0  0  0
   17.5750  -56.2270   30.9400 C   0  0  0  0  0  0  0  0  0  0  0  0
   17.0220  -55.7780   32.1570 C   0  0  0  0  0  0  0  0  0  0  0  0
   16.8200  -56.6890   33.1290 C   0  0  0  0  0  0  0  0  0  0  0  0
   17.9510  -59.8260   31.7240 O   0  0  0  0  0  0  0  0  0  0  0  0
   16.9430  -60.7960   31.6010 C   0  0  0  0  0  0  0  0  0  0  0  0
   16.1120  -59.2500   37.1870 O   0  0  0  0  0  0  0  0  0  0  0  0
   14.5840  -55.5900   39.7640 H   0  0  0  0  0  0  0  0  0  0  0  0
   14.7030  -57.6680   38.5820 H   0  0  0  0  0  0  0  0  0  0  0  0
   17.5080  -55.9110   35.7660 H   0  0  0  0  0  0  0  0  0  0  0  0
   17.3620  -53.7920   36.9810 H   0  0  0  0  0  0  0  0  0  0  0  0
   13.4970  -57.9890   36.7130 H   0  0  0  0  0  0  0  0  0  0  0  0
   13.8140  -56.5680   35.5490 H   0  0  0  0  0  0  0  0  0  0  0  0
   11.7200  -57.8190   35.1710 H   0  0  0  0  0  0  0  0  0  0  0  0
   12.8540  -57.6520   33.7800 H   0  0  0  0  0  0  0  0  0  0  0  0
   11.5410  -59.9680   34.4240 H   0  0  0  0  0  0  0  0  0  0  0  0
   13.0200  -60.1820   35.5310 H   0  0  0  0  0  0  0  0  0  0  0  0
   12.9140  -59.4690   32.5430 H   0  0  0  0  0  0  0  0  0  0  0  0
   13.2140  -61.1220   33.2070 H   0  0  0  0  0  0  0  0  0  0  0  0
   15.4010  -60.2350   32.6810 H   0  0  0  0  0  0  0  0  0  0  0  0
   17.4410  -59.7740   34.0390 H   0  0  0  0  0  0  0  0  0  0  0  0
   17.8280  -57.2670   35.2160 H   0  0  0  0  0  0  0  0  0  0  0  0
   18.1280  -58.8750   35.8260 H   0  0  0  0  0  0  0  0  0  0  0  0
   18.3050  -57.9810   29.9220 H   0  0  0  0  0  0  0  0  0  0  0  0
   17.7430  -55.5180   30.1490 H   0  0  0  0  0  0  0  0  0  0  0  0
   16.7990  -54.7390   32.2550 H   0  0  0  0  0  0  0  0  0  0  0  0
   16.3990  -56.2690   34.0680 H   0  0  0  0  0  0  0  0  0  0  0  0
   16.1810  -60.6330   32.3950 H   0  0  0  0  0  0  0  0  0  0  0  0
   16.4820  -60.6880   30.6100 H   0  0  0  0  0  0  0  0  0  0  0  0
   17.4190  -61.8150   31.7320 H   0  0  0  0  0  0  0  0  0  0  0  0
   15.9020  -60.1010   36.7490 H   0  0  0  0  0  0  0  0  0  0  0  0
  2  3  1  0  0  0  0
  2  1  1  0  0  0  0
  3 27  1  0  0  0  0
  4 28  1  0  0  0  0
  4  3  2  0  0  0  0
  5  4  1  0  0  0  0
  6  5  2  0  0  0  0
  6  7  1  0  0  0  0
  7  2  2  0  0  0  0
  8  5  1  0  0  0  0
  8 26  1  1  0  0  0
  9 10  1  0  0  0  0
  9  8  1  0  0  0  0
 10 31  1  0  0  0  0
 11 33  1  0  0  0  0
 11 10  1  0  0  0  0
 12 11  1  0  0  0  0
 12 36  1  0  0  0  0
 13 14  1  0  0  0  0
 13 12  1  0  0  0  0
 14 15  2  0  0  0  0
 15  9  1  0  0  0  0
 16 15  1  0  0  0  0
 16 17  1  0  0  0  0
 17 42  1  0  0  0  0
 17  8  1  0  0  0  0
 18 23  1  0  0  0  0
 18 16  1  0  0  0  0
 19 18  2  0  0  0  0
 20 21  2  0  0  0  0
 20 19  1  0  0  0  0
 21 22  1  0  0  0  0
 22 45  1  0  0  0  0
 22 23  2  0  0  0  0
 23 46  1  0  0  0  0
 24 19  1  0  0  0  0
 25 24  1  0  0  0  0
 25 49  1  0  0  0  0
 25 47  1  0  0  0  0
 29  6  1  0  0  0  0
 30  7  1  0  0  0  0
 32 10  1  0  0  0  0
 34 11  1  0  0  0  0
 35 12  1  0  0  0  0
 37 13  1  0  0  0  0
 38 13  1  0  0  0  0
 39 14  1  0  0  0  0
 40 16  1  0  0  0  0
 41 17  1  0  0  0  0
 43 20  1  0  0  0  0
 44 21  1  0  0  0  0
 48 25  1  0  0  0  0
 50 26  1  0  0  0  0
M  END
>  <Pose>
1

>  <Score>
-5.05

$$$$
