
 OpenBabel03232204043D

 50 53  0  0  1  0  0  0  0  0999 V2000
   17.4840  -53.3830   38.9170 B   0  0  0  0  0  0  0  0  0  0  0  0
   17.4180  -54.4910   37.3590 C   0  0  0  0  0  0  0  0  0  0  0  0
   16.5150  -55.5280   37.2600 C   0  0  0  0  0  0  0  0  0  0  0  0
   16.4850  -56.3230   36.1210 C   0  0  0  0  0  0  0  0  0  0  0  0
   17.3230  -56.1200   35.0760 C   0  0  0  0  0  0  0  0  0  0  0  0
   18.2500  -55.0610   35.1720 C   0  0  0  0  0  0  0  0  0  0  0  0
   18.2700  -54.2820   36.3010 C   0  0  0  0  0  0  0  0  0  0  0  0
   17.4060  -56.8730   33.8260 C   0  0  2  0  0  0  0  0  0  0  0  0
   16.3640  -57.8050   33.5370 N   0  0  0  0  0  0  0  0  0  0  0  0
   14.9650  -57.5440   33.3890 C   0  0  0  0  0  0  0  0  0  0  0  0
   14.0250  -58.4550   34.0790 C   0  0  0  0  0  0  0  0  0  0  0  0
   14.6100  -59.5960   34.8300 C   0  0  0  0  0  0  0  0  0  0  0  0
   15.1520  -60.6820   33.9000 C   0  0  0  0  0  0  0  0  0  0  0  0
   16.5520  -60.2860   33.5530 C   0  0  0  0  0  0  0  0  0  0  0  0
   17.0600  -59.0740   33.4010 C   0  0  0  0  0  0  0  0  0  0  0  0
   18.4220  -58.8140   33.0850 N   0  0  0  0  0  4  0  0  0  0  0  0
   18.6840  -57.7080   33.9590 C   0  0  0  0  0  0  0  0  0  0  0  0
   18.5250  -58.4920   31.7230 C   0  0  0  0  0  0  0  0  0  0  0  0
   19.7480  -58.0670   31.1730 C   0  0  0  0  0  0  0  0  0  0  0  0
   19.8800  -57.7420   29.8500 C   0  0  0  0  0  0  0  0  0  0  0  0
   18.8050  -57.8210   28.9910 C   0  0  0  0  0  0  0  0  0  0  0  0
   17.6020  -58.2330   29.5030 C   0  0  0  0  0  0  0  0  0  0  0  0
   17.4690  -58.5600   30.8370 C   0  0  0  0  0  0  0  0  0  0  0  0
   18.9500  -57.4850   27.6320 O   0  0  0  0  0  0  0  0  0  0  0  0
   17.8150  -57.2920   26.8310 C   0  0  0  0  0  0  0  0  0  0  0  0
   17.5630  -55.9120   32.8080 O   0  0  0  0  0  0  0  0  0  0  0  0
   15.8240  -55.7480   38.0480 H   0  0  0  0  0  0  0  0  0  0  0  0
   15.7830  -57.1380   36.0480 H   0  0  0  0  0  0  0  0  0  0  0  0
   18.9510  -54.8450   34.3650 H   0  0  0  0  0  0  0  0  0  0  0  0
   18.9740  -53.4650   36.3920 H   0  0  0  0  0  0  0  0  0  0  0  0
   14.7980  -56.4610   33.6620 H   0  0  0  0  0  0  0  0  0  0  0  0
   14.6490  -57.5490   32.2950 H   0  0  0  0  0  0  0  0  0  0  0  0
   13.2130  -58.8640   33.4280 H   0  0  0  0  0  0  0  0  0  0  0  0
   13.4570  -57.8420   34.8450 H   0  0  0  0  0  0  0  0  0  0  0  0
   15.3860  -59.2880   35.5650 H   0  0  0  0  0  0  0  0  0  0  0  0
   13.7980  -60.0800   35.4160 H   0  0  0  0  0  0  0  0  0  0  0  0
   15.2240  -61.6080   34.5410 H   0  0  0  0  0  0  0  0  0  0  0  0
   14.5080  -60.7970   33.0340 H   0  0  0  0  0  0  0  0  0  0  0  0
   17.2410  -61.1100   33.4080 H   0  0  0  0  0  0  0  0  0  0  0  0
   18.9790  -59.6680   33.3390 H   0  0  0  0  0  0  0  0  0  0  0  0
   19.5940  -57.1560   33.7820 H   0  0  0  0  0  0  0  0  0  0  0  0
   18.7130  -58.1090   35.0040 H   0  0  0  0  0  0  0  0  0  0  0  0
   20.5580  -58.0170   31.8680 H   0  0  0  0  0  0  0  0  0  0  0  0
   20.8280  -57.4170   29.4410 H   0  0  0  0  0  0  0  0  0  0  0  0
   16.7410  -58.2990   28.8190 H   0  0  0  0  0  0  0  0  0  0  0  0
   16.4860  -58.8870   31.1950 H   0  0  0  0  0  0  0  0  0  0  0  0
   17.0530  -56.6390   27.3040 H   0  0  0  0  0  0  0  0  0  0  0  0
   17.3830  -58.2880   26.5850 H   0  0  0  0  0  0  0  0  0  0  0  0
   18.0960  -56.8090   25.8800 H   0  0  0  0  0  0  0  0  0  0  0  0
   16.6860  -55.4540   32.7520 H   0  0  0  0  0  0  0  0  0  0  0  0
  2  1  1  0  0  0  0
  3  2  1  0  0  0  0
  3 27  1  0  0  0  0
  4  3  2  0  0  0  0
  5  6  2  0  0  0  0
  5  4  1  0  0  0  0
  6  7  1  0  0  0  0
  7 30  1  0  0  0  0
  7  2  2  0  0  0  0
  8 26  1  6  0  0  0
  8 17  1  0  0  0  0
  8  5  1  0  0  0  0
  9  8  1  0  0  0  0
 10  9  1  0  0  0  0
 10 31  1  0  0  0  0
 10 11  1  0  0  0  0
 11 12  1  0  0  0  0
 11 34  1  0  0  0  0
 12 36  1  0  0  0  0
 12 35  1  0  0  0  0
 13 37  1  0  0  0  0
 13 12  1  0  0  0  0
 14 13  1  0  0  0  0
 15  9  1  0  0  0  0
 15 14  2  0  0  0  0
 16 40  1  0  0  0  0
 16 15  1  0  0  0  0
 16 17  1  0  0  0  0
 17 42  1  0  0  0  0
 18 16  1  0  0  0  0
 19 18  1  0  0  0  0
 19 43  1  0  0  0  0
 20 19  2  0  0  0  0
 21 22  2  0  0  0  0
 21 20  1  0  0  0  0
 22 23  1  0  0  0  0
 23 46  1  0  0  0  0
 23 18  2  0  0  0  0
 24 21  1  0  0  0  0
 25 47  1  0  0  0  0
 25 24  1  0  0  0  0
 28  4  1  0  0  0  0
 29  6  1  0  0  0  0
 32 10  1  0  0  0  0
 33 11  1  0  0  0  0
 38 13  1  0  0  0  0
 39 14  1  0  0  0  0
 41 17  1  0  0  0  0
 44 20  1  0  0  0  0
 45 22  1  0  0  0  0
 48 25  1  0  0  0  0
 49 25  1  0  0  0  0
 50 26  1  0  0  0  0
M  END
>  <Pose>
1

>  <Score>
-5.38

$$$$
