
 OpenBabel03232204043D

 47 50  0  0  1  0  0  0  0  0999 V2000
   19.9510  -54.9970   31.0520 B   0  0  0  0  0  0  0  0  0  0  0  0
   18.8980  -56.1730   32.1240 C   0  0  0  0  0  0  0  0  0  0  0  0
   18.9970  -57.5470   32.0080 C   0  0  0  0  0  0  0  0  0  0  0  0
   18.2290  -58.3820   32.7930 C   0  0  0  0  0  0  0  0  0  0  0  0
   17.3290  -57.9130   33.7260 C   0  0  0  0  0  0  0  0  0  0  0  0
   17.2360  -56.5310   33.8350 C   0  0  0  0  0  0  0  0  0  0  0  0
   18.0030  -55.6870   33.0520 C   0  0  0  0  0  0  0  0  0  0  0  0
   16.5440  -58.8470   34.5290 C   0  0  2  0  0  0  0  0  0  0  0  0
   15.1330  -58.5540   34.5940 N   0  0  0  0  0  0  0  0  0  0  0  0
   14.1560  -57.9310   33.7120 C   0  0  0  0  0  0  0  0  0  0  0  0
   12.7720  -58.4320   33.8620 C   0  0  0  0  0  0  0  0  0  0  0  0
   12.5930  -59.5890   34.8130 C   0  0  0  0  0  0  0  0  0  0  0  0
   13.4790  -59.5260   35.9720 C   0  0  0  0  0  0  0  0  0  0  0  0
   14.6970  -59.0280   35.8590 C   0  0  0  0  0  0  0  0  0  0  0  0
   15.7590  -58.8390   36.7880 N   0  0  0  0  0  4  0  0  0  0  0  0
   16.9430  -58.8590   35.9870 C   0  0  0  0  0  0  0  0  0  0  0  0
   15.5360  -57.6690   37.5020 C   0  0  0  0  0  0  0  0  0  0  0  0
   14.6750  -57.6520   38.5730 C   0  0  0  0  0  0  0  0  0  0  0  0
   14.4500  -56.4670   39.2930 C   0  0  0  0  0  0  0  0  0  0  0  0
   15.0730  -55.2970   38.9600 C   0  0  0  0  0  0  0  0  0  0  0  0
   15.9540  -55.3180   37.8630 C   0  0  0  0  0  0  0  0  0  0  0  0
   16.1530  -56.4980   37.1760 C   0  0  0  0  0  0  0  0  0  0  0  0
   14.8970  -54.0870   39.6280 O   0  0  0  0  0  0  0  0  0  0  0  0
   15.8430  -53.0790   39.7740 C   0  0  0  0  0  0  0  0  0  0  0  0
   16.6720  -60.1320   33.9620 O   0  0  0  0  0  0  0  0  0  0  0  0
   19.7030  -57.9220   31.2760 H   0  0  0  0  0  0  0  0  0  0  0  0
   18.3250  -59.4660   32.6830 H   0  0  0  0  0  0  0  0  0  0  0  0
   16.5430  -56.1300   34.5520 H   0  0  0  0  0  0  0  0  0  0  0  0
   17.9340  -54.6030   33.1350 H   0  0  0  0  0  0  0  0  0  0  0  0
   14.4690  -58.0590   32.6390 H   0  0  0  0  0  0  0  0  0  0  0  0
   14.1620  -56.8110   33.8480 H   0  0  0  0  0  0  0  0  0  0  0  0
   12.3130  -58.6630   32.8640 H   0  0  0  0  0  0  0  0  0  0  0  0
   12.1140  -57.6110   34.2730 H   0  0  0  0  0  0  0  0  0  0  0  0
   11.5430  -59.6770   35.1580 H   0  0  0  0  0  0  0  0  0  0  0  0
   12.7970  -60.5220   34.2200 H   0  0  0  0  0  0  0  0  0  0  0  0
   13.1360  -59.8870   36.9210 H   0  0  0  0  0  0  0  0  0  0  0  0
   15.7400  -59.6690   37.4410 H   0  0  0  0  0  0  0  0  0  0  0  0
   17.4830  -59.8180   36.1580 H   0  0  0  0  0  0  0  0  0  0  0  0
   17.6670  -58.0610   36.2330 H   0  0  0  0  0  0  0  0  0  0  0  0
   14.1410  -58.5260   38.9090 H   0  0  0  0  0  0  0  0  0  0  0  0
   13.7680  -56.4680   40.1380 H   0  0  0  0  0  0  0  0  0  0  0  0
   16.4490  -54.3890   37.6000 H   0  0  0  0  0  0  0  0  0  0  0  0
   16.8270  -56.4870   36.3480 H   0  0  0  0  0  0  0  0  0  0  0  0
   16.7960  -53.2670   39.2940 H   0  0  0  0  0  0  0  0  0  0  0  0
   15.9350  -52.7910   40.8490 H   0  0  0  0  0  0  0  0  0  0  0  0
   15.4340  -52.1500   39.2780 H   0  0  0  0  0  0  0  0  0  0  0  0
   16.3340  -60.7620   34.6450 H   0  0  0  0  0  0  0  0  0  0  0  0
  1  2  1  0  0  0  0
  2  7  1  0  0  0  0
  3  2  2  0  0  0  0
  3  4  1  0  0  0  0
  4  5  2  0  0  0  0
  5  6  1  0  0  0  0
  5  8  1  0  0  0  0
  6 28  1  0  0  0  0
  7 29  1  0  0  0  0
  7  6  2  0  0  0  0
  8 25  1  6  0  0  0
  8  9  1  0  0  0  0
  8 16  1  0  0  0  0
  9 14  1  0  0  0  0
 10 31  1  0  0  0  0
 10 11  1  0  0  0  0
 10  9  1  0  0  0  0
 11 33  1  0  0  0  0
 11 12  1  0  0  0  0
 12 34  1  0  0  0  0
 12 13  1  0  0  0  0
 13 36  1  0  0  0  0
 14 13  2  0  0  0  0
 14 15  1  0  0  0  0
 15 37  1  0  0  0  0
 15 17  1  0  0  0  0
 16 38  1  0  0  0  0
 16 39  1  0  0  0  0
 16 15  1  0  0  0  0
 17 18  1  0  0  0  0
 18 40  1  0  0  0  0
 18 19  2  0  0  0  0
 19 41  1  0  0  0  0
 20 19  1  0  0  0  0
 20 23  1  0  0  0  0
 21 20  2  0  0  0  0
 22 17  2  0  0  0  0
 22 21  1  0  0  0  0
 23 24  1  0  0  0  0
 24 45  1  0  0  0  0
 25 47  1  0  0  0  0
 26  3  1  0  0  0  0
 27  4  1  0  0  0  0
 30 10  1  0  0  0  0
 32 11  1  0  0  0  0
 35 12  1  0  0  0  0
 42 21  1  0  0  0  0
 43 22  1  0  0  0  0
 44 24  1  0  0  0  0
 46 24  1  0  0  0  0
M  END
>  <Pose>
1

>  <Score>
-5.15

$$$$
