
 OpenBabel03232204043D

 53 56  0  0  1  0  0  0  0  0999 V2000
   21.2420  -56.5080   27.3950 B   0  0  0  0  0  0  0  0  0  0  0  0
   20.4820  -56.0030   29.0800 C   0  0  0  0  0  0  0  0  0  0  0  0
   19.3030  -56.5540   29.5290 C   0  0  0  0  0  0  0  0  0  0  0  0
   18.7570  -56.1680   30.7450 C   0  0  0  0  0  0  0  0  0  0  0  0
   19.3630  -55.2160   31.5630 C   0  0  0  0  0  0  0  0  0  0  0  0
   20.5270  -54.7020   31.0730 C   0  0  0  0  0  0  0  0  0  0  0  0
   21.0980  -55.0710   29.8580 C   0  0  0  0  0  0  0  0  0  0  0  0
   18.7540  -54.8570   32.7470 N   0  0  0  0  0  4  0  0  0  0  0  0
   19.5890  -54.6080   33.8840 C   0  0  1  0  0  0  0  0  0  0  0  0
   19.9020  -56.0460   34.2980 C   0  0  0  0  0  0  0  0  0  0  0  0
   18.6200  -56.7350   34.0820 N   0  0  0  0  0  0  0  0  0  0  0  0
   18.3480  -57.9810   34.7080 C   0  0  0  0  0  0  0  0  0  0  0  0
   16.9800  -58.5350   34.4450 C   0  0  0  0  0  0  0  0  0  0  0  0
   15.9510  -57.4690   34.7050 C   0  0  0  0  0  0  0  0  0  0  0  0
   15.5840  -56.9230   33.3170 C   0  0  0  0  0  0  0  0  0  0  0  0
   16.6070  -55.9380   32.9150 C   0  0  0  0  0  0  0  0  0  0  0  0
   17.8840  -55.8730   33.2160 C   0  0  0  0  0  0  0  0  0  0  0  0
   20.6690  -53.8020   33.7090 O   0  0  0  0  0  0  0  0  0  0  0  0
   18.8190  -54.0360   35.0260 C   0  0  0  0  0  0  0  0  0  0  0  0
   17.5850  -54.4520   35.4260 C   0  0  0  0  0  0  0  0  0  0  0  0
   16.9120  -53.8720   36.5220 C   0  0  0  0  0  0  0  0  0  0  0  0
   17.4850  -52.8490   37.2380 C   0  0  0  0  0  0  0  0  0  0  0  0
   18.7290  -52.4200   36.8430 C   0  0  0  0  0  0  0  0  0  0  0  0
   19.3820  -52.9880   35.7730 C   0  0  0  0  0  0  0  0  0  0  0  0
   16.8260  -52.2670   38.3330 O   0  0  0  0  0  0  0  0  0  0  0  0
   16.5330  -53.0060   39.4950 C   0  0  0  0  0  0  0  0  0  0  0  0
   15.4770  -54.0410   39.2670 C   0  0  0  0  0  0  0  0  0  0  0  0
   18.8470  -57.2920   28.8830 H   0  0  0  0  0  0  0  0  0  0  0  0
   17.8330  -56.6490   31.0170 H   0  0  0  0  0  0  0  0  0  0  0  0
   21.0640  -53.9670   31.6130 H   0  0  0  0  0  0  0  0  0  0  0  0
   22.0460  -54.5970   29.5460 H   0  0  0  0  0  0  0  0  0  0  0  0
   18.2440  -53.9430   32.5340 H   0  0  0  0  0  0  0  0  0  0  0  0
   20.7180  -56.5130   33.7810 H   0  0  0  0  0  0  0  0  0  0  0  0
   20.0910  -56.1590   35.3760 H   0  0  0  0  0  0  0  0  0  0  0  0
   19.0880  -58.7310   34.3590 H   0  0  0  0  0  0  0  0  0  0  0  0
   18.4270  -57.8370   35.8340 H   0  0  0  0  0  0  0  0  0  0  0  0
   16.9630  -58.9090   33.4020 H   0  0  0  0  0  0  0  0  0  0  0  0
   16.8070  -59.3400   35.1840 H   0  0  0  0  0  0  0  0  0  0  0  0
   15.0480  -57.8240   35.2240 H   0  0  0  0  0  0  0  0  0  0  0  0
   16.3420  -56.5960   35.2660 H   0  0  0  0  0  0  0  0  0  0  0  0
   15.5500  -57.7310   32.5600 H   0  0  0  0  0  0  0  0  0  0  0  0
   14.5620  -56.4910   33.3860 H   0  0  0  0  0  0  0  0  0  0  0  0
   16.2110  -55.1470   32.3070 H   0  0  0  0  0  0  0  0  0  0  0  0
   20.8880  -53.6400   32.7730 H   0  0  0  0  0  0  0  0  0  0  0  0
   17.0930  -55.2370   34.8870 H   0  0  0  0  0  0  0  0  0  0  0  0
   15.9330  -54.2500   36.7850 H   0  0  0  0  0  0  0  0  0  0  0  0
   19.1670  -51.6030   37.4380 H   0  0  0  0  0  0  0  0  0  0  0  0
   20.3630  -52.6290   35.4690 H   0  0  0  0  0  0  0  0  0  0  0  0
   16.1160  -52.2620   40.2400 H   0  0  0  0  0  0  0  0  0  0  0  0
   17.4390  -53.4050   40.0090 H   0  0  0  0  0  0  0  0  0  0  0  0
   14.9580  -53.8970   38.2890 H   0  0  0  0  0  0  0  0  0  0  0  0
   14.7040  -54.0880   40.0590 H   0  0  0  0  0  0  0  0  0  0  0  0
   15.9820  -55.0490   39.3170 H   0  0  0  0  0  0  0  0  0  0  0  0
  1  2  1  0  0  0  0
  2  3  2  0  0  0  0
  2  7  1  0  0  0  0
  3  4  1  0  0  0  0
  4 29  1  0  0  0  0
  4  5  2  0  0  0  0
  5  8  1  0  0  0  0
  6  5  1  0  0  0  0
  6 30  1  0  0  0  0
  7  6  2  0  0  0  0
  8 17  1  0  0  0  0
  8  9  1  0  0  0  0
  9 18  1  6  0  0  0
  9 10  1  0  0  0  0
  9 19  1  0  0  0  0
 10 34  1  0  0  0  0
 11 10  1  0  0  0  0
 11 12  1  0  0  0  0
 12 36  1  0  0  0  0
 13 14  1  0  0  0  0
 13 12  1  0  0  0  0
 13 38  1  0  0  0  0
 14 39  1  0  0  0  0
 14 40  1  0  0  0  0
 15 42  1  0  0  0  0
 15 14  1  0  0  0  0
 16 17  2  0  0  0  0
 16 15  1  0  0  0  0
 17 11  1  0  0  0  0
 19 20  2  0  0  0  0
 19 24  1  0  0  0  0
 20 21  1  0  0  0  0
 21 46  1  0  0  0  0
 21 22  2  0  0  0  0
 22 25  1  0  0  0  0
 23 22  1  0  0  0  0
 23 47  1  0  0  0  0
 24 23  2  0  0  0  0
 25 26  1  0  0  0  0
 26 50  1  0  0  0  0
 26 49  1  0  0  0  0
 27 53  1  0  0  0  0
 27 26  1  0  0  0  0
 27 52  1  0  0  0  0
 28  3  1  0  0  0  0
 31  7  1  0  0  0  0
 32  8  1  0  0  0  0
 33 10  1  0  0  0  0
 35 12  1  0  0  0  0
 37 13  1  0  0  0  0
 41 15  1  0  0  0  0
 43 16  1  0  0  0  0
 44 18  1  0  0  0  0
 45 20  1  0  0  0  0
 48 24  1  0  0  0  0
 51 27  1  0  0  0  0
M  END
>  <Pose>
1

>  <Score>
-4.53

$$$$
