
 OpenBabel03232204043D

 55 58  0  0  1  0  0  0  0  0999 V2000
   19.2870  -54.0560   37.6750 B   0  0  0  0  0  0  0  0  0  0  0  0
   17.4250  -54.4570   37.8780 C   0  0  0  0  0  0  0  0  0  0  0  0
   16.8940  -55.6590   37.4540 C   0  0  0  0  0  0  0  0  0  0  0  0
   15.5550  -55.9430   37.6020 C   0  0  0  0  0  0  0  0  0  0  0  0
   14.7740  -54.9700   38.1900 C   0  0  0  0  0  0  0  0  0  0  0  0
   15.2990  -53.7660   38.6150 C   0  0  0  0  0  0  0  0  0  0  0  0
   16.6400  -53.4860   38.4650 C   0  0  0  0  0  0  0  0  0  0  0  0
   17.1970  -52.1830   38.9280 C   0  0  0  0  0  0  0  0  0  0  0  0
   13.4220  -55.2800   38.3290 O   0  0  0  0  0  0  0  0  0  0  0  0
   12.7890  -56.3180   37.6600 C   0  0  0  0  0  0  0  0  0  0  0  0
   13.6320  -57.5180   37.3860 C   0  0  2  0  0  0  0  0  0  0  0  0
   15.0700  -57.2420   37.1260 C   0  0  2  0  0  0  0  0  0  0  0  0
   15.8900  -58.2270   37.7290 O   0  0  0  0  0  0  0  0  0  0  0  0
   13.0870  -58.1060   36.1580 N   0  0  0  0  0  4  0  0  0  0  0  0
   12.8860  -59.5110   36.2450 C   0  0  0  0  0  0  0  0  0  0  0  0
   11.9860  -59.8900   35.0590 C   0  0  0  0  0  0  0  0  0  0  0  0
   12.7160  -59.6170   33.9150 O   0  0  0  0  0  0  0  0  0  0  0  0
   13.0630  -58.2770   33.7920 C   0  0  0  0  0  0  0  0  0  0  0  0
   13.8810  -57.8090   35.0050 C   0  0  0  0  0  0  0  0  0  0  0  0
   13.5040  -58.5800   38.4600 C   0  0  0  0  0  0  0  0  0  0  0  0
   12.5270  -58.2780   39.4600 N   0  0  0  0  0  4  0  0  0  0  0  0
   11.3790  -59.1640   39.4100 C   0  0  0  0  0  0  0  0  0  0  0  0
   10.9710  -59.6380   40.7970 C   0  0  0  0  0  0  0  0  0  0  0  0
   11.9570  -60.3970   41.4060 O   0  0  0  0  0  0  0  0  0  0  0  0
   13.2280  -59.9450   41.0630 C   0  0  0  0  0  0  0  0  0  0  0  0
   13.1080  -58.4580   40.8010 C   0  0  0  0  0  0  0  0  0  0  0  0
   17.5560  -56.3990   36.9930 H   0  0  0  0  0  0  0  0  0  0  0  0
   14.6660  -53.0190   39.0740 H   0  0  0  0  0  0  0  0  0  0  0  0
   17.0340  -51.3920   38.1620 H   0  0  0  0  0  0  0  0  0  0  0  0
   16.7230  -51.8410   39.8610 H   0  0  0  0  0  0  0  0  0  0  0  0
   18.2960  -52.2960   39.0390 H   0  0  0  0  0  0  0  0  0  0  0  0
   11.8820  -56.6010   38.2410 H   0  0  0  0  0  0  0  0  0  0  0  0
   12.3790  -55.8870   36.6980 H   0  0  0  0  0  0  0  0  0  0  0  0
   15.3330  -57.3150   36.0290 H   0  0  0  0  0  0  0  0  0  0  0  0
   15.4120  -58.7370   38.4160 H   0  0  0  0  0  0  0  0  0  0  0  0
   12.1560  -57.6500   36.0250 H   0  0  0  0  0  0  0  0  0  0  0  0
   12.3820  -59.8700   37.1400 H   0  0  0  0  0  0  0  0  0  0  0  0
   13.8500  -60.0600   36.0450 H   0  0  0  0  0  0  0  0  0  0  0  0
   11.7990  -60.9600   35.1160 H   0  0  0  0  0  0  0  0  0  0  0  0
   11.0840  -59.2610   35.1590 H   0  0  0  0  0  0  0  0  0  0  0  0
   13.6250  -58.1630   32.8540 H   0  0  0  0  0  0  0  0  0  0  0  0
   12.1180  -57.6960   33.8250 H   0  0  0  0  0  0  0  0  0  0  0  0
   14.8270  -58.3840   34.9490 H   0  0  0  0  0  0  0  0  0  0  0  0
   14.0740  -56.7310   34.8520 H   0  0  0  0  0  0  0  0  0  0  0  0
   13.2980  -59.5830   38.0540 H   0  0  0  0  0  0  0  0  0  0  0  0
   14.5120  -58.6510   38.9620 H   0  0  0  0  0  0  0  0  0  0  0  0
   12.1630  -57.3130   39.4480 H   0  0  0  0  0  0  0  0  0  0  0  0
   11.6680  -60.0790   38.8480 H   0  0  0  0  0  0  0  0  0  0  0  0
   10.4800  -58.6770   38.9790 H   0  0  0  0  0  0  0  0  0  0  0  0
   10.5750  -58.8280   41.4260 H   0  0  0  0  0  0  0  0  0  0  0  0
   10.1060  -60.3360   40.6230 H   0  0  0  0  0  0  0  0  0  0  0  0
   13.5280  -60.4970   40.1460 H   0  0  0  0  0  0  0  0  0  0  0  0
   13.8980  -60.1580   41.9110 H   0  0  0  0  0  0  0  0  0  0  0  0
   12.4300  -57.9880   41.5430 H   0  0  0  0  0  0  0  0  0  0  0  0
   14.0840  -57.9340   40.8860 H   0  0  0  0  0  0  0  0  0  0  0  0
  1  2  1  0  0  0  0
  2  7  1  0  0  0  0
  3  4  1  0  0  0  0
  3  2  2  0  0  0  0
  4  5  2  0  0  0  0
  5  9  1  0  0  0  0
  5  6  1  0  0  0  0
  6 28  1  0  0  0  0
  7  6  2  0  0  0  0
  7  8  1  0  0  0  0
  8 31  1  0  0  0  0
  8 30  1  0  0  0  0
 10 32  1  0  0  0  0
 10  9  1  0  0  0  0
 11 10  1  0  0  0  0
 11 20  1  1  0  0  0
 12 34  1  6  0  0  0
 12 11  1  0  0  0  0
 12  4  1  0  0  0  0
 12 13  1  0  0  0  0
 13 35  1  0  0  0  0
 14 15  1  0  0  0  0
 14 11  1  0  0  0  0
 15 37  1  0  0  0  0
 16 39  1  0  0  0  0
 16 40  1  0  0  0  0
 16 15  1  0  0  0  0
 17 16  1  0  0  0  0
 18 42  1  0  0  0  0
 18 17  1  0  0  0  0
 18 19  1  0  0  0  0
 19 14  1  0  0  0  0
 20 46  1  0  0  0  0
 20 21  1  0  0  0  0
 21 26  1  0  0  0  0
 22 21  1  0  0  0  0
 22 23  1  0  0  0  0
 23 24  1  0  0  0  0
 23 50  1  0  0  0  0
 25 24  1  0  0  0  0
 25 53  1  0  0  0  0
 26 55  1  0  0  0  0
 26 25  1  0  0  0  0
 26 54  1  0  0  0  0
 27  3  1  0  0  0  0
 29  8  1  0  0  0  0
 33 10  1  0  0  0  0
 36 14  1  0  0  0  0
 38 15  1  0  0  0  0
 41 18  1  0  0  0  0
 43 19  1  0  0  0  0
 44 19  1  0  0  0  0
 45 20  1  0  0  0  0
 47 21  1  0  0  0  0
 48 22  1  0  0  0  0
 49 22  1  0  0  0  0
 51 23  1  0  0  0  0
 52 25  1  0  0  0  0
M  END
>  <Pose>
1

>  <Score>
-4.58

$$$$
