
 OpenBabel03232204043D

 66 69  0  0  1  0  0  0  0  0999 V2000
   16.6260  -61.9410   27.0100 B   0  0  0  0  0  0  0  0  0  0  0  0
   17.3810  -62.3960   28.7120 C   0  0  0  0  0  0  0  0  0  0  0  0
   16.9130  -61.7880   29.8520 C   0  0  0  0  0  0  0  0  0  0  0  0
   17.4390  -62.0920   31.1190 C   0  0  0  0  0  0  0  0  0  0  0  0
   18.4470  -63.0310   31.1560 C   0  0  0  0  0  0  0  0  0  0  0  0
   18.9350  -63.6550   30.0280 C   0  0  0  0  0  0  0  0  0  0  0  0
   18.4030  -63.3400   28.7980 C   0  0  0  0  0  0  0  0  0  0  0  0
   18.8600  -63.9570   27.5260 C   0  0  0  0  0  0  0  0  0  0  0  0
   20.3320  -64.9520   30.1100 B   0  0  0  0  0  0  0  0  0  0  0  0
   16.9180  -61.4250   32.2940 C   0  0  0  0  0  0  0  0  0  0  0  0
   17.3010  -61.7600   33.4200 O   0  0  0  0  0  0  0  0  0  0  0  0
   15.9290  -60.3450   32.1360 C   0  0  1  0  0  0  0  0  0  0  0  0
   15.0860  -60.6850   30.9260 C   0  0  0  0  0  0  0  0  0  0  0  0
   15.8930  -60.8450   29.7740 O   0  0  0  0  0  0  0  0  0  0  0  0
   15.0840  -60.1180   33.3520 C   0  0  0  0  0  0  0  0  0  0  0  0
   13.8690  -59.4290   33.1450 N   0  0  0  0  0  4  0  0  0  0  0  0
   12.8490  -59.9660   33.9970 C   0  0  0  0  0  0  0  0  0  0  0  0
   13.0030  -59.6550   35.4430 C   0  0  2  0  0  0  0  0  0  0  0  0
   14.0430  -58.6670   35.8050 C   0  0  0  0  0  0  0  0  0  0  0  0
   14.4600  -57.7210   34.7470 C   0  0  0  0  0  0  0  0  0  0  0  0
   13.9050  -58.0130   33.3840 C   0  0  0  0  0  0  0  0  0  0  0  0
   13.3360  -60.9660   36.1650 C   0  0  0  0  0  0  0  0  0  0  0  0
   16.7240  -59.0950   31.8170 C   0  0  0  0  0  0  0  0  0  0  0  0
   18.0810  -59.1120   32.2440 N   0  0  0  0  0  4  0  0  0  0  0  0
   18.2150  -58.4350   33.5320 C   0  0  0  0  0  0  0  0  0  0  0  0
   18.7430  -57.0370   33.3970 C   0  0  1  0  0  0  0  0  0  0  0  0
   18.0880  -56.3600   32.2140 C   0  0  0  0  0  0  0  0  0  0  0  0
   18.5550  -57.0560   30.9730 C   0  0  0  0  0  0  0  0  0  0  0  0
   18.9970  -58.4510   31.3400 C   0  0  0  0  0  0  0  0  0  0  0  0
   18.2880  -56.2630   34.6420 C   0  0  0  0  0  0  0  0  0  0  0  0
   18.8900  -63.3050   32.1100 H   0  0  0  0  0  0  0  0  0  0  0  0
   18.0030  -64.5210   27.0950 H   0  0  0  0  0  0  0  0  0  0  0  0
   19.7650  -64.5550   27.6400 H   0  0  0  0  0  0  0  0  0  0  0  0
   19.0290  -63.1000   26.8140 H   0  0  0  0  0  0  0  0  0  0  0  0
   14.5440  -61.6320   31.0690 H   0  0  0  0  0  0  0  0  0  0  0  0
   14.2900  -59.9080   30.7560 H   0  0  0  0  0  0  0  0  0  0  0  0
   14.8450  -61.1250   33.7550 H   0  0  0  0  0  0  0  0  0  0  0  0
   15.7190  -59.6330   34.1220 H   0  0  0  0  0  0  0  0  0  0  0  0
   13.5450  -59.5620   32.1530 H   0  0  0  0  0  0  0  0  0  0  0  0
   11.8670  -59.5670   33.6040 H   0  0  0  0  0  0  0  0  0  0  0  0
   12.7940  -61.0590   33.8120 H   0  0  0  0  0  0  0  0  0  0  0  0
   12.0070  -59.3550   35.8420 H   0  0  0  0  0  0  0  0  0  0  0  0
   13.6550  -58.0650   36.6780 H   0  0  0  0  0  0  0  0  0  0  0  0
   14.9630  -59.1690   36.2300 H   0  0  0  0  0  0  0  0  0  0  0  0
   15.5850  -57.6440   34.6790 H   0  0  0  0  0  0  0  0  0  0  0  0
   14.1480  -56.6610   34.9880 H   0  0  0  0  0  0  0  0  0  0  0  0
   14.3910  -57.4050   32.6310 H   0  0  0  0  0  0  0  0  0  0  0  0
   12.8250  -57.6750   33.4090 H   0  0  0  0  0  0  0  0  0  0  0  0
   12.9010  -60.9680   37.1950 H   0  0  0  0  0  0  0  0  0  0  0  0
   13.0090  -61.8180   35.5550 H   0  0  0  0  0  0  0  0  0  0  0  0
   14.4370  -61.0200   36.2580 H   0  0  0  0  0  0  0  0  0  0  0  0
   16.1850  -58.2550   32.3420 H   0  0  0  0  0  0  0  0  0  0  0  0
   16.6040  -58.8460   30.7250 H   0  0  0  0  0  0  0  0  0  0  0  0
   18.4040  -60.0730   32.3880 H   0  0  0  0  0  0  0  0  0  0  0  0
   18.8690  -58.9930   34.2220 H   0  0  0  0  0  0  0  0  0  0  0  0
   17.2160  -58.3490   34.0370 H   0  0  0  0  0  0  0  0  0  0  0  0
   19.8380  -56.9690   33.3830 H   0  0  0  0  0  0  0  0  0  0  0  0
   18.4040  -55.2980   32.2300 H   0  0  0  0  0  0  0  0  0  0  0  0
   17.0030  -56.3950   32.3600 H   0  0  0  0  0  0  0  0  0  0  0  0
   17.8520  -57.0550   30.1440 H   0  0  0  0  0  0  0  0  0  0  0  0
   19.4800  -56.5260   30.6050 H   0  0  0  0  0  0  0  0  0  0  0  0
   19.9810  -58.3960   31.8910 H   0  0  0  0  0  0  0  0  0  0  0  0
   19.2060  -58.9870   30.4130 H   0  0  0  0  0  0  0  0  0  0  0  0
   18.1910  -56.9610   35.5050 H   0  0  0  0  0  0  0  0  0  0  0  0
   17.3440  -55.7120   34.4480 H   0  0  0  0  0  0  0  0  0  0  0  0
   19.0390  -55.4970   34.9260 H   0  0  0  0  0  0  0  0  0  0  0  0
  1  2  1  0  0  0  0
  2  7  2  0  0  0  0
  2  3  1  0  0  0  0
  3  4  2  0  0  0  0
  4  5  1  0  0  0  0
  4 10  1  0  0  0  0
  5 31  1  0  0  0  0
  6  9  1  0  0  0  0
  6  5  2  0  0  0  0
  7  6  1  0  0  0  0
  8 33  1  0  0  0  0
  8  7  1  0  0  0  0
 10 11  2  0  0  0  0
 12 23  1  6  0  0  0
 12 10  1  0  0  0  0
 12 15  1  0  0  0  0
 13 35  1  0  0  0  0
 13 12  1  0  0  0  0
 14  3  1  0  0  0  0
 14 13  1  0  0  0  0
 15 37  1  0  0  0  0
 15 38  1  0  0  0  0
 16 15  1  0  0  0  0
 16 21  1  0  0  0  0
 16 17  1  0  0  0  0
 17 18  1  0  0  0  0
 18 19  1  0  0  0  0
 18 42  1  1  0  0  0
 18 22  1  0  0  0  0
 19 44  1  0  0  0  0
 19 43  1  0  0  0  0
 20 46  1  0  0  0  0
 20 19  1  0  0  0  0
 21 48  1  0  0  0  0
 21 20  1  0  0  0  0
 22 51  1  0  0  0  0
 22 49  1  0  0  0  0
 23 24  1  0  0  0  0
 23 52  1  0  0  0  0
 24 54  1  0  0  0  0
 24 25  1  0  0  0  0
 25 56  1  0  0  0  0
 25 55  1  0  0  0  0
 26 57  1  6  0  0  0
 26 25  1  0  0  0  0
 26 30  1  0  0  0  0
 27 58  1  0  0  0  0
 27 59  1  0  0  0  0
 27 26  1  0  0  0  0
 28 29  1  0  0  0  0
 28 27  1  0  0  0  0
 29 62  1  0  0  0  0
 29 24  1  0  0  0  0
 30 66  1  0  0  0  0
 30 64  1  0  0  0  0
 32  8  1  0  0  0  0
 34  8  1  0  0  0  0
 36 13  1  0  0  0  0
 39 16  1  0  0  0  0
 40 17  1  0  0  0  0
 41 17  1  0  0  0  0
 45 20  1  0  0  0  0
 47 21  1  0  0  0  0
 50 22  1  0  0  0  0
 53 23  1  0  0  0  0
 60 28  1  0  0  0  0
 61 28  1  0  0  0  0
 63 29  1  0  0  0  0
 65 30  1  0  0  0  0
M  END
>  <Pose>
1

>  <Score>
-4.79

$$$$
