
 OpenBabel03232204043D

 60 63  0  0  0  0  0  0  0  0999 V2000
   20.9090  -60.1430   31.0770 B   0  0  0  0  0  0  0  0  0  0  0  0
   20.1160  -58.4670   30.7250 C   0  0  0  0  0  0  0  0  0  0  0  0
   18.9690  -58.1410   31.4070 C   0  0  0  0  0  0  0  0  0  0  0  0
   18.2910  -56.9240   31.2300 C   0  0  0  0  0  0  0  0  0  0  0  0
   18.8060  -55.9980   30.3140 C   0  0  0  0  0  0  0  0  0  0  0  0
   19.9560  -56.3380   29.6370 C   0  0  0  0  0  0  0  0  0  0  0  0
   20.6080  -57.5430   29.8260 C   0  0  0  0  0  0  0  0  0  0  0  0
   21.8610  -57.8850   29.0710 C   0  0  0  0  0  0  0  0  0  0  0  0
   20.6570  -55.0770   28.3920 B   0  0  0  0  0  0  0  0  0  0  0  0
   17.0790  -56.6380   31.9740 C   0  0  0  0  0  0  0  0  0  0  0  0
   16.2260  -55.9190   31.3960 O   0  0  0  0  0  0  0  0  0  0  0  0
   16.9640  -57.2140   33.3270 C   0  0  0  0  0  0  0  0  0  0  0  0
   17.1690  -58.7570   32.9780 C   0  0  0  0  0  0  0  0  0  0  0  0
   18.3720  -58.9770   32.3330 O   0  0  0  0  0  0  0  0  0  0  0  0
   15.6700  -57.1330   33.9740 C   0  0  0  0  0  0  0  0  0  0  0  0
   14.9630  -58.1250   34.6350 N   0  0  0  0  0  4  0  0  0  0  0  0
   13.5560  -58.1360   34.7270 C   0  0  0  0  0  0  0  0  0  0  0  0
   13.0280  -58.8420   35.9690 C   0  0  0  0  0  0  0  0  0  0  0  0
   13.4000  -58.1150   37.2220 C   0  0  0  0  0  0  0  0  0  0  0  0
   14.7480  -57.4930   37.0220 C   0  0  0  0  0  0  0  0  0  0  0  0
   15.5090  -58.2760   36.0020 C   0  0  0  0  0  0  0  0  0  0  0  0
   18.1210  -56.7990   34.1540 C   0  0  0  0  0  0  0  0  0  0  0  0
   18.3360  -55.4490   34.4690 N   0  0  0  0  0  4  0  0  0  0  0  0
   17.6630  -55.1620   35.7430 C   0  0  0  0  0  0  0  0  0  0  0  0
   17.5850  -53.6750   36.0230 C   0  0  0  0  0  0  0  0  0  0  0  0
   19.0390  -53.2130   36.2070 C   0  0  0  0  0  0  0  0  0  0  0  0
   19.6950  -53.5120   34.8790 C   0  0  0  0  0  0  0  0  0  0  0  0
   19.7110  -55.0400   34.7040 C   0  0  0  0  0  0  0  0  0  0  0  0
   18.2830  -55.0720   30.1810 H   0  0  0  0  0  0  0  0  0  0  0  0
   22.6580  -57.2240   29.5010 H   0  0  0  0  0  0  0  0  0  0  0  0
   22.0830  -58.9460   29.1830 H   0  0  0  0  0  0  0  0  0  0  0  0
   21.7010  -57.5590   28.0230 H   0  0  0  0  0  0  0  0  0  0  0  0
   16.3380  -58.9530   32.2700 H   0  0  0  0  0  0  0  0  0  0  0  0
   17.0080  -59.3350   33.8780 H   0  0  0  0  0  0  0  0  0  0  0  0
   14.9230  -56.6500   33.2440 H   0  0  0  0  0  0  0  0  0  0  0  0
   15.7540  -56.2520   34.7260 H   0  0  0  0  0  0  0  0  0  0  0  0
   15.2260  -59.1240   34.2430 H   0  0  0  0  0  0  0  0  0  0  0  0
   13.1260  -58.6640   33.8380 H   0  0  0  0  0  0  0  0  0  0  0  0
   13.0660  -57.1600   34.7530 H   0  0  0  0  0  0  0  0  0  0  0  0
   13.4750  -59.8470   35.9930 H   0  0  0  0  0  0  0  0  0  0  0  0
   11.9400  -58.9480   35.9390 H   0  0  0  0  0  0  0  0  0  0  0  0
   13.3910  -58.7350   38.1270 H   0  0  0  0  0  0  0  0  0  0  0  0
   12.6300  -57.2950   37.3370 H   0  0  0  0  0  0  0  0  0  0  0  0
   15.3090  -57.5920   37.9760 H   0  0  0  0  0  0  0  0  0  0  0  0
   14.7160  -56.4070   36.8160 H   0  0  0  0  0  0  0  0  0  0  0  0
   16.6120  -58.0580   35.9940 H   0  0  0  0  0  0  0  0  0  0  0  0
   15.4070  -59.3390   36.2720 H   0  0  0  0  0  0  0  0  0  0  0  0
   19.0730  -57.2470   33.7640 H   0  0  0  0  0  0  0  0  0  0  0  0
   18.0710  -57.3460   35.1840 H   0  0  0  0  0  0  0  0  0  0  0  0
   17.9570  -54.7230   33.8260 H   0  0  0  0  0  0  0  0  0  0  0  0
   18.3390  -55.5780   36.5460 H   0  0  0  0  0  0  0  0  0  0  0  0
   16.7050  -55.6390   35.8660 H   0  0  0  0  0  0  0  0  0  0  0  0
   17.1120  -53.1530   35.1740 H   0  0  0  0  0  0  0  0  0  0  0  0
   17.0670  -53.5460   36.9700 H   0  0  0  0  0  0  0  0  0  0  0  0
   19.0880  -52.1610   36.4850 H   0  0  0  0  0  0  0  0  0  0  0  0
   19.4950  -53.9040   36.9480 H   0  0  0  0  0  0  0  0  0  0  0  0
   19.0200  -53.1430   34.0560 H   0  0  0  0  0  0  0  0  0  0  0  0
   20.6880  -53.0820   34.7490 H   0  0  0  0  0  0  0  0  0  0  0  0
   20.3910  -55.1810   33.8520 H   0  0  0  0  0  0  0  0  0  0  0  0
   20.0990  -55.4500   35.6500 H   0  0  0  0  0  0  0  0  0  0  0  0
  2  1  1  0  0  0  0
  2  3  1  0  0  0  0
  3 14  1  0  0  0  0
  4  3  2  0  0  0  0
  4 10  1  0  0  0  0
  5  4  1  0  0  0  0
  6  7  1  0  0  0  0
  6  5  2  0  0  0  0
  7  2  2  0  0  0  0
  8 31  1  0  0  0  0
  8 30  1  0  0  0  0
  8  7  1  0  0  0  0
  9  6  1  0  0  0  0
 10 12  1  0  0  0  0
 11 10  2  0  0  0  0
 12 15  1  0  0  0  0
 12 22  1  0  0  0  0
 13 12  1  0  0  0  0
 13 34  1  0  0  0  0
 14 13  1  0  0  0  0
 15 16  1  0  0  0  0
 15 36  1  0  0  0  0
 16 17  1  0  0  0  0
 16 21  1  0  0  0  0
 17 39  1  0  0  0  0
 17 18  1  0  0  0  0
 18 40  1  0  0  0  0
 18 19  1  0  0  0  0
 19 43  1  0  0  0  0
 19 42  1  0  0  0  0
 20 19  1  0  0  0  0
 20 44  1  0  0  0  0
 21 47  1  0  0  0  0
 21 20  1  0  0  0  0
 22 23  1  0  0  0  0
 22 49  1  0  0  0  0
 23 28  1  0  0  0  0
 23 24  1  0  0  0  0
 24 52  1  0  0  0  0
 24 25  1  0  0  0  0
 24 51  1  0  0  0  0
 25 26  1  0  0  0  0
 25 54  1  0  0  0  0
 26 55  1  0  0  0  0
 26 56  1  0  0  0  0
 27 26  1  0  0  0  0
 28 27  1  0  0  0  0
 28 60  1  0  0  0  0
 29  5  1  0  0  0  0
 32  8  1  0  0  0  0
 33 13  1  0  0  0  0
 35 15  1  0  0  0  0
 37 16  1  0  0  0  0
 38 17  1  0  0  0  0
 41 18  1  0  0  0  0
 45 20  1  0  0  0  0
 46 21  1  0  0  0  0
 48 22  1  0  0  0  0
 50 23  1  0  0  0  0
 53 25  1  0  0  0  0
 57 27  1  0  0  0  0
 58 27  1  0  0  0  0
 59 28  1  0  0  0  0
M  END
>  <Pose>
1

>  <Score>
-4.99

$$$$
