
 OpenBabel03232204043D

 41 44  0  0  0  0  0  0  0  0999 V2000
   12.4540  -63.4020   39.1730 F   0  0  0  0  0  0  0  0  0  0  0  0
   11.3690  -62.5800   39.1570 C   0  0  0  0  0  0  0  0  0  0  0  0
   11.4890  -61.3570   38.4780 C   0  0  0  0  0  0  0  0  0  0  0  0
   10.4080  -60.5320   38.4600 C   0  0  0  0  0  0  0  0  0  0  0  0
    9.1860  -60.8530   39.0890 C   0  0  0  0  0  0  0  0  0  0  0  0
    9.1080  -62.0610   39.7440 C   0  0  0  0  0  0  0  0  0  0  0  0
   10.1920  -62.9130   39.7770 C   0  0  0  0  0  0  0  0  0  0  0  0
    7.9650  -62.4270   40.3680 F   0  0  0  0  0  0  0  0  0  0  0  0
   12.7120  -61.0550   37.8570 N   0  0  0  0  0  0  0  0  0  0  0  0
   12.9250  -59.9970   36.9780 C   0  0  0  0  0  0  0  0  0  0  0  0
   12.1080  -59.6290   36.1280 O   0  0  0  0  0  0  0  0  0  0  0  0
   14.2300  -59.2300   37.0430 C   0  0  0  0  0  0  0  0  0  0  0  0
   14.0750  -58.1100   37.9440 N   0  0  0  0  0  0  0  0  0  0  0  0
   13.1600  -58.0650   38.8960 N   0  0  0  0  0  0  0  0  0  0  0  0
   13.3200  -56.9010   39.4990 N   0  0  0  0  0  0  0  0  0  0  0  0
   14.3300  -56.2000   38.9430 C   0  0  0  0  0  0  0  0  0  0  0  0
   14.8020  -56.9800   37.9550 C   0  0  0  0  0  0  0  0  0  0  0  0
   15.8290  -56.2530   37.4000 C   0  0  0  0  0  0  0  0  0  0  0  0
   16.5380  -56.6400   36.4330 O   0  0  0  0  0  0  0  0  0  0  0  0
   15.9930  -55.0650   38.0170 N   0  0  0  0  0  0  0  0  0  0  0  0
   15.0600  -55.0250   38.9820 C   0  0  0  0  0  0  0  0  0  0  0  0
   14.8850  -54.0710   39.7840 O   0  0  0  0  0  0  0  0  0  0  0  0
   16.9780  -54.0730   37.6780 C   0  0  0  0  0  0  0  0  0  0  0  0
   18.2200  -54.4460   37.2020 C   0  0  0  0  0  0  0  0  0  0  0  0
   19.1950  -53.5310   36.8650 C   0  0  0  0  0  0  0  0  0  0  0  0
   18.8850  -52.1940   37.0220 C   0  0  0  0  0  0  0  0  0  0  0  0
   17.6570  -51.7610   37.4940 C   0  0  0  0  0  0  0  0  0  0  0  0
   16.7270  -52.7290   37.8140 C   0  0  0  0  0  0  0  0  0  0  0  0
   20.2580  -50.9370   36.5460 B   0  0  0  0  0  0  0  0  0  0  0  0
   10.4120  -59.5880   37.9680 H   0  0  0  0  0  0  0  0  0  0  0  0
    8.3510  -60.1720   39.0530 H   0  0  0  0  0  0  0  0  0  0  0  0
   10.1200  -63.8740   40.3020 H   0  0  0  0  0  0  0  0  0  0  0  0
   13.5700  -61.6730   38.0610 H   0  0  0  0  0  0  0  0  0  0  0  0
   14.4780  -58.8520   36.0240 H   0  0  0  0  0  0  0  0  0  0  0  0
   15.0080  -59.9380   37.3360 H   0  0  0  0  0  0  0  0  0  0  0  0
   12.4370  -58.8030   39.1370 H   0  0  0  0  0  0  0  0  0  0  0  0
   12.7180  -56.5940   40.3070 H   0  0  0  0  0  0  0  0  0  0  0  0
   18.4050  -55.5060   37.1000 H   0  0  0  0  0  0  0  0  0  0  0  0
   20.1770  -53.8490   36.4870 H   0  0  0  0  0  0  0  0  0  0  0  0
   17.4830  -50.7030   37.5930 H   0  0  0  0  0  0  0  0  0  0  0  0
   15.7640  -52.3960   38.1850 H   0  0  0  0  0  0  0  0  0  0  0  0
  2  1  1  0  0  0  0
  2  7  1  0  0  0  0
  3  2  2  0  0  0  0
  4  3  1  0  0  0  0
  4  5  2  0  0  0  0
  5  6  1  0  0  0  0
  6  7  2  0  0  0  0
  6  8  1  0  0  0  0
  7 32  1  0  0  0  0
  9 33  1  0  0  0  0
  9  3  1  0  0  0  0
 10 12  1  0  0  0  0
 10  9  1  0  0  0  0
 11 10  2  0  0  0  0
 12 35  1  0  0  0  0
 12 13  1  0  0  0  0
 13 17  1  0  0  0  0
 13 14  1  0  0  0  0
 14 36  1  0  0  0  0
 14 15  1  0  0  0  0
 15 37  1  0  0  0  0
 16 21  1  0  0  0  0
 16 15  1  0  0  0  0
 17 16  2  0  0  0  0
 18 17  1  0  0  0  0
 18 20  1  0  0  0  0
 19 18  2  0  0  0  0
 20 21  1  0  0  0  0
 21 22  2  0  0  0  0
 23 28  1  0  0  0  0
 23 20  1  0  0  0  0
 24 23  2  0  0  0  0
 25 26  2  0  0  0  0
 25 24  1  0  0  0  0
 26 27  1  0  0  0  0
 27 40  1  0  0  0  0
 27 28  2  0  0  0  0
 28 41  1  0  0  0  0
 29 26  1  0  0  0  0
 30  4  1  0  0  0  0
 31  5  1  0  0  0  0
 34 12  1  0  0  0  0
 38 24  1  0  0  0  0
 39 25  1  0  0  0  0
M  END
>  <Pose>
1

>  <Score>
-8.02

$$$$
