
 OpenBabel03232204043D

 53 56  0  0  1  0  0  0  0  0999 V2000
   20.8330  -54.0090   33.3890 F   0  0  0  0  0  0  0  0  0  0  0  0
   19.9610  -54.1230   34.3780 C   0  0  0  0  0  0  0  0  0  0  0  0
   19.1010  -55.1980   34.4740 C   0  0  0  0  0  0  0  0  0  0  0  0
   18.2560  -55.1750   35.5560 C   0  0  0  0  0  0  0  0  0  0  0  0
   18.2280  -54.1680   36.5090 C   0  0  0  0  0  0  0  0  0  0  0  0
   19.0940  -53.1200   36.3790 C   0  0  0  0  0  0  0  0  0  0  0  0
   19.9510  -53.0980   35.3280 C   0  0  0  0  0  0  0  0  0  0  0  0
   19.1010  -56.3130   33.5130 C   0  0  2  0  0  0  0  0  0  0  0  0
   18.8090  -55.9320   32.1400 N   0  0  0  0  0  0  0  0  0  0  0  0
   17.4370  -55.4970   32.2490 C   0  0  0  0  0  0  0  0  0  0  0  0
   16.8370  -54.6130   31.5820 O   0  0  0  0  0  0  0  0  0  0  0  0
   16.7730  -56.2830   33.3270 C   0  0  0  0  0  0  0  0  0  0  0  0
   15.6280  -56.2700   33.7770 O   0  0  0  0  0  0  0  0  0  0  0  0
   17.8820  -57.1680   33.7890 C   0  0  0  0  0  0  0  0  0  0  0  0
   17.7720  -58.3690   34.3020 C   0  0  0  0  0  0  0  0  0  0  0  0
   18.9370  -59.0580   34.6950 O   0  0  0  0  0  0  0  0  0  0  0  0
   16.4800  -59.0160   34.4770 C   0  0  0  0  0  0  0  0  0  0  0  0
   16.1380  -60.0610   33.6480 C   0  0  0  0  0  0  0  0  0  0  0  0
   14.9150  -60.7030   33.7400 C   0  0  0  0  0  0  0  0  0  0  0  0
   13.9990  -60.2980   34.6870 C   0  0  0  0  0  0  0  0  0  0  0  0
   14.3150  -59.2670   35.5170 C   0  0  0  0  0  0  0  0  0  0  0  0
   15.5600  -58.6220   35.4130 C   0  0  0  0  0  0  0  0  0  0  0  0
   12.2870  -61.1740   34.8390 B   0  0  0  0  0  0  0  0  0  0  0  0
   19.5360  -55.9280   30.9450 C   0  0  0  0  0  0  0  0  0  0  0  0
   20.1790  -54.6800   30.4560 C   0  0  0  0  0  0  0  0  0  0  0  0
   21.3580  -54.8950   29.6650 N   0  0  0  0  0  4  0  0  0  0  0  0
   21.0200  -54.7340   28.2660 C   0  0  0  0  0  0  0  0  0  0  0  0
   22.2610  -54.8350   27.3980 C   0  0  0  0  0  0  0  0  0  0  0  0
   22.8480  -56.0700   27.5930 O   0  0  0  0  0  0  0  0  0  0  0  0
   23.1450  -56.2630   28.9390 C   0  0  0  0  0  0  0  0  0  0  0  0
   21.8520  -56.2840   29.7650 C   0  0  0  0  0  0  0  0  0  0  0  0
   17.5760  -55.9720   35.7020 H   0  0  0  0  0  0  0  0  0  0  0  0
   17.5520  -54.1760   37.3510 H   0  0  0  0  0  0  0  0  0  0  0  0
   19.0870  -52.3230   37.1140 H   0  0  0  0  0  0  0  0  0  0  0  0
   20.6310  -52.2570   35.2400 H   0  0  0  0  0  0  0  0  0  0  0  0
   19.9780  -56.9260   33.6530 H   0  0  0  0  0  0  0  0  0  0  0  0
   16.8110  -60.4360   32.8770 H   0  0  0  0  0  0  0  0  0  0  0  0
   14.6200  -61.5240   33.1040 H   0  0  0  0  0  0  0  0  0  0  0  0
   13.5990  -58.9450   36.2620 H   0  0  0  0  0  0  0  0  0  0  0  0
   15.7880  -57.8070   36.0600 H   0  0  0  0  0  0  0  0  0  0  0  0
   18.8830  -56.2840   30.0970 H   0  0  0  0  0  0  0  0  0  0  0  0
   20.3770  -56.6980   30.9140 H   0  0  0  0  0  0  0  0  0  0  0  0
   19.4310  -54.2070   29.7570 H   0  0  0  0  0  0  0  0  0  0  0  0
   20.3070  -53.9040   31.2470 H   0  0  0  0  0  0  0  0  0  0  0  0
   22.1810  -54.3310   29.9620 H   0  0  0  0  0  0  0  0  0  0  0  0
   20.3910  -55.6350   28.0020 H   0  0  0  0  0  0  0  0  0  0  0  0
   20.3970  -53.8670   28.0520 H   0  0  0  0  0  0  0  0  0  0  0  0
   22.9200  -53.9790   27.6570 H   0  0  0  0  0  0  0  0  0  0  0  0
   21.9260  -54.7660   26.3470 H   0  0  0  0  0  0  0  0  0  0  0  0
   23.7200  -55.3540   29.2660 H   0  0  0  0  0  0  0  0  0  0  0  0
   23.7410  -57.1620   29.1270 H   0  0  0  0  0  0  0  0  0  0  0  0
   21.1140  -56.9610   29.3320 H   0  0  0  0  0  0  0  0  0  0  0  0
   22.1200  -56.4670   30.8150 H   0  0  0  0  0  0  0  0  0  0  0  0
  1  2  1  0  0  0  0
  2  3  2  0  0  0  0
  2  7  1  0  0  0  0
  3  4  1  0  0  0  0
  4 32  1  0  0  0  0
  4  5  2  0  0  0  0
  5 33  1  0  0  0  0
  6  5  1  0  0  0  0
  6 34  1  0  0  0  0
  7  6  2  0  0  0  0
  8 36  1  1  0  0  0
  8 14  1  0  0  0  0
  8  3  1  0  0  0  0
  9 10  1  0  0  0  0
  9  8  1  0  0  0  0
 10 12  1  0  0  0  0
 11 10  2  0  0  0  0
 12 13  2  0  0  0  0
 12 14  1  0  0  0  0
 14 15  2  0  0  0  0
 15 17  1  0  0  0  0
 15 16  1  0  0  0  0
 17 22  1  0  0  0  0
 18 19  1  0  0  0  0
 18 17  2  0  0  0  0
 19 20  2  0  0  0  0
 20 23  1  0  0  0  0
 20 21  1  0  0  0  0
 21 39  1  0  0  0  0
 22 21  2  0  0  0  0
 22 40  1  0  0  0  0
 24  9  1  0  0  0  0
 25 24  1  0  0  0  0
 25 44  1  0  0  0  0
 26 31  1  0  0  0  0
 26 45  1  0  0  0  0
 26 25  1  0  0  0  0
 27 26  1  0  0  0  0
 28 29  1  0  0  0  0
 28 48  1  0  0  0  0
 28 27  1  0  0  0  0
 29 30  1  0  0  0  0
 30 51  1  0  0  0  0
 30 50  1  0  0  0  0
 30 31  1  0  0  0  0
 31 53  1  0  0  0  0
 35  7  1  0  0  0  0
 37 18  1  0  0  0  0
 38 19  1  0  0  0  0
 41 24  1  0  0  0  0
 42 24  1  0  0  0  0
 43 25  1  0  0  0  0
 46 27  1  0  0  0  0
 47 27  1  0  0  0  0
 49 28  1  0  0  0  0
 52 31  1  0  0  0  0
M  END
>  <Pose>
1

>  <Score>
-6.02

$$$$
