
 OpenBabel03232204043D

 41 44  0  0  0  0  0  0  0  0999 V2000
   13.8570  -61.1830   31.8050 F   0  0  0  0  0  0  0  0  0  0  0  0
   14.9630  -60.5480   32.2890 C   0  0  0  0  0  0  0  0  0  0  0  0
   14.7950  -59.6200   33.3290 C   0  0  0  0  0  0  0  0  0  0  0  0
   15.9360  -59.0090   33.7810 C   0  0  0  0  0  0  0  0  0  0  0  0
   17.1700  -59.3070   33.2260 C   0  0  0  0  0  0  0  0  0  0  0  0
   17.3290  -60.2080   32.2160 C   0  0  0  0  0  0  0  0  0  0  0  0
   16.1930  -60.8300   31.7510 C   0  0  0  0  0  0  0  0  0  0  0  0
   13.4890  -59.3750   33.8410 N   0  0  0  0  0  0  0  0  0  0  0  0
   13.1380  -58.9330   35.1130 C   0  0  0  0  0  0  0  0  0  0  0  0
   12.2110  -58.1290   35.3080 O   0  0  0  0  0  0  0  0  0  0  0  0
   13.8630  -59.4050   36.3260 C   0  0  0  0  0  0  0  0  0  0  0  0
   13.6930  -58.4440   37.4000 N   0  0  0  0  0  0  0  0  0  0  0  0
   12.8330  -58.4650   38.3950 N   0  0  0  0  0  0  0  0  0  0  0  0
   12.9980  -57.4010   39.1680 N   0  0  0  0  0  0  0  0  0  0  0  0
   14.0050  -56.6610   38.6530 C   0  0  0  0  0  0  0  0  0  0  0  0
   14.4160  -57.3060   37.5810 C   0  0  0  0  0  0  0  0  0  0  0  0
   15.4500  -56.5500   37.0510 C   0  0  0  0  0  0  0  0  0  0  0  0
   16.0880  -56.8540   36.0210 O   0  0  0  0  0  0  0  0  0  0  0  0
   15.6690  -55.4490   37.7930 N   0  0  0  0  0  0  0  0  0  0  0  0
   14.7690  -55.5180   38.7910 C   0  0  0  0  0  0  0  0  0  0  0  0
   14.6340  -54.6810   39.7110 O   0  0  0  0  0  0  0  0  0  0  0  0
   16.6490  -54.4400   37.5530 C   0  0  0  0  0  0  0  0  0  0  0  0
   17.9370  -54.7680   37.1760 C   0  0  0  0  0  0  0  0  0  0  0  0
   18.8970  -53.8050   36.9390 C   0  0  0  0  0  0  0  0  0  0  0  0
   18.6070  -52.4630   37.0740 C   0  0  0  0  0  0  0  0  0  0  0  0
   17.3270  -52.1120   37.4510 C   0  0  0  0  0  0  0  0  0  0  0  0
   16.3820  -53.0910   37.6820 C   0  0  0  0  0  0  0  0  0  0  0  0
   19.9170  -51.1070   36.7540 B   0  0  0  0  0  0  0  0  0  0  0  0
   15.8950  -58.2910   34.5700 H   0  0  0  0  0  0  0  0  0  0  0  0
   18.0730  -58.8100   33.5970 H   0  0  0  0  0  0  0  0  0  0  0  0
   18.3140  -60.4050   31.8170 H   0  0  0  0  0  0  0  0  0  0  0  0
   16.3270  -61.5500   30.9430 H   0  0  0  0  0  0  0  0  0  0  0  0
   12.6700  -59.5490   33.1700 H   0  0  0  0  0  0  0  0  0  0  0  0
   14.9540  -59.4530   36.0640 H   0  0  0  0  0  0  0  0  0  0  0  0
   13.5300  -60.4170   36.6230 H   0  0  0  0  0  0  0  0  0  0  0  0
   12.1260  -59.2320   38.5300 H   0  0  0  0  0  0  0  0  0  0  0  0
   12.4450  -57.1700   40.0290 H   0  0  0  0  0  0  0  0  0  0  0  0
   18.1560  -55.8360   37.0710 H   0  0  0  0  0  0  0  0  0  0  0  0
   19.8960  -54.0760   36.6450 H   0  0  0  0  0  0  0  0  0  0  0  0
   17.1020  -51.0430   37.5570 H   0  0  0  0  0  0  0  0  0  0  0  0
   15.3790  -52.8230   37.9780 H   0  0  0  0  0  0  0  0  0  0  0  0
  1  2  1  0  0  0  0
  2  3  1  0  0  0  0
  3  4  2  0  0  0  0
  3  8  1  0  0  0  0
  4 29  1  0  0  0  0
  5 30  1  0  0  0  0
  5  4  1  0  0  0  0
  6  5  2  0  0  0  0
  7  6  1  0  0  0  0
  7  2  2  0  0  0  0
  8  9  1  0  0  0  0
  9 10  2  0  0  0  0
  9 11  1  0  0  0  0
 11 35  1  0  0  0  0
 11 12  1  0  0  0  0
 12 16  1  0  0  0  0
 12 13  1  0  0  0  0
 13 36  1  0  0  0  0
 13 14  1  0  0  0  0
 14 37  1  0  0  0  0
 15 20  1  0  0  0  0
 15 14  1  0  0  0  0
 16 15  2  0  0  0  0
 17 16  1  0  0  0  0
 17 19  1  0  0  0  0
 18 17  2  0  0  0  0
 19 20  1  0  0  0  0
 20 21  2  0  0  0  0
 22 27  1  0  0  0  0
 22 19  1  0  0  0  0
 23 22  2  0  0  0  0
 24 25  2  0  0  0  0
 24 23  1  0  0  0  0
 25 26  1  0  0  0  0
 26 40  1  0  0  0  0
 26 27  2  0  0  0  0
 27 41  1  0  0  0  0
 28 25  1  0  0  0  0
 31  6  1  0  0  0  0
 32  7  1  0  0  0  0
 33  8  1  0  0  0  0
 34 11  1  0  0  0  0
 38 23  1  0  0  0  0
 39 24  1  0  0  0  0
M  END
>  <Pose>
1

>  <Score>
-7.74

$$$$
