
 OpenBabel03232204043D

 39 42  0  0  1  0  0  0  0  0999 V2000
    9.7370  -60.0610   39.7340 I   0  0  0  0  0  0  0  0  0  0  0  0
   11.3190  -59.5310   38.4520 C   0  0  0  0  0  0  0  0  0  0  0  0
   11.5160  -60.2330   37.2620 C   0  0  0  0  0  0  0  0  0  0  0  0
   12.5370  -59.9200   36.3960 C   0  0  0  0  0  0  0  0  0  0  0  0
   13.3650  -58.8560   36.7820 C   0  0  0  0  0  0  0  0  0  0  0  0
   13.1640  -58.1730   37.9530 C   0  0  0  0  0  0  0  0  0  0  0  0
   12.1360  -58.5030   38.8050 C   0  0  0  0  0  0  0  0  0  0  0  0
   14.3100  -56.7340   38.4440 B   0  0  0  0  0  0  0  0  0  0  0  0
   12.7850  -60.6250   35.1110 C   0  0  2  0  0  0  0  0  0  0  0  0
   14.1950  -60.9390   35.0790 N   0  0  0  0  0  0  0  0  0  0  0  0
   15.1460  -59.8940   34.8490 C   0  0  0  0  0  0  0  0  0  0  0  0
   16.8240  -59.7000   35.2600 S   0  0  0  0  0  0  0  0  0  0  0  0
   17.1010  -58.1670   34.5800 C   0  0  0  0  0  0  0  0  0  0  0  0
   15.8970  -57.8470   34.0570 C   0  0  0  0  0  0  0  0  0  0  0  0
   14.8890  -58.7260   34.1910 C   0  0  0  0  0  0  0  0  0  0  0  0
   13.4730  -58.6650   33.7300 C   0  0  0  0  0  0  0  0  0  0  0  0
   13.0390  -57.6710   33.1000 O   0  0  0  0  0  0  0  0  0  0  0  0
   12.5770  -59.7260   33.9890 N   0  0  0  0  0  0  0  0  0  0  0  0
   15.8500  -56.4900   33.3650 C   0  0  0  0  0  0  0  0  0  0  0  0
   17.2420  -56.1180   32.9710 C   0  0  0  0  0  0  0  0  0  0  0  0
   17.9910  -55.9990   34.2310 N   0  0  0  0  0  4  0  0  0  0  0  0
   18.3460  -57.3650   34.5540 C   0  0  0  0  0  0  0  0  0  0  0  0
   19.1480  -55.1490   34.0760 C   0  0  0  0  0  0  0  0  0  0  0  0
   10.6620  -61.2680   36.9530 O   0  0  0  0  0  0  0  0  0  0  0  0
   14.1700  -58.6080   36.1040 H   0  0  0  0  0  0  0  0  0  0  0  0
   11.9680  -57.9590   39.7450 H   0  0  0  0  0  0  0  0  0  0  0  0
   12.1550  -61.5340   35.0150 H   0  0  0  0  0  0  0  0  0  0  0  0
   14.5700  -61.9040   35.2160 H   0  0  0  0  0  0  0  0  0  0  0  0
   11.7400  -59.8870   33.3730 H   0  0  0  0  0  0  0  0  0  0  0  0
   15.4800  -55.7780   34.1130 H   0  0  0  0  0  0  0  0  0  0  0  0
   15.1640  -56.5120   32.5120 H   0  0  0  0  0  0  0  0  0  0  0  0
   17.7050  -56.9010   32.3470 H   0  0  0  0  0  0  0  0  0  0  0  0
   17.2260  -55.1560   32.4620 H   0  0  0  0  0  0  0  0  0  0  0  0
   17.3440  -55.6610   34.9740 H   0  0  0  0  0  0  0  0  0  0  0  0
   19.0720  -57.7860   33.8300 H   0  0  0  0  0  0  0  0  0  0  0  0
   18.8640  -57.3360   35.5320 H   0  0  0  0  0  0  0  0  0  0  0  0
   20.0950  -55.7000   34.2020 H   0  0  0  0  0  0  0  0  0  0  0  0
   19.1050  -54.3950   34.9080 H   0  0  0  0  0  0  0  0  0  0  0  0
   19.1260  -54.5490   33.1420 H   0  0  0  0  0  0  0  0  0  0  0  0
  2  7  1  0  0  0  0
  2  1  1  0  0  0  0
  3  2  2  0  0  0  0
  4  5  2  0  0  0  0
  4  3  1  0  0  0  0
  5  6  1  0  0  0  0
  6  8  1  0  0  0  0
  6  7  2  0  0  0  0
  7 26  1  0  0  0  0
  9 27  1  6  0  0  0
  9  4  1  0  0  0  0
 10  9  1  0  0  0  0
 10 28  1  0  0  0  0
 11 10  1  0  0  0  0
 11 12  1  0  0  0  0
 13 12  1  0  0  0  0
 14 15  1  0  0  0  0
 14 13  2  0  0  0  0
 15 11  2  0  0  0  0
 16 18  1  0  0  0  0
 16 15  1  0  0  0  0
 17 16  2  0  0  0  0
 18  9  1  0  0  0  0
 19 14  1  0  0  0  0
 19 30  1  0  0  0  0
 20 19  1  0  0  0  0
 20 21  1  0  0  0  0
 21 22  1  0  0  0  0
 21 34  1  0  0  0  0
 22 13  1  0  0  0  0
 22 36  1  0  0  0  0
 23 37  1  0  0  0  0
 23 21  1  0  0  0  0
 23 38  1  0  0  0  0
 24  3  1  0  0  0  0
 25  5  1  0  0  0  0
 29 18  1  0  0  0  0
 31 19  1  0  0  0  0
 32 20  1  0  0  0  0
 33 20  1  0  0  0  0
 35 22  1  0  0  0  0
 39 23  1  0  0  0  0
M  END
>  <Pose>
1

>  <Score>
-6.17

$$$$
