
 OpenBabel03232204043D

 43 46  0  0  1  0  0  0  0  0999 V2000
   11.0780  -60.4310   41.7840 I   0  0  0  0  0  0  0  0  0  0  0  0
   11.7600  -60.1170   39.8130 C   0  0  0  0  0  0  0  0  0  0  0  0
   11.8100  -61.1770   38.9300 C   0  0  0  0  0  0  0  0  0  0  0  0
   12.2590  -60.9840   37.6250 C   0  0  0  0  0  0  0  0  0  0  0  0
   12.6380  -59.7260   37.2670 C   0  0  0  0  0  0  0  0  0  0  0  0
   12.5970  -58.6410   38.1350 C   0  0  0  0  0  0  0  0  0  0  0  0
   12.1540  -58.8500   39.4110 C   0  0  0  0  0  0  0  0  0  0  0  0
   13.0390  -57.3160   37.6210 C   0  0  2  0  0  0  0  0  0  0  0  0
   14.2400  -57.5750   36.8260 N   0  0  0  0  0  0  0  0  0  0  0  0
   15.3700  -56.6690   36.8650 C   0  0  0  0  0  0  0  0  0  0  0  0
   16.7610  -56.4940   35.8700 S   0  0  0  0  0  0  0  0  0  0  0  0
   17.5030  -55.1990   36.6740 C   0  0  0  0  0  0  0  0  0  0  0  0
   16.6460  -54.9300   37.7070 C   0  0  0  0  0  0  0  0  0  0  0  0
   15.5400  -55.6990   37.8000 C   0  0  0  0  0  0  0  0  0  0  0  0
   14.4600  -55.6100   38.8250 C   0  0  0  0  0  0  0  0  0  0  0  0
   14.4960  -54.7470   39.7540 O   0  0  0  0  0  0  0  0  0  0  0  0
   13.3740  -56.5050   38.7600 N   0  0  0  0  0  0  0  0  0  0  0  0
   17.1420  -53.7740   38.5690 C   0  0  0  0  0  0  0  0  0  0  0  0
   18.5790  -54.0170   38.9470 C   0  0  0  0  0  0  0  0  0  0  0  0
   19.3960  -54.4670   37.8700 N   0  0  0  0  0  4  0  0  0  0  0  0
   18.7380  -54.3370   36.5740 C   0  0  0  0  0  0  0  0  0  0  0  0
   19.6050  -55.9110   38.0570 C   0  0  0  0  0  0  0  0  0  0  0  0
   12.2880  -62.0870   36.7810 O   0  0  0  0  0  0  0  0  0  0  0  0
   12.3390  -61.8670   35.3840 C   0  0  0  0  0  0  0  0  0  0  0  0
   11.4170  -62.4400   39.3310 O   0  0  0  0  0  0  0  0  0  0  0  0
   12.9890  -59.5640   36.2510 H   0  0  0  0  0  0  0  0  0  0  0  0
   12.1240  -57.9980   40.0920 H   0  0  0  0  0  0  0  0  0  0  0  0
   12.2700  -56.8510   36.9760 H   0  0  0  0  0  0  0  0  0  0  0  0
   14.3210  -58.4080   36.2150 H   0  0  0  0  0  0  0  0  0  0  0  0
   12.7470  -56.6020   39.6010 H   0  0  0  0  0  0  0  0  0  0  0  0
   17.0110  -52.8490   38.0090 H   0  0  0  0  0  0  0  0  0  0  0  0
   16.5650  -53.7380   39.5100 H   0  0  0  0  0  0  0  0  0  0  0  0
   18.6820  -54.6690   39.8380 H   0  0  0  0  0  0  0  0  0  0  0  0
   18.9860  -53.0150   39.2740 H   0  0  0  0  0  0  0  0  0  0  0  0
   20.3420  -54.0040   37.8320 H   0  0  0  0  0  0  0  0  0  0  0  0
   19.4250  -54.7480   35.8220 H   0  0  0  0  0  0  0  0  0  0  0  0
   18.4850  -53.2750   36.4450 H   0  0  0  0  0  0  0  0  0  0  0  0
   18.6270  -56.3400   38.3560 H   0  0  0  0  0  0  0  0  0  0  0  0
   19.9230  -56.3630   37.0920 H   0  0  0  0  0  0  0  0  0  0  0  0
   20.3980  -56.1010   38.7970 H   0  0  0  0  0  0  0  0  0  0  0  0
   13.3700  -61.5010   35.1100 H   0  0  0  0  0  0  0  0  0  0  0  0
   11.6360  -61.0820   35.0470 H   0  0  0  0  0  0  0  0  0  0  0  0
   12.0870  -62.7840   34.8110 H   0  0  0  0  0  0  0  0  0  0  0  0
  2  1  1  0  0  0  0
  3 25  1  0  0  0  0
  3  2  2  0  0  0  0
  4  3  1  0  0  0  0
  5  4  2  0  0  0  0
  5  6  1  0  0  0  0
  6  7  2  0  0  0  0
  7  2  1  0  0  0  0
  7 27  1  0  0  0  0
  8 28  1  6  0  0  0
  8  6  1  0  0  0  0
  8 17  1  0  0  0  0
  9 10  1  0  0  0  0
  9  8  1  0  0  0  0
 10 14  2  0  0  0  0
 11 12  1  0  0  0  0
 11 10  1  0  0  0  0
 12 13  2  0  0  0  0
 13 14  1  0  0  0  0
 13 18  1  0  0  0  0
 14 15  1  0  0  0  0
 15 16  2  0  0  0  0
 17 15  1  0  0  0  0
 17 30  1  0  0  0  0
 18 19  1  0  0  0  0
 18 32  1  0  0  0  0
 19 34  1  0  0  0  0
 19 33  1  0  0  0  0
 20 22  1  0  0  0  0
 20 19  1  0  0  0  0
 21 12  1  0  0  0  0
 21 20  1  0  0  0  0
 22 38  1  0  0  0  0
 22 40  1  0  0  0  0
 23  4  1  0  0  0  0
 24 23  1  0  0  0  0
 26  5  1  0  0  0  0
 29  9  1  0  0  0  0
 31 18  1  0  0  0  0
 35 20  1  0  0  0  0
 36 21  1  0  0  0  0
 37 21  1  0  0  0  0
 39 22  1  0  0  0  0
 41 24  1  0  0  0  0
 42 24  1  0  0  0  0
 43 24  1  0  0  0  0
M  END
>  <Pose>
1

>  <Score>
-6.38

$$$$
