
 OpenBabel03232204043D

 40 43  0  0  0  0  0  0  0  0999 V2000
   13.7420  -57.6800   34.5680 I   0  0  0  0  0  0  0  0  0  0  0  0
   12.5850  -59.3430   35.2180 C   0  0  0  0  0  0  0  0  0  0  0  0
   12.3150  -59.6930   36.5230 C   0  0  0  0  0  0  0  0  0  0  0  0
   11.5660  -60.7980   36.4920 N   0  0  0  0  0  0  0  0  0  0  0  0
   11.3680  -61.1300   35.2220 N   0  0  0  0  0  0  0  0  0  0  0  0
   11.9740  -60.2680   34.4080 C   0  0  0  0  0  0  0  0  0  0  0  0
   11.0560  -61.5960   37.6220 C   0  0  0  0  0  0  0  0  0  0  0  0
   12.8340  -58.9810   37.7230 C   0  0  0  0  0  0  0  0  0  0  0  0
   12.3150  -59.4920   38.7990 O   0  0  0  0  0  0  0  0  0  0  0  0
   13.7020  -57.9710   37.7210 N   0  0  0  0  0  0  0  0  0  0  0  0
   14.6010  -56.9240   37.7190 C   0  0  0  0  0  0  0  0  0  0  0  0
   14.4620  -56.0170   38.7950 C   0  0  0  0  0  0  0  0  0  0  0  0
   13.5700  -55.9480   39.7750 N   0  0  0  0  0  0  0  0  0  0  0  0
   13.8610  -54.9260   40.5210 O   0  0  0  0  0  0  0  0  0  0  0  0
   14.9010  -54.3240   40.0700 N   0  0  0  0  0  0  0  0  0  0  0  0
   15.3160  -54.9790   38.9780 C   0  0  0  0  0  0  0  0  0  0  0  0
   16.3590  -54.7870   38.0990 C   0  0  0  0  0  0  0  0  0  0  0  0
   16.5210  -55.6490   37.0450 C   0  0  0  0  0  0  0  0  0  0  0  0
   15.6590  -56.7090   36.8470 C   0  0  0  0  0  0  0  0  0  0  0  0
   17.2160  -53.6980   38.3200 N   0  0  0  0  0  0  0  0  0  0  0  0
   16.9840  -52.3780   37.7330 C   0  0  0  0  0  0  0  0  0  0  0  0
   18.1820  -52.1450   36.8350 C   0  0  0  0  0  0  0  0  0  0  0  0
   19.1100  -53.1740   36.8650 O   0  0  0  0  0  0  0  0  0  0  0  0
   19.5550  -53.5280   38.1210 C   0  0  0  0  0  0  0  0  0  0  0  0
   18.4210  -53.6830   39.1180 C   0  0  0  0  0  0  0  0  0  0  0  0
   11.9970  -60.2680   33.3180 H   0  0  0  0  0  0  0  0  0  0  0  0
    9.9590  -61.6370   37.5860 H   0  0  0  0  0  0  0  0  0  0  0  0
   11.4030  -61.2080   38.5840 H   0  0  0  0  0  0  0  0  0  0  0  0
   11.4570  -62.6450   37.4890 H   0  0  0  0  0  0  0  0  0  0  0  0
   12.9010  -57.2620   36.8790 H   0  0  0  0  0  0  0  0  0  0  0  0
   17.3210  -55.5070   36.3510 H   0  0  0  0  0  0  0  0  0  0  0  0
   15.8580  -57.3490   36.0040 H   0  0  0  0  0  0  0  0  0  0  0  0
   16.0400  -52.2220   37.2620 H   0  0  0  0  0  0  0  0  0  0  0  0
   17.0600  -51.6100   38.5600 H   0  0  0  0  0  0  0  0  0  0  0  0
   18.6170  -51.1370   36.9890 H   0  0  0  0  0  0  0  0  0  0  0  0
   17.7860  -52.1410   35.7760 H   0  0  0  0  0  0  0  0  0  0  0  0
   20.0100  -54.5490   38.0100 H   0  0  0  0  0  0  0  0  0  0  0  0
   20.3410  -52.8650   38.5150 H   0  0  0  0  0  0  0  0  0  0  0  0
   18.4050  -52.7250   39.7380 H   0  0  0  0  0  0  0  0  0  0  0  0
   18.5470  -54.4690   39.8420 H   0  0  0  0  0  0  0  0  0  0  0  0
  1  2  1  0  0  0  0
  2  3  2  0  0  0  0
  3  8  1  0  0  0  0
  4  3  1  0  0  0  0
  4  7  1  0  0  0  0
  5  4  1  0  0  0  0
  6  2  1  0  0  0  0
  6  5  2  0  0  0  0
  7 28  1  0  0  0  0
  8  9  2  0  0  0  0
 10  8  1  0  0  0  0
 11 10  1  0  0  0  0
 11 12  1  0  0  0  0
 12 16  1  0  0  0  0
 12 13  2  0  0  0  0
 13 14  1  0  0  0  0
 15 14  1  0  0  0  0
 16 15  2  0  0  0  0
 17 20  1  0  0  0  0
 17 16  1  0  0  0  0
 18 17  2  0  0  0  0
 19 18  1  0  0  0  0
 19 11  2  0  0  0  0
 20 25  1  0  0  0  0
 21 20  1  0  0  0  0
 21 34  1  0  0  0  0
 22 23  1  0  0  0  0
 22 35  1  0  0  0  0
 22 21  1  0  0  0  0
 23 24  1  0  0  0  0
 24 38  1  0  0  0  0
 24 25  1  0  0  0  0
 25 39  1  0  0  0  0
 25 40  1  0  0  0  0
 26  6  1  0  0  0  0
 27  7  1  0  0  0  0
 29  7  1  0  0  0  0
 30 10  1  0  0  0  0
 31 18  1  0  0  0  0
 32 19  1  0  0  0  0
 33 21  1  0  0  0  0
 36 22  1  0  0  0  0
 37 24  1  0  0  0  0
M  END
>  <Pose>
1

>  <Score>
-7.04

$$$$
