
 OpenBabel03232204043D

 40 43  0  0  1  0  0  0  0  0999 V2000
    9.3830  -59.3910   44.3350 I   0  0  0  0  0  0  0  0  0  0  0  0
   10.1100  -59.4280   42.3850 C   0  0  0  0  0  0  0  0  0  0  0  0
   11.3150  -59.9920   42.0150 C   0  0  0  0  0  0  0  0  0  0  0  0
   11.7640  -60.0010   40.7210 C   0  0  0  0  0  0  0  0  0  0  0  0
   11.0340  -59.4440   39.7160 C   0  0  0  0  0  0  0  0  0  0  0  0
    9.8140  -58.8690   40.0710 C   0  0  0  0  0  0  0  0  0  0  0  0
    9.3670  -58.8590   41.3500 C   0  0  0  0  0  0  0  0  0  0  0  0
   11.4660  -59.4500   38.3450 C   0  0  2  0  0  0  0  0  0  0  0  0
   10.4960  -59.6130   37.4850 O   0  0  0  0  0  0  0  0  0  0  0  0
   12.7520  -59.3140   37.7140 C   0  0  0  0  0  0  0  0  0  0  0  0
   13.5610  -58.1700   37.9080 N   0  0  0  0  0  0  0  0  0  0  0  0
   14.5820  -57.8370   37.1810 C   0  0  1  0  0  0  0  0  0  0  0  0
   15.5240  -58.4010   35.7550 S   0  0  0  0  0  0  0  0  0  0  0  0
   16.6600  -57.0340   35.8130 C   0  0  0  0  0  0  0  0  0  0  0  0
   16.3310  -56.2510   36.8160 C   0  0  0  0  0  0  0  0  0  0  0  0
   15.2080  -56.6540   37.5810 N   0  0  0  0  0  0  0  0  0  0  0  0
   14.4450  -56.1600   38.7550 C   0  0  0  0  0  0  0  0  0  0  0  0
   13.4140  -57.2130   38.9690 C   0  0  0  0  0  0  0  0  0  0  0  0
   17.1640  -55.0360   37.0550 C   0  0  0  0  0  0  0  0  0  0  0  0
   17.2470  -54.4350   38.2840 C   0  0  0  0  0  0  0  0  0  0  0  0
   18.0420  -53.2930   38.5060 C   0  0  0  0  0  0  0  0  0  0  0  0
   18.7670  -52.7440   37.4740 C   0  0  0  0  0  0  0  0  0  0  0  0
   18.6870  -53.3410   36.2410 C   0  0  0  0  0  0  0  0  0  0  0  0
   17.9010  -54.4670   36.0320 C   0  0  0  0  0  0  0  0  0  0  0  0
   11.9080  -60.4420   42.8200 H   0  0  0  0  0  0  0  0  0  0  0  0
   12.7080  -60.4490   40.5450 H   0  0  0  0  0  0  0  0  0  0  0  0
    9.2230  -58.4260   39.2970 H   0  0  0  0  0  0  0  0  0  0  0  0
    8.4050  -58.4090   41.6440 H   0  0  0  0  0  0  0  0  0  0  0  0
   13.4280  -60.2200   37.9350 H   0  0  0  0  0  0  0  0  0  0  0  0
   12.5760  -59.4690   36.5950 H   0  0  0  0  0  0  0  0  0  0  0  0
   17.4600  -56.9670   35.0780 H   0  0  0  0  0  0  0  0  0  0  0  0
   13.9440  -55.2030   38.5480 H   0  0  0  0  0  0  0  0  0  0  0  0
   15.0770  -56.1350   39.6680 H   0  0  0  0  0  0  0  0  0  0  0  0
   12.4070  -56.7450   38.9710 H   0  0  0  0  0  0  0  0  0  0  0  0
   13.5460  -57.7400   39.9610 H   0  0  0  0  0  0  0  0  0  0  0  0
   16.6890  -54.8440   39.1030 H   0  0  0  0  0  0  0  0  0  0  0  0
   18.0670  -52.8740   39.4780 H   0  0  0  0  0  0  0  0  0  0  0  0
   19.3930  -51.8730   37.5820 H   0  0  0  0  0  0  0  0  0  0  0  0
   19.2490  -52.9220   35.4250 H   0  0  0  0  0  0  0  0  0  0  0  0
   17.8850  -54.8880   35.0300 H   0  0  0  0  0  0  0  0  0  0  0  0
  2  1  1  0  0  0  0
  3  2  1  0  0  0  0
  3 25  1  0  0  0  0
  4  3  2  0  0  0  0
  5  6  2  0  0  0  0
  5  4  1  0  0  0  0
  6  7  1  0  0  0  0
  7 28  1  0  0  0  0
  7  2  2  0  0  0  0
  8  9  1  1  0  0  0
  8  5  1  0  0  0  0
 10 11  1  0  0  0  0
 10 29  1  0  0  0  0
 10  8  1  0  0  0  0
 11 18  1  0  0  0  0
 12 13  1  6  0  0  0
 12 16  1  0  0  0  0
 12 11  1  0  0  0  0
 13 14  1  0  0  0  0
 14 15  2  0  0  0  0
 15 19  1  0  0  0  0
 15 16  1  0  0  0  0
 16 17  1  0  0  0  0
 17 18  1  0  0  0  0
 17 33  1  0  0  0  0
 18 34  1  0  0  0  0
 18 35  1  0  0  0  0
 19 20  1  0  0  0  0
 20 21  2  0  0  0  0
 20 36  1  0  0  0  0
 21 37  1  0  0  0  0
 22 38  1  0  0  0  0
 22 21  1  0  0  0  0
 23 22  2  0  0  0  0
 24 23  1  0  0  0  0
 24 19  2  0  0  0  0
 26  4  1  0  0  0  0
 27  6  1  0  0  0  0
 30 10  1  0  0  0  0
 31 14  1  0  0  0  0
 32 17  1  0  0  0  0
 39 23  1  0  0  0  0
 40 24  1  0  0  0  0
M  END
>  <Pose>
1

>  <Score>
-6.00

$$$$
