
 OpenBabel03232204043D

 52 56  0  0  1  0  0  0  0  0999 V2000
    8.6820  -60.2850   42.0010 I   0  0  0  0  0  0  0  0  0  0  0  0
   10.3120  -59.5870   40.8770 C   0  0  0  0  0  0  0  0  0  0  0  0
   10.1160  -59.1290   39.5790 C   0  0  0  0  0  0  0  0  0  0  0  0
   11.1700  -58.6730   38.8410 C   0  0  0  0  0  0  0  0  0  0  0  0
   12.4660  -58.6410   39.3310 C   0  0  0  0  0  0  0  0  0  0  0  0
   12.6680  -59.0980   40.6290 C   0  0  0  0  0  0  0  0  0  0  0  0
   11.5970  -59.5570   41.3660 C   0  0  0  0  0  0  0  0  0  0  0  0
   13.5600  -58.1670   38.5630 N   0  0  0  0  0  0  0  0  0  0  0  0
   14.0860  -58.8980   37.5650 C   0  0  0  0  0  0  0  0  0  0  0  0
   15.1480  -58.4570   36.8050 C   0  0  2  0  0  0  0  0  0  0  0  0
   15.6460  -57.2110   37.1290 C   0  0  0  0  0  0  0  0  0  0  0  0
   16.6190  -56.6640   36.5270 O   0  0  0  0  0  0  0  0  0  0  0  0
   15.1200  -56.4570   38.1430 N   0  0  0  0  0  0  0  0  0  0  0  0
   14.0830  -56.9610   38.8350 C   0  0  0  0  0  0  0  0  0  0  0  0
   13.5660  -56.3050   39.7750 O   0  0  0  0  0  0  0  0  0  0  0  0
   15.7580  -59.1790   35.7040 C   0  0  1  0  0  0  0  0  0  0  0  0
   14.9450  -60.1210   35.0020 N   0  0  0  0  0  4  0  0  0  0  0  0
   13.8290  -59.5450   34.3020 C   0  0  0  0  0  0  0  0  0  0  0  0
   13.8740  -58.0330   34.2440 C   0  0  0  0  0  0  0  0  0  0  0  0
   15.2800  -57.6110   33.8920 C   0  0  0  0  0  0  0  0  0  0  0  0
   16.2490  -58.2290   34.6430 C   0  0  0  0  0  0  0  0  0  0  0  0
   17.5790  -57.9700   34.4130 C   0  0  0  0  0  0  0  0  0  0  0  0
   17.8870  -57.0690   33.4040 C   0  0  0  0  0  0  0  0  0  0  0  0
   16.9250  -56.4390   32.6420 C   0  0  0  0  0  0  0  0  0  0  0  0
   15.5880  -56.7310   32.9080 C   0  0  0  0  0  0  0  0  0  0  0  0
   17.5600  -55.6090   31.7310 O   0  0  0  0  0  0  0  0  0  0  0  0
   18.9220  -55.4170   32.1470 C   0  0  0  0  0  0  0  0  0  0  0  0
   19.1120  -56.5890   32.9170 O   0  0  0  0  0  0  0  0  0  0  0  0
   18.5360  -58.5910   35.1640 O   0  0  0  0  0  0  0  0  0  0  0  0
   19.4520  -59.5480   34.7360 C   0  0  0  0  0  0  0  0  0  0  0  0
   15.8240  -60.6680   33.9350 C   0  0  0  0  0  0  0  0  0  0  0  0
   13.5640  -60.1320   37.2750 O   0  0  0  0  0  0  0  0  0  0  0  0
    9.1120  -59.1500   39.1880 H   0  0  0  0  0  0  0  0  0  0  0  0
   11.0090  -58.3190   37.8320 H   0  0  0  0  0  0  0  0  0  0  0  0
   13.6870  -59.0710   41.0100 H   0  0  0  0  0  0  0  0  0  0  0  0
   11.7530  -59.9080   42.3660 H   0  0  0  0  0  0  0  0  0  0  0  0
   15.4970  -55.5210   38.3830 H   0  0  0  0  0  0  0  0  0  0  0  0
   16.6590  -59.6910   36.0840 H   0  0  0  0  0  0  0  0  0  0  0  0
   14.6910  -60.9830   35.5120 H   0  0  0  0  0  0  0  0  0  0  0  0
   12.8710  -59.8320   34.7620 H   0  0  0  0  0  0  0  0  0  0  0  0
   13.7550  -59.8840   33.2310 H   0  0  0  0  0  0  0  0  0  0  0  0
   13.4920  -57.5300   35.1400 H   0  0  0  0  0  0  0  0  0  0  0  0
   13.2490  -57.6910   33.3930 H   0  0  0  0  0  0  0  0  0  0  0  0
   14.8020  -56.2700   32.3460 H   0  0  0  0  0  0  0  0  0  0  0  0
   18.9520  -54.5610   32.8600 H   0  0  0  0  0  0  0  0  0  0  0  0
   19.6050  -55.3230   31.3050 H   0  0  0  0  0  0  0  0  0  0  0  0
   19.2520  -60.4910   35.3190 H   0  0  0  0  0  0  0  0  0  0  0  0
   19.4320  -59.7570   33.6540 H   0  0  0  0  0  0  0  0  0  0  0  0
   20.5130  -59.2870   34.9960 H   0  0  0  0  0  0  0  0  0  0  0  0
   16.6680  -61.1920   34.3780 H   0  0  0  0  0  0  0  0  0  0  0  0
   16.0750  -59.8420   33.2560 H   0  0  0  0  0  0  0  0  0  0  0  0
   15.2100  -61.3860   33.3280 H   0  0  0  0  0  0  0  0  0  0  0  0
  2  7  1  0  0  0  0
  2  1  1  0  0  0  0
  3  2  2  0  0  0  0
  4  5  2  0  0  0  0
  4  3  1  0  0  0  0
  5  6  1  0  0  0  0
  6 35  1  0  0  0  0
  6  7  2  0  0  0  0
  7 36  1  0  0  0  0
  8 14  1  0  0  0  0
  8  5  1  0  0  0  0
  9  8  1  0  0  0  0
 10 11  1  6  0  0  0
 10  9  1  0  0  0  0
 11 13  1  0  0  0  0
 12 11  2  0  0  0  0
 13 37  1  0  0  0  0
 13 14  1  0  0  0  0
 14 15  2  0  0  0  0
 16 38  1  1  0  0  0
 16 10  1  0  0  0  0
 17 39  1  0  0  0  0
 17 16  1  0  0  0  0
 18 40  1  0  0  0  0
 18 17  1  0  0  0  0
 19 18  1  0  0  0  0
 19 42  1  0  0  0  0
 20 19  1  0  0  0  0
 20 21  1  0  0  0  0
 21 16  1  0  0  0  0
 22 21  2  0  0  0  0
 22 29  1  0  0  0  0
 23 22  1  0  0  0  0
 24 25  1  0  0  0  0
 24 23  2  0  0  0  0
 25 20  2  0  0  0  0
 26 27  1  0  0  0  0
 26 24  1  0  0  0  0
 27 45  1  0  0  0  0
 27 28  1  0  0  0  0
 28 23  1  0  0  0  0
 30 49  1  0  0  0  0
 30 29  1  0  0  0  0
 30 47  1  0  0  0  0
 31 50  1  0  0  0  0
 31 17  1  0  0  0  0
 32  9  2  0  0  0  0
 33  3  1  0  0  0  0
 34  4  1  0  0  0  0
 41 18  1  0  0  0  0
 43 19  1  0  0  0  0
 44 25  1  0  0  0  0
 46 27  1  0  0  0  0
 48 30  1  0  0  0  0
 51 31  1  0  0  0  0
 52 31  1  0  0  0  0
M  END
>  <Pose>
1

>  <Score>
-5.39

$$$$
