
 OpenBabel03232204043D

 44 47  0  0  1  0  0  0  0  0999 V2000
   12.0840  -59.3040   38.6650 I   0  0  0  0  0  0  0  0  0  0  0  0
   13.6010  -58.0050   37.9910 C   0  0  0  0  0  0  0  0  0  0  0  0
   14.4240  -58.2080   36.9220 C   0  0  0  0  0  0  0  0  0  0  0  0
   15.2420  -57.0780   36.8910 C   0  0  0  0  0  0  0  0  0  0  0  0
   14.9470  -56.2280   37.8750 N   0  0  0  0  0  0  0  0  0  0  0  0
   13.9450  -56.7870   38.5530 C   0  0  0  0  0  0  0  0  0  0  0  0
   15.5510  -54.9660   38.1830 C   0  0  2  0  0  0  0  0  0  0  0  0
   16.9400  -54.9810   38.1200 O   0  0  0  0  0  0  0  0  0  0  0  0
   17.2740  -53.7120   38.5830 C   0  0  1  0  0  0  0  0  0  0  0  0
   16.3400  -53.4010   39.7300 C   0  0  2  0  0  0  0  0  0  0  0  0
   15.3360  -54.5580   39.6420 C   0  0  0  0  0  0  0  0  0  0  0  0
   15.6090  -52.2350   39.5000 O   0  0  0  0  0  0  0  0  0  0  0  0
   18.6900  -53.7290   39.1750 C   0  0  0  0  0  0  0  0  0  0  0  0
   19.6130  -53.5330   38.1390 O   0  0  0  0  0  0  0  0  0  0  0  0
   16.1670  -57.0070   35.9200 N   0  0  0  0  0  0  0  0  0  0  0  0
   16.2990  -57.9880   35.0140 C   0  0  0  0  0  0  0  0  0  0  0  0
   15.5140  -59.0690   35.0470 N   0  0  0  0  0  0  0  0  0  0  0  0
   14.5450  -59.2230   36.0020 C   0  0  0  0  0  0  0  0  0  0  0  0
   13.7380  -60.3960   35.9880 N   0  0  0  0  0  0  0  0  0  0  0  0
   12.7640  -60.5420   34.9580 C   0  0  0  0  0  0  0  0  0  0  0  0
   12.7150  -59.6420   34.0810 O   0  0  0  0  0  0  0  0  0  0  0  0
   11.8440  -61.6410   34.8600 C   0  0  0  0  0  0  0  0  0  0  0  0
   11.5190  -62.3950   35.9550 C   0  0  0  0  0  0  0  0  0  0  0  0
   10.6240  -63.4640   35.8770 C   0  0  0  0  0  0  0  0  0  0  0  0
   10.0530  -63.7740   34.6780 C   0  0  0  0  0  0  0  0  0  0  0  0
   10.3600  -63.0360   33.5640 C   0  0  0  0  0  0  0  0  0  0  0  0
   11.2600  -61.9690   33.6640 C   0  0  0  0  0  0  0  0  0  0  0  0
   13.4260  -56.3930   39.4320 H   0  0  0  0  0  0  0  0  0  0  0  0
   15.1290  -54.1550   37.5770 H   0  0  0  0  0  0  0  0  0  0  0  0
   17.2140  -52.9610   37.7680 H   0  0  0  0  0  0  0  0  0  0  0  0
   16.8370  -53.3650   40.7070 H   0  0  0  0  0  0  0  0  0  0  0  0
   15.7080  -55.3700   40.2920 H   0  0  0  0  0  0  0  0  0  0  0  0
   14.3120  -54.2380   39.8410 H   0  0  0  0  0  0  0  0  0  0  0  0
   15.5480  -51.7790   40.3950 H   0  0  0  0  0  0  0  0  0  0  0  0
   18.8250  -52.9150   39.8980 H   0  0  0  0  0  0  0  0  0  0  0  0
   18.8780  -54.7110   39.6220 H   0  0  0  0  0  0  0  0  0  0  0  0
   20.4140  -53.0150   38.4680 H   0  0  0  0  0  0  0  0  0  0  0  0
   17.0690  -57.8970   34.2320 H   0  0  0  0  0  0  0  0  0  0  0  0
   13.7890  -61.1650   36.6620 H   0  0  0  0  0  0  0  0  0  0  0  0
   11.9260  -62.2230   36.9550 H   0  0  0  0  0  0  0  0  0  0  0  0
   10.3790  -64.0460   36.7440 H   0  0  0  0  0  0  0  0  0  0  0  0
    9.3410  -64.6090   34.5640 H   0  0  0  0  0  0  0  0  0  0  0  0
    9.9030  -63.2930   32.6320 H   0  0  0  0  0  0  0  0  0  0  0  0
   11.4580  -61.4350   32.7660 H   0  0  0  0  0  0  0  0  0  0  0  0
  2  6  2  0  0  0  0
  2  1  1  0  0  0  0
  3  2  1  0  0  0  0
  4  3  2  0  0  0  0
  4  5  1  0  0  0  0
  5  7  1  0  0  0  0
  5  6  1  0  0  0  0
  6 28  1  0  0  0  0
  7 29  1  6  0  0  0
  7 11  1  0  0  0  0
  8  7  1  0  0  0  0
  8  9  1  0  0  0  0
  9 30  1  6  0  0  0
  9 13  1  0  0  0  0
  9 10  1  0  0  0  0
 10 31  1  1  0  0  0
 11 10  1  0  0  0  0
 11 33  1  0  0  0  0
 11 32  1  0  0  0  0
 12 10  1  0  0  0  0
 12 34  1  0  0  0  0
 13 36  1  0  0  0  0
 13 35  1  0  0  0  0
 14 37  1  0  0  0  0
 14 13  1  0  0  0  0
 15  4  1  0  0  0  0
 16 17  1  0  0  0  0
 16 15  2  0  0  0  0
 17 18  2  0  0  0  0
 18  3  1  0  0  0  0
 19 18  1  0  0  0  0
 19 39  1  0  0  0  0
 20 19  1  0  0  0  0
 21 20  2  0  0  0  0
 22 20  1  0  0  0  0
 22 23  1  0  0  0  0
 23 40  1  0  0  0  0
 24 23  2  0  0  0  0
 24 41  1  0  0  0  0
 25 24  1  0  0  0  0
 26 27  1  0  0  0  0
 26 25  2  0  0  0  0
 27 22  2  0  0  0  0
 38 16  1  0  0  0  0
 42 25  1  0  0  0  0
 43 26  1  0  0  0  0
 44 27  1  0  0  0  0
M  END
>  <Pose>
1

>  <Score>
-7.05

$$$$
