
 OpenBabel03232204043D

 48 52  0  0  1  0  0  0  0  0999 V2000
   14.7550  -56.4610   38.6160 B   0  0  0  0  0  0  0  0  0  0  0  0
   13.5820  -57.8890   38.1510 C   0  0  0  0  0  0  0  0  0  0  0  0
   12.4320  -58.0740   38.9580 C   0  0  0  0  0  0  0  0  0  0  0  0
   11.5680  -59.1080   38.7150 C   0  0  0  0  0  0  0  0  0  0  0  0
   11.8420  -59.9630   37.6700 C   0  0  0  0  0  0  0  0  0  0  0  0
   12.9630  -59.7730   36.8930 C   0  0  0  0  0  0  0  0  0  0  0  0
   13.8770  -58.7130   37.1160 C   0  0  0  0  0  0  0  0  0  0  0  0
   14.9810  -58.5840   36.1920 C   0  0  0  0  0  0  0  0  0  0  0  0
   15.1860  -57.8030   35.1920 C   0  0  0  0  0  0  0  0  0  0  0  0
   16.3000  -57.6680   34.2710 C   0  0  1  0  0  0  0  0  0  0  0  0
   16.5790  -58.4460   33.2530 N   0  0  0  0  0  0  0  0  0  0  0  0
   17.6100  -58.1280   32.4130 C   0  0  0  0  0  0  0  0  0  0  0  0
   18.3970  -57.0270   32.5630 C   0  0  0  0  0  0  0  0  0  0  0  0
   18.1360  -56.1870   33.6240 C   0  0  0  0  0  0  0  0  0  0  0  0
   18.6980  -55.0170   34.0860 N   0  0  0  0  0  0  0  0  0  0  0  0
   18.0490  -54.6150   35.1650 C   0  0  0  0  0  0  0  0  0  0  0  0
   17.0750  -55.5400   35.3830 N   0  0  0  0  0  0  0  0  0  0  0  0
   17.1060  -56.5080   34.4590 C   0  0  0  0  0  0  0  0  0  0  0  0
   18.2910  -53.4420   36.0140 C   0  0  0  0  0  0  0  0  0  0  0  0
   19.3860  -52.6450   35.9540 C   0  0  0  0  0  0  0  0  0  0  0  0
   19.5230  -51.5610   36.8410 C   0  0  0  0  0  0  0  0  0  0  0  0
   18.5460  -51.3020   37.7760 C   0  0  0  0  0  0  0  0  0  0  0  0
   17.4140  -52.1020   37.8570 C   0  0  0  0  0  0  0  0  0  0  0  0
   17.3230  -53.1350   36.9840 C   0  0  0  0  0  0  0  0  0  0  0  0
   19.8280  -54.4440   33.4120 C   0  0  0  0  0  0  0  0  0  0  0  0
   15.8860  -59.6780   33.0160 C   0  0  0  0  0  0  0  0  0  0  0  0
   10.8160  -60.9210   37.6410 O   0  0  0  0  0  0  0  0  0  0  0  0
    9.7150  -60.3350   38.3050 C   0  0  0  0  0  0  0  0  0  0  0  0
   10.3810  -59.5590   39.3010 O   0  0  0  0  0  0  0  0  0  0  0  0
   12.2700  -57.3730   39.7600 H   0  0  0  0  0  0  0  0  0  0  0  0
   13.1620  -60.4590   36.0710 H   0  0  0  0  0  0  0  0  0  0  0  0
   15.7850  -59.3240   36.3610 H   0  0  0  0  0  0  0  0  0  0  0  0
   14.3400  -57.1100   34.9980 H   0  0  0  0  0  0  0  0  0  0  0  0
   17.8010  -58.8000   31.5800 H   0  0  0  0  0  0  0  0  0  0  0  0
   19.2140  -56.7650   31.9060 H   0  0  0  0  0  0  0  0  0  0  0  0
   20.1700  -52.8060   35.2250 H   0  0  0  0  0  0  0  0  0  0  0  0
   20.4030  -50.9450   36.7730 H   0  0  0  0  0  0  0  0  0  0  0  0
   18.6460  -50.4670   38.4630 H   0  0  0  0  0  0  0  0  0  0  0  0
   16.6350  -51.9190   38.5810 H   0  0  0  0  0  0  0  0  0  0  0  0
   16.4350  -53.7710   37.0420 H   0  0  0  0  0  0  0  0  0  0  0  0
   19.6340  -53.5220   32.8540 H   0  0  0  0  0  0  0  0  0  0  0  0
   20.2420  -55.1840   32.6380 H   0  0  0  0  0  0  0  0  0  0  0  0
   20.7230  -54.2910   34.0580 H   0  0  0  0  0  0  0  0  0  0  0  0
   15.0390  -59.6200   32.3210 H   0  0  0  0  0  0  0  0  0  0  0  0
   16.6290  -60.3390   32.4210 H   0  0  0  0  0  0  0  0  0  0  0  0
   15.7470  -60.3000   33.9220 H   0  0  0  0  0  0  0  0  0  0  0  0
    9.1790  -59.6760   37.5900 H   0  0  0  0  0  0  0  0  0  0  0  0
    9.0550  -61.0960   38.7730 H   0  0  0  0  0  0  0  0  0  0  0  0
  2  1  1  0  0  0  0
  2  3  1  0  0  0  0
  3 30  1  0  0  0  0
  4  3  2  0  0  0  0
  4 29  1  0  0  0  0
  5  4  1  0  0  0  0
  6  7  1  0  0  0  0
  6  5  2  0  0  0  0
  7  2  2  0  0  0  0
  8 32  1  0  0  0  0
  8  7  1  0  0  0  0
  9  8  2  0  0  0  0
 10 18  1  0  0  0  0
 10  9  1  6  0  0  0
 11 10  1  0  0  0  0
 12 13  2  0  0  0  0
 12 11  1  0  0  0  0
 13 14  1  0  0  0  0
 14 15  1  0  0  0  0
 14 18  2  0  0  0  0
 15 16  1  0  0  0  0
 16 17  2  0  0  0  0
 16 19  1  0  0  0  0
 18 17  1  0  0  0  0
 19 24  1  0  0  0  0
 20 19  2  0  0  0  0
 20 21  1  0  0  0  0
 21 22  2  0  0  0  0
 22 23  1  0  0  0  0
 22 38  1  0  0  0  0
 23 39  1  0  0  0  0
 24 40  1  0  0  0  0
 24 23  2  0  0  0  0
 25 43  1  0  0  0  0
 25 15  1  0  0  0  0
 26 11  1  0  0  0  0
 26 46  1  0  0  0  0
 27  5  1  0  0  0  0
 27 28  1  0  0  0  0
 28 48  1  0  0  0  0
 28 29  1  0  0  0  0
 31  6  1  0  0  0  0
 33  9  1  0  0  0  0
 34 12  1  0  0  0  0
 35 13  1  0  0  0  0
 36 20  1  0  0  0  0
 37 21  1  0  0  0  0
 41 25  1  0  0  0  0
 42 25  1  0  0  0  0
 44 26  1  0  0  0  0
 45 26  1  0  0  0  0
 47 28  1  0  0  0  0
M  END
>  <Pose>
1

>  <Score>
-6.47

$$$$
