
 OpenBabel03232204043D

 35 39  0  0  0  0  0  0  0  0999 V2000
   19.0620  -51.4750   36.9290 B   0  0  0  0  0  0  0  0  0  0  0  0
   19.0090  -52.9190   35.6850 C   0  0  0  0  0  0  0  0  0  0  0  0
   18.1460  -54.0160   35.8700 C   0  0  0  0  0  0  0  0  0  0  0  0
   18.0790  -55.0680   35.0050 C   0  0  0  0  0  0  0  0  0  0  0  0
   18.9140  -55.0370   33.8860 C   0  0  0  0  0  0  0  0  0  0  0  0
   19.7500  -53.9750   33.7070 C   0  0  0  0  0  0  0  0  0  0  0  0
   19.8220  -52.9080   34.5790 C   0  0  0  0  0  0  0  0  0  0  0  0
   20.7080  -51.8460   34.3300 O   0  0  0  0  0  0  0  0  0  0  0  0
   20.8940  -53.9250   32.1810 B   0  0  0  0  0  0  0  0  0  0  0  0
   17.1740  -56.1890   35.2230 C   0  0  0  0  0  0  0  0  0  0  0  0
   16.2580  -56.1920   34.1300 O   0  0  0  0  0  0  0  0  0  0  0  0
   16.3280  -57.3480   33.4020 C   0  0  0  0  0  0  0  0  0  0  0  0
   15.6380  -57.6170   32.3930 O   0  0  0  0  0  0  0  0  0  0  0  0
   17.3440  -58.1610   34.0430 C   0  0  0  0  0  0  0  0  0  0  0  0
   17.8720  -57.5040   35.1320 C   0  0  0  0  0  0  0  0  0  0  0  0
   18.8390  -58.1270   35.8480 C   0  0  0  0  0  0  0  0  0  0  0  0
   19.2690  -59.3850   35.4790 C   0  0  0  0  0  0  0  0  0  0  0  0
   18.7430  -60.0460   34.3890 C   0  0  0  0  0  0  0  0  0  0  0  0
   17.7640  -59.4300   33.6560 C   0  0  0  0  0  0  0  0  0  0  0  0
   16.3710  -56.0700   36.4350 C   0  0  0  0  0  0  0  0  0  0  0  0
   16.4840  -54.9890   37.2650 C   0  0  0  0  0  0  0  0  0  0  0  0
   15.6990  -54.8920   38.4320 C   0  0  0  0  0  0  0  0  0  0  0  0
   14.8150  -55.9040   38.7220 C   0  0  0  0  0  0  0  0  0  0  0  0
   14.6940  -57.0040   37.8850 C   0  0  0  0  0  0  0  0  0  0  0  0
   15.4590  -57.0920   36.7560 C   0  0  0  0  0  0  0  0  0  0  0  0
   13.4740  -58.4150   38.2740 B   0  0  0  0  0  0  0  0  0  0  0  0
   14.0490  -55.7950   39.8730 O   0  0  0  0  0  0  0  0  0  0  0  0
   15.8850  -53.3640   39.5680 B   0  0  0  0  0  0  0  0  0  0  0  0
   17.3580  -53.9390   37.0210 O   0  0  0  0  0  0  0  0  0  0  0  0
   18.8410  -55.8850   33.2130 H   0  0  0  0  0  0  0  0  0  0  0  0
   19.2750  -57.6440   36.7060 H   0  0  0  0  0  0  0  0  0  0  0  0
   20.0460  -59.9160   36.0330 H   0  0  0  0  0  0  0  0  0  0  0  0
   19.0770  -61.0420   34.0890 H   0  0  0  0  0  0  0  0  0  0  0  0
   17.3380  -59.9250   32.8000 H   0  0  0  0  0  0  0  0  0  0  0  0
   15.4130  -57.9220   36.0640 H   0  0  0  0  0  0  0  0  0  0  0  0
  2  3  1  0  0  0  0
  2  1  1  0  0  0  0
  3 29  1  0  0  0  0
  4 10  1  0  0  0  0
  4  3  2  0  0  0  0
  5  4  1  0  0  0  0
  6  5  2  0  0  0  0
  6  7  1  0  0  0  0
  7  2  2  0  0  0  0
  8  7  1  0  0  0  0
  9  6  1  0  0  0  0
 10 20  1  0  0  0  0
 11 10  1  0  0  0  0
 12 14  1  0  0  0  0
 12 11  1  0  0  0  0
 13 12  2  0  0  0  0
 14 15  1  0  0  0  0
 15 10  1  0  0  0  0
 15 16  2  0  0  0  0
 16 31  1  0  0  0  0
 17 16  1  0  0  0  0
 17 32  1  0  0  0  0
 18 17  2  0  0  0  0
 19 14  2  0  0  0  0
 19 18  1  0  0  0  0
 20 25  2  0  0  0  0
 20 21  1  0  0  0  0
 21 22  2  0  0  0  0
 22 23  1  0  0  0  0
 22 28  1  0  0  0  0
 23 27  1  0  0  0  0
 24 26  1  0  0  0  0
 24 23  2  0  0  0  0
 25 24  1  0  0  0  0
 29 21  1  0  0  0  0
 30  5  1  0  0  0  0
 33 18  1  0  0  0  0
 34 19  1  0  0  0  0
 35 25  1  0  0  0  0
M  END
>  <Pose>
1

>  <Score>
-6.24

$$$$
