
 OpenBabel03232204043D

 35 39  0  0  0  0  0  0  0  0999 V2000
   15.1580  -55.7270   39.3740 I   0  0  0  0  0  0  0  0  0  0  0  0
   14.5950  -57.0040   37.7890 C   0  0  0  0  0  0  0  0  0  0  0  0
   15.3140  -56.8990   36.6030 C   0  0  0  0  0  0  0  0  0  0  0  0
   14.9750  -57.7060   35.5670 C   0  0  0  0  0  0  0  0  0  0  0  0
   13.9220  -58.6110   35.7260 C   0  0  0  0  0  0  0  0  0  0  0  0
   13.2050  -58.7230   36.8970 C   0  0  0  0  0  0  0  0  0  0  0  0
   13.5560  -57.8980   37.9470 C   0  0  0  0  0  0  0  0  0  0  0  0
   12.8480  -57.9930   39.1350 O   0  0  0  0  0  0  0  0  0  0  0  0
   11.6160  -60.1120   37.0880 I   0  0  0  0  0  0  0  0  0  0  0  0
   15.6570  -57.6780   34.2860 C   0  0  0  0  0  0  0  0  0  0  0  0
   14.7530  -57.3620   33.2180 O   0  0  0  0  0  0  0  0  0  0  0  0
   14.7230  -58.3400   32.2590 C   0  0  0  0  0  0  0  0  0  0  0  0
   14.0510  -58.4010   31.1890 O   0  0  0  0  0  0  0  0  0  0  0  0
   15.6530  -59.3700   32.6990 C   0  0  0  0  0  0  0  0  0  0  0  0
   16.2010  -58.9860   33.8850 C   0  0  0  0  0  0  0  0  0  0  0  0
   17.1330  -59.8010   34.5270 C   0  0  0  0  0  0  0  0  0  0  0  0
   17.5190  -61.0070   33.9820 C   0  0  0  0  0  0  0  0  0  0  0  0
   16.9570  -61.3970   32.7690 C   0  0  0  0  0  0  0  0  0  0  0  0
   16.0410  -60.5970   32.1340 C   0  0  0  0  0  0  0  0  0  0  0  0
   15.3540  -61.0940   30.6350 Cl  0  0  0  0  0  0  0  0  0  0  0  0
   17.4030  -62.9080   32.0270 Cl  0  0  0  0  0  0  0  0  0  0  0  0
   18.6910  -62.0030   34.8140 Cl  0  0  0  0  0  0  0  0  0  0  0  0
   17.7910  -59.2510   36.0320 Cl  0  0  0  0  0  0  0  0  0  0  0  0
   16.7530  -56.6710   34.2590 C   0  0  0  0  0  0  0  0  0  0  0  0
   17.0640  -55.8810   35.3120 C   0  0  0  0  0  0  0  0  0  0  0  0
   18.1140  -54.9790   35.1520 C   0  0  0  0  0  0  0  0  0  0  0  0
   18.8310  -54.8670   33.9820 C   0  0  0  0  0  0  0  0  0  0  0  0
   18.4850  -55.6890   32.9290 C   0  0  0  0  0  0  0  0  0  0  0  0
   17.4570  -56.5880   33.0510 C   0  0  0  0  0  0  0  0  0  0  0  0
   19.5630  -55.5410   31.1250 I   0  0  0  0  0  0  0  0  0  0  0  0
   19.8640  -53.9800   33.8240 O   0  0  0  0  0  0  0  0  0  0  0  0
   18.6070  -53.7480   36.7780 I   0  0  0  0  0  0  0  0  0  0  0  0
   16.3650  -55.9660   36.5030 O   0  0  0  0  0  0  0  0  0  0  0  0
   13.6220  -59.2750   34.9180 H   0  0  0  0  0  0  0  0  0  0  0  0
   17.2160  -57.2080   32.2180 H   0  0  0  0  0  0  0  0  0  0  0  0
  2  7  1  0  0  0  0
  2  1  1  0  0  0  0
  3  2  2  0  0  0  0
  4  5  2  0  0  0  0
  4  3  1  0  0  0  0
  5  6  1  0  0  0  0
  6  9  1  0  0  0  0
  6  7  2  0  0  0  0
  7  8  1  0  0  0  0
 10  4  1  0  0  0  0
 11 10  1  0  0  0  0
 12 14  1  0  0  0  0
 12 11  1  0  0  0  0
 13 12  2  0  0  0  0
 14 15  1  0  0  0  0
 15 10  1  0  0  0  0
 15 16  2  0  0  0  0
 16 23  1  0  0  0  0
 17 16  1  0  0  0  0
 17 22  1  0  0  0  0
 18 17  2  0  0  0  0
 19 14  2  0  0  0  0
 19 18  1  0  0  0  0
 20 19  1  0  0  0  0
 21 18  1  0  0  0  0
 24 10  1  0  0  0  0
 24 25  1  0  0  0  0
 25 33  1  0  0  0  0
 26 25  2  0  0  0  0
 26 32  1  0  0  0  0
 27 26  1  0  0  0  0
 28 29  1  0  0  0  0
 28 27  2  0  0  0  0
 29 24  2  0  0  0  0
 30 28  1  0  0  0  0
 31 27  1  0  0  0  0
 33  3  1  0  0  0  0
 34  5  1  0  0  0  0
 35 29  1  0  0  0  0
M  END
>  <Pose>
1

>  <Score>
-5.60

$$$$
