
 OpenBabel03232204043D

 35 38  0  0  1  0  0  0  0  0999 V2000
   17.6760  -53.3200   38.9670 I   0  0  0  0  0  0  0  0  0  0  0  0
   18.2180  -53.8050   36.9900 C   0  0  0  0  0  0  0  0  0  0  0  0
   17.6230  -54.8340   36.2870 C   0  0  0  0  0  0  0  0  0  0  0  0
   17.9750  -55.1540   34.9940 C   0  0  0  0  0  0  0  0  0  0  0  0
   18.9680  -54.4000   34.3970 C   0  0  0  0  0  0  0  0  0  0  0  0
   19.5720  -53.3650   35.0950 C   0  0  0  0  0  0  0  0  0  0  0  0
   19.2110  -53.0490   36.3990 C   0  0  0  0  0  0  0  0  0  0  0  0
   19.8500  -51.9990   37.0540 O   0  0  0  0  0  0  0  0  0  0  0  0
   17.3910  -56.1780   34.2750 C   0  0  0  0  0  0  0  0  0  0  0  0
   16.4000  -56.8940   34.9390 C   0  0  0  0  0  0  0  0  0  0  0  0
   16.0550  -56.5230   36.3090 C   0  0  0  0  0  0  0  0  0  0  0  0
   15.0650  -57.2690   36.9140 C   0  0  2  0  0  0  0  0  0  0  0  0
   14.4200  -58.3120   36.2830 C   0  0  0  0  0  0  0  0  0  0  0  0
   13.5130  -58.9850   36.8550 O   0  0  0  0  0  0  0  0  0  0  0  0
   14.7460  -58.6630   34.9870 C   0  0  0  0  0  0  0  0  0  0  0  0
   15.7330  -57.9350   34.3540 C   0  0  0  0  0  0  0  0  0  0  0  0
   14.5000  -56.8110   38.8850 I   0  0  0  0  0  0  0  0  0  0  0  0
   16.6860  -55.5280   36.8820 O   0  0  0  0  0  0  0  0  0  0  0  0
   17.7620  -56.5200   32.9060 C   0  0  0  0  0  0  0  0  0  0  0  0
   18.3850  -57.7430   32.6750 C   0  0  0  0  0  0  0  0  0  0  0  0
   18.7500  -58.1080   31.4070 C   0  0  0  0  0  0  0  0  0  0  0  0
   18.4990  -57.2560   30.3540 C   0  0  0  0  0  0  0  0  0  0  0  0
   17.8820  -56.0410   30.5550 C   0  0  0  0  0  0  0  0  0  0  0  0
   17.5230  -55.6950   31.8390 C   0  0  0  0  0  0  0  0  0  0  0  0
   18.6570  -58.6530   33.7840 C   0  0  0  0  0  0  0  0  0  0  0  0
   19.3390  -58.3260   34.7800 O   0  0  0  0  0  0  0  0  0  0  0  0
   18.1580  -59.9480   33.7710 O   0  0  0  0  0  0  0  0  0  0  0  0
   19.2420  -54.6540   33.3830 H   0  0  0  0  0  0  0  0  0  0  0  0
   20.3440  -52.8130   34.5720 H   0  0  0  0  0  0  0  0  0  0  0  0
   14.2230  -59.4850   34.5170 H   0  0  0  0  0  0  0  0  0  0  0  0
   15.9990  -58.1970   33.3400 H   0  0  0  0  0  0  0  0  0  0  0  0
   19.2450  -59.0670   31.1910 H   0  0  0  0  0  0  0  0  0  0  0  0
   18.7950  -57.5630   29.3570 H   0  0  0  0  0  0  0  0  0  0  0  0
   17.6990  -55.3910   29.6930 H   0  0  0  0  0  0  0  0  0  0  0  0
   17.0370  -54.7460   32.0350 H   0  0  0  0  0  0  0  0  0  0  0  0
  2  1  1  0  0  0  0
  3 18  1  0  0  0  0
  3  2  2  0  0  0  0
  4  3  1  0  0  0  0
  5  4  1  0  0  0  0
  5  6  1  0  0  0  0
  6  7  2  0  0  0  0
  7  2  1  0  0  0  0
  7  8  1  0  0  0  0
  9 10  1  0  0  0  0
  9  4  2  0  0  0  0
 10 11  2  0  0  0  0
 11 18  1  0  0  0  0
 11 12  1  0  0  0  0
 12 17  1  6  0  0  0
 13 14  2  0  0  0  0
 13 12  1  0  0  0  0
 15 13  1  0  0  0  0
 16 10  1  0  0  0  0
 16 15  2  0  0  0  0
 19  9  1  0  0  0  0
 20 19  1  0  0  0  0
 20 25  1  0  0  0  0
 21 20  2  0  0  0  0
 22 23  2  0  0  0  0
 22 21  1  0  0  0  0
 23 24  1  0  0  0  0
 24 35  1  0  0  0  0
 24 19  2  0  0  0  0
 25 26  1  0  0  0  0
 27 25  2  0  0  0  0
 28  5  1  0  0  0  0
 29  6  1  0  0  0  0
 30 15  1  0  0  0  0
 31 16  1  0  0  0  0
 32 21  1  0  0  0  0
 33 22  1  0  0  0  0
 34 23  1  0  0  0  0
M  END
>  <Pose>
1

>  <Score>
-6.65

$$$$
