
 OpenBabel03232204043D

 38 41  0  0  0  0  0  0  0  0999 V2000
   19.9630  -53.6600   34.6530 S   0  0  0  0  0  0  0  0  0  0  0  0
   20.3530  -54.7190   35.6470 O   0  0  0  0  0  0  0  0  0  0  0  0
   20.9810  -53.6320   33.5400 O   0  0  0  0  0  0  0  0  0  0  0  0
   19.9110  -52.1870   35.4610 O   0  0  0  0  0  0  0  0  0  0  0  0
   18.4170  -54.0940   34.0580 O   0  0  0  0  0  0  0  0  0  0  0  0
   18.1640  -55.3710   33.5720 C   0  0  0  0  0  0  0  0  0  0  0  0
   18.6700  -55.8290   32.3470 C   0  0  0  0  0  0  0  0  0  0  0  0
   18.2040  -57.1200   32.2350 C   0  0  0  0  0  0  0  0  0  0  0  0
   17.4710  -57.4050   33.3210 N   0  0  0  0  0  0  0  0  0  0  0  0
   17.4170  -56.3440   34.1820 C   0  0  0  0  0  0  0  0  0  0  0  0
   16.6690  -56.3120   35.4330 C   0  0  0  0  0  0  0  0  0  0  0  0
   16.7650  -55.2870   36.3230 N   0  0  0  0  0  0  0  0  0  0  0  0
   15.9880  -55.5120   37.3940 C   0  0  0  0  0  0  0  0  0  0  0  0
   15.3460  -56.7200   37.2330 C   0  0  0  0  0  0  0  0  0  0  0  0
   15.7980  -57.1920   35.9960 C   0  0  0  0  0  0  0  0  0  0  0  0
   15.3830  -58.4020   35.4690 O   0  0  0  0  0  0  0  0  0  0  0  0
   13.9440  -58.5590   34.5690 S   0  0  0  0  0  0  0  0  0  0  0  0
   13.6750  -57.3200   33.7650 O   0  0  0  0  0  0  0  0  0  0  0  0
   12.7540  -58.7860   35.4570 O   0  0  0  0  0  0  0  0  0  0  0  0
   14.0530  -59.9250   33.5660 O   0  0  0  0  0  0  0  0  0  0  0  0
   14.4750  -57.2220   38.1780 C   0  0  0  0  0  0  0  0  0  0  0  0
   14.2140  -56.5130   39.3400 C   0  0  0  0  0  0  0  0  0  0  0  0
   14.8520  -55.2960   39.5170 C   0  0  0  0  0  0  0  0  0  0  0  0
   15.7200  -54.8100   38.5610 C   0  0  0  0  0  0  0  0  0  0  0  0
   16.5640  -53.1280   38.8680 B   0  0  0  0  0  0  0  0  0  0  0  0
   13.0080  -57.1910   40.6670 B   0  0  0  0  0  0  0  0  0  0  0  0
   18.5450  -57.8540   31.1020 C   0  0  0  0  0  0  0  0  0  0  0  0
   19.3270  -57.2800   30.1380 C   0  0  0  0  0  0  0  0  0  0  0  0
   19.8040  -55.9700   30.2480 C   0  0  0  0  0  0  0  0  0  0  0  0
   19.4590  -55.2360   31.3870 C   0  0  0  0  0  0  0  0  0  0  0  0
   20.8860  -55.2300   28.8740 B   0  0  0  0  0  0  0  0  0  0  0  0
   17.9180  -59.6320   30.9210 B   0  0  0  0  0  0  0  0  0  0  0  0
   16.9870  -58.3290   33.5070 H   0  0  0  0  0  0  0  0  0  0  0  0
   17.3510  -54.4290   36.2190 H   0  0  0  0  0  0  0  0  0  0  0  0
   14.0050  -58.1640   38.0030 H   0  0  0  0  0  0  0  0  0  0  0  0
   14.6450  -54.7360   40.4380 H   0  0  0  0  0  0  0  0  0  0  0  0
   19.6140  -57.8170   29.2440 H   0  0  0  0  0  0  0  0  0  0  0  0
   19.8090  -54.2160   31.5040 H   0  0  0  0  0  0  0  0  0  0  0  0
  1  4  1  0  0  0  0
  1  2  1  0  0  0  0
  3  1  1  0  0  0  0
  5  1  1  0  0  0  0
  6  5  1  0  0  0  0
  6 10  2  0  0  0  0
  7  6  1  0  0  0  0
  8  7  1  0  0  0  0
  8  9  1  0  0  0  0
  9 33  1  0  0  0  0
  9 10  1  0  0  0  0
 10 11  1  0  0  0  0
 11 15  2  0  0  0  0
 11 12  1  0  0  0  0
 12 13  1  0  0  0  0
 13 24  1  0  0  0  0
 14 13  2  0  0  0  0
 14 21  1  0  0  0  0
 15 14  1  0  0  0  0
 16 15  1  0  0  0  0
 17 19  1  0  0  0  0
 17 16  1  0  0  0  0
 18 17  1  0  0  0  0
 20 17  1  0  0  0  0
 21 22  2  0  0  0  0
 22 23  1  0  0  0  0
 22 26  1  0  0  0  0
 23 36  1  0  0  0  0
 24 25  1  0  0  0  0
 24 23  2  0  0  0  0
 27  8  2  0  0  0  0
 28 29  2  0  0  0  0
 28 27  1  0  0  0  0
 29 30  1  0  0  0  0
 30 38  1  0  0  0  0
 30  7  2  0  0  0  0
 31 29  1  0  0  0  0
 32 27  1  0  0  0  0
 34 12  1  0  0  0  0
 35 21  1  0  0  0  0
 37 28  1  0  0  0  0
M  END
>  <Pose>
1

>  <Score>
-8.21

$$$$
