
 OpenBabel03232204043D

 46 51  0  0  1  0  0  0  0  0999 V2000
   15.1500  -61.3340   31.6510 P   0  0  2  0  0  0  0  0  0  0  0  0
   15.0870  -61.0880   29.9320 S   0  0  0  0  0  0  0  0  0  0  0  0
   13.7740  -60.6090   32.3330 O   0  0  0  0  0  0  0  0  0  0  0  0
   14.2170  -59.8580   33.4180 C   0  0  2  0  0  0  0  0  0  0  0  0
   15.2330  -60.7360   34.1510 C   0  0  2  0  0  0  0  0  0  0  0  0
   15.0950  -60.3800   35.4640 O   0  0  0  0  0  0  0  0  0  0  0  0
   13.7470  -60.1220   35.7020 C   0  0  2  0  0  0  0  0  0  0  0  0
   13.1490  -59.6060   34.4390 C   0  0  2  0  0  0  0  0  0  0  0  0
   11.9790  -60.3040   34.1090 O   0  0  0  0  0  0  0  0  0  0  0  0
   13.5800  -59.2040   36.8260 N   0  0  0  0  0  0  0  0  0  0  0  0
   14.2620  -58.0580   37.0730 C   0  0  0  0  0  0  0  0  0  0  0  0
   13.8170  -57.4680   38.2370 C   0  0  0  0  0  0  0  0  0  0  0  0
   12.8450  -58.2840   38.6960 N   0  0  0  0  0  0  0  0  0  0  0  0
   12.7090  -59.3210   37.8440 C   0  0  0  0  0  0  0  0  0  0  0  0
   11.4850  -60.7830   37.9910 B   0  0  0  0  0  0  0  0  0  0  0  0
   14.3880  -56.2850   38.6620 C   0  0  0  0  0  0  0  0  0  0  0  0
   13.9920  -55.7420   39.7170 O   0  0  0  0  0  0  0  0  0  0  0  0
   15.3800  -55.6750   37.9740 N   0  0  0  0  0  0  0  0  0  0  0  0
   15.7990  -56.2680   36.8410 C   0  0  0  0  0  0  0  0  0  0  0  0
   16.7730  -55.4780   36.3550 N   0  0  0  0  0  0  0  0  0  0  0  0
   16.9850  -54.4060   37.1400 C   0  0  0  0  0  0  0  0  0  0  0  0
   16.0900  -54.5320   38.1810 C   0  0  0  0  0  0  0  0  0  0  0  0
   17.9610  -53.3270   36.9370 C   0  0  0  0  0  0  0  0  0  0  0  0
   17.8550  -52.1540   37.6480 C   0  0  0  0  0  0  0  0  0  0  0  0
   18.7620  -51.1150   37.4790 C   0  0  0  0  0  0  0  0  0  0  0  0
   19.7880  -51.2730   36.5750 C   0  0  0  0  0  0  0  0  0  0  0  0
   19.9290  -52.4390   35.8380 C   0  0  0  0  0  0  0  0  0  0  0  0
   19.0010  -53.4360   36.0470 C   0  0  0  0  0  0  0  0  0  0  0  0
   15.2470  -57.4360   36.4040 N   0  0  0  0  0  0  0  0  0  0  0  0
   16.5830  -60.4020   33.5630 C   0  0  0  0  0  0  0  0  0  0  0  0
   16.5700  -60.6030   32.2010 O   0  0  0  0  0  0  0  0  0  0  0  0
   15.2400  -62.9770   32.0340 O   0  0  0  0  0  0  0  0  0  0  0  0
   14.6620  -58.9180   33.0630 H   0  0  0  0  0  0  0  0  0  0  0  0
   15.0080  -61.8030   34.0430 H   0  0  0  0  0  0  0  0  0  0  0  0
   13.3050  -61.1140   36.0130 H   0  0  0  0  0  0  0  0  0  0  0  0
   12.9480  -58.5360   34.5070 H   0  0  0  0  0  0  0  0  0  0  0  0
   11.7220  -60.1690   33.1740 H   0  0  0  0  0  0  0  0  0  0  0  0
   15.9580  -53.8550   39.0230 H   0  0  0  0  0  0  0  0  0  0  0  0
   17.0520  -52.0300   38.3570 H   0  0  0  0  0  0  0  0  0  0  0  0
   18.6840  -50.1890   38.0360 H   0  0  0  0  0  0  0  0  0  0  0  0
   20.5070  -50.4810   36.4240 H   0  0  0  0  0  0  0  0  0  0  0  0
   20.7490  -52.5400   35.1290 H   0  0  0  0  0  0  0  0  0  0  0  0
   19.0960  -54.3480   35.4840 H   0  0  0  0  0  0  0  0  0  0  0  0
   15.5770  -57.8920   35.5240 H   0  0  0  0  0  0  0  0  0  0  0  0
   17.4180  -60.9110   34.0840 H   0  0  0  0  0  0  0  0  0  0  0  0
   16.7520  -59.3000   33.7390 H   0  0  0  0  0  0  0  0  0  0  0  0
  1  2  1  6  0  0  0
  1 32  2  0  0  0  0
  1 31  1  0  0  0  0
  1  3  1  0  0  0  0
  3  4  1  0  0  0  0
  4 33  1  6  0  0  0
  4  5  1  0  0  0  0
  4  8  1  0  0  0  0
  5 34  1  6  0  0  0
  5  6  1  0  0  0  0
  6  7  1  0  0  0  0
  7 35  1  1  0  0  0
  7 10  1  0  0  0  0
  8 36  1  1  0  0  0
  8  7  1  0  0  0  0
  9  8  1  0  0  0  0
 10 11  1  0  0  0  0
 10 14  1  0  0  0  0
 11 12  2  0  0  0  0
 12 16  1  0  0  0  0
 12 13  1  0  0  0  0
 14 15  1  0  0  0  0
 14 13  2  0  0  0  0
 16 17  2  0  0  0  0
 18 22  1  0  0  0  0
 18 16  1  0  0  0  0
 19 18  1  0  0  0  0
 20 19  2  0  0  0  0
 20 21  1  0  0  0  0
 21 22  2  0  0  0  0
 22 38  1  0  0  0  0
 23 21  1  0  0  0  0
 23 24  1  0  0  0  0
 24 39  1  0  0  0  0
 25 24  2  0  0  0  0
 25 40  1  0  0  0  0
 26 25  1  0  0  0  0
 27 28  1  0  0  0  0
 27 26  2  0  0  0  0
 28 23  2  0  0  0  0
 29 19  1  0  0  0  0
 29 11  1  0  0  0  0
 30 46  1  0  0  0  0
 30 45  1  0  0  0  0
 30  5  1  0  0  0  0
 31 30  1  0  0  0  0
 37  9  1  0  0  0  0
 41 26  1  0  0  0  0
 42 27  1  0  0  0  0
 43 28  1  0  0  0  0
 44 29  1  0  0  0  0
M  END
>  <Pose>
1

>  <Score>
-8.11

$$$$
