
 OpenBabel03232204043D

 33 36  0  0  1  0  0  0  0  0999 V2000
   17.7600  -57.0360   30.8970 P   0  0  2  0  0  0  0  0  0  0  0  0
   18.5030  -55.5160   30.4680 S   0  0  0  0  0  0  0  0  0  0  0  0
   16.4460  -56.7550   31.9510 O   0  0  0  0  0  0  0  0  0  0  0  0
   16.9800  -56.3970   33.1640 C   0  0  2  0  0  0  0  0  0  0  0  0
   17.8080  -57.5720   33.7010 C   0  0  2  0  0  0  0  0  0  0  0  0
   17.9590  -57.1780   35.0290 O   0  0  0  0  0  0  0  0  0  0  0  0
   16.7030  -56.8150   35.4550 C   0  0  2  0  0  0  0  0  0  0  0  0
   15.9410  -56.2920   34.2640 C   0  0  2  0  0  0  0  0  0  0  0  0
   14.9490  -57.2360   33.9660 O   0  0  0  0  0  0  0  0  0  0  0  0
   16.7280  -55.7610   36.4520 N   0  0  0  0  0  0  0  0  0  0  0  0
   15.8600  -55.6770   37.4920 C   0  0  0  0  0  0  0  0  0  0  0  0
   14.8210  -56.4630   37.8750 N   0  0  0  0  0  0  0  0  0  0  0  0
   14.0910  -56.1680   38.9680 C   0  0  0  0  0  0  0  0  0  0  0  0
   14.3940  -55.0690   39.7030 N   0  0  0  0  0  0  0  0  0  0  0  0
   15.4150  -54.2660   39.3560 C   0  0  0  0  0  0  0  0  0  0  0  0
   16.1730  -54.5580   38.2370 C   0  0  0  0  0  0  0  0  0  0  0  0
   17.2280  -53.9660   37.6480 N   0  0  0  0  0  0  0  0  0  0  0  0
   17.5540  -54.7070   36.5660 C   0  0  0  0  0  0  0  0  0  0  0  0
   18.9760  -54.3740   35.3200 B   0  0  0  0  0  0  0  0  0  0  0  0
   15.7220  -53.1100   40.1420 N   0  0  0  0  0  0  0  0  0  0  0  0
   19.1110  -57.6960   32.9750 C   0  0  0  0  0  0  0  0  0  0  0  0
   18.8490  -58.0450   31.6620 O   0  0  0  0  0  0  0  0  0  0  0  0
   17.1650  -57.7340   29.5020 O   0  0  0  0  0  0  0  0  0  0  0  0
   17.6440  -55.5340   33.1200 H   0  0  0  0  0  0  0  0  0  0  0  0
   17.1770  -58.4680   33.6350 H   0  0  0  0  0  0  0  0  0  0  0  0
   16.2140  -57.6980   35.9280 H   0  0  0  0  0  0  0  0  0  0  0  0
   15.5520  -55.2820   34.3970 H   0  0  0  0  0  0  0  0  0  0  0  0
   14.0470  -56.8660   33.9920 H   0  0  0  0  0  0  0  0  0  0  0  0
   13.2620  -56.8300   39.2390 H   0  0  0  0  0  0  0  0  0  0  0  0
   14.9410  -52.6520   40.6880 H   0  0  0  0  0  0  0  0  0  0  0  0
   16.6790  -52.7090   40.1950 H   0  0  0  0  0  0  0  0  0  0  0  0
   19.6930  -58.4940   33.4340 H   0  0  0  0  0  0  0  0  0  0  0  0
   19.6550  -56.7370   33.0750 H   0  0  0  0  0  0  0  0  0  0  0  0
  1 23  2  6  0  0  0
  1 22  1  0  0  0  0
  1  3  1  0  0  0  0
  2  1  1  0  0  0  0
  3  4  1  0  0  0  0
  4 24  1  6  0  0  0
  4  5  1  0  0  0  0
  4  8  1  0  0  0  0
  5 25  1  6  0  0  0
  5  6  1  0  0  0  0
  6  7  1  0  0  0  0
  7 26  1  1  0  0  0
  7 10  1  0  0  0  0
  8 27  1  1  0  0  0
  8  7  1  0  0  0  0
  9 28  1  0  0  0  0
  9  8  1  0  0  0  0
 10 18  1  0  0  0  0
 10 11  1  0  0  0  0
 11 12  1  0  0  0  0
 11 16  2  0  0  0  0
 12 13  2  0  0  0  0
 13 29  1  0  0  0  0
 13 14  1  0  0  0  0
 15 14  2  0  0  0  0
 15 20  1  0  0  0  0
 16 15  1  0  0  0  0
 17 16  1  0  0  0  0
 18 17  2  0  0  0  0
 19 18  1  0  0  0  0
 20 31  1  0  0  0  0
 20 30  1  0  0  0  0
 21 33  1  0  0  0  0
 21 32  1  0  0  0  0
 21  5  1  0  0  0  0
 22 21  1  0  0  0  0
M  END
>  <Pose>
1

>  <Score>
-7.10

$$$$
