
 OpenBabel03232204043D

 52 55  0  0  1  0  0  0  0  0999 V2000
   19.0990  -55.6960   30.2050 S   0  0  0  0  0  0  0  0  0  0  0  0
   17.7840  -55.5660   31.4150 C   0  0  1  0  0  0  0  0  0  0  0  0
   17.6720  -56.8190   32.0920 N   0  0  0  0  0  0  0  0  0  0  0  0
   18.1480  -58.1100   31.6990 C   0  0  0  0  0  0  0  0  0  0  0  0
   18.5360  -58.3080   30.4790 C   0  0  0  0  0  0  0  0  0  0  0  0
   18.5210  -57.2280   29.3880 C   0  0  0  0  0  0  0  0  0  0  0  0
   19.0440  -59.5450   29.9410 C   0  0  0  0  0  0  0  0  0  0  0  0
   20.3390  -59.7310   29.5890 O   0  0  0  0  0  0  0  0  0  0  0  0
   20.9660  -59.0260   28.5550 C   0  0  0  0  0  0  0  0  0  0  0  0
   20.8250  -59.4690   27.4010 O   0  0  0  0  0  0  0  0  0  0  0  0
   21.7430  -57.8160   28.9130 C   0  0  0  0  0  0  0  0  0  0  0  0
   18.1520  -59.1520   32.7670 C   0  0  0  0  0  0  0  0  0  0  0  0
   17.4520  -60.1400   32.8170 O   0  0  0  0  0  0  0  0  0  0  0  0
   19.0480  -59.0080   33.8430 O   0  0  0  0  0  0  0  0  0  0  0  0
   17.0050  -56.0630   33.0870 C   0  0  0  0  0  0  0  0  0  0  0  0
   16.0820  -56.0740   33.9100 O   0  0  0  0  0  0  0  0  0  0  0  0
   18.0180  -54.9830   32.7450 C   0  0  1  0  0  0  0  0  0  0  0  0
   19.2310  -55.3010   33.4270 N   0  0  0  0  0  0  0  0  0  0  0  0
   20.0260  -54.2540   33.9540 C   0  0  0  0  0  0  0  0  0  0  0  0
   20.9860  -53.8260   33.2590 O   0  0  0  0  0  0  0  0  0  0  0  0
   19.7630  -53.6610   35.2690 C   0  0  0  0  0  0  0  0  0  0  0  0
   19.3990  -54.2350   36.3730 O   0  0  0  0  0  0  0  0  0  0  0  0
   19.2590  -53.3920   37.3450 C   0  0  0  0  0  0  0  0  0  0  0  0
   19.5600  -52.1220   36.8410 C   0  0  0  0  0  0  0  0  0  0  0  0
   19.8770  -52.3130   35.5230 C   0  0  0  0  0  0  0  0  0  0  0  0
   18.8520  -53.6690   38.7710 C   0  0  0  0  0  0  0  0  0  0  0  0
   17.4600  -53.5540   38.9240 O   0  0  0  0  0  0  0  0  0  0  0  0
   16.5420  -54.5390   38.7010 C   0  0  0  0  0  0  0  0  0  0  0  0
   15.5080  -54.8670   39.5730 C   0  0  0  0  0  0  0  0  0  0  0  0
   14.6350  -55.8800   39.2460 C   0  0  0  0  0  0  0  0  0  0  0  0
   14.7210  -56.6080   38.0820 C   0  0  0  0  0  0  0  0  0  0  0  0
   15.7460  -56.2880   37.2080 C   0  0  0  0  0  0  0  0  0  0  0  0
   16.6300  -55.2670   37.5320 C   0  0  0  0  0  0  0  0  0  0  0  0
   13.4810  -58.0010   37.6820 B   0  0  0  0  0  0  0  0  0  0  0  0
   16.8060  -55.2290   31.0080 H   0  0  0  0  0  0  0  0  0  0  0  0
   19.1570  -57.4800   28.5480 H   0  0  0  0  0  0  0  0  0  0  0  0
   17.4620  -57.1280   29.0950 H   0  0  0  0  0  0  0  0  0  0  0  0
   18.7890  -60.4030   30.6950 H   0  0  0  0  0  0  0  0  0  0  0  0
   18.3770  -59.8540   29.0360 H   0  0  0  0  0  0  0  0  0  0  0  0
   22.0590  -57.8670   29.9750 H   0  0  0  0  0  0  0  0  0  0  0  0
   21.1030  -56.8900   28.8020 H   0  0  0  0  0  0  0  0  0  0  0  0
   22.6300  -57.6720   28.2760 H   0  0  0  0  0  0  0  0  0  0  0  0
   17.6470  -53.9630   32.9390 H   0  0  0  0  0  0  0  0  0  0  0  0
   19.5820  -56.2820   33.5690 H   0  0  0  0  0  0  0  0  0  0  0  0
   19.5290  -51.2120   37.4330 H   0  0  0  0  0  0  0  0  0  0  0  0
   20.1610  -51.5260   34.8360 H   0  0  0  0  0  0  0  0  0  0  0  0
   19.4140  -53.0090   39.4660 H   0  0  0  0  0  0  0  0  0  0  0  0
   19.1320  -54.7100   39.0340 H   0  0  0  0  0  0  0  0  0  0  0  0
   15.4160  -54.3220   40.4880 H   0  0  0  0  0  0  0  0  0  0  0  0
   13.8460  -56.1130   39.9390 H   0  0  0  0  0  0  0  0  0  0  0  0
   15.8200  -56.8550   36.2920 H   0  0  0  0  0  0  0  0  0  0  0  0
   17.4080  -55.0810   36.7850 H   0  0  0  0  0  0  0  0  0  0  0  0
  1  2  1  0  0  0  0
  2 35  1  6  0  0  0
  2  3  1  0  0  0  0
  2 17  1  0  0  0  0
  3 15  1  0  0  0  0
  4  3  1  0  0  0  0
  4 12  1  0  0  0  0
  5  4  2  0  0  0  0
  6  1  1  0  0  0  0
  6  5  1  0  0  0  0
  7  5  1  0  0  0  0
  7 38  1  0  0  0  0
  8  7  1  0  0  0  0
  9 11  1  0  0  0  0
  9  8  1  0  0  0  0
 10  9  2  0  0  0  0
 11 40  1  0  0  0  0
 12 13  2  0  0  0  0
 12 14  1  0  0  0  0
 15 16  2  0  0  0  0
 17 43  1  1  0  0  0
 17 15  1  0  0  0  0
 17 18  1  0  0  0  0
 18 44  1  0  0  0  0
 18 19  1  0  0  0  0
 19 21  1  0  0  0  0
 20 19  2  0  0  0  0
 21 25  2  0  0  0  0
 21 22  1  0  0  0  0
 22 23  1  0  0  0  0
 23 26  1  0  0  0  0
 24 23  2  0  0  0  0
 24 45  1  0  0  0  0
 25 24  1  0  0  0  0
 26 27  1  0  0  0  0
 26 48  1  0  0  0  0
 26 47  1  0  0  0  0
 28 27  1  0  0  0  0
 28 29  1  0  0  0  0
 29 49  1  0  0  0  0
 30 29  2  0  0  0  0
 30 50  1  0  0  0  0
 31 30  1  0  0  0  0
 32 33  1  0  0  0  0
 32 31  2  0  0  0  0
 33 28  2  0  0  0  0
 34 31  1  0  0  0  0
 36  6  1  0  0  0  0
 37  6  1  0  0  0  0
 39  7  1  0  0  0  0
 41 11  1  0  0  0  0
 42 11  1  0  0  0  0
 46 25  1  0  0  0  0
 51 32  1  0  0  0  0
 52 33  1  0  0  0  0
M  END
>  <Pose>
1

>  <Score>
-7.14

$$$$
