
 OpenBabel03232204043D

 47 50  0  0  1  0  0  0  0  0999 V2000
   16.3970  -59.5850   33.4660 S   0  0  0  0  0  0  0  0  0  0  0  0
   17.4130  -60.7090   33.4880 O   0  0  0  0  0  0  0  0  0  0  0  0
   15.4020  -59.8650   32.3660 O   0  0  0  0  0  0  0  0  0  0  0  0
   15.6380  -59.5600   35.0030 N   0  0  0  0  0  0  0  0  0  0  0  0
   17.2280  -58.0850   33.1770 C   0  0  0  0  0  0  0  0  0  0  0  0
   17.8790  -57.4570   34.2140 C   0  0  0  0  0  0  0  0  0  0  0  0
   18.5580  -56.2560   34.0360 C   0  0  0  0  0  0  0  0  0  0  0  0
   18.5630  -55.7050   32.7740 C   0  0  0  0  0  0  0  0  0  0  0  0
   17.9070  -56.3360   31.7170 C   0  0  0  0  0  0  0  0  0  0  0  0
   17.2390  -57.5250   31.9120 C   0  0  0  0  0  0  0  0  0  0  0  0
   19.4680  -54.0720   32.4510 B   0  0  0  0  0  0  0  0  0  0  0  0
   19.2370  -55.6050   35.1390 C   0  0  0  0  0  0  0  0  0  0  0  0
   20.2440  -56.1550   35.6490 O   0  0  0  0  0  0  0  0  0  0  0  0
   18.7770  -54.3530   35.6430 N   0  0  0  0  0  0  0  0  0  0  0  0
   17.4150  -54.2030   36.1120 C   0  0  0  0  0  0  0  0  0  0  0  0
   17.3060  -53.3690   37.3490 C   0  0  2  0  0  0  0  0  0  0  0  0
   18.7130  -53.2720   37.9450 C   0  0  0  0  0  0  0  0  0  0  0  0
   19.5080  -52.4280   36.9720 C   0  0  0  0  0  0  0  0  0  0  0  0
   19.6550  -53.2130   35.6950 C   0  0  0  0  0  0  0  0  0  0  0  0
   16.3420  -53.9240   38.3520 C   0  0  0  0  0  0  0  0  0  0  0  0
   15.7070  -55.1230   38.2840 N   0  0  0  0  0  0  0  0  0  0  0  0
   14.9200  -55.2920   39.3510 C   0  0  0  0  0  0  0  0  0  0  0  0
   15.0840  -54.1550   40.0920 N   0  0  0  0  0  0  0  0  0  0  0  0
   15.9330  -53.3430   39.4910 N   0  0  0  0  0  0  0  0  0  0  0  0
   14.1990  -56.5970   39.3220 C   0  0  0  0  0  0  0  0  0  0  0  0
   14.9350  -57.3330   38.2460 C   0  0  0  0  0  0  0  0  0  0  0  0
   15.6210  -56.2770   37.4060 C   0  0  0  0  0  0  0  0  0  0  0  0
   16.1550  -58.9510   35.6830 H   0  0  0  0  0  0  0  0  0  0  0  0
   15.5570  -60.5350   35.3850 H   0  0  0  0  0  0  0  0  0  0  0  0
   17.8420  -57.9410   35.2020 H   0  0  0  0  0  0  0  0  0  0  0  0
   17.9430  -55.8600   30.7480 H   0  0  0  0  0  0  0  0  0  0  0  0
   16.7270  -58.0270   31.1110 H   0  0  0  0  0  0  0  0  0  0  0  0
   16.8820  -55.1690   36.1930 H   0  0  0  0  0  0  0  0  0  0  0  0
   16.8740  -53.6410   35.2970 H   0  0  0  0  0  0  0  0  0  0  0  0
   17.0150  -52.3170   37.1530 H   0  0  0  0  0  0  0  0  0  0  0  0
   18.6710  -52.8250   38.9510 H   0  0  0  0  0  0  0  0  0  0  0  0
   19.1650  -54.2770   37.9980 H   0  0  0  0  0  0  0  0  0  0  0  0
   18.9420  -51.4730   36.8070 H   0  0  0  0  0  0  0  0  0  0  0  0
   20.4820  -52.1830   37.4400 H   0  0  0  0  0  0  0  0  0  0  0  0
   20.7120  -53.6010   35.6890 H   0  0  0  0  0  0  0  0  0  0  0  0
   19.5340  -52.5410   34.8130 H   0  0  0  0  0  0  0  0  0  0  0  0
   14.3250  -57.1540   40.2840 H   0  0  0  0  0  0  0  0  0  0  0  0
   13.1320  -56.4130   39.0830 H   0  0  0  0  0  0  0  0  0  0  0  0
   15.6940  -58.0560   38.6510 H   0  0  0  0  0  0  0  0  0  0  0  0
   14.1980  -57.9150   37.6420 H   0  0  0  0  0  0  0  0  0  0  0  0
   14.9660  -56.0880   36.5310 H   0  0  0  0  0  0  0  0  0  0  0  0
   16.5870  -56.6200   37.0390 H   0  0  0  0  0  0  0  0  0  0  0  0
  1  2  2  0  0  0  0
  1  4  1  0  0  0  0
  3  1  2  0  0  0  0
  4 29  1  0  0  0  0
  4 28  1  0  0  0  0
  5  1  1  0  0  0  0
  5  6  1  0  0  0  0
  6 30  1  0  0  0  0
  7  6  2  0  0  0  0
  7 12  1  0  0  0  0
  8  7  1  0  0  0  0
  9 10  1  0  0  0  0
  9  8  2  0  0  0  0
 10  5  2  0  0  0  0
 11  8  1  0  0  0  0
 12 14  1  0  0  0  0
 12 13  2  0  0  0  0
 14 19  1  0  0  0  0
 14 15  1  0  0  0  0
 15 33  1  0  0  0  0
 15 16  1  0  0  0  0
 16 35  1  6  0  0  0
 16 17  1  0  0  0  0
 16 20  1  0  0  0  0
 17 37  1  0  0  0  0
 17 36  1  0  0  0  0
 18 39  1  0  0  0  0
 18 17  1  0  0  0  0
 19 18  1  0  0  0  0
 20 24  2  0  0  0  0
 21 20  1  0  0  0  0
 21 22  1  0  0  0  0
 22 23  2  0  0  0  0
 24 23  1  0  0  0  0
 25 22  1  0  0  0  0
 25 42  1  0  0  0  0
 26 44  1  0  0  0  0
 26 25  1  0  0  0  0
 27 26  1  0  0  0  0
 27 21  1  0  0  0  0
 31  9  1  0  0  0  0
 32 10  1  0  0  0  0
 34 15  1  0  0  0  0
 38 18  1  0  0  0  0
 40 19  1  0  0  0  0
 41 19  1  0  0  0  0
 43 25  1  0  0  0  0
 45 26  1  0  0  0  0
 46 27  1  0  0  0  0
 47 27  1  0  0  0  0
M  END
>  <Pose>
1

>  <Score>
-7.00

$$$$
