
 OpenBabel03232204043D

 54 57  0  0  0  0  0  0  0  0999 V2000
   14.9230  -55.6230   39.0650 S   0  0  0  0  0  0  0  0  0  0  0  0
   15.4400  -56.8040   39.8780 O   0  0  0  0  0  0  0  0  0  0  0  0
   14.6960  -54.5200   40.0420 O   0  0  0  0  0  0  0  0  0  0  0  0
   13.4570  -56.1630   38.3400 N   0  0  0  0  0  0  0  0  0  0  0  0
   13.6320  -57.3650   37.5500 C   0  0  0  0  0  0  0  0  0  0  0  0
   13.0210  -58.4990   38.3580 C   0  0  0  0  0  0  0  0  0  0  0  0
   11.8340  -59.0900   37.6450 C   0  0  0  0  0  0  0  0  0  0  0  0
   10.9480  -59.6360   38.6020 N   0  0  0  0  0  0  0  0  0  0  0  0
   11.1250  -59.2140   39.9460 C   0  0  0  0  0  0  0  0  0  0  0  0
   10.4770  -60.2390   40.8610 C   0  0  0  0  0  0  0  0  0  0  0  0
    9.2560  -60.6560   40.3700 O   0  0  0  0  0  0  0  0  0  0  0  0
    8.7140  -59.7950   39.4240 C   0  0  0  0  0  0  0  0  0  0  0  0
    9.6140  -59.8700   38.1870 C   0  0  0  0  0  0  0  0  0  0  0  0
   16.0890  -55.1870   37.8450 C   0  0  0  0  0  0  0  0  0  0  0  0
   16.3920  -56.0960   36.8260 C   0  0  0  0  0  0  0  0  0  0  0  0
   17.3140  -55.7740   35.8540 C   0  0  0  0  0  0  0  0  0  0  0  0
   17.9760  -54.5600   35.8320 C   0  0  0  0  0  0  0  0  0  0  0  0
   17.6860  -53.6650   36.8240 C   0  0  0  0  0  0  0  0  0  0  0  0
   16.7520  -53.9850   37.8150 C   0  0  0  0  0  0  0  0  0  0  0  0
   16.3440  -52.7190   39.1970 B   0  0  0  0  0  0  0  0  0  0  0  0
   18.8890  -54.5180   34.6560 C   0  0  0  0  0  0  0  0  0  0  0  0
   18.2890  -55.6190   33.7560 C   0  0  0  0  0  0  0  0  0  0  0  0
   17.7690  -56.5590   34.7370 N   0  0  0  0  0  0  0  0  0  0  0  0
   17.6970  -57.9710   34.6860 C   0  0  0  0  0  0  0  0  0  0  0  0
   18.6720  -58.7120   34.9500 O   0  0  0  0  0  0  0  0  0  0  0  0
   16.4130  -58.6030   34.3020 C   0  0  0  0  0  0  0  0  0  0  0  0
   15.3290  -57.6600   33.9720 C   0  0  0  0  0  0  0  0  0  0  0  0
   15.2380  -58.5230   35.2060 C   0  0  0  0  0  0  0  0  0  0  0  0
   12.7600  -56.3130   39.0960 H   0  0  0  0  0  0  0  0  0  0  0  0
   14.6760  -57.5620   37.2730 H   0  0  0  0  0  0  0  0  0  0  0  0
   12.9630  -57.2410   36.6510 H   0  0  0  0  0  0  0  0  0  0  0  0
   13.7660  -59.3020   38.5640 H   0  0  0  0  0  0  0  0  0  0  0  0
   12.6400  -58.0280   39.2970 H   0  0  0  0  0  0  0  0  0  0  0  0
   12.1530  -59.9210   36.9580 H   0  0  0  0  0  0  0  0  0  0  0  0
   11.3430  -58.3330   37.0190 H   0  0  0  0  0  0  0  0  0  0  0  0
   10.5950  -58.2550   40.0960 H   0  0  0  0  0  0  0  0  0  0  0  0
   12.2050  -59.1250   40.1500 H   0  0  0  0  0  0  0  0  0  0  0  0
   11.1420  -61.1270   40.9480 H   0  0  0  0  0  0  0  0  0  0  0  0
   10.4040  -59.8170   41.8860 H   0  0  0  0  0  0  0  0  0  0  0  0
    7.6870  -60.1400   39.2000 H   0  0  0  0  0  0  0  0  0  0  0  0
    8.6430  -58.7460   39.7860 H   0  0  0  0  0  0  0  0  0  0  0  0
    9.4400  -60.8270   37.6870 H   0  0  0  0  0  0  0  0  0  0  0  0
    9.2350  -59.0680   37.5110 H   0  0  0  0  0  0  0  0  0  0  0  0
   15.8760  -57.0610   36.8300 H   0  0  0  0  0  0  0  0  0  0  0  0
   18.1620  -52.6910   36.8820 H   0  0  0  0  0  0  0  0  0  0  0  0
   19.9260  -54.7540   34.8990 H   0  0  0  0  0  0  0  0  0  0  0  0
   18.8420  -53.5720   34.1030 H   0  0  0  0  0  0  0  0  0  0  0  0
   17.4090  -55.2160   33.2140 H   0  0  0  0  0  0  0  0  0  0  0  0
   19.0450  -56.0310   33.0920 H   0  0  0  0  0  0  0  0  0  0  0  0
   16.4950  -59.5380   33.6850 H   0  0  0  0  0  0  0  0  0  0  0  0
   15.4160  -56.5720   34.2380 H   0  0  0  0  0  0  0  0  0  0  0  0
   14.6560  -57.8290   33.1310 H   0  0  0  0  0  0  0  0  0  0  0  0
   15.3130  -58.0900   36.2150 H   0  0  0  0  0  0  0  0  0  0  0  0
   14.4840  -59.3300   35.1150 H   0  0  0  0  0  0  0  0  0  0  0  0
  1  2  2  0  0  0  0
  1  3  2  0  0  0  0
  4  1  1  0  0  0  0
  4 29  1  0  0  0  0
  5  4  1  0  0  0  0
  5  6  1  0  0  0  0
  6 32  1  0  0  0  0
  6 33  1  0  0  0  0
  7  6  1  0  0  0  0
  7  8  1  0  0  0  0
  8  9  1  0  0  0  0
  9 36  1  0  0  0  0
  9 37  1  0  0  0  0
  9 10  1  0  0  0  0
 10 38  1  0  0  0  0
 10 39  1  0  0  0  0
 11 10  1  0  0  0  0
 12 41  1  0  0  0  0
 12 11  1  0  0  0  0
 13  8  1  0  0  0  0
 13 12  1  0  0  0  0
 14  1  1  0  0  0  0
 15 44  1  0  0  0  0
 15 14  2  0  0  0  0
 16 15  1  0  0  0  0
 17 16  2  0  0  0  0
 17 18  1  0  0  0  0
 18 45  1  0  0  0  0
 18 19  2  0  0  0  0
 19 14  1  0  0  0  0
 19 20  1  0  0  0  0
 21 46  1  0  0  0  0
 21 17  1  0  0  0  0
 22 21  1  0  0  0  0
 22 23  1  0  0  0  0
 23 16  1  0  0  0  0
 24 23  1  0  0  0  0
 24 25  2  0  0  0  0
 26 24  1  0  0  0  0
 26 28  1  0  0  0  0
 27 51  1  0  0  0  0
 27 26  1  0  0  0  0
 27 28  1  0  0  0  0
 28 53  1  0  0  0  0
 30  5  1  0  0  0  0
 31  5  1  0  0  0  0
 34  7  1  0  0  0  0
 35  7  1  0  0  0  0
 40 12  1  0  0  0  0
 42 13  1  0  0  0  0
 43 13  1  0  0  0  0
 47 21  1  0  0  0  0
 48 22  1  0  0  0  0
 49 22  1  0  0  0  0
 50 26  1  0  0  0  0
 52 27  1  0  0  0  0
 54 28  1  0  0  0  0
M  END
>  <Pose>
1

>  <Score>
-7.86

$$$$
