
 OpenBabel03232204043D

 54 57  0  0  0  0  0  0  0  0999 V2000
   18.1320  -56.3950   34.2430 S   0  0  0  0  0  0  0  0  0  0  0  0
   19.3350  -55.9920   33.3900 O   0  0  0  0  0  0  0  0  0  0  0  0
   18.5550  -57.6960   34.8860 O   0  0  0  0  0  0  0  0  0  0  0  0
   16.8380  -56.6440   33.2070 N   0  0  0  0  0  0  0  0  0  0  0  0
   15.9050  -57.6520   33.4360 C   0  0  0  0  0  0  0  0  0  0  0  0
   16.2570  -58.9830   32.8930 C   0  0  0  0  0  0  0  0  0  0  0  0
   15.8120  -60.0330   33.4160 O   0  0  0  0  0  0  0  0  0  0  0  0
   17.1150  -58.9950   31.7580 N   0  0  0  0  0  0  0  0  0  0  0  0
   17.3140  -57.7550   31.0990 C   0  0  0  0  0  0  0  0  0  0  0  0
   17.6130  -57.7730   29.8720 O   0  0  0  0  0  0  0  0  0  0  0  0
   17.1830  -56.4630   31.8040 C   0  0  0  0  0  0  0  0  0  0  0  0
   17.7350  -60.2270   31.3200 C   0  0  0  0  0  0  0  0  0  0  0  0
   16.7980  -61.2140   30.7140 C   0  0  0  0  0  0  0  0  0  0  0  0
   16.1370  -60.7950   29.4800 C   0  0  0  0  0  0  0  0  0  0  0  0
   14.7760  -60.7800   29.3510 C   0  0  0  0  0  0  0  0  0  0  0  0
   14.2200  -60.3810   28.1680 C   0  0  0  0  0  0  0  0  0  0  0  0
   14.9990  -59.9870   27.0850 C   0  0  0  0  0  0  0  0  0  0  0  0
   16.3580  -60.0100   27.2390 C   0  0  0  0  0  0  0  0  0  0  0  0
   16.9490  -60.4050   28.4140 C   0  0  0  0  0  0  0  0  0  0  0  0
   17.9520  -55.1510   35.4500 C   0  0  0  0  0  0  0  0  0  0  0  0
   17.0950  -55.3950   36.5310 C   0  0  0  0  0  0  0  0  0  0  0  0
   16.8180  -54.4710   37.5120 C   0  0  0  0  0  0  0  0  0  0  0  0
   17.3970  -53.2210   37.4630 C   0  0  0  0  0  0  0  0  0  0  0  0
   18.2410  -52.9650   36.4110 C   0  0  0  0  0  0  0  0  0  0  0  0
   18.5220  -53.9120   35.4130 C   0  0  0  0  0  0  0  0  0  0  0  0
   19.7960  -53.4720   34.0490 B   0  0  0  0  0  0  0  0  0  0  0  0
   16.9610  -52.3980   38.6180 C   0  0  0  0  0  0  0  0  0  0  0  0
   16.4290  -53.4670   39.5740 C   0  0  0  0  0  0  0  0  0  0  0  0
   15.9860  -54.5260   38.6730 N   0  0  0  0  0  0  0  0  0  0  0  0
   14.9220  -55.4070   38.9360 C   0  0  0  0  0  0  0  0  0  0  0  0
   14.3860  -55.3880   40.0980 O   0  0  0  0  0  0  0  0  0  0  0  0
   14.3430  -56.3780   37.9770 C   0  0  0  0  0  0  0  0  0  0  0  0
   14.9290  -57.3270   32.9040 H   0  0  0  0  0  0  0  0  0  0  0  0
   15.5880  -57.7060   34.4780 H   0  0  0  0  0  0  0  0  0  0  0  0
   18.1110  -55.8880   31.6470 H   0  0  0  0  0  0  0  0  0  0  0  0
   16.3540  -55.8980   31.3390 H   0  0  0  0  0  0  0  0  0  0  0  0
   18.2930  -60.6910   32.1750 H   0  0  0  0  0  0  0  0  0  0  0  0
   18.5160  -60.0060   30.5480 H   0  0  0  0  0  0  0  0  0  0  0  0
   16.0050  -61.4140   31.4700 H   0  0  0  0  0  0  0  0  0  0  0  0
   17.3380  -62.1820   30.5970 H   0  0  0  0  0  0  0  0  0  0  0  0
   14.1550  -61.0760   30.1610 H   0  0  0  0  0  0  0  0  0  0  0  0
   13.1390  -60.3520   28.0160 H   0  0  0  0  0  0  0  0  0  0  0  0
   14.5460  -59.6700   26.1460 H   0  0  0  0  0  0  0  0  0  0  0  0
   17.0070  -59.7090   26.4170 H   0  0  0  0  0  0  0  0  0  0  0  0
   18.0280  -60.4030   28.4750 H   0  0  0  0  0  0  0  0  0  0  0  0
   16.6480  -56.3910   36.5590 H   0  0  0  0  0  0  0  0  0  0  0  0
   18.7290  -51.9980   36.3160 H   0  0  0  0  0  0  0  0  0  0  0  0
   16.1560  -51.6950   38.3780 H   0  0  0  0  0  0  0  0  0  0  0  0
   17.8100  -51.8560   39.0930 H   0  0  0  0  0  0  0  0  0  0  0  0
   15.5760  -53.0730   40.1450 H   0  0  0  0  0  0  0  0  0  0  0  0
   17.2500  -53.8520   40.1890 H   0  0  0  0  0  0  0  0  0  0  0  0
   13.3530  -56.7610   38.3600 H   0  0  0  0  0  0  0  0  0  0  0  0
   14.9580  -57.2950   37.8690 H   0  0  0  0  0  0  0  0  0  0  0  0
   14.2020  -55.9180   36.9720 H   0  0  0  0  0  0  0  0  0  0  0  0
  1  3  2  0  0  0  0
  1 20  1  0  0  0  0
  2  1  2  0  0  0  0
  4  5  1  0  0  0  0
  4  1  1  0  0  0  0
  5 34  1  0  0  0  0
  6  7  2  0  0  0  0
  6  5  1  0  0  0  0
  8  6  1  0  0  0  0
  9  8  1  0  0  0  0
  9 11  1  0  0  0  0
 10  9  2  0  0  0  0
 11  4  1  0  0  0  0
 12  8  1  0  0  0  0
 12 37  1  0  0  0  0
 13 12  1  0  0  0  0
 13 39  1  0  0  0  0
 14 13  1  0  0  0  0
 15 14  1  0  0  0  0
 15 41  1  0  0  0  0
 16 15  2  0  0  0  0
 17 18  2  0  0  0  0
 17 16  1  0  0  0  0
 18 19  1  0  0  0  0
 19 45  1  0  0  0  0
 19 14  2  0  0  0  0
 20 21  1  0  0  0  0
 21 46  1  0  0  0  0
 21 22  2  0  0  0  0
 22 29  1  0  0  0  0
 23 22  1  0  0  0  0
 23 27  1  0  0  0  0
 24 23  2  0  0  0  0
 25 20  2  0  0  0  0
 25 24  1  0  0  0  0
 26 25  1  0  0  0  0
 27 49  1  0  0  0  0
 27 28  1  0  0  0  0
 28 50  1  0  0  0  0
 28 51  1  0  0  0  0
 29 30  1  0  0  0  0
 29 28  1  0  0  0  0
 30 31  2  0  0  0  0
 32 52  1  0  0  0  0
 32 30  1  0  0  0  0
 33  5  1  0  0  0  0
 35 11  1  0  0  0  0
 36 11  1  0  0  0  0
 38 12  1  0  0  0  0
 40 13  1  0  0  0  0
 42 16  1  0  0  0  0
 43 17  1  0  0  0  0
 44 18  1  0  0  0  0
 47 24  1  0  0  0  0
 48 27  1  0  0  0  0
 53 32  1  0  0  0  0
 54 32  1  0  0  0  0
M  END
>  <Pose>
1

>  <Score>
-7.22

$$$$
