
 OpenBabel03232204043D

 41 44  0  0  0  0  0  0  0  0999 V2000
   16.9680  -58.7090   32.7320 S   0  0  0  0  0  0  0  0  0  0  0  0
   16.0260  -59.2580   31.6990 O   0  0  0  0  0  0  0  0  0  0  0  0
   17.7890  -59.8770   33.2240 O   0  0  0  0  0  0  0  0  0  0  0  0
   16.0690  -57.9970   33.9700 N   0  0  0  0  0  0  0  0  0  0  0  0
   15.5430  -58.8070   35.0100 C   0  0  0  0  0  0  0  0  0  0  0  0
   16.4570  -58.1920   35.9970 C   0  0  0  0  0  0  0  0  0  0  0  0
   16.8170  -57.2400   34.9100 C   0  0  0  0  0  0  0  0  0  0  0  0
   15.8370  -57.5370   37.1330 N   0  0  0  0  0  0  0  0  0  0  0  0
   14.9760  -58.0290   37.9850 N   0  0  0  0  0  0  0  0  0  0  0  0
   14.6390  -57.1050   38.8940 N   0  0  0  0  0  0  0  0  0  0  0  0
   15.3070  -55.9700   38.6210 C   0  0  0  0  0  0  0  0  0  0  0  0
   16.0640  -56.2640   37.4960 C   0  0  0  0  0  0  0  0  0  0  0  0
   15.2530  -54.6660   39.3630 C   0  0  0  0  0  0  0  0  0  0  0  0
   16.4410  -53.9090   39.0160 N   0  0  0  0  0  0  0  0  0  0  0  0
   17.6670  -54.4600   38.5200 C   0  0  0  0  0  0  0  0  0  0  0  0
   18.5620  -53.2880   38.2340 C   0  0  0  0  0  0  0  0  0  0  0  0
   17.7490  -52.0380   38.3270 C   0  0  0  0  0  0  0  0  0  0  0  0
   16.5550  -52.4930   39.1200 C   0  0  0  0  0  0  0  0  0  0  0  0
   15.8150  -51.7160   39.7510 O   0  0  0  0  0  0  0  0  0  0  0  0
   18.0370  -57.5840   31.8970 C   0  0  0  0  0  0  0  0  0  0  0  0
   19.5020  -57.9340   31.0780 S   0  0  0  0  0  0  0  0  0  0  0  0
   19.9110  -56.3580   30.5620 C   0  0  0  0  0  0  0  0  0  0  0  0
   18.8780  -55.6010   31.0520 C   0  0  0  0  0  0  0  0  0  0  0  0
   17.9220  -56.2350   31.7340 C   0  0  0  0  0  0  0  0  0  0  0  0
   21.4330  -55.7580   29.5450 B   0  0  0  0  0  0  0  0  0  0  0  0
   15.7110  -59.8950   34.7850 H   0  0  0  0  0  0  0  0  0  0  0  0
   14.4520  -58.6290   35.1820 H   0  0  0  0  0  0  0  0  0  0  0  0
   17.2420  -58.9110   36.3060 H   0  0  0  0  0  0  0  0  0  0  0  0
   17.8970  -57.0970   34.7140 H   0  0  0  0  0  0  0  0  0  0  0  0
   16.3540  -56.2390   35.0670 H   0  0  0  0  0  0  0  0  0  0  0  0
   16.7280  -55.5440   37.0150 H   0  0  0  0  0  0  0  0  0  0  0  0
   14.3340  -54.0960   39.0950 H   0  0  0  0  0  0  0  0  0  0  0  0
   15.2820  -54.8880   40.4370 H   0  0  0  0  0  0  0  0  0  0  0  0
   18.1300  -55.1210   39.2850 H   0  0  0  0  0  0  0  0  0  0  0  0
   17.5360  -55.0190   37.5550 H   0  0  0  0  0  0  0  0  0  0  0  0
   19.4460  -53.2860   38.9090 H   0  0  0  0  0  0  0  0  0  0  0  0
   18.9850  -53.3300   37.1940 H   0  0  0  0  0  0  0  0  0  0  0  0
   18.3020  -51.2530   38.9060 H   0  0  0  0  0  0  0  0  0  0  0  0
   17.4500  -51.6140   37.3490 H   0  0  0  0  0  0  0  0  0  0  0  0
   18.8790  -54.5090   30.8640 H   0  0  0  0  0  0  0  0  0  0  0  0
   17.0450  -55.7180   32.1720 H   0  0  0  0  0  0  0  0  0  0  0  0
  1  3  2  0  0  0  0
  1  4  1  0  0  0  0
  2  1  2  0  0  0  0
  4  7  1  0  0  0  0
  4  5  1  0  0  0  0
  5 27  1  0  0  0  0
  5  6  1  0  0  0  0
  6 28  1  0  0  0  0
  6  8  1  0  0  0  0
  7 30  1  0  0  0  0
  7  6  1  0  0  0  0
  8 12  1  0  0  0  0
  8  9  1  0  0  0  0
  9 10  2  0  0  0  0
 11 10  1  0  0  0  0
 11 13  1  0  0  0  0
 12 11  2  0  0  0  0
 13 33  1  0  0  0  0
 14 18  1  0  0  0  0
 14 13  1  0  0  0  0
 15 14  1  0  0  0  0
 15 34  1  0  0  0  0
 16 17  1  0  0  0  0
 16 15  1  0  0  0  0
 16 36  1  0  0  0  0
 17 38  1  0  0  0  0
 17 18  1  0  0  0  0
 18 19  2  0  0  0  0
 20  1  1  0  0  0  0
 21 20  1  0  0  0  0
 22 23  2  0  0  0  0
 22 21  1  0  0  0  0
 23 24  1  0  0  0  0
 24 20  2  0  0  0  0
 24 41  1  0  0  0  0
 25 22  1  0  0  0  0
 26  5  1  0  0  0  0
 29  7  1  0  0  0  0
 31 12  1  0  0  0  0
 32 13  1  0  0  0  0
 35 15  1  0  0  0  0
 37 16  1  0  0  0  0
 39 17  1  0  0  0  0
 40 23  1  0  0  0  0
M  END
>  <Pose>
1

>  <Score>
-6.34

$$$$
