
 OpenBabel03232204043D

 50 53  0  0  0  0  0  0  0  0999 V2000
   15.5920  -53.6700   39.1070 S   0  0  0  0  0  0  0  0  0  0  0  0
   14.7880  -52.7660   38.2150 O   0  0  0  0  0  0  0  0  0  0  0  0
   15.0410  -53.4770   40.5100 O   0  0  0  0  0  0  0  0  0  0  0  0
   17.2220  -53.2120   39.0430 N   0  0  0  0  0  0  0  0  0  0  0  0
   18.1660  -54.2650   38.8870 C   0  0  0  0  0  0  0  0  0  0  0  0
   18.8090  -54.4430   37.5910 C   0  0  0  0  0  0  0  0  0  0  0  0
   18.7100  -53.3710   36.6200 N   0  0  0  0  0  0  0  0  0  0  0  0
   17.7870  -52.2950   36.8110 C   0  0  0  0  0  0  0  0  0  0  0  0
   17.4990  -52.0460   38.2860 C   0  0  0  0  0  0  0  0  0  0  0  0
   19.5590  -53.4120   35.5130 C   0  0  0  0  0  0  0  0  0  0  0  0
   20.2460  -52.2550   35.3990 O   0  0  0  0  0  0  0  0  0  0  0  0
   19.8450  -54.3930   34.5060 C   0  0  0  0  0  0  0  0  0  0  0  0
   18.7920  -55.2270   33.9310 C   0  0  0  0  0  0  0  0  0  0  0  0
   18.7030  -55.4350   32.5770 C   0  0  0  0  0  0  0  0  0  0  0  0
   17.6970  -56.2390   32.0410 C   0  0  0  0  0  0  0  0  0  0  0  0
   16.7920  -56.8270   32.8750 C   0  0  0  0  0  0  0  0  0  0  0  0
   16.8790  -56.6220   34.2530 C   0  0  0  0  0  0  0  0  0  0  0  0
   17.8600  -55.8370   34.7720 C   0  0  0  0  0  0  0  0  0  0  0  0
   19.9590  -54.6140   31.3850 B   0  0  0  0  0  0  0  0  0  0  0  0
   15.2790  -55.3020   38.5560 C   0  0  0  0  0  0  0  0  0  0  0  0
   14.1020  -55.9510   38.9290 C   0  0  0  0  0  0  0  0  0  0  0  0
   13.8050  -57.2380   38.5380 C   0  0  0  0  0  0  0  0  0  0  0  0
   14.6750  -57.9540   37.7470 C   0  0  0  0  0  0  0  0  0  0  0  0
   15.8400  -57.3190   37.3750 C   0  0  0  0  0  0  0  0  0  0  0  0
   16.1470  -56.0210   37.7650 C   0  0  0  0  0  0  0  0  0  0  0  0
   14.3810  -59.2720   37.3450 O   0  0  0  0  0  0  0  0  0  0  0  0
   13.0090  -59.6980   37.2650 C   0  0  0  0  0  0  0  0  0  0  0  0
   12.3640  -59.2230   38.5170 C   0  0  0  0  0  0  0  0  0  0  0  0
   11.6250  -59.9570   39.2120 O   0  0  0  0  0  0  0  0  0  0  0  0
   12.5900  -57.8920   38.9450 N   0  0  0  0  0  0  0  0  0  0  0  0
   17.6230  -55.2230   39.1460 H   0  0  0  0  0  0  0  0  0  0  0  0
   18.9180  -54.1510   39.7240 H   0  0  0  0  0  0  0  0  0  0  0  0
   19.9120  -54.6450   37.7330 H   0  0  0  0  0  0  0  0  0  0  0  0
   18.4420  -55.3740   37.0490 H   0  0  0  0  0  0  0  0  0  0  0  0
   16.8650  -52.5280   36.2620 H   0  0  0  0  0  0  0  0  0  0  0  0
   18.1290  -51.3140   36.4270 H   0  0  0  0  0  0  0  0  0  0  0  0
   16.6580  -51.3430   38.3400 H   0  0  0  0  0  0  0  0  0  0  0  0
   18.4450  -51.6040   38.7040 H   0  0  0  0  0  0  0  0  0  0  0  0
   20.3900  -53.8710   33.6300 H   0  0  0  0  0  0  0  0  0  0  0  0
   20.6510  -55.0860   34.9030 H   0  0  0  0  0  0  0  0  0  0  0  0
   17.6820  -56.3580   30.9680 H   0  0  0  0  0  0  0  0  0  0  0  0
   16.0240  -57.4430   32.4590 H   0  0  0  0  0  0  0  0  0  0  0  0
   16.1270  -57.1190   34.8820 H   0  0  0  0  0  0  0  0  0  0  0  0
   17.9590  -55.6540   35.8390 H   0  0  0  0  0  0  0  0  0  0  0  0
   13.4080  -55.3970   39.5530 H   0  0  0  0  0  0  0  0  0  0  0  0
   16.5400  -57.8860   36.7420 H   0  0  0  0  0  0  0  0  0  0  0  0
   17.0770  -55.5490   37.4500 H   0  0  0  0  0  0  0  0  0  0  0  0
   12.4920  -59.1280   36.4340 H   0  0  0  0  0  0  0  0  0  0  0  0
   13.0240  -60.7680   37.1270 H   0  0  0  0  0  0  0  0  0  0  0  0
   11.9450  -57.3480   39.5360 H   0  0  0  0  0  0  0  0  0  0  0  0
  1  3  2  0  0  0  0
  2  1  2  0  0  0  0
  4  1  1  0  0  0  0
  5  4  1  0  0  0  0
  5 31  1  0  0  0  0
  5 32  1  0  0  0  0
  6 33  1  0  0  0  0
  6  5  1  0  0  0  0
  7  8  1  0  0  0  0
  7  6  1  0  0  0  0
  8  9  1  0  0  0  0
  9 37  1  0  0  0  0
  9 38  1  0  0  0  0
  9  4  1  0  0  0  0
 10  7  1  0  0  0  0
 11 10  2  0  0  0  0
 12 40  1  0  0  0  0
 12 10  1  0  0  0  0
 13 12  1  0  0  0  0
 13 18  1  0  0  0  0
 14 13  2  0  0  0  0
 15 14  1  0  0  0  0
 15 16  2  0  0  0  0
 16 17  1  0  0  0  0
 17 18  2  0  0  0  0
 17 43  1  0  0  0  0
 18 44  1  0  0  0  0
 19 14  1  0  0  0  0
 20 21  1  0  0  0  0
 20  1  1  0  0  0  0
 21 45  1  0  0  0  0
 22 21  2  0  0  0  0
 22 30  1  0  0  0  0
 23 22  1  0  0  0  0
 24 23  2  0  0  0  0
 24 25  1  0  0  0  0
 25 20  2  0  0  0  0
 26 23  1  0  0  0  0
 27 26  1  0  0  0  0
 27 28  1  0  0  0  0
 28 30  1  0  0  0  0
 28 29  2  0  0  0  0
 30 50  1  0  0  0  0
 34  6  1  0  0  0  0
 35  8  1  0  0  0  0
 36  8  1  0  0  0  0
 39 12  1  0  0  0  0
 41 15  1  0  0  0  0
 42 16  1  0  0  0  0
 46 24  1  0  0  0  0
 47 25  1  0  0  0  0
 48 27  1  0  0  0  0
 49 27  1  0  0  0  0
M  END
>  <Pose>
1

>  <Score>
-7.97

$$$$
