
 OpenBabel03232204043D

 53 56  0  0  0  0  0  0  0  0999 V2000
   15.7000  -58.3360   36.6490 S   0  0  0  0  0  0  0  0  0  0  0  0
   16.4950  -59.5590   37.1250 O   0  0  0  0  0  0  0  0  0  0  0  0
   16.2660  -57.2040   37.5110 O   0  0  0  0  0  0  0  0  0  0  0  0
   16.0160  -58.1080   35.0390 N   0  0  0  0  0  0  0  0  0  0  0  0
   16.2350  -56.8680   34.4600 C   0  0  0  0  0  0  0  0  0  0  0  0
   16.1850  -57.0410   32.9170 C   0  0  0  0  0  0  0  0  0  0  0  0
   17.0670  -58.1030   32.5220 N   0  0  0  0  0  0  0  0  0  0  0  0
   16.8130  -59.4070   33.0910 C   0  0  0  0  0  0  0  0  0  0  0  0
   15.7640  -59.2210   34.1650 C   0  0  0  0  0  0  0  0  0  0  0  0
   18.1410  -57.9350   31.6270 C   0  0  0  0  0  0  0  0  0  0  0  0
   19.2760  -58.3520   31.9510 O   0  0  0  0  0  0  0  0  0  0  0  0
   17.9510  -57.2830   30.3310 C   0  0  0  0  0  0  0  0  0  0  0  0
   18.9630  -56.2520   30.1200 N   0  0  0  0  0  0  0  0  0  0  0  0
   19.3970  -55.2220   30.9840 C   0  0  0  0  0  0  0  0  0  0  0  0
   18.9480  -55.0150   32.1590 O   0  0  0  0  0  0  0  0  0  0  0  0
   20.4040  -54.4870   30.3000 N   0  0  0  0  0  0  0  0  0  0  0  0
   20.9080  -55.3360   29.2530 C   0  0  0  0  0  0  0  0  0  0  0  0
   22.0750  -56.1730   29.6630 C   0  0  0  0  0  0  0  0  0  0  0  0
   22.6200  -56.6320   28.3040 C   0  0  0  0  0  0  0  0  0  0  0  0
   22.4230  -55.4350   27.4140 C   0  0  0  0  0  0  0  0  0  0  0  0
   21.4240  -54.5430   28.0740 C   0  0  0  0  0  0  0  0  0  0  0  0
   19.7160  -56.1400   28.8950 C   0  0  0  0  0  0  0  0  0  0  0  0
   19.4350  -56.6140   27.7710 O   0  0  0  0  0  0  0  0  0  0  0  0
   14.0590  -58.6390   37.1300 C   0  0  0  0  0  0  0  0  0  0  0  0
   13.3840  -58.0220   38.1490 C   0  0  0  0  0  0  0  0  0  0  0  0
   12.0750  -58.3770   38.4900 C   0  0  0  0  0  0  0  0  0  0  0  0
   11.4030  -59.3540   37.8250 C   0  0  0  0  0  0  0  0  0  0  0  0
   12.0490  -59.9890   36.7990 C   0  0  0  0  0  0  0  0  0  0  0  0
   13.3360  -59.6440   36.4610 C   0  0  0  0  0  0  0  0  0  0  0  0
   14.2200  -56.5990   39.0850 B   0  0  0  0  0  0  0  0  0  0  0  0
   17.1760  -56.3460   34.7250 H   0  0  0  0  0  0  0  0  0  0  0  0
   15.3940  -56.1740   34.6530 H   0  0  0  0  0  0  0  0  0  0  0  0
   15.1440  -57.2690   32.6640 H   0  0  0  0  0  0  0  0  0  0  0  0
   16.4370  -56.0580   32.5120 H   0  0  0  0  0  0  0  0  0  0  0  0
   16.3260  -60.0460   32.3040 H   0  0  0  0  0  0  0  0  0  0  0  0
   17.6960  -59.9290   33.4520 H   0  0  0  0  0  0  0  0  0  0  0  0
   15.6150  -60.1310   34.7730 H   0  0  0  0  0  0  0  0  0  0  0  0
   14.8030  -59.0260   33.6440 H   0  0  0  0  0  0  0  0  0  0  0  0
   16.9150  -56.8830   30.2030 H   0  0  0  0  0  0  0  0  0  0  0  0
   18.0760  -57.9980   29.4670 H   0  0  0  0  0  0  0  0  0  0  0  0
   20.6690  -53.5090   30.5760 H   0  0  0  0  0  0  0  0  0  0  0  0
   22.8350  -55.5190   30.1190 H   0  0  0  0  0  0  0  0  0  0  0  0
   21.7970  -57.0460   30.2850 H   0  0  0  0  0  0  0  0  0  0  0  0
   21.9840  -57.4620   27.9260 H   0  0  0  0  0  0  0  0  0  0  0  0
   23.6730  -56.9360   28.3940 H   0  0  0  0  0  0  0  0  0  0  0  0
   22.0390  -55.7190   26.4210 H   0  0  0  0  0  0  0  0  0  0  0  0
   23.3840  -54.8920   27.3680 H   0  0  0  0  0  0  0  0  0  0  0  0
   21.8410  -53.5900   28.4290 H   0  0  0  0  0  0  0  0  0  0  0  0
   20.5690  -54.2900   27.3880 H   0  0  0  0  0  0  0  0  0  0  0  0
   11.6200  -57.8480   39.3000 H   0  0  0  0  0  0  0  0  0  0  0  0
   10.3990  -59.5790   38.1370 H   0  0  0  0  0  0  0  0  0  0  0  0
   11.5130  -60.7650   36.2700 H   0  0  0  0  0  0  0  0  0  0  0  0
   13.8430  -60.1470   35.6490 H   0  0  0  0  0  0  0  0  0  0  0  0
  1  2  2  0  0  0  0
  1 24  1  0  0  0  0
  1  3  2  0  0  0  0
  4  1  1  0  0  0  0
  5 32  1  0  0  0  0
  5 31  1  0  0  0  0
  5  4  1  0  0  0  0
  6  5  1  0  0  0  0
  7  6  1  0  0  0  0
  7  8  1  0  0  0  0
  8 36  1  0  0  0  0
  8  9  1  0  0  0  0
  9 37  1  0  0  0  0
  9  4  1  0  0  0  0
 10 11  2  0  0  0  0
 10  7  1  0  0  0  0
 12 10  1  0  0  0  0
 13 12  1  0  0  0  0
 13 14  1  0  0  0  0
 14 15  2  0  0  0  0
 16 41  1  0  0  0  0
 16 14  1  0  0  0  0
 17 18  1  0  0  0  0
 17 16  1  0  0  0  0
 18 42  1  0  0  0  0
 18 43  1  0  0  0  0
 19 45  1  0  0  0  0
 19 18  1  0  0  0  0
 20 21  1  0  0  0  0
 20 19  1  0  0  0  0
 21 48  1  0  0  0  0
 21 17  1  0  0  0  0
 22 17  1  0  0  0  0
 22 13  1  0  0  0  0
 23 22  2  0  0  0  0
 24 25  1  0  0  0  0
 25 26  2  0  0  0  0
 25 30  1  0  0  0  0
 26 50  1  0  0  0  0
 27 51  1  0  0  0  0
 27 26  1  0  0  0  0
 28 27  2  0  0  0  0
 29 28  1  0  0  0  0
 29 24  2  0  0  0  0
 33  6  1  0  0  0  0
 34  6  1  0  0  0  0
 35  8  1  0  0  0  0
 38  9  1  0  0  0  0
 39 12  1  0  0  0  0
 40 12  1  0  0  0  0
 44 19  1  0  0  0  0
 46 20  1  0  0  0  0
 47 20  1  0  0  0  0
 49 21  1  0  0  0  0
 52 28  1  0  0  0  0
 53 29  1  0  0  0  0
M  END
>  <Pose>
1

>  <Score>
-6.43

$$$$
