
 OpenBabel03232204043D

 43 46  0  0  0  0  0  0  0  0999 V2000
   15.9670  -60.1360   32.6120 S   0  0  0  0  0  0  0  0  0  0  0  0
   16.9700  -60.9390   33.3770 O   0  0  0  0  0  0  0  0  0  0  0  0
   16.5280  -58.7350   32.4130 O   0  0  0  0  0  0  0  0  0  0  0  0
   14.5230  -59.9570   33.5330 N   0  0  0  0  0  0  0  0  0  0  0  0
   14.0470  -58.6250   33.6050 C   0  0  0  0  0  0  0  0  0  0  0  0
   14.0580  -57.9820   34.9490 C   0  0  0  0  0  0  0  0  0  0  0  0
   13.7950  -58.8880   36.0350 N   0  0  0  0  0  0  0  0  0  0  0  0
   13.5360  -60.2650   35.6770 C   0  0  0  0  0  0  0  0  0  0  0  0
   14.6820  -60.6510   34.7650 C   0  0  0  0  0  0  0  0  0  0  0  0
   13.7740  -58.5190   37.3930 C   0  0  0  0  0  0  0  0  0  0  0  0
   13.2710  -59.2900   38.2400 O   0  0  0  0  0  0  0  0  0  0  0  0
   14.3340  -57.2430   37.8230 C   0  0  0  0  0  0  0  0  0  0  0  0
   15.3000  -56.5690   37.2070 N   0  0  0  0  0  0  0  0  0  0  0  0
   15.5740  -55.4410   37.8670 N   0  0  0  0  0  0  0  0  0  0  0  0
   14.7740  -55.3520   38.9540 C   0  0  0  0  0  0  0  0  0  0  0  0
   13.9820  -56.5060   38.9250 C   0  0  0  0  0  0  0  0  0  0  0  0
   14.8390  -54.3010   39.8090 N   0  0  0  0  0  0  0  0  0  0  0  0
   15.7360  -53.3000   39.5710 C   0  0  0  0  0  0  0  0  0  0  0  0
   16.5640  -53.3620   38.4710 C   0  0  0  0  0  0  0  0  0  0  0  0
   16.4600  -54.4500   37.6340 C   0  0  0  0  0  0  0  0  0  0  0  0
   17.8270  -51.9500   38.1380 B   0  0  0  0  0  0  0  0  0  0  0  0
   15.6710  -60.9080   31.0750 C   0  0  0  0  0  0  0  0  0  0  0  0
   16.6030  -61.4450   30.2160 C   0  0  0  0  0  0  0  0  0  0  0  0
   15.9900  -61.9450   29.1430 N   0  0  0  0  0  0  0  0  0  0  0  0
   14.6920  -61.7530   29.2750 N   0  0  0  0  0  0  0  0  0  0  0  0
   14.4430  -61.1180   30.4480 C   0  0  0  0  0  0  0  0  0  0  0  0
   16.6010  -62.5920   28.0120 C   0  0  0  0  0  0  0  0  0  0  0  0
   14.6250  -57.9900   32.9020 H   0  0  0  0  0  0  0  0  0  0  0  0
   12.9970  -58.6140   33.2320 H   0  0  0  0  0  0  0  0  0  0  0  0
   15.0460  -57.4760   35.1620 H   0  0  0  0  0  0  0  0  0  0  0  0
   13.3030  -57.1700   35.0170 H   0  0  0  0  0  0  0  0  0  0  0  0
   13.5060  -60.9350   36.5560 H   0  0  0  0  0  0  0  0  0  0  0  0
   12.5800  -60.2700   35.1060 H   0  0  0  0  0  0  0  0  0  0  0  0
   14.6230  -61.7410   34.5600 H   0  0  0  0  0  0  0  0  0  0  0  0
   15.6320  -60.4380   35.2800 H   0  0  0  0  0  0  0  0  0  0  0  0
   13.2290  -56.7690   39.6380 H   0  0  0  0  0  0  0  0  0  0  0  0
   15.8230  -52.4430   40.2250 H   0  0  0  0  0  0  0  0  0  0  0  0
   17.1050  -54.5140   36.7640 H   0  0  0  0  0  0  0  0  0  0  0  0
   17.6880  -61.4820   30.3430 H   0  0  0  0  0  0  0  0  0  0  0  0
   13.4780  -60.8210   30.8410 H   0  0  0  0  0  0  0  0  0  0  0  0
   16.5470  -61.9010   27.1450 H   0  0  0  0  0  0  0  0  0  0  0  0
   16.0140  -63.4880   27.7260 H   0  0  0  0  0  0  0  0  0  0  0  0
   17.6600  -62.8490   28.2100 H   0  0  0  0  0  0  0  0  0  0  0  0
  1  2  2  0  0  0  0
  1  4  1  0  0  0  0
  3  1  2  0  0  0  0
  4  5  1  0  0  0  0
  4  9  1  0  0  0  0
  5  6  1  0  0  0  0
  6 31  1  0  0  0  0
  6 30  1  0  0  0  0
  6  7  1  0  0  0  0
  7 10  1  0  0  0  0
  8  7  1  0  0  0  0
  8 32  1  0  0  0  0
  9 35  1  0  0  0  0
  9  8  1  0  0  0  0
 10 12  1  0  0  0  0
 10 11  2  0  0  0  0
 12 16  1  0  0  0  0
 13 12  2  0  0  0  0
 13 14  1  0  0  0  0
 14 15  1  0  0  0  0
 15 17  1  0  0  0  0
 16 15  2  0  0  0  0
 16 36  1  0  0  0  0
 18 17  2  0  0  0  0
 18 37  1  0  0  0  0
 19 18  1  0  0  0  0
 20 14  1  0  0  0  0
 20 19  2  0  0  0  0
 21 19  1  0  0  0  0
 22  1  1  0  0  0  0
 23 39  1  0  0  0  0
 23 22  2  0  0  0  0
 24 25  1  0  0  0  0
 24 23  1  0  0  0  0
 25 26  2  0  0  0  0
 26 40  1  0  0  0  0
 26 22  1  0  0  0  0
 27 43  1  0  0  0  0
 27 24  1  0  0  0  0
 28  5  1  0  0  0  0
 29  5  1  0  0  0  0
 33  8  1  0  0  0  0
 34  9  1  0  0  0  0
 38 20  1  0  0  0  0
 41 27  1  0  0  0  0
 42 27  1  0  0  0  0
M  END
>  <Pose>
1

>  <Score>
-7.15

$$$$
