
 OpenBabel03232204043D

 52 55  0  0  0  0  0  0  0  0999 V2000
   15.3290  -56.9260   37.3870 S   0  0  0  0  0  0  0  0  0  0  0  0
   15.5350  -57.9800   38.4420 O   0  0  0  0  0  0  0  0  0  0  0  0
   13.8350  -56.8190   37.1800 O   0  0  0  0  0  0  0  0  0  0  0  0
   16.0170  -57.3750   35.8850 N   0  0  0  0  0  0  0  0  0  0  0  0
   15.4300  -58.5390   35.3010 C   0  0  0  0  0  0  0  0  0  0  0  0
   16.3810  -58.9670   34.1700 C   0  0  0  0  0  0  0  0  0  0  0  0
   17.0320  -57.8690   33.5990 N   0  0  0  0  0  0  0  0  0  0  0  0
   16.3020  -56.6310   33.5890 C   0  0  0  0  0  0  0  0  0  0  0  0
   15.7260  -56.2800   34.9420 C   0  0  0  0  0  0  0  0  0  0  0  0
   18.4290  -57.7480   33.6430 C   0  0  0  0  0  0  0  0  0  0  0  0
   19.1120  -57.3050   32.4710 N   0  0  0  0  0  0  0  0  0  0  0  0
   19.7310  -58.2300   31.5910 N   0  0  0  0  0  0  0  0  0  0  0  0
   20.2940  -57.4470   30.5420 C   0  0  0  0  0  0  0  0  0  0  0  0
   20.9590  -57.9770   29.5230 C   0  0  0  0  0  0  0  0  0  0  0  0
   21.6310  -57.4200   28.3270 C   0  0  0  0  0  0  0  0  0  0  0  0
   22.1010  -56.0070   28.5800 C   0  0  0  0  0  0  0  0  0  0  0  0
   20.8520  -55.1460   28.6060 C   0  0  0  0  0  0  0  0  0  0  0  0
   20.3830  -54.8870   30.0050 C   0  0  0  0  0  0  0  0  0  0  0  0
   20.0440  -56.0650   30.7430 N   0  0  0  0  0  0  0  0  0  0  0  0
   19.3030  -55.9950   31.9580 C   0  0  0  0  0  0  0  0  0  0  0  0
   18.9000  -54.9170   32.4610 O   0  0  0  0  0  0  0  0  0  0  0  0
   15.8900  -55.4130   37.9870 C   0  0  0  0  0  0  0  0  0  0  0  0
   16.8840  -54.6520   37.4450 C   0  0  0  0  0  0  0  0  0  0  0  0
   17.2610  -53.4420   38.0100 C   0  0  0  0  0  0  0  0  0  0  0  0
   16.6550  -52.9620   39.1320 C   0  0  0  0  0  0  0  0  0  0  0  0
   15.6410  -53.7140   39.7060 C   0  0  0  0  0  0  0  0  0  0  0  0
   15.2770  -54.9090   39.1390 C   0  0  0  0  0  0  0  0  0  0  0  0
   18.6640  -52.3860   37.2290 B   0  0  0  0  0  0  0  0  0  0  0  0
   15.2430  -59.3650   36.0050 H   0  0  0  0  0  0  0  0  0  0  0  0
   14.4520  -58.3010   34.8010 H   0  0  0  0  0  0  0  0  0  0  0  0
   17.0970  -59.6540   34.6500 H   0  0  0  0  0  0  0  0  0  0  0  0
   15.8200  -59.5840   33.4270 H   0  0  0  0  0  0  0  0  0  0  0  0
   17.0130  -55.8220   33.3210 H   0  0  0  0  0  0  0  0  0  0  0  0
   15.5430  -56.6750   32.7900 H   0  0  0  0  0  0  0  0  0  0  0  0
   14.6210  -56.2730   34.8320 H   0  0  0  0  0  0  0  0  0  0  0  0
   16.0360  -55.3100   35.3230 H   0  0  0  0  0  0  0  0  0  0  0  0
   18.8600  -58.7100   34.0150 H   0  0  0  0  0  0  0  0  0  0  0  0
   18.6790  -57.0160   34.4700 H   0  0  0  0  0  0  0  0  0  0  0  0
   19.7670  -59.2720   31.6920 H   0  0  0  0  0  0  0  0  0  0  0  0
   21.0110  -59.0730   29.6070 H   0  0  0  0  0  0  0  0  0  0  0  0
   20.9860  -57.4920   27.4270 H   0  0  0  0  0  0  0  0  0  0  0  0
   22.5520  -58.0480   28.1600 H   0  0  0  0  0  0  0  0  0  0  0  0
   22.8090  -55.6930   27.7960 H   0  0  0  0  0  0  0  0  0  0  0  0
   22.5330  -55.9780   29.6030 H   0  0  0  0  0  0  0  0  0  0  0  0
   21.1060  -54.1960   28.0960 H   0  0  0  0  0  0  0  0  0  0  0  0
   20.0370  -55.6230   28.0330 H   0  0  0  0  0  0  0  0  0  0  0  0
   21.2100  -54.3540   30.5330 H   0  0  0  0  0  0  0  0  0  0  0  0
   19.5180  -54.1860   29.9490 H   0  0  0  0  0  0  0  0  0  0  0  0
   17.3720  -55.0230   36.5550 H   0  0  0  0  0  0  0  0  0  0  0  0
   16.9560  -52.0120   39.5720 H   0  0  0  0  0  0  0  0  0  0  0  0
   15.1530  -53.3430   40.5960 H   0  0  0  0  0  0  0  0  0  0  0  0
   14.4800  -55.4710   39.6140 H   0  0  0  0  0  0  0  0  0  0  0  0
  1 22  1  0  0  0  0
  1  2  2  0  0  0  0
  3  1  2  0  0  0  0
  4  1  1  0  0  0  0
  5  4  1  0  0  0  0
  5 29  1  0  0  0  0
  6 31  1  0  0  0  0
  6  5  1  0  0  0  0
  7 10  1  0  0  0  0
  7  6  1  0  0  0  0
  8  7  1  0  0  0  0
  8  9  1  0  0  0  0
  9 36  1  0  0  0  0
  9  4  1  0  0  0  0
 10 37  1  0  0  0  0
 10 38  1  0  0  0  0
 11 10  1  0  0  0  0
 12 39  1  0  0  0  0
 12 11  1  0  0  0  0
 13 19  1  0  0  0  0
 13 12  1  0  0  0  0
 14 40  1  0  0  0  0
 14 13  2  0  0  0  0
 15 16  1  0  0  0  0
 15 14  1  0  0  0  0
 16 17  1  0  0  0  0
 16 44  1  0  0  0  0
 17 18  1  0  0  0  0
 18 47  1  0  0  0  0
 18 19  1  0  0  0  0
 19 20  1  0  0  0  0
 20 21  2  0  0  0  0
 20 11  1  0  0  0  0
 22 27  1  0  0  0  0
 23 22  2  0  0  0  0
 23 24  1  0  0  0  0
 24 25  2  0  0  0  0
 25 50  1  0  0  0  0
 25 26  1  0  0  0  0
 26 51  1  0  0  0  0
 27 52  1  0  0  0  0
 27 26  2  0  0  0  0
 28 24  1  0  0  0  0
 30  5  1  0  0  0  0
 32  6  1  0  0  0  0
 33  8  1  0  0  0  0
 34  8  1  0  0  0  0
 35  9  1  0  0  0  0
 41 15  1  0  0  0  0
 42 15  1  0  0  0  0
 43 16  1  0  0  0  0
 45 17  1  0  0  0  0
 46 17  1  0  0  0  0
 48 18  1  0  0  0  0
 49 23  1  0  0  0  0
M  END
>  <Pose>
1

>  <Score>
-6.87

$$$$
