
 OpenBabel03232204043D

 53 56  0  0  0  0  0  0  0  0999 V2000
   13.6190  -59.1910   34.1490 S   0  0  0  0  0  0  0  0  0  0  0  0
   12.6280  -58.4670   33.2520 O   0  0  0  0  0  0  0  0  0  0  0  0
   14.0180  -60.4660   33.4630 O   0  0  0  0  0  0  0  0  0  0  0  0
   15.0130  -58.1810   34.3180 N   0  0  0  0  0  0  0  0  0  0  0  0
   14.8680  -57.0740   33.4340 C   0  0  0  0  0  0  0  0  0  0  0  0
   16.1860  -56.5480   32.9060 C   0  0  0  0  0  0  0  0  0  0  0  0
   17.1960  -56.8670   33.8720 N   0  0  0  0  0  0  0  0  0  0  0  0
   17.4670  -58.2460   34.1540 C   0  0  0  0  0  0  0  0  0  0  0  0
   16.1680  -59.0060   34.0530 C   0  0  0  0  0  0  0  0  0  0  0  0
   17.9010  -55.8390   34.5210 C   0  0  0  0  0  0  0  0  0  0  0  0
   17.5120  -55.3240   35.6990 N   0  0  0  0  0  0  0  0  0  0  0  0
   18.1290  -54.3590   36.3570 C   0  0  0  0  0  0  0  0  0  0  0  0
   19.2780  -53.8310   35.7920 C   0  0  0  0  0  0  0  0  0  0  0  0
   19.7190  -54.3270   34.5860 C   0  0  0  0  0  0  0  0  0  0  0  0
   19.0270  -55.3120   33.9830 N   0  0  0  0  0  0  0  0  0  0  0  0
   20.9480  -53.7870   33.9450 C   0  0  0  0  0  0  0  0  0  0  0  0
   17.6140  -53.9020   37.5940 N   0  0  0  0  0  0  0  0  0  0  0  0
   17.5740  -52.5060   37.9780 C   0  0  0  0  0  0  0  0  0  0  0  0
   16.4730  -52.3850   39.0310 C   0  0  0  0  0  0  0  0  0  0  0  0
   15.4010  -53.1650   38.5910 O   0  0  0  0  0  0  0  0  0  0  0  0
   15.6170  -54.5170   38.7340 C   0  0  0  0  0  0  0  0  0  0  0  0
   17.0960  -54.8670   38.5360 C   0  0  0  0  0  0  0  0  0  0  0  0
   12.8600  -59.4940   35.6850 C   0  0  0  0  0  0  0  0  0  0  0  0
   13.3140  -58.8040   36.8000 C   0  0  0  0  0  0  0  0  0  0  0  0
   12.7610  -58.9920   38.0470 C   0  0  0  0  0  0  0  0  0  0  0  0
   11.7310  -59.8870   38.2070 C   0  0  0  0  0  0  0  0  0  0  0  0
   11.2510  -60.5940   37.1210 C   0  0  0  0  0  0  0  0  0  0  0  0
   11.8310  -60.3800   35.8730 C   0  0  0  0  0  0  0  0  0  0  0  0
   10.9770  -60.1360   39.9390 B   0  0  0  0  0  0  0  0  0  0  0  0
   14.1800  -57.2380   32.5870 H   0  0  0  0  0  0  0  0  0  0  0  0
   14.4170  -56.2250   34.0210 H   0  0  0  0  0  0  0  0  0  0  0  0
   16.1430  -55.4810   32.6480 H   0  0  0  0  0  0  0  0  0  0  0  0
   16.3740  -57.0950   31.9380 H   0  0  0  0  0  0  0  0  0  0  0  0
   17.9420  -58.3720   35.1520 H   0  0  0  0  0  0  0  0  0  0  0  0
   18.1690  -58.7120   33.4210 H   0  0  0  0  0  0  0  0  0  0  0  0
   16.1890  -59.8000   34.8290 H   0  0  0  0  0  0  0  0  0  0  0  0
   16.0460  -59.5240   33.0760 H   0  0  0  0  0  0  0  0  0  0  0  0
   19.7890  -53.0470   36.3200 H   0  0  0  0  0  0  0  0  0  0  0  0
   21.7840  -54.5310   34.0020 H   0  0  0  0  0  0  0  0  0  0  0  0
   20.7390  -53.6340   32.8700 H   0  0  0  0  0  0  0  0  0  0  0  0
   21.2250  -52.8030   34.3650 H   0  0  0  0  0  0  0  0  0  0  0  0
   18.5220  -52.1530   38.4250 H   0  0  0  0  0  0  0  0  0  0  0  0
   17.2690  -51.8620   37.1130 H   0  0  0  0  0  0  0  0  0  0  0  0
   16.1510  -51.3500   39.1450 H   0  0  0  0  0  0  0  0  0  0  0  0
   16.8430  -52.7650   39.9990 H   0  0  0  0  0  0  0  0  0  0  0  0
   15.0580  -55.0890   37.9360 H   0  0  0  0  0  0  0  0  0  0  0  0
   15.2670  -54.8890   39.7050 H   0  0  0  0  0  0  0  0  0  0  0  0
   17.6260  -54.7960   39.5160 H   0  0  0  0  0  0  0  0  0  0  0  0
   17.2060  -55.9000   38.1600 H   0  0  0  0  0  0  0  0  0  0  0  0
   14.1280  -58.0980   36.6680 H   0  0  0  0  0  0  0  0  0  0  0  0
   13.1190  -58.4500   38.9130 H   0  0  0  0  0  0  0  0  0  0  0  0
   10.4370  -61.3030   37.2390 H   0  0  0  0  0  0  0  0  0  0  0  0
   11.4640  -60.9310   35.0090 H   0  0  0  0  0  0  0  0  0  0  0  0
  1  4  1  0  0  0  0
  1 23  1  0  0  0  0
  2  1  2  0  0  0  0
  3  1  2  0  0  0  0
  5 31  1  0  0  0  0
  5  4  1  0  0  0  0
  6  5  1  0  0  0  0
  6  7  1  0  0  0  0
  7  8  1  0  0  0  0
  7 10  1  0  0  0  0
  8 34  1  0  0  0  0
  9  8  1  0  0  0  0
  9  4  1  0  0  0  0
  9 36  1  0  0  0  0
 10 11  2  0  0  0  0
 11 12  1  0  0  0  0
 12 17  1  0  0  0  0
 13 38  1  0  0  0  0
 13 12  2  0  0  0  0
 14 13  1  0  0  0  0
 15 10  1  0  0  0  0
 15 14  2  0  0  0  0
 16 39  1  0  0  0  0
 16 41  1  0  0  0  0
 16 14  1  0  0  0  0
 17 18  1  0  0  0  0
 17 22  1  0  0  0  0
 18 42  1  0  0  0  0
 18 19  1  0  0  0  0
 19 44  1  0  0  0  0
 19 45  1  0  0  0  0
 20 21  1  0  0  0  0
 20 19  1  0  0  0  0
 21 47  1  0  0  0  0
 22 21  1  0  0  0  0
 22 48  1  0  0  0  0
 23 28  2  0  0  0  0
 23 24  1  0  0  0  0
 24 25  2  0  0  0  0
 25 26  1  0  0  0  0
 25 51  1  0  0  0  0
 26 29  1  0  0  0  0
 27 52  1  0  0  0  0
 27 26  2  0  0  0  0
 28 27  1  0  0  0  0
 30  5  1  0  0  0  0
 32  6  1  0  0  0  0
 33  6  1  0  0  0  0
 35  8  1  0  0  0  0
 37  9  1  0  0  0  0
 40 16  1  0  0  0  0
 43 18  1  0  0  0  0
 46 21  1  0  0  0  0
 49 22  1  0  0  0  0
 50 24  1  0  0  0  0
 53 28  1  0  0  0  0
M  END
>  <Pose>
1

>  <Score>
-6.39

$$$$
