
 OpenBabel03232204043D

 37 40  0  0  0  0  0  0  0  0999 V2000
   19.6950  -54.2540   34.6120 S   0  0  0  0  0  0  0  0  0  0  0  0
   20.3480  -54.9120   35.8230 O   0  0  0  0  0  0  0  0  0  0  0  0
   20.7220  -54.2390   33.5400 O   0  0  0  0  0  0  0  0  0  0  0  0
   19.1660  -52.7320   35.0540 N   0  0  0  0  0  0  0  0  0  0  0  0
   19.5750  -52.1890   36.2910 C   0  0  0  0  0  0  0  0  0  0  0  0
   18.5750  -52.2780   37.4170 C   0  0  0  0  0  0  0  0  0  0  0  0
   17.3230  -52.8340   37.0090 N   0  0  0  0  0  0  0  0  0  0  0  0
   16.8040  -52.7240   35.6570 C   0  0  0  0  0  0  0  0  0  0  0  0
   17.8690  -52.3220   34.6790 C   0  0  0  0  0  0  0  0  0  0  0  0
   16.5210  -53.5390   37.9460 C   0  0  0  0  0  0  0  0  0  0  0  0
   16.0690  -52.8970   39.0630 N   0  0  0  0  0  0  0  0  0  0  0  0
   15.3080  -53.5380   39.9510 C   0  0  0  0  0  0  0  0  0  0  0  0
   14.9570  -54.8130   39.7940 N   0  0  0  0  0  0  0  0  0  0  0  0
   15.3870  -55.4580   38.7120 C   0  0  0  0  0  0  0  0  0  0  0  0
   15.2020  -56.7150   38.2990 N   0  0  0  0  0  0  0  0  0  0  0  0
   15.8620  -56.8830   37.1190 C   0  0  0  0  0  0  0  0  0  0  0  0
   16.4640  -55.7430   36.7780 N   0  0  0  0  0  0  0  0  0  0  0  0
   16.1870  -54.8520   37.7410 C   0  0  0  0  0  0  0  0  0  0  0  0
   18.4180  -55.3680   34.1160 C   0  0  0  0  0  0  0  0  0  0  0  0
   18.2930  -57.0500   34.3650 S   0  0  0  0  0  0  0  0  0  0  0  0
   16.8030  -57.3380   33.5960 C   0  0  0  0  0  0  0  0  0  0  0  0
   16.4360  -56.0890   33.1570 C   0  0  0  0  0  0  0  0  0  0  0  0
   17.2720  -55.0800   33.4290 C   0  0  0  0  0  0  0  0  0  0  0  0
   15.8530  -58.9810   33.3810 B   0  0  0  0  0  0  0  0  0  0  0  0
   20.5690  -52.5520   36.6450 H   0  0  0  0  0  0  0  0  0  0  0  0
   19.7570  -51.0870   36.1070 H   0  0  0  0  0  0  0  0  0  0  0  0
   18.5100  -51.2920   37.9190 H   0  0  0  0  0  0  0  0  0  0  0  0
   19.0130  -52.9470   38.2110 H   0  0  0  0  0  0  0  0  0  0  0  0
   16.3750  -53.6900   35.3310 H   0  0  0  0  0  0  0  0  0  0  0  0
   15.9780  -51.9800   35.6690 H   0  0  0  0  0  0  0  0  0  0  0  0
   17.6420  -52.7060   33.6650 H   0  0  0  0  0  0  0  0  0  0  0  0
   17.8600  -51.1970   34.6230 H   0  0  0  0  0  0  0  0  0  0  0  0
   14.9450  -53.0330   40.8410 H   0  0  0  0  0  0  0  0  0  0  0  0
   15.8680  -57.8140   36.5780 H   0  0  0  0  0  0  0  0  0  0  0  0
   17.0350  -55.6010   35.9250 H   0  0  0  0  0  0  0  0  0  0  0  0
   15.4730  -55.9680   32.6030 H   0  0  0  0  0  0  0  0  0  0  0  0
   17.0570  -54.0360   33.1130 H   0  0  0  0  0  0  0  0  0  0  0  0
  1  4  1  0  0  0  0
  1  2  2  0  0  0  0
  3  1  2  0  0  0  0
  4  5  1  0  0  0  0
  5 25  1  0  0  0  0
  5  6  1  0  0  0  0
  6 27  1  0  0  0  0
  6 28  1  0  0  0  0
  7  6  1  0  0  0  0
  7 10  1  0  0  0  0
  8 30  1  0  0  0  0
  8  7  1  0  0  0  0
  9  4  1  0  0  0  0
  9  8  1  0  0  0  0
 10 11  1  0  0  0  0
 11 12  2  0  0  0  0
 12 33  1  0  0  0  0
 13 12  1  0  0  0  0
 14 13  2  0  0  0  0
 15 14  1  0  0  0  0
 16 15  2  0  0  0  0
 17 16  1  0  0  0  0
 17 18  1  0  0  0  0
 18 10  2  0  0  0  0
 18 14  1  0  0  0  0
 19 20  1  0  0  0  0
 19  1  1  0  0  0  0
 21 20  1  0  0  0  0
 22 23  1  0  0  0  0
 22 21  2  0  0  0  0
 23 19  2  0  0  0  0
 24 21  1  0  0  0  0
 26  5  1  0  0  0  0
 29  8  1  0  0  0  0
 31  9  1  0  0  0  0
 32  9  1  0  0  0  0
 34 16  1  0  0  0  0
 35 17  1  0  0  0  0
 36 22  1  0  0  0  0
 37 23  1  0  0  0  0
M  END
>  <Pose>
1

>  <Score>
-6.67

$$$$
