
 OpenBabel03232204043D

 40 43  0  0  1  0  0  0  0  0999 V2000
   14.7310  -56.2200   38.8520 S   0  0  0  0  0  0  0  0  0  0  0  0
   13.7910  -55.1530   39.3510 O   0  0  0  0  0  0  0  0  0  0  0  0
   15.2100  -56.9680   40.0870 O   0  0  0  0  0  0  0  0  0  0  0  0
   16.0980  -55.5810   38.0710 N   0  0  0  0  0  0  0  0  0  0  0  0
   16.0720  -54.1580   38.1140 C   0  0  0  0  0  0  0  0  0  0  0  0
   17.4560  -53.5430   38.1310 C   0  0  0  0  0  0  0  0  0  0  0  0
   18.3070  -54.3820   37.3270 N   0  0  0  0  0  0  0  0  0  0  0  0
   18.5550  -55.7040   37.8420 C   0  0  0  0  0  0  0  0  0  0  0  0
   17.3090  -56.2140   38.4720 C   0  0  0  0  0  0  0  0  0  0  0  0
   18.8790  -53.9640   36.1030 C   0  0  1  0  0  0  0  0  0  0  0  0
   18.8490  -54.7240   35.0080 C   0  0  0  0  0  0  0  0  0  0  0  0
   19.4230  -54.3310   33.7340 C   0  0  0  0  0  0  0  0  0  0  0  0
   19.3640  -55.1280   32.6800 C   0  0  0  0  0  0  0  0  0  0  0  0
   20.0530  -53.0720   33.6360 N   0  0  0  0  0  0  0  0  0  0  0  0
   20.0660  -52.2800   34.8330 C   0  0  0  0  0  0  0  0  0  0  0  0
   19.5200  -52.6900   35.9880 N   0  0  0  0  0  0  0  0  0  0  0  0
   19.6900  -51.7400   36.9120 N   0  0  0  0  0  0  0  0  0  0  0  0
   20.3500  -50.7050   36.3640 C   0  0  0  0  0  0  0  0  0  0  0  0
   20.5760  -51.0490   35.0850 N   0  0  0  0  0  0  0  0  0  0  0  0
   13.8770  -57.4020   37.8630 C   0  0  0  0  0  0  0  0  0  0  0  0
   14.2020  -57.7930   36.2420 S   0  0  0  0  0  0  0  0  0  0  0  0
   13.0010  -58.9730   35.9950 C   0  0  0  0  0  0  0  0  0  0  0  0
   12.3650  -59.0330   37.2060 C   0  0  0  0  0  0  0  0  0  0  0  0
   12.8250  -58.2120   38.1800 C   0  0  0  0  0  0  0  0  0  0  0  0
   12.5980  -60.0020   34.4110 B   0  0  0  0  0  0  0  0  0  0  0  0
   15.4010  -53.7350   38.8900 H   0  0  0  0  0  0  0  0  0  0  0  0
   15.6140  -53.8150   37.1380 H   0  0  0  0  0  0  0  0  0  0  0  0
   17.4560  -52.4910   37.8230 H   0  0  0  0  0  0  0  0  0  0  0  0
   17.8290  -53.6070   39.1740 H   0  0  0  0  0  0  0  0  0  0  0  0
   18.9940  -56.3860   37.0880 H   0  0  0  0  0  0  0  0  0  0  0  0
   19.3640  -55.6220   38.6280 H   0  0  0  0  0  0  0  0  0  0  0  0
   17.2160  -57.2950   38.1500 H   0  0  0  0  0  0  0  0  0  0  0  0
   17.4460  -56.2770   39.5670 H   0  0  0  0  0  0  0  0  0  0  0  0
   18.3660  -55.6850   35.0910 H   0  0  0  0  0  0  0  0  0  0  0  0
   18.8780  -56.1010   32.7570 H   0  0  0  0  0  0  0  0  0  0  0  0
   19.7830  -54.8590   31.7230 H   0  0  0  0  0  0  0  0  0  0  0  0
   20.4900  -52.7010   32.7810 H   0  0  0  0  0  0  0  0  0  0  0  0
   20.6480  -49.7700   36.8490 H   0  0  0  0  0  0  0  0  0  0  0  0
   11.5090  -59.7470   37.3340 H   0  0  0  0  0  0  0  0  0  0  0  0
   12.3400  -58.2200   39.1890 H   0  0  0  0  0  0  0  0  0  0  0  0
  1  2  2  0  0  0  0
  1  3  2  0  0  0  0
  4  5  1  0  0  0  0
  4  9  1  0  0  0  0
  4  1  1  0  0  0  0
  5  6  1  0  0  0  0
  5 26  1  0  0  0  0
  6 29  1  0  0  0  0
  7  8  1  0  0  0  0
  7  6  1  0  0  0  0
  8  9  1  0  0  0  0
  8 31  1  0  0  0  0
  9 33  1  0  0  0  0
 10  7  1  6  0  0  0
 11 34  1  0  0  0  0
 11 10  1  0  0  0  0
 12 11  2  0  0  0  0
 13 35  1  0  0  0  0
 13 12  1  0  0  0  0
 14 12  1  0  0  0  0
 14 15  1  0  0  0  0
 15 19  2  0  0  0  0
 15 16  1  0  0  0  0
 16 10  1  0  0  0  0
 16 17  1  0  0  0  0
 18 38  1  0  0  0  0
 18 17  2  0  0  0  0
 19 18  1  0  0  0  0
 20 24  2  0  0  0  0
 20  1  1  0  0  0  0
 21 20  1  0  0  0  0
 22 21  1  0  0  0  0
 22 23  2  0  0  0  0
 23 39  1  0  0  0  0
 23 24  1  0  0  0  0
 24 40  1  0  0  0  0
 25 22  1  0  0  0  0
 27  5  1  0  0  0  0
 28  6  1  0  0  0  0
 30  8  1  0  0  0  0
 32  9  1  0  0  0  0
 36 13  1  0  0  0  0
 37 14  1  0  0  0  0
M  END
>  <Pose>
1

>  <Score>
-7.04

$$$$
