
 OpenBabel03232204043D

 43 46  0  0  0  0  0  0  0  0999 V2000
   14.9480  -56.2470   38.9940 S   0  0  0  0  0  0  0  0  0  0  0  0
   15.6410  -57.0070   40.1190 O   0  0  0  0  0  0  0  0  0  0  0  0
   13.7750  -55.5540   39.6220 O   0  0  0  0  0  0  0  0  0  0  0  0
   14.4310  -57.3950   37.8490 N   0  0  0  0  0  0  0  0  0  0  0  0
   13.6450  -56.8910   36.7880 C   0  0  0  0  0  0  0  0  0  0  0  0
   14.3710  -56.5590   35.5320 C   0  0  0  0  0  0  0  0  0  0  0  0
   15.3800  -57.5810   35.2080 N   0  0  0  0  0  0  0  0  0  0  0  0
   15.3130  -58.7740   36.0250 C   0  0  0  0  0  0  0  0  0  0  0  0
   15.4620  -58.3180   37.4640 C   0  0  0  0  0  0  0  0  0  0  0  0
   16.3180  -57.3710   34.1710 C   0  0  0  0  0  0  0  0  0  0  0  0
   16.3700  -56.1240   33.5600 C   0  0  0  0  0  0  0  0  0  0  0  0
   17.2990  -55.9290   32.5400 C   0  0  0  0  0  0  0  0  0  0  0  0
   18.1200  -56.8960   32.1510 N   0  0  0  0  0  0  0  0  0  0  0  0
   18.8850  -56.4050   31.1630 C   0  0  0  0  0  0  0  0  0  0  0  0
   18.5120  -55.1260   30.9620 N   0  0  0  0  0  0  0  0  0  0  0  0
   17.5380  -54.8290   31.8050 N   0  0  0  0  0  0  0  0  0  0  0  0
   19.9580  -57.1370   30.4170 C   0  0  0  0  0  0  0  0  0  0  0  0
   18.0820  -58.0700   32.7170 N   0  0  0  0  0  0  0  0  0  0  0  0
   17.1950  -58.3140   33.7160 C   0  0  0  0  0  0  0  0  0  0  0  0
   16.1200  -55.1210   38.3660 C   0  0  0  0  0  0  0  0  0  0  0  0
   16.5070  -53.9940   39.0790 C   0  0  0  0  0  0  0  0  0  0  0  0
   17.4330  -53.1040   38.5810 C   0  0  0  0  0  0  0  0  0  0  0  0
   17.9880  -53.3500   37.3350 C   0  0  0  0  0  0  0  0  0  0  0  0
   17.6370  -54.4570   36.5880 C   0  0  0  0  0  0  0  0  0  0  0  0
   16.7080  -55.3200   37.1220 C   0  0  0  0  0  0  0  0  0  0  0  0
   19.2750  -52.1030   36.6580 B   0  0  0  0  0  0  0  0  0  0  0  0
   12.8430  -57.6500   36.5510 H   0  0  0  0  0  0  0  0  0  0  0  0
   13.0940  -55.9990   37.1420 H   0  0  0  0  0  0  0  0  0  0  0  0
   13.6480  -56.5700   34.6860 H   0  0  0  0  0  0  0  0  0  0  0  0
   14.8190  -55.5510   35.5610 H   0  0  0  0  0  0  0  0  0  0  0  0
   16.0880  -59.5110   35.8310 H   0  0  0  0  0  0  0  0  0  0  0  0
   14.2760  -59.2140   35.9480 H   0  0  0  0  0  0  0  0  0  0  0  0
   15.5010  -59.1740   38.1670 H   0  0  0  0  0  0  0  0  0  0  0  0
   16.4380  -57.7950   37.5380 H   0  0  0  0  0  0  0  0  0  0  0  0
   15.7260  -55.3040   33.8370 H   0  0  0  0  0  0  0  0  0  0  0  0
   19.8070  -58.2390   30.5200 H   0  0  0  0  0  0  0  0  0  0  0  0
   19.8930  -56.8980   29.3540 H   0  0  0  0  0  0  0  0  0  0  0  0
   20.9630  -56.8780   30.8040 H   0  0  0  0  0  0  0  0  0  0  0  0
   17.2090  -59.2850   34.1390 H   0  0  0  0  0  0  0  0  0  0  0  0
   16.0440  -53.8400   40.0540 H   0  0  0  0  0  0  0  0  0  0  0  0
   17.6860  -52.2530   39.1860 H   0  0  0  0  0  0  0  0  0  0  0  0
   18.1080  -54.5910   35.6230 H   0  0  0  0  0  0  0  0  0  0  0  0
   16.4310  -56.1760   36.5500 H   0  0  0  0  0  0  0  0  0  0  0  0
  1  3  2  0  0  0  0
  1  2  2  0  0  0  0
  4  1  1  0  0  0  0
  5 28  1  0  0  0  0
  5  4  1  0  0  0  0
  6 30  1  0  0  0  0
  6  5  1  0  0  0  0
  7  6  1  0  0  0  0
  7  8  1  0  0  0  0
  8  9  1  0  0  0  0
  9 34  1  0  0  0  0
  9  4  1  0  0  0  0
  9 33  1  0  0  0  0
 10  7  1  0  0  0  0
 11 35  1  0  0  0  0
 11 10  2  0  0  0  0
 12 11  1  0  0  0  0
 13 12  1  0  0  0  0
 13 18  1  0  0  0  0
 14 13  1  0  0  0  0
 15 14  2  0  0  0  0
 15 16  1  0  0  0  0
 16 12  2  0  0  0  0
 17 36  1  0  0  0  0
 17 38  1  0  0  0  0
 17 14  1  0  0  0  0
 18 19  2  0  0  0  0
 19 39  1  0  0  0  0
 19 10  1  0  0  0  0
 20  1  1  0  0  0  0
 20 21  1  0  0  0  0
 21 40  1  0  0  0  0
 22 21  2  0  0  0  0
 22 41  1  0  0  0  0
 23 22  1  0  0  0  0
 24 25  1  0  0  0  0
 24 23  2  0  0  0  0
 25 20  2  0  0  0  0
 26 23  1  0  0  0  0
 27  5  1  0  0  0  0
 29  6  1  0  0  0  0
 31  8  1  0  0  0  0
 32  8  1  0  0  0  0
 37 17  1  0  0  0  0
 42 24  1  0  0  0  0
 43 25  1  0  0  0  0
M  END
>  <Pose>
1

>  <Score>
-6.57

$$$$
