
 OpenBabel03232204043D

 57 60  0  0  1  0  0  0  0  0999 V2000
   19.5050  -54.4230   34.2660 S   0  0  0  0  0  0  0  0  0  0  0  0
   19.4230  -53.1760   33.4450 O   0  0  0  0  0  0  0  0  0  0  0  0
   20.9160  -54.4560   34.8420 O   0  0  0  0  0  0  0  0  0  0  0  0
   19.1750  -55.8490   33.4050 N   0  0  0  0  0  0  0  0  0  0  0  0
   20.1230  -56.0170   32.3550 C   0  0  0  0  0  0  0  0  0  0  0  0
   19.5260  -56.1010   30.9690 C   0  0  0  0  0  0  0  0  0  0  0  0
   18.5110  -55.0620   30.7780 N   0  0  0  0  0  0  0  0  0  0  0  0
   17.5810  -54.9690   31.8810 C   0  0  0  0  0  0  0  0  0  0  0  0
   16.6830  -54.1250   31.9220 O   0  0  0  0  0  0  0  0  0  0  0  0
   17.8460  -56.0010   32.9370 C   0  0  2  0  0  0  0  0  0  0  0  0
   16.7680  -56.0850   33.9430 C   0  0  0  0  0  0  0  0  0  0  0  0
   15.8490  -57.1950   33.5960 C   0  0  0  0  0  0  0  0  0  0  0  0
   15.8030  -57.5300   32.3820 O   0  0  0  0  0  0  0  0  0  0  0  0
   15.0540  -57.8550   34.5820 N   0  0  0  0  0  0  0  0  0  0  0  0
   15.2090  -57.5530   35.9790 C   0  0  0  0  0  0  0  0  0  0  0  0
   13.9590  -57.7260   36.7860 C   0  0  0  0  0  0  0  0  0  0  0  0
   13.0780  -58.7700   36.2930 N   0  0  0  0  0  0  0  0  0  0  0  0
   12.7650  -58.6730   34.8750 C   0  0  0  0  0  0  0  0  0  0  0  0
   14.0890  -58.8340   34.1570 C   0  0  0  0  0  0  0  0  0  0  0  0
   12.5280  -59.8020   37.0650 C   0  0  0  0  0  0  0  0  0  0  0  0
   12.2570  -59.5800   38.3970 C   0  0  0  0  0  0  0  0  0  0  0  0
   11.7260  -60.6070   39.1610 C   0  0  0  0  0  0  0  0  0  0  0  0
   11.4540  -61.8500   38.6480 C   0  0  0  0  0  0  0  0  0  0  0  0
   11.7250  -62.0670   37.3170 C   0  0  0  0  0  0  0  0  0  0  0  0
   12.2580  -61.0440   36.5460 C   0  0  0  0  0  0  0  0  0  0  0  0
   18.4390  -54.2380   35.6470 C   0  0  0  0  0  0  0  0  0  0  0  0
   18.5020  -53.1400   36.4970 C   0  0  0  0  0  0  0  0  0  0  0  0
   17.6850  -52.9770   37.5800 C   0  0  0  0  0  0  0  0  0  0  0  0
   16.7390  -53.9230   37.8760 C   0  0  0  0  0  0  0  0  0  0  0  0
   16.6450  -55.0440   37.0420 C   0  0  0  0  0  0  0  0  0  0  0  0
   17.4840  -55.1760   35.9610 C   0  0  0  0  0  0  0  0  0  0  0  0
   15.5720  -53.7520   39.3690 B   0  0  0  0  0  0  0  0  0  0  0  0
   20.6780  -56.9800   32.5100 H   0  0  0  0  0  0  0  0  0  0  0  0
   20.9050  -55.2320   32.3070 H   0  0  0  0  0  0  0  0  0  0  0  0
   19.1260  -57.1110   30.7950 H   0  0  0  0  0  0  0  0  0  0  0  0
   20.3260  -55.9210   30.2320 H   0  0  0  0  0  0  0  0  0  0  0  0
   18.4360  -54.4500   29.9650 H   0  0  0  0  0  0  0  0  0  0  0  0
   17.8240  -56.9750   32.3630 H   0  0  0  0  0  0  0  0  0  0  0  0
   16.2280  -55.0910   33.9060 H   0  0  0  0  0  0  0  0  0  0  0  0
   17.1000  -56.1610   34.9970 H   0  0  0  0  0  0  0  0  0  0  0  0
   16.0220  -58.1600   36.4540 H   0  0  0  0  0  0  0  0  0  0  0  0
   15.5410  -56.4910   36.1430 H   0  0  0  0  0  0  0  0  0  0  0  0
   14.2470  -57.9620   37.8160 H   0  0  0  0  0  0  0  0  0  0  0  0
   13.3570  -56.7860   36.8210 H   0  0  0  0  0  0  0  0  0  0  0  0
   12.4330  -57.6280   34.6580 H   0  0  0  0  0  0  0  0  0  0  0  0
   12.0690  -59.4020   34.4940 H   0  0  0  0  0  0  0  0  0  0  0  0
   14.5360  -59.8330   34.3430 H   0  0  0  0  0  0  0  0  0  0  0  0
   13.9450  -58.7610   33.0620 H   0  0  0  0  0  0  0  0  0  0  0  0
   12.4320  -58.6240   38.9020 H   0  0  0  0  0  0  0  0  0  0  0  0
   11.5090  -60.4420   40.2120 H   0  0  0  0  0  0  0  0  0  0  0  0
   11.0340  -62.6520   39.2620 H   0  0  0  0  0  0  0  0  0  0  0  0
   11.5180  -63.0450   36.8860 H   0  0  0  0  0  0  0  0  0  0  0  0
   12.4420  -61.3100   35.5130 H   0  0  0  0  0  0  0  0  0  0  0  0
   19.2270  -52.3710   36.3030 H   0  0  0  0  0  0  0  0  0  0  0  0
   17.7450  -52.1070   38.2450 H   0  0  0  0  0  0  0  0  0  0  0  0
   15.8890  -55.7660   37.3080 H   0  0  0  0  0  0  0  0  0  0  0  0
   17.3880  -56.0460   35.3390 H   0  0  0  0  0  0  0  0  0  0  0  0
  1  3  2  0  0  0  0
  1 26  1  0  0  0  0
  2  1  2  0  0  0  0
  4  1  1  0  0  0  0
  5 33  1  0  0  0  0
  5  4  1  0  0  0  0
  6  5  1  0  0  0  0
  7  6  1  0  0  0  0
  7  8  1  0  0  0  0
  8  9  2  0  0  0  0
  8 10  1  0  0  0  0
 10 38  1  6  0  0  0
 10  4  1  0  0  0  0
 10 11  1  0  0  0  0
 11 40  1  0  0  0  0
 12 11  1  0  0  0  0
 12 14  1  0  0  0  0
 13 12  2  0  0  0  0
 14 15  1  0  0  0  0
 15 42  1  0  0  0  0
 15 41  1  0  0  0  0
 15 16  1  0  0  0  0
 16 44  1  0  0  0  0
 16 43  1  0  0  0  0
 17 16  1  0  0  0  0
 17 20  1  0  0  0  0
 18 17  1  0  0  0  0
 19 47  1  0  0  0  0
 19 14  1  0  0  0  0
 19 18  1  0  0  0  0
 20 21  1  0  0  0  0
 21 49  1  0  0  0  0
 21 22  2  0  0  0  0
 22 50  1  0  0  0  0
 23 22  1  0  0  0  0
 23 51  1  0  0  0  0
 24 23  2  0  0  0  0
 25 20  2  0  0  0  0
 25 24  1  0  0  0  0
 26 31  2  0  0  0  0
 26 27  1  0  0  0  0
 27 28  2  0  0  0  0
 28 29  1  0  0  0  0
 28 55  1  0  0  0  0
 29 32  1  0  0  0  0
 30 56  1  0  0  0  0
 30 29  2  0  0  0  0
 31 30  1  0  0  0  0
 34  5  1  0  0  0  0
 35  6  1  0  0  0  0
 36  6  1  0  0  0  0
 37  7  1  0  0  0  0
 39 11  1  0  0  0  0
 45 18  1  0  0  0  0
 46 18  1  0  0  0  0
 48 19  1  0  0  0  0
 52 24  1  0  0  0  0
 53 25  1  0  0  0  0
 54 27  1  0  0  0  0
 57 31  1  0  0  0  0
M  END
>  <Pose>
1

>  <Score>
-7.25

$$$$
