
 OpenBabel03232204043D

 37 40  0  0  0  0  0  0  0  0999 V2000
   16.0360  -53.7320   38.7030 S   0  0  0  0  0  0  0  0  0  0  0  0
   17.3620  -53.9830   37.4930 C   0  0  0  0  0  0  0  0  0  0  0  0
   18.6210  -53.4070   38.0470 C   0  0  0  0  0  0  0  0  0  0  0  0
   19.4280  -54.1250   38.7200 O   0  0  0  0  0  0  0  0  0  0  0  0
   18.9640  -52.0530   37.8500 N   0  0  0  0  0  0  0  0  0  0  0  0
   19.6180  -51.6190   36.6720 C   0  0  0  0  0  0  0  0  0  0  0  0
   20.0320  -50.3790   36.3620 N   0  0  0  0  0  0  0  0  0  0  0  0
   20.5950  -50.3680   35.1850 O   0  0  0  0  0  0  0  0  0  0  0  0
   20.5550  -51.5710   34.7230 N   0  0  0  0  0  0  0  0  0  0  0  0
   19.9640  -52.4110   35.5820 C   0  0  0  0  0  0  0  0  0  0  0  0
   19.7550  -53.7940   35.3950 N   0  0  0  0  0  0  0  0  0  0  0  0
   14.9280  -55.1550   38.6220 C   0  0  0  0  0  0  0  0  0  0  0  0
   14.2030  -55.5360   39.6870 N   0  0  0  0  0  0  0  0  0  0  0  0
   13.3770  -56.5700   39.6840 N   0  0  0  0  0  0  0  0  0  0  0  0
   13.2110  -57.3210   38.5750 C   0  0  0  0  0  0  0  0  0  0  0  0
   13.9440  -56.9490   37.4670 C   0  0  0  0  0  0  0  0  0  0  0  0
   13.6180  -57.8310   36.5010 N   0  0  0  0  0  0  0  0  0  0  0  0
   12.7240  -58.7290   36.9470 C   0  0  0  0  0  0  0  0  0  0  0  0
   12.4430  -58.4310   38.2630 C   0  0  0  0  0  0  0  0  0  0  0  0
   11.5520  -59.1710   39.0260 C   0  0  0  0  0  0  0  0  0  0  0  0
   10.9380  -60.2440   38.4040 C   0  0  0  0  0  0  0  0  0  0  0  0
   11.2000  -60.5630   37.0870 C   0  0  0  0  0  0  0  0  0  0  0  0
   12.0880  -59.8160   36.3500 C   0  0  0  0  0  0  0  0  0  0  0  0
    9.7090  -61.2640   39.4560 B   0  0  0  0  0  0  0  0  0  0  0  0
   14.1790  -57.7850   35.1660 C   0  0  0  0  0  0  0  0  0  0  0  0
   14.7910  -55.8770   37.4960 N   0  0  0  0  0  0  0  0  0  0  0  0
   17.4710  -55.0370   37.2050 H   0  0  0  0  0  0  0  0  0  0  0  0
   17.1030  -53.3280   36.6110 H   0  0  0  0  0  0  0  0  0  0  0  0
   18.7230  -51.3670   38.5970 H   0  0  0  0  0  0  0  0  0  0  0  0
   18.7850  -54.1600   35.3490 H   0  0  0  0  0  0  0  0  0  0  0  0
   20.5370  -54.4730   35.3000 H   0  0  0  0  0  0  0  0  0  0  0  0
   11.3530  -58.9110   40.0640 H   0  0  0  0  0  0  0  0  0  0  0  0
   10.7060  -61.4130   36.6140 H   0  0  0  0  0  0  0  0  0  0  0  0
   12.3170  -60.0390   35.3140 H   0  0  0  0  0  0  0  0  0  0  0  0
   14.3100  -56.7480   34.8370 H   0  0  0  0  0  0  0  0  0  0  0  0
   15.1060  -58.3910   35.0950 H   0  0  0  0  0  0  0  0  0  0  0  0
   13.4420  -58.2600   34.4800 H   0  0  0  0  0  0  0  0  0  0  0  0
  2  3  1  0  0  0  0
  2  1  1  0  0  0  0
  3  4  2  0  0  0  0
  5  3  1  0  0  0  0
  5 29  1  0  0  0  0
  6  5  1  0  0  0  0
  7  6  2  0  0  0  0
  8  7  1  0  0  0  0
  9  8  1  0  0  0  0
  9 10  2  0  0  0  0
 10  6  1  0  0  0  0
 11 10  1  0  0  0  0
 12  1  1  0  0  0  0
 12 13  2  0  0  0  0
 14 13  1  0  0  0  0
 15 14  1  0  0  0  0
 16 26  1  0  0  0  0
 16 15  2  0  0  0  0
 17 18  1  0  0  0  0
 17 16  1  0  0  0  0
 18 19  1  0  0  0  0
 19 15  1  0  0  0  0
 19 20  2  0  0  0  0
 20 32  1  0  0  0  0
 21 20  1  0  0  0  0
 21 24  1  0  0  0  0
 22 21  2  0  0  0  0
 23 18  2  0  0  0  0
 23 22  1  0  0  0  0
 25 17  1  0  0  0  0
 26 12  1  0  0  0  0
 27  2  1  0  0  0  0
 28  2  1  0  0  0  0
 30 11  1  0  0  0  0
 31 11  1  0  0  0  0
 33 22  1  0  0  0  0
 34 23  1  0  0  0  0
 35 25  1  0  0  0  0
 36 25  1  0  0  0  0
 37 25  1  0  0  0  0
M  END
>  <Pose>
1

>  <Score>
-8.12

$$$$
