
 OpenBabel03232204043D

 39 42  0  0  1  0  0  0  0  0999 V2000
   15.2000  -60.0210   33.8600 S   0  0  0  0  0  0  0  0  0  0  0  0
   14.4910  -60.7740   32.7730 O   0  0  0  0  0  0  0  0  0  0  0  0
   15.3520  -60.8490   35.1060 O   0  0  0  0  0  0  0  0  0  0  0  0
   16.7930  -59.4420   33.3170 C   0  0  0  0  0  0  0  0  0  0  0  0
   17.1030  -58.2250   34.1630 C   0  0  2  0  0  0  0  0  0  0  0  0
   16.2180  -57.1470   33.7690 N   0  0  0  0  0  0  0  0  0  0  0  0
   14.8440  -57.4180   33.4040 C   0  0  0  0  0  0  0  0  0  0  0  0
   14.2840  -58.5330   34.2900 C   0  0  0  0  0  0  0  0  0  0  0  0
   17.0110  -55.9690   33.8470 C   0  0  0  0  0  0  0  0  0  0  0  0
   16.5740  -54.7680   33.8280 O   0  0  0  0  0  0  0  0  0  0  0  0
   18.3900  -56.2960   33.9560 N   0  0  0  0  0  0  0  0  0  0  0  0
   18.4600  -57.7140   33.9440 C   0  0  0  0  0  0  0  0  0  0  0  0
   19.4940  -58.4260   33.7760 O   0  0  0  0  0  0  0  0  0  0  0  0
   19.5220  -55.3880   34.0600 C   0  0  1  0  0  0  0  0  0  0  0  0
   19.6920  -54.5740   32.7890 C   0  0  0  0  0  0  0  0  0  0  0  0
   20.9610  -53.7430   32.9910 C   0  0  0  0  0  0  0  0  0  0  0  0
   20.6640  -52.8220   34.0260 O   0  0  0  0  0  0  0  0  0  0  0  0
   19.8870  -53.2020   35.1140 C   0  0  0  0  0  0  0  0  0  0  0  0
   19.3130  -54.4400   35.1700 C   0  0  0  0  0  0  0  0  0  0  0  0
   18.5490  -54.8140   36.2400 C   0  0  0  0  0  0  0  0  0  0  0  0
   18.3650  -53.9170   37.2650 C   0  0  0  0  0  0  0  0  0  0  0  0
   18.9480  -52.6770   37.1950 C   0  0  0  0  0  0  0  0  0  0  0  0
   19.7260  -52.2690   36.1270 C   0  0  0  0  0  0  0  0  0  0  0  0
   20.5280  -50.5470   36.0420 B   0  0  0  0  0  0  0  0  0  0  0  0
   16.6470  -59.0600   32.2740 H   0  0  0  0  0  0  0  0  0  0  0  0
   17.5660  -60.2220   33.3810 H   0  0  0  0  0  0  0  0  0  0  0  0
   16.9480  -58.3990   35.2420 H   0  0  0  0  0  0  0  0  0  0  0  0
   14.7390  -57.7410   32.3530 H   0  0  0  0  0  0  0  0  0  0  0  0
   14.1760  -56.5390   33.5830 H   0  0  0  0  0  0  0  0  0  0  0  0
   14.3600  -58.3010   35.3500 H   0  0  0  0  0  0  0  0  0  0  0  0
   13.2440  -58.7050   33.9400 H   0  0  0  0  0  0  0  0  0  0  0  0
   20.4660  -55.9160   34.2300 H   0  0  0  0  0  0  0  0  0  0  0  0
   19.7880  -55.1980   31.8920 H   0  0  0  0  0  0  0  0  0  0  0  0
   18.8680  -53.8410   32.6730 H   0  0  0  0  0  0  0  0  0  0  0  0
   21.7230  -54.4470   33.4090 H   0  0  0  0  0  0  0  0  0  0  0  0
   21.2930  -53.2560   32.0770 H   0  0  0  0  0  0  0  0  0  0  0  0
   18.0950  -55.8160   36.2660 H   0  0  0  0  0  0  0  0  0  0  0  0
   17.7610  -54.2020   38.1190 H   0  0  0  0  0  0  0  0  0  0  0  0
   18.7900  -51.9890   38.0130 H   0  0  0  0  0  0  0  0  0  0  0  0
  1  8  1  0  0  0  0
  1  3  2  0  0  0  0
  2  1  2  0  0  0  0
  4 26  1  0  0  0  0
  4  1  1  0  0  0  0
  4  5  1  0  0  0  0
  5 27  1  1  0  0  0
  6  9  1  0  0  0  0
  6  5  1  0  0  0  0
  7 29  1  0  0  0  0
  7  6  1  0  0  0  0
  7  8  1  0  0  0  0
  8 30  1  0  0  0  0
  9 11  1  0  0  0  0
 10  9  2  0  0  0  0
 11 14  1  0  0  0  0
 12 11  1  0  0  0  0
 12  5  1  0  0  0  0
 13 12  2  0  0  0  0
 14 32  1  1  0  0  0
 14 19  1  0  0  0  0
 15 16  1  0  0  0  0
 15 14  1  0  0  0  0
 16 35  1  0  0  0  0
 16 17  1  0  0  0  0
 17 18  1  0  0  0  0
 18 19  2  0  0  0  0
 18 23  1  0  0  0  0
 19 20  1  0  0  0  0
 20 37  1  0  0  0  0
 20 21  2  0  0  0  0
 21 38  1  0  0  0  0
 22 21  1  0  0  0  0
 22 39  1  0  0  0  0
 23 22  2  0  0  0  0
 24 23  1  0  0  0  0
 25  4  1  0  0  0  0
 28  7  1  0  0  0  0
 31  8  1  0  0  0  0
 33 15  1  0  0  0  0
 34 15  1  0  0  0  0
 36 16  1  0  0  0  0
M  END
>  <Pose>
1

>  <Score>
-5.50

$$$$
