
 OpenBabel03232204043D

 36 39  0  0  1  0  0  0  0  0999 V2000
   20.1650  -54.0770   32.7100 S   0  0  0  0  0  0  0  0  0  0  0  0
   19.3490  -54.2730   34.1950 C   0  0  0  0  0  0  0  0  0  0  0  0
   18.4100  -55.2270   33.9010 C   0  0  0  0  0  0  0  0  0  0  0  0
   18.3800  -55.7050   32.6560 C   0  0  0  0  0  0  0  0  0  0  0  0
   19.2960  -55.2010   31.7680 C   0  0  0  0  0  0  0  0  0  0  0  0
   17.1260  -57.0550   32.0480 B   0  0  0  0  0  0  0  0  0  0  0  0
   19.5780  -53.5960   35.4930 C   0  0  0  0  0  0  0  0  0  0  0  0
   20.5350  -52.7840   35.5230 O   0  0  0  0  0  0  0  0  0  0  0  0
   18.7570  -53.8640   36.6110 N   0  0  0  0  0  0  0  0  0  0  0  0
   18.8550  -53.0910   37.8400 C   0  0  2  0  0  0  0  0  0  0  0  0
   18.2450  -53.8190   39.0110 C   0  0  0  0  0  0  0  0  0  0  0  0
   16.8250  -53.7240   38.7080 N   0  0  0  0  0  0  0  0  0  0  0  0
   16.6070  -52.3460   38.3380 C   0  0  0  0  0  0  0  0  0  0  0  0
   17.9140  -51.9130   37.7030 C   0  0  0  0  0  0  0  0  0  0  0  0
   15.8860  -54.8100   38.7790 C   0  0  0  0  0  0  0  0  0  0  0  0
   14.9280  -54.8390   39.7250 N   0  0  0  0  0  0  0  0  0  0  0  0
   14.0650  -55.8690   39.7680 C   0  0  0  0  0  0  0  0  0  0  0  0
   14.1230  -56.9060   38.8720 C   0  0  0  0  0  0  0  0  0  0  0  0
   15.0730  -56.8910   37.9220 N   0  0  0  0  0  0  0  0  0  0  0  0
   15.9330  -55.8550   37.8890 C   0  0  0  0  0  0  0  0  0  0  0  0
   16.7500  -56.1170   36.8500 N   0  0  0  0  0  0  0  0  0  0  0  0
   16.4220  -57.2550   36.2630 N   0  0  0  0  0  0  0  0  0  0  0  0
   15.3660  -57.7590   36.9240 C   0  0  0  0  0  0  0  0  0  0  0  0
   17.7190  -55.5560   34.7080 H   0  0  0  0  0  0  0  0  0  0  0  0
   19.4610  -55.4380   30.7080 H   0  0  0  0  0  0  0  0  0  0  0  0
   18.0660  -54.6430   36.5360 H   0  0  0  0  0  0  0  0  0  0  0  0
   19.8800  -52.8100   38.0780 H   0  0  0  0  0  0  0  0  0  0  0  0
   18.5910  -54.8450   39.1310 H   0  0  0  0  0  0  0  0  0  0  0  0
   18.4380  -53.2050   39.9110 H   0  0  0  0  0  0  0  0  0  0  0  0
   15.7500  -52.1720   37.6830 H   0  0  0  0  0  0  0  0  0  0  0  0
   16.4930  -51.7750   39.2830 H   0  0  0  0  0  0  0  0  0  0  0  0
   17.7030  -51.6710   36.6370 H   0  0  0  0  0  0  0  0  0  0  0  0
   18.3510  -51.0420   38.2370 H   0  0  0  0  0  0  0  0  0  0  0  0
   13.2910  -55.8800   40.5400 H   0  0  0  0  0  0  0  0  0  0  0  0
   13.4280  -57.7380   38.9030 H   0  0  0  0  0  0  0  0  0  0  0  0
   14.8420  -58.6690   36.7210 H   0  0  0  0  0  0  0  0  0  0  0  0
  1  2  1  0  0  0  0
  2  7  1  0  0  0  0
  3  2  2  0  0  0  0
  3 24  1  0  0  0  0
  4  3  1  0  0  0  0
  5  4  2  0  0  0  0
  5  1  1  0  0  0  0
  6  4  1  0  0  0  0
  7  8  2  0  0  0  0
  7  9  1  0  0  0  0
  9 10  1  0  0  0  0
 10 27  1  1  0  0  0
 10 11  1  0  0  0  0
 11 28  1  0  0  0  0
 11 29  1  0  0  0  0
 12 15  1  0  0  0  0
 12 11  1  0  0  0  0
 13 12  1  0  0  0  0
 13 31  1  0  0  0  0
 14 10  1  0  0  0  0
 14 33  1  0  0  0  0
 14 13  1  0  0  0  0
 15 16  2  0  0  0  0
 16 17  1  0  0  0  0
 17 34  1  0  0  0  0
 18 35  1  0  0  0  0
 18 17  2  0  0  0  0
 19 18  1  0  0  0  0
 20 19  1  0  0  0  0
 20 15  1  0  0  0  0
 21 20  2  0  0  0  0
 22 21  1  0  0  0  0
 22 23  2  0  0  0  0
 23 19  1  0  0  0  0
 25  5  1  0  0  0  0
 26  9  1  0  0  0  0
 30 13  1  0  0  0  0
 32 14  1  0  0  0  0
 36 23  1  0  0  0  0
M  END
>  <Pose>
1

>  <Score>
-7.26

$$$$
