
 OpenBabel03232204043D

 51 54  0  0  0  0  0  0  0  0999 V2000
   10.0280  -59.9080   38.2680 S   0  0  0  0  0  0  0  0  0  0  0  0
   10.1660  -59.4120   39.8880 C   0  0  0  0  0  0  0  0  0  0  0  0
   11.5090  -59.1980   40.0260 C   0  0  0  0  0  0  0  0  0  0  0  0
   12.2840  -59.4130   38.9600 C   0  0  0  0  0  0  0  0  0  0  0  0
   11.6750  -59.8320   37.8050 C   0  0  0  0  0  0  0  0  0  0  0  0
   12.3040  -60.1230   36.5110 C   0  0  0  0  0  0  0  0  0  0  0  0
   12.5930  -61.3220   36.2740 O   0  0  0  0  0  0  0  0  0  0  0  0
   12.5890  -59.0570   35.5210 C   0  0  0  0  0  0  0  0  0  0  0  0
   13.7260  -58.2570   35.9020 N   0  0  0  0  0  0  0  0  0  0  0  0
   14.9610  -58.3760   35.3600 C   0  0  0  0  0  0  0  0  0  0  0  0
   15.8060  -57.4780   35.9400 C   0  0  0  0  0  0  0  0  0  0  0  0
   17.1320  -57.4110   35.5510 C   0  0  0  0  0  0  0  0  0  0  0  0
   17.5850  -58.2630   34.5710 C   0  0  0  0  0  0  0  0  0  0  0  0
   16.7550  -59.1760   33.9720 C   0  0  0  0  0  0  0  0  0  0  0  0
   15.4410  -59.2180   34.3820 C   0  0  0  0  0  0  0  0  0  0  0  0
   15.0860  -56.8020   36.8400 N   0  0  0  0  0  0  0  0  0  0  0  0
   13.8110  -57.2830   36.8130 C   0  0  0  0  0  0  0  0  0  0  0  0
   12.9160  -56.7860   37.5830 N   0  0  0  0  0  0  0  0  0  0  0  0
   15.6110  -55.7490   37.6990 C   0  0  0  0  0  0  0  0  0  0  0  0
   16.7730  -55.0660   36.9620 C   0  0  0  0  0  0  0  0  0  0  0  0
   16.7030  -53.6360   37.0570 N   0  0  0  0  0  4  0  0  0  0  0  0
   16.7070  -53.1340   38.4170 C   0  0  0  0  0  0  0  0  0  0  0  0
   17.8480  -53.6920   39.2200 C   0  0  0  0  0  0  0  0  0  0  0  0
   19.1620  -53.6100   38.5180 C   0  0  0  0  0  0  0  0  0  0  0  0
   19.1080  -53.6170   37.0320 C   0  0  0  0  0  0  0  0  0  0  0  0
   17.8670  -53.0780   36.4130 C   0  0  0  0  0  0  0  0  0  0  0  0
    8.7690  -59.2150   41.1720 B   0  0  0  0  0  0  0  0  0  0  0  0
   11.8970  -58.8530   41.0170 H   0  0  0  0  0  0  0  0  0  0  0  0
   13.3880  -59.2600   38.9870 H   0  0  0  0  0  0  0  0  0  0  0  0
   11.6780  -58.4270   35.3370 H   0  0  0  0  0  0  0  0  0  0  0  0
   12.7940  -59.5300   34.5290 H   0  0  0  0  0  0  0  0  0  0  0  0
   17.7730  -56.6830   36.0370 H   0  0  0  0  0  0  0  0  0  0  0  0
   18.6140  -58.2450   34.2390 H   0  0  0  0  0  0  0  0  0  0  0  0
   17.0810  -59.8630   33.1970 H   0  0  0  0  0  0  0  0  0  0  0  0
   14.7600  -59.9180   33.9380 H   0  0  0  0  0  0  0  0  0  0  0  0
   11.9310  -57.0330   37.6650 H   0  0  0  0  0  0  0  0  0  0  0  0
   15.9750  -56.1240   38.6760 H   0  0  0  0  0  0  0  0  0  0  0  0
   14.8530  -54.9400   37.8440 H   0  0  0  0  0  0  0  0  0  0  0  0
   16.6490  -55.3450   35.8920 H   0  0  0  0  0  0  0  0  0  0  0  0
   17.6890  -55.4830   37.4260 H   0  0  0  0  0  0  0  0  0  0  0  0
   15.8210  -53.2850   36.6270 H   0  0  0  0  0  0  0  0  0  0  0  0
   16.7890  -52.0360   38.3510 H   0  0  0  0  0  0  0  0  0  0  0  0
   15.7570  -53.4150   38.9100 H   0  0  0  0  0  0  0  0  0  0  0  0
   17.6190  -54.7410   39.5670 H   0  0  0  0  0  0  0  0  0  0  0  0
   17.9060  -53.0920   40.1530 H   0  0  0  0  0  0  0  0  0  0  0  0
   19.6990  -52.6960   38.8660 H   0  0  0  0  0  0  0  0  0  0  0  0
   19.7760  -54.5010   38.8390 H   0  0  0  0  0  0  0  0  0  0  0  0
   20.0050  -53.0270   36.6710 H   0  0  0  0  0  0  0  0  0  0  0  0
   19.3020  -54.6460   36.6470 H   0  0  0  0  0  0  0  0  0  0  0  0
   17.8660  -51.9660   36.4530 H   0  0  0  0  0  0  0  0  0  0  0  0
   17.8350  -53.4400   35.3590 H   0  0  0  0  0  0  0  0  0  0  0  0
  1  2  1  0  0  0  0
  2  3  2  0  0  0  0
  2 27  1  0  0  0  0
  3 28  1  0  0  0  0
  4 29  1  0  0  0  0
  4  3  1  0  0  0  0
  5  1  1  0  0  0  0
  5  4  2  0  0  0  0
  6  5  1  0  0  0  0
  7  6  2  0  0  0  0
  8  9  1  0  0  0  0
  8  6  1  0  0  0  0
  9 17  1  0  0  0  0
 10  9  1  0  0  0  0
 10 11  1  0  0  0  0
 11 16  1  0  0  0  0
 12 11  2  0  0  0  0
 12 32  1  0  0  0  0
 13 12  1  0  0  0  0
 14 15  1  0  0  0  0
 14 13  2  0  0  0  0
 15 10  2  0  0  0  0
 16 19  1  0  0  0  0
 17 16  1  0  0  0  0
 17 18  2  0  0  0  0
 18 36  1  0  0  0  0
 19 38  1  0  0  0  0
 19 37  1  0  0  0  0
 20 21  1  0  0  0  0
 20 40  1  0  0  0  0
 20 19  1  0  0  0  0
 21 22  1  0  0  0  0
 22 43  1  0  0  0  0
 22 23  1  0  0  0  0
 23 44  1  0  0  0  0
 23 45  1  0  0  0  0
 24 47  1  0  0  0  0
 24 46  1  0  0  0  0
 24 23  1  0  0  0  0
 25 24  1  0  0  0  0
 26 50  1  0  0  0  0
 26 25  1  0  0  0  0
 26 21  1  0  0  0  0
 30  8  1  0  0  0  0
 31  8  1  0  0  0  0
 33 13  1  0  0  0  0
 34 14  1  0  0  0  0
 35 15  1  0  0  0  0
 39 20  1  0  0  0  0
 41 21  1  0  0  0  0
 42 22  1  0  0  0  0
 48 25  1  0  0  0  0
 49 25  1  0  0  0  0
 51 26  1  0  0  0  0
M  END
>  <Pose>
1

>  <Score>
-6.41

$$$$
