
 OpenBabel03232204043D

 58 61  0  0  1  0  0  0  0  0999 V2000
   21.6510  -56.7930   29.6050 S   0  0  0  0  0  0  0  0  0  0  0  0
   22.0930  -56.6600   27.9630 C   0  0  0  0  0  0  0  0  0  0  0  0
   20.9190  -56.5930   27.3630 N   0  0  0  0  0  0  0  0  0  0  0  0
   19.8250  -56.6370   28.0640 C   0  0  0  0  0  0  0  0  0  0  0  0
   19.9500  -56.7550   29.4240 C   0  0  0  0  0  0  0  0  0  0  0  0
   18.9570  -56.7890   30.4950 C   0  0  0  0  0  0  0  0  0  0  0  0
   18.8880  -55.8230   31.3910 C   0  0  0  0  0  0  0  0  0  0  0  0
   17.9480  -55.6950   32.5530 C   0  0  2  0  0  0  0  0  0  0  0  0
   18.7220  -55.0140   33.5440 N   0  0  0  0  0  0  0  0  0  0  0  0
   19.5670  -54.1090   32.7790 C   0  0  0  0  0  0  0  0  0  0  0  0
   20.0890  -53.0760   33.2780 O   0  0  0  0  0  0  0  0  0  0  0  0
   19.6820  -54.6020   31.4180 C   0  0  0  0  0  0  0  0  0  0  0  0
   20.3340  -54.0780   30.4540 O   0  0  0  0  0  0  0  0  0  0  0  0
   18.7020  -55.0730   34.9760 C   0  0  0  0  0  0  0  0  0  0  0  0
   17.4180  -54.6870   35.6370 C   0  0  0  0  0  0  0  0  0  0  0  0
   17.5400  -54.7920   37.1650 C   0  0  0  0  0  0  0  0  0  0  0  0
   18.2280  -53.6380   37.6380 N   0  0  0  0  0  4  0  0  0  0  0  0
   17.4180  -52.5140   37.9810 C   0  0  0  0  0  0  0  0  0  0  0  0
   16.6910  -52.6740   39.2950 C   0  0  0  0  0  0  0  0  0  0  0  0
   16.9990  -53.9660   39.7760 O   0  0  0  0  0  0  0  0  0  0  0  0
   18.3740  -53.9160   40.0820 C   0  0  0  0  0  0  0  0  0  0  0  0
   19.1050  -53.9380   38.7550 C   0  0  0  0  0  0  0  0  0  0  0  0
   17.3610  -56.9760   32.9240 C   0  0  0  0  0  0  0  0  0  0  0  0
   15.9800  -57.0170   33.1700 C   0  0  0  0  0  0  0  0  0  0  0  0
   15.3090  -58.1660   33.5020 C   0  0  0  0  0  0  0  0  0  0  0  0
   16.0000  -59.3480   33.6040 C   0  0  0  0  0  0  0  0  0  0  0  0
   17.3660  -59.3480   33.3660 C   0  0  0  0  0  0  0  0  0  0  0  0
   18.0070  -58.1730   33.0350 C   0  0  0  0  0  0  0  0  0  0  0  0
   13.4280  -58.1930   33.8320 B   0  0  0  0  0  0  0  0  0  0  0  0
   18.0470  -57.8680   30.5830 O   0  0  0  0  0  0  0  0  0  0  0  0
   18.4740  -56.5160   27.3700 C   0  0  0  0  0  0  0  0  0  0  0  0
   23.4730  -56.6260   27.3480 C   0  0  0  0  0  0  0  0  0  0  0  0
   17.1300  -55.0140   32.1670 H   0  0  0  0  0  0  0  0  0  0  0  0
   19.4840  -54.3410   35.3230 H   0  0  0  0  0  0  0  0  0  0  0  0
   18.9760  -56.0990   35.3190 H   0  0  0  0  0  0  0  0  0  0  0  0
   17.0330  -53.6980   35.4350 H   0  0  0  0  0  0  0  0  0  0  0  0
   16.6790  -55.5010   35.3680 H   0  0  0  0  0  0  0  0  0  0  0  0
   18.1110  -55.6980   37.4480 H   0  0  0  0  0  0  0  0  0  0  0  0
   16.4990  -54.8800   37.5390 H   0  0  0  0  0  0  0  0  0  0  0  0
   18.8730  -53.3190   36.8530 H   0  0  0  0  0  0  0  0  0  0  0  0
   16.6990  -52.1840   37.2330 H   0  0  0  0  0  0  0  0  0  0  0  0
   18.1290  -51.6460   38.1170 H   0  0  0  0  0  0  0  0  0  0  0  0
   15.6160  -52.4850   39.2450 H   0  0  0  0  0  0  0  0  0  0  0  0
   17.0950  -51.9850   40.0850 H   0  0  0  0  0  0  0  0  0  0  0  0
   18.5580  -52.9040   40.5300 H   0  0  0  0  0  0  0  0  0  0  0  0
   18.6890  -54.6910   40.7770 H   0  0  0  0  0  0  0  0  0  0  0  0
   19.9420  -53.2200   38.7450 H   0  0  0  0  0  0  0  0  0  0  0  0
   19.5110  -54.9630   38.5920 H   0  0  0  0  0  0  0  0  0  0  0  0
   15.3930  -56.1020   33.1010 H   0  0  0  0  0  0  0  0  0  0  0  0
   15.4590  -60.2430   33.8650 H   0  0  0  0  0  0  0  0  0  0  0  0
   17.9330  -60.2510   33.4380 H   0  0  0  0  0  0  0  0  0  0  0  0
   19.0690  -58.1900   32.8380 H   0  0  0  0  0  0  0  0  0  0  0  0
   17.7150  -56.2510   28.0990 H   0  0  0  0  0  0  0  0  0  0  0  0
   18.2670  -57.4410   26.7960 H   0  0  0  0  0  0  0  0  0  0  0  0
   18.5110  -55.6980   26.6150 H   0  0  0  0  0  0  0  0  0  0  0  0
   23.6030  -57.4320   26.6190 H   0  0  0  0  0  0  0  0  0  0  0  0
   23.5510  -55.6220   26.8760 H   0  0  0  0  0  0  0  0  0  0  0  0
   24.1950  -56.6520   28.1890 H   0  0  0  0  0  0  0  0  0  0  0  0
  2  1  1  0  0  0  0
  3  2  2  0  0  0  0
  3  4  1  0  0  0  0
  4  5  2  0  0  0  0
  5  1  1  0  0  0  0
  5  6  1  0  0  0  0
  6 30  1  0  0  0  0
  6  7  2  0  0  0  0
  7 12  1  0  0  0  0
  7  8  1  0  0  0  0
  8 33  1  6  0  0  0
  8 23  1  0  0  0  0
  8  9  1  0  0  0  0
  9 14  1  0  0  0  0
 10 11  2  0  0  0  0
 10  9  1  0  0  0  0
 12 10  1  0  0  0  0
 13 12  2  0  0  0  0
 14 35  1  0  0  0  0
 14 34  1  0  0  0  0
 14 15  1  0  0  0  0
 15 16  1  0  0  0  0
 16 38  1  0  0  0  0
 16 39  1  0  0  0  0
 16 17  1  0  0  0  0
 17 18  1  0  0  0  0
 17 22  1  0  0  0  0
 18 42  1  0  0  0  0
 18 19  1  0  0  0  0
 19 20  1  0  0  0  0
 19 44  1  0  0  0  0
 20 21  1  0  0  0  0
 21 45  1  0  0  0  0
 21 46  1  0  0  0  0
 22 21  1  0  0  0  0
 23 28  2  0  0  0  0
 23 24  1  0  0  0  0
 24 25  2  0  0  0  0
 25 26  1  0  0  0  0
 25 29  1  0  0  0  0
 26 50  1  0  0  0  0
 27 51  1  0  0  0  0
 27 26  2  0  0  0  0
 28 27  1  0  0  0  0
 31  4  1  0  0  0  0
 31 53  1  0  0  0  0
 32  2  1  0  0  0  0
 32 58  1  0  0  0  0
 36 15  1  0  0  0  0
 37 15  1  0  0  0  0
 40 17  1  0  0  0  0
 41 18  1  0  0  0  0
 43 19  1  0  0  0  0
 47 22  1  0  0  0  0
 48 22  1  0  0  0  0
 49 24  1  0  0  0  0
 52 28  1  0  0  0  0
 54 31  1  0  0  0  0
 55 31  1  0  0  0  0
 56 32  1  0  0  0  0
 57 32  1  0  0  0  0
M  END
>  <Pose>
1

>  <Score>
-6.10

$$$$
