
 OpenBabel03232204043D

 58 61  0  0  1  0  0  0  0  0999 V2000
   15.5740  -53.6650   39.4810 S   0  0  0  0  0  0  0  0  0  0  0  0
   16.0620  -52.0350   39.5710 C   0  0  0  0  0  0  0  0  0  0  0  0
   16.7810  -51.8930   38.4760 N   0  0  0  0  0  0  0  0  0  0  0  0
   16.9400  -52.8970   37.6690 C   0  0  0  0  0  0  0  0  0  0  0  0
   16.3360  -54.0850   38.0060 C   0  0  0  0  0  0  0  0  0  0  0  0
   16.3810  -55.3910   37.3130 C   0  0  0  0  0  0  0  0  0  0  0  0
   15.5600  -56.3450   37.6390 C   0  0  0  0  0  0  0  0  0  0  0  0
   15.5110  -57.6990   37.0030 C   0  0  1  0  0  0  0  0  0  0  0  0
   14.1120  -58.0260   37.0700 N   0  0  0  0  0  0  0  0  0  0  0  0
   13.6470  -57.4580   38.3020 C   0  0  0  0  0  0  0  0  0  0  0  0
   12.6410  -57.8160   38.9410 O   0  0  0  0  0  0  0  0  0  0  0  0
   14.5520  -56.3850   38.6910 C   0  0  0  0  0  0  0  0  0  0  0  0
   14.5440  -55.6190   39.6930 O   0  0  0  0  0  0  0  0  0  0  0  0
   13.3900  -58.7850   36.0930 C   0  0  0  0  0  0  0  0  0  0  0  0
   12.7260  -59.9990   36.5950 C   0  0  0  0  0  0  0  0  0  0  0  0
   12.5620  -61.1140   35.6990 C   0  0  0  0  0  0  0  0  0  0  0  0
   13.5020  -62.0110   35.2190 N   0  0  0  0  0  4  0  0  0  0  0  0
   14.4530  -61.3260   34.2650 C   0  0  0  0  0  0  0  0  0  0  0  0
   13.7980  -61.2000   32.9300 C   0  0  0  0  0  0  0  0  0  0  0  0
   13.6770  -62.4820   32.4050 O   0  0  0  0  0  0  0  0  0  0  0  0
   12.6830  -63.1120   33.1860 C   0  0  0  0  0  0  0  0  0  0  0  0
   13.1310  -63.2430   34.6150 C   0  0  0  0  0  0  0  0  0  0  0  0
   16.0970  -57.6690   35.6550 C   0  0  0  0  0  0  0  0  0  0  0  0
   17.3150  -58.1700   35.2840 C   0  0  0  0  0  0  0  0  0  0  0  0
   17.8290  -58.1180   34.0080 C   0  0  0  0  0  0  0  0  0  0  0  0
   17.0810  -57.5230   33.0240 C   0  0  0  0  0  0  0  0  0  0  0  0
   15.8530  -57.0000   33.3330 C   0  0  0  0  0  0  0  0  0  0  0  0
   15.3680  -57.0700   34.6180 C   0  0  0  0  0  0  0  0  0  0  0  0
   17.8000  -57.4530   31.2480 B   0  0  0  0  0  0  0  0  0  0  0  0
   17.3190  -55.6110   36.2900 O   0  0  0  0  0  0  0  0  0  0  0  0
   17.8020  -52.7820   36.4150 C   0  0  0  0  0  0  0  0  0  0  0  0
   15.7710  -50.9910   40.6150 C   0  0  0  0  0  0  0  0  0  0  0  0
   16.0460  -58.4350   37.6350 H   0  0  0  0  0  0  0  0  0  0  0  0
   12.7490  -58.1500   35.5080 H   0  0  0  0  0  0  0  0  0  0  0  0
   14.2020  -59.1240   35.3350 H   0  0  0  0  0  0  0  0  0  0  0  0
   13.1950  -60.2350   37.5930 H   0  0  0  0  0  0  0  0  0  0  0  0
   11.6950  -59.6380   36.9590 H   0  0  0  0  0  0  0  0  0  0  0  0
   11.6260  -61.6950   36.1190 H   0  0  0  0  0  0  0  0  0  0  0  0
   12.0350  -60.6860   34.7550 H   0  0  0  0  0  0  0  0  0  0  0  0
   14.1710  -62.2680   35.9840 H   0  0  0  0  0  0  0  0  0  0  0  0
   14.8100  -60.4300   34.7410 H   0  0  0  0  0  0  0  0  0  0  0  0
   15.3020  -62.0210   34.1430 H   0  0  0  0  0  0  0  0  0  0  0  0
   14.4350  -60.5450   32.3040 H   0  0  0  0  0  0  0  0  0  0  0  0
   12.7720  -60.7860   32.9660 H   0  0  0  0  0  0  0  0  0  0  0  0
   12.5620  -64.1280   32.7590 H   0  0  0  0  0  0  0  0  0  0  0  0
   11.7570  -62.5660   33.0260 H   0  0  0  0  0  0  0  0  0  0  0  0
   14.0680  -63.9240   34.5190 H   0  0  0  0  0  0  0  0  0  0  0  0
   12.4550  -63.8480   35.1840 H   0  0  0  0  0  0  0  0  0  0  0  0
   17.9170  -58.6460   36.0450 H   0  0  0  0  0  0  0  0  0  0  0  0
   18.8110  -58.5480   33.8160 H   0  0  0  0  0  0  0  0  0  0  0  0
   15.2840  -56.5320   32.5200 H   0  0  0  0  0  0  0  0  0  0  0  0
   14.4010  -56.6530   34.8420 H   0  0  0  0  0  0  0  0  0  0  0  0
   18.0800  -53.7600   36.0490 H   0  0  0  0  0  0  0  0  0  0  0  0
   17.2950  -52.1780   35.6400 H   0  0  0  0  0  0  0  0  0  0  0  0
   18.7420  -52.2290   36.6690 H   0  0  0  0  0  0  0  0  0  0  0  0
   15.6500  -51.5120   41.6010 H   0  0  0  0  0  0  0  0  0  0  0  0
   16.6660  -50.3290   40.7540 H   0  0  0  0  0  0  0  0  0  0  0  0
   14.8800  -50.4080   40.3690 H   0  0  0  0  0  0  0  0  0  0  0  0
  1  2  1  0  0  0  0
  2 32  1  0  0  0  0
  3  2  2  0  0  0  0
  4  5  2  0  0  0  0
  4  3  1  0  0  0  0
  5  1  1  0  0  0  0
  6  7  2  0  0  0  0
  6  5  1  0  0  0  0
  7 12  1  0  0  0  0
  8  9  1  0  0  0  0
  8 33  1  1  0  0  0
  8  7  1  0  0  0  0
  9 10  1  0  0  0  0
 10 12  1  0  0  0  0
 10 11  2  0  0  0  0
 12 13  2  0  0  0  0
 14 15  1  0  0  0  0
 14  9  1  0  0  0  0
 15 37  1  0  0  0  0
 15 36  1  0  0  0  0
 16 38  1  0  0  0  0
 16 15  1  0  0  0  0
 17 16  1  0  0  0  0
 17 40  1  0  0  0  0
 18 41  1  0  0  0  0
 18 17  1  0  0  0  0
 19 44  1  0  0  0  0
 19 18  1  0  0  0  0
 20 19  1  0  0  0  0
 20 21  1  0  0  0  0
 21 22  1  0  0  0  0
 22 48  1  0  0  0  0
 22 17  1  0  0  0  0
 23  8  1  0  0  0  0
 24 23  1  0  0  0  0
 24 49  1  0  0  0  0
 25 24  2  0  0  0  0
 26 27  2  0  0  0  0
 26 25  1  0  0  0  0
 27 28  1  0  0  0  0
 28 52  1  0  0  0  0
 28 23  2  0  0  0  0
 29 26  1  0  0  0  0
 30  6  1  0  0  0  0
 31 55  1  0  0  0  0
 31  4  1  0  0  0  0
 32 57  1  0  0  0  0
 32 56  1  0  0  0  0
 34 14  1  0  0  0  0
 35 14  1  0  0  0  0
 39 16  1  0  0  0  0
 42 18  1  0  0  0  0
 43 19  1  0  0  0  0
 45 21  1  0  0  0  0
 46 21  1  0  0  0  0
 47 22  1  0  0  0  0
 50 25  1  0  0  0  0
 51 27  1  0  0  0  0
 53 31  1  0  0  0  0
 54 31  1  0  0  0  0
 58 32  1  0  0  0  0
M  END
>  <Pose>
1

>  <Score>
-6.82

$$$$
