
 OpenBabel03232204043D

 55 58  0  0  1  0  0  0  0  0999 V2000
   15.1950  -54.3250   38.8570 S   0  0  0  0  0  0  0  0  0  0  0  0
   15.9310  -53.2400   39.9410 C   0  0  0  0  0  0  0  0  0  0  0  0
   17.1650  -53.1760   39.4820 N   0  0  0  0  0  0  0  0  0  0  0  0
   17.5090  -53.8630   38.4380 C   0  0  0  0  0  0  0  0  0  0  0  0
   16.5500  -54.6470   37.8420 C   0  0  0  0  0  0  0  0  0  0  0  0
   16.6440  -55.5550   36.6890 C   0  0  0  0  0  0  0  0  0  0  0  0
   15.9780  -56.6880   36.7670 C   0  0  0  0  0  0  0  0  0  0  0  0
   15.8740  -57.7950   35.7680 C   0  0  1  0  0  0  0  0  0  0  0  0
   14.4860  -58.0480   35.7920 N   0  0  0  0  0  0  0  0  0  0  0  0
   14.2100  -58.1150   37.2460 C   0  0  0  0  0  0  0  0  0  0  0  0
   13.3190  -58.7960   37.8180 O   0  0  0  0  0  0  0  0  0  0  0  0
   15.1850  -57.2270   37.8710 C   0  0  0  0  0  0  0  0  0  0  0  0
   15.3650  -56.9390   39.0940 O   0  0  0  0  0  0  0  0  0  0  0  0
   13.3930  -58.3110   34.9180 C   0  0  0  0  0  0  0  0  0  0  0  0
   13.6130  -59.0140   33.6490 C   0  0  0  0  0  0  0  0  0  0  0  0
   13.0660  -60.2830   33.3880 N   0  0  0  0  0  4  0  0  0  0  0  0
   14.0370  -61.3520   33.2890 C   0  0  0  0  0  0  0  0  0  0  0  0
   13.2600  -62.5960   32.8680 C   0  0  0  0  0  0  0  0  0  0  0  0
   11.8920  -62.4230   33.0750 O   0  0  0  0  0  0  0  0  0  0  0  0
   11.7620  -62.0190   34.4200 C   0  0  0  0  0  0  0  0  0  0  0  0
   12.3110  -60.6380   34.6340 C   0  0  0  0  0  0  0  0  0  0  0  0
   16.6820  -57.7080   34.6010 C   0  0  0  0  0  0  0  0  0  0  0  0
   17.9040  -58.3860   34.5700 C   0  0  0  0  0  0  0  0  0  0  0  0
   18.7500  -58.3410   33.4930 C   0  0  0  0  0  0  0  0  0  0  0  0
   18.3670  -57.5930   32.4000 C   0  0  0  0  0  0  0  0  0  0  0  0
   17.1650  -56.9160   32.4100 C   0  0  0  0  0  0  0  0  0  0  0  0
   16.3320  -56.9760   33.5040 C   0  0  0  0  0  0  0  0  0  0  0  0
   19.4880  -57.4770   30.8550 B   0  0  0  0  0  0  0  0  0  0  0  0
   17.3870  -55.2640   35.5590 O   0  0  0  0  0  0  0  0  0  0  0  0
   18.9400  -53.8370   37.9190 C   0  0  0  0  0  0  0  0  0  0  0  0
   15.3310  -52.5290   41.1240 C   0  0  0  0  0  0  0  0  0  0  0  0
   16.3140  -58.6820   36.3730 H   0  0  0  0  0  0  0  0  0  0  0  0
   12.9130  -57.3140   34.6530 H   0  0  0  0  0  0  0  0  0  0  0  0
   12.5500  -58.8450   35.4290 H   0  0  0  0  0  0  0  0  0  0  0  0
   14.7410  -59.1290   33.5270 H   0  0  0  0  0  0  0  0  0  0  0  0
   13.3330  -58.2770   32.8210 H   0  0  0  0  0  0  0  0  0  0  0  0
   12.3670  -60.2570   32.6390 H   0  0  0  0  0  0  0  0  0  0  0  0
   14.8040  -61.1860   32.5300 H   0  0  0  0  0  0  0  0  0  0  0  0
   14.4880  -61.4970   34.3040 H   0  0  0  0  0  0  0  0  0  0  0  0
   13.6720  -63.4360   33.4890 H   0  0  0  0  0  0  0  0  0  0  0  0
   13.3880  -62.7990   31.7840 H   0  0  0  0  0  0  0  0  0  0  0  0
   10.7080  -62.0820   34.7380 H   0  0  0  0  0  0  0  0  0  0  0  0
   12.4120  -62.7440   34.9890 H   0  0  0  0  0  0  0  0  0  0  0  0
   11.5590  -59.8710   34.8090 H   0  0  0  0  0  0  0  0  0  0  0  0
   13.0870  -60.6320   35.4270 H   0  0  0  0  0  0  0  0  0  0  0  0
   18.2380  -58.9900   35.4310 H   0  0  0  0  0  0  0  0  0  0  0  0
   19.7060  -58.8810   33.4890 H   0  0  0  0  0  0  0  0  0  0  0  0
   16.8870  -56.3340   31.5320 H   0  0  0  0  0  0  0  0  0  0  0  0
   15.3810  -56.3970   33.4640 H   0  0  0  0  0  0  0  0  0  0  0  0
   19.6160  -53.8600   38.8050 H   0  0  0  0  0  0  0  0  0  0  0  0
   19.1680  -52.9240   37.3760 H   0  0  0  0  0  0  0  0  0  0  0  0
   19.1310  -54.7100   37.2820 H   0  0  0  0  0  0  0  0  0  0  0  0
   16.0240  -52.5060   41.9830 H   0  0  0  0  0  0  0  0  0  0  0  0
   14.3750  -53.0740   41.3770 H   0  0  0  0  0  0  0  0  0  0  0  0
   15.0260  -51.5220   40.7790 H   0  0  0  0  0  0  0  0  0  0  0  0
  1  2  1  0  0  0  0
  2 31  1  0  0  0  0
  3  2  2  0  0  0  0
  4  3  1  0  0  0  0
  5  4  2  0  0  0  0
  5  1  1  0  0  0  0
  6  7  2  0  0  0  0
  6  5  1  0  0  0  0
  7 12  1  0  0  0  0
  8  9  1  0  0  0  0
  8 32  1  1  0  0  0
  8  7  1  0  0  0  0
  9 10  1  0  0  0  0
 10 11  2  0  0  0  0
 10 12  1  0  0  0  0
 12 13  2  0  0  0  0
 14 34  1  0  0  0  0
 14  9  1  0  0  0  0
 15 14  1  0  0  0  0
 16 15  1  0  0  0  0
 16 21  1  0  0  0  0
 17 16  1  0  0  0  0
 17 39  1  0  0  0  0
 18 19  1  0  0  0  0
 18 17  1  0  0  0  0
 18 40  1  0  0  0  0
 19 20  1  0  0  0  0
 20 21  1  0  0  0  0
 20 42  1  0  0  0  0
 20 43  1  0  0  0  0
 21 44  1  0  0  0  0
 21 45  1  0  0  0  0
 22  8  1  0  0  0  0
 23 22  1  0  0  0  0
 23 46  1  0  0  0  0
 24 23  2  0  0  0  0
 25 26  2  0  0  0  0
 25 24  1  0  0  0  0
 26 27  1  0  0  0  0
 27 22  2  0  0  0  0
 28 25  1  0  0  0  0
 29  6  1  0  0  0  0
 30  4  1  0  0  0  0
 30 50  1  0  0  0  0
 31 54  1  0  0  0  0
 31 53  1  0  0  0  0
 33 14  1  0  0  0  0
 35 15  1  0  0  0  0
 36 15  1  0  0  0  0
 37 16  1  0  0  0  0
 38 17  1  0  0  0  0
 41 18  1  0  0  0  0
 47 24  1  0  0  0  0
 48 26  1  0  0  0  0
 49 27  1  0  0  0  0
 51 30  1  0  0  0  0
 52 30  1  0  0  0  0
 55 31  1  0  0  0  0
M  END
>  <Pose>
1

>  <Score>
-6.79

$$$$
