
 OpenBabel03232204043D

 45 48  0  0  1  0  0  0  0  0999 V2000
   13.6530  -58.0350   34.1720 S   0  0  0  0  0  0  0  0  0  0  0  0
   12.6330  -59.5550   34.0320 C   0  0  0  0  0  0  0  0  0  0  0  0
   13.3550  -60.5770   34.9120 C   0  0  0  0  0  0  0  0  0  0  0  0
   14.6950  -60.8900   34.2540 C   0  0  0  0  0  0  0  0  0  0  0  0
   15.6240  -59.8670   34.6670 N   0  0  1  0  0  0  0  0  0  0  0  0
   15.2720  -58.6070   34.6690 C   0  0  2  0  0  0  0  0  0  0  0  0
   16.4110  -57.8440   35.1500 N   0  0  0  0  0  0  0  0  0  0  0  0
   17.5130  -58.5820   34.5710 C   0  0  2  0  0  0  0  0  0  0  0  0
   17.0060  -59.9560   35.1490 C   0  0  0  0  0  0  0  0  0  0  0  0
   18.7500  -58.2690   35.0370 O   0  0  0  0  0  0  0  0  0  0  0  0
   17.3690  -58.6220   33.1120 C   0  0  0  0  0  0  0  0  0  0  0  0
   17.1350  -59.7900   32.4070 C   0  0  0  0  0  0  0  0  0  0  0  0
   17.0430  -59.7530   31.0080 C   0  0  0  0  0  0  0  0  0  0  0  0
   17.1730  -58.6140   30.3070 C   0  0  0  0  0  0  0  0  0  0  0  0
   17.4090  -57.4040   30.9930 C   0  0  0  0  0  0  0  0  0  0  0  0
   17.4940  -57.4840   32.3720 C   0  0  0  0  0  0  0  0  0  0  0  0
   17.0890  -58.5340   28.8920 O   0  0  0  0  0  0  0  0  0  0  0  0
   16.3220  -59.4740   28.1700 C   0  0  0  0  0  0  0  0  0  0  0  0
   16.3830  -56.7340   36.0190 C   0  0  0  0  0  0  0  0  0  0  0  0
   17.2120  -55.6300   35.7010 C   0  0  0  0  0  0  0  0  0  0  0  0
   17.2920  -54.5180   36.5210 C   0  0  0  0  0  0  0  0  0  0  0  0
   16.5710  -54.4430   37.6810 C   0  0  0  0  0  0  0  0  0  0  0  0
   15.7560  -55.5030   38.0190 C   0  0  0  0  0  0  0  0  0  0  0  0
   15.6770  -56.6300   37.1770 C   0  0  0  0  0  0  0  0  0  0  0  0
   16.6650  -52.9400   38.8560 B   0  0  0  0  0  0  0  0  0  0  0  0
   11.6540  -59.3080   34.4780 H   0  0  0  0  0  0  0  0  0  0  0  0
   12.5810  -59.8970   32.9900 H   0  0  0  0  0  0  0  0  0  0  0  0
   12.7420  -61.4600   35.0960 H   0  0  0  0  0  0  0  0  0  0  0  0
   13.5340  -60.0470   35.8930 H   0  0  0  0  0  0  0  0  0  0  0  0
   15.0410  -61.8870   34.6090 H   0  0  0  0  0  0  0  0  0  0  0  0
   14.6340  -60.9670   33.1620 H   0  0  0  0  0  0  0  0  0  0  0  0
   17.5670  -60.7870   34.7880 H   0  0  0  0  0  0  0  0  0  0  0  0
   17.0010  -59.7840   36.2450 H   0  0  0  0  0  0  0  0  0  0  0  0
   19.1770  -59.1070   35.3940 H   0  0  0  0  0  0  0  0  0  0  0  0
   17.0300  -60.7160   32.9290 H   0  0  0  0  0  0  0  0  0  0  0  0
   16.8590  -60.6940   30.5020 H   0  0  0  0  0  0  0  0  0  0  0  0
   17.5200  -56.4930   30.4520 H   0  0  0  0  0  0  0  0  0  0  0  0
   17.6680  -56.5350   32.8640 H   0  0  0  0  0  0  0  0  0  0  0  0
   16.1170  -59.0500   27.1720 H   0  0  0  0  0  0  0  0  0  0  0  0
   15.3370  -59.6950   28.6250 H   0  0  0  0  0  0  0  0  0  0  0  0
   16.8680  -60.4550   28.0580 H   0  0  0  0  0  0  0  0  0  0  0  0
   17.7910  -55.6540   34.8040 H   0  0  0  0  0  0  0  0  0  0  0  0
   17.9360  -53.6770   36.2630 H   0  0  0  0  0  0  0  0  0  0  0  0
   15.1870  -55.4660   38.9290 H   0  0  0  0  0  0  0  0  0  0  0  0
   15.0300  -57.4550   37.4720 H   0  0  0  0  0  0  0  0  0  0  0  0
  2  1  1  0  0  0  0
  2 26  1  0  0  0  0
  2  3  1  0  0  0  0
  3 28  1  0  0  0  0
  3 29  1  0  0  0  0
  4 30  1  0  0  0  0
  4  3  1  0  0  0  0
  5  4  1  1  0  0  0
  5  6  1  0  0  0  0
  5  9  1  0  0  0  0
  6  1  1  1  0  0  0
  6  7  1  0  0  0  0
  7 19  1  0  0  0  0
  8 10  1  1  0  0  0
  8  9  1  0  0  0  0
  8  7  1  0  0  0  0
  9 33  1  0  0  0  0
 10 34  1  0  0  0  0
 11  8  1  0  0  0  0
 12 35  1  0  0  0  0
 12 11  1  0  0  0  0
 13 12  2  0  0  0  0
 14 15  2  0  0  0  0
 14 13  1  0  0  0  0
 15 16  1  0  0  0  0
 16 38  1  0  0  0  0
 16 11  2  0  0  0  0
 17 14  1  0  0  0  0
 18 40  1  0  0  0  0
 18 17  1  0  0  0  0
 19 24  1  0  0  0  0
 20 19  2  0  0  0  0
 20 21  1  0  0  0  0
 21 22  2  0  0  0  0
 22 23  1  0  0  0  0
 22 25  1  0  0  0  0
 23 44  1  0  0  0  0
 24 45  1  0  0  0  0
 24 23  2  0  0  0  0
 27  2  1  0  0  0  0
 31  4  1  0  0  0  0
 32  9  1  0  0  0  0
 36 13  1  0  0  0  0
 37 15  1  0  0  0  0
 39 18  1  0  0  0  0
 41 18  1  0  0  0  0
 42 20  1  0  0  0  0
 43 21  1  0  0  0  0
M  END
>  <Pose>
1

>  <Score>
-4.68

$$$$
