
 OpenBabel03232204043D

 49 52  0  0  1  0  0  0  0  0999 V2000
   18.1640  -55.2600   31.7430 S   0  0  0  0  0  0  0  0  0  0  0  0
   18.2110  -55.9930   30.1270 C   0  0  0  0  0  0  0  0  0  0  0  0
   17.5970  -57.3780   30.1770 C   0  0  0  0  0  0  0  0  0  0  0  0
   18.3920  -58.2440   31.1380 C   0  0  0  0  0  0  0  0  0  0  0  0
   18.0910  -57.8730   32.5020 N   0  0  2  0  0  0  0  0  0  0  0  0
   17.6150  -58.6320   33.6130 C   0  0  2  0  0  0  0  0  0  0  0  0
   18.3320  -57.9070   34.7410 C   0  0  0  0  0  0  0  0  0  0  0  0
   18.3180  -56.5290   34.3030 N   0  0  0  0  0  0  0  0  0  0  0  0
   18.2300  -56.5380   33.0190 C   0  0  2  0  0  0  0  0  0  0  0  0
   18.3510  -55.3650   35.1150 C   0  0  0  0  0  0  0  0  0  0  0  0
   17.3880  -55.2620   36.1110 C   0  0  0  0  0  0  0  0  0  0  0  0
   17.3400  -54.1330   36.9350 C   0  0  0  0  0  0  0  0  0  0  0  0
   18.2560  -53.1120   36.7530 C   0  0  0  0  0  0  0  0  0  0  0  0
   19.2220  -53.1810   35.7780 C   0  0  0  0  0  0  0  0  0  0  0  0
   19.2170  -54.3440   34.9820 C   0  0  0  0  0  0  0  0  0  0  0  0
   20.1660  -52.1960   35.5460 O   0  0  0  0  0  0  0  0  0  0  0  0
   20.3100  -51.0080   36.2710 C   0  0  0  0  0  0  0  0  0  0  0  0
   16.4760  -56.2800   36.2870 O   0  0  0  0  0  0  0  0  0  0  0  0
   15.7210  -56.5000   37.4560 C   0  0  0  0  0  0  0  0  0  0  0  0
   18.0440  -59.9520   33.5160 O   0  0  0  0  0  0  0  0  0  0  0  0
   16.1660  -58.5410   33.8770 C   0  0  0  0  0  0  0  0  0  0  0  0
   15.3620  -57.4800   33.6010 C   0  0  0  0  0  0  0  0  0  0  0  0
   14.0050  -57.4870   33.9280 C   0  0  0  0  0  0  0  0  0  0  0  0
   13.4250  -58.5740   34.5480 C   0  0  0  0  0  0  0  0  0  0  0  0
   14.2210  -59.6420   34.8290 C   0  0  0  0  0  0  0  0  0  0  0  0
   15.5500  -59.6350   34.5090 C   0  0  0  0  0  0  0  0  0  0  0  0
   11.5610  -58.5670   34.9980 B   0  0  0  0  0  0  0  0  0  0  0  0
   17.6460  -55.3830   29.3720 H   0  0  0  0  0  0  0  0  0  0  0  0
   19.2790  -56.1240   29.7900 H   0  0  0  0  0  0  0  0  0  0  0  0
   16.5430  -57.3000   30.5300 H   0  0  0  0  0  0  0  0  0  0  0  0
   17.6440  -57.8590   29.1890 H   0  0  0  0  0  0  0  0  0  0  0  0
   18.0510  -59.2990   30.9580 H   0  0  0  0  0  0  0  0  0  0  0  0
   19.4660  -58.1030   30.9150 H   0  0  0  0  0  0  0  0  0  0  0  0
   17.7380  -58.1350   35.6250 H   0  0  0  0  0  0  0  0  0  0  0  0
   19.3640  -58.2950   34.8190 H   0  0  0  0  0  0  0  0  0  0  0  0
   16.5780  -54.0690   37.7140 H   0  0  0  0  0  0  0  0  0  0  0  0
   18.2420  -52.2210   37.3760 H   0  0  0  0  0  0  0  0  0  0  0  0
   19.9760  -54.3590   34.2390 H   0  0  0  0  0  0  0  0  0  0  0  0
   21.3530  -50.5830   36.1280 H   0  0  0  0  0  0  0  0  0  0  0  0
   19.5720  -50.2950   35.8020 H   0  0  0  0  0  0  0  0  0  0  0  0
   20.1460  -51.1250   37.3610 H   0  0  0  0  0  0  0  0  0  0  0  0
   16.3450  -56.3540   38.3430 H   0  0  0  0  0  0  0  0  0  0  0  0
   14.8980  -55.7450   37.5490 H   0  0  0  0  0  0  0  0  0  0  0  0
   15.3200  -57.5430   37.4860 H   0  0  0  0  0  0  0  0  0  0  0  0
   18.9790  -59.9840   33.2100 H   0  0  0  0  0  0  0  0  0  0  0  0
   15.7740  -56.6230   33.1210 H   0  0  0  0  0  0  0  0  0  0  0  0
   13.3700  -56.6110   33.6900 H   0  0  0  0  0  0  0  0  0  0  0  0
   13.7380  -60.4820   35.3160 H   0  0  0  0  0  0  0  0  0  0  0  0
   16.1450  -60.4990   34.7510 H   0  0  0  0  0  0  0  0  0  0  0  0
  2  3  1  0  0  0  0
  2  1  1  0  0  0  0
  3 30  1  0  0  0  0
  3  4  1  0  0  0  0
  5  4  1  6  0  0  0
  5  9  1  0  0  0  0
  5  6  1  0  0  0  0
  6 20  1  6  0  0  0
  6 21  1  0  0  0  0
  6  7  1  0  0  0  0
  7 35  1  0  0  0  0
  7 34  1  0  0  0  0
  8  7  1  0  0  0  0
  8 10  1  0  0  0  0
  9  1  1  1  0  0  0
  9  8  1  0  0  0  0
 10 11  1  0  0  0  0
 11 18  1  0  0  0  0
 11 12  2  0  0  0  0
 12 36  1  0  0  0  0
 13 12  1  0  0  0  0
 13 37  1  0  0  0  0
 14 13  2  0  0  0  0
 15 10  2  0  0  0  0
 15 14  1  0  0  0  0
 16 14  1  0  0  0  0
 16 17  1  0  0  0  0
 17 41  1  0  0  0  0
 18 19  1  0  0  0  0
 19 44  1  0  0  0  0
 19 43  1  0  0  0  0
 19 42  1  0  0  0  0
 21 26  1  0  0  0  0
 22 21  2  0  0  0  0
 22 23  1  0  0  0  0
 23 24  2  0  0  0  0
 24 25  1  0  0  0  0
 24 27  1  0  0  0  0
 25 48  1  0  0  0  0
 26 49  1  0  0  0  0
 26 25  2  0  0  0  0
 28  2  1  0  0  0  0
 29  2  1  0  0  0  0
 31  3  1  0  0  0  0
 32  4  1  0  0  0  0
 33  4  1  0  0  0  0
 38 15  1  0  0  0  0
 39 17  1  0  0  0  0
 40 17  1  0  0  0  0
 45 20  1  0  0  0  0
 46 22  1  0  0  0  0
 47 23  1  0  0  0  0
M  END
>  <Pose>
1

>  <Score>
-6.03

$$$$
