
 OpenBabel03232204043D

 43 46  0  0  1  0  0  0  0  0999 V2000
   13.7130  -57.8960   34.3500 S   0  0  0  0  0  0  0  0  0  0  0  0
   12.9650  -59.5720   34.2080 C   0  0  0  0  0  0  0  0  0  0  0  0
   14.0740  -60.5940   34.0250 C   0  0  0  0  0  0  0  0  0  0  0  0
   15.0780  -60.1280   33.0030 C   0  0  0  0  0  0  0  0  0  0  0  0
   15.9960  -59.2150   33.6060 N   0  0  2  0  0  0  0  0  0  0  0  0
   17.4280  -58.9800   33.5770 C   0  0  1  0  0  0  0  0  0  0  0  0
   17.7020  -58.3710   34.9410 C   0  0  0  0  0  0  0  0  0  0  0  0
   16.4050  -57.7310   35.2400 N   0  0  0  0  0  0  0  0  0  0  0  0
   15.4860  -58.2140   34.5020 C   0  0  1  0  0  0  0  0  0  0  0  0
   16.2200  -56.7280   36.2350 C   0  0  0  0  0  0  0  0  0  0  0  0
   15.2960  -56.7460   37.2370 C   0  0  0  0  0  0  0  0  0  0  0  0
   15.1830  -55.7400   38.1870 C   0  0  0  0  0  0  0  0  0  0  0  0
   16.0350  -54.6550   38.1350 C   0  0  0  0  0  0  0  0  0  0  0  0
   16.9900  -54.6020   37.1260 C   0  0  0  0  0  0  0  0  0  0  0  0
   17.0840  -55.6220   36.1870 C   0  0  0  0  0  0  0  0  0  0  0  0
   15.9550  -53.2160   39.3940 B   0  0  0  0  0  0  0  0  0  0  0  0
   18.1480  -60.1380   33.3660 O   0  0  0  0  0  0  0  0  0  0  0  0
   17.7980  -57.9770   32.5510 C   0  0  0  0  0  0  0  0  0  0  0  0
   18.3660  -56.7780   32.9360 C   0  0  0  0  0  0  0  0  0  0  0  0
   18.6990  -55.8640   31.9360 C   0  0  0  0  0  0  0  0  0  0  0  0
   18.4720  -56.1410   30.6220 C   0  0  0  0  0  0  0  0  0  0  0  0
   17.9050  -57.3370   30.2220 C   0  0  0  0  0  0  0  0  0  0  0  0
   17.5730  -58.2500   31.2310 C   0  0  0  0  0  0  0  0  0  0  0  0
   19.2830  -54.6310   32.3220 N   0  0  0  0  0  0  0  0  0  0  0  0
   19.0770  -54.1280   33.4430 O   0  0  0  0  0  0  0  0  0  0  0  0
   20.1030  -53.9400   31.4750 O   0  0  0  0  0  0  0  0  0  0  0  0
   12.2330  -59.5980   33.4010 H   0  0  0  0  0  0  0  0  0  0  0  0
   12.4640  -59.8100   35.1630 H   0  0  0  0  0  0  0  0  0  0  0  0
   13.6170  -61.5370   33.6460 H   0  0  0  0  0  0  0  0  0  0  0  0
   14.5930  -60.8190   34.9600 H   0  0  0  0  0  0  0  0  0  0  0  0
   15.5550  -60.9950   32.5200 H   0  0  0  0  0  0  0  0  0  0  0  0
   14.5190  -59.5550   32.2040 H   0  0  0  0  0  0  0  0  0  0  0  0
   17.9500  -59.1240   35.6950 H   0  0  0  0  0  0  0  0  0  0  0  0
   18.4810  -57.5770   34.9100 H   0  0  0  0  0  0  0  0  0  0  0  0
   14.6060  -57.5680   37.3130 H   0  0  0  0  0  0  0  0  0  0  0  0
   14.4460  -55.7690   38.9790 H   0  0  0  0  0  0  0  0  0  0  0  0
   17.6520  -53.7430   37.1060 H   0  0  0  0  0  0  0  0  0  0  0  0
   17.8390  -55.5560   35.4080 H   0  0  0  0  0  0  0  0  0  0  0  0
   18.9010  -60.0680   32.7630 H   0  0  0  0  0  0  0  0  0  0  0  0
   18.5440  -56.5610   33.9740 H   0  0  0  0  0  0  0  0  0  0  0  0
   18.7300  -55.4330   29.8470 H   0  0  0  0  0  0  0  0  0  0  0  0
   17.7410  -57.5360   29.1900 H   0  0  0  0  0  0  0  0  0  0  0  0
   17.1310  -59.1750   30.8970 H   0  0  0  0  0  0  0  0  0  0  0  0
  2  1  1  0  0  0  0
  2 28  1  0  0  0  0
  3  2  1  0  0  0  0
  3 30  1  0  0  0  0
  4  3  1  0  0  0  0
  5  4  1  1  0  0  0
  5  9  1  0  0  0  0
  6 17  1  6  0  0  0
  6  5  1  0  0  0  0
  6  7  1  0  0  0  0
  7  8  1  0  0  0  0
  7 33  1  0  0  0  0
  8 10  1  0  0  0  0
  9  1  1  6  0  0  0
  9  8  1  0  0  0  0
 10 11  1  0  0  0  0
 11 35  1  0  0  0  0
 11 12  2  0  0  0  0
 12 36  1  0  0  0  0
 13 12  1  0  0  0  0
 13 16  1  0  0  0  0
 14 13  2  0  0  0  0
 15 10  2  0  0  0  0
 15 14  1  0  0  0  0
 18 19  1  0  0  0  0
 18  6  1  0  0  0  0
 19 40  1  0  0  0  0
 20 24  1  0  0  0  0
 20 19  2  0  0  0  0
 21 20  1  0  0  0  0
 22 21  2  0  0  0  0
 22 23  1  0  0  0  0
 23 18  2  0  0  0  0
 24 25  2  0  0  0  0
 26 24  2  0  0  0  0
 27  2  1  0  0  0  0
 29  3  1  0  0  0  0
 31  4  1  0  0  0  0
 32  4  1  0  0  0  0
 34  7  1  0  0  0  0
 37 14  1  0  0  0  0
 38 15  1  0  0  0  0
 39 17  1  0  0  0  0
 41 21  1  0  0  0  0
 42 22  1  0  0  0  0
 43 23  1  0  0  0  0
M  END
>  <Pose>
1

>  <Score>
-6.50

$$$$
