
 OpenBabel03232204043D

 41 44  0  0  1  0  0  0  0  0999 V2000
   17.0890  -55.2690   32.6650 S   0  0  0  0  0  0  0  0  0  0  0  0
   18.3640  -55.2340   31.3260 C   0  0  0  0  0  0  0  0  0  0  0  0
   19.7370  -55.0480   31.9180 C   0  0  0  0  0  0  0  0  0  0  0  0
   19.7410  -54.2880   33.2260 C   0  0  0  0  0  0  0  0  0  0  0  0
   19.2230  -55.0130   34.3200 N   0  0  1  0  0  0  0  0  0  0  0  0
   19.4500  -55.2210   35.7610 C   0  0  1  0  0  0  0  0  0  0  0  0
   19.1110  -56.6910   35.8120 C   0  0  0  0  0  0  0  0  0  0  0  0
   17.9340  -56.7450   34.9580 N   0  0  0  0  0  0  0  0  0  0  0  0
   18.0620  -55.8570   34.0900 C   0  0  1  0  0  0  0  0  0  0  0  0
   16.8050  -57.6250   35.1450 C   0  0  0  0  0  0  0  0  0  0  0  0
   16.3700  -58.5450   34.2440 C   0  0  0  0  0  0  0  0  0  0  0  0
   15.2500  -59.3420   34.4440 C   0  0  0  0  0  0  0  0  0  0  0  0
   14.5270  -59.2120   35.6000 C   0  0  0  0  0  0  0  0  0  0  0  0
   14.9660  -58.2790   36.5190 C   0  0  0  0  0  0  0  0  0  0  0  0
   16.0690  -57.4960   36.3200 C   0  0  0  0  0  0  0  0  0  0  0  0
   12.9630  -60.2660   35.9620 B   0  0  0  0  0  0  0  0  0  0  0  0
   20.7420  -55.0120   36.1360 O   0  0  0  0  0  0  0  0  0  0  0  0
   18.4500  -54.4480   36.5700 C   0  0  0  0  0  0  0  0  0  0  0  0
   17.5470  -55.0540   37.4230 C   0  0  0  0  0  0  0  0  0  0  0  0
   16.6590  -54.2640   38.1410 C   0  0  0  0  0  0  0  0  0  0  0  0
   16.6370  -52.8790   38.0430 C   0  0  0  0  0  0  0  0  0  0  0  0
   17.5290  -52.2720   37.2010 C   0  0  0  0  0  0  0  0  0  0  0  0
   18.4200  -53.0620   36.4760 C   0  0  0  0  0  0  0  0  0  0  0  0
   18.3700  -56.2880   30.9250 H   0  0  0  0  0  0  0  0  0  0  0  0
   18.0770  -54.5090   30.5560 H   0  0  0  0  0  0  0  0  0  0  0  0
   20.3290  -54.4330   31.1750 H   0  0  0  0  0  0  0  0  0  0  0  0
   20.2490  -56.0150   32.1060 H   0  0  0  0  0  0  0  0  0  0  0  0
   20.7230  -53.8030   33.4020 H   0  0  0  0  0  0  0  0  0  0  0  0
   19.0170  -53.4250   33.0320 H   0  0  0  0  0  0  0  0  0  0  0  0
   19.0140  -57.1210   36.7840 H   0  0  0  0  0  0  0  0  0  0  0  0
   19.9400  -57.2100   35.2310 H   0  0  0  0  0  0  0  0  0  0  0  0
   16.9130  -58.6910   33.2970 H   0  0  0  0  0  0  0  0  0  0  0  0
   14.9450  -60.0610   33.6920 H   0  0  0  0  0  0  0  0  0  0  0  0
   14.3820  -58.1790   37.4390 H   0  0  0  0  0  0  0  0  0  0  0  0
   16.3980  -56.7640   37.0700 H   0  0  0  0  0  0  0  0  0  0  0  0
   21.2000  -55.7760   36.5660 H   0  0  0  0  0  0  0  0  0  0  0  0
   17.5480  -56.1350   37.5060 H   0  0  0  0  0  0  0  0  0  0  0  0
   15.9700  -54.7680   38.7940 H   0  0  0  0  0  0  0  0  0  0  0  0
   15.9330  -52.2900   38.6180 H   0  0  0  0  0  0  0  0  0  0  0  0
   17.5590  -51.2000   37.0980 H   0  0  0  0  0  0  0  0  0  0  0  0
   19.1230  -52.5890   35.8060 H   0  0  0  0  0  0  0  0  0  0  0  0
  2  3  1  0  0  0  0
  2  1  1  0  0  0  0
  3 27  1  0  0  0  0
  3  4  1  0  0  0  0
  4 28  1  0  0  0  0
  5  4  1  1  0  0  0
  5  6  1  0  0  0  0
  6  7  1  0  0  0  0
  6 17  1  1  0  0  0
  6 18  1  0  0  0  0
  7 30  1  0  0  0  0
  8 10  1  0  0  0  0
  8  7  1  0  0  0  0
  9  1  1  1  0  0  0
  9  5  1  0  0  0  0
  9  8  1  0  0  0  0
 10 15  1  0  0  0  0
 11 12  1  0  0  0  0
 11 10  2  0  0  0  0
 12 13  2  0  0  0  0
 13 16  1  0  0  0  0
 13 14  1  0  0  0  0
 14 34  1  0  0  0  0
 15 14  2  0  0  0  0
 15 35  1  0  0  0  0
 17 36  1  0  0  0  0
 18 19  1  0  0  0  0
 19 37  1  0  0  0  0
 19 20  2  0  0  0  0
 20 38  1  0  0  0  0
 21 20  1  0  0  0  0
 21 39  1  0  0  0  0
 22 21  2  0  0  0  0
 23 18  2  0  0  0  0
 23 22  1  0  0  0  0
 24  2  1  0  0  0  0
 25  2  1  0  0  0  0
 26  3  1  0  0  0  0
 29  4  1  0  0  0  0
 31  7  1  0  0  0  0
 32 11  1  0  0  0  0
 33 12  1  0  0  0  0
 40 22  1  0  0  0  0
 41 23  1  0  0  0  0
M  END
>  <Pose>
1

>  <Score>
-4.43

$$$$
