
 OpenBabel03232204043D

 49 52  0  0  0  0  0  0  0  0999 V2000
   18.4220  -56.9070   33.9510 S   0  0  0  0  0  0  0  0  0  0  0  0
   18.2430  -57.1990   32.1640 C   0  0  0  0  0  0  0  0  0  0  0  0
   17.3630  -56.0440   31.8070 C   0  0  0  0  0  0  0  0  0  0  0  0
   17.2640  -55.0940   32.7930 N   0  0  0  0  0  0  0  0  0  0  0  0
   17.7040  -55.2640   33.9380 C   0  0  0  0  0  0  0  0  0  0  0  0
   17.7040  -54.2080   35.3800 S   0  0  0  0  0  0  0  0  0  0  0  0
   16.9300  -54.9690   36.7910 C   0  0  0  0  0  0  0  0  0  0  0  0
   16.5480  -54.0890   37.9060 C   0  0  0  0  0  0  0  0  0  0  0  0
   17.1160  -52.9250   38.2480 N   0  0  0  0  0  0  0  0  0  0  0  0
   16.4500  -52.5060   39.3380 N   0  0  0  0  0  0  0  0  0  0  0  0
   15.5280  -53.3360   39.6690 N   0  0  0  0  0  0  0  0  0  0  0  0
   15.5130  -54.4050   38.7930 C   0  0  0  0  0  0  0  0  0  0  0  0
   14.6060  -55.5180   38.8980 C   0  0  0  0  0  0  0  0  0  0  0  0
   14.2050  -55.8280   40.0890 O   0  0  0  0  0  0  0  0  0  0  0  0
   14.0920  -56.3170   37.8810 N   0  0  0  0  0  0  0  0  0  0  0  0
   13.6070  -57.6360   38.1860 N   0  0  0  0  0  0  0  0  0  0  0  0
   12.3680  -57.8750   38.3590 C   0  0  0  0  0  0  0  0  0  0  0  0
   11.8370  -59.1960   38.6680 C   0  0  0  0  0  0  0  0  0  0  0  0
   11.7340  -59.6500   39.9640 C   0  0  0  0  0  0  0  0  0  0  0  0
   11.2270  -60.8950   40.2730 C   0  0  0  0  0  0  0  0  0  0  0  0
   10.8000  -61.7450   39.2860 C   0  0  0  0  0  0  0  0  0  0  0  0
   10.8900  -61.3150   37.9530 C   0  0  0  0  0  0  0  0  0  0  0  0
   11.4010  -60.0650   37.6760 C   0  0  0  0  0  0  0  0  0  0  0  0
   10.4450  -62.2160   37.0130 O   0  0  0  0  0  0  0  0  0  0  0  0
   11.1260  -62.5840   35.8400 C   0  0  0  0  0  0  0  0  0  0  0  0
   10.2940  -62.9920   39.6190 O   0  0  0  0  0  0  0  0  0  0  0  0
   11.1040  -61.4800   42.0880 B   0  0  0  0  0  0  0  0  0  0  0  0
   18.2100  -52.1950   37.6990 C   0  0  0  0  0  0  0  0  0  0  0  0
   18.2880  -50.8740   37.4350 N   0  0  0  0  0  0  0  0  0  0  0  0
   19.4310  -50.5420   36.9650 O   0  0  0  0  0  0  0  0  0  0  0  0
   20.1610  -51.6100   36.8940 N   0  0  0  0  0  0  0  0  0  0  0  0
   19.4480  -52.6860   37.3430 C   0  0  0  0  0  0  0  0  0  0  0  0
   19.9080  -54.0190   37.4370 N   0  0  0  0  0  4  0  0  0  0  0  0
   19.2110  -57.2060   31.6440 H   0  0  0  0  0  0  0  0  0  0  0  0
   17.6550  -58.1300   32.0430 H   0  0  0  0  0  0  0  0  0  0  0  0
   16.3920  -56.3890   31.3700 H   0  0  0  0  0  0  0  0  0  0  0  0
   17.8660  -55.5500   30.9110 H   0  0  0  0  0  0  0  0  0  0  0  0
   17.6030  -55.7670   37.1490 H   0  0  0  0  0  0  0  0  0  0  0  0
   15.9640  -55.4920   36.4950 H   0  0  0  0  0  0  0  0  0  0  0  0
   14.0000  -56.1020   36.8740 H   0  0  0  0  0  0  0  0  0  0  0  0
   11.6780  -57.0590   38.2700 H   0  0  0  0  0  0  0  0  0  0  0  0
   12.0700  -58.9850   40.7600 H   0  0  0  0  0  0  0  0  0  0  0  0
   11.4660  -59.7480   36.6450 H   0  0  0  0  0  0  0  0  0  0  0  0
   10.4070  -62.7770   34.9940 H   0  0  0  0  0  0  0  0  0  0  0  0
   11.8790  -61.8360   35.5650 H   0  0  0  0  0  0  0  0  0  0  0  0
   11.5990  -63.5890   36.0240 H   0  0  0  0  0  0  0  0  0  0  0  0
   20.3300  -54.2840   36.5090 H   0  0  0  0  0  0  0  0  0  0  0  0
   19.1850  -54.7070   37.7110 H   0  0  0  0  0  0  0  0  0  0  0  0
   20.6990  -54.0570   38.1370 H   0  0  0  0  0  0  0  0  0  0  0  0
  2  1  1  0  0  0  0
  3  2  1  0  0  0  0
  3  4  1  0  0  0  0
  4  5  2  0  0  0  0
  5  1  1  0  0  0  0
  5  6  1  0  0  0  0
  6  7  1  0  0  0  0
  7 38  1  0  0  0  0
  7  8  1  0  0  0  0
  8  9  1  0  0  0  0
  8 12  2  0  0  0  0
  9 10  1  0  0  0  0
 10 11  2  0  0  0  0
 12 13  1  0  0  0  0
 12 11  1  0  0  0  0
 13 14  2  0  0  0  0
 15 16  1  0  0  0  0
 15 13  1  0  0  0  0
 16 17  2  0  0  0  0
 17 18  1  0  0  0  0
 18 19  1  0  0  0  0
 19 20  2  0  0  0  0
 19 42  1  0  0  0  0
 20 27  1  0  0  0  0
 21 26  1  0  0  0  0
 21 20  1  0  0  0  0
 22 21  2  0  0  0  0
 23 22  1  0  0  0  0
 23 18  2  0  0  0  0
 24 22  1  0  0  0  0
 25 46  1  0  0  0  0
 25 24  1  0  0  0  0
 28  9  1  0  0  0  0
 29 28  2  0  0  0  0
 30 29  1  0  0  0  0
 31 30  1  0  0  0  0
 31 32  2  0  0  0  0
 32 33  1  0  0  0  0
 32 28  1  0  0  0  0
 33 48  1  0  0  0  0
 33 49  1  0  0  0  0
 34  2  1  0  0  0  0
 35  2  1  0  0  0  0
 36  3  1  0  0  0  0
 37  3  1  0  0  0  0
 39  7  1  0  0  0  0
 40 15  1  0  0  0  0
 41 17  1  0  0  0  0
 43 23  1  0  0  0  0
 44 25  1  0  0  0  0
 45 25  1  0  0  0  0
 47 33  1  0  0  0  0
M  END
>  <Pose>
1

>  <Score>
-9.85

$$$$
