
 OpenBabel03232204043D

 45 49  0  0  1  0  0  0  0  0999 V2000
   19.6030  -58.6550   30.5660 S   0  0  0  0  0  0  0  0  0  0  0  0
   18.4160  -57.8550   29.3850 C   0  0  0  0  0  0  0  0  0  0  0  0
   17.2320  -57.8020   30.3170 C   0  0  0  0  0  0  0  0  0  0  0  0
   17.6500  -57.4060   31.6320 N   0  0  0  0  0  0  0  0  0  0  0  0
   18.9500  -57.8160   31.9950 C   0  0  0  0  0  0  0  0  0  0  0  0
   19.4270  -57.5490   33.1350 N   0  0  0  0  0  0  0  0  0  0  0  0
   18.6810  -56.8420   34.1460 C   0  0  0  0  0  0  0  0  0  0  0  0
   19.2270  -56.2220   35.0920 O   0  0  0  0  0  0  0  0  0  0  0  0
   17.1970  -56.8640   34.0350 C   0  0  1  0  0  0  0  0  0  0  0  0
   16.8700  -56.6630   32.6040 C   0  0  0  0  0  0  0  0  0  0  0  0
   15.9720  -55.8990   32.1730 O   0  0  0  0  0  0  0  0  0  0  0  0
   16.7310  -58.1760   34.5610 C   0  0  2  0  0  0  0  0  0  0  0  0
   15.9110  -58.9730   33.5770 C   0  0  2  0  0  0  0  0  0  0  0  0
   14.4550  -58.8550   33.7650 C   0  0  0  0  0  0  0  0  0  0  0  0
   13.8460  -57.7980   33.3760 O   0  0  0  0  0  0  0  0  0  0  0  0
   13.7090  -59.9300   34.3890 N   0  0  0  0  0  0  0  0  0  0  0  0
   12.3500  -59.8730   34.8510 C   0  0  0  0  0  0  0  0  0  0  0  0
   12.1480  -60.7920   36.0300 C   0  0  0  0  0  0  0  0  0  0  0  0
   13.1350  -62.2180   35.3750 S   0  0  0  0  0  0  0  0  0  0  0  0
   14.3430  -61.1810   34.5530 C   0  0  0  0  0  0  0  0  0  0  0  0
   15.5410  -61.4070   34.1740 N   0  0  0  0  0  0  0  0  0  0  0  0
   16.3420  -60.3930   33.5470 C   0  0  0  0  0  0  0  0  0  0  0  0
   17.4060  -60.7510   32.9810 O   0  0  0  0  0  0  0  0  0  0  0  0
   16.0150  -57.9570   35.8380 C   0  0  0  0  0  0  0  0  0  0  0  0
   16.1000  -56.7400   36.5030 C   0  0  0  0  0  0  0  0  0  0  0  0
   15.4350  -56.5240   37.6910 C   0  0  0  0  0  0  0  0  0  0  0  0
   14.6640  -57.5190   38.2490 C   0  0  0  0  0  0  0  0  0  0  0  0
   14.5830  -58.7120   37.5970 C   0  0  0  0  0  0  0  0  0  0  0  0
   15.2430  -58.9440   36.4070 C   0  0  0  0  0  0  0  0  0  0  0  0
   15.5450  -54.8550   38.6110 B   0  0  0  0  0  0  0  0  0  0  0  0
   18.7570  -56.8490   29.1370 H   0  0  0  0  0  0  0  0  0  0  0  0
   18.2130  -58.5180   28.5510 H   0  0  0  0  0  0  0  0  0  0  0  0
   16.5200  -57.0610   29.9040 H   0  0  0  0  0  0  0  0  0  0  0  0
   16.7940  -58.8280   30.3380 H   0  0  0  0  0  0  0  0  0  0  0  0
   16.7480  -56.0410   34.6480 H   0  0  0  0  0  0  0  0  0  0  0  0
   17.6390  -58.8080   34.7740 H   0  0  0  0  0  0  0  0  0  0  0  0
   16.1320  -58.5990   32.5300 H   0  0  0  0  0  0  0  0  0  0  0  0
   11.6240  -60.2120   34.0770 H   0  0  0  0  0  0  0  0  0  0  0  0
   12.1070  -58.8550   35.2200 H   0  0  0  0  0  0  0  0  0  0  0  0
   12.6020  -60.4180   36.9600 H   0  0  0  0  0  0  0  0  0  0  0  0
   11.0990  -61.0670   36.1090 H   0  0  0  0  0  0  0  0  0  0  0  0
   16.6980  -55.9500   36.0810 H   0  0  0  0  0  0  0  0  0  0  0  0
   14.1290  -57.3610   39.1960 H   0  0  0  0  0  0  0  0  0  0  0  0
   13.9770  -59.5250   38.0170 H   0  0  0  0  0  0  0  0  0  0  0  0
   15.1310  -59.9320   35.9310 H   0  0  0  0  0  0  0  0  0  0  0  0
  1  5  1  0  0  0  0
  2  3  1  0  0  0  0
  2  1  1  0  0  0  0
  3 34  1  0  0  0  0
  3  4  1  0  0  0  0
  4  5  1  0  0  0  0
  4 10  1  0  0  0  0
  5  6  2  0  0  0  0
  6  7  1  0  0  0  0
  7  8  2  0  0  0  0
  9  7  1  0  0  0  0
  9 12  1  0  0  0  0
  9 35  1  1  0  0  0
 10  9  1  0  0  0  0
 11 10  2  0  0  0  0
 12 36  1  1  0  0  0
 12 24  1  0  0  0  0
 13 37  1  6  0  0  0
 13 14  1  0  0  0  0
 13 12  1  0  0  0  0
 14 16  1  0  0  0  0
 15 14  2  0  0  0  0
 16 20  1  0  0  0  0
 16 17  1  0  0  0  0
 17 39  1  0  0  0  0
 17 18  1  0  0  0  0
 18 41  1  0  0  0  0
 18 40  1  0  0  0  0
 19 18  1  0  0  0  0
 20 19  1  0  0  0  0
 21 20  2  0  0  0  0
 22 13  1  0  0  0  0
 22 21  1  0  0  0  0
 23 22  2  0  0  0  0
 24 29  2  0  0  0  0
 24 25  1  0  0  0  0
 25 26  2  0  0  0  0
 26 27  1  0  0  0  0
 26 30  1  0  0  0  0
 27 43  1  0  0  0  0
 28 44  1  0  0  0  0
 28 27  2  0  0  0  0
 29 28  1  0  0  0  0
 31  2  1  0  0  0  0
 32  2  1  0  0  0  0
 33  3  1  0  0  0  0
 38 17  1  0  0  0  0
 42 25  1  0  0  0  0
 45 29  1  0  0  0  0
M  END
>  <Pose>
1

>  <Score>
-5.41

$$$$
