
 OpenBabel03232204043D

 45 49  0  0  1  0  0  0  0  0999 V2000
   13.3220  -62.0650   33.1590 S   0  0  0  0  0  0  0  0  0  0  0  0
   14.8370  -62.7940   33.9210 C   0  0  0  0  0  0  0  0  0  0  0  0
   14.9430  -61.9040   35.1190 C   0  0  0  0  0  0  0  0  0  0  0  0
   14.5750  -60.5720   34.8170 N   0  0  0  0  0  0  0  0  0  0  0  0
   13.6400  -60.3920   33.7770 C   0  0  0  0  0  0  0  0  0  0  0  0
   13.1900  -59.2390   33.3930 N   0  0  0  0  0  0  0  0  0  0  0  0
   13.6070  -58.0210   34.0700 C   0  0  0  0  0  0  0  0  0  0  0  0
   12.7650  -57.0950   33.9740 O   0  0  0  0  0  0  0  0  0  0  0  0
   14.8790  -58.0450   34.7360 C   0  0  1  0  0  0  0  0  0  0  0  0
   15.0310  -59.3610   35.4620 C   0  0  0  0  0  0  0  0  0  0  0  0
   15.5390  -59.4140   36.5970 O   0  0  0  0  0  0  0  0  0  0  0  0
   16.1350  -57.6460   34.0840 C   0  0  2  0  0  0  0  0  0  0  0  0
   17.1010  -58.6350   33.5890 C   0  0  1  0  0  0  0  0  0  0  0  0
   16.9070  -58.7430   32.0760 C   0  0  0  0  0  0  0  0  0  0  0  0
   15.9530  -59.4110   31.6170 O   0  0  0  0  0  0  0  0  0  0  0  0
   17.8220  -58.0740   31.1780 N   0  0  0  0  0  0  0  0  0  0  0  0
   17.6250  -57.7850   29.8000 C   0  0  0  0  0  0  0  0  0  0  0  0
   18.3730  -56.5420   29.3860 C   0  0  0  0  0  0  0  0  0  0  0  0
   19.9150  -56.8640   30.3670 S   0  0  0  0  0  0  0  0  0  0  0  0
   19.0700  -57.6730   31.7140 C   0  0  0  0  0  0  0  0  0  0  0  0
   19.4250  -57.8690   32.9220 N   0  0  0  0  0  0  0  0  0  0  0  0
   18.5150  -58.5480   33.8390 C   0  0  0  0  0  0  0  0  0  0  0  0
   19.0570  -59.0460   34.8420 O   0  0  0  0  0  0  0  0  0  0  0  0
   16.7830  -56.4570   34.7590 C   0  0  0  0  0  0  0  0  0  0  0  0
   16.5800  -56.2040   36.0940 C   0  0  0  0  0  0  0  0  0  0  0  0
   17.1800  -55.1120   36.6690 C   0  0  0  0  0  0  0  0  0  0  0  0
   17.9770  -54.2560   35.9770 C   0  0  0  0  0  0  0  0  0  0  0  0
   18.1990  -54.4820   34.6410 C   0  0  0  0  0  0  0  0  0  0  0  0
   17.5890  -55.5920   34.0560 C   0  0  0  0  0  0  0  0  0  0  0  0
   18.8130  -52.7320   36.7900 B   0  0  0  0  0  0  0  0  0  0  0  0
   14.5640  -63.8230   34.2260 H   0  0  0  0  0  0  0  0  0  0  0  0
   15.6840  -62.7410   33.2360 H   0  0  0  0  0  0  0  0  0  0  0  0
   14.3370  -62.3360   35.9580 H   0  0  0  0  0  0  0  0  0  0  0  0
   16.0180  -61.9380   35.4290 H   0  0  0  0  0  0  0  0  0  0  0  0
   14.7640  -57.3120   35.6250 H   0  0  0  0  0  0  0  0  0  0  0  0
   15.7490  -57.1420   33.0990 H   0  0  0  0  0  0  0  0  0  0  0  0
   16.7430  -59.6870   33.9110 H   0  0  0  0  0  0  0  0  0  0  0  0
   17.9620  -58.6300   29.1460 H   0  0  0  0  0  0  0  0  0  0  0  0
   16.5530  -57.5650   29.6110 H   0  0  0  0  0  0  0  0  0  0  0  0
   17.9200  -55.6280   29.7670 H   0  0  0  0  0  0  0  0  0  0  0  0
   18.5940  -56.5540   28.3230 H   0  0  0  0  0  0  0  0  0  0  0  0
   15.9430  -56.8770   36.6880 H   0  0  0  0  0  0  0  0  0  0  0  0
   17.0120  -54.9230   37.7230 H   0  0  0  0  0  0  0  0  0  0  0  0
   18.8350  -53.8130   34.0590 H   0  0  0  0  0  0  0  0  0  0  0  0
   17.7890  -55.7380   32.9960 H   0  0  0  0  0  0  0  0  0  0  0  0
  1  5  1  0  0  0  0
  1  2  1  0  0  0  0
  2 31  1  0  0  0  0
  2  3  1  0  0  0  0
  3 34  1  0  0  0  0
  3 33  1  0  0  0  0
  4  3  1  0  0  0  0
  4 10  1  0  0  0  0
  5  4  1  0  0  0  0
  6  5  2  0  0  0  0
  6  7  1  0  0  0  0
  7  9  1  0  0  0  0
  8  7  2  0  0  0  0
  9 10  1  0  0  0  0
  9 35  1  1  0  0  0
 10 11  2  0  0  0  0
 12 36  1  6  0  0  0
 12  9  1  0  0  0  0
 12 24  1  0  0  0  0
 13 22  1  0  0  0  0
 13 37  1  1  0  0  0
 13 12  1  0  0  0  0
 14 13  1  0  0  0  0
 15 14  2  0  0  0  0
 16 20  1  0  0  0  0
 16 14  1  0  0  0  0
 17 16  1  0  0  0  0
 18 40  1  0  0  0  0
 18 17  1  0  0  0  0
 18 19  1  0  0  0  0
 19 20  1  0  0  0  0
 20 21  2  0  0  0  0
 21 22  1  0  0  0  0
 22 23  2  0  0  0  0
 24 25  1  0  0  0  0
 25 26  2  0  0  0  0
 25 42  1  0  0  0  0
 26 43  1  0  0  0  0
 27 26  1  0  0  0  0
 27 30  1  0  0  0  0
 28 27  2  0  0  0  0
 29 28  1  0  0  0  0
 29 24  2  0  0  0  0
 32  2  1  0  0  0  0
 38 17  1  0  0  0  0
 39 17  1  0  0  0  0
 41 18  1  0  0  0  0
 44 28  1  0  0  0  0
 45 29  1  0  0  0  0
M  END
>  <Pose>
1

>  <Score>
-5.34

$$$$
