
 OpenBabel03232204043D

 47 50  0  0  0  0  0  0  0  0999 V2000
   17.4000  -52.8390   38.2470 S   0  0  0  0  0  0  0  0  0  0  0  0
   18.5830  -52.2500   37.1570 C   0  0  0  0  0  0  0  0  0  0  0  0
   19.3350  -51.1080   37.0880 N   0  0  0  0  0  0  0  0  0  0  0  0
   20.2350  -50.9270   36.1080 C   0  0  0  0  0  0  0  0  0  0  0  0
   20.9610  -49.9250   35.9660 O   0  0  0  0  0  0  0  0  0  0  0  0
   20.3310  -51.9610   35.2060 C   0  0  0  0  0  0  0  0  0  0  0  0
   19.5850  -53.1010   35.2670 C   0  0  0  0  0  0  0  0  0  0  0  0
   18.6750  -53.2570   36.2830 N   0  0  0  0  0  0  0  0  0  0  0  0
   17.9360  -54.2800   36.4730 N   0  0  0  0  0  0  0  0  0  0  0  0
   17.1120  -54.3600   37.4800 C   0  0  0  0  0  0  0  0  0  0  0  0
   16.2190  -55.4270   37.8740 N   0  0  0  0  0  0  0  0  0  0  0  0
   16.0470  -56.5620   37.0510 C   0  0  0  0  0  0  0  0  0  0  0  0
   14.9990  -57.4800   37.6350 C   0  0  0  0  0  0  0  0  0  0  0  0
   13.9490  -56.7200   38.1570 O   0  0  0  0  0  0  0  0  0  0  0  0
   14.3530  -56.0870   39.3390 C   0  0  0  0  0  0  0  0  0  0  0  0
   15.5580  -55.2250   39.1190 C   0  0  0  0  0  0  0  0  0  0  0  0
   19.8090  -54.1170   34.2400 C   0  0  0  0  0  0  0  0  0  0  0  0
   20.8770  -54.0640   33.5260 O   0  0  0  0  0  0  0  0  0  0  0  0
   18.9260  -55.1780   33.9540 N   0  0  0  0  0  0  0  0  0  0  0  0
   18.1340  -55.1500   32.7300 C   0  0  0  0  0  0  0  0  0  0  0  0
   18.7590  -55.9940   31.6810 C   0  0  0  0  0  0  0  0  0  0  0  0
   18.6190  -57.3710   31.7500 C   0  0  0  0  0  0  0  0  0  0  0  0
   19.2280  -58.1620   30.8080 C   0  0  0  0  0  0  0  0  0  0  0  0
   19.9790  -57.6380   29.7900 C   0  0  0  0  0  0  0  0  0  0  0  0
   20.1230  -56.2650   29.7130 C   0  0  0  0  0  0  0  0  0  0  0  0
   19.5060  -55.4690   30.6650 C   0  0  0  0  0  0  0  0  0  0  0  0
   21.1480  -55.4530   28.3230 B   0  0  0  0  0  0  0  0  0  0  0  0
   17.8620  -57.8870   32.7790 O   0  0  0  0  0  0  0  0  0  0  0  0
   18.5420  -58.4410   33.9050 C   0  0  0  0  0  0  0  0  0  0  0  0
   21.0610  -51.8340   34.3970 H   0  0  0  0  0  0  0  0  0  0  0  0
   17.0200  -57.1120   36.9200 H   0  0  0  0  0  0  0  0  0  0  0  0
   15.6940  -56.3210   36.0180 H   0  0  0  0  0  0  0  0  0  0  0  0
   15.4860  -58.0240   38.4820 H   0  0  0  0  0  0  0  0  0  0  0  0
   14.5880  -58.1410   36.8660 H   0  0  0  0  0  0  0  0  0  0  0  0
   13.4780  -55.4970   39.7420 H   0  0  0  0  0  0  0  0  0  0  0  0
   14.5300  -56.8910   40.1000 H   0  0  0  0  0  0  0  0  0  0  0  0
   15.2880  -54.1360   39.2690 H   0  0  0  0  0  0  0  0  0  0  0  0
   16.2950  -55.4890   39.9390 H   0  0  0  0  0  0  0  0  0  0  0  0
   18.8180  -55.9820   34.6010 H   0  0  0  0  0  0  0  0  0  0  0  0
   18.1180  -54.0970   32.3140 H   0  0  0  0  0  0  0  0  0  0  0  0
   17.0820  -55.4190   32.8900 H   0  0  0  0  0  0  0  0  0  0  0  0
   19.1110  -59.2480   30.8760 H   0  0  0  0  0  0  0  0  0  0  0  0
   20.4680  -58.2580   29.0370 H   0  0  0  0  0  0  0  0  0  0  0  0
   19.6630  -54.3950   30.5470 H   0  0  0  0  0  0  0  0  0  0  0  0
   17.8050  -58.7950   34.6480 H   0  0  0  0  0  0  0  0  0  0  0  0
   19.1620  -59.3100   33.6220 H   0  0  0  0  0  0  0  0  0  0  0  0
   19.2210  -57.6740   34.3070 H   0  0  0  0  0  0  0  0  0  0  0  0
  2  1  1  0  0  0  0
  3  2  2  0  0  0  0
  4  3  1  0  0  0  0
  5  4  2  0  0  0  0
  6  7  2  0  0  0  0
  6  4  1  0  0  0  0
  7  8  1  0  0  0  0
  8  9  1  0  0  0  0
  8  2  1  0  0  0  0
  9 10  2  0  0  0  0
 10 11  1  0  0  0  0
 10  1  1  0  0  0  0
 11 16  1  0  0  0  0
 12 13  1  0  0  0  0
 12 11  1  0  0  0  0
 13 14  1  0  0  0  0
 13 33  1  0  0  0  0
 14 15  1  0  0  0  0
 15 35  1  0  0  0  0
 15 36  1  0  0  0  0
 16 37  1  0  0  0  0
 16 15  1  0  0  0  0
 16 38  1  0  0  0  0
 17  7  1  0  0  0  0
 18 17  2  0  0  0  0
 19 17  1  0  0  0  0
 19 39  1  0  0  0  0
 20 41  1  0  0  0  0
 20 19  1  0  0  0  0
 21 22  1  0  0  0  0
 21 20  1  0  0  0  0
 22 28  1  0  0  0  0
 23 42  1  0  0  0  0
 23 22  2  0  0  0  0
 24 23  1  0  0  0  0
 25 24  2  0  0  0  0
 25 26  1  0  0  0  0
 26 21  2  0  0  0  0
 27 25  1  0  0  0  0
 28 29  1  0  0  0  0
 29 47  1  0  0  0  0
 29 45  1  0  0  0  0
 30  6  1  0  0  0  0
 31 12  1  0  0  0  0
 32 12  1  0  0  0  0
 34 13  1  0  0  0  0
 40 20  1  0  0  0  0
 43 24  1  0  0  0  0
 44 26  1  0  0  0  0
 46 29  1  0  0  0  0
M  END
>  <Pose>
1

>  <Score>
-8.19

$$$$
