
 OpenBabel03232204043D

 63 66  0  0  1  0  0  0  0  0999 V2000
   17.7840  -53.7380   37.8090 B   0  0  0  0  0  0  0  0  0  0  0  0
   16.3930  -55.0610   37.7250 C   0  0  0  0  0  0  0  0  0  0  0  0
   16.5230  -56.1700   36.8820 C   0  0  0  0  0  0  0  0  0  0  0  0
   15.5330  -57.1390   36.8030 C   0  0  0  0  0  0  0  0  0  0  0  0
   14.4270  -56.9570   37.5870 C   0  0  0  0  0  0  0  0  0  0  0  0
   14.2810  -55.8620   38.4300 C   0  0  0  0  0  0  0  0  0  0  0  0
   15.2700  -54.9110   38.4980 C   0  0  0  0  0  0  0  0  0  0  0  0
   15.6880  -58.2810   35.8900 C   0  0  1  0  0  0  0  0  0  0  0  0
   14.4000  -58.6880   35.3660 N   0  0  0  0  0  0  0  0  0  0  0  0
   14.0790  -57.7930   34.3150 C   0  0  0  0  0  0  0  0  0  0  0  0
   12.9380  -57.5140   33.9350 O   0  0  0  0  0  0  0  0  0  0  0  0
   15.3610  -57.2860   33.7940 C   0  0  0  0  0  0  0  0  0  0  0  0
   15.5390  -56.4740   32.8540 O   0  0  0  0  0  0  0  0  0  0  0  0
   16.3840  -57.9340   34.6050 C   0  0  0  0  0  0  0  0  0  0  0  0
   17.6300  -58.1740   34.2240 C   0  0  0  0  0  0  0  0  0  0  0  0
   18.4320  -58.8610   35.1660 O   0  0  0  0  0  0  0  0  0  0  0  0
   18.1810  -57.7750   32.9330 C   0  0  0  0  0  0  0  0  0  0  0  0
   18.5300  -56.5000   32.6030 C   0  0  0  0  0  0  0  0  0  0  0  0
   19.0080  -56.1940   31.3160 C   0  0  0  0  0  0  0  0  0  0  0  0
   19.1490  -57.1420   30.3390 C   0  0  0  0  0  0  0  0  0  0  0  0
   18.7990  -58.4340   30.6710 C   0  0  0  0  0  0  0  0  0  0  0  0
   18.3330  -58.7430   31.9220 C   0  0  0  0  0  0  0  0  0  0  0  0
   19.6240  -56.8450   29.0620 O   0  0  0  0  0  0  0  0  0  0  0  0
   20.8230  -56.1330   28.8910 C   0  0  0  0  0  0  0  0  0  0  0  0
   18.4560  -55.4170   33.6120 C   0  0  0  0  0  0  0  0  0  0  0  0
   13.6290  -59.8060   35.8700 C   0  0  0  0  0  0  0  0  0  0  0  0
   13.4610  -59.7970   37.3570 C   0  0  0  0  0  0  0  0  0  0  0  0
   12.2900  -59.0500   37.8720 C   0  0  0  0  0  0  0  0  0  0  0  0
   11.5190  -59.7200   38.8580 N   0  0  0  0  0  4  0  0  0  0  0  0
   11.5600  -59.0730   40.1800 C   0  0  0  0  0  0  0  0  0  0  0  0
   11.1950  -60.1740   41.1780 C   0  0  0  0  0  0  0  0  0  0  0  0
   10.6860  -61.2960   40.5500 O   0  0  0  0  0  0  0  0  0  0  0  0
    9.6600  -60.9540   39.6680 C   0  0  0  0  0  0  0  0  0  0  0  0
   10.1550  -59.9880   38.5760 C   0  0  0  0  0  0  0  0  0  0  0  0
   17.4210  -56.2210   36.3110 H   0  0  0  0  0  0  0  0  0  0  0  0
   13.6360  -57.6660   37.5480 H   0  0  0  0  0  0  0  0  0  0  0  0
   13.4050  -55.7300   39.0430 H   0  0  0  0  0  0  0  0  0  0  0  0
   15.2110  -54.0300   39.1420 H   0  0  0  0  0  0  0  0  0  0  0  0
   16.2100  -59.0840   36.4490 H   0  0  0  0  0  0  0  0  0  0  0  0
   19.2790  -55.1610   31.0720 H   0  0  0  0  0  0  0  0  0  0  0  0
   18.9160  -59.1890   29.8860 H   0  0  0  0  0  0  0  0  0  0  0  0
   18.0660  -59.7590   32.1600 H   0  0  0  0  0  0  0  0  0  0  0  0
   20.7680  -55.1100   29.3530 H   0  0  0  0  0  0  0  0  0  0  0  0
   21.0560  -55.9620   27.8360 H   0  0  0  0  0  0  0  0  0  0  0  0
   21.7050  -56.6120   29.3680 H   0  0  0  0  0  0  0  0  0  0  0  0
   17.6240  -55.5000   34.3200 H   0  0  0  0  0  0  0  0  0  0  0  0
   18.2950  -54.4240   33.0900 H   0  0  0  0  0  0  0  0  0  0  0  0
   19.4520  -55.2800   34.1240 H   0  0  0  0  0  0  0  0  0  0  0  0
   12.6090  -59.7240   35.4230 H   0  0  0  0  0  0  0  0  0  0  0  0
   14.0160  -60.7870   35.5390 H   0  0  0  0  0  0  0  0  0  0  0  0
   13.4670  -60.8810   37.6670 H   0  0  0  0  0  0  0  0  0  0  0  0
   14.4110  -59.3870   37.8170 H   0  0  0  0  0  0  0  0  0  0  0  0
   11.6140  -58.8520   37.0020 H   0  0  0  0  0  0  0  0  0  0  0  0
   12.6330  -58.0550   38.2300 H   0  0  0  0  0  0  0  0  0  0  0  0
   11.9840  -60.6640   39.0200 H   0  0  0  0  0  0  0  0  0  0  0  0
   12.5330  -58.6330   40.4050 H   0  0  0  0  0  0  0  0  0  0  0  0
   10.7820  -58.2720   40.1630 H   0  0  0  0  0  0  0  0  0  0  0  0
   12.1360  -60.5140   41.7000 H   0  0  0  0  0  0  0  0  0  0  0  0
   10.5620  -59.7660   41.9720 H   0  0  0  0  0  0  0  0  0  0  0  0
    8.8510  -60.5040   40.2820 H   0  0  0  0  0  0  0  0  0  0  0  0
    9.2250  -61.8780   39.2280 H   0  0  0  0  0  0  0  0  0  0  0  0
    9.4920  -59.1040   38.6380 H   0  0  0  0  0  0  0  0  0  0  0  0
   10.0440  -60.5340   37.6220 H   0  0  0  0  0  0  0  0  0  0  0  0
  2  1  1  0  0  0  0
  2  7  1  0  0  0  0
  3  2  2  0  0  0  0
  4  3  1  0  0  0  0
  4  5  2  0  0  0  0
  5  6  1  0  0  0  0
  6  7  2  0  0  0  0
  6 37  1  0  0  0  0
  7 38  1  0  0  0  0
  8 39  1  1  0  0  0
  8  4  1  0  0  0  0
  9 26  1  0  0  0  0
  9  8  1  0  0  0  0
 10  9  1  0  0  0  0
 11 10  2  0  0  0  0
 12 10  1  0  0  0  0
 12 14  1  0  0  0  0
 13 12  2  0  0  0  0
 14  8  1  0  0  0  0
 15 14  2  0  0  0  0
 15 16  1  0  0  0  0
 17 15  1  0  0  0  0
 18 17  1  0  0  0  0
 18 25  1  0  0  0  0
 19 18  2  0  0  0  0
 20 21  2  0  0  0  0
 20 19  1  0  0  0  0
 21 22  1  0  0  0  0
 22 42  1  0  0  0  0
 22 17  2  0  0  0  0
 23 20  1  0  0  0  0
 24 23  1  0  0  0  0
 24 43  1  0  0  0  0
 24 45  1  0  0  0  0
 25 48  1  0  0  0  0
 25 46  1  0  0  0  0
 26 27  1  0  0  0  0
 27 51  1  0  0  0  0
 27 52  1  0  0  0  0
 27 28  1  0  0  0  0
 28 54  1  0  0  0  0
 28 29  1  0  0  0  0
 29 55  1  0  0  0  0
 29 30  1  0  0  0  0
 30 56  1  0  0  0  0
 30 31  1  0  0  0  0
 31 58  1  0  0  0  0
 31 59  1  0  0  0  0
 32 31  1  0  0  0  0
 33 60  1  0  0  0  0
 33 32  1  0  0  0  0
 34 62  1  0  0  0  0
 34 29  1  0  0  0  0
 34 33  1  0  0  0  0
 35  3  1  0  0  0  0
 36  5  1  0  0  0  0
 40 19  1  0  0  0  0
 41 21  1  0  0  0  0
 44 24  1  0  0  0  0
 47 25  1  0  0  0  0
 49 26  1  0  0  0  0
 50 26  1  0  0  0  0
 53 28  1  0  0  0  0
 57 30  1  0  0  0  0
 61 33  1  0  0  0  0
 63 34  1  0  0  0  0
M  END
>  <Pose>
1

>  <Score>
-6.82

$$$$
