
 OpenBabel03232204043D

 60 63  0  0  1  0  0  0  0  0999 V2000
   22.4340  -57.3180   28.2560 B   0  0  0  0  0  0  0  0  0  0  0  0
   20.7660  -57.6270   29.1340 C   0  0  0  0  0  0  0  0  0  0  0  0
   20.5470  -57.1190   30.3760 C   0  0  0  0  0  0  0  0  0  0  0  0
   19.3320  -57.3360   31.0320 C   0  0  0  0  0  0  0  0  0  0  0  0
   18.3710  -58.0790   30.3800 C   0  0  0  0  0  0  0  0  0  0  0  0
   18.5950  -58.5990   29.1110 C   0  0  0  0  0  0  0  0  0  0  0  0
   19.8010  -58.3660   28.4930 C   0  0  0  0  0  0  0  0  0  0  0  0
   19.1650  -56.7600   32.3730 C   0  0  1  0  0  0  0  0  0  0  0  0
   18.9350  -55.3290   32.3920 N   0  0  0  0  0  0  0  0  0  0  0  0
   17.5350  -55.1000   32.1160 C   0  0  0  0  0  0  0  0  0  0  0  0
   17.0110  -54.0830   31.6490 O   0  0  0  0  0  0  0  0  0  0  0  0
   16.8740  -56.3410   32.5100 C   0  0  0  0  0  0  0  0  0  0  0  0
   15.6420  -56.6310   32.4520 O   0  0  0  0  0  0  0  0  0  0  0  0
   17.8890  -57.2560   33.0050 C   0  0  0  0  0  0  0  0  0  0  0  0
   17.7370  -58.3110   33.7900 C   0  0  0  0  0  0  0  0  0  0  0  0
   18.8950  -59.0870   34.0820 O   0  0  0  0  0  0  0  0  0  0  0  0
   16.4550  -58.6670   34.3440 C   0  0  0  0  0  0  0  0  0  0  0  0
   15.5650  -59.5720   33.8850 N   0  0  0  0  0  0  0  0  0  0  0  0
   14.5110  -59.6080   34.7360 C   0  0  0  0  0  0  0  0  0  0  0  0
   14.7210  -58.7230   35.7490 N   0  0  0  0  0  0  0  0  0  0  0  0
   15.9210  -58.1490   35.4960 C   0  0  0  0  0  0  0  0  0  0  0  0
   16.5460  -57.1090   36.3600 C   0  0  0  0  0  0  0  0  0  0  0  0
   13.4090  -60.4070   34.5760 C   0  0  0  0  0  0  0  0  0  0  0  0
   13.3710  -61.2300   33.4720 C   0  0  0  0  0  0  0  0  0  0  0  0
   14.4410  -61.1950   32.6010 C   0  0  0  0  0  0  0  0  0  0  0  0
   15.5190  -60.3780   32.8100 C   0  0  0  0  0  0  0  0  0  0  0  0
   12.2760  -60.4070   35.5470 C   0  0  0  0  0  0  0  0  0  0  0  0
   19.9230  -54.2930   32.6370 C   0  0  0  0  0  0  0  0  0  0  0  0
   19.8380  -53.6700   33.9890 C   0  0  0  0  0  0  0  0  0  0  0  0
   20.0380  -54.6250   35.1390 C   0  0  0  0  0  0  0  0  0  0  0  0
   19.4310  -54.0850   36.3330 N   0  0  0  0  0  4  0  0  0  0  0  0
   19.5530  -52.6390   36.3550 C   0  0  0  0  0  0  0  0  0  0  0  0
   18.0120  -54.3790   36.2990 C   0  0  0  0  0  0  0  0  0  0  0  0
   21.3480  -56.5400   30.8370 H   0  0  0  0  0  0  0  0  0  0  0  0
   17.4080  -58.2740   30.8620 H   0  0  0  0  0  0  0  0  0  0  0  0
   17.8260  -59.1850   28.6040 H   0  0  0  0  0  0  0  0  0  0  0  0
   19.9880  -58.7680   27.4990 H   0  0  0  0  0  0  0  0  0  0  0  0
   20.0370  -57.0420   33.0000 H   0  0  0  0  0  0  0  0  0  0  0  0
   16.6190  -56.1490   35.8260 H   0  0  0  0  0  0  0  0  0  0  0  0
   17.5550  -57.4230   36.6930 H   0  0  0  0  0  0  0  0  0  0  0  0
   15.9470  -56.9340   37.2650 H   0  0  0  0  0  0  0  0  0  0  0  0
   12.5100  -61.8870   33.3010 H   0  0  0  0  0  0  0  0  0  0  0  0
   14.4040  -61.8590   31.7140 H   0  0  0  0  0  0  0  0  0  0  0  0
   16.3550  -60.3560   32.1170 H   0  0  0  0  0  0  0  0  0  0  0  0
   12.4410  -59.6360   36.3120 H   0  0  0  0  0  0  0  0  0  0  0  0
   12.1450  -61.4240   35.9930 H   0  0  0  0  0  0  0  0  0  0  0  0
   11.3730  -60.1070   34.9540 H   0  0  0  0  0  0  0  0  0  0  0  0
   19.7530  -53.4990   31.8830 H   0  0  0  0  0  0  0  0  0  0  0  0
   20.9500  -54.6710   32.4600 H   0  0  0  0  0  0  0  0  0  0  0  0
   18.8770  -53.1200   34.1410 H   0  0  0  0  0  0  0  0  0  0  0  0
   20.6280  -52.8940   34.0890 H   0  0  0  0  0  0  0  0  0  0  0  0
   19.5570  -55.6080   34.9570 H   0  0  0  0  0  0  0  0  0  0  0  0
   21.1000  -54.7940   35.3300 H   0  0  0  0  0  0  0  0  0  0  0  0
   19.8000  -54.5240   37.2040 H   0  0  0  0  0  0  0  0  0  0  0  0
   18.7180  -52.1830   36.9590 H   0  0  0  0  0  0  0  0  0  0  0  0
   19.3290  -52.3020   35.3000 H   0  0  0  0  0  0  0  0  0  0  0  0
   20.5380  -52.2810   36.6630 H   0  0  0  0  0  0  0  0  0  0  0  0
   17.5060  -54.0060   37.2270 H   0  0  0  0  0  0  0  0  0  0  0  0
   17.8150  -55.4600   36.1400 H   0  0  0  0  0  0  0  0  0  0  0  0
   17.5840  -53.8250   35.4390 H   0  0  0  0  0  0  0  0  0  0  0  0
  1  2  1  0  0  0  0
  2  3  1  0  0  0  0
  3 34  1  0  0  0  0
  3  4  2  0  0  0  0
  4  8  1  0  0  0  0
  5 35  1  0  0  0  0
  5  4  1  0  0  0  0
  6  5  2  0  0  0  0
  7  6  1  0  0  0  0
  7  2  2  0  0  0  0
  8  9  1  0  0  0  0
  8 38  1  1  0  0  0
  8 14  1  0  0  0  0
  9 28  1  0  0  0  0
 10  9  1  0  0  0  0
 10 12  1  0  0  0  0
 11 10  2  0  0  0  0
 12 14  1  0  0  0  0
 13 12  2  0  0  0  0
 14 15  2  0  0  0  0
 15 16  1  0  0  0  0
 15 17  1  0  0  0  0
 17 21  2  0  0  0  0
 18 17  1  0  0  0  0
 18 19  1  0  0  0  0
 19 20  2  0  0  0  0
 21 20  1  0  0  0  0
 21 22  1  0  0  0  0
 22 40  1  0  0  0  0
 22 41  1  0  0  0  0
 23 19  1  0  0  0  0
 23 27  1  0  0  0  0
 24 23  2  0  0  0  0
 25 26  2  0  0  0  0
 25 24  1  0  0  0  0
 26 18  1  0  0  0  0
 27 46  1  0  0  0  0
 27 45  1  0  0  0  0
 28 29  1  0  0  0  0
 29 51  1  0  0  0  0
 29 50  1  0  0  0  0
 29 30  1  0  0  0  0
 30 53  1  0  0  0  0
 30 31  1  0  0  0  0
 31 32  1  0  0  0  0
 31 54  1  0  0  0  0
 32 57  1  0  0  0  0
 32 55  1  0  0  0  0
 33 31  1  0  0  0  0
 33 58  1  0  0  0  0
 36  6  1  0  0  0  0
 37  7  1  0  0  0  0
 39 22  1  0  0  0  0
 42 24  1  0  0  0  0
 43 25  1  0  0  0  0
 44 26  1  0  0  0  0
 47 27  1  0  0  0  0
 48 28  1  0  0  0  0
 49 28  1  0  0  0  0
 52 30  1  0  0  0  0
 56 32  1  0  0  0  0
 59 33  1  0  0  0  0
 60 33  1  0  0  0  0
M  END
>  <Pose>
1

>  <Score>
-6.16

$$$$
