
 OpenBabel03232204043D

 39 42  0  0  1  0  0  0  0  0999 V2000
   18.8730  -55.7230   30.8430 B   0  0  0  0  0  0  0  0  0  0  0  0
   17.8270  -56.5830   32.2090 C   0  0  0  0  0  0  0  0  0  0  0  0
   18.3950  -57.4870   33.0700 C   0  0  0  0  0  0  0  0  0  0  0  0
   17.6000  -58.0970   34.0560 C   0  0  0  0  0  0  0  0  0  0  0  0
   16.2750  -57.8050   34.1720 C   0  0  0  0  0  0  0  0  0  0  0  0
   15.7160  -56.8990   33.3050 C   0  0  0  0  0  0  0  0  0  0  0  0
   16.5000  -56.2820   32.3140 C   0  0  0  0  0  0  0  0  0  0  0  0
   15.4250  -58.4170   35.1890 C   0  0  1  0  0  0  0  0  0  0  0  0
   14.9980  -57.5460   36.2610 C   0  0  0  0  0  0  0  0  0  0  0  0
   13.6900  -57.4930   36.6530 C   0  0  0  0  0  0  0  0  0  0  0  0
   12.6790  -58.3090   36.0480 N   0  0  0  0  0  0  0  0  0  0  0  0
   13.1210  -59.1790   35.0130 C   0  0  0  0  0  0  0  0  0  0  0  0
   14.3630  -59.2490   34.6230 C   0  0  0  0  0  0  0  0  0  0  0  0
   14.4710  -60.2860   33.5500 C   0  0  0  0  0  0  0  0  0  0  0  0
   15.5650  -60.5740   32.9780 O   0  0  0  0  0  0  0  0  0  0  0  0
   13.2190  -60.7760   33.3770 O   0  0  0  0  0  0  0  0  0  0  0  0
   12.2890  -60.1480   34.1930 C   0  0  0  0  0  0  0  0  0  0  0  0
   13.3230  -56.6440   37.6670 N   0  0  0  0  0  0  0  0  0  0  0  0
   14.2320  -55.8720   38.2710 C   0  0  0  0  0  0  0  0  0  0  0  0
   13.8710  -55.0970   39.2020 O   0  0  0  0  0  0  0  0  0  0  0  0
   15.5150  -55.9300   37.8780 N   0  0  0  0  0  0  0  0  0  0  0  0
   15.9530  -56.7250   36.9050 C   0  0  0  0  0  0  0  0  0  0  0  0
   17.1510  -56.7870   36.5310 O   0  0  0  0  0  0  0  0  0  0  0  0
   16.4740  -55.0660   38.5680 C   0  0  0  0  0  0  0  0  0  0  0  0
   11.9150  -56.6350   38.0370 C   0  0  0  0  0  0  0  0  0  0  0  0
   19.4410  -57.7060   32.9640 H   0  0  0  0  0  0  0  0  0  0  0  0
   18.1270  -58.8010   34.6910 H   0  0  0  0  0  0  0  0  0  0  0  0
   14.6790  -56.5920   33.3040 H   0  0  0  0  0  0  0  0  0  0  0  0
   16.0750  -55.5660   31.6230 H   0  0  0  0  0  0  0  0  0  0  0  0
   16.1170  -59.1860   35.7060 H   0  0  0  0  0  0  0  0  0  0  0  0
   11.6990  -58.2380   36.3730 H   0  0  0  0  0  0  0  0  0  0  0  0
   11.7400  -60.8360   34.8660 H   0  0  0  0  0  0  0  0  0  0  0  0
   11.5730  -59.5950   33.5490 H   0  0  0  0  0  0  0  0  0  0  0  0
   17.5040  -55.4620   38.4640 H   0  0  0  0  0  0  0  0  0  0  0  0
   16.2350  -55.0140   39.6340 H   0  0  0  0  0  0  0  0  0  0  0  0
   16.3490  -54.0570   38.1300 H   0  0  0  0  0  0  0  0  0  0  0  0
   11.7490  -56.0280   38.9380 H   0  0  0  0  0  0  0  0  0  0  0  0
   11.3190  -56.3290   37.1730 H   0  0  0  0  0  0  0  0  0  0  0  0
   11.6650  -57.6940   38.3380 H   0  0  0  0  0  0  0  0  0  0  0  0
  1  2  1  0  0  0  0
  2  7  2  0  0  0  0
  2  3  1  0  0  0  0
  3  4  2  0  0  0  0
  4  5  1  0  0  0  0
  4 27  1  0  0  0  0
  5  8  1  0  0  0  0
  6  5  2  0  0  0  0
  7  6  1  0  0  0  0
  8 30  1  1  0  0  0
  8  9  1  0  0  0  0
  9 10  2  0  0  0  0
  9 22  1  0  0  0  0
 10 18  1  0  0  0  0
 11 31  1  0  0  0  0
 11 10  1  0  0  0  0
 12 11  1  0  0  0  0
 13 12  2  0  0  0  0
 13  8  1  0  0  0  0
 14 13  1  0  0  0  0
 15 14  2  0  0  0  0
 16 14  1  0  0  0  0
 16 17  1  0  0  0  0
 17 32  1  0  0  0  0
 17 12  1  0  0  0  0
 18 25  1  0  0  0  0
 18 19  1  0  0  0  0
 19 20  2  0  0  0  0
 21 19  1  0  0  0  0
 21 24  1  0  0  0  0
 22 21  1  0  0  0  0
 23 22  2  0  0  0  0
 24 35  1  0  0  0  0
 25 39  1  0  0  0  0
 25 37  1  0  0  0  0
 26  3  1  0  0  0  0
 28  6  1  0  0  0  0
 29  7  1  0  0  0  0
 33 17  1  0  0  0  0
 34 24  1  0  0  0  0
 36 24  1  0  0  0  0
 38 25  1  0  0  0  0
M  END
>  <Pose>
1

>  <Score>
-5.32

$$$$
