
 OpenBabel03232204043D

 51 53  0  0  0  0  0  0  0  0999 V2000
   10.8860  -61.8480   42.3900 B   0  0  0  0  0  0  0  0  0  0  0  0
   10.9720  -61.6560   40.4930 C   0  0  0  0  0  0  0  0  0  0  0  0
   10.5660  -62.7170   39.7100 C   0  0  0  0  0  0  0  0  0  0  0  0
   10.6310  -62.5720   38.3470 C   0  0  0  0  0  0  0  0  0  0  0  0
   11.0880  -61.3990   37.7740 C   0  0  0  0  0  0  0  0  0  0  0  0
   11.4900  -60.3510   38.5430 C   0  0  0  0  0  0  0  0  0  0  0  0
   11.4280  -60.4900   39.9120 C   0  0  0  0  0  0  0  0  0  0  0  0
   11.9770  -59.1040   37.9350 C   0  0  0  0  0  0  0  0  0  0  0  0
   12.2900  -58.0920   38.6460 N   0  0  0  0  0  0  0  0  0  0  0  0
   12.7660  -56.8740   38.0540 N   0  0  0  0  0  0  0  0  0  0  0  0
   14.0530  -56.4440   38.4470 C   0  0  0  0  0  0  0  0  0  0  0  0
   14.1040  -55.9890   39.6520 O   0  0  0  0  0  0  0  0  0  0  0  0
   15.2670  -56.4710   37.6410 C   0  0  0  0  0  0  0  0  0  0  0  0
   16.1920  -55.4640   37.7420 N   0  0  0  0  0  0  0  0  0  0  0  0
   17.1530  -55.7800   36.9000 N   0  0  0  0  0  0  0  0  0  0  0  0
   16.9090  -56.8910   36.2850 N   0  0  0  0  0  0  0  0  0  0  0  0
   15.7130  -57.3800   36.7200 C   0  0  0  0  0  0  0  0  0  0  0  0
   15.0390  -58.6130   36.3140 C   0  0  0  0  0  0  0  0  0  0  0  0
   15.2840  -58.9980   34.9330 N   0  0  0  0  0  0  0  0  0  0  0  0
   14.5960  -60.2460   34.6300 C   0  0  0  0  0  0  0  0  0  0  0  0
   13.2180  -60.0060   34.0800 C   0  0  0  0  0  0  0  0  0  0  0  0
   12.6830  -58.7760   34.4150 O   0  0  0  0  0  0  0  0  0  0  0  0
   13.4370  -57.6880   34.0020 C   0  0  0  0  0  0  0  0  0  0  0  0
   14.9130  -57.9780   33.9830 C   0  0  0  0  0  0  0  0  0  0  0  0
   16.1250  -54.3260   38.5770 C   0  0  0  0  0  0  0  0  0  0  0  0
   15.0660  -53.5330   38.8750 N   0  0  0  0  0  0  0  0  0  0  0  0
   15.4510  -52.6070   39.6780 O   0  0  0  0  0  0  0  0  0  0  0  0
   16.7110  -52.6960   39.9660 N   0  0  0  0  0  0  0  0  0  0  0  0
   17.1780  -53.7770   39.2850 C   0  0  0  0  0  0  0  0  0  0  0  0
   18.5220  -54.2260   39.3260 N   0  0  0  0  0  0  0  0  0  0  0  0
   10.0660  -64.0460   37.2490 B   0  0  0  0  0  0  0  0  0  0  0  0
   10.1020  -63.9090   40.2470 O   0  0  0  0  0  0  0  0  0  0  0  0
   17.7700  -55.0340   31.7010 Cl  0  0  0  0  0  0  0  0  0  0  0  0
   11.1310  -61.3070   36.6940 H   0  0  0  0  0  0  0  0  0  0  0  0
   11.7460  -59.6580   40.5170 H   0  0  0  0  0  0  0  0  0  0  0  0
   12.0710  -59.0420   36.8800 H   0  0  0  0  0  0  0  0  0  0  0  0
   12.1360  -56.3890   37.3770 H   0  0  0  0  0  0  0  0  0  0  0  0
   15.3450  -59.5000   36.9050 H   0  0  0  0  0  0  0  0  0  0  0  0
   13.9310  -58.5420   36.3810 H   0  0  0  0  0  0  0  0  0  0  0  0
   15.1930  -60.7740   33.8650 H   0  0  0  0  0  0  0  0  0  0  0  0
   14.6200  -60.8550   35.5530 H   0  0  0  0  0  0  0  0  0  0  0  0
   12.5530  -60.7750   34.5240 H   0  0  0  0  0  0  0  0  0  0  0  0
   13.1710  -60.1790   32.9750 H   0  0  0  0  0  0  0  0  0  0  0  0
   13.2740  -56.8740   34.7490 H   0  0  0  0  0  0  0  0  0  0  0  0
   13.0430  -57.3210   33.0440 H   0  0  0  0  0  0  0  0  0  0  0  0
   15.5680  -57.1110   34.0180 H   0  0  0  0  0  0  0  0  0  0  0  0
   15.1070  -58.4500   32.9710 H   0  0  0  0  0  0  0  0  0  0  0  0
   19.2300  -53.6060   39.7590 H   0  0  0  0  0  0  0  0  0  0  0  0
   18.8380  -55.1390   38.9490 H   0  0  0  0  0  0  0  0  0  0  0  0
   10.6320  -64.4680   40.8920 H   0  0  0  0  0  0  0  0  0  0  0  0
   18.8620  -54.2640   32.0320 H   0  0  0  0  0  0  0  0  0  0  0  0
  2  1  1  0  0  0  0
  3 32  1  0  0  0  0
  3  2  2  0  0  0  0
  4  3  1  0  0  0  0
  5  4  2  0  0  0  0
  5  6  1  0  0  0  0
  6  7  2  0  0  0  0
  7  2  1  0  0  0  0
  7 35  1  0  0  0  0
  8  6  1  0  0  0  0
  8  9  2  0  0  0  0
 10 11  1  0  0  0  0
 10  9  1  0  0  0  0
 11 12  2  0  0  0  0
 13 14  1  0  0  0  0
 13 11  1  0  0  0  0
 14 25  1  0  0  0  0
 15 14  1  0  0  0  0
 16 17  1  0  0  0  0
 16 15  2  0  0  0  0
 17 13  2  0  0  0  0
 18 39  1  0  0  0  0
 18 17  1  0  0  0  0
 18 38  1  0  0  0  0
 19 18  1  0  0  0  0
 20 19  1  0  0  0  0
 20 41  1  0  0  0  0
 21 22  1  0  0  0  0
 21 42  1  0  0  0  0
 21 20  1  0  0  0  0
 23 22  1  0  0  0  0
 23 44  1  0  0  0  0
 24 23  1  0  0  0  0
 24 46  1  0  0  0  0
 24 19  1  0  0  0  0
 25 26  2  0  0  0  0
 25 29  1  0  0  0  0
 26 27  1  0  0  0  0
 27 28  1  0  0  0  0
 29 30  1  0  0  0  0
 29 28  2  0  0  0  0
 30 48  1  0  0  0  0
 31  4  1  0  0  0  0
 32 50  1  0  0  0  0
 33 51  1  0  0  0  0
 34  5  1  0  0  0  0
 36  8  1  0  0  0  0
 37 10  1  0  0  0  0
 40 20  1  0  0  0  0
 43 21  1  0  0  0  0
 45 23  1  0  0  0  0
 47 24  1  0  0  0  0
 49 30  1  0  0  0  0
M  END
>  <Pose>
1

>  <Score>
-8.88

$$$$
