
 OpenBabel03232204043D

 39 42  0  0  1  0  0  0  0  0999 V2000
   15.7660  -53.2490   39.5760 B   0  0  0  0  0  0  0  0  0  0  0  0
   16.6480  -53.8960   38.0190 C   0  0  0  0  0  0  0  0  0  0  0  0
   17.6970  -53.1690   37.5070 C   0  0  0  0  0  0  0  0  0  0  0  0
   18.3160  -53.6600   36.3810 C   0  0  0  0  0  0  0  0  0  0  0  0
   17.8860  -54.8540   35.7930 C   0  0  0  0  0  0  0  0  0  0  0  0
   16.8350  -55.5960   36.2940 C   0  0  0  0  0  0  0  0  0  0  0  0
   16.2220  -55.0880   37.4260 C   0  0  0  0  0  0  0  0  0  0  0  0
   16.3960  -56.8080   35.6980 N   0  0  0  0  0  0  0  0  0  0  0  0
   16.1520  -58.0250   36.3940 C   0  0  0  0  0  0  0  0  0  0  0  0
   16.6910  -58.4180   37.4510 O   0  0  0  0  0  0  0  0  0  0  0  0
   15.1160  -58.8160   35.6630 C   0  0  1  0  0  0  0  0  0  0  0  0
   13.7310  -58.4440   36.0760 C   0  0  1  0  0  0  0  0  0  0  0  0
   13.5030  -57.2330   35.3760 O   0  0  0  0  0  0  0  0  0  0  0  0
   13.7590  -57.7520   34.0820 C   0  0  1  0  0  0  0  0  0  0  0  0
   15.1620  -58.2360   34.2510 C   0  0  1  0  0  0  0  0  0  0  0  0
   16.0980  -57.0900   34.3360 C   0  0  0  0  0  0  0  0  0  0  0  0
   16.5550  -56.4660   33.3560 O   0  0  0  0  0  0  0  0  0  0  0  0
   12.8000  -58.8980   34.0920 C   0  0  0  0  0  0  0  0  0  0  0  0
   12.7720  -59.3320   35.3650 C   0  0  0  0  0  0  0  0  0  0  0  0
   13.5370  -56.7730   33.0090 C   0  0  0  0  0  0  0  0  0  0  0  0
   13.5010  -58.3320   37.5270 C   0  0  0  0  0  0  0  0  0  0  0  0
   12.9360  -57.1070   37.8740 O   0  0  0  0  0  0  0  0  0  0  0  0
   18.1600  -51.8960   38.1340 C   0  0  0  0  0  0  0  0  0  0  0  0
   19.1490  -53.1180   35.9410 H   0  0  0  0  0  0  0  0  0  0  0  0
   18.4020  -55.2070   34.9090 H   0  0  0  0  0  0  0  0  0  0  0  0
   15.3900  -55.6440   37.8570 H   0  0  0  0  0  0  0  0  0  0  0  0
   15.3360  -59.8840   35.6840 H   0  0  0  0  0  0  0  0  0  0  0  0
   15.4860  -58.9890   33.5080 H   0  0  0  0  0  0  0  0  0  0  0  0
   12.2750  -59.2580   33.2400 H   0  0  0  0  0  0  0  0  0  0  0  0
   12.1700  -60.1480   35.7440 H   0  0  0  0  0  0  0  0  0  0  0  0
   14.3060  -56.7280   32.2200 H   0  0  0  0  0  0  0  0  0  0  0  0
   12.5670  -56.9780   32.5040 H   0  0  0  0  0  0  0  0  0  0  0  0
   13.4370  -55.7340   33.4360 H   0  0  0  0  0  0  0  0  0  0  0  0
   14.4570  -58.4170   38.0710 H   0  0  0  0  0  0  0  0  0  0  0  0
   12.7800  -59.1000   37.8730 H   0  0  0  0  0  0  0  0  0  0  0  0
   12.1590  -56.8590   37.2990 H   0  0  0  0  0  0  0  0  0  0  0  0
   17.2910  -51.4880   38.6840 H   0  0  0  0  0  0  0  0  0  0  0  0
   18.9400  -52.0880   38.9130 H   0  0  0  0  0  0  0  0  0  0  0  0
   18.5900  -51.2030   37.4110 H   0  0  0  0  0  0  0  0  0  0  0  0
  2  1  1  0  0  0  0
  3  2  1  0  0  0  0
  3 23  1  0  0  0  0
  4  3  2  0  0  0  0
  5  6  2  0  0  0  0
  5  4  1  0  0  0  0
  6  7  1  0  0  0  0
  7 26  1  0  0  0  0
  7  2  2  0  0  0  0
  8  6  1  0  0  0  0
  8  9  1  0  0  0  0
  9 10  2  0  0  0  0
 11 27  1  1  0  0  0
 11 12  1  0  0  0  0
 11  9  1  0  0  0  0
 12 21  1  1  0  0  0
 13 12  1  0  0  0  0
 14 20  1  6  0  0  0
 14 18  1  0  0  0  0
 14 15  1  0  0  0  0
 14 13  1  0  0  0  0
 15 28  1  6  0  0  0
 15 16  1  0  0  0  0
 15 11  1  0  0  0  0
 16  8  1  0  0  0  0
 17 16  2  0  0  0  0
 18 19  2  0  0  0  0
 19 30  1  0  0  0  0
 19 12  1  0  0  0  0
 20 33  1  0  0  0  0
 21 35  1  0  0  0  0
 21 22  1  0  0  0  0
 21 34  1  0  0  0  0
 23 37  1  0  0  0  0
 23 38  1  0  0  0  0
 24  4  1  0  0  0  0
 25  5  1  0  0  0  0
 29 18  1  0  0  0  0
 31 20  1  0  0  0  0
 32 20  1  0  0  0  0
 36 22  1  0  0  0  0
 39 23  1  0  0  0  0
M  END
>  <Pose>
1

>  <Score>
-5.13

$$$$
