
 OpenBabel03232204043D

 54 57  0  0  1  0  0  0  0  0999 V2000
   17.3820  -54.1030   38.4410 B   0  0  0  0  0  0  0  0  0  0  0  0
   16.0550  -55.4140   37.9730 C   0  0  0  0  0  0  0  0  0  0  0  0
   16.3480  -56.4130   37.0420 C   0  0  0  0  0  0  0  0  0  0  0  0
   15.4420  -57.3740   36.6710 C   0  0  0  0  0  0  0  0  0  0  0  0
   14.1810  -57.3010   37.2880 C   0  0  0  0  0  0  0  0  0  0  0  0
   13.8780  -56.3220   38.2050 C   0  0  0  0  0  0  0  0  0  0  0  0
   14.8080  -55.3700   38.5590 C   0  0  0  0  0  0  0  0  0  0  0  0
   15.6930  -58.4400   35.6970 C   0  0  1  0  0  0  0  0  0  0  0  0
   14.5010  -58.9630   35.0660 N   0  0  0  0  0  0  0  0  0  0  0  0
   14.1430  -58.0510   34.0430 C   0  0  0  0  0  0  0  0  0  0  0  0
   13.0020  -57.8350   33.5630 O   0  0  0  0  0  0  0  0  0  0  0  0
   15.3850  -57.3900   33.6390 C   0  0  0  0  0  0  0  0  0  0  0  0
   15.5620  -56.5060   32.7700 O   0  0  0  0  0  0  0  0  0  0  0  0
   16.4370  -57.9800   34.4820 C   0  0  0  0  0  0  0  0  0  0  0  0
   17.7150  -58.0240   34.1830 C   0  0  0  0  0  0  0  0  0  0  0  0
   18.5720  -58.5870   35.1380 O   0  0  0  0  0  0  0  0  0  0  0  0
   18.2500  -57.5190   32.9030 C   0  0  0  0  0  0  0  0  0  0  0  0
   18.4150  -58.1520   31.7800 O   0  0  0  0  0  0  0  0  0  0  0  0
   18.9170  -57.3690   30.8520 C   0  0  0  0  0  0  0  0  0  0  0  0
   19.1080  -56.1050   31.3860 C   0  0  0  0  0  0  0  0  0  0  0  0
   18.6760  -56.2210   32.6940 C   0  0  0  0  0  0  0  0  0  0  0  0
   19.6280  -55.0910   30.6120 C   0  0  0  0  0  0  0  0  0  0  0  0
   19.9750  -55.2810   29.2940 C   0  0  0  0  0  0  0  0  0  0  0  0
   19.7920  -56.5320   28.7470 C   0  0  0  0  0  0  0  0  0  0  0  0
   19.2670  -57.5610   29.5270 C   0  0  0  0  0  0  0  0  0  0  0  0
   13.7550  -60.1900   35.3370 C   0  0  0  0  0  0  0  0  0  0  0  0
   12.8130  -59.9900   36.5090 C   0  0  0  0  0  0  0  0  0  0  0  0
   11.9120  -61.1750   36.7410 C   0  0  0  0  0  0  0  0  0  0  0  0
   12.3950  -61.9370   37.8480 N   0  0  0  0  0  4  0  0  0  0  0  0
   11.7560  -61.5940   39.1010 C   0  0  0  0  0  0  0  0  0  0  0  0
   12.3190  -63.3580   37.6940 C   0  0  0  0  0  0  0  0  0  0  0  0
   17.3320  -56.4230   36.6040 H   0  0  0  0  0  0  0  0  0  0  0  0
   13.4430  -58.0490   37.0150 H   0  0  0  0  0  0  0  0  0  0  0  0
   12.9040  -56.2670   38.6810 H   0  0  0  0  0  0  0  0  0  0  0  0
   14.5870  -54.5800   39.2900 H   0  0  0  0  0  0  0  0  0  0  0  0
   16.2480  -59.2650   36.2050 H   0  0  0  0  0  0  0  0  0  0  0  0
   18.6650  -55.4280   33.4120 H   0  0  0  0  0  0  0  0  0  0  0  0
   19.7730  -54.1100   31.0320 H   0  0  0  0  0  0  0  0  0  0  0  0
   20.3860  -54.5180   28.6480 H   0  0  0  0  0  0  0  0  0  0  0  0
   20.0620  -56.7040   27.7030 H   0  0  0  0  0  0  0  0  0  0  0  0
   19.1410  -58.5280   29.0530 H   0  0  0  0  0  0  0  0  0  0  0  0
   13.1330  -60.5080   34.4780 H   0  0  0  0  0  0  0  0  0  0  0  0
   14.4490  -61.0140   35.5710 H   0  0  0  0  0  0  0  0  0  0  0  0
   12.1430  -59.1520   36.2050 H   0  0  0  0  0  0  0  0  0  0  0  0
   13.3410  -59.6930   37.4160 H   0  0  0  0  0  0  0  0  0  0  0  0
   11.8710  -61.8480   35.8550 H   0  0  0  0  0  0  0  0  0  0  0  0
   10.8810  -60.8310   36.9820 H   0  0  0  0  0  0  0  0  0  0  0  0
   13.4230  -61.6940   37.9710 H   0  0  0  0  0  0  0  0  0  0  0  0
   12.4690  -61.8390   39.9370 H   0  0  0  0  0  0  0  0  0  0  0  0
   10.8710  -62.2380   39.2560 H   0  0  0  0  0  0  0  0  0  0  0  0
   11.5230  -60.5210   39.1000 H   0  0  0  0  0  0  0  0  0  0  0  0
   11.3430  -63.7890   37.9850 H   0  0  0  0  0  0  0  0  0  0  0  0
   13.0640  -63.8220   38.3700 H   0  0  0  0  0  0  0  0  0  0  0  0
   12.6310  -63.6870   36.6580 H   0  0  0  0  0  0  0  0  0  0  0  0
  2  1  1  0  0  0  0
  2  7  1  0  0  0  0
  3  2  2  0  0  0  0
  4  3  1  0  0  0  0
  4  5  2  0  0  0  0
  5  6  1  0  0  0  0
  6  7  2  0  0  0  0
  6 34  1  0  0  0  0
  7 35  1  0  0  0  0
  8 36  1  1  0  0  0
  8  4  1  0  0  0  0
  9 26  1  0  0  0  0
  9  8  1  0  0  0  0
 10  9  1  0  0  0  0
 11 10  2  0  0  0  0
 12 10  1  0  0  0  0
 12 14  1  0  0  0  0
 13 12  2  0  0  0  0
 14  8  1  0  0  0  0
 15 14  2  0  0  0  0
 15 16  1  0  0  0  0
 17 15  1  0  0  0  0
 18 17  1  0  0  0  0
 19 20  1  0  0  0  0
 19 18  1  0  0  0  0
 20 21  1  0  0  0  0
 21 17  2  0  0  0  0
 21 37  1  0  0  0  0
 22 38  1  0  0  0  0
 22 20  2  0  0  0  0
 23 22  1  0  0  0  0
 24 23  2  0  0  0  0
 24 25  1  0  0  0  0
 25 19  2  0  0  0  0
 26 43  1  0  0  0  0
 26 27  1  0  0  0  0
 27 28  1  0  0  0  0
 27 45  1  0  0  0  0
 28 47  1  0  0  0  0
 28 29  1  0  0  0  0
 29 48  1  0  0  0  0
 29 30  1  0  0  0  0
 30 50  1  0  0  0  0
 30 49  1  0  0  0  0
 31 29  1  0  0  0  0
 31 52  1  0  0  0  0
 31 53  1  0  0  0  0
 32  3  1  0  0  0  0
 33  5  1  0  0  0  0
 39 23  1  0  0  0  0
 40 24  1  0  0  0  0
 41 25  1  0  0  0  0
 42 26  1  0  0  0  0
 44 27  1  0  0  0  0
 46 28  1  0  0  0  0
 51 30  1  0  0  0  0
 54 31  1  0  0  0  0
M  END
>  <Pose>
1

>  <Score>
-7.15

$$$$
