
 OpenBabel03232204043D

 52 55  0  0  1  0  0  0  0  0999 V2000
   14.4330  -56.1470   39.2060 B   0  0  0  0  0  0  0  0  0  0  0  0
   13.7150  -57.3240   37.8470 C   0  0  0  0  0  0  0  0  0  0  0  0
   14.2980  -57.4140   36.6160 C   0  0  0  0  0  0  0  0  0  0  0  0
   13.8150  -58.2290   35.6330 C   0  0  0  0  0  0  0  0  0  0  0  0
   12.6740  -58.9780   35.9570 C   0  0  0  0  0  0  0  0  0  0  0  0
   12.0630  -58.9160   37.1790 C   0  0  0  0  0  0  0  0  0  0  0  0
   12.5970  -58.0760   38.1280 C   0  0  0  0  0  0  0  0  0  0  0  0
   14.3620  -58.3680   34.3080 C   0  0  2  0  0  0  0  0  0  0  0  0
   13.4660  -58.2590   33.3540 O   0  0  0  0  0  0  0  0  0  0  0  0
   15.7400  -58.6090   33.8620 C   0  0  0  0  0  0  0  0  0  0  0  0
   16.6000  -57.4490   33.9550 N   0  0  0  0  0  0  0  0  0  0  0  0
   17.1290  -56.7930   32.8710 C   0  0  0  0  0  0  0  0  0  0  0  0
   17.9280  -55.8050   33.3690 C   0  0  0  0  0  0  0  0  0  0  0  0
   18.6040  -54.9590   32.4860 C   0  0  0  0  0  0  0  0  0  0  0  0
   18.4550  -55.1370   31.1270 C   0  0  0  0  0  0  0  0  0  0  0  0
   17.6500  -56.1340   30.6210 C   0  0  0  0  0  0  0  0  0  0  0  0
   16.9790  -56.9740   31.5130 C   0  0  0  0  0  0  0  0  0  0  0  0
   17.8770  -55.8740   34.7180 N   0  0  0  0  0  0  0  0  0  0  0  0
   17.0730  -56.8710   35.0910 C   0  0  2  0  0  0  0  0  0  0  0  0
   16.8690  -57.2750   36.3250 N   0  0  0  0  0  0  0  0  0  0  0  0
   18.6550  -54.9800   35.5590 C   0  0  0  0  0  0  0  0  0  0  0  0
   17.8930  -53.9470   36.2810 C   0  0  0  0  0  0  0  0  0  0  0  0
   18.5890  -52.9250   36.9770 N   0  0  0  0  0  0  0  0  0  0  0  0
   19.3010  -53.4890   38.1520 C   0  0  0  0  0  0  0  0  0  0  0  0
   18.3780  -54.2210   39.0700 C   0  0  0  0  0  0  0  0  0  0  0  0
   17.5310  -53.2690   39.6410 O   0  0  0  0  0  0  0  0  0  0  0  0
   16.8320  -52.5710   38.6880 C   0  0  0  0  0  0  0  0  0  0  0  0
   17.6740  -51.9560   37.6030 C   0  0  0  0  0  0  0  0  0  0  0  0
   15.1650  -56.8240   36.4460 H   0  0  0  0  0  0  0  0  0  0  0  0
   12.2160  -59.6590   35.2420 H   0  0  0  0  0  0  0  0  0  0  0  0
   11.1670  -59.5160   37.4020 H   0  0  0  0  0  0  0  0  0  0  0  0
   12.1210  -58.0150   39.1090 H   0  0  0  0  0  0  0  0  0  0  0  0
   16.2170  -59.4570   34.4470 H   0  0  0  0  0  0  0  0  0  0  0  0
   15.7220  -58.9310   32.7760 H   0  0  0  0  0  0  0  0  0  0  0  0
   19.2320  -54.1740   32.8940 H   0  0  0  0  0  0  0  0  0  0  0  0
   18.9860  -54.4690   30.4680 H   0  0  0  0  0  0  0  0  0  0  0  0
   17.5480  -56.2530   29.5520 H   0  0  0  0  0  0  0  0  0  0  0  0
   16.3620  -57.7550   31.1140 H   0  0  0  0  0  0  0  0  0  0  0  0
   17.2480  -56.8000   37.1390 H   0  0  0  0  0  0  0  0  0  0  0  0
   16.3210  -58.1340   36.4740 H   0  0  0  0  0  0  0  0  0  0  0  0
   19.2720  -55.5940   36.2500 H   0  0  0  0  0  0  0  0  0  0  0  0
   19.3950  -54.4630   34.9050 H   0  0  0  0  0  0  0  0  0  0  0  0
   17.1170  -54.4500   36.9420 H   0  0  0  0  0  0  0  0  0  0  0  0
   17.2350  -53.4370   35.5120 H   0  0  0  0  0  0  0  0  0  0  0  0
   20.1780  -54.0770   37.8340 H   0  0  0  0  0  0  0  0  0  0  0  0
   19.6710  -52.5980   38.6900 H   0  0  0  0  0  0  0  0  0  0  0  0
   18.9950  -54.6310   39.8960 H   0  0  0  0  0  0  0  0  0  0  0  0
   17.8310  -55.0590   38.6360 H   0  0  0  0  0  0  0  0  0  0  0  0
   16.3540  -51.7030   39.2300 H   0  0  0  0  0  0  0  0  0  0  0  0
   16.0110  -53.2100   38.2980 H   0  0  0  0  0  0  0  0  0  0  0  0
   17.0200  -51.4490   36.9030 H   0  0  0  0  0  0  0  0  0  0  0  0
   18.3750  -51.2410   38.1340 H   0  0  0  0  0  0  0  0  0  0  0  0
  2  7  1  0  0  0  0
  2  1  1  0  0  0  0
  3  2  2  0  0  0  0
  4  5  2  0  0  0  0
  4  3  1  0  0  0  0
  5  6  1  0  0  0  0
  6 31  1  0  0  0  0
  6  7  2  0  0  0  0
  7 32  1  0  0  0  0
  8  9  1  1  0  0  0
  8  4  1  0  0  0  0
 10 11  1  0  0  0  0
 10  8  1  0  0  0  0
 10 33  1  0  0  0  0
 11 19  1  0  0  0  0
 12 13  1  0  0  0  0
 12 11  1  0  0  0  0
 13 18  1  0  0  0  0
 14 35  1  0  0  0  0
 14 13  2  0  0  0  0
 15 14  1  0  0  0  0
 16 15  2  0  0  0  0
 16 17  1  0  0  0  0
 17 12  2  0  0  0  0
 18 19  1  0  0  0  0
 18 21  1  0  0  0  0
 19 20  1  6  0  0  0
 20 40  1  0  0  0  0
 20 39  1  0  0  0  0
 21 41  1  0  0  0  0
 21 22  1  0  0  0  0
 22 43  1  0  0  0  0
 22 23  1  0  0  0  0
 23 28  1  0  0  0  0
 23 24  1  0  0  0  0
 24 46  1  0  0  0  0
 24 25  1  0  0  0  0
 25 26  1  0  0  0  0
 25 47  1  0  0  0  0
 27 49  1  0  0  0  0
 27 26  1  0  0  0  0
 28 52  1  0  0  0  0
 28 27  1  0  0  0  0
 29  3  1  0  0  0  0
 30  5  1  0  0  0  0
 34 10  1  0  0  0  0
 36 15  1  0  0  0  0
 37 16  1  0  0  0  0
 38 17  1  0  0  0  0
 42 21  1  0  0  0  0
 44 22  1  0  0  0  0
 45 24  1  0  0  0  0
 48 25  1  0  0  0  0
 50 27  1  0  0  0  0
 51 28  1  0  0  0  0
M  END
>  <Pose>
1

>  <Score>
-6.92

$$$$
