
 OpenBabel03232204043D

 51 54  0  0  1  0  0  0  0  0999 V2000
   18.8800  -56.9980   31.9350 B   0  0  0  0  0  0  0  0  0  0  0  0
   18.1680  -56.5490   33.6560 C   0  0  0  0  0  0  0  0  0  0  0  0
   17.4440  -57.4510   34.3960 C   0  0  0  0  0  0  0  0  0  0  0  0
   16.9460  -57.1050   35.6260 C   0  0  0  0  0  0  0  0  0  0  0  0
   17.1350  -55.8350   36.2000 C   0  0  0  0  0  0  0  0  0  0  0  0
   17.8540  -54.9570   35.4500 C   0  0  0  0  0  0  0  0  0  0  0  0
   18.3570  -55.3050   34.2110 C   0  0  0  0  0  0  0  0  0  0  0  0
   16.5440  -55.5850   37.4910 C   0  0  1  0  0  0  0  0  0  0  0  0
   16.1230  -54.2540   37.8150 N   0  0  0  0  0  0  0  0  0  0  0  0
   15.3480  -54.4310   39.0390 C   0  0  0  0  0  0  0  0  0  0  0  0
   15.1600  -53.5670   39.9230 O   0  0  0  0  0  0  0  0  0  0  0  0
   14.8370  -55.7890   39.0390 C   0  0  0  0  0  0  0  0  0  0  0  0
   14.1190  -56.3710   39.9050 O   0  0  0  0  0  0  0  0  0  0  0  0
   15.3280  -56.3920   37.7960 C   0  0  0  0  0  0  0  0  0  0  0  0
   14.8050  -57.4170   37.1810 C   0  0  0  0  0  0  0  0  0  0  0  0
   15.4400  -57.8990   36.0310 O   0  0  0  0  0  0  0  0  0  0  0  0
   13.5690  -58.0640   37.6650 C   0  0  0  0  0  0  0  0  0  0  0  0
   12.6170  -58.5790   36.8950 O   0  0  0  0  0  0  0  0  0  0  0  0
   11.6430  -59.0810   37.6070 C   0  0  0  0  0  0  0  0  0  0  0  0
   11.9140  -58.9140   38.9490 C   0  0  0  0  0  0  0  0  0  0  0  0
   13.1380  -58.2670   38.9540 C   0  0  0  0  0  0  0  0  0  0  0  0
   11.0310  -59.3630   39.9060 C   0  0  0  0  0  0  0  0  0  0  0  0
    9.8470  -59.9940   39.5930 C   0  0  0  0  0  0  0  0  0  0  0  0
    9.5700  -60.1630   38.2490 C   0  0  0  0  0  0  0  0  0  0  0  0
   10.4420  -59.7200   37.2800 C   0  0  0  0  0  0  0  0  0  0  0  0
   16.3840  -52.9600   37.2260 C   0  0  0  0  0  0  0  0  0  0  0  0
   17.5890  -52.2320   37.6510 C   0  0  0  0  0  0  0  0  0  0  0  0
   18.8400  -52.6200   37.0550 N   0  0  0  0  0  4  0  0  0  0  0  0
   19.6600  -51.4940   36.7100 C   0  0  0  0  0  0  0  0  0  0  0  0
   19.5290  -53.6830   37.7310 C   0  0  0  0  0  0  0  0  0  0  0  0
   17.2860  -58.4350   33.9740 H   0  0  0  0  0  0  0  0  0  0  0  0
   16.3820  -57.8690   36.1550 H   0  0  0  0  0  0  0  0  0  0  0  0
   18.0240  -53.9640   35.8070 H   0  0  0  0  0  0  0  0  0  0  0  0
   18.9300  -54.5780   33.6330 H   0  0  0  0  0  0  0  0  0  0  0  0
   17.2670  -55.8720   38.3160 H   0  0  0  0  0  0  0  0  0  0  0  0
   13.6720  -57.9550   39.8380 H   0  0  0  0  0  0  0  0  0  0  0  0
   11.2620  -59.2230   40.9490 H   0  0  0  0  0  0  0  0  0  0  0  0
    9.1380  -60.3550   40.3270 H   0  0  0  0  0  0  0  0  0  0  0  0
    8.6560  -60.6520   37.9420 H   0  0  0  0  0  0  0  0  0  0  0  0
   10.2270  -59.8520   36.2280 H   0  0  0  0  0  0  0  0  0  0  0  0
   15.4880  -52.2920   37.3090 H   0  0  0  0  0  0  0  0  0  0  0  0
   16.4730  -53.1330   36.1070 H   0  0  0  0  0  0  0  0  0  0  0  0
   17.7280  -52.3170   38.7450 H   0  0  0  0  0  0  0  0  0  0  0  0
   17.4540  -51.1370   37.3970 H   0  0  0  0  0  0  0  0  0  0  0  0
   18.5490  -53.0360   36.1050 H   0  0  0  0  0  0  0  0  0  0  0  0
   19.0870  -50.5840   36.9740 H   0  0  0  0  0  0  0  0  0  0  0  0
   20.6850  -51.5290   37.1370 H   0  0  0  0  0  0  0  0  0  0  0  0
   19.8350  -51.3920   35.6000 H   0  0  0  0  0  0  0  0  0  0  0  0
   19.0070  -54.0910   38.6110 H   0  0  0  0  0  0  0  0  0  0  0  0
   19.6870  -54.5810   37.0620 H   0  0  0  0  0  0  0  0  0  0  0  0
   20.5910  -53.3750   37.9720 H   0  0  0  0  0  0  0  0  0  0  0  0
  1  2  1  0  0  0  0
  2  7  2  0  0  0  0
  2  3  1  0  0  0  0
  3  4  2  0  0  0  0
  4  5  1  0  0  0  0
  5  8  1  0  0  0  0
  6 33  1  0  0  0  0
  6  5  2  0  0  0  0
  7  6  1  0  0  0  0
  8 14  1  0  0  0  0
  8  9  1  0  0  0  0
  8 35  1  1  0  0  0
  9 10  1  0  0  0  0
 10 11  2  0  0  0  0
 12 10  1  0  0  0  0
 12 13  2  0  0  0  0
 14 12  1  0  0  0  0
 15 17  1  0  0  0  0
 15 14  2  0  0  0  0
 16 32  1  0  0  0  0
 16 15  1  0  0  0  0
 17 21  2  0  0  0  0
 18 19  1  0  0  0  0
 18 17  1  0  0  0  0
 19 20  1  0  0  0  0
 20 21  1  0  0  0  0
 20 22  2  0  0  0  0
 21 36  1  0  0  0  0
 22 37  1  0  0  0  0
 23 22  1  0  0  0  0
 23 38  1  0  0  0  0
 24 23  2  0  0  0  0
 25 19  2  0  0  0  0
 25 24  1  0  0  0  0
 26 41  1  0  0  0  0
 26 27  1  0  0  0  0
 26  9  1  0  0  0  0
 27 43  1  0  0  0  0
 28 27  1  0  0  0  0
 28 30  1  0  0  0  0
 29 46  1  0  0  0  0
 29 28  1  0  0  0  0
 29 47  1  0  0  0  0
 30 51  1  0  0  0  0
 30 49  1  0  0  0  0
 31  3  1  0  0  0  0
 34  7  1  0  0  0  0
 39 24  1  0  0  0  0
 40 25  1  0  0  0  0
 42 26  1  0  0  0  0
 44 27  1  0  0  0  0
 45 28  1  0  0  0  0
 48 29  1  0  0  0  0
 50 30  1  0  0  0  0
M  END
>  <Pose>
1

>  <Score>
-6.11

$$$$
