
 OpenBabel03232204043D

 48 51  0  0  0  0  0  0  0  0999 V2000
   20.3510  -50.8090   36.3550 B   0  0  0  0  0  0  0  0  0  0  0  0
   19.3680  -52.4470   36.3220 C   0  0  0  0  0  0  0  0  0  0  0  0
   18.4800  -52.7580   37.3490 C   0  0  0  0  0  0  0  0  0  0  0  0
   17.7670  -53.9350   37.3220 C   0  0  0  0  0  0  0  0  0  0  0  0
   17.9220  -54.8170   36.2810 C   0  0  0  0  0  0  0  0  0  0  0  0
   18.8020  -54.4940   35.2740 C   0  0  0  0  0  0  0  0  0  0  0  0
   19.5340  -53.3290   35.2650 C   0  0  0  0  0  0  0  0  0  0  0  0
   16.8290  -54.2660   38.3770 C   0  0  0  0  0  0  0  0  0  0  0  0
   15.9130  -55.2210   38.2110 C   0  0  0  0  0  0  0  0  0  0  0  0
   15.7130  -56.0060   37.0770 O   0  0  0  0  0  0  0  0  0  0  0  0
   14.6850  -56.8880   37.2750 C   0  0  0  0  0  0  0  0  0  0  0  0
   14.1530  -56.7280   38.5490 C   0  0  0  0  0  0  0  0  0  0  0  0
   13.1010  -57.5480   38.9270 C   0  0  0  0  0  0  0  0  0  0  0  0
   12.6080  -58.4900   38.0540 C   0  0  0  0  0  0  0  0  0  0  0  0
   13.1680  -58.6210   36.7810 C   0  0  0  0  0  0  0  0  0  0  0  0
   14.2080  -57.8230   36.3810 C   0  0  0  0  0  0  0  0  0  0  0  0
   14.7060  -57.9460   35.0100 C   0  0  0  0  0  0  0  0  0  0  0  0
   15.7860  -58.8420   34.8080 N   0  0  0  0  0  4  0  0  0  0  0  0
   16.8500  -58.1260   34.1240 C   0  0  0  0  0  0  0  0  0  0  0  0
   17.5820  -58.9130   33.0920 C   0  0  0  0  0  0  0  0  0  0  0  0
   16.7650  -59.6030   32.1580 N   0  0  0  0  0  0  0  0  0  0  0  0
   15.4070  -59.6760   32.5880 C   0  0  0  0  0  0  0  0  0  0  0  0
   15.3530  -59.9890   34.0450 C   0  0  0  0  0  0  0  0  0  0  0  0
   17.3250  -60.9100   31.8850 C   0  0  0  0  0  0  0  0  0  0  0  0
   12.6020  -59.5980   35.9760 O   0  0  0  0  0  0  0  0  0  0  0  0
   14.9230  -55.6510   39.1950 C   0  0  0  0  0  0  0  0  0  0  0  0
   14.7210  -55.2240   40.3610 O   0  0  0  0  0  0  0  0  0  0  0  0
   18.3870  -52.0350   38.1600 H   0  0  0  0  0  0  0  0  0  0  0  0
   17.3640  -55.7440   36.2670 H   0  0  0  0  0  0  0  0  0  0  0  0
   18.8990  -55.2100   34.4460 H   0  0  0  0  0  0  0  0  0  0  0  0
   20.2160  -53.1070   34.4380 H   0  0  0  0  0  0  0  0  0  0  0  0
   16.8620  -53.7360   39.3090 H   0  0  0  0  0  0  0  0  0  0  0  0
   12.7150  -57.3970   39.9250 H   0  0  0  0  0  0  0  0  0  0  0  0
   11.7910  -59.0960   38.4040 H   0  0  0  0  0  0  0  0  0  0  0  0
   13.8240  -58.3030   34.3740 H   0  0  0  0  0  0  0  0  0  0  0  0
   14.9290  -56.9460   34.6080 H   0  0  0  0  0  0  0  0  0  0  0  0
   16.1620  -59.2480   35.7170 H   0  0  0  0  0  0  0  0  0  0  0  0
   17.6060  -57.7200   34.8160 H   0  0  0  0  0  0  0  0  0  0  0  0
   16.4430  -57.2020   33.6170 H   0  0  0  0  0  0  0  0  0  0  0  0
   18.2020  -58.1600   32.5050 H   0  0  0  0  0  0  0  0  0  0  0  0
   18.3880  -59.5880   33.5270 H   0  0  0  0  0  0  0  0  0  0  0  0
   14.9410  -58.6560   32.4430 H   0  0  0  0  0  0  0  0  0  0  0  0
   14.7910  -60.3970   31.9920 H   0  0  0  0  0  0  0  0  0  0  0  0
   15.9830  -60.8970   34.2940 H   0  0  0  0  0  0  0  0  0  0  0  0
   14.2980  -60.2610   34.2990 H   0  0  0  0  0  0  0  0  0  0  0  0
   17.8460  -61.3570   32.7690 H   0  0  0  0  0  0  0  0  0  0  0  0
   16.5920  -61.6480   31.4980 H   0  0  0  0  0  0  0  0  0  0  0  0
   18.1580  -60.7600   31.1370 H   0  0  0  0  0  0  0  0  0  0  0  0
  2  1  1  0  0  0  0
  2  3  1  0  0  0  0
  3 28  1  0  0  0  0
  4  3  2  0  0  0  0
  4  8  1  0  0  0  0
  5  4  1  0  0  0  0
  6  5  2  0  0  0  0
  7  6  1  0  0  0  0
  7  2  2  0  0  0  0
  8 32  1  0  0  0  0
  9  8  2  0  0  0  0
  9 26  1  0  0  0  0
 10 11  1  0  0  0  0
 10  9  1  0  0  0  0
 11 12  1  0  0  0  0
 12 13  2  0  0  0  0
 12 26  1  0  0  0  0
 13 33  1  0  0  0  0
 14 34  1  0  0  0  0
 14 13  1  0  0  0  0
 15 14  2  0  0  0  0
 16 15  1  0  0  0  0
 16 11  2  0  0  0  0
 17 16  1  0  0  0  0
 18 17  1  0  0  0  0
 18 37  1  0  0  0  0
 19 18  1  0  0  0  0
 19 38  1  0  0  0  0
 20 41  1  0  0  0  0
 20 19  1  0  0  0  0
 21 22  1  0  0  0  0
 21 20  1  0  0  0  0
 22 23  1  0  0  0  0
 23 44  1  0  0  0  0
 23 45  1  0  0  0  0
 23 18  1  0  0  0  0
 24 21  1  0  0  0  0
 24 46  1  0  0  0  0
 25 15  1  0  0  0  0
 26 27  2  0  0  0  0
 29  5  1  0  0  0  0
 30  6  1  0  0  0  0
 31  7  1  0  0  0  0
 35 17  1  0  0  0  0
 36 17  1  0  0  0  0
 39 19  1  0  0  0  0
 40 20  1  0  0  0  0
 42 22  1  0  0  0  0
 43 22  1  0  0  0  0
 47 24  1  0  0  0  0
 48 24  1  0  0  0  0
M  END
>  <Pose>
1

>  <Score>
-6.63

$$$$
