
 OpenBabel03232204043D

 55 58  0  0  1  0  0  0  0  0999 V2000
   11.1680  -62.0150   39.2000 B   0  0  0  0  0  0  0  0  0  0  0  0
   11.6770  -61.0660   37.6160 C   0  0  0  0  0  0  0  0  0  0  0  0
   11.6410  -61.7270   36.4080 C   0  0  0  0  0  0  0  0  0  0  0  0
   12.0030  -61.0630   35.2590 C   0  0  0  0  0  0  0  0  0  0  0  0
   12.4130  -59.7370   35.2310 C   0  0  0  0  0  0  0  0  0  0  0  0
   12.4390  -59.1040   36.4540 C   0  0  0  0  0  0  0  0  0  0  0  0
   12.0730  -59.7670   37.6360 C   0  0  0  0  0  0  0  0  0  0  0  0
   12.7600  -59.1550   34.0160 N   0  0  0  0  0  0  0  0  0  0  0  0
   13.7970  -58.2480   33.7370 C   0  0  0  0  0  0  0  0  0  0  0  0
   13.5490  -57.0740   33.3990 O   0  0  0  0  0  0  0  0  0  0  0  0
   15.2330  -58.6210   33.8230 C   0  0  0  0  0  0  0  0  0  0  0  0
   16.0750  -57.4950   33.5500 N   0  0  0  0  0  0  0  0  0  0  0  0
   16.9540  -56.9220   34.5020 C   0  0  0  0  0  0  0  0  0  0  0  0
   16.5090  -56.7160   35.6630 O   0  0  0  0  0  0  0  0  0  0  0  0
   18.3500  -56.5860   34.1160 C   0  0  2  0  0  0  0  0  0  0  0  0
   18.9340  -55.9260   35.1310 O   0  0  0  0  0  0  0  0  0  0  0  0
   19.9460  -55.0630   34.8510 C   0  0  2  0  0  0  0  0  0  0  0  0
   20.1430  -54.2560   35.9810 O   0  0  0  0  0  0  0  0  0  0  0  0
   19.3160  -53.1650   35.8590 C   0  0  0  0  0  0  0  0  0  0  0  0
   18.7690  -53.1630   34.5920 O   0  0  0  0  0  0  0  0  0  0  0  0
   19.5890  -54.0190   33.8200 C   0  0  2  0  0  0  0  0  0  0  0  0
   18.8700  -54.5900   32.6590 C   0  0  1  0  0  0  0  0  0  0  0  0
   19.6780  -54.5840   31.4980 O   0  0  0  0  0  0  0  0  0  0  0  0
   19.4980  -55.7870   30.8650 C   0  0  0  0  0  0  0  0  0  0  0  0
   19.2300  -56.6700   31.8780 O   0  0  0  0  0  0  0  0  0  0  0  0
   18.3950  -55.9740   32.7660 C   0  0  1  0  0  0  0  0  0  0  0  0
   20.8200  -56.1220   30.1650 C   0  0  0  0  0  0  0  0  0  0  0  0
   18.4490  -55.7470   29.7850 C   0  0  0  0  0  0  0  0  0  0  0  0
   20.0830  -51.8500   36.0060 C   0  0  0  0  0  0  0  0  0  0  0  0
   18.2240  -53.1420   36.9150 C   0  0  0  0  0  0  0  0  0  0  0  0
   11.3230  -62.7830   36.3620 H   0  0  0  0  0  0  0  0  0  0  0  0
   11.9540  -61.6330   34.3420 H   0  0  0  0  0  0  0  0  0  0  0  0
   12.7400  -58.0910   36.5320 H   0  0  0  0  0  0  0  0  0  0  0  0
   12.1140  -59.2210   38.5530 H   0  0  0  0  0  0  0  0  0  0  0  0
   12.1580  -59.4290   33.1720 H   0  0  0  0  0  0  0  0  0  0  0  0
   15.4230  -58.9050   34.9000 H   0  0  0  0  0  0  0  0  0  0  0  0
   15.4830  -59.5210   33.2340 H   0  0  0  0  0  0  0  0  0  0  0  0
   16.0400  -57.0720   32.5980 H   0  0  0  0  0  0  0  0  0  0  0  0
   18.8660  -57.5910   34.0250 H   0  0  0  0  0  0  0  0  0  0  0  0
   20.9280  -55.5330   34.6390 H   0  0  0  0  0  0  0  0  0  0  0  0
   20.5290  -53.4990   33.5460 H   0  0  0  0  0  0  0  0  0  0  0  0
   18.0260  -53.8840   32.4030 H   0  0  0  0  0  0  0  0  0  0  0  0
   17.3740  -56.0400   32.3100 H   0  0  0  0  0  0  0  0  0  0  0  0
   20.6220  -56.9630   29.4900 H   0  0  0  0  0  0  0  0  0  0  0  0
   21.6190  -56.3050   30.8990 H   0  0  0  0  0  0  0  0  0  0  0  0
   21.0920  -55.2150   29.5860 H   0  0  0  0  0  0  0  0  0  0  0  0
   17.9070  -56.6860   29.6600 H   0  0  0  0  0  0  0  0  0  0  0  0
   17.7260  -54.9230   29.9570 H   0  0  0  0  0  0  0  0  0  0  0  0
   18.9080  -55.5180   28.7790 H   0  0  0  0  0  0  0  0  0  0  0  0
   20.7840  -51.9510   36.8420 H   0  0  0  0  0  0  0  0  0  0  0  0
   20.5470  -51.5480   35.0490 H   0  0  0  0  0  0  0  0  0  0  0  0
   19.3260  -51.0830   36.2760 H   0  0  0  0  0  0  0  0  0  0  0  0
   18.3400  -52.2950   37.6230 H   0  0  0  0  0  0  0  0  0  0  0  0
   18.2260  -54.0820   37.5170 H   0  0  0  0  0  0  0  0  0  0  0  0
   17.2130  -53.0190   36.4520 H   0  0  0  0  0  0  0  0  0  0  0  0
  2  7  1  0  0  0  0
  2  1  1  0  0  0  0
  3  2  2  0  0  0  0
  4  3  1  0  0  0  0
  5  4  2  0  0  0  0
  5  6  1  0  0  0  0
  6 33  1  0  0  0  0
  6  7  2  0  0  0  0
  7 34  1  0  0  0  0
  8  5  1  0  0  0  0
  9 11  1  0  0  0  0
  9  8  1  0  0  0  0
 10  9  2  0  0  0  0
 11 36  1  0  0  0  0
 12 11  1  0  0  0  0
 12 13  1  0  0  0  0
 13 14  2  0  0  0  0
 15 39  1  6  0  0  0
 15 13  1  0  0  0  0
 15 16  1  0  0  0  0
 17 40  1  6  0  0  0
 17 16  1  0  0  0  0
 17 18  1  0  0  0  0
 19 18  1  0  0  0  0
 19 29  1  0  0  0  0
 19 30  1  0  0  0  0
 20 19  1  0  0  0  0
 21 41  1  6  0  0  0
 21 20  1  0  0  0  0
 21 17  1  0  0  0  0
 22 42  1  6  0  0  0
 22 26  1  0  0  0  0
 22 21  1  0  0  0  0
 23 22  1  0  0  0  0
 24 23  1  0  0  0  0
 24 25  1  0  0  0  0
 25 26  1  0  0  0  0
 26 43  1  6  0  0  0
 26 15  1  0  0  0  0
 27 24  1  0  0  0  0
 27 45  1  0  0  0  0
 28 48  1  0  0  0  0
 28 24  1  0  0  0  0
 29 52  1  0  0  0  0
 29 50  1  0  0  0  0
 30 54  1  0  0  0  0
 30 53  1  0  0  0  0
 31  3  1  0  0  0  0
 32  4  1  0  0  0  0
 35  8  1  0  0  0  0
 37 11  1  0  0  0  0
 38 12  1  0  0  0  0
 44 27  1  0  0  0  0
 46 27  1  0  0  0  0
 47 28  1  0  0  0  0
 49 28  1  0  0  0  0
 51 29  1  0  0  0  0
 55 30  1  0  0  0  0
M  END
>  <Pose>
1

>  <Score>
-6.32

$$$$
