
 OpenBabel03232204043D

 42 45  0  0  1  0  0  0  0  0999 V2000
   16.9680  -55.5430   36.3050 Cl  0  0  0  0  0  0  0  0  0  0  0  0
   16.6220  -54.2920   37.4740 C   0  0  0  0  0  0  0  0  0  0  0  0
   15.6140  -54.5260   38.3850 C   0  0  0  0  0  0  0  0  0  0  0  0
   15.3670  -53.5230   39.2900 C   0  0  0  0  0  0  0  0  0  0  0  0
   16.0740  -52.3420   39.3050 C   0  0  0  0  0  0  0  0  0  0  0  0
   17.0960  -52.1240   38.3720 C   0  0  0  0  0  0  0  0  0  0  0  0
   17.3600  -53.1130   37.4580 C   0  0  0  0  0  0  0  0  0  0  0  0
   14.8440  -55.7650   38.3970 C   0  0  0  0  0  0  0  0  0  0  0  0
   14.7310  -56.6490   39.4020 N   0  0  0  0  0  0  0  0  0  0  0  0
   13.9470  -57.6380   39.0290 O   0  0  0  0  0  0  0  0  0  0  0  0
   13.5340  -57.4390   37.8020 C   0  0  0  0  0  0  0  0  0  0  0  0
   14.0910  -56.2740   37.4060 N   0  0  0  0  0  0  0  0  0  0  0  0
   12.6240  -58.3150   36.9800 C   0  0  0  0  0  0  0  0  0  0  0  0
   12.7670  -58.0030   35.5690 N   0  0  0  0  0  0  0  0  0  0  0  0
   13.9800  -58.2180   34.8920 C   0  0  0  0  0  0  0  0  0  0  0  0
   14.4250  -57.3310   34.1310 O   0  0  0  0  0  0  0  0  0  0  0  0
   14.7210  -59.4760   35.0720 C   0  0  1  0  0  0  0  0  0  0  0  0
   13.8760  -60.6900   34.7370 C   0  0  0  0  0  0  0  0  0  0  0  0
   14.6920  -61.9390   34.7410 C   0  0  0  0  0  0  0  0  0  0  0  0
   15.2760  -62.3170   33.4180 C   0  0  0  0  0  0  0  0  0  0  0  0
   15.5350  -61.1020   32.5330 C   0  0  0  0  0  0  0  0  0  0  0  0
   16.3670  -60.1910   33.2840 N   0  0  0  0  0  0  0  0  0  0  0  0
   17.6090  -59.9280   32.9800 N   0  0  0  0  0  0  0  0  0  0  0  0
   18.0820  -59.0700   33.8500 N   0  0  0  0  0  0  0  0  0  0  0  0
   17.1160  -58.7990   34.7060 N   0  0  0  0  0  0  0  0  0  0  0  0
   16.0150  -59.4950   34.3730 C   0  0  0  0  0  0  0  0  0  0  0  0
   14.5900  -53.6580   40.0210 H   0  0  0  0  0  0  0  0  0  0  0  0
   15.8890  -51.5490   40.0130 H   0  0  0  0  0  0  0  0  0  0  0  0
   17.6670  -51.2030   38.3660 H   0  0  0  0  0  0  0  0  0  0  0  0
   18.1510  -52.9420   36.7360 H   0  0  0  0  0  0  0  0  0  0  0  0
   11.5820  -58.1760   37.3080 H   0  0  0  0  0  0  0  0  0  0  0  0
   12.9070  -59.3650   37.1920 H   0  0  0  0  0  0  0  0  0  0  0  0
   11.9570  -57.6130   35.0470 H   0  0  0  0  0  0  0  0  0  0  0  0
   14.9550  -59.5810   36.1630 H   0  0  0  0  0  0  0  0  0  0  0  0
   13.1080  -60.7880   35.5610 H   0  0  0  0  0  0  0  0  0  0  0  0
   13.2930  -60.5120   33.8260 H   0  0  0  0  0  0  0  0  0  0  0  0
   14.0540  -62.7770   35.1420 H   0  0  0  0  0  0  0  0  0  0  0  0
   15.5070  -61.8220   35.4910 H   0  0  0  0  0  0  0  0  0  0  0  0
   16.2170  -62.8720   33.6110 H   0  0  0  0  0  0  0  0  0  0  0  0
   14.6040  -62.9820   32.8270 H   0  0  0  0  0  0  0  0  0  0  0  0
   16.0860  -61.4540   31.6390 H   0  0  0  0  0  0  0  0  0  0  0  0
   14.6060  -60.5960   32.2740 H   0  0  0  0  0  0  0  0  0  0  0  0
  1  2  1  0  0  0  0
  2  3  1  0  0  0  0
  3  8  1  0  0  0  0
  3  4  2  0  0  0  0
  4  5  1  0  0  0  0
  4 27  1  0  0  0  0
  5 28  1  0  0  0  0
  6  5  2  0  0  0  0
  7  2  2  0  0  0  0
  7  6  1  0  0  0  0
  8  9  2  0  0  0  0
 10  9  1  0  0  0  0
 11 10  1  0  0  0  0
 12 11  2  0  0  0  0
 12  8  1  0  0  0  0
 13 32  1  0  0  0  0
 13 31  1  0  0  0  0
 13 11  1  0  0  0  0
 14 13  1  0  0  0  0
 15 17  1  0  0  0  0
 15 14  1  0  0  0  0
 16 15  2  0  0  0  0
 17 34  1  1  0  0  0
 18 19  1  0  0  0  0
 18 17  1  0  0  0  0
 18 35  1  0  0  0  0
 19 37  1  0  0  0  0
 19 38  1  0  0  0  0
 20 39  1  0  0  0  0
 20 19  1  0  0  0  0
 21 22  1  0  0  0  0
 21 20  1  0  0  0  0
 22 26  1  0  0  0  0
 23 22  1  0  0  0  0
 23 24  2  0  0  0  0
 24 25  1  0  0  0  0
 26 25  2  0  0  0  0
 26 17  1  0  0  0  0
 29  6  1  0  0  0  0
 30  7  1  0  0  0  0
 33 14  1  0  0  0  0
 36 18  1  0  0  0  0
 40 20  1  0  0  0  0
 41 21  1  0  0  0  0
 42 21  1  0  0  0  0
M  END
>  <Pose>
1

>  <Score>
-6.33

$$$$
