
 OpenBabel03232204043D

 52 55  0  0  1  0  0  0  0  0999 V2000
   10.6250  -60.3830   42.4500 B   0  0  0  0  0  0  0  0  0  0  0  0
   10.6540  -60.0300   40.5520 C   0  0  0  0  0  0  0  0  0  0  0  0
   11.7610  -59.4600   39.9760 C   0  0  0  0  0  0  0  0  0  0  0  0
   11.8490  -59.1690   38.6050 C   0  0  0  0  0  0  0  0  0  0  0  0
   10.7780  -59.4790   37.8220 C   0  0  0  0  0  0  0  0  0  0  0  0
    9.6500  -60.0570   38.3940 C   0  0  0  0  0  0  0  0  0  0  0  0
    9.5790  -60.3330   39.7490 C   0  0  0  0  0  0  0  0  0  0  0  0
   13.1010  -58.5720   38.1090 C   0  0  0  0  0  0  0  0  0  0  0  0
   13.5550  -57.5130   38.5600 O   0  0  0  0  0  0  0  0  0  0  0  0
   13.7840  -59.3110   37.0620 N   0  0  0  0  0  0  0  0  0  0  0  0
   13.6180  -58.8960   35.6900 C   0  0  2  0  0  0  0  0  0  0  0  0
   12.3940  -59.7190   35.2120 C   0  0  0  0  0  0  0  0  0  0  0  0
   14.7570  -59.2780   34.8000 C   0  0  0  0  0  0  0  0  0  0  0  0
   14.4840  -59.8260   33.7120 O   0  0  0  0  0  0  0  0  0  0  0  0
   16.0890  -59.0280   35.1470 N   0  0  0  0  0  0  0  0  0  0  0  0
   17.2840  -59.7150   34.7920 C   0  0  0  0  0  0  0  0  0  0  0  0
   18.3620  -58.6200   34.7770 C   0  0  0  0  0  0  0  0  0  0  0  0
   17.7930  -57.2720   34.4080 C   0  0  1  0  0  0  0  0  0  0  0  0
   18.8110  -56.2570   34.4070 N   0  0  0  0  0  0  0  0  0  0  0  0
   18.1560  -54.9710   34.1320 C   0  0  0  0  0  0  0  0  0  0  0  0
   17.6060  -54.9110   32.7410 C   0  0  0  0  0  0  0  0  0  0  0  0
   17.1330  -56.2270   32.2550 C   0  0  0  0  0  0  0  0  0  0  0  0
   16.5780  -56.5710   31.0890 N   0  0  0  0  0  0  0  0  0  0  0  0
   16.3110  -57.8920   31.1140 C   0  0  0  0  0  0  0  0  0  0  0  0
   16.7080  -58.3560   32.3070 N   0  0  0  0  0  0  0  0  0  0  0  0
   17.2270  -57.3730   33.0570 C   0  0  0  0  0  0  0  0  0  0  0  0
   16.7560  -56.7730   35.4270 C   0  0  0  0  0  0  0  0  0  0  0  0
   16.3640  -57.9720   36.1780 C   0  0  0  0  0  0  0  0  0  0  0  0
   12.6130  -59.1970   40.5860 H   0  0  0  0  0  0  0  0  0  0  0  0
   10.8150  -59.2660   36.7550 H   0  0  0  0  0  0  0  0  0  0  0  0
    8.8100  -60.3170   37.8070 H   0  0  0  0  0  0  0  0  0  0  0  0
    8.7120  -60.7770   40.2380 H   0  0  0  0  0  0  0  0  0  0  0  0
   14.3670  -60.1130   37.2940 H   0  0  0  0  0  0  0  0  0  0  0  0
   13.3030  -57.8440   35.5840 H   0  0  0  0  0  0  0  0  0  0  0  0
   12.7550  -60.7880   35.3960 H   0  0  0  0  0  0  0  0  0  0  0  0
   11.5380  -59.5440   35.8360 H   0  0  0  0  0  0  0  0  0  0  0  0
   12.2260  -59.5800   34.1410 H   0  0  0  0  0  0  0  0  0  0  0  0
   17.5250  -60.4000   35.6460 H   0  0  0  0  0  0  0  0  0  0  0  0
   17.2520  -60.2820   33.8680 H   0  0  0  0  0  0  0  0  0  0  0  0
   19.0330  -58.9030   33.9570 H   0  0  0  0  0  0  0  0  0  0  0  0
   18.9740  -58.6260   35.6850 H   0  0  0  0  0  0  0  0  0  0  0  0
   19.2120  -56.1680   35.3710 H   0  0  0  0  0  0  0  0  0  0  0  0
   17.3490  -54.7170   34.8160 H   0  0  0  0  0  0  0  0  0  0  0  0
   18.9310  -54.1540   34.2180 H   0  0  0  0  0  0  0  0  0  0  0  0
   18.3080  -54.4120   32.0150 H   0  0  0  0  0  0  0  0  0  0  0  0
   16.6970  -54.2350   32.7290 H   0  0  0  0  0  0  0  0  0  0  0  0
   16.3550  -55.9850   30.2540 H   0  0  0  0  0  0  0  0  0  0  0  0
   15.8700  -58.5130   30.3590 H   0  0  0  0  0  0  0  0  0  0  0  0
   15.9760  -56.2700   34.8560 H   0  0  0  0  0  0  0  0  0  0  0  0
   17.2340  -56.0820   36.1800 H   0  0  0  0  0  0  0  0  0  0  0  0
   15.5920  -57.9600   36.9210 H   0  0  0  0  0  0  0  0  0  0  0  0
   17.2970  -58.3020   36.7510 H   0  0  0  0  0  0  0  0  0  0  0  0
  2  1  1  0  0  0  0
  3  2  1  0  0  0  0
  3 29  1  0  0  0  0
  4  3  2  0  0  0  0
  5  6  2  0  0  0  0
  5  4  1  0  0  0  0
  6  7  1  0  0  0  0
  7 32  1  0  0  0  0
  7  2  2  0  0  0  0
  8  9  2  0  0  0  0
  8  4  1  0  0  0  0
 10 33  1  0  0  0  0
 10  8  1  0  0  0  0
 11 34  1  6  0  0  0
 11 10  1  0  0  0  0
 12 35  1  0  0  0  0
 12 11  1  0  0  0  0
 12 36  1  0  0  0  0
 13 15  1  0  0  0  0
 13 11  1  0  0  0  0
 14 13  2  0  0  0  0
 15 28  1  0  0  0  0
 16 15  1  0  0  0  0
 16 38  1  0  0  0  0
 17 16  1  0  0  0  0
 17 41  1  0  0  0  0
 18 26  1  6  0  0  0
 18 17  1  0  0  0  0
 18 27  1  0  0  0  0
 19 18  1  0  0  0  0
 19 42  1  0  0  0  0
 20 44  1  0  0  0  0
 20 19  1  0  0  0  0
 20 43  1  0  0  0  0
 21 20  1  0  0  0  0
 22 21  1  0  0  0  0
 22 26  2  0  0  0  0
 23 24  1  0  0  0  0
 23 22  1  0  0  0  0
 24 25  2  0  0  0  0
 25 26  1  0  0  0  0
 27 28  1  0  0  0  0
 27 50  1  0  0  0  0
 28 52  1  0  0  0  0
 28 51  1  0  0  0  0
 30  5  1  0  0  0  0
 31  6  1  0  0  0  0
 37 12  1  0  0  0  0
 39 16  1  0  0  0  0
 40 17  1  0  0  0  0
 45 21  1  0  0  0  0
 46 21  1  0  0  0  0
 47 23  1  0  0  0  0
 48 24  1  0  0  0  0
 49 27  1  0  0  0  0
M  END
>  <Pose>
1

>  <Score>
-5.88

$$$$
