
 OpenBabel03232204043D

 36 39  0  0  1  0  0  0  0  0999 V2000
   12.4000  -57.6200   34.4610 B   0  0  0  0  0  0  0  0  0  0  0  0
   14.3210  -57.7680   34.5330 C   0  0  0  0  0  0  0  0  0  0  0  0
   15.0600  -57.9290   33.3910 C   0  0  0  0  0  0  0  0  0  0  0  0
   16.4330  -58.0320   33.4670 C   0  0  0  0  0  0  0  0  0  0  0  0
   17.0080  -57.9670   34.7070 C   0  0  0  0  0  0  0  0  0  0  0  0
   16.2460  -57.8010   35.8810 C   0  0  0  0  0  0  0  0  0  0  0  0
   14.8830  -57.7000   35.7870 C   0  0  0  0  0  0  0  0  0  0  0  0
   18.4240  -58.0880   34.6230 N   0  0  0  0  0  0  0  0  0  0  0  0
   18.7640  -58.2360   33.2720 C   0  0  0  0  0  0  0  0  0  0  0  0
   19.9450  -58.3700   32.8260 O   0  0  0  0  0  0  0  0  0  0  0  0
   17.5020  -58.2080   32.4530 C   0  0  2  0  0  0  0  0  0  0  0  0
   17.6330  -57.0660   31.5550 C   0  0  0  0  0  0  0  0  0  0  0  0
   17.6800  -57.2310   30.2060 C   0  0  0  0  0  0  0  0  0  0  0  0
   17.8040  -55.9830   29.6640 N   0  0  0  0  0  0  0  0  0  0  0  0
   17.8350  -55.0750   30.6170 N   0  0  0  0  0  0  0  0  0  0  0  0
   17.7330  -55.6920   31.7920 C   0  0  0  0  0  0  0  0  0  0  0  0
   17.7200  -55.1080   33.1700 C   0  0  0  0  0  0  0  0  0  0  0  0
   17.6050  -58.4870   29.5920 O   0  0  0  0  0  0  0  0  0  0  0  0
   17.4800  -59.5730   30.4520 C   0  0  0  0  0  0  0  0  0  0  0  0
   17.4300  -59.4780   31.7550 C   0  0  0  0  0  0  0  0  0  0  0  0
   17.2950  -60.7370   32.5090 C   0  0  0  0  0  0  0  0  0  0  0  0
   17.1660  -61.7350   33.1020 N   0  0  0  0  0  0  0  0  0  0  0  0
   17.3980  -60.9060   29.8720 N   0  0  0  0  0  0  0  0  0  0  0  0
   19.3740  -58.0640   35.7460 C   0  0  0  0  0  0  0  0  0  0  0  0
   14.5910  -57.9770   32.4220 H   0  0  0  0  0  0  0  0  0  0  0  0
   16.7030  -57.7500   36.8600 H   0  0  0  0  0  0  0  0  0  0  0  0
   14.2630  -57.5700   36.6870 H   0  0  0  0  0  0  0  0  0  0  0  0
   17.9230  -54.0310   30.5240 H   0  0  0  0  0  0  0  0  0  0  0  0
   17.8150  -54.0000   33.0360 H   0  0  0  0  0  0  0  0  0  0  0  0
   16.7280  -55.2520   33.6640 H   0  0  0  0  0  0  0  0  0  0  0  0
   18.5690  -55.4230   33.7750 H   0  0  0  0  0  0  0  0  0  0  0  0
   18.2500  -61.4880   29.9990 H   0  0  0  0  0  0  0  0  0  0  0  0
   16.5780  -61.2530   29.3780 H   0  0  0  0  0  0  0  0  0  0  0  0
   19.9120  -59.0320   35.7430 H   0  0  0  0  0  0  0  0  0  0  0  0
   20.1200  -57.2820   35.4710 H   0  0  0  0  0  0  0  0  0  0  0  0
   18.8780  -57.8290   36.6870 H   0  0  0  0  0  0  0  0  0  0  0  0
  1  2  1  0  0  0  0
  2  7  1  0  0  0  0
  3  4  1  0  0  0  0
  3  2  2  0  0  0  0
  4  5  2  0  0  0  0
  5  6  1  0  0  0  0
  6 26  1  0  0  0  0
  7  6  2  0  0  0  0
  7 27  1  0  0  0  0
  8  5  1  0  0  0  0
  8 24  1  0  0  0  0
  9  8  1  0  0  0  0
 10  9  2  0  0  0  0
 11 12  1  6  0  0  0
 11  9  1  0  0  0  0
 11  4  1  0  0  0  0
 12 16  2  0  0  0  0
 13 12  1  0  0  0  0
 14 13  2  0  0  0  0
 14 15  1  0  0  0  0
 15 16  1  0  0  0  0
 16 17  1  0  0  0  0
 17 30  1  0  0  0  0
 17 31  1  0  0  0  0
 18 13  1  0  0  0  0
 18 19  1  0  0  0  0
 19 20  2  0  0  0  0
 20 11  1  0  0  0  0
 20 21  1  0  0  0  0
 21 22  3  0  0  0  0
 23 32  1  0  0  0  0
 23 19  1  0  0  0  0
 24 36  1  0  0  0  0
 25  3  1  0  0  0  0
 28 15  1  0  0  0  0
 29 17  1  0  0  0  0
 33 23  1  0  0  0  0
 34 24  1  0  0  0  0
 35 24  1  0  0  0  0
M  END
>  <Pose>
1

>  <Score>
-4.35

$$$$
