
 OpenBabel03232204043D

 38 41  0  0  0  0  0  0  0  0999 V2000
   15.2850  -58.4600   34.7900 B   0  0  0  0  0  0  0  0  0  0  0  0
   14.3620  -58.1520   36.4150 C   0  0  0  0  0  0  0  0  0  0  0  0
   13.1210  -58.6700   36.5700 C   0  0  0  0  0  0  0  0  0  0  0  0
   12.3530  -59.4130   35.7490 N   0  0  0  0  0  0  0  0  0  0  0  0
   11.2370  -59.6250   36.4400 N   0  0  0  0  0  0  0  0  0  0  0  0
   11.2710  -59.0690   37.6190 N   0  0  0  0  0  0  0  0  0  0  0  0
   12.4650  -58.4370   37.7580 C   0  0  0  0  0  0  0  0  0  0  0  0
   13.0600  -57.6900   38.7690 C   0  0  0  0  0  0  0  0  0  0  0  0
   14.2910  -57.1730   38.6210 N   0  0  0  0  0  0  0  0  0  0  0  0
   14.9250  -57.4090   37.4510 C   0  0  0  0  0  0  0  0  0  0  0  0
   14.9530  -56.3870   39.6490 C   0  0  0  0  0  0  0  0  0  0  0  0
   15.2910  -55.0270   39.2410 C   0  0  0  0  0  0  0  0  0  0  0  0
   14.6410  -54.0940   39.8020 O   0  0  0  0  0  0  0  0  0  0  0  0
   16.2990  -54.6440   38.2570 C   0  0  0  0  0  0  0  0  0  0  0  0
   16.9550  -53.4550   38.4100 C   0  0  0  0  0  0  0  0  0  0  0  0
   17.9020  -53.0670   37.4980 C   0  0  0  0  0  0  0  0  0  0  0  0
   18.2280  -53.8460   36.4030 C   0  0  0  0  0  0  0  0  0  0  0  0
   17.5400  -55.0510   36.2760 C   0  0  0  0  0  0  0  0  0  0  0  0
   16.5960  -55.4430   37.1840 C   0  0  0  0  0  0  0  0  0  0  0  0
   19.1770  -53.4770   35.4720 C   0  0  0  0  0  0  0  0  0  0  0  0
   19.8180  -52.2710   35.6600 C   0  0  0  0  0  0  0  0  0  0  0  0
   19.5010  -51.4850   36.7480 C   0  0  0  0  0  0  0  0  0  0  0  0
   18.5540  -51.8600   37.6730 C   0  0  0  0  0  0  0  0  0  0  0  0
   12.5770  -59.9070   34.4430 C   0  0  0  0  0  0  0  0  0  0  0  0
   12.5100  -57.5400   39.6680 H   0  0  0  0  0  0  0  0  0  0  0  0
   15.9150  -57.0030   37.3100 H   0  0  0  0  0  0  0  0  0  0  0  0
   14.3120  -56.3270   40.5700 H   0  0  0  0  0  0  0  0  0  0  0  0
   15.8780  -56.9150   39.9480 H   0  0  0  0  0  0  0  0  0  0  0  0
   16.7580  -52.7780   39.2490 H   0  0  0  0  0  0  0  0  0  0  0  0
   17.8030  -55.6670   35.4030 H   0  0  0  0  0  0  0  0  0  0  0  0
   16.0730  -56.3950   37.0510 H   0  0  0  0  0  0  0  0  0  0  0  0
   19.3870  -54.1300   34.6360 H   0  0  0  0  0  0  0  0  0  0  0  0
   20.5740  -51.9590   34.9340 H   0  0  0  0  0  0  0  0  0  0  0  0
   20.0150  -50.5410   36.8800 H   0  0  0  0  0  0  0  0  0  0  0  0
   18.3090  -51.2290   38.5340 H   0  0  0  0  0  0  0  0  0  0  0  0
   11.6130  -60.2490   34.0120 H   0  0  0  0  0  0  0  0  0  0  0  0
   13.2160  -60.8400   34.4850 H   0  0  0  0  0  0  0  0  0  0  0  0
   13.0300  -59.2580   33.7110 H   0  0  0  0  0  0  0  0  0  0  0  0
  1  2  1  0  0  0  0
  2  3  1  0  0  0  0
  2 10  2  0  0  0  0
  3  7  2  0  0  0  0
  4  5  1  0  0  0  0
  4  3  1  0  0  0  0
  5  6  2  0  0  0  0
  6  7  1  0  0  0  0
  7  8  1  0  0  0  0
  8 25  1  0  0  0  0
  9  8  1  0  0  0  0
  9 11  1  0  0  0  0
 10  9  1  0  0  0  0
 11 28  1  0  0  0  0
 11 27  1  0  0  0  0
 12 11  1  0  0  0  0
 12 13  2  0  0  0  0
 14 15  1  0  0  0  0
 14 12  1  0  0  0  0
 15 29  1  0  0  0  0
 16 23  1  0  0  0  0
 16 15  2  0  0  0  0
 17 16  1  0  0  0  0
 18 17  2  0  0  0  0
 18 19  1  0  0  0  0
 19 14  2  0  0  0  0
 20 21  2  0  0  0  0
 20 17  1  0  0  0  0
 21 22  1  0  0  0  0
 22 34  1  0  0  0  0
 22 23  2  0  0  0  0
 23 35  1  0  0  0  0
 24 37  1  0  0  0  0
 24  4  1  0  0  0  0
 26 10  1  0  0  0  0
 30 18  1  0  0  0  0
 31 19  1  0  0  0  0
 32 20  1  0  0  0  0
 33 21  1  0  0  0  0
 36 24  1  0  0  0  0
 38 24  1  0  0  0  0
M  END
>  <Pose>
1

>  <Score>
-6.57

$$$$
