
 OpenBabel03232204043D

 32 35  0  0  0  0  0  0  0  0999 V2000
   13.3720  -58.3350   34.0350 B   0  0  0  0  0  0  0  0  0  0  0  0
   13.2220  -58.3030   35.9350 C   0  0  0  0  0  0  0  0  0  0  0  0
   13.7780  -57.3890   36.8260 C   0  0  0  0  0  0  0  0  0  0  0  0
   13.4170  -57.7420   38.0760 N   0  0  0  0  0  0  0  0  0  0  0  0
   12.6630  -58.8380   37.9930 N   0  0  0  0  0  0  0  0  0  0  0  0
   12.5220  -59.2080   36.7050 C   0  0  0  0  0  0  0  0  0  0  0  0
   11.7740  -60.3570   36.1430 C   0  0  0  0  0  0  0  0  0  0  0  0
   13.7780  -57.0640   39.3110 C   0  0  0  0  0  0  0  0  0  0  0  0
   14.6750  -55.9030   39.0600 C   0  0  0  0  0  0  0  0  0  0  0  0
   14.7080  -54.7170   39.6910 N   0  0  0  0  0  0  0  0  0  0  0  0
   15.6650  -53.9310   39.1690 N   0  0  0  0  0  0  0  0  0  0  0  0
   16.2540  -54.6310   38.1830 C   0  0  0  0  0  0  0  0  0  0  0  0
   15.6450  -55.8300   38.1240 N   0  0  0  0  0  0  0  0  0  0  0  0
   17.2830  -54.0230   37.4890 C   0  0  0  0  0  0  0  0  0  0  0  0
   17.7090  -52.7410   37.7800 C   0  0  0  0  0  0  0  0  0  0  0  0
   18.7230  -52.3880   36.9600 N   0  0  0  0  0  0  0  0  0  0  0  0
   18.9270  -53.4260   36.1710 N   0  0  0  0  0  0  0  0  0  0  0  0
   18.0840  -54.4370   36.4520 C   0  0  0  0  0  0  0  0  0  0  0  0
   19.4280  -51.1080   36.9680 C   0  0  0  0  0  0  0  0  0  0  0  0
   17.0750  -52.1010   38.7770 N   0  0  0  0  0  0  0  0  0  0  0  0
   16.0740  -52.6820   39.4590 C   0  0  0  0  0  0  0  0  0  0  0  0
   14.3890  -56.5490   36.5160 H   0  0  0  0  0  0  0  0  0  0  0  0
   12.3750  -61.2900   36.1080 H   0  0  0  0  0  0  0  0  0  0  0  0
   11.4000  -60.1610   35.1260 H   0  0  0  0  0  0  0  0  0  0  0  0
   10.9220  -60.5460   36.8530 H   0  0  0  0  0  0  0  0  0  0  0  0
   14.2430  -57.7790   40.0430 H   0  0  0  0  0  0  0  0  0  0  0  0
   12.8280  -56.7340   39.8250 H   0  0  0  0  0  0  0  0  0  0  0  0
   17.9970  -55.4070   35.9950 H   0  0  0  0  0  0  0  0  0  0  0  0
   20.4470  -51.2120   36.5380 H   0  0  0  0  0  0  0  0  0  0  0  0
   19.6030  -50.7740   38.0310 H   0  0  0  0  0  0  0  0  0  0  0  0
   18.9030  -50.3310   36.4030 H   0  0  0  0  0  0  0  0  0  0  0  0
   15.5480  -52.1810   40.2670 H   0  0  0  0  0  0  0  0  0  0  0  0
  1  2  1  0  0  0  0
  2  6  1  0  0  0  0
  2  3  2  0  0  0  0
  3  4  1  0  0  0  0
  4  8  1  0  0  0  0
  5  4  1  0  0  0  0
  6  5  2  0  0  0  0
  7  6  1  0  0  0  0
  7 25  1  0  0  0  0
  8 27  1  0  0  0  0
  8 26  1  0  0  0  0
  9  8  1  0  0  0  0
  9 10  2  0  0  0  0
 11 21  1  0  0  0  0
 11 10  1  0  0  0  0
 12 11  1  0  0  0  0
 13 12  2  0  0  0  0
 13  9  1  0  0  0  0
 14 15  2  0  0  0  0
 14 12  1  0  0  0  0
 15 20  1  0  0  0  0
 16 19  1  0  0  0  0
 16 15  1  0  0  0  0
 17 18  2  0  0  0  0
 17 16  1  0  0  0  0
 18 14  1  0  0  0  0
 19 30  1  0  0  0  0
 20 21  2  0  0  0  0
 21 32  1  0  0  0  0
 22  3  1  0  0  0  0
 23  7  1  0  0  0  0
 24  7  1  0  0  0  0
 28 18  1  0  0  0  0
 29 19  1  0  0  0  0
 31 19  1  0  0  0  0
M  END
>  <Pose>
1

>  <Score>
-6.49

$$$$
