
 OpenBabel03232204043D

 56 58  0  0  1  0  0  0  0  0999 V2000
   16.7900  -61.4790   32.7160 B   0  0  0  0  0  0  0  0  0  0  0  0
   16.1040  -59.7680   33.1630 C   0  0  0  0  0  0  0  0  0  0  0  0
   16.9000  -58.6330   32.9790 C   0  0  0  0  0  0  0  0  0  0  0  0
   16.4320  -57.3780   33.2810 C   0  0  0  0  0  0  0  0  0  0  0  0
   15.1530  -57.2770   33.7720 C   0  0  0  0  0  0  0  0  0  0  0  0
   14.3380  -58.3910   33.9660 C   0  0  0  0  0  0  0  0  0  0  0  0
   14.8270  -59.6630   33.6510 C   0  0  0  0  0  0  0  0  0  0  0  0
   13.9640  -60.8600   33.8490 C   0  0  0  0  0  0  0  0  0  0  0  0
   12.9680  -58.2320   34.5200 C   0  0  0  0  0  0  0  0  0  0  0  0
   17.1950  -56.1120   33.0800 C   0  0  0  0  0  0  0  0  0  0  0  0
   18.6360  -56.3050   32.7210 C   0  0  2  0  0  0  0  0  0  0  0  0
   19.0620  -57.7000   33.1390 C   0  0  0  0  0  0  0  0  0  0  0  0
   18.2010  -58.6760   32.4960 O   0  0  0  0  0  0  0  0  0  0  0  0
   19.3850  -55.3580   33.5190 N   0  0  2  0  0  0  0  0  0  0  0  0
   18.9030  -55.2250   34.8530 C   0  0  0  0  0  0  0  0  0  0  0  0
   19.3670  -54.0020   35.5920 C   0  0  0  0  0  0  0  0  0  0  0  0
   19.4770  -52.8680   34.8340 O   0  0  0  0  0  0  0  0  0  0  0  0
   20.3580  -53.1390   33.7790 C   0  0  0  0  0  0  0  0  0  0  0  0
   19.5480  -54.0940   32.8640 C   0  0  0  0  0  0  0  0  0  0  0  0
   18.9630  -56.2320   31.2780 C   0  0  0  0  0  0  0  0  0  0  0  0
   20.2580  -56.2040   30.7730 N   0  0  0  0  0  0  0  0  0  0  0  0
   20.5380  -57.4890   30.0440 C   0  0  0  0  0  0  0  0  0  0  0  0
   19.5290  -57.7360   28.9850 C   0  0  0  0  0  0  0  0  0  0  0  0
   19.0110  -56.6100   28.4040 O   0  0  0  0  0  0  0  0  0  0  0  0
   19.7950  -55.4940   28.4550 C   0  0  0  0  0  0  0  0  0  0  0  0
   20.5790  -55.2730   29.7080 C   0  0  0  0  0  0  0  0  0  0  0  0
   17.0890  -55.3670   34.2960 O   0  0  0  0  0  0  0  0  0  0  0  0
   14.6840  -56.3180   34.0470 H   0  0  0  0  0  0  0  0  0  0  0  0
   13.6760  -61.0480   34.8860 H   0  0  0  0  0  0  0  0  0  0  0  0
   14.5260  -61.7590   33.5010 H   0  0  0  0  0  0  0  0  0  0  0  0
   13.0660  -60.6830   33.1880 H   0  0  0  0  0  0  0  0  0  0  0  0
   13.0830  -57.9780   35.6130 H   0  0  0  0  0  0  0  0  0  0  0  0
   12.3850  -57.4290   34.0510 H   0  0  0  0  0  0  0  0  0  0  0  0
   12.4570  -59.2210   34.4690 H   0  0  0  0  0  0  0  0  0  0  0  0
   16.6000  -55.5380   32.3710 H   0  0  0  0  0  0  0  0  0  0  0  0
   19.0390  -57.9020   34.2000 H   0  0  0  0  0  0  0  0  0  0  0  0
   20.0600  -57.8780   32.6660 H   0  0  0  0  0  0  0  0  0  0  0  0
   19.2620  -56.0870   35.4480 H   0  0  0  0  0  0  0  0  0  0  0  0
   17.8020  -55.1350   34.7900 H   0  0  0  0  0  0  0  0  0  0  0  0
   20.2840  -54.1790   36.1900 H   0  0  0  0  0  0  0  0  0  0  0  0
   18.5870  -53.7750   36.3700 H   0  0  0  0  0  0  0  0  0  0  0  0
   20.5070  -52.2180   33.2110 H   0  0  0  0  0  0  0  0  0  0  0  0
   21.2740  -53.6450   34.1310 H   0  0  0  0  0  0  0  0  0  0  0  0
   18.5680  -53.5620   32.7800 H   0  0  0  0  0  0  0  0  0  0  0  0
   20.1240  -54.1390   31.9410 H   0  0  0  0  0  0  0  0  0  0  0  0
   18.4810  -55.2220   30.9670 H   0  0  0  0  0  0  0  0  0  0  0  0
   18.3180  -56.9450   30.7010 H   0  0  0  0  0  0  0  0  0  0  0  0
   20.6330  -58.3070   30.7810 H   0  0  0  0  0  0  0  0  0  0  0  0
   21.5390  -57.3680   29.5890 H   0  0  0  0  0  0  0  0  0  0  0  0
   19.9280  -58.4310   28.1880 H   0  0  0  0  0  0  0  0  0  0  0  0
   18.6810  -58.2920   29.4580 H   0  0  0  0  0  0  0  0  0  0  0  0
   19.1370  -54.6170   28.3110 H   0  0  0  0  0  0  0  0  0  0  0  0
   20.4550  -55.5370   27.5420 H   0  0  0  0  0  0  0  0  0  0  0  0
   21.6490  -55.6040   29.4170 H   0  0  0  0  0  0  0  0  0  0  0  0
   20.7360  -54.2430   29.9810 H   0  0  0  0  0  0  0  0  0  0  0  0
   16.3620  -54.7100   34.1640 H   0  0  0  0  0  0  0  0  0  0  0  0
  1  2  1  0  0  0  0
  2  7  1  0  0  0  0
  3  2  2  0  0  0  0
  3  4  1  0  0  0  0
  4  5  2  0  0  0  0
  5  6  1  0  0  0  0
  5 28  1  0  0  0  0
  6  9  1  0  0  0  0
  7  8  1  0  0  0  0
  7  6  2  0  0  0  0
  8 29  1  0  0  0  0
  9 32  1  0  0  0  0
 10  4  1  0  0  0  0
 11 20  1  6  0  0  0
 11 10  1  0  0  0  0
 11 12  1  0  0  0  0
 11 14  1  0  0  0  0
 12 36  1  0  0  0  0
 13  3  1  0  0  0  0
 13 12  1  0  0  0  0
 14 15  1  1  0  0  0
 15 38  1  0  0  0  0
 15 16  1  0  0  0  0
 16 40  1  0  0  0  0
 16 41  1  0  0  0  0
 17 16  1  0  0  0  0
 18 43  1  0  0  0  0
 18 17  1  0  0  0  0
 19 14  1  0  0  0  0
 19 18  1  0  0  0  0
 21 20  1  0  0  0  0
 22 21  1  0  0  0  0
 22 48  1  0  0  0  0
 23 51  1  0  0  0  0
 23 22  1  0  0  0  0
 24 25  1  0  0  0  0
 24 23  1  0  0  0  0
 25 26  1  0  0  0  0
 26 55  1  0  0  0  0
 26 21  1  0  0  0  0
 27 39  1  0  0  0  0
 30  8  1  0  0  0  0
 31  8  1  0  0  0  0
 33  9  1  0  0  0  0
 34  9  1  0  0  0  0
 35 10  1  0  0  0  0
 37 12  1  0  0  0  0
 42 18  1  0  0  0  0
 44 19  1  0  0  0  0
 45 19  1  0  0  0  0
 46 20  1  0  0  0  0
 47 20  1  0  0  0  0
 49 22  1  0  0  0  0
 50 23  1  0  0  0  0
 52 25  1  0  0  0  0
 53 25  1  0  0  0  0
 54 26  1  0  0  0  0
 56 27  1  0  0  0  0
M  END
>  <Pose>
1

>  <Score>
-4.35

$$$$
