
 OpenBabel03232204043D

 45 48  0  0  0  0  0  0  0  0999 V2000
   13.5280  -59.0510   33.9300 B   0  0  0  0  0  0  0  0  0  0  0  0
   13.7510  -58.6020   35.7740 C   0  0  0  0  0  0  0  0  0  0  0  0
   12.8160  -58.8940   36.7350 C   0  0  0  0  0  0  0  0  0  0  0  0
   13.3110  -58.4270   37.9250 C   0  0  0  0  0  0  0  0  0  0  0  0
   14.5330  -57.8550   37.7070 N   0  0  0  0  0  0  0  0  0  0  0  0
   14.7960  -57.9650   36.3840 C   0  0  0  0  0  0  0  0  0  0  0  0
   16.0210  -57.4690   35.7170 C   0  0  0  0  0  0  0  0  0  0  0  0
   15.3050  -57.2550   38.7380 C   0  0  0  0  0  0  0  0  0  0  0  0
   15.1650  -55.8390   39.0170 C   0  0  0  0  0  0  0  0  0  0  0  0
   13.9050  -55.4350   38.8930 O   0  0  0  0  0  0  0  0  0  0  0  0
   16.0540  -54.8390   39.3760 N   0  0  0  0  0  0  0  0  0  0  0  0
   17.4170  -54.9690   39.7490 C   0  0  0  0  0  0  0  0  0  0  0  0
   18.3140  -54.4280   38.6360 C   0  0  0  0  0  0  0  0  0  0  0  0
   17.6140  -53.2780   37.9310 C   0  0  0  0  0  0  0  0  0  0  0  0
   18.6660  -52.3480   37.5580 N   0  0  0  0  0  0  0  0  0  0  0  0
   19.1190  -52.7520   36.2500 C   0  0  0  0  0  0  0  0  0  0  0  0
   20.2060  -52.4250   35.7110 O   0  0  0  0  0  0  0  0  0  0  0  0
   18.0960  -53.5940   35.6870 N   0  0  0  0  0  0  0  0  0  0  0  0
   17.0420  -53.7000   36.6360 C   0  0  0  0  0  0  0  0  0  0  0  0
   15.8750  -54.0790   36.3810 O   0  0  0  0  0  0  0  0  0  0  0  0
   16.6430  -52.5630   38.8170 C   0  0  0  0  0  0  0  0  0  0  0  0
   15.5680  -53.4370   39.3780 C   0  0  0  0  0  0  0  0  0  0  0  0
   12.5610  -58.5910   39.0900 C   0  0  0  0  0  0  0  0  0  0  0  0
   11.3240  -59.2210   39.0520 C   0  0  0  0  0  0  0  0  0  0  0  0
   10.8470  -59.6790   37.8550 C   0  0  0  0  0  0  0  0  0  0  0  0
   11.5800  -59.5210   36.7010 C   0  0  0  0  0  0  0  0  0  0  0  0
   16.3710  -58.1670   34.9220 H   0  0  0  0  0  0  0  0  0  0  0  0
   15.7720  -56.5050   35.2130 H   0  0  0  0  0  0  0  0  0  0  0  0
   16.8530  -57.3070   36.4450 H   0  0  0  0  0  0  0  0  0  0  0  0
   16.4030  -57.4870   38.5210 H   0  0  0  0  0  0  0  0  0  0  0  0
   15.1380  -57.8710   39.6800 H   0  0  0  0  0  0  0  0  0  0  0  0
   17.7770  -55.9100   40.1240 H   0  0  0  0  0  0  0  0  0  0  0  0
   17.5770  -54.2460   40.6230 H   0  0  0  0  0  0  0  0  0  0  0  0
   19.2550  -54.1040   39.1280 H   0  0  0  0  0  0  0  0  0  0  0  0
   18.5550  -55.2440   37.9550 H   0  0  0  0  0  0  0  0  0  0  0  0
   19.0310  -51.5470   38.1140 H   0  0  0  0  0  0  0  0  0  0  0  0
   18.1270  -54.0390   34.7590 H   0  0  0  0  0  0  0  0  0  0  0  0
   17.2370  -52.0310   39.5970 H   0  0  0  0  0  0  0  0  0  0  0  0
   16.1710  -51.7600   38.1950 H   0  0  0  0  0  0  0  0  0  0  0  0
   14.5850  -53.3420   38.9230 H   0  0  0  0  0  0  0  0  0  0  0  0
   15.4780  -53.1840   40.4750 H   0  0  0  0  0  0  0  0  0  0  0  0
   12.9740  -58.2130   40.0180 H   0  0  0  0  0  0  0  0  0  0  0  0
   10.7690  -59.3280   39.9830 H   0  0  0  0  0  0  0  0  0  0  0  0
    9.8930  -60.1640   37.8260 H   0  0  0  0  0  0  0  0  0  0  0  0
   11.2300  -59.8730   35.7460 H   0  0  0  0  0  0  0  0  0  0  0  0
  1  2  1  0  0  0  0
  2  6  2  0  0  0  0
  2  3  1  0  0  0  0
  3  4  1  0  0  0  0
  4 23  2  0  0  0  0
  5  4  1  0  0  0  0
  5  8  1  0  0  0  0
  6  5  1  0  0  0  0
  7  6  1  0  0  0  0
  7 29  1  0  0  0  0
  8  9  1  0  0  0  0
  8 31  1  0  0  0  0
  9 11  1  0  0  0  0
 10  9  2  0  0  0  0
 11 22  1  0  0  0  0
 11 12  1  0  0  0  0
 12 32  1  0  0  0  0
 12 33  1  0  0  0  0
 13 34  1  0  0  0  0
 13 12  1  0  0  0  0
 14 13  1  0  0  0  0
 14 21  1  0  0  0  0
 15 14  1  0  0  0  0
 15 36  1  0  0  0  0
 16 15  1  0  0  0  0
 17 16  2  0  0  0  0
 18 16  1  0  0  0  0
 18 19  1  0  0  0  0
 19 14  1  0  0  0  0
 20 19  2  0  0  0  0
 21 22  1  0  0  0  0
 21 38  1  0  0  0  0
 22 41  1  0  0  0  0
 23 42  1  0  0  0  0
 24 23  1  0  0  0  0
 24 43  1  0  0  0  0
 25 24  2  0  0  0  0
 26  3  2  0  0  0  0
 26 25  1  0  0  0  0
 27  7  1  0  0  0  0
 28  7  1  0  0  0  0
 30  8  1  0  0  0  0
 35 13  1  0  0  0  0
 37 18  1  0  0  0  0
 39 21  1  0  0  0  0
 40 22  1  0  0  0  0
 44 25  1  0  0  0  0
 45 26  1  0  0  0  0
M  END
>  <Pose>
1

>  <Score>
-5.95

$$$$
