
 OpenBabel03232204043D

 46 49  0  0  0  0  0  0  0  0999 V2000
   16.6670  -57.7340   35.5990 B   0  0  0  0  0  0  0  0  0  0  0  0
   16.3500  -56.3190   36.8410 C   0  0  0  0  0  0  0  0  0  0  0  0
   15.5930  -56.4670   37.9560 N   0  0  0  0  0  0  0  0  0  0  0  0
   15.6190  -55.2550   38.5540 C   0  0  0  0  0  0  0  0  0  0  0  0
   16.3780  -54.3620   37.8270 C   0  0  0  0  0  0  0  0  0  0  0  0
   16.8240  -55.0630   36.7580 N   0  0  0  0  0  0  0  0  0  0  0  0
   16.5630  -53.0790   38.2130 N   0  0  0  0  0  0  0  0  0  0  0  0
   15.9730  -52.6770   39.3530 C   0  0  0  0  0  0  0  0  0  0  0  0
   16.1000  -51.4960   39.7750 O   0  0  0  0  0  0  0  0  0  0  0  0
   15.2160  -53.5290   40.0960 N   0  0  0  0  0  0  0  0  0  0  0  0
   15.0270  -54.8020   39.7210 C   0  0  0  0  0  0  0  0  0  0  0  0
   14.3410  -55.6230   40.3700 O   0  0  0  0  0  0  0  0  0  0  0  0
   17.3660  -52.1540   37.4360 C   0  0  0  0  0  0  0  0  0  0  0  0
   14.8990  -57.6400   38.4310 C   0  0  0  0  0  0  0  0  0  0  0  0
   13.4760  -57.7000   37.8920 C   0  0  0  0  0  0  0  0  0  0  0  0
   13.1760  -59.0550   37.3070 C   0  0  0  0  0  0  0  0  0  0  0  0
   11.7660  -59.2340   36.8290 C   0  0  0  0  0  0  0  0  0  0  0  0
   11.5220  -60.5980   36.4970 N   0  0  0  0  0  0  0  0  0  0  0  0
   11.6340  -61.2470   35.3390 C   0  0  0  0  0  0  0  0  0  0  0  0
   11.3150  -62.5850   35.5430 C   0  0  0  0  0  0  0  0  0  0  0  0
   11.0190  -62.6920   36.8350 N   0  0  0  0  0  0  0  0  0  0  0  0
   11.1350  -61.5040   37.4300 C   0  0  0  0  0  0  0  0  0  0  0  0
   10.8030  -61.1970   39.2820 B   0  0  0  0  0  0  0  0  0  0  0  0
   11.3450  -63.4570   34.5310 N   0  0  0  0  0  0  0  0  0  0  0  0
   11.6820  -63.0650   33.2880 C   0  0  0  0  0  0  0  0  0  0  0  0
   11.7080  -63.8920   32.3420 O   0  0  0  0  0  0  0  0  0  0  0  0
   11.9890  -61.7810   33.0770 N   0  0  0  0  0  0  0  0  0  0  0  0
   11.9720  -60.8740   34.0650 C   0  0  0  0  0  0  0  0  0  0  0  0
   12.2590  -59.6790   33.8490 O   0  0  0  0  0  0  0  0  0  0  0  0
   11.0160  -64.8670   34.7180 C   0  0  0  0  0  0  0  0  0  0  0  0
   14.7720  -53.1780   40.9780 H   0  0  0  0  0  0  0  0  0  0  0  0
   18.0690  -52.6870   36.7630 H   0  0  0  0  0  0  0  0  0  0  0  0
   16.6980  -51.5510   36.7580 H   0  0  0  0  0  0  0  0  0  0  0  0
   17.9890  -51.4900   38.0710 H   0  0  0  0  0  0  0  0  0  0  0  0
   14.9360  -57.7290   39.5140 H   0  0  0  0  0  0  0  0  0  0  0  0
   15.4270  -58.5210   37.9850 H   0  0  0  0  0  0  0  0  0  0  0  0
   12.7460  -57.5860   38.7480 H   0  0  0  0  0  0  0  0  0  0  0  0
   13.2690  -56.9030   37.1680 H   0  0  0  0  0  0  0  0  0  0  0  0
   13.9260  -59.2930   36.5220 H   0  0  0  0  0  0  0  0  0  0  0  0
   13.3330  -59.8700   38.0750 H   0  0  0  0  0  0  0  0  0  0  0  0
   11.1030  -58.8810   37.6580 H   0  0  0  0  0  0  0  0  0  0  0  0
   11.5890  -58.5300   35.9940 H   0  0  0  0  0  0  0  0  0  0  0  0
   12.2600  -61.4310   32.1140 H   0  0  0  0  0  0  0  0  0  0  0  0
   10.9350  -65.0470   35.8120 H   0  0  0  0  0  0  0  0  0  0  0  0
   11.8800  -65.4390   34.3090 H   0  0  0  0  0  0  0  0  0  0  0  0
   10.0850  -65.1420   34.1950 H   0  0  0  0  0  0  0  0  0  0  0  0
  1  2  1  0  0  0  0
  2  3  1  0  0  0  0
  3 14  1  0  0  0  0
  3  4  1  0  0  0  0
  4 11  1  0  0  0  0
  5  7  1  0  0  0  0
  5  4  2  0  0  0  0
  6  2  2  0  0  0  0
  6  5  1  0  0  0  0
  7  8  1  0  0  0  0
  8  9  2  0  0  0  0
  8 10  1  0  0  0  0
 10 31  1  0  0  0  0
 11 10  1  0  0  0  0
 11 12  2  0  0  0  0
 13 34  1  0  0  0  0
 13  7  1  0  0  0  0
 14 35  1  0  0  0  0
 15 14  1  0  0  0  0
 15 37  1  0  0  0  0
 16 15  1  0  0  0  0
 16 40  1  0  0  0  0
 17 16  1  0  0  0  0
 17 41  1  0  0  0  0
 18 17  1  0  0  0  0
 18 22  1  0  0  0  0
 19 20  2  0  0  0  0
 19 18  1  0  0  0  0
 20 21  1  0  0  0  0
 21 22  2  0  0  0  0
 22 23  1  0  0  0  0
 24 30  1  0  0  0  0
 24 20  1  0  0  0  0
 25 24  1  0  0  0  0
 26 25  2  0  0  0  0
 27 25  1  0  0  0  0
 27 28  1  0  0  0  0
 28 19  1  0  0  0  0
 29 28  2  0  0  0  0
 30 44  1  0  0  0  0
 32 13  1  0  0  0  0
 33 13  1  0  0  0  0
 36 14  1  0  0  0  0
 38 15  1  0  0  0  0
 39 16  1  0  0  0  0
 42 17  1  0  0  0  0
 43 27  1  0  0  0  0
 45 30  1  0  0  0  0
 46 30  1  0  0  0  0
M  END
>  <Pose>
1

>  <Score>
-8.55

$$$$
