
 OpenBabel03232204043D

 47 50  0  0  0  0  0  0  0  0999 V2000
   15.5170  -53.4950   39.5760 B   0  0  0  0  0  0  0  0  0  0  0  0
   16.9980  -53.1760   38.4090 C   0  0  0  0  0  0  0  0  0  0  0  0
   17.6710  -54.0750   37.6940 N   0  0  0  0  0  0  0  0  0  0  0  0
   18.5960  -53.3690   36.9850 C   0  0  0  0  0  0  0  0  0  0  0  0
   18.4450  -52.0390   37.3100 C   0  0  0  0  0  0  0  0  0  0  0  0
   17.4580  -51.9230   38.1890 N   0  0  0  0  0  0  0  0  0  0  0  0
   19.2600  -51.1190   36.7230 N   0  0  0  0  0  0  0  0  0  0  0  0
   20.1770  -51.5330   35.8510 C   0  0  0  0  0  0  0  0  0  0  0  0
   20.9200  -50.6550   35.3230 O   0  0  0  0  0  0  0  0  0  0  0  0
   20.3320  -52.8260   35.5280 N   0  0  0  0  0  0  0  0  0  0  0  0
   19.5480  -53.7950   36.0810 C   0  0  0  0  0  0  0  0  0  0  0  0
   19.7000  -55.0020   35.7690 O   0  0  0  0  0  0  0  0  0  0  0  0
   19.1330  -49.7110   37.0390 C   0  0  0  0  0  0  0  0  0  0  0  0
   17.5630  -55.4930   37.6210 C   0  0  0  0  0  0  0  0  0  0  0  0
   16.4390  -56.0740   36.8670 C   0  0  0  0  0  0  0  0  0  0  0  0
   16.2680  -57.4120   36.7320 O   0  0  0  0  0  0  0  0  0  0  0  0
   15.9570  -57.7550   35.4270 C   0  0  0  0  0  0  0  0  0  0  0  0
   14.4980  -57.5030   35.1880 C   0  0  0  0  0  0  0  0  0  0  0  0
   13.6850  -58.5930   35.6260 N   0  0  0  0  0  0  0  0  0  0  0  0
   12.9760  -58.6350   36.7620 C   0  0  0  0  0  0  0  0  0  0  0  0
   12.3470  -59.8400   36.8150 C   0  0  0  0  0  0  0  0  0  0  0  0
   12.6890  -60.5010   35.7120 N   0  0  0  0  0  0  0  0  0  0  0  0
   13.5140  -59.7630   34.9520 C   0  0  0  0  0  0  0  0  0  0  0  0
   14.3180  -60.1820   33.2840 B   0  0  0  0  0  0  0  0  0  0  0  0
   11.5600  -60.1440   37.8610 N   0  0  0  0  0  0  0  0  0  0  0  0
   11.4060  -59.2510   38.8360 C   0  0  0  0  0  0  0  0  0  0  0  0
   10.6650  -59.5490   39.8100 O   0  0  0  0  0  0  0  0  0  0  0  0
   12.0100  -58.0700   38.8030 N   0  0  0  0  0  0  0  0  0  0  0  0
   12.8020  -57.7240   37.7850 C   0  0  0  0  0  0  0  0  0  0  0  0
   13.3620  -56.5820   37.7910 O   0  0  0  0  0  0  0  0  0  0  0  0
   10.8830  -61.4210   37.9350 C   0  0  0  0  0  0  0  0  0  0  0  0
   21.0550  -53.1360   34.8430 H   0  0  0  0  0  0  0  0  0  0  0  0
   18.0610  -49.4460   37.1830 H   0  0  0  0  0  0  0  0  0  0  0  0
   19.5260  -49.0810   36.2340 H   0  0  0  0  0  0  0  0  0  0  0  0
   19.7110  -49.4630   37.9650 H   0  0  0  0  0  0  0  0  0  0  0  0
   18.5160  -55.8400   37.1110 H   0  0  0  0  0  0  0  0  0  0  0  0
   17.6790  -55.9730   38.6470 H   0  0  0  0  0  0  0  0  0  0  0  0
   15.4370  -55.6980   37.3030 H   0  0  0  0  0  0  0  0  0  0  0  0
   16.3720  -55.5640   35.8320 H   0  0  0  0  0  0  0  0  0  0  0  0
   16.1360  -58.8770   35.3230 H   0  0  0  0  0  0  0  0  0  0  0  0
   16.6480  -57.2810   34.7490 H   0  0  0  0  0  0  0  0  0  0  0  0
   14.2460  -56.5430   35.7190 H   0  0  0  0  0  0  0  0  0  0  0  0
   14.3910  -57.3160   34.0920 H   0  0  0  0  0  0  0  0  0  0  0  0
   11.8770  -57.3840   39.5780 H   0  0  0  0  0  0  0  0  0  0  0  0
    9.8800  -61.3070   37.4970 H   0  0  0  0  0  0  0  0  0  0  0  0
   11.4620  -62.1890   37.3920 H   0  0  0  0  0  0  0  0  0  0  0  0
   10.8480  -61.6890   39.0260 H   0  0  0  0  0  0  0  0  0  0  0  0
  2  1  1  0  0  0  0
  3  2  1  0  0  0  0
  4  5  2  0  0  0  0
  4  3  1  0  0  0  0
  5  6  1  0  0  0  0
  6  2  2  0  0  0  0
  7 13  1  0  0  0  0
  7  5  1  0  0  0  0
  8  7  1  0  0  0  0
  9  8  2  0  0  0  0
 10  8  1  0  0  0  0
 10 11  1  0  0  0  0
 11  4  1  0  0  0  0
 12 11  2  0  0  0  0
 13 33  1  0  0  0  0
 13 35  1  0  0  0  0
 14  3  1  0  0  0  0
 14 37  1  0  0  0  0
 15 38  1  0  0  0  0
 15 14  1  0  0  0  0
 16 15  1  0  0  0  0
 17 16  1  0  0  0  0
 18 17  1  0  0  0  0
 18 19  1  0  0  0  0
 18 42  1  0  0  0  0
 19 20  1  0  0  0  0
 20 21  2  0  0  0  0
 20 29  1  0  0  0  0
 21 25  1  0  0  0  0
 22 21  1  0  0  0  0
 23 19  1  0  0  0  0
 23 22  2  0  0  0  0
 24 23  1  0  0  0  0
 25 31  1  0  0  0  0
 25 26  1  0  0  0  0
 26 27  2  0  0  0  0
 28 26  1  0  0  0  0
 28 44  1  0  0  0  0
 29 30  2  0  0  0  0
 29 28  1  0  0  0  0
 31 47  1  0  0  0  0
 32 10  1  0  0  0  0
 34 13  1  0  0  0  0
 36 14  1  0  0  0  0
 39 15  1  0  0  0  0
 40 17  1  0  0  0  0
 41 17  1  0  0  0  0
 43 18  1  0  0  0  0
 45 31  1  0  0  0  0
 46 31  1  0  0  0  0
M  END
>  <Pose>
1

>  <Score>
-7.89

$$$$
