
 OpenBabel03232204043D

 51 54  0  0  0  0  0  0  0  0999 V2000
   17.0650  -59.5710   33.1780 Cl  0  0  0  0  0  0  0  0  0  0  0  0
   17.2650  -59.9520   31.4830 C   0  0  0  0  0  0  0  0  0  0  0  0
   18.2220  -59.3130   30.7530 C   0  0  0  0  0  0  0  0  0  0  0  0
   18.3350  -59.6520   29.4230 C   0  0  0  0  0  0  0  0  0  0  0  0
   17.5280  -60.5920   28.8360 C   0  0  0  0  0  0  0  0  0  0  0  0
   16.5630  -61.2320   29.5840 C   0  0  0  0  0  0  0  0  0  0  0  0
   16.4440  -60.8980   30.9140 C   0  0  0  0  0  0  0  0  0  0  0  0
   19.1320  -58.2920   31.3050 C   0  0  0  0  0  0  0  0  0  0  0  0
   18.6710  -56.9550   31.1610 N   0  0  0  0  0  0  0  0  0  0  0  0
   18.4340  -56.3170   30.0220 N   0  0  0  0  0  0  0  0  0  0  0  0
   18.0190  -55.0810   30.2390 C   0  0  0  0  0  0  0  0  0  0  0  0
   17.9890  -54.9200   31.6320 C   0  0  0  0  0  0  0  0  0  0  0  0
   18.4020  -56.1050   32.1980 C   0  0  0  0  0  0  0  0  0  0  0  0
   18.4680  -56.4000   33.5540 N   0  0  0  0  0  0  0  0  0  0  0  0
   17.7680  -56.1320   34.6870 C   0  0  0  0  0  0  0  0  0  0  0  0
   17.2710  -57.3230   35.1610 O   0  0  0  0  0  0  0  0  0  0  0  0
   17.3680  -55.0450   35.5640 C   0  0  0  0  0  0  0  0  0  0  0  0
   18.2140  -54.1010   36.1580 N   0  0  0  0  0  0  0  0  0  0  0  0
   19.6890  -54.1110   35.9730 C   0  0  0  0  0  0  0  0  0  0  0  0
   20.2130  -53.1790   37.0460 C   0  0  0  0  0  0  0  0  0  0  0  0
   19.7090  -51.7880   36.7630 C   0  0  0  0  0  0  0  0  0  0  0  0
   18.2120  -51.7410   36.9860 C   0  0  0  0  0  0  0  0  0  0  0  0
   17.6660  -53.1280   37.0590 C   0  0  0  0  0  0  0  0  0  0  0  0
   16.7770  -53.4510   38.0000 C   0  0  0  0  0  0  0  0  0  0  0  0
   16.2310  -52.4590   38.8860 N   0  0  0  0  0  0  0  0  0  0  0  0
   15.3760  -53.0810   39.8130 N   0  0  0  0  0  0  0  0  0  0  0  0
   15.3640  -54.4640   39.5350 C   0  0  0  0  0  0  0  0  0  0  0  0
   14.7410  -55.3860   40.1090 O   0  0  0  0  0  0  0  0  0  0  0  0
   16.2390  -54.6670   38.4110 N   0  0  0  0  0  0  0  0  0  0  0  0
   19.0800  -59.1700   28.8090 H   0  0  0  0  0  0  0  0  0  0  0  0
   17.6370  -60.8390   27.7910 H   0  0  0  0  0  0  0  0  0  0  0  0
   15.9270  -61.9740   29.1160 H   0  0  0  0  0  0  0  0  0  0  0  0
   15.6910  -61.3990   31.4960 H   0  0  0  0  0  0  0  0  0  0  0  0
   20.1710  -58.4690   30.9270 H   0  0  0  0  0  0  0  0  0  0  0  0
   19.2140  -58.5270   32.4090 H   0  0  0  0  0  0  0  0  0  0  0  0
   17.7400  -54.2950   29.5400 H   0  0  0  0  0  0  0  0  0  0  0  0
   17.6790  -54.0190   32.1180 H   0  0  0  0  0  0  0  0  0  0  0  0
   19.3040  -57.1290   33.7400 H   0  0  0  0  0  0  0  0  0  0  0  0
   16.6220  -54.4760   34.8620 H   0  0  0  0  0  0  0  0  0  0  0  0
   16.6690  -55.4690   36.3970 H   0  0  0  0  0  0  0  0  0  0  0  0
   20.0750  -55.1160   36.2710 H   0  0  0  0  0  0  0  0  0  0  0  0
   20.0250  -53.7670   35.0200 H   0  0  0  0  0  0  0  0  0  0  0  0
   21.3420  -53.1730   37.0120 H   0  0  0  0  0  0  0  0  0  0  0  0
   19.9070  -53.5010   38.0620 H   0  0  0  0  0  0  0  0  0  0  0  0
   20.2140  -51.0510   37.4370 H   0  0  0  0  0  0  0  0  0  0  0  0
   19.9720  -51.5280   35.7260 H   0  0  0  0  0  0  0  0  0  0  0  0
   17.9680  -51.1390   37.8910 H   0  0  0  0  0  0  0  0  0  0  0  0
   17.7400  -51.2210   36.1470 H   0  0  0  0  0  0  0  0  0  0  0  0
   16.3650  -51.4300   38.9310 H   0  0  0  0  0  0  0  0  0  0  0  0
   14.8270  -52.6310   40.5870 H   0  0  0  0  0  0  0  0  0  0  0  0
   16.4440  -55.5920   38.0000 H   0  0  0  0  0  0  0  0  0  0  0  0
  2  1  1  0  0  0  0
  3  8  1  0  0  0  0
  3  2  2  0  0  0  0
  4  3  1  0  0  0  0
  5  4  2  0  0  0  0
  5  6  1  0  0  0  0
  6  7  2  0  0  0  0
  7  2  1  0  0  0  0
  7 33  1  0  0  0  0
  8 35  1  0  0  0  0
  9  8  1  0  0  0  0
  9 13  1  0  0  0  0
 10 11  2  0  0  0  0
 10  9  1  0  0  0  0
 11 12  1  0  0  0  0
 12 37  1  0  0  0  0
 12 13  2  0  0  0  0
 13 14  1  0  0  0  0
 14 38  1  0  0  0  0
 14 15  1  0  0  0  0
 15 16  2  0  0  0  0
 15 17  1  0  0  0  0
 17 18  1  0  0  0  0
 17 40  1  0  0  0  0
 18 23  1  0  0  0  0
 19 18  1  0  0  0  0
 19 41  1  0  0  0  0
 19 20  1  0  0  0  0
 20 44  1  0  0  0  0
 21 22  1  0  0  0  0
 21 20  1  0  0  0  0
 21 45  1  0  0  0  0
 22 23  1  0  0  0  0
 22 47  1  0  0  0  0
 23 24  2  0  0  0  0
 24 29  1  0  0  0  0
 24 25  1  0  0  0  0
 25 49  1  0  0  0  0
 25 26  1  0  0  0  0
 26 50  1  0  0  0  0
 27 26  1  0  0  0  0
 27 28  2  0  0  0  0
 29 27  1  0  0  0  0
 30  4  1  0  0  0  0
 31  5  1  0  0  0  0
 32  6  1  0  0  0  0
 34  8  1  0  0  0  0
 36 11  1  0  0  0  0
 39 17  1  0  0  0  0
 42 19  1  0  0  0  0
 43 20  1  0  0  0  0
 46 21  1  0  0  0  0
 48 22  1  0  0  0  0
 51 29  1  0  0  0  0
M  END
>  <Pose>
1

>  <Score>
-7.35

$$$$
