
 OpenBabel03232204043D

 50 53  0  0  0  0  0  0  0  0999 V2000
    9.6640  -59.9600   40.8660 B   0  0  0  0  0  0  0  0  0  0  0  0
   10.7080  -60.2400   39.3100 C   0  0  0  0  0  0  0  0  0  0  0  0
   10.4080  -61.2670   38.4630 C   0  0  0  0  0  0  0  0  0  0  0  0
   11.1950  -61.4490   37.3280 C   0  0  0  0  0  0  0  0  0  0  0  0
   12.2590  -60.5870   37.0840 C   0  0  0  0  0  0  0  0  0  0  0  0
   12.5660  -59.5540   37.9290 C   0  0  0  0  0  0  0  0  0  0  0  0
   11.7810  -59.3870   39.0470 C   0  0  0  0  0  0  0  0  0  0  0  0
   12.1000  -58.3380   39.8950 O   0  0  0  0  0  0  0  0  0  0  0  0
   13.6840  -58.6640   37.6560 C   0  0  0  0  0  0  0  0  0  0  0  0
   14.4240  -58.1490   38.5720 N   0  0  0  0  0  0  0  0  0  0  0  0
   15.5050  -57.2830   38.1940 N   0  0  0  0  0  0  0  0  0  0  0  0
   15.2390  -55.9210   38.1470 C   0  0  0  0  0  0  0  0  0  0  0  0
   14.0030  -55.5810   38.0200 O   0  0  0  0  0  0  0  0  0  0  0  0
   16.1640  -54.8060   38.2200 C   0  0  0  0  0  0  0  0  0  0  0  0
   16.4140  -54.0570   39.3420 N   0  0  0  0  0  0  0  0  0  0  0  0
   17.2990  -53.1410   39.0630 N   0  0  0  0  0  0  0  0  0  0  0  0
   17.6810  -53.2070   37.7990 N   0  0  0  0  0  0  0  0  0  0  0  0
   16.9970  -54.2280   37.2560 C   0  0  0  0  0  0  0  0  0  0  0  0
   17.0480  -54.6800   35.8620 C   0  0  0  0  0  0  0  0  0  0  0  0
   17.5460  -56.0470   35.6890 N   0  0  0  0  0  0  0  0  0  0  0  0
   18.4900  -56.0610   34.5540 C   0  0  0  0  0  0  0  0  0  0  0  0
   17.9010  -55.3280   33.3990 C   0  0  0  0  0  0  0  0  0  0  0  0
   16.6650  -55.8470   33.1040 O   0  0  0  0  0  0  0  0  0  0  0  0
   16.3620  -57.0040   33.7730 C   0  0  0  0  0  0  0  0  0  0  0  0
   16.4060  -56.9000   35.2750 C   0  0  0  0  0  0  0  0  0  0  0  0
   18.6080  -52.3170   37.2030 C   0  0  0  0  0  0  0  0  0  0  0  0
   18.6380  -50.9680   37.2280 N   0  0  0  0  0  0  0  0  0  0  0  0
   19.6740  -50.5360   36.5570 O   0  0  0  0  0  0  0  0  0  0  0  0
   20.3560  -51.5430   36.0730 N   0  0  0  0  0  0  0  0  0  0  0  0
   19.7230  -52.6650   36.4550 C   0  0  0  0  0  0  0  0  0  0  0  0
   20.1520  -53.9690   36.1290 N   0  0  0  0  0  0  0  0  0  0  0  0
   10.8050  -62.8660   36.1310 B   0  0  0  0  0  0  0  0  0  0  0  0
    9.3510  -62.1370   38.6880 O   0  0  0  0  0  0  0  0  0  0  0  0
   12.8630  -60.7270   36.2110 H   0  0  0  0  0  0  0  0  0  0  0  0
   11.9930  -57.3810   39.5840 H   0  0  0  0  0  0  0  0  0  0  0  0
   13.9240  -58.4080   36.6270 H   0  0  0  0  0  0  0  0  0  0  0  0
   16.4140  -57.7600   37.9820 H   0  0  0  0  0  0  0  0  0  0  0  0
   17.6880  -54.0400   35.2500 H   0  0  0  0  0  0  0  0  0  0  0  0
   16.0330  -54.6960   35.4430 H   0  0  0  0  0  0  0  0  0  0  0  0
   19.4740  -55.6720   34.8570 H   0  0  0  0  0  0  0  0  0  0  0  0
   18.6170  -57.1250   34.2820 H   0  0  0  0  0  0  0  0  0  0  0  0
   17.8110  -54.2410   33.5640 H   0  0  0  0  0  0  0  0  0  0  0  0
   18.5490  -55.5260   32.4950 H   0  0  0  0  0  0  0  0  0  0  0  0
   15.2850  -57.2380   33.5140 H   0  0  0  0  0  0  0  0  0  0  0  0
   16.9570  -57.8560   33.3830 H   0  0  0  0  0  0  0  0  0  0  0  0
   16.6070  -57.9100   35.6550 H   0  0  0  0  0  0  0  0  0  0  0  0
   15.4540  -56.5250   35.6380 H   0  0  0  0  0  0  0  0  0  0  0  0
   20.6220  -54.5380   36.8570 H   0  0  0  0  0  0  0  0  0  0  0  0
   20.0170  -54.3830   35.1890 H   0  0  0  0  0  0  0  0  0  0  0  0
    8.8810  -62.5920   37.9220 H   0  0  0  0  0  0  0  0  0  0  0  0
  2  1  1  0  0  0  0
  3 33  1  0  0  0  0
  3  2  2  0  0  0  0
  4  3  1  0  0  0  0
  5  4  2  0  0  0  0
  5  6  1  0  0  0  0
  6  7  2  0  0  0  0
  7  2  1  0  0  0  0
  7  8  1  0  0  0  0
  9  6  1  0  0  0  0
  9 10  2  0  0  0  0
 11 10  1  0  0  0  0
 12 11  1  0  0  0  0
 12 14  1  0  0  0  0
 13 12  2  0  0  0  0
 14 15  1  0  0  0  0
 16 15  2  0  0  0  0
 17 16  1  0  0  0  0
 18 17  1  0  0  0  0
 18 14  2  0  0  0  0
 19 18  1  0  0  0  0
 20 19  1  0  0  0  0
 21 40  1  0  0  0  0
 21 20  1  0  0  0  0
 22 42  1  0  0  0  0
 22 21  1  0  0  0  0
 23 22  1  0  0  0  0
 23 24  1  0  0  0  0
 24 25  1  0  0  0  0
 25 47  1  0  0  0  0
 25 46  1  0  0  0  0
 25 20  1  0  0  0  0
 26 27  2  0  0  0  0
 26 17  1  0  0  0  0
 28 27  1  0  0  0  0
 29 30  2  0  0  0  0
 29 28  1  0  0  0  0
 30 26  1  0  0  0  0
 31 30  1  0  0  0  0
 31 48  1  0  0  0  0
 32  4  1  0  0  0  0
 34  5  1  0  0  0  0
 35  8  1  0  0  0  0
 36  9  1  0  0  0  0
 37 11  1  0  0  0  0
 38 19  1  0  0  0  0
 39 19  1  0  0  0  0
 41 21  1  0  0  0  0
 43 22  1  0  0  0  0
 44 24  1  0  0  0  0
 45 24  1  0  0  0  0
 49 31  1  0  0  0  0
 50 33  1  0  0  0  0
M  END
>  <Pose>
1

>  <Score>
-8.48

$$$$
