
 OpenBabel03232204043D

 59 63  0  0  1  0  0  0  0  0999 V2000
   16.3810  -53.1210   38.0300 B   0  0  0  0  0  0  0  0  0  0  0  0
   17.6210  -54.0170   36.9070 C   0  0  0  0  0  0  0  0  0  0  0  0
   17.1870  -54.9040   35.9470 C   0  0  0  0  0  0  0  0  0  0  0  0
   18.0990  -55.5700   35.1180 C   0  0  0  0  0  0  0  0  0  0  0  0
   19.4230  -55.2650   35.3450 C   0  0  0  0  0  0  0  0  0  0  0  0
   19.8960  -54.3930   36.2820 C   0  0  0  0  0  0  0  0  0  0  0  0
   18.9650  -53.7550   37.0830 C   0  0  0  0  0  0  0  0  0  0  0  0
   17.6360  -56.5430   34.1490 C   0  0  2  0  0  0  0  0  0  0  0  0
   17.6260  -56.3090   32.7720 N   0  0  0  0  0  0  0  0  0  0  0  0
   16.2430  -56.4450   32.3250 C   0  0  0  0  0  0  0  0  0  0  0  0
   15.7740  -56.1820   31.1900 O   0  0  0  0  0  0  0  0  0  0  0  0
   15.4250  -56.9540   33.4150 C   0  0  0  0  0  0  0  0  0  0  0  0
   14.1700  -57.1850   33.3760 O   0  0  0  0  0  0  0  0  0  0  0  0
   16.3120  -57.1330   34.5330 C   0  0  0  0  0  0  0  0  0  0  0  0
   15.9860  -57.6730   35.6890 C   0  0  0  0  0  0  0  0  0  0  0  0
   17.0140  -57.6780   36.6620 O   0  0  0  0  0  0  0  0  0  0  0  0
   14.7010  -58.2510   36.0370 C   0  0  0  0  0  0  0  0  0  0  0  0
   13.9780  -59.2480   35.5040 N   0  0  0  0  0  0  0  0  0  0  0  0
   12.8020  -59.4220   36.1270 C   0  0  0  0  0  0  0  0  0  0  0  0
   12.7630  -58.4950   37.1090 N   0  0  0  0  0  0  0  0  0  0  0  0
   13.8860  -57.7730   37.0860 C   0  0  0  0  0  0  0  0  0  0  0  0
   14.2430  -56.6660   37.9850 C   0  0  0  0  0  0  0  0  0  0  0  0
   11.9060  -60.4050   35.7530 C   0  0  0  0  0  0  0  0  0  0  0  0
   12.2260  -61.2300   34.7080 C   0  0  0  0  0  0  0  0  0  0  0  0
   13.4370  -61.0510   34.0670 C   0  0  0  0  0  0  0  0  0  0  0  0
   14.3070  -60.0630   34.4650 C   0  0  0  0  0  0  0  0  0  0  0  0
   18.7110  -56.0870   31.8870 C   0  0  0  0  0  0  0  0  0  0  0  0
   18.6440  -55.0760   30.8350 C   0  0  0  0  0  0  0  0  0  0  0  0
   19.1300  -55.3560   29.5160 N   0  0  0  0  0  4  0  0  0  0  0  0
   20.5650  -55.0730   29.5290 C   0  0  0  0  0  0  0  0  0  0  0  0
   21.3870  -56.2570   29.9260 C   0  0  0  0  0  0  0  0  0  0  0  0
   20.5800  -57.2730   30.4600 O   0  0  0  0  0  0  0  0  0  0  0  0
   19.7880  -57.6970   29.4170 C   0  0  0  0  0  0  0  0  0  0  0  0
   18.7960  -56.6580   29.0450 C   0  0  0  0  0  0  0  0  0  0  0  0
   16.1510  -55.1300   35.7850 H   0  0  0  0  0  0  0  0  0  0  0  0
   20.1590  -55.7690   34.7130 H   0  0  0  0  0  0  0  0  0  0  0  0
   20.9520  -54.1820   36.4280 H   0  0  0  0  0  0  0  0  0  0  0  0
   19.3460  -53.0640   37.8290 H   0  0  0  0  0  0  0  0  0  0  0  0
   18.4010  -57.4320   34.2620 H   0  0  0  0  0  0  0  0  0  0  0  0
   15.3210  -56.6340   38.2580 H   0  0  0  0  0  0  0  0  0  0  0  0
   13.9070  -55.7130   37.5100 H   0  0  0  0  0  0  0  0  0  0  0  0
   13.6710  -56.7710   38.9320 H   0  0  0  0  0  0  0  0  0  0  0  0
   10.9640  -60.5430   36.2490 H   0  0  0  0  0  0  0  0  0  0  0  0
   11.5790  -62.0270   34.3510 H   0  0  0  0  0  0  0  0  0  0  0  0
   13.7340  -61.6860   33.2290 H   0  0  0  0  0  0  0  0  0  0  0  0
   15.2750  -59.9140   33.9640 H   0  0  0  0  0  0  0  0  0  0  0  0
   18.9280  -57.0860   31.3910 H   0  0  0  0  0  0  0  0  0  0  0  0
   19.6460  -55.9110   32.4880 H   0  0  0  0  0  0  0  0  0  0  0  0
   17.5380  -54.8360   30.7120 H   0  0  0  0  0  0  0  0  0  0  0  0
   19.0400  -54.0670   31.1670 H   0  0  0  0  0  0  0  0  0  0  0  0
   18.7640  -54.6550   28.8060 H   0  0  0  0  0  0  0  0  0  0  0  0
   20.8610  -54.7650   28.5140 H   0  0  0  0  0  0  0  0  0  0  0  0
   20.7850  -54.2090   30.2050 H   0  0  0  0  0  0  0  0  0  0  0  0
   21.9280  -56.6810   29.0390 H   0  0  0  0  0  0  0  0  0  0  0  0
   22.0950  -55.9510   30.7230 H   0  0  0  0  0  0  0  0  0  0  0  0
   19.2560  -58.6210   29.8120 H   0  0  0  0  0  0  0  0  0  0  0  0
   20.4320  -58.0090   28.5430 H   0  0  0  0  0  0  0  0  0  0  0  0
   17.7910  -56.9980   29.4030 H   0  0  0  0  0  0  0  0  0  0  0  0
   18.7800  -56.6190   27.9130 H   0  0  0  0  0  0  0  0  0  0  0  0
  2  7  1  0  0  0  0
  2  1  1  0  0  0  0
  3  2  2  0  0  0  0
  4  5  2  0  0  0  0
  4  3  1  0  0  0  0
  5  6  1  0  0  0  0
  6 37  1  0  0  0  0
  6  7  2  0  0  0  0
  7 38  1  0  0  0  0
  8 39  1  1  0  0  0
  8 14  1  0  0  0  0
  8  4  1  0  0  0  0
  9  8  1  0  0  0  0
 10  9  1  0  0  0  0
 10 12  1  0  0  0  0
 11 10  2  0  0  0  0
 12 14  1  0  0  0  0
 13 12  2  0  0  0  0
 14 15  2  0  0  0  0
 15 17  1  0  0  0  0
 15 16  1  0  0  0  0
 17 21  2  0  0  0  0
 18 17  1  0  0  0  0
 18 19  1  0  0  0  0
 19 20  2  0  0  0  0
 21 20  1  0  0  0  0
 21 22  1  0  0  0  0
 22 40  1  0  0  0  0
 22 42  1  0  0  0  0
 23 19  1  0  0  0  0
 23 43  1  0  0  0  0
 24 23  2  0  0  0  0
 25 26  2  0  0  0  0
 25 24  1  0  0  0  0
 26 18  1  0  0  0  0
 27 48  1  0  0  0  0
 27  9  1  0  0  0  0
 28 50  1  0  0  0  0
 28 27  1  0  0  0  0
 29 30  1  0  0  0  0
 29 28  1  0  0  0  0
 30 31  1  0  0  0  0
 30 53  1  0  0  0  0
 31 32  1  0  0  0  0
 31 55  1  0  0  0  0
 33 56  1  0  0  0  0
 33 32  1  0  0  0  0
 34 58  1  0  0  0  0
 34 33  1  0  0  0  0
 34 29  1  0  0  0  0
 35  3  1  0  0  0  0
 36  5  1  0  0  0  0
 41 22  1  0  0  0  0
 44 24  1  0  0  0  0
 45 25  1  0  0  0  0
 46 26  1  0  0  0  0
 47 27  1  0  0  0  0
 49 28  1  0  0  0  0
 51 29  1  0  0  0  0
 52 30  1  0  0  0  0
 54 31  1  0  0  0  0
 57 33  1  0  0  0  0
 59 34  1  0  0  0  0
M  END
>  <Pose>
1

>  <Score>
-7.08

$$$$
