
 OpenBabel03232204043D

 56 59  0  0  1  0  0  0  0  0999 V2000
   14.5810  -56.0060   39.2620 B   0  0  0  0  0  0  0  0  0  0  0  0
   14.6860  -57.1040   37.6860 C   0  0  0  0  0  0  0  0  0  0  0  0
   15.9000  -57.2680   37.0400 C   0  0  0  0  0  0  0  0  0  0  0  0
   15.9830  -58.0610   35.9000 C   0  0  0  0  0  0  0  0  0  0  0  0
   14.8760  -58.6970   35.3880 C   0  0  0  0  0  0  0  0  0  0  0  0
   13.6850  -58.5120   36.0540 C   0  0  0  0  0  0  0  0  0  0  0  0
   13.5740  -57.7350   37.1810 C   0  0  0  0  0  0  0  0  0  0  0  0
   14.9460  -59.5240   34.2030 C   0  0  0  0  0  0  0  0  0  0  0  0
   13.8860  -59.8200   33.5910 O   0  0  0  0  0  0  0  0  0  0  0  0
   16.2240  -60.0550   33.6580 C   0  0  0  0  0  0  0  0  0  0  0  0
   16.6080  -59.3860   32.4510 N   0  0  0  0  0  0  0  0  0  0  0  0
   17.2510  -58.2450   32.3520 N   0  0  0  0  0  0  0  0  0  0  0  0
   17.4410  -57.9200   31.0650 C   0  0  0  0  0  0  0  0  0  0  0  0
   16.8930  -58.8990   30.3300 N   0  0  0  0  0  0  0  0  0  0  0  0
   16.3760  -59.8120   31.2040 C   0  0  2  0  0  0  0  0  0  0  0  0
   15.6810  -61.0470   30.8470 C   0  0  0  0  0  0  0  0  0  0  0  0
   16.5220  -61.9740   30.0000 C   0  0  0  0  0  0  0  0  0  0  0  0
   16.6860  -61.4560   28.5880 C   0  0  0  0  0  0  0  0  0  0  0  0
   17.5800  -60.2580   28.4990 C   0  0  0  0  0  0  0  0  0  0  0  0
   16.8610  -58.9720   28.8830 C   0  0  0  0  0  0  0  0  0  0  0  0
   18.1130  -56.7300   30.5250 C   0  0  0  0  0  0  0  0  0  0  0  0
   17.6660  -55.5180   31.1410 N   0  0  0  0  0  0  0  0  0  0  0  0
   18.2390  -54.9980   32.3360 C   0  0  0  0  0  0  0  0  0  0  0  0
   17.6540  -55.1750   33.5700 C   0  0  0  0  0  0  0  0  0  0  0  0
   18.2170  -54.6740   34.7150 C   0  0  0  0  0  0  0  0  0  0  0  0
   19.3850  -53.9820   34.6410 C   0  0  0  0  0  0  0  0  0  0  0  0
   19.9730  -53.8020   33.4080 C   0  0  0  0  0  0  0  0  0  0  0  0
   19.4160  -54.3020   32.2500 C   0  0  0  0  0  0  0  0  0  0  0  0
   19.9730  -53.4670   35.7720 O   0  0  0  0  0  0  0  0  0  0  0  0
   19.3540  -52.4980   36.5820 C   0  0  0  0  0  0  0  0  0  0  0  0
   16.7590  -56.7700   37.4470 H   0  0  0  0  0  0  0  0  0  0  0  0
   16.9370  -58.1740   35.4160 H   0  0  0  0  0  0  0  0  0  0  0  0
   12.7890  -59.0110   35.6600 H   0  0  0  0  0  0  0  0  0  0  0  0
   12.6190  -57.6290   37.6560 H   0  0  0  0  0  0  0  0  0  0  0  0
   17.0230  -60.0640   34.4250 H   0  0  0  0  0  0  0  0  0  0  0  0
   16.0100  -61.1310   33.3910 H   0  0  0  0  0  0  0  0  0  0  0  0
   15.3800  -61.6150   31.7440 H   0  0  0  0  0  0  0  0  0  0  0  0
   14.7300  -60.8710   30.2670 H   0  0  0  0  0  0  0  0  0  0  0  0
   17.4900  -62.2160   30.4380 H   0  0  0  0  0  0  0  0  0  0  0  0
   15.9510  -62.9320   29.9190 H   0  0  0  0  0  0  0  0  0  0  0  0
   15.7270  -61.3040   28.0900 H   0  0  0  0  0  0  0  0  0  0  0  0
   17.2010  -62.2830   28.0200 H   0  0  0  0  0  0  0  0  0  0  0  0
   18.4570  -60.3530   29.1380 H   0  0  0  0  0  0  0  0  0  0  0  0
   17.9240  -60.1740   27.4330 H   0  0  0  0  0  0  0  0  0  0  0  0
   15.8400  -58.9350   28.4750 H   0  0  0  0  0  0  0  0  0  0  0  0
   17.4240  -58.1220   28.4690 H   0  0  0  0  0  0  0  0  0  0  0  0
   17.9070  -56.6880   29.4240 H   0  0  0  0  0  0  0  0  0  0  0  0
   19.2080  -56.8050   30.6290 H   0  0  0  0  0  0  0  0  0  0  0  0
   16.8960  -54.9780   30.7190 H   0  0  0  0  0  0  0  0  0  0  0  0
   16.7130  -55.7410   33.5720 H   0  0  0  0  0  0  0  0  0  0  0  0
   17.7250  -54.8380   35.6540 H   0  0  0  0  0  0  0  0  0  0  0  0
   20.9120  -53.2500   33.3160 H   0  0  0  0  0  0  0  0  0  0  0  0
   19.9030  -54.1500   31.2760 H   0  0  0  0  0  0  0  0  0  0  0  0
   20.0790  -52.0440   37.2700 H   0  0  0  0  0  0  0  0  0  0  0  0
   18.9300  -51.7110   35.9260 H   0  0  0  0  0  0  0  0  0  0  0  0
   18.5130  -52.9300   37.1690 H   0  0  0  0  0  0  0  0  0  0  0  0
  2  1  1  0  0  0  0
  3 31  1  0  0  0  0
  3  2  2  0  0  0  0
  4  3  1  0  0  0  0
  5  4  2  0  0  0  0
  5  6  1  0  0  0  0
  6  7  2  0  0  0  0
  7 34  1  0  0  0  0
  7  2  1  0  0  0  0
  8  5  1  0  0  0  0
  9  8  2  0  0  0  0
 10  8  1  0  0  0  0
 10 35  1  0  0  0  0
 11 10  1  0  0  0  0
 12 11  1  0  0  0  0
 13 12  2  0  0  0  0
 14 13  1  0  0  0  0
 15 14  1  6  0  0  0
 15 11  1  0  0  0  0
 16 15  1  0  0  0  0
 16 37  1  0  0  0  0
 17 39  1  0  0  0  0
 17 16  1  0  0  0  0
 18 17  1  0  0  0  0
 19 18  1  0  0  0  0
 19 20  1  0  0  0  0
 19 43  1  0  0  0  0
 20 14  1  0  0  0  0
 21 48  1  0  0  0  0
 21 13  1  0  0  0  0
 21 22  1  0  0  0  0
 22 23  1  0  0  0  0
 23 24  1  0  0  0  0
 24 50  1  0  0  0  0
 24 25  2  0  0  0  0
 25 51  1  0  0  0  0
 26 25  1  0  0  0  0
 26 29  1  0  0  0  0
 27 26  2  0  0  0  0
 28 23  2  0  0  0  0
 28 27  1  0  0  0  0
 29 30  1  0  0  0  0
 30 56  1  0  0  0  0
 30 54  1  0  0  0  0
 32  4  1  0  0  0  0
 33  6  1  0  0  0  0
 36 10  1  0  0  0  0
 38 16  1  0  0  0  0
 40 17  1  0  0  0  0
 41 18  1  0  0  0  0
 42 18  1  0  0  0  0
 44 19  1  0  0  0  0
 45 20  1  0  0  0  0
 46 20  1  0  0  0  0
 47 21  1  0  0  0  0
 49 22  1  0  0  0  0
 52 27  1  0  0  0  0
 53 28  1  0  0  0  0
 55 30  1  0  0  0  0
M  END
>  <Pose>
1

>  <Score>
-6.80

$$$$
