
 OpenBabel03232204043D

 49 52  0  0  0  0  0  0  0  0999 V2000
   22.1370  -54.5780   27.9680 Cl  0  0  0  0  0  0  0  0  0  0  0  0
   21.0160  -55.7840   28.5850 C   0  0  0  0  0  0  0  0  0  0  0  0
   19.6850  -55.4740   28.6340 C   0  0  0  0  0  0  0  0  0  0  0  0
   18.7900  -56.4330   29.1200 C   0  0  0  0  0  0  0  0  0  0  0  0
   19.2630  -57.6440   29.5310 C   0  0  0  0  0  0  0  0  0  0  0  0
   20.5790  -57.9550   29.4840 C   0  0  0  0  0  0  0  0  0  0  0  0
   21.4880  -56.9960   28.9950 C   0  0  0  0  0  0  0  0  0  0  0  0
   18.2910  -58.6610   30.0500 C   0  0  0  0  0  0  0  0  0  0  0  0
   17.6240  -59.2560   29.1640 O   0  0  0  0  0  0  0  0  0  0  0  0
   18.2200  -58.8410   31.3910 N   0  0  0  0  0  0  0  0  0  0  0  0
   18.1500  -59.0240   32.7470 C   0  0  0  0  0  0  0  0  0  0  0  0
   16.8340  -59.2380   33.3440 C   0  0  0  0  0  0  0  0  0  0  0  0
   16.1550  -60.2250   32.8050 O   0  0  0  0  0  0  0  0  0  0  0  0
   16.1690  -58.5930   34.3780 N   0  0  0  0  0  0  0  0  0  0  0  0
   14.7570  -58.6170   34.5700 C   0  0  0  0  0  0  0  0  0  0  0  0
   14.3990  -57.5250   35.6050 C   0  0  0  0  0  0  0  0  0  0  0  0
   14.9650  -57.9940   36.9320 C   0  0  0  0  0  0  0  0  0  0  0  0
   14.3720  -59.2180   37.2830 N   0  0  0  0  0  0  0  0  0  0  0  0
   13.1450  -59.2540   37.9560 C   0  0  0  0  0  0  0  0  0  0  0  0
   12.8860  -58.2050   38.9710 C   0  0  0  0  0  0  0  0  0  0  0  0
   13.7830  -57.0360   38.8610 C   0  0  0  0  0  0  0  0  0  0  0  0
   13.8040  -55.9300   39.6310 N   0  0  0  0  0  0  0  0  0  0  0  0
   14.7750  -55.1290   39.1810 C   0  0  0  0  0  0  0  0  0  0  0  0
   15.3650  -55.7330   38.1250 N   0  0  0  0  0  0  0  0  0  0  0  0
   14.7610  -56.9180   37.9130 C   0  0  0  0  0  0  0  0  0  0  0  0
   16.4680  -58.2510   36.7270 C   0  0  0  0  0  0  0  0  0  0  0  0
   16.9350  -57.8170   35.3660 C   0  0  0  0  0  0  0  0  0  0  0  0
   19.3110  -54.5190   28.3110 H   0  0  0  0  0  0  0  0  0  0  0  0
   17.7350  -56.2320   29.1810 H   0  0  0  0  0  0  0  0  0  0  0  0
   20.9950  -58.9060   29.7990 H   0  0  0  0  0  0  0  0  0  0  0  0
   22.5410  -57.2300   28.9540 H   0  0  0  0  0  0  0  0  0  0  0  0
   19.4450  -59.4700   31.3940 H   0  0  0  0  0  0  0  0  0  0  0  0
   18.6160  -58.1140   33.2940 H   0  0  0  0  0  0  0  0  0  0  0  0
   18.8540  -59.8480   33.1450 H   0  0  0  0  0  0  0  0  0  0  0  0
   14.3940  -59.5600   34.9680 H   0  0  0  0  0  0  0  0  0  0  0  0
   14.2730  -58.3280   33.5930 H   0  0  0  0  0  0  0  0  0  0  0  0
   13.2930  -57.4600   35.6570 H   0  0  0  0  0  0  0  0  0  0  0  0
   14.8290  -56.5920   35.2560 H   0  0  0  0  0  0  0  0  0  0  0  0
   14.7450  -60.0790   36.9010 H   0  0  0  0  0  0  0  0  0  0  0  0
   13.0890  -60.2490   38.4960 H   0  0  0  0  0  0  0  0  0  0  0  0
   12.3060  -59.3260   37.2020 H   0  0  0  0  0  0  0  0  0  0  0  0
   13.0060  -58.6030   40.0210 H   0  0  0  0  0  0  0  0  0  0  0  0
   11.8040  -57.9090   38.9280 H   0  0  0  0  0  0  0  0  0  0  0  0
   15.0510  -54.1630   39.5860 H   0  0  0  0  0  0  0  0  0  0  0  0
   16.1500  -55.3410   37.5740 H   0  0  0  0  0  0  0  0  0  0  0  0
   17.0690  -57.7440   37.5150 H   0  0  0  0  0  0  0  0  0  0  0  0
   16.7000  -59.3470   36.8230 H   0  0  0  0  0  0  0  0  0  0  0  0
   18.0220  -58.0910   35.3110 H   0  0  0  0  0  0  0  0  0  0  0  0
   16.8400  -56.7440   35.1820 H   0  0  0  0  0  0  0  0  0  0  0  0
  1  2  1  0  0  0  0
  2  3  2  0  0  0  0
  2  7  1  0  0  0  0
  3  4  1  0  0  0  0
  4 29  1  0  0  0  0
  4  5  2  0  0  0  0
  5  8  1  0  0  0  0
  6  5  1  0  0  0  0
  6 30  1  0  0  0  0
  7  6  2  0  0  0  0
  8 10  1  0  0  0  0
  9  8  2  0  0  0  0
 10 32  1  0  0  0  0
 10 11  1  0  0  0  0
 11 34  1  0  0  0  0
 11 33  1  0  0  0  0
 11 12  1  0  0  0  0
 12 14  1  0  0  0  0
 13 12  2  0  0  0  0
 14 15  1  0  0  0  0
 14 27  1  0  0  0  0
 15 35  1  0  0  0  0
 15 16  1  0  0  0  0
 16 37  1  0  0  0  0
 16 17  1  0  0  0  0
 17 18  1  0  0  0  0
 17 25  1  0  0  0  0
 18 19  1  0  0  0  0
 19 40  1  0  0  0  0
 19 20  1  0  0  0  0
 20 42  1  0  0  0  0
 21 20  1  0  0  0  0
 21 22  1  0  0  0  0
 23 44  1  0  0  0  0
 23 22  2  0  0  0  0
 24 23  1  0  0  0  0
 25 24  1  0  0  0  0
 25 21  2  0  0  0  0
 26 47  1  0  0  0  0
 26 17  1  0  0  0  0
 26 46  1  0  0  0  0
 27 26  1  0  0  0  0
 28  3  1  0  0  0  0
 31  7  1  0  0  0  0
 36 15  1  0  0  0  0
 38 16  1  0  0  0  0
 39 18  1  0  0  0  0
 41 19  1  0  0  0  0
 43 20  1  0  0  0  0
 45 24  1  0  0  0  0
 48 27  1  0  0  0  0
 49 27  1  0  0  0  0
M  END
>  <Pose>
1

>  <Score>
-6.59

$$$$
