
 OpenBabel03232204043D

 43 46  0  0  0  0  0  0  0  0999 V2000
   21.1560  -54.8760   28.4460 B   0  0  0  0  0  0  0  0  0  0  0  0
   19.9960  -55.7250   29.6990 C   0  0  0  0  0  0  0  0  0  0  0  0
   19.8920  -55.2380   31.0100 C   0  0  0  0  0  0  0  0  0  0  0  0
   19.0530  -55.8590   31.9020 C   0  0  0  0  0  0  0  0  0  0  0  0
   18.3320  -56.9480   31.4880 C   0  0  0  0  0  0  0  0  0  0  0  0
   18.4280  -57.4420   30.1810 C   0  0  0  0  0  0  0  0  0  0  0  0
   19.2700  -56.8140   29.2960 C   0  0  0  0  0  0  0  0  0  0  0  0
   18.9350  -55.3810   33.2320 N   0  0  0  0  0  0  0  0  0  0  0  0
   18.2890  -55.9890   34.2330 N   0  0  0  0  0  0  0  0  0  0  0  0
   18.3720  -55.2760   35.3340 N   0  0  0  0  0  0  0  0  0  0  0  0
   19.0820  -54.1650   35.0890 C   0  0  0  0  0  0  0  0  0  0  0  0
   19.4280  -54.2490   33.7600 C   0  0  0  0  0  0  0  0  0  0  0  0
   19.4230  -53.0820   36.0400 C   0  0  0  0  0  0  0  0  0  0  0  0
   20.1870  -52.1680   35.5700 O   0  0  0  0  0  0  0  0  0  0  0  0
   18.9680  -53.0190   37.3570 N   0  0  0  0  0  0  0  0  0  0  0  0
   18.2210  -51.8730   37.7990 C   0  0  0  0  0  0  0  0  0  0  0  0
   16.8160  -52.3120   38.1070 C   0  0  0  0  0  0  0  0  0  0  0  0
   16.8520  -53.5310   38.8640 N   0  0  0  0  0  0  0  0  0  0  0  0
   18.1550  -53.8640   39.4720 C   0  0  0  0  0  0  0  0  0  0  0  0
   19.1860  -54.0330   38.3650 C   0  0  0  0  0  0  0  0  0  0  0  0
   15.8100  -54.4330   39.0830 C   0  0  0  0  0  0  0  0  0  0  0  0
   14.9540  -54.0700   39.9880 O   0  0  0  0  0  0  0  0  0  0  0  0
   15.5260  -55.7200   38.4590 C   0  0  0  0  0  0  0  0  0  0  0  0
   14.7250  -56.7780   39.0740 C   0  0  0  0  0  0  0  0  0  0  0  0
   14.2380  -56.0720   37.8130 C   0  0  0  0  0  0  0  0  0  0  0  0
   20.4960  -54.3750   31.2520 H   0  0  0  0  0  0  0  0  0  0  0  0
   17.6560  -57.4810   32.1360 H   0  0  0  0  0  0  0  0  0  0  0  0
   17.8650  -58.2970   29.8490 H   0  0  0  0  0  0  0  0  0  0  0  0
   19.3500  -57.1960   28.2730 H   0  0  0  0  0  0  0  0  0  0  0  0
   20.0080  -53.5120   33.2270 H   0  0  0  0  0  0  0  0  0  0  0  0
   18.2640  -51.0250   37.0900 H   0  0  0  0  0  0  0  0  0  0  0  0
   18.7310  -51.5080   38.7190 H   0  0  0  0  0  0  0  0  0  0  0  0
   16.2600  -51.5020   38.6520 H   0  0  0  0  0  0  0  0  0  0  0  0
   16.2650  -52.5170   37.1680 H   0  0  0  0  0  0  0  0  0  0  0  0
   18.3840  -53.0560   40.1760 H   0  0  0  0  0  0  0  0  0  0  0  0
   18.0440  -54.8310   39.9660 H   0  0  0  0  0  0  0  0  0  0  0  0
   19.1440  -55.0260   37.9170 H   0  0  0  0  0  0  0  0  0  0  0  0
   20.1760  -53.8660   38.8080 H   0  0  0  0  0  0  0  0  0  0  0  0
   16.3970  -56.1200   37.8130 H   0  0  0  0  0  0  0  0  0  0  0  0
   15.0280  -57.8660   38.9240 H   0  0  0  0  0  0  0  0  0  0  0  0
   14.1020  -56.6710   39.9740 H   0  0  0  0  0  0  0  0  0  0  0  0
   13.3340  -55.4860   37.8360 H   0  0  0  0  0  0  0  0  0  0  0  0
   14.2680  -56.7170   36.8790 H   0  0  0  0  0  0  0  0  0  0  0  0
  1  2  1  0  0  0  0
  2  3  1  0  0  0  0
  3 26  1  0  0  0  0
  3  4  2  0  0  0  0
  4  8  1  0  0  0  0
  5  4  1  0  0  0  0
  5 27  1  0  0  0  0
  6  5  2  0  0  0  0
  7  2  2  0  0  0  0
  7  6  1  0  0  0  0
  8 12  1  0  0  0  0
  8  9  1  0  0  0  0
  9 10  2  0  0  0  0
 11 10  1  0  0  0  0
 11 13  1  0  0  0  0
 12 11  2  0  0  0  0
 13 15  1  0  0  0  0
 14 13  2  0  0  0  0
 15 16  1  0  0  0  0
 15 20  1  0  0  0  0
 16 17  1  0  0  0  0
 16 32  1  0  0  0  0
 17 33  1  0  0  0  0
 17 18  1  0  0  0  0
 18 21  1  0  0  0  0
 18 19  1  0  0  0  0
 19 36  1  0  0  0  0
 19 35  1  0  0  0  0
 20 38  1  0  0  0  0
 20 19  1  0  0  0  0
 21 22  2  0  0  0  0
 23 24  1  0  0  0  0
 23 21  1  0  0  0  0
 24 41  1  0  0  0  0
 25 42  1  0  0  0  0
 25 23  1  0  0  0  0
 25 24  1  0  0  0  0
 28  6  1  0  0  0  0
 29  7  1  0  0  0  0
 30 12  1  0  0  0  0
 31 16  1  0  0  0  0
 34 17  1  0  0  0  0
 37 20  1  0  0  0  0
 39 23  1  0  0  0  0
 40 24  1  0  0  0  0
 43 25  1  0  0  0  0
M  END
>  <Pose>
1

>  <Score>
-6.87

$$$$
