
 OpenBabel03232204043D

 44 47  0  0  1  0  0  0  0  0999 V2000
   15.1060  -61.6670   28.5730 B   0  0  0  0  0  0  0  0  0  0  0  0
   14.7150  -61.5930   30.4340 C   0  0  0  0  0  0  0  0  0  0  0  0
   15.1660  -60.5430   31.2300 C   0  0  0  0  0  0  0  0  0  0  0  0
   14.8790  -60.4960   32.5770 C   0  0  0  0  0  0  0  0  0  0  0  0
   14.1210  -61.5460   33.0830 C   0  0  0  0  0  0  0  0  0  0  0  0
   13.6670  -62.5860   32.3180 C   0  0  0  0  0  0  0  0  0  0  0  0
   13.9660  -62.6140   30.9770 C   0  0  0  0  0  0  0  0  0  0  0  0
   15.3200  -59.4440   33.4360 N   0  0  0  0  0  0  0  0  0  0  0  0
   14.4860  -58.3910   33.9050 C   0  0  0  0  0  0  0  0  0  0  0  0
   13.4350  -58.0320   33.3220 O   0  0  0  0  0  0  0  0  0  0  0  0
   15.0990  -57.8760   35.1230 C   0  0  2  0  0  0  0  0  0  0  0  0
   16.5750  -58.1290   34.8970 C   0  0  0  0  0  0  0  0  0  0  0  0
   16.6400  -59.2730   33.9680 C   0  0  0  0  0  0  0  0  0  0  0  0
   17.6460  -59.9750   33.6830 O   0  0  0  0  0  0  0  0  0  0  0  0
   14.6300  -58.4070   36.3390 N   0  0  0  0  0  0  0  0  0  0  0  0
   13.3040  -58.1260   36.7170 C   0  0  0  0  0  0  0  0  0  0  0  0
   13.3130  -56.9370   37.6880 C   0  0  0  0  0  0  0  0  0  0  0  0
   14.6530  -56.7440   38.2170 N   0  0  0  0  0  0  0  0  0  0  0  0
   15.5370  -57.8590   38.4940 C   0  0  0  0  0  0  0  0  0  0  0  0
   15.5180  -58.8230   37.3310 C   0  0  0  0  0  0  0  0  0  0  0  0
   15.1650  -55.4280   38.4690 C   0  0  0  0  0  0  0  0  0  0  0  0
   14.7180  -54.6970   39.5120 N   0  0  0  0  0  0  0  0  0  0  0  0
   15.2150  -53.4680   39.7530 C   0  0  0  0  0  0  0  0  0  0  0  0
   16.1990  -52.9110   38.9450 C   0  0  0  0  0  0  0  0  0  0  0  0
   16.6520  -53.6660   37.8780 C   0  0  0  0  0  0  0  0  0  0  0  0
   16.1170  -54.8860   37.6900 N   0  0  0  0  0  0  0  0  0  0  0  0
   15.7500  -59.7560   30.7820 H   0  0  0  0  0  0  0  0  0  0  0  0
   13.8910  -61.5160   34.1480 H   0  0  0  0  0  0  0  0  0  0  0  0
   13.0720  -63.4090   32.7280 H   0  0  0  0  0  0  0  0  0  0  0  0
   13.6050  -63.4390   30.3790 H   0  0  0  0  0  0  0  0  0  0  0  0
   14.9710  -56.7570   35.1510 H   0  0  0  0  0  0  0  0  0  0  0  0
   16.9970  -57.2580   34.3680 H   0  0  0  0  0  0  0  0  0  0  0  0
   17.1010  -58.3340   35.8540 H   0  0  0  0  0  0  0  0  0  0  0  0
   12.8940  -58.9830   37.2910 H   0  0  0  0  0  0  0  0  0  0  0  0
   12.6210  -57.9300   35.9060 H   0  0  0  0  0  0  0  0  0  0  0  0
   13.0250  -56.0020   37.1400 H   0  0  0  0  0  0  0  0  0  0  0  0
   12.6550  -57.0870   38.5480 H   0  0  0  0  0  0  0  0  0  0  0  0
   15.2460  -58.3530   39.4650 H   0  0  0  0  0  0  0  0  0  0  0  0
   16.6020  -57.5010   38.5710 H   0  0  0  0  0  0  0  0  0  0  0  0
   16.5350  -59.0360   36.9420 H   0  0  0  0  0  0  0  0  0  0  0  0
   15.1460  -59.8040   37.7550 H   0  0  0  0  0  0  0  0  0  0  0  0
   14.8670  -52.8660   40.5920 H   0  0  0  0  0  0  0  0  0  0  0  0
   16.5830  -51.9090   39.1670 H   0  0  0  0  0  0  0  0  0  0  0  0
   17.4340  -53.2600   37.2220 H   0  0  0  0  0  0  0  0  0  0  0  0
  1  2  1  0  0  0  0
  2  7  2  0  0  0  0
  2  3  1  0  0  0  0
  3  4  2  0  0  0  0
  4  5  1  0  0  0  0
  4  8  1  0  0  0  0
  5 28  1  0  0  0  0
  6 29  1  0  0  0  0
  6  5  2  0  0  0  0
  7  6  1  0  0  0  0
  8  9  1  0  0  0  0
  8 13  1  0  0  0  0
  9 11  1  0  0  0  0
 10  9  2  0  0  0  0
 11 31  1  1  0  0  0
 11 15  1  0  0  0  0
 12 11  1  0  0  0  0
 12 33  1  0  0  0  0
 13 12  1  0  0  0  0
 14 13  2  0  0  0  0
 15 16  1  0  0  0  0
 15 20  1  0  0  0  0
 16 34  1  0  0  0  0
 16 17  1  0  0  0  0
 17 18  1  0  0  0  0
 17 37  1  0  0  0  0
 18 21  1  0  0  0  0
 18 19  1  0  0  0  0
 19 39  1  0  0  0  0
 19 38  1  0  0  0  0
 20 41  1  0  0  0  0
 20 19  1  0  0  0  0
 21 22  2  0  0  0  0
 22 23  1  0  0  0  0
 23 42  1  0  0  0  0
 24 43  1  0  0  0  0
 24 23  2  0  0  0  0
 25 24  1  0  0  0  0
 26 25  2  0  0  0  0
 26 21  1  0  0  0  0
 27  3  1  0  0  0  0
 30  7  1  0  0  0  0
 32 12  1  0  0  0  0
 35 16  1  0  0  0  0
 36 17  1  0  0  0  0
 40 20  1  0  0  0  0
 44 25  1  0  0  0  0
M  END
>  <Pose>
1

>  <Score>
-6.61

$$$$
