
 OpenBabel03232204043D

 44 47  0  0  1  0  0  0  0  0999 V2000
   18.1160  -51.9750   37.6310 Cl  0  0  0  0  0  0  0  0  0  0  0  0
   18.7030  -52.8070   36.2080 C   0  0  0  0  0  0  0  0  0  0  0  0
   19.7980  -52.3070   35.5660 C   0  0  0  0  0  0  0  0  0  0  0  0
   20.2810  -52.9410   34.4450 C   0  0  0  0  0  0  0  0  0  0  0  0
   19.6350  -54.0920   33.9850 C   0  0  0  0  0  0  0  0  0  0  0  0
   18.5300  -54.6030   34.6280 C   0  0  0  0  0  0  0  0  0  0  0  0
   18.0710  -53.9540   35.7370 C   0  0  0  0  0  0  0  0  0  0  0  0
   17.8940  -55.8010   34.0800 C   0  0  0  0  0  0  0  0  0  0  0  0
   18.0970  -56.4420   32.9000 N   0  0  0  0  0  0  0  0  0  0  0  0
   17.2840  -57.5010   32.8260 C   0  0  2  0  0  0  0  0  0  0  0  0
   16.5210  -57.5840   33.9580 N   0  0  0  0  0  0  0  0  0  0  0  0
   16.9060  -56.5410   34.7130 C   0  0  0  0  0  0  0  0  0  0  0  0
   15.5640  -58.6020   34.2780 C   0  0  0  0  0  0  0  0  0  0  0  0
   14.3190  -58.3150   34.9370 C   0  0  1  0  0  0  0  0  0  0  0  0
   13.2930  -58.2230   34.0960 O   0  0  0  0  0  0  0  0  0  0  0  0
   13.9350  -58.1050   36.3100 C   0  0  0  0  0  0  0  0  0  0  0  0
   14.5580  -57.0850   37.0640 C   0  0  0  0  0  0  0  0  0  0  0  0
   14.2600  -56.8090   38.3720 C   0  0  0  0  0  0  0  0  0  0  0  0
   13.2880  -57.5910   38.9630 C   0  0  0  0  0  0  0  0  0  0  0  0
   12.6650  -58.5910   38.2500 C   0  0  0  0  0  0  0  0  0  0  0  0
   12.9740  -58.8680   36.9160 C   0  0  0  0  0  0  0  0  0  0  0  0
   14.8970  -55.7830   39.1100 N   0  0  0  0  0  0  0  0  0  0  0  0
   14.3870  -55.3910   40.1650 O   0  0  0  0  0  0  0  0  0  0  0  0
   16.0620  -55.2110   38.6890 O   0  0  0  0  0  0  0  0  0  0  0  0
   17.4830  -58.2350   31.5560 C   0  0  0  0  0  0  0  0  0  0  0  0
   18.1030  -57.1750   30.6880 C   0  0  0  0  0  0  0  0  0  0  0  0
   18.8980  -56.3560   31.6790 C   0  0  0  0  0  0  0  0  0  0  0  0
   20.6270  -50.8550   36.1300 Cl  0  0  0  0  0  0  0  0  0  0  0  0
   21.1410  -52.5330   33.9540 H   0  0  0  0  0  0  0  0  0  0  0  0
   20.0630  -54.5430   33.1000 H   0  0  0  0  0  0  0  0  0  0  0  0
   17.2120  -54.2640   36.3060 H   0  0  0  0  0  0  0  0  0  0  0  0
   16.4830  -56.3140   35.6980 H   0  0  0  0  0  0  0  0  0  0  0  0
   15.3970  -59.1780   33.3040 H   0  0  0  0  0  0  0  0  0  0  0  0
   16.1590  -59.3660   34.8840 H   0  0  0  0  0  0  0  0  0  0  0  0
   15.3270  -56.4660   36.6000 H   0  0  0  0  0  0  0  0  0  0  0  0
   13.0420  -57.3830   40.0000 H   0  0  0  0  0  0  0  0  0  0  0  0
   11.8950  -59.2060   38.7270 H   0  0  0  0  0  0  0  0  0  0  0  0
   12.4340  -59.6640   36.4470 H   0  0  0  0  0  0  0  0  0  0  0  0
   16.5330  -58.5440   31.0860 H   0  0  0  0  0  0  0  0  0  0  0  0
   18.1840  -59.1050   31.6760 H   0  0  0  0  0  0  0  0  0  0  0  0
   17.2680  -56.5680   30.2720 H   0  0  0  0  0  0  0  0  0  0  0  0
   18.7560  -57.5860   29.8910 H   0  0  0  0  0  0  0  0  0  0  0  0
   19.8830  -56.8550   31.8010 H   0  0  0  0  0  0  0  0  0  0  0  0
   18.9980  -55.3050   31.3110 H   0  0  0  0  0  0  0  0  0  0  0  0
  2  1  1  0  0  0  0
  3 28  1  0  0  0  0
  3  2  2  0  0  0  0
  4  3  1  0  0  0  0
  5  4  2  0  0  0  0
  5  6  1  0  0  0  0
  6  7  2  0  0  0  0
  7  2  1  0  0  0  0
  7 31  1  0  0  0  0
  8  6  1  0  0  0  0
  8 12  2  0  0  0  0
  9  8  1  0  0  0  0
 10 25  1  1  0  0  0
 10  9  1  0  0  0  0
 10 11  1  0  0  0  0
 11 13  1  0  0  0  0
 11 12  1  0  0  0  0
 12 32  1  0  0  0  0
 13 34  1  0  0  0  0
 13 14  1  0  0  0  0
 14 15  1  1  0  0  0
 14 16  1  0  0  0  0
 16 21  2  0  0  0  0
 16 17  1  0  0  0  0
 17 18  2  0  0  0  0
 18 19  1  0  0  0  0
 18 22  1  0  0  0  0
 19 36  1  0  0  0  0
 20 37  1  0  0  0  0
 20 19  2  0  0  0  0
 21 20  1  0  0  0  0
 22 23  2  0  0  0  0
 24 22  2  0  0  0  0
 25 40  1  0  0  0  0
 26 25  1  0  0  0  0
 26 27  1  0  0  0  0
 27 43  1  0  0  0  0
 27  9  1  0  0  0  0
 29  4  1  0  0  0  0
 30  5  1  0  0  0  0
 33 13  1  0  0  0  0
 35 17  1  0  0  0  0
 38 21  1  0  0  0  0
 39 25  1  0  0  0  0
 41 26  1  0  0  0  0
 42 26  1  0  0  0  0
 44 27  1  0  0  0  0
M  END
>  <Pose>
1

>  <Score>
-7.32

$$$$
