
 OpenBabel03232204043D

 55 58  0  0  0  0  0  0  0  0999 V2000
   14.9640  -56.1240   38.7310 S   0  0  0  0  0  0  0  0  0  0  0  0
   15.4130  -56.3820   40.1730 O   0  0  0  0  0  0  0  0  0  0  0  0
   13.5910  -55.4710   38.9080 O   0  0  0  0  0  0  0  0  0  0  0  0
   14.7950  -57.5810   37.9700 N   0  0  0  0  0  0  0  0  0  0  0  0
   15.8540  -58.3730   37.5410 C   0  0  0  0  0  0  0  0  0  0  0  0
   16.3130  -58.1750   36.1320 C   0  0  0  0  0  0  0  0  0  0  0  0
   15.1760  -57.5580   35.3210 C   0  0  0  0  0  0  0  0  0  0  0  0
   13.9330  -58.3220   35.8050 C   0  0  0  0  0  0  0  0  0  0  0  0
   13.5930  -57.7080   37.1540 C   0  0  0  0  0  0  0  0  0  0  0  0
   15.3790  -57.7010   33.8890 C   0  0  0  0  0  0  0  0  0  0  0  0
   15.0400  -56.7670   33.1160 O   0  0  0  0  0  0  0  0  0  0  0  0
   15.9470  -58.8560   33.3410 N   0  0  0  0  0  0  0  0  0  0  0  0
   17.3680  -58.9580   32.9890 C   0  0  0  0  0  0  0  0  0  0  0  0
   17.5290  -60.2680   32.2460 C   0  0  0  0  0  0  0  0  0  0  0  0
   17.1860  -61.3820   33.1080 N   0  0  0  0  0  0  0  0  0  0  0  0
   15.8140  -61.2880   33.5740 C   0  0  0  0  0  0  0  0  0  0  0  0
   15.1510  -60.0190   33.0670 C   0  0  0  0  0  0  0  0  0  0  0  0
   17.4150  -62.6450   32.4400 C   0  0  0  0  0  0  0  0  0  0  0  0
   16.0970  -54.9690   38.0910 C   0  0  0  0  0  0  0  0  0  0  0  0
   16.8840  -55.3240   36.9820 C   0  0  0  0  0  0  0  0  0  0  0  0
   17.8320  -54.4890   36.4530 C   0  0  0  0  0  0  0  0  0  0  0  0
   18.0350  -53.2630   37.0080 C   0  0  0  0  0  0  0  0  0  0  0  0
   17.2960  -52.8610   38.0920 C   0  0  0  0  0  0  0  0  0  0  0  0
   16.3350  -53.7310   38.6110 C   0  0  0  0  0  0  0  0  0  0  0  0
   15.3650  -53.1350   39.9480 Cl  0  0  0  0  0  0  0  0  0  0  0  0
   19.0380  -52.4020   36.4430 N   0  0  0  0  0  0  0  0  0  0  0  0
   19.7900  -52.8450   35.3260 C   0  0  0  0  0  0  0  0  0  0  0  0
   20.3810  -52.0430   34.5730 O   0  0  0  0  0  0  0  0  0  0  0  0
   19.8520  -54.3090   35.0800 C   0  0  0  0  0  0  0  0  0  0  0  0
   18.5980  -54.8780   35.3460 O   0  0  0  0  0  0  0  0  0  0  0  0
   16.7050  -58.3650   38.2220 H   0  0  0  0  0  0  0  0  0  0  0  0
   15.4810  -59.4660   37.6330 H   0  0  0  0  0  0  0  0  0  0  0  0
   16.5020  -59.1750   35.6680 H   0  0  0  0  0  0  0  0  0  0  0  0
   17.2350  -57.6020   35.9990 H   0  0  0  0  0  0  0  0  0  0  0  0
   15.0750  -56.5060   35.6340 H   0  0  0  0  0  0  0  0  0  0  0  0
   13.1000  -58.2800   35.1130 H   0  0  0  0  0  0  0  0  0  0  0  0
   14.2900  -59.3780   35.9790 H   0  0  0  0  0  0  0  0  0  0  0  0
   12.7870  -58.2680   37.6550 H   0  0  0  0  0  0  0  0  0  0  0  0
   13.2240  -56.6840   36.9590 H   0  0  0  0  0  0  0  0  0  0  0  0
   17.9250  -59.0330   33.9710 H   0  0  0  0  0  0  0  0  0  0  0  0
   17.6910  -58.1040   32.3940 H   0  0  0  0  0  0  0  0  0  0  0  0
   16.8710  -60.2110   31.3350 H   0  0  0  0  0  0  0  0  0  0  0  0
   18.5790  -60.3600   31.9110 H   0  0  0  0  0  0  0  0  0  0  0  0
   15.7720  -61.2950   34.6710 H   0  0  0  0  0  0  0  0  0  0  0  0
   15.2520  -62.1320   33.1240 H   0  0  0  0  0  0  0  0  0  0  0  0
   14.9550  -60.0850   31.9680 H   0  0  0  0  0  0  0  0  0  0  0  0
   14.1740  -59.9240   33.5400 H   0  0  0  0  0  0  0  0  0  0  0  0
   17.3580  -63.4430   33.2040 H   0  0  0  0  0  0  0  0  0  0  0  0
   18.4270  -62.6580   32.0090 H   0  0  0  0  0  0  0  0  0  0  0  0
   16.6210  -62.8730   31.6850 H   0  0  0  0  0  0  0  0  0  0  0  0
   16.7120  -56.3100   36.5460 H   0  0  0  0  0  0  0  0  0  0  0  0
   17.4520  -51.9010   38.5310 H   0  0  0  0  0  0  0  0  0  0  0  0
   19.1990  -51.4630   36.8600 H   0  0  0  0  0  0  0  0  0  0  0  0
   20.1420  -54.5230   34.0270 H   0  0  0  0  0  0  0  0  0  0  0  0
   20.5880  -54.7930   35.7380 H   0  0  0  0  0  0  0  0  0  0  0  0
  1  3  2  0  0  0  0
  1  2  2  0  0  0  0
  4  1  1  0  0  0  0
  5 32  1  0  0  0  0
  5  4  1  0  0  0  0
  5 31  1  0  0  0  0
  6  5  1  0  0  0  0
  7 35  1  0  0  0  0
  7  8  1  0  0  0  0
  7  6  1  0  0  0  0
  8 37  1  0  0  0  0
  8  9  1  0  0  0  0
  9 38  1  0  0  0  0
  9  4  1  0  0  0  0
 10  7  1  0  0  0  0
 11 10  2  0  0  0  0
 12 10  1  0  0  0  0
 13 12  1  0  0  0  0
 13 40  1  0  0  0  0
 14 13  1  0  0  0  0
 14 15  1  0  0  0  0
 15 16  1  0  0  0  0
 16 44  1  0  0  0  0
 17 12  1  0  0  0  0
 17 47  1  0  0  0  0
 17 16  1  0  0  0  0
 18 15  1  0  0  0  0
 18 48  1  0  0  0  0
 19 24  1  0  0  0  0
 19  1  1  0  0  0  0
 20 19  2  0  0  0  0
 21 20  1  0  0  0  0
 21 22  2  0  0  0  0
 22 23  1  0  0  0  0
 23 52  1  0  0  0  0
 23 24  2  0  0  0  0
 24 25  1  0  0  0  0
 26 53  1  0  0  0  0
 26 22  1  0  0  0  0
 27 26  1  0  0  0  0
 28 27  2  0  0  0  0
 29 27  1  0  0  0  0
 29 30  1  0  0  0  0
 29 55  1  0  0  0  0
 30 21  1  0  0  0  0
 33  6  1  0  0  0  0
 34  6  1  0  0  0  0
 36  8  1  0  0  0  0
 39  9  1  0  0  0  0
 41 13  1  0  0  0  0
 42 14  1  0  0  0  0
 43 14  1  0  0  0  0
 45 16  1  0  0  0  0
 46 17  1  0  0  0  0
 49 18  1  0  0  0  0
 50 18  1  0  0  0  0
 51 20  1  0  0  0  0
 54 29  1  0  0  0  0
M  END
>  <Pose>
1

>  <Score>
-7.85

$$$$
