
 OpenBabel03232204043D

 60 63  0  0  1  0  0  0  0  0999 V2000
   18.4880  -63.1390   31.0070 Cl  0  0  0  0  0  0  0  0  0  0  0  0
   17.7600  -61.6020   31.4670 C   0  0  0  0  0  0  0  0  0  0  0  0
   16.7890  -61.5340   32.4500 C   0  0  0  0  0  0  0  0  0  0  0  0
   16.2290  -60.3230   32.7980 C   0  0  0  0  0  0  0  0  0  0  0  0
   16.5940  -59.1340   32.2050 C   0  0  0  0  0  0  0  0  0  0  0  0
   17.5780  -59.2220   31.2120 C   0  0  0  0  0  0  0  0  0  0  0  0
   18.1380  -60.4280   30.8620 C   0  0  0  0  0  0  0  0  0  0  0  0
   15.9740  -57.8450   32.6000 C   0  0  2  0  0  0  0  0  0  0  0  0
   17.0900  -56.9380   32.8960 N   0  0  0  0  0  0  0  0  0  0  0  0
   17.6330  -57.4110   34.1200 C   0  0  0  0  0  0  0  0  0  0  0  0
   18.8060  -57.2910   34.5100 O   0  0  0  0  0  0  0  0  0  0  0  0
   16.5370  -58.0670   34.8260 C   0  0  0  0  0  0  0  0  0  0  0  0
   16.5160  -58.6480   35.9520 O   0  0  0  0  0  0  0  0  0  0  0  0
   15.3590  -57.9440   33.9550 C   0  0  0  0  0  0  0  0  0  0  0  0
   14.0950  -57.9560   34.3340 C   0  0  0  0  0  0  0  0  0  0  0  0
   13.1070  -57.8690   33.3490 O   0  0  0  0  0  0  0  0  0  0  0  0
   13.6860  -58.0510   35.7270 C   0  0  0  0  0  0  0  0  0  0  0  0
   14.0230  -57.0880   36.6630 C   0  0  0  0  0  0  0  0  0  0  0  0
   13.6560  -57.1950   37.9890 C   0  0  0  0  0  0  0  0  0  0  0  0
   12.9250  -58.2870   38.4350 C   0  0  0  0  0  0  0  0  0  0  0  0
   12.5830  -59.2510   37.5150 C   0  0  0  0  0  0  0  0  0  0  0  0
   12.9620  -59.1310   36.1750 C   0  0  0  0  0  0  0  0  0  0  0  0
   12.5450  -58.4100   39.7690 O   0  0  0  0  0  0  0  0  0  0  0  0
   11.3560  -59.0820   40.0790 C   0  0  0  0  0  0  0  0  0  0  0  0
   14.0390  -56.1410   38.9540 C   0  0  0  0  0  0  0  0  0  0  0  0
   17.5370  -55.7990   32.0930 C   0  0  0  0  0  0  0  0  0  0  0  0
   18.7590  -56.2620   31.3330 C   0  0  0  0  0  0  0  0  0  0  0  0
   19.1830  -55.3140   30.3390 N   0  0  0  0  0  4  0  0  0  0  0  0
   18.7710  -55.7220   29.0350 C   0  0  0  0  0  0  0  0  0  0  0  0
   19.7870  -56.4550   28.2250 C   0  0  0  0  0  0  0  0  0  0  0  0
   21.0870  -56.0890   28.4470 O   0  0  0  0  0  0  0  0  0  0  0  0
   21.4460  -56.1210   29.7880 C   0  0  0  0  0  0  0  0  0  0  0  0
   20.5940  -55.0950   30.4890 C   0  0  0  0  0  0  0  0  0  0  0  0
   16.4790  -62.4440   32.9370 H   0  0  0  0  0  0  0  0  0  0  0  0
   15.4560  -60.2380   33.5750 H   0  0  0  0  0  0  0  0  0  0  0  0
   17.8570  -58.2840   30.7530 H   0  0  0  0  0  0  0  0  0  0  0  0
   18.8920  -60.4690   30.0980 H   0  0  0  0  0  0  0  0  0  0  0  0
   15.2960  -57.4350   31.8460 H   0  0  0  0  0  0  0  0  0  0  0  0
   14.6030  -56.2340   36.2830 H   0  0  0  0  0  0  0  0  0  0  0  0
   12.0040  -60.1210   37.8570 H   0  0  0  0  0  0  0  0  0  0  0  0
   12.6810  -59.9270   35.5050 H   0  0  0  0  0  0  0  0  0  0  0  0
   10.4730  -58.5300   39.6460 H   0  0  0  0  0  0  0  0  0  0  0  0
   11.1700  -59.0830   41.1760 H   0  0  0  0  0  0  0  0  0  0  0  0
   11.3530  -60.1410   39.7470 H   0  0  0  0  0  0  0  0  0  0  0  0
   14.9860  -56.4250   39.5000 H   0  0  0  0  0  0  0  0  0  0  0  0
   13.2720  -55.9890   39.7360 H   0  0  0  0  0  0  0  0  0  0  0  0
   14.2460  -55.1770   38.4320 H   0  0  0  0  0  0  0  0  0  0  0  0
   17.8380  -54.9470   32.7260 H   0  0  0  0  0  0  0  0  0  0  0  0
   16.7210  -55.4820   31.4480 H   0  0  0  0  0  0  0  0  0  0  0  0
   19.6000  -56.4410   32.0280 H   0  0  0  0  0  0  0  0  0  0  0  0
   18.5860  -57.2270   30.8040 H   0  0  0  0  0  0  0  0  0  0  0  0
   18.6680  -54.4160   30.5660 H   0  0  0  0  0  0  0  0  0  0  0  0
   18.4990  -54.7940   28.4470 H   0  0  0  0  0  0  0  0  0  0  0  0
   17.7980  -56.2810   29.1080 H   0  0  0  0  0  0  0  0  0  0  0  0
   19.5780  -56.3510   27.1320 H   0  0  0  0  0  0  0  0  0  0  0  0
   19.6710  -57.5570   28.4420 H   0  0  0  0  0  0  0  0  0  0  0  0
   22.5010  -55.7320   29.8280 H   0  0  0  0  0  0  0  0  0  0  0  0
   21.3770  -57.1250   30.2300 H   0  0  0  0  0  0  0  0  0  0  0  0
   20.9130  -55.1120   31.5620 H   0  0  0  0  0  0  0  0  0  0  0  0
   20.9150  -54.0950   30.1080 H   0  0  0  0  0  0  0  0  0  0  0  0
  1  2  1  0  0  0  0
  2  3  1  0  0  0  0
  3  4  2  0  0  0  0
  3 34  1  0  0  0  0
  4 35  1  0  0  0  0
  5  8  1  0  0  0  0
  5  4  1  0  0  0  0
  6  5  2  0  0  0  0
  7  6  1  0  0  0  0
  7  2  2  0  0  0  0
  8 38  1  6  0  0  0
  8  9  1  0  0  0  0
  8 14  1  0  0  0  0
  9 10  1  0  0  0  0
 10 11  2  0  0  0  0
 10 12  1  0  0  0  0
 12 13  2  0  0  0  0
 14 15  2  0  0  0  0
 14 12  1  0  0  0  0
 15 17  1  0  0  0  0
 16 15  1  0  0  0  0
 17 22  2  0  0  0  0
 17 18  1  0  0  0  0
 18 19  2  0  0  0  0
 19 20  1  0  0  0  0
 19 25  1  0  0  0  0
 20 23  1  0  0  0  0
 21 40  1  0  0  0  0
 21 20  2  0  0  0  0
 22 21  1  0  0  0  0
 23 24  1  0  0  0  0
 24 43  1  0  0  0  0
 25 45  1  0  0  0  0
 25 46  1  0  0  0  0
 26 48  1  0  0  0  0
 26  9  1  0  0  0  0
 27 50  1  0  0  0  0
 27 26  1  0  0  0  0
 28 33  1  0  0  0  0
 28 52  1  0  0  0  0
 28 27  1  0  0  0  0
 29 54  1  0  0  0  0
 29 28  1  0  0  0  0
 30 56  1  0  0  0  0
 30 31  1  0  0  0  0
 30 29  1  0  0  0  0
 31 32  1  0  0  0  0
 32 57  1  0  0  0  0
 32 58  1  0  0  0  0
 32 33  1  0  0  0  0
 33 59  1  0  0  0  0
 36  6  1  0  0  0  0
 37  7  1  0  0  0  0
 39 18  1  0  0  0  0
 41 22  1  0  0  0  0
 42 24  1  0  0  0  0
 44 24  1  0  0  0  0
 47 25  1  0  0  0  0
 49 26  1  0  0  0  0
 51 27  1  0  0  0  0
 53 29  1  0  0  0  0
 55 30  1  0  0  0  0
 60 33  1  0  0  0  0
M  END
>  <Pose>
1

>  <Score>
-6.83

$$$$
