
 OpenBabel03232204043D

 36 39  0  0  1  0  0  0  0  0999 V2000
   14.2020  -55.9820   39.5740 Cl  0  0  0  0  0  0  0  0  0  0  0  0
   15.4150  -55.1660   38.5980 C   0  0  0  0  0  0  0  0  0  0  0  0
   16.0280  -55.7790   37.5270 C   0  0  0  0  0  0  0  0  0  0  0  0
   16.9700  -55.1430   36.7700 N   0  0  0  0  0  0  0  0  0  0  0  0
   17.3460  -53.8790   37.0360 C   0  0  0  0  0  0  0  0  0  0  0  0
   18.2820  -53.2460   36.2860 N   0  0  0  0  0  0  0  0  0  0  0  0
   18.8790  -53.8520   35.2370 C   0  0  0  0  0  0  0  0  0  0  0  0
   18.5200  -55.1350   34.9400 C   0  0  2  0  0  0  0  0  0  0  0  0
   19.1500  -55.8560   33.7870 C   0  0  0  0  0  0  0  0  0  0  0  0
   19.5370  -54.7920   32.8430 N   0  0  0  0  0  0  0  0  0  0  0  0
   20.4980  -53.8670   33.3710 C   0  0  0  0  0  0  0  0  0  0  0  0
   19.8870  -53.0500   34.4960 C   0  0  0  0  0  0  0  0  0  0  0  0
   18.9470  -54.7980   31.5830 C   0  0  0  0  0  0  0  0  0  0  0  0
   17.7580  -54.3390   31.4610 O   0  0  0  0  0  0  0  0  0  0  0  0
   19.5670  -55.2900   30.3470 C   0  0  0  0  0  0  0  0  0  0  0  0
   20.8690  -55.5780   30.2640 N   0  0  0  0  0  0  0  0  0  0  0  0
   21.4250  -56.0260   29.1350 C   0  0  0  0  0  0  0  0  0  0  0  0
   20.6850  -56.2170   27.9860 C   0  0  0  0  0  0  0  0  0  0  0  0
   19.3770  -55.9230   28.0880 N   0  0  0  0  0  0  0  0  0  0  0  0
   18.7990  -55.4750   29.2020 C   0  0  0  0  0  0  0  0  0  0  0  0
   17.5600  -55.7550   35.7270 C   0  0  0  0  0  0  0  0  0  0  0  0
   17.2260  -56.9260   35.4630 O   0  0  0  0  0  0  0  0  0  0  0  0
   16.7350  -53.2550   38.1120 C   0  0  0  0  0  0  0  0  0  0  0  0
   15.7810  -53.8710   38.8940 C   0  0  0  0  0  0  0  0  0  0  0  0
   15.7740  -56.7890   37.2580 H   0  0  0  0  0  0  0  0  0  0  0  0
   18.4560  -56.5740   33.3300 H   0  0  0  0  0  0  0  0  0  0  0  0
   20.0590  -56.3520   34.2080 H   0  0  0  0  0  0  0  0  0  0  0  0
   21.0550  -53.2740   32.6610 H   0  0  0  0  0  0  0  0  0  0  0  0
   21.2790  -54.5060   33.8940 H   0  0  0  0  0  0  0  0  0  0  0  0
   19.4550  -52.1380   34.0640 H   0  0  0  0  0  0  0  0  0  0  0  0
   20.7010  -52.7380   35.1860 H   0  0  0  0  0  0  0  0  0  0  0  0
   22.4870  -56.2560   29.0790 H   0  0  0  0  0  0  0  0  0  0  0  0
   21.1340  -56.5810   27.0660 H   0  0  0  0  0  0  0  0  0  0  0  0
   17.7600  -55.2570   29.2290 H   0  0  0  0  0  0  0  0  0  0  0  0
   17.0270  -52.2390   38.3400 H   0  0  0  0  0  0  0  0  0  0  0  0
   15.3020  -53.3810   39.7370 H   0  0  0  0  0  0  0  0  0  0  0  0
  2 24  2  0  0  0  0
  2  1  1  0  0  0  0
  3  2  1  0  0  0  0
  4  5  1  0  0  0  0
  4  3  1  0  0  0  0
  5 23  2  0  0  0  0
  6  5  1  0  0  0  0
  7  6  2  0  0  0  0
  8  7  1  6  0  0  0
  8 21  1  0  0  0  0
  9 27  1  0  0  0  0
  9  8  1  0  0  0  0
 10 11  1  0  0  0  0
 10  9  1  0  0  0  0
 11 29  1  0  0  0  0
 11 12  1  0  0  0  0
 12 31  1  0  0  0  0
 12  7  1  0  0  0  0
 13 10  1  0  0  0  0
 14 13  2  0  0  0  0
 15 13  1  0  0  0  0
 16 15  1  0  0  0  0
 17 16  2  0  0  0  0
 18 19  2  0  0  0  0
 18 17  1  0  0  0  0
 19 20  1  0  0  0  0
 20 34  1  0  0  0  0
 20 15  2  0  0  0  0
 21  4  1  0  0  0  0
 22 21  2  0  0  0  0
 23 35  1  0  0  0  0
 23 24  1  0  0  0  0
 24 36  1  0  0  0  0
 25  3  1  0  0  0  0
 26  9  1  0  0  0  0
 28 11  1  0  0  0  0
 30 12  1  0  0  0  0
 32 17  1  0  0  0  0
 33 18  1  0  0  0  0
M  END
>  <Pose>
1

>  <Score>
-6.00

$$$$
