
 OpenBabel03232204043D

 56 59  0  0  0  0  0  0  0  0999 V2000
   20.0580  -54.7450   31.0090 Cl  0  0  0  0  0  0  0  0  0  0  0  0
   19.4010  -56.1980   30.3470 C   0  0  0  0  0  0  0  0  0  0  0  0
   18.7360  -57.0680   31.1830 C   0  0  0  0  0  0  0  0  0  0  0  0
   18.2280  -58.2190   30.5860 C   0  0  0  0  0  0  0  0  0  0  0  0
   18.3880  -58.4640   29.2360 C   0  0  0  0  0  0  0  0  0  0  0  0
   19.0580  -57.5690   28.4430 C   0  0  0  0  0  0  0  0  0  0  0  0
   19.5650  -56.4350   28.9960 C   0  0  0  0  0  0  0  0  0  0  0  0
   18.5490  -56.8660   32.5520 N   0  0  0  0  0  0  0  0  0  0  0  0
   17.9220  -55.7140   33.1630 C   0  0  0  0  0  0  0  0  0  0  0  0
   17.5100  -56.0850   34.5850 C   0  0  0  0  0  0  0  0  0  0  0  0
   16.9660  -57.4340   34.5940 N   0  0  0  0  0  0  0  0  0  0  0  0
   17.7910  -58.5120   34.1030 C   0  0  0  0  0  0  0  0  0  0  0  0
   19.0250  -57.9080   33.4760 C   0  0  0  0  0  0  0  0  0  0  0  0
   15.6540  -57.7070   35.0720 C   0  0  0  0  0  0  0  0  0  0  0  0
   14.6710  -57.4310   34.3170 O   0  0  0  0  0  0  0  0  0  0  0  0
   15.3630  -58.2890   36.3870 C   0  0  0  0  0  0  0  0  0  0  0  0
   15.0430  -57.2920   37.4070 N   0  0  0  0  0  0  0  0  0  0  0  0
   15.6950  -56.1950   37.7360 N   0  0  0  0  0  0  0  0  0  0  0  0
   15.1040  -55.5170   38.7230 C   0  0  0  0  0  0  0  0  0  0  0  0
   13.9730  -56.2360   39.0630 C   0  0  0  0  0  0  0  0  0  0  0  0
   13.9600  -57.3330   38.2300 C   0  0  0  0  0  0  0  0  0  0  0  0
   12.9230  -58.3860   38.2390 C   0  0  0  0  0  0  0  0  0  0  0  0
   15.5650  -54.2530   39.3280 C   0  0  0  0  0  0  0  0  0  0  0  0
   14.8590  -53.6710   40.1750 O   0  0  0  0  0  0  0  0  0  0  0  0
   16.8120  -53.7230   38.9320 N   0  0  0  0  0  0  0  0  0  0  0  0
   18.0790  -54.2540   39.3500 C   0  0  0  0  0  0  0  0  0  0  0  0
   19.1490  -53.4770   38.5730 C   0  0  0  0  0  0  0  0  0  0  0  0
   18.9010  -53.5080   37.2190 O   0  0  0  0  0  0  0  0  0  0  0  0
   17.7120  -52.9240   36.8510 C   0  0  0  0  0  0  0  0  0  0  0  0
   16.8500  -52.5590   38.0410 C   0  0  0  0  0  0  0  0  0  0  0  0
   17.6980  -58.9500   31.1610 H   0  0  0  0  0  0  0  0  0  0  0  0
   17.9890  -59.3630   28.7850 H   0  0  0  0  0  0  0  0  0  0  0  0
   19.1800  -57.7740   27.3680 H   0  0  0  0  0  0  0  0  0  0  0  0
   20.1020  -55.7090   28.3740 H   0  0  0  0  0  0  0  0  0  0  0  0
   18.5950  -54.8480   33.2470 H   0  0  0  0  0  0  0  0  0  0  0  0
   16.9730  -55.4770   32.6380 H   0  0  0  0  0  0  0  0  0  0  0  0
   16.6840  -55.3990   34.8610 H   0  0  0  0  0  0  0  0  0  0  0  0
   18.3570  -55.9820   35.2910 H   0  0  0  0  0  0  0  0  0  0  0  0
   18.0400  -59.2500   34.8900 H   0  0  0  0  0  0  0  0  0  0  0  0
   17.2530  -59.0130   33.2510 H   0  0  0  0  0  0  0  0  0  0  0  0
   19.6070  -57.3880   34.2790 H   0  0  0  0  0  0  0  0  0  0  0  0
   19.6420  -58.6620   32.9460 H   0  0  0  0  0  0  0  0  0  0  0  0
   16.1880  -58.9310   36.7550 H   0  0  0  0  0  0  0  0  0  0  0  0
   14.4620  -58.9260   36.2880 H   0  0  0  0  0  0  0  0  0  0  0  0
   13.2570  -55.9770   39.8260 H   0  0  0  0  0  0  0  0  0  0  0  0
   11.9230  -57.9300   38.1050 H   0  0  0  0  0  0  0  0  0  0  0  0
   13.0940  -59.1020   37.4130 H   0  0  0  0  0  0  0  0  0  0  0  0
   12.9790  -58.9730   39.1900 H   0  0  0  0  0  0  0  0  0  0  0  0
   18.1650  -55.3320   39.1020 H   0  0  0  0  0  0  0  0  0  0  0  0
   18.2990  -54.1270   40.4150 H   0  0  0  0  0  0  0  0  0  0  0  0
   19.2760  -52.4660   38.9930 H   0  0  0  0  0  0  0  0  0  0  0  0
   20.0950  -54.0330   38.7500 H   0  0  0  0  0  0  0  0  0  0  0  0
   17.9050  -51.9790   36.2790 H   0  0  0  0  0  0  0  0  0  0  0  0
   17.1160  -53.6030   36.2120 H   0  0  0  0  0  0  0  0  0  0  0  0
   15.8260  -52.3190   37.6990 H   0  0  0  0  0  0  0  0  0  0  0  0
   17.3210  -51.7040   38.5560 H   0  0  0  0  0  0  0  0  0  0  0  0
  2  1  1  0  0  0  0
  2  3  1  0  0  0  0
  3  8  1  0  0  0  0
  4 31  1  0  0  0  0
  4  3  2  0  0  0  0
  5  4  1  0  0  0  0
  6  7  1  0  0  0  0
  6  5  2  0  0  0  0
  7  2  2  0  0  0  0
  8  9  1  0  0  0  0
  8 13  1  0  0  0  0
  9 35  1  0  0  0  0
  9 10  1  0  0  0  0
 10 11  1  0  0  0  0
 10 37  1  0  0  0  0
 10 38  1  0  0  0  0
 11 14  1  0  0  0  0
 12 11  1  0  0  0  0
 12 39  1  0  0  0  0
 13 12  1  0  0  0  0
 13 41  1  0  0  0  0
 14 16  1  0  0  0  0
 15 14  2  0  0  0  0
 16 43  1  0  0  0  0
 16 17  1  0  0  0  0
 17 18  1  0  0  0  0
 17 21  1  0  0  0  0
 18 19  2  0  0  0  0
 19 20  1  0  0  0  0
 19 23  1  0  0  0  0
 20 45  1  0  0  0  0
 21 22  1  0  0  0  0
 21 20  2  0  0  0  0
 22 48  1  0  0  0  0
 23 24  2  0  0  0  0
 25 23  1  0  0  0  0
 25 26  1  0  0  0  0
 26 50  1  0  0  0  0
 27 52  1  0  0  0  0
 27 51  1  0  0  0  0
 27 26  1  0  0  0  0
 28 27  1  0  0  0  0
 29 28  1  0  0  0  0
 29 30  1  0  0  0  0
 30 56  1  0  0  0  0
 30 25  1  0  0  0  0
 32  5  1  0  0  0  0
 33  6  1  0  0  0  0
 34  7  1  0  0  0  0
 36  9  1  0  0  0  0
 40 12  1  0  0  0  0
 42 13  1  0  0  0  0
 44 16  1  0  0  0  0
 46 22  1  0  0  0  0
 47 22  1  0  0  0  0
 49 26  1  0  0  0  0
 53 29  1  0  0  0  0
 54 29  1  0  0  0  0
 55 30  1  0  0  0  0
M  END
>  <Pose>
1

>  <Score>
-7.29

$$$$
