
 OpenBabel03232204043D

 46 49  0  0  1  0  0  0  0  0999 V2000
   18.0930  -51.8710   37.9390 Cl  0  0  0  0  0  0  0  0  0  0  0  0
   17.4830  -53.4660   37.5240 C   0  0  0  0  0  0  0  0  0  0  0  0
   16.4430  -53.9680   38.2740 C   0  0  0  0  0  0  0  0  0  0  0  0
   15.9750  -55.2000   37.9510 N   0  0  0  0  0  0  0  0  0  0  0  0
   16.4900  -55.9190   36.9410 C   0  0  0  0  0  0  0  0  0  0  0  0
   16.0310  -57.1410   36.6130 N   0  0  0  0  0  0  0  0  0  0  0  0
   15.0200  -57.7350   37.2730 C   0  0  0  0  0  0  0  0  0  0  0  0
   14.4880  -56.9950   38.3140 C   0  0  0  0  0  0  0  0  0  0  0  0
   14.9580  -55.7460   38.6490 C   0  0  0  0  0  0  0  0  0  0  0  0
   14.4390  -55.1020   39.6130 O   0  0  0  0  0  0  0  0  0  0  0  0
   14.4910  -59.0670   36.9480 C   0  0  0  0  0  0  0  0  0  0  0  0
   14.2280  -59.3220   35.5930 N   0  0  0  0  0  0  0  0  0  0  0  0
   13.1110  -58.7150   35.0000 C   0  0  0  0  0  0  0  0  0  0  0  0
   13.3810  -57.4680   34.2250 C   0  0  0  0  0  0  0  0  0  0  0  0
   14.7290  -57.4450   33.6750 N   0  0  0  0  0  0  0  0  0  0  0  0
   15.2410  -56.4980   32.8900 N   0  0  0  0  0  0  0  0  0  0  0  0
   16.5020  -56.8150   32.5840 C   0  0  0  0  0  0  0  0  0  0  0  0
   16.7790  -58.0060   33.2070 C   0  0  0  0  0  0  0  0  0  0  0  0
   15.6360  -58.4060   33.9070 C   0  0  0  0  0  0  0  0  0  0  0  0
   15.3400  -59.5890   34.7530 C   0  0  0  0  0  0  0  0  0  0  0  0
   17.4290  -56.0150   31.7240 C   0  0  1  0  0  0  0  0  0  0  0  0
   17.1770  -54.6560   31.9750 O   0  0  0  0  0  0  0  0  0  0  0  0
   18.8740  -56.2540   32.1520 C   0  0  0  0  0  0  0  0  0  0  0  0
   19.3620  -57.5370   31.4940 C   0  0  0  0  0  0  0  0  0  0  0  0
   17.5460  -55.4130   36.1750 C   0  0  0  0  0  0  0  0  0  0  0  0
   18.0420  -54.1700   36.4780 C   0  0  0  0  0  0  0  0  0  0  0  0
   16.0200  -53.4150   39.0780 H   0  0  0  0  0  0  0  0  0  0  0  0
   13.6620  -57.4310   38.8870 H   0  0  0  0  0  0  0  0  0  0  0  0
   15.2140  -59.8350   37.3230 H   0  0  0  0  0  0  0  0  0  0  0  0
   13.5510  -59.2670   37.5410 H   0  0  0  0  0  0  0  0  0  0  0  0
   12.6570  -59.4520   34.2710 H   0  0  0  0  0  0  0  0  0  0  0  0
   12.3220  -58.5740   35.7700 H   0  0  0  0  0  0  0  0  0  0  0  0
   13.2000  -56.5930   34.8750 H   0  0  0  0  0  0  0  0  0  0  0  0
   12.6610  -57.3460   33.3640 H   0  0  0  0  0  0  0  0  0  0  0  0
   17.7010  -58.5630   33.1840 H   0  0  0  0  0  0  0  0  0  0  0  0
   15.0720  -60.4700   34.0980 H   0  0  0  0  0  0  0  0  0  0  0  0
   16.2050  -59.8750   35.3840 H   0  0  0  0  0  0  0  0  0  0  0  0
   17.3110  -56.2340   30.6560 H   0  0  0  0  0  0  0  0  0  0  0  0
   16.5110  -54.2950   31.3220 H   0  0  0  0  0  0  0  0  0  0  0  0
   18.8680  -56.4110   33.2320 H   0  0  0  0  0  0  0  0  0  0  0  0
   19.5290  -55.4170   31.9040 H   0  0  0  0  0  0  0  0  0  0  0  0
   18.6010  -57.9170   30.7920 H   0  0  0  0  0  0  0  0  0  0  0  0
   20.3490  -57.3930   30.9950 H   0  0  0  0  0  0  0  0  0  0  0  0
   19.5330  -58.3440   32.2600 H   0  0  0  0  0  0  0  0  0  0  0  0
   17.9410  -56.0180   35.3660 H   0  0  0  0  0  0  0  0  0  0  0  0
   18.8590  -53.7760   35.8880 H   0  0  0  0  0  0  0  0  0  0  0  0
  2  1  1  0  0  0  0
  2  3  1  0  0  0  0
  3 27  1  0  0  0  0
  4  3  1  0  0  0  0
  4  9  1  0  0  0  0
  5  4  1  0  0  0  0
  6  5  1  0  0  0  0
  6  7  2  0  0  0  0
  7  8  1  0  0  0  0
  8  9  1  0  0  0  0
  8 28  1  0  0  0  0
  9 10  2  0  0  0  0
 11  7  1  0  0  0  0
 11 29  1  0  0  0  0
 11 30  1  0  0  0  0
 12 11  1  0  0  0  0
 13 12  1  0  0  0  0
 13 32  1  0  0  0  0
 14 33  1  0  0  0  0
 14 13  1  0  0  0  0
 15 19  1  0  0  0  0
 15 14  1  0  0  0  0
 16 15  1  0  0  0  0
 17 16  2  0  0  0  0
 17 18  1  0  0  0  0
 18 19  2  0  0  0  0
 19 20  1  0  0  0  0
 20 37  1  0  0  0  0
 20 12  1  0  0  0  0
 21 38  1  6  0  0  0
 21 22  1  0  0  0  0
 21 23  1  0  0  0  0
 21 17  1  0  0  0  0
 23 40  1  0  0  0  0
 24 23  1  0  0  0  0
 24 44  1  0  0  0  0
 25 26  1  0  0  0  0
 25  5  2  0  0  0  0
 26  2  2  0  0  0  0
 31 13  1  0  0  0  0
 34 14  1  0  0  0  0
 35 18  1  0  0  0  0
 36 20  1  0  0  0  0
 39 22  1  0  0  0  0
 41 23  1  0  0  0  0
 42 24  1  0  0  0  0
 43 24  1  0  0  0  0
 45 25  1  0  0  0  0
 46 26  1  0  0  0  0
M  END
>  <Pose>
1

>  <Score>
-7.31

$$$$
