
 OpenBabel03232204043D

 45 48  0  0  1  0  0  0  0  0999 V2000
    9.7830  -59.3250   43.8920 Cl  0  0  0  0  0  0  0  0  0  0  0  0
   10.2150  -59.4870   42.1830 C   0  0  0  0  0  0  0  0  0  0  0  0
   11.4450  -59.9220   41.8120 C   0  0  0  0  0  0  0  0  0  0  0  0
   11.7540  -60.0390   40.4560 C   0  0  0  0  0  0  0  0  0  0  0  0
   10.8830  -59.7400   39.4380 C   0  0  0  0  0  0  0  0  0  0  0  0
    9.6260  -59.2930   39.8810 C   0  0  0  0  0  0  0  0  0  0  0  0
    9.2980  -59.1700   41.2150 C   0  0  0  0  0  0  0  0  0  0  0  0
   11.1120  -59.8650   38.0250 C   0  0  0  0  0  0  0  0  0  0  0  0
    9.9890  -60.0350   37.3450 O   0  0  0  0  0  0  0  0  0  0  0  0
   12.2890  -59.8410   37.2580 N   0  0  0  0  0  0  0  0  0  0  0  0
   13.3660  -58.9370   37.4550 C   0  0  0  0  0  0  0  0  0  0  0  0
   14.5480  -59.3740   36.5740 C   0  0  1  0  0  0  0  0  0  0  0  0
   14.0470  -59.3650   35.2240 N   0  0  0  0  0  0  0  0  0  0  0  0
   12.9590  -60.2330   34.9220 C   0  0  0  0  0  0  0  0  0  0  0  0
   12.3630  -60.8270   36.1810 C   0  0  0  0  0  0  0  0  0  0  0  0
   14.6140  -58.5270   34.2480 C   0  0  0  0  0  0  0  0  0  0  0  0
   14.4430  -58.8020   33.0470 O   0  0  0  0  0  0  0  0  0  0  0  0
   15.3930  -57.3500   34.6830 C   0  0  1  0  0  0  0  0  0  0  0  0
   16.2870  -57.8000   35.7100 N   0  0  0  0  0  0  0  0  0  0  0  0
   15.7380  -58.5500   36.7790 C   0  0  0  0  0  0  0  0  0  0  0  0
   16.2570  -58.5330   37.9390 O   0  0  0  0  0  0  0  0  0  0  0  0
   16.0310  -56.6030   33.5750 C   0  0  0  0  0  0  0  0  0  0  0  0
   16.8820  -57.5050   32.7810 C   0  0  0  0  0  0  0  0  0  0  0  0
   16.6430  -58.0340   31.5790 N   0  0  0  0  0  0  0  0  0  0  0  0
   17.7030  -58.8140   31.2130 C   0  0  0  0  0  0  0  0  0  0  0  0
   18.6140  -58.7800   32.1880 N   0  0  0  0  0  0  0  0  0  0  0  0
   18.1370  -57.9890   33.1540 C   0  0  0  0  0  0  0  0  0  0  0  0
   12.1580  -60.1680   42.5740 H   0  0  0  0  0  0  0  0  0  0  0  0
   12.7460  -60.3680   40.2280 H   0  0  0  0  0  0  0  0  0  0  0  0
    8.8810  -59.0380   39.1240 H   0  0  0  0  0  0  0  0  0  0  0  0
    8.2930  -58.8140   41.4530 H   0  0  0  0  0  0  0  0  0  0  0  0
   13.7130  -58.8950   38.5100 H   0  0  0  0  0  0  0  0  0  0  0  0
   13.0390  -57.9260   37.1570 H   0  0  0  0  0  0  0  0  0  0  0  0
   14.7460  -60.4280   36.8630 H   0  0  0  0  0  0  0  0  0  0  0  0
   13.3380  -61.0580   34.2830 H   0  0  0  0  0  0  0  0  0  0  0  0
   12.1280  -59.7540   34.3640 H   0  0  0  0  0  0  0  0  0  0  0  0
   11.3460  -61.1940   35.9870 H   0  0  0  0  0  0  0  0  0  0  0  0
   13.0000  -61.6680   36.5060 H   0  0  0  0  0  0  0  0  0  0  0  0
   14.7160  -56.5940   35.2010 H   0  0  0  0  0  0  0  0  0  0  0  0
   17.3160  -57.5920   35.6950 H   0  0  0  0  0  0  0  0  0  0  0  0
   15.2570  -56.0970   32.9560 H   0  0  0  0  0  0  0  0  0  0  0  0
   16.6320  -55.7590   34.0100 H   0  0  0  0  0  0  0  0  0  0  0  0
   17.7310  -59.3510   30.2640 H   0  0  0  0  0  0  0  0  0  0  0  0
   19.5140  -59.2690   32.1990 H   0  0  0  0  0  0  0  0  0  0  0  0
   18.5860  -57.7180   34.0990 H   0  0  0  0  0  0  0  0  0  0  0  0
  2  1  1  0  0  0  0
  3  2  1  0  0  0  0
  3 28  1  0  0  0  0
  4  3  2  0  0  0  0
  5  6  2  0  0  0  0
  5  4  1  0  0  0  0
  6  7  1  0  0  0  0
  7 31  1  0  0  0  0
  7  2  2  0  0  0  0
  8  5  1  0  0  0  0
  9  8  2  0  0  0  0
 10 11  1  0  0  0  0
 10  8  1  0  0  0  0
 11 32  1  0  0  0  0
 12 20  1  0  0  0  0
 12 34  1  1  0  0  0
 12 11  1  0  0  0  0
 13 12  1  0  0  0  0
 14 13  1  0  0  0  0
 14 15  1  0  0  0  0
 15 38  1  0  0  0  0
 15 10  1  0  0  0  0
 16 18  1  0  0  0  0
 16 13  1  0  0  0  0
 17 16  2  0  0  0  0
 18 39  1  1  0  0  0
 18 19  1  0  0  0  0
 19 20  1  0  0  0  0
 20 21  2  0  0  0  0
 22 42  1  0  0  0  0
 22 18  1  0  0  0  0
 23 27  2  0  0  0  0
 23 22  1  0  0  0  0
 24 23  1  0  0  0  0
 25 24  2  0  0  0  0
 25 26  1  0  0  0  0
 26 44  1  0  0  0  0
 26 27  1  0  0  0  0
 27 45  1  0  0  0  0
 29  4  1  0  0  0  0
 30  6  1  0  0  0  0
 33 11  1  0  0  0  0
 35 14  1  0  0  0  0
 36 14  1  0  0  0  0
 37 15  1  0  0  0  0
 40 19  1  0  0  0  0
 41 22  1  0  0  0  0
 43 25  1  0  0  0  0
M  END
>  <Pose>
1

>  <Score>
-6.00

$$$$
