
 OpenBabel03232204043D

 43 46  0  0  0  0  0  0  0  0999 V2000
   16.8910  -55.9380   36.3610 Cl  0  0  0  0  0  0  0  0  0  0  0  0
   15.6970  -56.0620   37.6330 C   0  0  0  0  0  0  0  0  0  0  0  0
   15.7440  -55.2190   38.7080 C   0  0  0  0  0  0  0  0  0  0  0  0
   14.7490  -55.4210   39.6680 C   0  0  0  0  0  0  0  0  0  0  0  0
   13.8270  -56.3840   39.5120 N   0  0  0  0  0  0  0  0  0  0  0  0
   13.7640  -57.2040   38.4880 N   0  0  0  0  0  0  0  0  0  0  0  0
   14.6990  -57.0480   37.5410 C   0  0  0  0  0  0  0  0  0  0  0  0
   14.7220  -57.7840   36.5220 O   0  0  0  0  0  0  0  0  0  0  0  0
   12.7510  -58.2010   38.4000 C   0  0  0  0  0  0  0  0  0  0  0  0
   12.3120  -58.7150   37.1960 C   0  0  0  0  0  0  0  0  0  0  0  0
   11.3310  -59.6800   37.1220 C   0  0  0  0  0  0  0  0  0  0  0  0
   10.7430  -60.1730   38.2700 C   0  0  0  0  0  0  0  0  0  0  0  0
   11.1770  -59.6650   39.4760 C   0  0  0  0  0  0  0  0  0  0  0  0
   12.1610  -58.6970   39.5450 C   0  0  0  0  0  0  0  0  0  0  0  0
   16.7060  -54.1920   38.8520 N   0  0  0  0  0  0  0  0  0  0  0  0
   16.3680  -52.7800   38.7830 C   0  0  0  0  0  0  0  0  0  0  0  0
   17.0410  -52.1030   37.6170 C   0  0  0  0  0  0  0  0  0  0  0  0
   18.3820  -52.6310   37.5470 N   0  0  0  0  0  0  0  0  0  0  0  0
   18.9490  -53.1930   38.7460 C   0  0  0  0  0  0  0  0  0  0  0  0
   18.1250  -54.4610   39.0570 C   0  0  0  0  0  0  0  0  0  0  0  0
   19.1220  -52.5990   36.3410 C   0  0  0  0  0  0  0  0  0  0  0  0
   20.0400  -51.6650   35.9580 N   0  0  0  0  0  0  0  0  0  0  0  0
   20.5130  -51.9820   34.7690 N   0  0  0  0  0  0  0  0  0  0  0  0
   19.9160  -53.1020   34.3810 C   0  0  0  0  0  0  0  0  0  0  0  0
   19.0920  -53.4500   35.3330 O   0  0  0  0  0  0  0  0  0  0  0  0
   20.1000  -53.8740   33.1090 C   0  0  0  0  0  0  0  0  0  0  0  0
   14.7420  -54.7820   40.5240 H   0  0  0  0  0  0  0  0  0  0  0  0
   12.7730  -58.3280   36.2870 H   0  0  0  0  0  0  0  0  0  0  0  0
   11.0050  -60.0660   36.1520 H   0  0  0  0  0  0  0  0  0  0  0  0
    9.9740  -60.9320   38.2060 H   0  0  0  0  0  0  0  0  0  0  0  0
   10.7290  -60.0400   40.3730 H   0  0  0  0  0  0  0  0  0  0  0  0
   12.5050  -58.2950   40.4960 H   0  0  0  0  0  0  0  0  0  0  0  0
   16.8020  -52.3000   39.7060 H   0  0  0  0  0  0  0  0  0  0  0  0
   15.3200  -52.5360   38.7860 H   0  0  0  0  0  0  0  0  0  0  0  0
   16.5340  -52.3450   36.6440 H   0  0  0  0  0  0  0  0  0  0  0  0
   17.0170  -51.0040   37.6990 H   0  0  0  0  0  0  0  0  0  0  0  0
   18.8300  -52.4710   39.5720 H   0  0  0  0  0  0  0  0  0  0  0  0
   20.0120  -53.4570   38.6170 H   0  0  0  0  0  0  0  0  0  0  0  0
   18.3840  -54.7020   40.0980 H   0  0  0  0  0  0  0  0  0  0  0  0
   18.5100  -55.1910   38.3010 H   0  0  0  0  0  0  0  0  0  0  0  0
   21.1730  -53.9310   32.8410 H   0  0  0  0  0  0  0  0  0  0  0  0
   19.7580  -54.9220   33.2360 H   0  0  0  0  0  0  0  0  0  0  0  0
   19.4690  -53.4060   32.3480 H   0  0  0  0  0  0  0  0  0  0  0  0
  1  2  1  0  0  0  0
  2  3  2  0  0  0  0
  3 15  1  0  0  0  0
  3  4  1  0  0  0  0
  4 27  1  0  0  0  0
  5  4  2  0  0  0  0
  6  5  1  0  0  0  0
  7  2  1  0  0  0  0
  7  6  1  0  0  0  0
  8  7  2  0  0  0  0
  9  6  1  0  0  0  0
  9 14  1  0  0  0  0
 10  9  2  0  0  0  0
 11 10  1  0  0  0  0
 11 12  2  0  0  0  0
 12 13  1  0  0  0  0
 13 14  2  0  0  0  0
 13 31  1  0  0  0  0
 14 32  1  0  0  0  0
 15 20  1  0  0  0  0
 16 34  1  0  0  0  0
 16 15  1  0  0  0  0
 16 33  1  0  0  0  0
 17 36  1  0  0  0  0
 17 16  1  0  0  0  0
 18 17  1  0  0  0  0
 18 19  1  0  0  0  0
 19 20  1  0  0  0  0
 19 37  1  0  0  0  0
 20 39  1  0  0  0  0
 21 18  1  0  0  0  0
 22 21  2  0  0  0  0
 23 22  1  0  0  0  0
 24 23  2  0  0  0  0
 24 25  1  0  0  0  0
 25 21  1  0  0  0  0
 26 42  1  0  0  0  0
 26 24  1  0  0  0  0
 28 10  1  0  0  0  0
 29 11  1  0  0  0  0
 30 12  1  0  0  0  0
 35 17  1  0  0  0  0
 38 19  1  0  0  0  0
 40 20  1  0  0  0  0
 41 26  1  0  0  0  0
 43 26  1  0  0  0  0
M  END
>  <Pose>
1

>  <Score>
-6.27

$$$$
