
 OpenBabel03232204043D

 45 48  0  0  0  0  0  0  0  0999 V2000
   19.8490  -51.6510   36.7710 Cl  0  0  0  0  0  0  0  0  0  0  0  0
   18.5560  -52.7530   37.2640 C   0  0  0  0  0  0  0  0  0  0  0  0
   18.4190  -53.9510   36.5970 C   0  0  0  0  0  0  0  0  0  0  0  0
   17.4160  -54.8180   36.9720 C   0  0  0  0  0  0  0  0  0  0  0  0
   16.5520  -54.5050   38.0000 C   0  0  0  0  0  0  0  0  0  0  0  0
   16.7280  -53.2900   38.6420 C   0  0  0  0  0  0  0  0  0  0  0  0
   17.7160  -52.3970   38.2990 C   0  0  0  0  0  0  0  0  0  0  0  0
   15.5060  -55.3860   38.4060 N   0  0  0  0  0  0  0  0  0  0  0  0
   14.5630  -55.1830   39.2930 N   0  0  0  0  0  0  0  0  0  0  0  0
   13.7650  -56.2870   39.3760 C   0  0  0  0  0  0  0  0  0  0  0  0
   14.2430  -57.2260   38.4880 C   0  0  0  0  0  0  0  0  0  0  0  0
   15.3500  -56.6180   37.8890 C   0  0  0  0  0  0  0  0  0  0  0  0
   19.3280  -54.3010   35.5020 C   0  0  0  0  0  0  0  0  0  0  0  0
   20.4400  -54.7820   35.8390 O   0  0  0  0  0  0  0  0  0  0  0  0
   18.9670  -54.1030   34.1410 N   0  0  0  0  0  0  0  0  0  0  0  0
   19.9960  -54.2000   33.1290 C   0  0  0  0  0  0  0  0  0  0  0  0
   19.3080  -54.6130   31.8400 C   0  0  0  0  0  0  0  0  0  0  0  0
   18.1550  -55.5600   32.0920 C   0  0  0  0  0  0  0  0  0  0  0  0
   17.7230  -56.0570   30.8060 N   0  0  0  0  0  0  0  0  0  0  0  0
   18.5120  -57.1900   30.4770 C   0  0  0  0  0  0  0  0  0  0  0  0
   18.7040  -57.7050   29.3310 O   0  0  0  0  0  0  0  0  0  0  0  0
   19.0640  -57.6540   31.7130 N   0  0  0  0  0  0  0  0  0  0  0  0
   18.6070  -56.8040   32.7660 C   0  0  0  0  0  0  0  0  0  0  0  0
   18.6070  -57.0900   33.9940 O   0  0  0  0  0  0  0  0  0  0  0  0
   19.9520  -58.8010   31.9190 C   0  0  0  0  0  0  0  0  0  0  0  0
   17.0440  -54.9110   32.8630 C   0  0  0  0  0  0  0  0  0  0  0  0
   17.6240  -53.8090   33.6960 C   0  0  0  0  0  0  0  0  0  0  0  0
   17.2540  -55.7740   36.4880 H   0  0  0  0  0  0  0  0  0  0  0  0
   16.0510  -53.0370   39.4530 H   0  0  0  0  0  0  0  0  0  0  0  0
   17.8200  -51.4410   38.8350 H   0  0  0  0  0  0  0  0  0  0  0  0
   12.9020  -56.4540   40.0040 H   0  0  0  0  0  0  0  0  0  0  0  0
   13.8460  -58.2210   38.2960 H   0  0  0  0  0  0  0  0  0  0  0  0
   15.9680  -57.0830   37.1330 H   0  0  0  0  0  0  0  0  0  0  0  0
   20.4780  -53.2100   33.0040 H   0  0  0  0  0  0  0  0  0  0  0  0
   20.7230  -55.0000   33.3770 H   0  0  0  0  0  0  0  0  0  0  0  0
   18.9450  -53.7130   31.3050 H   0  0  0  0  0  0  0  0  0  0  0  0
   20.0260  -55.1080   31.1570 H   0  0  0  0  0  0  0  0  0  0  0  0
   16.9630  -55.6380   30.2380 H   0  0  0  0  0  0  0  0  0  0  0  0
   20.6850  -58.6020   32.7380 H   0  0  0  0  0  0  0  0  0  0  0  0
   20.4870  -59.0290   30.9800 H   0  0  0  0  0  0  0  0  0  0  0  0
   19.3690  -59.6830   32.2410 H   0  0  0  0  0  0  0  0  0  0  0  0
   16.5790  -55.6960   33.4970 H   0  0  0  0  0  0  0  0  0  0  0  0
   16.3220  -54.4900   32.1310 H   0  0  0  0  0  0  0  0  0  0  0  0
   17.6990  -52.8980   33.0400 H   0  0  0  0  0  0  0  0  0  0  0  0
   16.9610  -53.5120   34.5410 H   0  0  0  0  0  0  0  0  0  0  0  0
  1  2  1  0  0  0  0
  2  7  1  0  0  0  0
  3  4  1  0  0  0  0
  3  2  2  0  0  0  0
  4  5  2  0  0  0  0
  5  8  1  0  0  0  0
  5  6  1  0  0  0  0
  6 29  1  0  0  0  0
  7  6  2  0  0  0  0
  7 30  1  0  0  0  0
  8  9  1  0  0  0  0
  9 10  2  0  0  0  0
 10 31  1  0  0  0  0
 11 10  1  0  0  0  0
 12  8  1  0  0  0  0
 12 11  2  0  0  0  0
 13 14  2  0  0  0  0
 13  3  1  0  0  0  0
 15 13  1  0  0  0  0
 16 35  1  0  0  0  0
 16 15  1  0  0  0  0
 17 18  1  0  0  0  0
 17 16  1  0  0  0  0
 18 23  1  0  0  0  0
 18 26  1  0  0  0  0
 19 18  1  0  0  0  0
 20 19  1  0  0  0  0
 20 22  1  0  0  0  0
 21 20  2  0  0  0  0
 22 25  1  0  0  0  0
 22 23  1  0  0  0  0
 23 24  2  0  0  0  0
 25 41  1  0  0  0  0
 25 39  1  0  0  0  0
 26 42  1  0  0  0  0
 26 27  1  0  0  0  0
 27 15  1  0  0  0  0
 27 45  1  0  0  0  0
 28  4  1  0  0  0  0
 32 11  1  0  0  0  0
 33 12  1  0  0  0  0
 34 16  1  0  0  0  0
 36 17  1  0  0  0  0
 37 17  1  0  0  0  0
 38 19  1  0  0  0  0
 40 25  1  0  0  0  0
 43 26  1  0  0  0  0
 44 27  1  0  0  0  0
M  END
>  <Pose>
1

>  <Score>
-6.43

$$$$
