
 OpenBabel03232204043D

 42 45  0  0  1  0  0  0  0  0999 V2000
   13.6130  -57.1310   38.4850 Cl  0  0  0  0  0  0  0  0  0  0  0  0
   14.7770  -57.0750   37.1790 C   0  0  0  0  0  0  0  0  0  0  0  0
   14.5630  -57.7070   35.9780 C   0  0  0  0  0  0  0  0  0  0  0  0
   15.4690  -57.6830   34.9250 C   0  0  0  0  0  0  0  0  0  0  0  0
   16.6480  -56.9720   35.1300 C   0  0  0  0  0  0  0  0  0  0  0  0
   16.8880  -56.3300   36.3240 C   0  0  0  0  0  0  0  0  0  0  0  0
   15.9580  -56.3830   37.3400 C   0  0  0  0  0  0  0  0  0  0  0  0
   15.1960  -58.3810   33.6440 C   0  0  1  0  0  0  0  0  0  0  0  0
   16.3760  -58.8510   32.9760 N   0  0  0  0  0  0  0  0  0  0  0  0
   16.6100  -60.2230   33.2760 C   0  0  0  0  0  0  0  0  0  0  0  0
   17.6780  -60.8780   33.0960 O   0  0  0  0  0  0  0  0  0  0  0  0
   15.3640  -60.7730   33.8490 C   0  0  0  0  0  0  0  0  0  0  0  0
   15.2090  -61.9550   34.2330 O   0  0  0  0  0  0  0  0  0  0  0  0
   14.4280  -59.6570   33.8570 C   0  0  0  0  0  0  0  0  0  0  0  0
   13.1340  -59.7870   34.0570 C   0  0  0  0  0  0  0  0  0  0  0  0
   12.3690  -58.6030   34.0850 O   0  0  0  0  0  0  0  0  0  0  0  0
   12.4520  -61.0600   34.2450 C   0  0  0  0  0  0  0  0  0  0  0  0
   12.3920  -61.9750   33.1830 C   0  0  0  0  0  0  0  0  0  0  0  0
   11.7790  -63.1990   33.3400 C   0  0  0  0  0  0  0  0  0  0  0  0
   11.2020  -63.5860   34.5310 C   0  0  0  0  0  0  0  0  0  0  0  0
   11.2510  -62.7030   35.5860 C   0  0  0  0  0  0  0  0  0  0  0  0
   11.8720  -61.4640   35.4250 C   0  0  0  0  0  0  0  0  0  0  0  0
   17.2040  -58.0740   32.1370 C   0  0  1  0  0  0  0  0  0  0  0  0
   18.4950  -58.4870   32.0280 N   0  0  0  0  0  0  0  0  0  0  0  0
   19.3760  -57.8390   31.2680 C   0  0  0  0  0  0  0  0  0  0  0  0
   18.9470  -56.7270   30.5800 C   0  0  0  0  0  0  0  0  0  0  0  0
   17.6330  -56.3280   30.7050 C   0  0  0  0  0  0  0  0  0  0  0  0
   16.7500  -56.9860   31.4770 N   0  0  0  0  0  0  0  0  0  0  0  0
   13.6320  -58.2460   35.8780 H   0  0  0  0  0  0  0  0  0  0  0  0
   17.3680  -56.9460   34.3170 H   0  0  0  0  0  0  0  0  0  0  0  0
   17.8220  -55.7690   36.4830 H   0  0  0  0  0  0  0  0  0  0  0  0
   16.1550  -55.8750   38.2730 H   0  0  0  0  0  0  0  0  0  0  0  0
   14.6240  -57.6720   33.0080 H   0  0  0  0  0  0  0  0  0  0  0  0
   12.8500  -61.6630   32.2480 H   0  0  0  0  0  0  0  0  0  0  0  0
   11.7560  -63.8710   32.4940 H   0  0  0  0  0  0  0  0  0  0  0  0
   10.7180  -64.5420   34.6780 H   0  0  0  0  0  0  0  0  0  0  0  0
   10.7980  -62.9880   36.5430 H   0  0  0  0  0  0  0  0  0  0  0  0
   11.9080  -60.8000   36.2940 H   0  0  0  0  0  0  0  0  0  0  0  0
   18.8330  -59.3420   32.5500 H   0  0  0  0  0  0  0  0  0  0  0  0
   20.3950  -58.2000   31.2100 H   0  0  0  0  0  0  0  0  0  0  0  0
   19.6540  -56.1940   29.9590 H   0  0  0  0  0  0  0  0  0  0  0  0
   17.3440  -55.4500   30.1440 H   0  0  0  0  0  0  0  0  0  0  0  0
  2  7  1  0  0  0  0
  2  1  1  0  0  0  0
  3  2  2  0  0  0  0
  4  5  2  0  0  0  0
  4  3  1  0  0  0  0
  5  6  1  0  0  0  0
  6 31  1  0  0  0  0
  6  7  2  0  0  0  0
  7 32  1  0  0  0  0
  8 33  1  6  0  0  0
  8 14  1  0  0  0  0
  8  4  1  0  0  0  0
  9 10  1  0  0  0  0
  9  8  1  0  0  0  0
 10 12  1  0  0  0  0
 11 10  2  0  0  0  0
 12 14  1  0  0  0  0
 12 13  2  0  0  0  0
 14 15  2  0  0  0  0
 15 16  1  0  0  0  0
 15 17  1  0  0  0  0
 17 22  1  0  0  0  0
 18 19  1  0  0  0  0
 18 17  2  0  0  0  0
 19 20  2  0  0  0  0
 20 36  1  0  0  0  0
 20 21  1  0  0  0  0
 21 37  1  0  0  0  0
 22 21  2  0  0  0  0
 22 38  1  0  0  0  0
 23  9  1  6  0  0  0
 24 23  1  0  0  0  0
 24 39  1  0  0  0  0
 25 24  1  0  0  0  0
 26 27  1  0  0  0  0
 26 25  2  0  0  0  0
 27 28  2  0  0  0  0
 28 23  1  0  0  0  0
 29  3  1  0  0  0  0
 30  5  1  0  0  0  0
 34 18  1  0  0  0  0
 35 19  1  0  0  0  0
 40 25  1  0  0  0  0
 41 26  1  0  0  0  0
 42 27  1  0  0  0  0
M  END
>  <Pose>
1

>  <Score>
-5.68

$$$$
