
 OpenBabel03232204043D

 63 66  0  0  0  0  0  0  0  0999 V2000
   12.5510  -59.7380   36.4680 S   0  0  0  0  0  0  0  0  0  0  0  0
   11.4110  -59.2790   35.6190 O   0  0  0  0  0  0  0  0  0  0  0  0
   12.8990  -61.1820   36.2120 O   0  0  0  0  0  0  0  0  0  0  0  0
   13.9970  -58.7920   36.1800 C   0  0  0  0  0  0  0  0  0  0  0  0
   14.0550  -57.8550   35.1560 C   0  0  0  0  0  0  0  0  0  0  0  0
   15.1960  -57.1400   34.9610 N   0  0  0  0  0  0  0  0  0  0  0  0
   16.2880  -57.2970   35.7210 C   0  0  0  0  0  0  0  0  0  0  0  0
   16.2380  -58.2020   36.7140 N   0  0  0  0  0  0  0  0  0  0  0  0
   15.1340  -58.9320   36.9460 C   0  0  0  0  0  0  0  0  0  0  0  0
   17.4840  -56.5500   35.5120 N   0  0  0  0  0  0  0  0  0  0  0  0
   17.6740  -55.7080   34.3560 C   0  0  0  0  0  0  0  0  0  0  0  0
   18.0380  -54.2850   34.6780 C   0  0  0  0  0  0  0  0  0  0  0  0
   18.7040  -54.1570   36.0380 C   0  0  0  0  0  0  0  0  0  0  0  0
   19.4990  -55.4670   36.1740 C   0  0  0  0  0  0  0  0  0  0  0  0
   18.5800  -56.6070   36.4630 C   0  0  0  0  0  0  0  0  0  0  0  0
   17.8380  -54.0410   37.1110 N   0  0  0  0  0  0  0  0  0  0  0  0
   16.5700  -53.4350   36.9880 C   0  0  0  0  0  0  0  0  0  0  0  0
   15.6280  -54.1430   37.9770 C   0  0  0  0  0  0  0  0  0  0  0  0
   16.4720  -54.7520   39.0640 C   0  0  0  0  0  0  0  0  0  0  0  0
   17.6160  -53.8610   39.4750 C   0  0  0  0  0  0  0  0  0  0  0  0
   18.4620  -53.4710   38.2740 C   0  0  0  0  0  0  0  0  0  0  0  0
   19.7180  -53.0820   35.9440 C   0  0  0  0  0  0  0  0  0  0  0  0
   20.5510  -53.0540   34.9760 O   0  0  0  0  0  0  0  0  0  0  0  0
   19.8360  -52.0490   36.8810 N   0  0  0  0  0  0  0  0  0  0  0  0
   12.9060  -57.6940   34.3610 N   0  0  0  0  0  0  0  0  0  0  0  0
   12.1400  -59.5820   38.1830 C   0  0  0  0  0  0  0  0  0  0  0  0
   12.2220  -58.3520   38.8030 C   0  0  0  0  0  0  0  0  0  0  0  0
   11.8920  -58.2770   40.1400 C   0  0  0  0  0  0  0  0  0  0  0  0
   11.4880  -59.3990   40.8560 C   0  0  0  0  0  0  0  0  0  0  0  0
   11.4180  -60.6090   40.2010 C   0  0  0  0  0  0  0  0  0  0  0  0
   11.7420  -60.7160   38.8640 C   0  0  0  0  0  0  0  0  0  0  0  0
   10.9060  -62.0460   41.0960 Cl  0  0  0  0  0  0  0  0  0  0  0  0
   12.6240  -57.2720   38.0680 O   0  0  0  0  0  0  0  0  0  0  0  0
   13.7970  -56.5360   38.2780 C   0  0  0  0  0  0  0  0  0  0  0  0
   15.0920  -59.6740   37.7580 H   0  0  0  0  0  0  0  0  0  0  0  0
   18.4890  -56.2150   33.7560 H   0  0  0  0  0  0  0  0  0  0  0  0
   16.7910  -55.7430   33.6710 H   0  0  0  0  0  0  0  0  0  0  0  0
   18.8110  -53.9920   33.9340 H   0  0  0  0  0  0  0  0  0  0  0  0
   17.2080  -53.5710   34.5480 H   0  0  0  0  0  0  0  0  0  0  0  0
   20.3810  -55.3750   36.8050 H   0  0  0  0  0  0  0  0  0  0  0  0
   19.9180  -55.6790   35.1380 H   0  0  0  0  0  0  0  0  0  0  0  0
   18.1930  -56.6680   37.4880 H   0  0  0  0  0  0  0  0  0  0  0  0
   19.0990  -57.5890   36.2250 H   0  0  0  0  0  0  0  0  0  0  0  0
   16.5880  -52.3750   37.3850 H   0  0  0  0  0  0  0  0  0  0  0  0
   16.0800  -53.4720   36.0260 H   0  0  0  0  0  0  0  0  0  0  0  0
   14.8740  -53.4340   38.3880 H   0  0  0  0  0  0  0  0  0  0  0  0
   15.0960  -54.9650   37.4120 H   0  0  0  0  0  0  0  0  0  0  0  0
   16.9180  -55.7140   38.6900 H   0  0  0  0  0  0  0  0  0  0  0  0
   15.8810  -54.9490   39.9900 H   0  0  0  0  0  0  0  0  0  0  0  0
   18.2240  -54.4370   40.2190 H   0  0  0  0  0  0  0  0  0  0  0  0
   17.2150  -52.9950   40.0280 H   0  0  0  0  0  0  0  0  0  0  0  0
   19.5160  -53.6590   38.4150 H   0  0  0  0  0  0  0  0  0  0  0  0
   18.3100  -52.3500   38.1920 H   0  0  0  0  0  0  0  0  0  0  0  0
   20.2990  -52.2650   37.8060 H   0  0  0  0  0  0  0  0  0  0  0  0
   19.5180  -51.0660   36.7670 H   0  0  0  0  0  0  0  0  0  0  0  0
   12.7540  -58.1920   33.4600 H   0  0  0  0  0  0  0  0  0  0  0  0
   12.1570  -57.0450   34.6790 H   0  0  0  0  0  0  0  0  0  0  0  0
   11.9430  -57.3270   40.6670 H   0  0  0  0  0  0  0  0  0  0  0  0
   11.2410  -59.2920   41.8940 H   0  0  0  0  0  0  0  0  0  0  0  0
   11.6800  -61.6910   38.3560 H   0  0  0  0  0  0  0  0  0  0  0  0
   14.6550  -57.0970   37.8710 H   0  0  0  0  0  0  0  0  0  0  0  0
   13.7280  -55.5920   37.6760 H   0  0  0  0  0  0  0  0  0  0  0  0
   13.9480  -56.2170   39.3230 H   0  0  0  0  0  0  0  0  0  0  0  0
  1 26  1  0  0  0  0
  2  1  2  0  0  0  0
  3  1  2  0  0  0  0
  4  1  1  0  0  0  0
  4  9  1  0  0  0  0
  5  4  2  0  0  0  0
  6  5  1  0  0  0  0
  6  7  2  0  0  0  0
  7  8  1  0  0  0  0
  8  9  2  0  0  0  0
  9 35  1  0  0  0  0
 10  7  1  0  0  0  0
 10 15  1  0  0  0  0
 11 12  1  0  0  0  0
 11 10  1  0  0  0  0
 12 13  1  0  0  0  0
 13 14  1  0  0  0  0
 13 16  1  0  0  0  0
 14 15  1  0  0  0  0
 14 40  1  0  0  0  0
 15 42  1  0  0  0  0
 16 21  1  0  0  0  0
 17 16  1  0  0  0  0
 17 44  1  0  0  0  0
 17 18  1  0  0  0  0
 18 46  1  0  0  0  0
 18 19  1  0  0  0  0
 19 20  1  0  0  0  0
 19 49  1  0  0  0  0
 20 51  1  0  0  0  0
 20 50  1  0  0  0  0
 21 52  1  0  0  0  0
 21 20  1  0  0  0  0
 22 13  1  0  0  0  0
 22 24  1  0  0  0  0
 23 22  2  0  0  0  0
 24 54  1  0  0  0  0
 25 57  1  0  0  0  0
 25  5  1  0  0  0  0
 26 27  2  0  0  0  0
 26 31  1  0  0  0  0
 27 28  1  0  0  0  0
 28 58  1  0  0  0  0
 28 29  2  0  0  0  0
 29 59  1  0  0  0  0
 30 29  1  0  0  0  0
 30 32  1  0  0  0  0
 31 30  2  0  0  0  0
 33 34  1  0  0  0  0
 33 27  1  0  0  0  0
 34 63  1  0  0  0  0
 36 11  1  0  0  0  0
 37 11  1  0  0  0  0
 38 12  1  0  0  0  0
 39 12  1  0  0  0  0
 41 14  1  0  0  0  0
 43 15  1  0  0  0  0
 45 17  1  0  0  0  0
 47 18  1  0  0  0  0
 48 19  1  0  0  0  0
 53 21  1  0  0  0  0
 55 24  1  0  0  0  0
 56 25  1  0  0  0  0
 60 31  1  0  0  0  0
 61 34  1  0  0  0  0
 62 34  1  0  0  0  0
M  END
>  <Pose>
1

>  <Score>
-5.46

$$$$
