
 OpenBabel03232204043D

 61 64  0  0  1  0  0  0  0  0999 V2000
   13.9640  -58.9950   38.1750 Cl  0  0  0  0  0  0  0  0  0  0  0  0
   14.8590  -57.5140   37.8080 C   0  0  0  0  0  0  0  0  0  0  0  0
   14.7970  -56.4370   38.6650 C   0  0  0  0  0  0  0  0  0  0  0  0
   15.4870  -55.3030   38.3810 C   0  0  0  0  0  0  0  0  0  0  0  0
   16.2620  -55.2170   37.2170 C   0  0  0  0  0  0  0  0  0  0  0  0
   16.3080  -56.3030   36.3770 C   0  0  0  0  0  0  0  0  0  0  0  0
   15.6100  -57.4710   36.6530 C   0  0  0  0  0  0  0  0  0  0  0  0
   16.9890  -54.0310   36.9130 N   0  0  0  0  0  0  0  0  0  0  0  0
   17.4040  -53.1600   38.0030 C   0  0  2  0  0  0  0  0  0  0  0  0
   16.2410  -52.9720   38.8380 N   0  0  0  0  0  0  0  0  0  0  0  0
   15.4870  -54.1090   39.2240 C   0  0  0  0  0  0  0  0  0  0  0  0
   14.7990  -54.1540   40.2770 O   0  0  0  0  0  0  0  0  0  0  0  0
   17.8420  -51.8560   37.4270 C   0  0  0  0  0  0  0  0  0  0  0  0
   19.2970  -51.8400   37.0160 C   0  0  0  0  0  0  0  0  0  0  0  0
   19.6550  -53.0070   36.2380 N   0  0  0  0  0  0  0  0  0  0  0  0
   19.5590  -54.3590   36.7520 C   0  0  0  0  0  0  0  0  0  0  0  0
   19.7690  -55.2640   35.9130 O   0  0  0  0  0  0  0  0  0  0  0  0
   19.2530  -54.8360   38.1110 C   0  0  0  0  0  0  0  0  0  0  0  0
   18.4460  -53.8300   38.8760 C   0  0  0  0  0  0  0  0  0  0  0  0
   20.0990  -52.8860   34.9100 C   0  0  0  0  0  0  0  0  0  0  0  0
   19.9820  -53.9650   33.9540 C   0  0  0  0  0  0  0  0  0  0  0  0
   21.1180  -54.1280   33.2740 O   0  0  0  0  0  0  0  0  0  0  0  0
   18.9320  -54.8050   33.6610 N   0  0  0  0  0  0  0  0  0  0  0  0
   18.0960  -54.5050   32.4700 C   0  0  0  0  0  0  0  0  0  0  0  0
   17.9340  -55.8670   31.7770 C   0  0  0  0  0  0  0  0  0  0  0  0
   18.9670  -56.7710   32.1590 N   0  0  0  0  0  0  0  0  0  0  0  0
   18.9360  -57.2170   33.5200 C   0  0  0  0  0  0  0  0  0  0  0  0
   18.5430  -55.9670   34.3580 C   0  0  0  0  0  0  0  0  0  0  0  0
   19.3040  -57.7760   31.2090 C   0  0  0  0  0  0  0  0  0  0  0  0
   18.1840  -58.7590   30.9360 C   0  0  0  0  0  0  0  0  0  0  0  0
   19.8060  -57.2260   29.9020 C   0  0  0  0  0  0  0  0  0  0  0  0
   14.2120  -56.4570   39.5750 H   0  0  0  0  0  0  0  0  0  0  0  0
   16.9200  -56.2230   35.4680 H   0  0  0  0  0  0  0  0  0  0  0  0
   15.6540  -58.3170   35.9840 H   0  0  0  0  0  0  0  0  0  0  0  0
   17.1900  -53.8430   35.9090 H   0  0  0  0  0  0  0  0  0  0  0  0
   15.9250  -52.0400   39.1740 H   0  0  0  0  0  0  0  0  0  0  0  0
   17.7490  -51.0880   38.2480 H   0  0  0  0  0  0  0  0  0  0  0  0
   17.1540  -51.5790   36.6230 H   0  0  0  0  0  0  0  0  0  0  0  0
   19.5270  -50.9010   36.5170 H   0  0  0  0  0  0  0  0  0  0  0  0
   19.8840  -51.8670   37.9550 H   0  0  0  0  0  0  0  0  0  0  0  0
   18.6720  -55.7900   38.0440 H   0  0  0  0  0  0  0  0  0  0  0  0
   20.1990  -55.0330   38.6960 H   0  0  0  0  0  0  0  0  0  0  0  0
   19.0790  -53.0730   39.3810 H   0  0  0  0  0  0  0  0  0  0  0  0
   17.9520  -54.3900   39.7260 H   0  0  0  0  0  0  0  0  0  0  0  0
   21.2080  -52.5700   34.8680 H   0  0  0  0  0  0  0  0  0  0  0  0
   19.6140  -51.9610   34.4740 H   0  0  0  0  0  0  0  0  0  0  0  0
   17.1070  -54.1330   32.8070 H   0  0  0  0  0  0  0  0  0  0  0  0
   18.5770  -53.7600   31.8410 H   0  0  0  0  0  0  0  0  0  0  0  0
   16.9020  -56.2460   31.9600 H   0  0  0  0  0  0  0  0  0  0  0  0
   18.0420  -55.6640   30.6920 H   0  0  0  0  0  0  0  0  0  0  0  0
   19.9690  -57.4560   33.8410 H   0  0  0  0  0  0  0  0  0  0  0  0
   18.2590  -58.0470   33.7290 H   0  0  0  0  0  0  0  0  0  0  0  0
   18.8270  -56.0990   35.3900 H   0  0  0  0  0  0  0  0  0  0  0  0
   17.3930  -55.9540   34.3950 H   0  0  0  0  0  0  0  0  0  0  0  0
   20.1400  -58.3770   31.6410 H   0  0  0  0  0  0  0  0  0  0  0  0
   17.9370  -59.2690   31.8950 H   0  0  0  0  0  0  0  0  0  0  0  0
   17.3280  -58.2740   30.4700 H   0  0  0  0  0  0  0  0  0  0  0  0
   18.6100  -59.5500   30.2730 H   0  0  0  0  0  0  0  0  0  0  0  0
   19.0030  -56.8150   29.2700 H   0  0  0  0  0  0  0  0  0  0  0  0
   20.5880  -56.4470   30.1440 H   0  0  0  0  0  0  0  0  0  0  0  0
   20.3040  -58.0670   29.3700 H   0  0  0  0  0  0  0  0  0  0  0  0
  2  1  1  0  0  0  0
  2  3  1  0  0  0  0
  3 32  1  0  0  0  0
  4  3  2  0  0  0  0
  4 11  1  0  0  0  0
  5  4  1  0  0  0  0
  6  7  1  0  0  0  0
  6  5  2  0  0  0  0
  7  2  2  0  0  0  0
  8  5  1  0  0  0  0
  9  8  1  6  0  0  0
  9 10  1  0  0  0  0
  9 19  1  0  0  0  0
 10 36  1  0  0  0  0
 10 11  1  0  0  0  0
 11 12  2  0  0  0  0
 13  9  1  0  0  0  0
 13 37  1  0  0  0  0
 14 13  1  0  0  0  0
 14 40  1  0  0  0  0
 15 16  1  0  0  0  0
 15 14  1  0  0  0  0
 16 18  1  0  0  0  0
 17 16  2  0  0  0  0
 18 42  1  0  0  0  0
 18 19  1  0  0  0  0
 19 43  1  0  0  0  0
 19 44  1  0  0  0  0
 20 15  1  0  0  0  0
 21 20  1  0  0  0  0
 22 21  2  0  0  0  0
 23 21  1  0  0  0  0
 23 28  1  0  0  0  0
 24 47  1  0  0  0  0
 24 23  1  0  0  0  0
 25 49  1  0  0  0  0
 25 26  1  0  0  0  0
 25 24  1  0  0  0  0
 26 27  1  0  0  0  0
 27 52  1  0  0  0  0
 27 51  1  0  0  0  0
 27 28  1  0  0  0  0
 28 54  1  0  0  0  0
 28 53  1  0  0  0  0
 29 55  1  0  0  0  0
 29 26  1  0  0  0  0
 30 29  1  0  0  0  0
 30 56  1  0  0  0  0
 31 60  1  0  0  0  0
 31 29  1  0  0  0  0
 33  6  1  0  0  0  0
 34  7  1  0  0  0  0
 35  8  1  0  0  0  0
 38 13  1  0  0  0  0
 39 14  1  0  0  0  0
 41 18  1  0  0  0  0
 45 20  1  0  0  0  0
 46 20  1  0  0  0  0
 48 24  1  0  0  0  0
 50 25  1  0  0  0  0
 57 30  1  0  0  0  0
 58 30  1  0  0  0  0
 59 31  1  0  0  0  0
 61 31  1  0  0  0  0
M  END
>  <Pose>
1

>  <Score>
-6.36

$$$$
