
 OpenBabel03232204043D

 61 64  0  0  1  0  0  0  0  0999 V2000
   23.1890  -55.1030   27.0040 B   0  0  0  0  0  0  0  0  0  0  0  0
   22.0040  -55.8420   28.3320 C   0  0  0  0  0  0  0  0  0  0  0  0
   20.9600  -55.1120   28.8400 C   0  0  0  0  0  0  0  0  0  0  0  0
   20.0760  -55.5970   29.7980 C   0  0  0  0  0  0  0  0  0  0  0  0
   20.2570  -56.8790   30.2640 C   0  0  0  0  0  0  0  0  0  0  0  0
   21.3160  -57.6070   29.7440 C   0  0  0  0  0  0  0  0  0  0  0  0
   22.1900  -57.1270   28.7960 C   0  0  0  0  0  0  0  0  0  0  0  0
   19.3610  -57.4780   31.2430 C   0  0  0  0  0  0  0  0  0  0  0  0
   19.8930  -58.3920   31.9640 O   0  0  0  0  0  0  0  0  0  0  0  0
   17.9570  -57.1250   31.4500 C   0  0  2  0  0  0  0  0  0  0  0  0
   17.5870  -56.7990   32.8720 C   0  0  1  0  0  0  0  0  0  0  0  0
   17.2220  -57.9970   33.4850 N   0  0  0  0  0  0  0  0  0  0  0  0
   16.4570  -58.6690   32.4070 C   0  0  0  0  0  0  0  0  0  0  0  0
   15.4710  -59.4420   32.5430 O   0  0  0  0  0  0  0  0  0  0  0  0
   17.0670  -58.2690   31.1490 C   0  0  0  0  0  0  0  0  0  0  0  0
   16.8590  -58.8090   30.0260 O   0  0  0  0  0  0  0  0  0  0  0  0
   17.2390  -58.6650   34.7490 C   0  0  0  0  0  0  0  0  0  0  0  0
   16.2150  -58.2640   35.7430 C   0  0  0  0  0  0  0  0  0  0  0  0
   15.3920  -59.1940   36.3900 N   0  0  0  0  0  4  0  0  0  0  0  0
   14.8770  -58.7050   37.6760 C   0  0  0  0  0  0  0  0  0  0  0  0
   13.9910  -57.5140   37.5270 C   0  0  0  0  0  0  0  0  0  0  0  0
   13.7310  -57.2900   36.1940 O   0  0  0  0  0  0  0  0  0  0  0  0
   13.1910  -58.4710   35.6600 C   0  0  0  0  0  0  0  0  0  0  0  0
   14.2530  -59.5410   35.5220 C   0  0  0  0  0  0  0  0  0  0  0  0
   18.3080  -55.7070   33.4760 C   0  0  0  0  0  0  0  0  0  0  0  0
   18.4660  -55.5030   34.8100 C   0  0  0  0  0  0  0  0  0  0  0  0
   19.1970  -54.4290   35.2920 C   0  0  0  0  0  0  0  0  0  0  0  0
   19.7820  -53.5370   34.3810 C   0  0  0  0  0  0  0  0  0  0  0  0
   19.6230  -53.7430   33.0400 C   0  0  0  0  0  0  0  0  0  0  0  0
   18.9060  -54.7990   32.5690 C   0  0  0  0  0  0  0  0  0  0  0  0
   20.5200  -52.4500   34.8070 O   0  0  0  0  0  0  0  0  0  0  0  0
   19.3750  -54.2000   36.6180 O   0  0  0  0  0  0  0  0  0  0  0  0
   18.4040  -53.6670   37.4590 C   0  0  0  0  0  0  0  0  0  0  0  0
   18.5910  -54.0340   38.9200 C   0  0  0  0  0  0  0  0  0  0  0  0
   20.7990  -54.0920   28.4820 H   0  0  0  0  0  0  0  0  0  0  0  0
   19.2930  -54.9410   30.1560 H   0  0  0  0  0  0  0  0  0  0  0  0
   21.5080  -58.6380   30.0810 H   0  0  0  0  0  0  0  0  0  0  0  0
   23.0130  -57.7120   28.4020 H   0  0  0  0  0  0  0  0  0  0  0  0
   17.6670  -56.2570   30.7730 H   0  0  0  0  0  0  0  0  0  0  0  0
   16.4740  -56.3230   32.6740 H   0  0  0  0  0  0  0  0  0  0  0  0
   17.1370  -59.7830   34.6250 H   0  0  0  0  0  0  0  0  0  0  0  0
   18.2450  -58.4550   35.2230 H   0  0  0  0  0  0  0  0  0  0  0  0
   15.5150  -57.4680   35.2940 H   0  0  0  0  0  0  0  0  0  0  0  0
   16.7050  -57.6220   36.5660 H   0  0  0  0  0  0  0  0  0  0  0  0
   15.8670  -60.0720   36.5880 H   0  0  0  0  0  0  0  0  0  0  0  0
   15.7290  -58.5730   38.3510 H   0  0  0  0  0  0  0  0  0  0  0  0
   14.2630  -59.5480   38.0760 H   0  0  0  0  0  0  0  0  0  0  0  0
   13.0190  -57.6690   38.0470 H   0  0  0  0  0  0  0  0  0  0  0  0
   14.5400  -56.6350   37.9410 H   0  0  0  0  0  0  0  0  0  0  0  0
   12.3700  -58.8710   36.2580 H   0  0  0  0  0  0  0  0  0  0  0  0
   12.8580  -58.2120   34.6290 H   0  0  0  0  0  0  0  0  0  0  0  0
   13.8870  -60.5510   35.7800 H   0  0  0  0  0  0  0  0  0  0  0  0
   14.6740  -59.6000   34.4970 H   0  0  0  0  0  0  0  0  0  0  0  0
   18.0110  -56.1510   35.5680 H   0  0  0  0  0  0  0  0  0  0  0  0
   20.0840  -53.0410   32.3270 H   0  0  0  0  0  0  0  0  0  0  0  0
   18.7990  -54.9330   31.4980 H   0  0  0  0  0  0  0  0  0  0  0  0
   18.3630  -52.5540   37.3900 H   0  0  0  0  0  0  0  0  0  0  0  0
   17.3780  -54.0110   37.1740 H   0  0  0  0  0  0  0  0  0  0  0  0
   18.9780  -53.1310   39.4610 H   0  0  0  0  0  0  0  0  0  0  0  0
   17.6210  -54.2980   39.3650 H   0  0  0  0  0  0  0  0  0  0  0  0
   19.3210  -54.8320   39.0560 H   0  0  0  0  0  0  0  0  0  0  0  0
  1  2  1  0  0  0  0
  2  7  2  0  0  0  0
  2  3  1  0  0  0  0
  3  4  2  0  0  0  0
  4 36  1  0  0  0  0
  4  5  1  0  0  0  0
  5  8  1  0  0  0  0
  6 37  1  0  0  0  0
  6  5  2  0  0  0  0
  7  6  1  0  0  0  0
  8 10  1  0  0  0  0
  8  9  2  0  0  0  0
 10 39  1  6  0  0  0
 10 11  1  0  0  0  0
 11 40  1  6  0  0  0
 11 25  1  0  0  0  0
 11 12  1  0  0  0  0
 12 17  1  0  0  0  0
 13 14  2  0  0  0  0
 13 12  1  0  0  0  0
 15 10  1  0  0  0  0
 15 13  1  0  0  0  0
 16 15  2  0  0  0  0
 17 42  1  0  0  0  0
 17 18  1  0  0  0  0
 18 19  1  0  0  0  0
 18 44  1  0  0  0  0
 19 45  1  0  0  0  0
 19 20  1  0  0  0  0
 20 47  1  0  0  0  0
 20 46  1  0  0  0  0
 21 20  1  0  0  0  0
 21 49  1  0  0  0  0
 21 48  1  0  0  0  0
 22 21  1  0  0  0  0
 23 22  1  0  0  0  0
 23 50  1  0  0  0  0
 24 23  1  0  0  0  0
 24 52  1  0  0  0  0
 24 19  1  0  0  0  0
 25 26  1  0  0  0  0
 26 27  2  0  0  0  0
 26 54  1  0  0  0  0
 27 32  1  0  0  0  0
 28 31  1  0  0  0  0
 28 27  1  0  0  0  0
 29 28  2  0  0  0  0
 30 29  1  0  0  0  0
 30 25  2  0  0  0  0
 32 33  1  0  0  0  0
 33 34  1  0  0  0  0
 34 61  1  0  0  0  0
 34 60  1  0  0  0  0
 34 59  1  0  0  0  0
 35  3  1  0  0  0  0
 38  7  1  0  0  0  0
 41 17  1  0  0  0  0
 43 18  1  0  0  0  0
 51 23  1  0  0  0  0
 53 24  1  0  0  0  0
 55 29  1  0  0  0  0
 56 30  1  0  0  0  0
 57 33  1  0  0  0  0
 58 33  1  0  0  0  0
M  END
>  <Pose>
1

>  <Score>
-7.13

$$$$
