
 OpenBabel03232204043D

 40 43  0  0  0  0  0  0  0  0999 V2000
   19.9490  -52.9430   35.5500 Cl  0  0  0  0  0  0  0  0  0  0  0  0
   18.5650  -53.4090   36.5390 C   0  0  0  0  0  0  0  0  0  0  0  0
   18.1420  -52.6510   37.6100 C   0  0  0  0  0  0  0  0  0  0  0  0
   17.0520  -53.0650   38.3490 C   0  0  0  0  0  0  0  0  0  0  0  0
   16.4110  -52.5480   39.4330 N   0  0  0  0  0  0  0  0  0  0  0  0
   15.3910  -53.3580   39.7640 C   0  0  0  0  0  0  0  0  0  0  0  0
   15.3390  -54.4090   38.9180 N   0  0  0  0  0  0  0  0  0  0  0  0
   16.3570  -54.2210   38.0590 C   0  0  0  0  0  0  0  0  0  0  0  0
   16.7710  -54.9840   36.9920 C   0  0  0  0  0  0  0  0  0  0  0  0
   17.8610  -54.5650   36.2580 C   0  0  0  0  0  0  0  0  0  0  0  0
   14.3740  -55.4870   38.9670 C   0  0  0  0  0  0  0  0  0  0  0  0
   15.0320  -56.8380   38.7880 C   0  0  0  0  0  0  0  0  0  0  0  0
   14.3300  -57.5400   37.7190 N   0  0  0  0  0  0  0  0  0  0  0  0
   14.5970  -57.2680   36.4220 C   0  0  0  0  0  0  0  0  0  0  0  0
   13.9520  -57.9130   35.3900 C   0  0  0  0  0  0  0  0  0  0  0  0
   12.9460  -58.9240   35.6910 C   0  0  0  0  0  0  0  0  0  0  0  0
   12.4980  -59.3720   34.5090 N   0  0  0  0  0  0  0  0  0  0  0  0
   13.1240  -58.7400   33.5040 N   0  0  0  0  0  0  0  0  0  0  0  0
   14.0010  -57.8600   34.0140 C   0  0  0  0  0  0  0  0  0  0  0  0
   14.7360  -57.1210   33.3210 O   0  0  0  0  0  0  0  0  0  0  0  0
   12.6980  -59.1780   37.0300 C   0  0  0  0  0  0  0  0  0  0  0  0
   13.4000  -58.4740   37.9680 C   0  0  0  0  0  0  0  0  0  0  0  0
   11.6980  -60.1840   37.3700 C   0  0  0  0  0  0  0  0  0  0  0  0
   12.0760  -61.3430   37.6730 O   0  0  0  0  0  0  0  0  0  0  0  0
   10.3590  -59.8970   37.3670 O   0  0  0  0  0  0  0  0  0  0  0  0
    9.6010  -59.8710   38.5660 C   0  0  0  0  0  0  0  0  0  0  0  0
   18.6810  -51.7440   37.8440 H   0  0  0  0  0  0  0  0  0  0  0  0
   14.7350  -53.1640   40.5870 H   0  0  0  0  0  0  0  0  0  0  0  0
   16.2180  -55.8980   36.7670 H   0  0  0  0  0  0  0  0  0  0  0  0
   18.1950  -55.1570   35.4180 H   0  0  0  0  0  0  0  0  0  0  0  0
   13.8110  -55.5010   39.9230 H   0  0  0  0  0  0  0  0  0  0  0  0
   13.6360  -55.3490   38.1570 H   0  0  0  0  0  0  0  0  0  0  0  0
   14.9670  -57.4610   39.6850 H   0  0  0  0  0  0  0  0  0  0  0  0
   16.0920  -56.6850   38.5320 H   0  0  0  0  0  0  0  0  0  0  0  0
   15.3380  -56.5230   36.1820 H   0  0  0  0  0  0  0  0  0  0  0  0
   12.9170  -58.9460   32.4940 H   0  0  0  0  0  0  0  0  0  0  0  0
   13.2000  -58.6790   39.0290 H   0  0  0  0  0  0  0  0  0  0  0  0
   10.3020  -60.0230   39.4210 H   0  0  0  0  0  0  0  0  0  0  0  0
    8.8310  -60.6810   38.5590 H   0  0  0  0  0  0  0  0  0  0  0  0
    9.1390  -58.8690   38.7180 H   0  0  0  0  0  0  0  0  0  0  0  0
  1  2  1  0  0  0  0
  2  3  1  0  0  0  0
  3 27  1  0  0  0  0
  3  4  2  0  0  0  0
  4  5  1  0  0  0  0
  5  6  2  0  0  0  0
  6 28  1  0  0  0  0
  7 11  1  0  0  0  0
  7  6  1  0  0  0  0
  8  4  1  0  0  0  0
  8  7  1  0  0  0  0
  9  8  2  0  0  0  0
 10  2  2  0  0  0  0
 10  9  1  0  0  0  0
 11 31  1  0  0  0  0
 12 11  1  0  0  0  0
 12 33  1  0  0  0  0
 13 22  1  0  0  0  0
 13 12  1  0  0  0  0
 14 13  1  0  0  0  0
 15 16  2  0  0  0  0
 15 14  1  0  0  0  0
 16 21  1  0  0  0  0
 17 16  1  0  0  0  0
 18 19  1  0  0  0  0
 18 17  1  0  0  0  0
 19 15  1  0  0  0  0
 20 19  2  0  0  0  0
 21 23  1  0  0  0  0
 21 22  2  0  0  0  0
 22 37  1  0  0  0  0
 23 24  2  0  0  0  0
 25 23  1  0  0  0  0
 25 26  1  0  0  0  0
 26 40  1  0  0  0  0
 26 38  1  0  0  0  0
 29  9  1  0  0  0  0
 30 10  1  0  0  0  0
 32 11  1  0  0  0  0
 34 12  1  0  0  0  0
 35 14  1  0  0  0  0
 36 18  1  0  0  0  0
 39 26  1  0  0  0  0
M  END
>  <Pose>
1

>  <Score>
-7.93

$$$$
