
 OpenBabel03232204043D

 49 52  0  0  1  0  0  0  0  0999 V2000
   10.4270  -62.4470   37.5820 Cl  0  0  0  0  0  0  0  0  0  0  0  0
   11.5260  -61.1120   37.3280 C   0  0  0  0  0  0  0  0  0  0  0  0
   11.4620  -59.9940   38.1490 C   0  0  0  0  0  0  0  0  0  0  0  0
   12.3270  -58.9290   37.9630 C   0  0  0  0  0  0  0  0  0  0  0  0
   12.5110  -57.7450   38.5680 N   0  0  0  0  0  0  0  0  0  0  0  0
   13.5210  -57.0440   37.9830 C   0  0  0  0  0  0  0  0  0  0  0  0
   13.9590  -57.8520   36.9810 N   0  0  0  0  0  0  0  0  0  0  0  0
   13.2550  -58.9910   36.9510 C   0  0  0  0  0  0  0  0  0  0  0  0
   13.3130  -60.1030   36.1400 C   0  0  0  0  0  0  0  0  0  0  0  0
   12.4540  -61.1790   36.3120 C   0  0  0  0  0  0  0  0  0  0  0  0
   13.9940  -55.7120   38.4030 C   0  0  0  0  0  0  0  0  0  0  0  0
   15.4750  -55.7040   38.6350 C   0  0  0  0  0  0  0  0  0  0  0  0
   15.8970  -54.4210   39.2340 C   0  0  0  0  0  0  0  0  0  0  0  0
   15.1620  -53.9030   40.1110 O   0  0  0  0  0  0  0  0  0  0  0  0
   17.0820  -53.7490   38.8680 N   0  0  0  0  0  0  0  0  0  0  0  0
   18.3410  -54.2580   38.3660 C   0  0  0  0  0  0  0  0  0  0  0  0
   18.7230  -53.2790   37.3480 C   0  0  2  0  0  0  0  0  0  0  0  0
   17.7960  -52.0720   37.5100 C   0  0  1  0  0  0  0  0  0  0  0  0
   17.2700  -52.3230   38.9400 C   0  0  0  0  0  0  0  0  0  0  0  0
   18.4550  -50.8710   37.4350 O   0  0  0  0  0  0  0  0  0  0  0  0
   18.8700  -53.6380   35.9920 N   0  0  0  0  0  0  0  0  0  0  0  0
   18.1050  -54.6630   35.5280 C   0  0  0  0  0  0  0  0  0  0  0  0
   18.1720  -55.0870   34.2200 C   0  0  0  0  0  0  0  0  0  0  0  0
   19.0290  -54.4740   33.3360 C   0  0  0  0  0  0  0  0  0  0  0  0
   19.1110  -54.8440   32.1270 O   0  0  0  0  0  0  0  0  0  0  0  0
   19.7840  -53.4630   33.7940 N   0  0  0  0  0  0  0  0  0  0  0  0
   19.6750  -53.0960   35.0730 C   0  0  0  0  0  0  0  0  0  0  0  0
   20.3980  -52.1490   35.4430 O   0  0  0  0  0  0  0  0  0  0  0  0
   17.3210  -56.2180   33.7230 C   0  0  0  0  0  0  0  0  0  0  0  0
   10.7360  -59.9270   38.9530 H   0  0  0  0  0  0  0  0  0  0  0  0
   11.9190  -57.4490   39.3840 H   0  0  0  0  0  0  0  0  0  0  0  0
   14.0270  -60.1870   35.3360 H   0  0  0  0  0  0  0  0  0  0  0  0
   12.5260  -62.0320   35.6620 H   0  0  0  0  0  0  0  0  0  0  0  0
   13.4910  -55.4530   39.3640 H   0  0  0  0  0  0  0  0  0  0  0  0
   13.7250  -54.9440   37.6180 H   0  0  0  0  0  0  0  0  0  0  0  0
   15.7120  -56.4850   39.4190 H   0  0  0  0  0  0  0  0  0  0  0  0
   16.0530  -56.0030   37.7490 H   0  0  0  0  0  0  0  0  0  0  0  0
   18.3100  -55.3230   38.1200 H   0  0  0  0  0  0  0  0  0  0  0  0
   19.0310  -54.2070   39.2650 H   0  0  0  0  0  0  0  0  0  0  0  0
   19.7360  -52.8470   37.6430 H   0  0  0  0  0  0  0  0  0  0  0  0
   16.9070  -52.1260   36.8590 H   0  0  0  0  0  0  0  0  0  0  0  0
   16.3310  -51.7610   39.1190 H   0  0  0  0  0  0  0  0  0  0  0  0
   18.0850  -52.0250   39.6320 H   0  0  0  0  0  0  0  0  0  0  0  0
   18.8770  -50.6940   38.3130 H   0  0  0  0  0  0  0  0  0  0  0  0
   17.4040  -55.1960   36.1510 H   0  0  0  0  0  0  0  0  0  0  0  0
   20.4580  -52.9710   33.1290 H   0  0  0  0  0  0  0  0  0  0  0  0
   16.7780  -56.6910   34.5830 H   0  0  0  0  0  0  0  0  0  0  0  0
   16.6470  -55.9000   32.9340 H   0  0  0  0  0  0  0  0  0  0  0  0
   17.9980  -57.0140   33.3090 H   0  0  0  0  0  0  0  0  0  0  0  0
  2  1  1  0  0  0  0
  2  3  1  0  0  0  0
  3 30  1  0  0  0  0
  4  3  2  0  0  0  0
  4  5  1  0  0  0  0
  5 31  1  0  0  0  0
  6 11  1  0  0  0  0
  6  5  1  0  0  0  0
  7  6  2  0  0  0  0
  8  7  1  0  0  0  0
  8  4  1  0  0  0  0
  9 10  1  0  0  0  0
  9  8  2  0  0  0  0
 10  2  2  0  0  0  0
 11 12  1  0  0  0  0
 11 34  1  0  0  0  0
 12 13  1  0  0  0  0
 12 36  1  0  0  0  0
 13 14  2  0  0  0  0
 15 19  1  0  0  0  0
 15 13  1  0  0  0  0
 16 15  1  0  0  0  0
 16 39  1  0  0  0  0
 17 18  1  0  0  0  0
 17 40  1  1  0  0  0
 17 16  1  0  0  0  0
 18 41  1  6  0  0  0
 18 19  1  0  0  0  0
 19 42  1  0  0  0  0
 19 43  1  0  0  0  0
 20 18  1  0  0  0  0
 20 44  1  0  0  0  0
 21 17  1  0  0  0  0
 22 21  1  0  0  0  0
 22 45  1  0  0  0  0
 23 22  2  0  0  0  0
 24 26  1  0  0  0  0
 24 23  1  0  0  0  0
 25 24  2  0  0  0  0
 26 27  1  0  0  0  0
 27 28  2  0  0  0  0
 27 21  1  0  0  0  0
 29 23  1  0  0  0  0
 29 47  1  0  0  0  0
 32  9  1  0  0  0  0
 33 10  1  0  0  0  0
 35 11  1  0  0  0  0
 37 12  1  0  0  0  0
 38 16  1  0  0  0  0
 46 26  1  0  0  0  0
 48 29  1  0  0  0  0
 49 29  1  0  0  0  0
M  END
>  <Pose>
1

>  <Score>
-8.31

$$$$
