
 OpenBabel03232204043D

 55 58  0  0  1  0  0  0  0  0999 V2000
   20.5320  -54.9230   30.5900 Cl  0  0  0  0  0  0  0  0  0  0  0  0
   19.2230  -55.9580   31.1130 C   0  0  0  0  0  0  0  0  0  0  0  0
   19.3650  -57.3290   31.2330 C   0  0  0  0  0  0  0  0  0  0  0  0
   18.3300  -58.1340   31.6460 C   0  0  0  0  0  0  0  0  0  0  0  0
   18.2110  -59.4540   31.8400 N   0  0  0  0  0  0  0  0  0  0  0  0
   16.9540  -59.7650   32.2600 C   0  0  0  0  0  0  0  0  0  0  0  0
   16.3180  -58.6050   32.3150 N   0  0  0  0  0  0  0  0  0  0  0  0
   17.1070  -57.5900   31.9530 C   0  0  0  0  0  0  0  0  0  0  0  0
   16.9410  -56.2270   31.8410 C   0  0  0  0  0  0  0  0  0  0  0  0
   17.9890  -55.4150   31.4240 C   0  0  0  0  0  0  0  0  0  0  0  0
   16.4850  -61.1350   32.5790 C   0  0  0  0  0  0  0  0  0  0  0  0
   15.8580  -61.1280   33.9430 C   0  0  0  0  0  0  0  0  0  0  0  0
   14.4390  -61.5100   33.8340 C   0  0  0  0  0  0  0  0  0  0  0  0
   14.1050  -62.5870   33.2780 O   0  0  0  0  0  0  0  0  0  0  0  0
   13.4550  -60.6270   34.3710 N   0  0  0  0  0  0  0  0  0  0  0  0
   13.1670  -59.3160   33.8330 C   0  0  0  0  0  0  0  0  0  0  0  0
   12.8520  -58.3290   34.9700 C   0  0  1  0  0  0  0  0  0  0  0  0
   13.5540  -58.8430   36.1800 C   0  0  2  0  0  0  0  0  0  0  0  0
   12.8480  -60.0830   36.6760 C   0  0  0  0  0  0  0  0  0  0  0  0
   12.6900  -61.0530   35.5230 C   0  0  0  0  0  0  0  0  0  0  0  0
   13.8150  -57.8930   37.2030 N   0  0  0  0  0  0  0  0  0  0  0  0
   14.8510  -57.0420   37.1820 C   0  0  0  0  0  0  0  0  0  0  0  0
   15.0750  -56.1250   38.2020 C   0  0  0  0  0  0  0  0  0  0  0  0
   14.2070  -56.0870   39.2680 C   0  0  0  0  0  0  0  0  0  0  0  0
   14.4070  -55.2500   40.2030 O   0  0  0  0  0  0  0  0  0  0  0  0
   13.1730  -56.9390   39.2870 N   0  0  0  0  0  0  0  0  0  0  0  0
   12.9990  -57.8070   38.2750 C   0  0  0  0  0  0  0  0  0  0  0  0
   12.0090  -58.6190   38.2970 O   0  0  0  0  0  0  0  0  0  0  0  0
   16.2540  -55.1950   38.1220 C   0  0  0  0  0  0  0  0  0  0  0  0
   13.3640  -57.0960   34.5370 O   0  0  0  0  0  0  0  0  0  0  0  0
   11.3620  -58.2500   35.0770 C   0  0  0  0  0  0  0  0  0  0  0  0
   20.3390  -57.7280   30.9840 H   0  0  0  0  0  0  0  0  0  0  0  0
   18.9650  -60.1810   31.6960 H   0  0  0  0  0  0  0  0  0  0  0  0
   15.9770  -55.8180   32.0850 H   0  0  0  0  0  0  0  0  0  0  0  0
   17.8180  -54.3530   31.3490 H   0  0  0  0  0  0  0  0  0  0  0  0
   17.3650  -61.8270   32.6400 H   0  0  0  0  0  0  0  0  0  0  0  0
   15.7360  -61.4980   31.8450 H   0  0  0  0  0  0  0  0  0  0  0  0
   16.4060  -61.8350   34.6170 H   0  0  0  0  0  0  0  0  0  0  0  0
   15.9910  -60.1340   34.4360 H   0  0  0  0  0  0  0  0  0  0  0  0
   13.9700  -58.9490   33.1960 H   0  0  0  0  0  0  0  0  0  0  0  0
   12.2600  -59.4450   33.1710 H   0  0  0  0  0  0  0  0  0  0  0  0
   14.5650  -59.2070   35.8230 H   0  0  0  0  0  0  0  0  0  0  0  0
   13.4730  -60.6250   37.4380 H   0  0  0  0  0  0  0  0  0  0  0  0
   11.8900  -59.8780   37.1790 H   0  0  0  0  0  0  0  0  0  0  0  0
   12.9550  -62.0900   35.8060 H   0  0  0  0  0  0  0  0  0  0  0  0
   11.6060  -61.0250   35.2060 H   0  0  0  0  0  0  0  0  0  0  0  0
   15.5140  -57.0890   36.3410 H   0  0  0  0  0  0  0  0  0  0  0  0
   12.5080  -56.9190   40.0880 H   0  0  0  0  0  0  0  0  0  0  0  0
   16.5680  -54.9930   39.1850 H   0  0  0  0  0  0  0  0  0  0  0  0
   17.0730  -55.7720   37.6650 H   0  0  0  0  0  0  0  0  0  0  0  0
   16.0010  -54.2630   37.6120 H   0  0  0  0  0  0  0  0  0  0  0  0
   12.7300  -56.3630   34.8200 H   0  0  0  0  0  0  0  0  0  0  0  0
   10.8340  -58.9260   34.3420 H   0  0  0  0  0  0  0  0  0  0  0  0
   10.9830  -57.2250   34.7930 H   0  0  0  0  0  0  0  0  0  0  0  0
   10.9450  -58.4630   36.0590 H   0  0  0  0  0  0  0  0  0  0  0  0
  1  2  1  0  0  0  0
  2  3  2  0  0  0  0
  2 10  1  0  0  0  0
  3  4  1  0  0  0  0
  4  5  1  0  0  0  0
  4  8  2  0  0  0  0
  5  6  1  0  0  0  0
  6  7  2  0  0  0  0
  6 11  1  0  0  0  0
  8  7  1  0  0  0  0
  9  8  1  0  0  0  0
  9 34  1  0  0  0  0
 10  9  2  0  0  0  0
 11 36  1  0  0  0  0
 11 12  1  0  0  0  0
 12 39  1  0  0  0  0
 12 38  1  0  0  0  0
 13 12  1  0  0  0  0
 13 15  1  0  0  0  0
 14 13  2  0  0  0  0
 15 20  1  0  0  0  0
 16 15  1  0  0  0  0
 16 17  1  0  0  0  0
 17 30  1  6  0  0  0
 17 31  1  0  0  0  0
 17 18  1  0  0  0  0
 18 42  1  6  0  0  0
 18 19  1  0  0  0  0
 18 21  1  0  0  0  0
 19 44  1  0  0  0  0
 19 43  1  0  0  0  0
 20 45  1  0  0  0  0
 20 19  1  0  0  0  0
 21 27  1  0  0  0  0
 22 21  1  0  0  0  0
 22 23  2  0  0  0  0
 23 24  1  0  0  0  0
 24 26  1  0  0  0  0
 24 25  2  0  0  0  0
 26 48  1  0  0  0  0
 27 28  2  0  0  0  0
 27 26  1  0  0  0  0
 29 23  1  0  0  0  0
 29 49  1  0  0  0  0
 30 52  1  0  0  0  0
 31 55  1  0  0  0  0
 32  3  1  0  0  0  0
 33  5  1  0  0  0  0
 35 10  1  0  0  0  0
 37 11  1  0  0  0  0
 40 16  1  0  0  0  0
 41 16  1  0  0  0  0
 46 20  1  0  0  0  0
 47 22  1  0  0  0  0
 50 29  1  0  0  0  0
 51 29  1  0  0  0  0
 53 31  1  0  0  0  0
 54 31  1  0  0  0  0
M  END
>  <Pose>
1

>  <Score>
-7.46

$$$$
