
 OpenBabel03232204043D

 55 59  0  0  1  0  0  0  0  0999 V2000
   10.3210  -63.3940   37.5590 Cl  0  0  0  0  0  0  0  0  0  0  0  0
   10.9370  -61.7760   37.8750 C   0  0  0  0  0  0  0  0  0  0  0  0
   12.2610  -61.4580   37.6860 C   0  0  0  0  0  0  0  0  0  0  0  0
   12.7100  -60.1630   37.9480 C   0  0  0  0  0  0  0  0  0  0  0  0
   13.9100  -59.5670   37.8600 N   0  0  0  0  0  0  0  0  0  0  0  0
   13.8350  -58.2770   38.2320 C   0  0  0  0  0  0  0  0  0  0  0  0
   12.5600  -58.0650   38.5580 N   0  0  0  0  0  0  0  0  0  0  0  0
   11.8390  -59.1940   38.3980 C   0  0  0  0  0  0  0  0  0  0  0  0
   10.5120  -59.5140   38.5890 C   0  0  0  0  0  0  0  0  0  0  0  0
   10.0760  -60.8130   38.3220 C   0  0  0  0  0  0  0  0  0  0  0  0
   14.9950  -57.3270   38.2500 C   0  0  0  0  0  0  0  0  0  0  0  0
   14.4720  -55.9100   38.1820 C   0  0  0  0  0  0  0  0  0  0  0  0
   15.2530  -55.0280   39.0630 C   0  0  0  0  0  0  0  0  0  0  0  0
   14.9160  -54.9010   40.2550 O   0  0  0  0  0  0  0  0  0  0  0  0
   16.3690  -54.3340   38.5680 N   0  0  0  0  0  0  0  0  0  0  0  0
   16.5150  -53.4230   37.4770 C   0  0  0  0  0  0  0  0  0  0  0  0
   17.8560  -53.8240   36.8160 C   0  0  1  0  0  0  0  0  0  0  0  0
   18.6200  -54.2330   38.0260 C   0  0  2  0  0  0  0  0  0  0  0  0
   17.6840  -54.4310   39.1700 C   0  0  0  0  0  0  0  0  0  0  0  0
   19.5620  -53.2880   38.4300 O   0  0  0  0  0  0  0  0  0  0  0  0
   17.6080  -54.8850   35.8830 N   0  0  0  0  0  0  0  0  0  0  0  0
   18.1290  -55.0480   34.6550 C   0  0  0  0  0  0  0  0  0  0  0  0
   17.6050  -56.2320   34.0970 C   0  0  0  0  0  0  0  0  0  0  0  0
   16.7760  -56.7420   35.0220 N   0  0  0  0  0  0  0  0  0  0  0  0
   16.7650  -55.9510   36.0920 C   0  0  0  0  0  0  0  0  0  0  0  0
   17.9690  -56.6490   32.8370 C   0  0  0  0  0  0  0  0  0  0  0  0
   17.4830  -57.7120   32.3640 O   0  0  0  0  0  0  0  0  0  0  0  0
   18.8400  -55.8930   32.1590 N   0  0  0  0  0  0  0  0  0  0  0  0
   19.3320  -54.7740   32.6950 C   0  0  0  0  0  0  0  0  0  0  0  0
   20.1500  -54.0730   32.0440 O   0  0  0  0  0  0  0  0  0  0  0  0
   19.0040  -54.3130   33.9410 N   0  0  0  0  0  0  0  0  0  0  0  0
   19.5690  -53.1040   34.4510 C   0  0  0  0  0  0  0  0  0  0  0  0
   19.2470  -56.3110   30.8160 C   0  0  0  0  0  0  0  0  0  0  0  0
   12.9560  -62.2000   37.3350 H   0  0  0  0  0  0  0  0  0  0  0  0
   14.7780  -60.0740   37.5390 H   0  0  0  0  0  0  0  0  0  0  0  0
    9.8080  -58.7760   38.9400 H   0  0  0  0  0  0  0  0  0  0  0  0
    9.0290  -61.0720   38.4700 H   0  0  0  0  0  0  0  0  0  0  0  0
   15.6350  -57.5590   37.3800 H   0  0  0  0  0  0  0  0  0  0  0  0
   15.5980  -57.4640   39.1720 H   0  0  0  0  0  0  0  0  0  0  0  0
   13.3910  -55.8880   38.3820 H   0  0  0  0  0  0  0  0  0  0  0  0
   14.5780  -55.6040   37.1000 H   0  0  0  0  0  0  0  0  0  0  0  0
   16.6600  -52.4060   37.9560 H   0  0  0  0  0  0  0  0  0  0  0  0
   15.7010  -53.3260   36.7820 H   0  0  0  0  0  0  0  0  0  0  0  0
   18.1510  -52.8570   36.3620 H   0  0  0  0  0  0  0  0  0  0  0  0
   19.0900  -55.2440   37.8410 H   0  0  0  0  0  0  0  0  0  0  0  0
   17.8280  -55.3970   39.6980 H   0  0  0  0  0  0  0  0  0  0  0  0
   17.8140  -53.6010   39.9260 H   0  0  0  0  0  0  0  0  0  0  0  0
   19.1250  -52.4670   38.7940 H   0  0  0  0  0  0  0  0  0  0  0  0
   16.2030  -56.0870   36.9920 H   0  0  0  0  0  0  0  0  0  0  0  0
   20.4870  -53.2370   35.0580 H   0  0  0  0  0  0  0  0  0  0  0  0
   20.0160  -52.5850   33.5220 H   0  0  0  0  0  0  0  0  0  0  0  0
   18.8720  -52.3340   34.7920 H   0  0  0  0  0  0  0  0  0  0  0  0
   20.3140  -56.6280   30.8200 H   0  0  0  0  0  0  0  0  0  0  0  0
   18.6070  -57.1430   30.4710 H   0  0  0  0  0  0  0  0  0  0  0  0
   19.1790  -55.4380   30.1380 H   0  0  0  0  0  0  0  0  0  0  0  0
  1  2  1  0  0  0  0
  2 10  1  0  0  0  0
  3  2  2  0  0  0  0
  3  4  1  0  0  0  0
  4  8  2  0  0  0  0
  5  4  1  0  0  0  0
  5  6  1  0  0  0  0
  6 11  1  0  0  0  0
  6  7  2  0  0  0  0
  8  7  1  0  0  0  0
  8  9  1  0  0  0  0
  9 36  1  0  0  0  0
 10 37  1  0  0  0  0
 10  9  2  0  0  0  0
 11 39  1  0  0  0  0
 12 11  1  0  0  0  0
 12 40  1  0  0  0  0
 12 13  1  0  0  0  0
 13 14  2  0  0  0  0
 15 13  1  0  0  0  0
 15 19  1  0  0  0  0
 16 42  1  0  0  0  0
 16 15  1  0  0  0  0
 17 44  1  6  0  0  0
 17 16  1  0  0  0  0
 17 18  1  0  0  0  0
 18 45  1  6  0  0  0
 18 20  1  0  0  0  0
 18 19  1  0  0  0  0
 19 46  1  0  0  0  0
 19 47  1  0  0  0  0
 20 48  1  0  0  0  0
 21 25  1  0  0  0  0
 21 17  1  0  0  0  0
 22 21  1  0  0  0  0
 23 22  2  0  0  0  0
 23 24  1  0  0  0  0
 24 25  2  0  0  0  0
 25 49  1  0  0  0  0
 26 23  1  0  0  0  0
 27 26  2  0  0  0  0
 28 29  1  0  0  0  0
 28 26  1  0  0  0  0
 29 31  1  0  0  0  0
 30 29  2  0  0  0  0
 31 32  1  0  0  0  0
 31 22  1  0  0  0  0
 32 52  1  0  0  0  0
 32 50  1  0  0  0  0
 33 53  1  0  0  0  0
 33 28  1  0  0  0  0
 34  3  1  0  0  0  0
 35  5  1  0  0  0  0
 38 11  1  0  0  0  0
 41 12  1  0  0  0  0
 43 16  1  0  0  0  0
 51 32  1  0  0  0  0
 54 33  1  0  0  0  0
 55 33  1  0  0  0  0
M  END
>  <Pose>
1

>  <Score>
-8.02

$$$$
