
 OpenBabel03232204043D

 48 51  0  0  0  0  0  0  0  0999 V2000
   18.9090  -55.3850   32.1320 S   0  0  0  0  0  0  0  0  0  0  0  0
   20.3010  -55.2340   31.5340 O   0  0  0  0  0  0  0  0  0  0  0  0
   17.9850  -54.6800   31.1570 O   0  0  0  0  0  0  0  0  0  0  0  0
   18.5120  -57.0150   32.1580 N   0  0  0  0  0  0  0  0  0  0  0  0
   19.1280  -57.8080   33.1640 C   0  0  0  0  0  0  0  0  0  0  0  0
   18.1420  -58.5840   34.0000 C   0  0  0  0  0  0  0  0  0  0  0  0
   16.8920  -57.8890   34.1670 N   0  0  0  0  0  0  0  0  0  0  0  0
   16.2210  -57.3550   33.0070 C   0  0  0  0  0  0  0  0  0  0  0  0
   17.1750  -57.3700   31.8530 C   0  0  0  0  0  0  0  0  0  0  0  0
   16.2910  -57.7090   35.4370 C   0  0  0  0  0  0  0  0  0  0  0  0
   16.8040  -58.2610   36.4300 O   0  0  0  0  0  0  0  0  0  0  0  0
   15.0750  -56.8850   35.6180 C   0  0  0  0  0  0  0  0  0  0  0  0
   14.0710  -57.5960   36.3540 N   0  0  0  0  0  0  0  0  0  0  0  0
   13.8040  -57.6090   37.7500 C   0  0  0  0  0  0  0  0  0  0  0  0
   14.4540  -56.9550   38.5950 O   0  0  0  0  0  0  0  0  0  0  0  0
   12.6760  -58.4930   37.9930 C   0  0  0  0  0  0  0  0  0  0  0  0
   12.2490  -59.0160   36.7960 C   0  0  0  0  0  0  0  0  0  0  0  0
   11.1740  -59.8940   36.7800 C   0  0  0  0  0  0  0  0  0  0  0  0
   10.5260  -60.2550   37.9300 C   0  0  0  0  0  0  0  0  0  0  0  0
   10.9490  -59.7320   39.1510 C   0  0  0  0  0  0  0  0  0  0  0  0
   12.0240  -58.8560   39.1440 C   0  0  0  0  0  0  0  0  0  0  0  0
   13.1070  -58.4690   35.7530 C   0  0  0  0  0  0  0  0  0  0  0  0
   12.9640  -58.7630   34.5370 O   0  0  0  0  0  0  0  0  0  0  0  0
   18.8010  -54.5610   33.6400 C   0  0  0  0  0  0  0  0  0  0  0  0
   19.6400  -53.4910   33.9030 C   0  0  0  0  0  0  0  0  0  0  0  0
   19.5950  -52.7960   35.0940 C   0  0  0  0  0  0  0  0  0  0  0  0
   18.6720  -53.1980   36.0430 C   0  0  0  0  0  0  0  0  0  0  0  0
   17.8430  -54.2660   35.7680 C   0  0  0  0  0  0  0  0  0  0  0  0
   17.8770  -54.9690   34.5820 C   0  0  0  0  0  0  0  0  0  0  0  0
   18.5560  -52.2710   37.7280 B   0  0  0  0  0  0  0  0  0  0  0  0
   19.7670  -58.5760   32.6360 H   0  0  0  0  0  0  0  0  0  0  0  0
   19.8290  -57.2070   33.7790 H   0  0  0  0  0  0  0  0  0  0  0  0
   18.6020  -58.7930   34.9840 H   0  0  0  0  0  0  0  0  0  0  0  0
   17.9640  -59.5890   33.5340 H   0  0  0  0  0  0  0  0  0  0  0  0
   15.3630  -58.0330   32.7230 H   0  0  0  0  0  0  0  0  0  0  0  0
   15.8250  -56.3560   33.2480 H   0  0  0  0  0  0  0  0  0  0  0  0
   16.7930  -56.7730   31.0050 H   0  0  0  0  0  0  0  0  0  0  0  0
   17.1920  -58.4330   31.4690 H   0  0  0  0  0  0  0  0  0  0  0  0
   14.6850  -56.6570   34.5880 H   0  0  0  0  0  0  0  0  0  0  0  0
   15.3140  -55.9230   36.1270 H   0  0  0  0  0  0  0  0  0  0  0  0
   10.8610  -60.2890   35.8340 H   0  0  0  0  0  0  0  0  0  0  0  0
    9.7010  -60.9280   37.9190 H   0  0  0  0  0  0  0  0  0  0  0  0
   10.4800  -59.9780   40.0770 H   0  0  0  0  0  0  0  0  0  0  0  0
   12.3470  -58.4530   40.0970 H   0  0  0  0  0  0  0  0  0  0  0  0
   20.3830  -53.1410   33.1770 H   0  0  0  0  0  0  0  0  0  0  0  0
   20.2370  -51.9560   35.3260 H   0  0  0  0  0  0  0  0  0  0  0  0
   17.1040  -54.5990   36.5120 H   0  0  0  0  0  0  0  0  0  0  0  0
   17.1980  -55.8100   34.4130 H   0  0  0  0  0  0  0  0  0  0  0  0
  1  4  1  0  0  0  0
  1 24  1  0  0  0  0
  2  1  2  0  0  0  0
  3  1  2  0  0  0  0
  4  5  1  0  0  0  0
  5 32  1  0  0  0  0
  5  6  1  0  0  0  0
  6  7  1  0  0  0  0
  6 33  1  0  0  0  0
  7 10  1  0  0  0  0
  8 36  1  0  0  0  0
  8  7  1  0  0  0  0
  9  4  1  0  0  0  0
  9  8  1  0  0  0  0
 10 12  1  0  0  0  0
 10 11  2  0  0  0  0
 12 40  1  0  0  0  0
 12 13  1  0  0  0  0
 13 14  1  0  0  0  0
 14 16  1  0  0  0  0
 14 15  2  0  0  0  0
 16 21  1  0  0  0  0
 17 16  2  0  0  0  0
 18 17  1  0  0  0  0
 18 19  2  0  0  0  0
 19 20  1  0  0  0  0
 20 43  1  0  0  0  0
 21 20  2  0  0  0  0
 21 44  1  0  0  0  0
 22 13  1  0  0  0  0
 22 17  1  0  0  0  0
 23 22  2  0  0  0  0
 24 25  2  0  0  0  0
 24 29  1  0  0  0  0
 25 26  1  0  0  0  0
 26 46  1  0  0  0  0
 26 27  2  0  0  0  0
 27 30  1  0  0  0  0
 28 27  1  0  0  0  0
 28 47  1  0  0  0  0
 29 28  2  0  0  0  0
 31  5  1  0  0  0  0
 34  6  1  0  0  0  0
 35  8  1  0  0  0  0
 37  9  1  0  0  0  0
 38  9  1  0  0  0  0
 39 12  1  0  0  0  0
 41 18  1  0  0  0  0
 42 19  1  0  0  0  0
 45 25  1  0  0  0  0
 48 29  1  0  0  0  0
M  END
>  <Pose>
1

>  <Score>
-6.52

$$$$
