
 OpenBabel03232204043D

 51 55  0  0  1  0  0  0  0  0999 V2000
   20.3880  -54.9710   28.3870 Cl  0  0  0  0  0  0  0  0  0  0  0  0
   19.9930  -56.3510   29.3850 C   0  0  0  0  0  0  0  0  0  0  0  0
   19.1410  -56.1300   30.4690 C   0  0  0  0  0  0  0  0  0  0  0  0
   18.8060  -57.1920   31.2790 C   0  0  0  0  0  0  0  0  0  0  0  0
   19.3410  -58.4450   30.9730 C   0  0  0  0  0  0  0  0  0  0  0  0
   20.1820  -58.6530   29.9010 C   0  0  0  0  0  0  0  0  0  0  0  0
   20.5160  -57.5890   29.0890 C   0  0  0  0  0  0  0  0  0  0  0  0
   17.9120  -56.7630   32.3540 C   0  0  1  0  0  0  0  0  0  0  0  0
   16.6600  -57.4960   32.3740 N   0  0  0  0  0  0  0  0  0  0  0  0
   16.1520  -57.3450   33.7310 C   0  0  2  0  0  0  0  0  0  0  0  0
   17.3570  -57.2870   34.6290 C   0  0  1  0  0  0  0  0  0  0  0  0
   18.5160  -56.9350   33.7300 C   0  0  2  0  0  0  0  0  0  0  0  0
   19.0610  -55.6570   34.2520 C   0  0  0  0  0  0  0  0  0  0  0  0
   19.9620  -55.0220   33.6370 O   0  0  0  0  0  0  0  0  0  0  0  0
   18.4190  -55.3310   35.4740 N   0  0  0  0  0  0  0  0  0  0  0  0
   17.2230  -56.0940   35.5340 C   0  0  0  0  0  0  0  0  0  0  0  0
   16.1820  -55.8700   36.2130 O   0  0  0  0  0  0  0  0  0  0  0  0
   18.8860  -54.4180   36.4530 C   0  0  0  0  0  0  0  0  0  0  0  0
   17.8750  -53.7640   37.3080 C   0  0  2  0  0  0  0  0  0  0  0  0
   17.8800  -52.3780   37.2750 O   0  0  0  0  0  0  0  0  0  0  0  0
   16.7720  -52.0880   38.0720 C   0  0  0  0  0  0  0  0  0  0  0  0
   16.9140  -53.0130   39.2880 C   0  0  0  0  0  0  0  0  0  0  0  0
   17.9080  -54.0620   38.7610 C   0  0  0  0  0  0  0  0  0  0  0  0
   15.2570  -58.5070   34.0480 C   0  0  0  0  0  0  0  0  0  0  0  0
   13.8600  -57.9750   34.1340 C   0  0  0  0  0  0  0  0  0  0  0  0
   13.1200  -58.1720   33.1360 O   0  0  0  0  0  0  0  0  0  0  0  0
   13.3740  -57.2820   35.2720 N   0  0  0  0  0  0  0  0  0  0  0  0
   17.7170  -55.3230   32.1240 C   0  0  0  0  0  0  0  0  0  0  0  0
   16.9980  -54.5120   32.8150 O   0  0  0  0  0  0  0  0  0  0  0  0
   18.4780  -54.9810   30.9780 N   0  0  0  0  0  0  0  0  0  0  0  0
   19.1110  -59.3170   31.5770 H   0  0  0  0  0  0  0  0  0  0  0  0
   20.5940  -59.6260   29.6660 H   0  0  0  0  0  0  0  0  0  0  0  0
   21.1780  -57.7720   28.2520 H   0  0  0  0  0  0  0  0  0  0  0  0
   16.7910  -58.5020   32.1250 H   0  0  0  0  0  0  0  0  0  0  0  0
   15.6000  -56.3900   33.7540 H   0  0  0  0  0  0  0  0  0  0  0  0
   17.4950  -58.2150   35.1870 H   0  0  0  0  0  0  0  0  0  0  0  0
   19.2630  -57.7270   33.7430 H   0  0  0  0  0  0  0  0  0  0  0  0
   19.6100  -54.9310   37.1550 H   0  0  0  0  0  0  0  0  0  0  0  0
   19.5190  -53.5910   36.0150 H   0  0  0  0  0  0  0  0  0  0  0  0
   16.8700  -54.0740   36.9300 H   0  0  0  0  0  0  0  0  0  0  0  0
   15.8210  -52.3430   37.5790 H   0  0  0  0  0  0  0  0  0  0  0  0
   16.7300  -51.0280   38.3690 H   0  0  0  0  0  0  0  0  0  0  0  0
   17.3150  -52.4330   40.1150 H   0  0  0  0  0  0  0  0  0  0  0  0
   15.9490  -53.5230   39.5140 H   0  0  0  0  0  0  0  0  0  0  0  0
   18.8440  -53.8610   39.2800 H   0  0  0  0  0  0  0  0  0  0  0  0
   17.5170  -55.0760   39.0090 H   0  0  0  0  0  0  0  0  0  0  0  0
   15.5760  -58.9060   35.0360 H   0  0  0  0  0  0  0  0  0  0  0  0
   15.3470  -59.2770   33.2740 H   0  0  0  0  0  0  0  0  0  0  0  0
   12.3660  -57.0310   35.2980 H   0  0  0  0  0  0  0  0  0  0  0  0
   13.9620  -57.0090   36.0830 H   0  0  0  0  0  0  0  0  0  0  0  0
   18.5510  -54.0160   30.5550 H   0  0  0  0  0  0  0  0  0  0  0  0
  1  2  1  0  0  0  0
  2  3  1  0  0  0  0
  3 30  1  0  0  0  0
  3  4  2  0  0  0  0
  5  4  1  0  0  0  0
  5 31  1  0  0  0  0
  6  5  2  0  0  0  0
  7  2  2  0  0  0  0
  7  6  1  0  0  0  0
  8  4  1  6  0  0  0
  8  9  1  0  0  0  0
  8 12  1  0  0  0  0
  9 10  1  0  0  0  0
 10 35  1  1  0  0  0
 10 24  1  0  0  0  0
 10 11  1  0  0  0  0
 11 36  1  1  0  0  0
 11 16  1  0  0  0  0
 12 37  1  1  0  0  0
 12 13  1  0  0  0  0
 12 11  1  0  0  0  0
 13 15  1  0  0  0  0
 14 13  2  0  0  0  0
 15 16  1  0  0  0  0
 15 18  1  0  0  0  0
 16 17  2  0  0  0  0
 18 38  1  0  0  0  0
 18 19  1  0  0  0  0
 19 40  1  6  0  0  0
 19 23  1  0  0  0  0
 20 19  1  0  0  0  0
 20 21  1  0  0  0  0
 21 42  1  0  0  0  0
 21 22  1  0  0  0  0
 22 44  1  0  0  0  0
 22 43  1  0  0  0  0
 23 46  1  0  0  0  0
 23 45  1  0  0  0  0
 23 22  1  0  0  0  0
 24 25  1  0  0  0  0
 24 47  1  0  0  0  0
 25 27  1  0  0  0  0
 26 25  2  0  0  0  0
 27 49  1  0  0  0  0
 27 50  1  0  0  0  0
 28  8  1  0  0  0  0
 28 29  2  0  0  0  0
 30 28  1  0  0  0  0
 32  6  1  0  0  0  0
 33  7  1  0  0  0  0
 34  9  1  0  0  0  0
 39 18  1  0  0  0  0
 41 21  1  0  0  0  0
 48 24  1  0  0  0  0
 51 30  1  0  0  0  0
M  END
>  <Pose>
1

>  <Score>
-7.44

$$$$
