
 OpenBabel03232204043D

 53 56  0  0  1  0  0  0  0  0999 V2000
   17.9030  -55.9780   34.5770 B   0  0  0  0  0  0  0  0  0  0  0  0
   17.4210  -54.9980   36.1380 C   0  0  0  0  0  0  0  0  0  0  0  0
   16.4780  -55.5370   36.9840 C   0  0  0  0  0  0  0  0  0  0  0  0
   16.1400  -54.8160   38.1080 C   0  0  0  0  0  0  0  0  0  0  0  0
   16.7360  -53.5800   38.3770 C   0  0  0  0  0  0  0  0  0  0  0  0
   17.6790  -53.0660   37.5080 C   0  0  0  0  0  0  0  0  0  0  0  0
   18.0240  -53.7680   36.3900 C   0  0  0  0  0  0  0  0  0  0  0  0
   18.3310  -51.7460   37.7730 C   0  0  0  0  0  0  0  0  0  0  0  0
   14.8410  -55.5340   39.2990 B   0  0  0  0  0  0  0  0  0  0  0  0
   15.9140  -56.7360   36.7050 O   0  0  0  0  0  0  0  0  0  0  0  0
   14.8990  -57.3930   37.4080 C   0  0  0  0  0  0  0  0  0  0  0  0
   15.0750  -58.8860   37.1370 C   0  0  1  0  0  0  0  0  0  0  0  0
   14.2100  -59.6490   37.9200 O   0  0  0  0  0  0  0  0  0  0  0  0
   14.7690  -59.0980   35.6890 C   0  0  0  0  0  0  0  0  0  0  0  0
   14.5600  -60.4870   35.3300 N   0  0  0  0  0  4  0  0  0  0  0  0
   13.3640  -60.5470   34.5580 C   0  0  0  0  0  0  0  0  0  0  0  0
   13.4760  -61.2830   33.2600 C   0  0  1  0  0  0  0  0  0  0  0  0
   14.2370  -60.5630   32.2040 C   0  0  0  0  0  0  0  0  0  0  0  0
   15.4820  -61.1740   31.8320 N   0  0  0  0  0  0  0  0  0  0  0  0
   16.1830  -62.0190   32.6110 C   0  0  0  0  0  0  0  0  0  0  0  0
   17.3670  -62.5980   32.2570 C   0  0  0  0  0  0  0  0  0  0  0  0
   17.9000  -62.3120   31.0170 C   0  0  0  0  0  0  0  0  0  0  0  0
   17.1900  -61.4500   30.2150 C   0  0  0  0  0  0  0  0  0  0  0  0
   16.0000  -60.8830   30.6030 C   0  0  0  0  0  0  0  0  0  0  0  0
   15.3780  -60.0970   29.8420 O   0  0  0  0  0  0  0  0  0  0  0  0
   15.5470  -62.2900   33.9550 C   0  0  1  0  0  0  0  0  0  0  0  0
   15.7180  -61.0690   34.7690 C   0  0  0  0  0  0  0  0  0  0  0  0
   14.1150  -62.6300   33.6180 C   0  0  0  0  0  0  0  0  0  0  0  0
   16.4780  -53.0080   39.2550 H   0  0  0  0  0  0  0  0  0  0  0  0
   18.7670  -53.3380   35.7260 H   0  0  0  0  0  0  0  0  0  0  0  0
   18.3990  -51.1900   36.8200 H   0  0  0  0  0  0  0  0  0  0  0  0
   19.3920  -51.9170   38.1120 H   0  0  0  0  0  0  0  0  0  0  0  0
   17.7890  -51.1730   38.5580 H   0  0  0  0  0  0  0  0  0  0  0  0
   14.8660  -57.1740   38.4830 H   0  0  0  0  0  0  0  0  0  0  0  0
   13.9200  -57.1120   36.9700 H   0  0  0  0  0  0  0  0  0  0  0  0
   16.0940  -59.1380   37.4340 H   0  0  0  0  0  0  0  0  0  0  0  0
   14.4030  -60.6020   37.6920 H   0  0  0  0  0  0  0  0  0  0  0  0
   13.8390  -58.5450   35.4460 H   0  0  0  0  0  0  0  0  0  0  0  0
   15.5570  -58.6940   35.0230 H   0  0  0  0  0  0  0  0  0  0  0  0
   14.3650  -60.9830   36.2520 H   0  0  0  0  0  0  0  0  0  0  0  0
   12.5140  -61.0310   35.1260 H   0  0  0  0  0  0  0  0  0  0  0  0
   12.9510  -59.5250   34.3040 H   0  0  0  0  0  0  0  0  0  0  0  0
   12.4280  -61.5410   32.9310 H   0  0  0  0  0  0  0  0  0  0  0  0
   13.6030  -60.5420   31.2690 H   0  0  0  0  0  0  0  0  0  0  0  0
   14.3960  -59.4770   32.4430 H   0  0  0  0  0  0  0  0  0  0  0  0
   17.8470  -63.2630   32.9600 H   0  0  0  0  0  0  0  0  0  0  0  0
   18.8350  -62.7660   30.7310 H   0  0  0  0  0  0  0  0  0  0  0  0
   17.5810  -61.2020   29.2310 H   0  0  0  0  0  0  0  0  0  0  0  0
   16.0010  -63.2060   34.3900 H   0  0  0  0  0  0  0  0  0  0  0  0
   16.4080  -61.3460   35.6210 H   0  0  0  0  0  0  0  0  0  0  0  0
   16.2880  -60.2490   34.2370 H   0  0  0  0  0  0  0  0  0  0  0  0
   13.5640  -63.0910   34.4370 H   0  0  0  0  0  0  0  0  0  0  0  0
   14.0620  -63.2310   32.6710 H   0  0  0  0  0  0  0  0  0  0  0  0
  1  2  1  0  0  0  0
  2  7  2  0  0  0  0
  2  3  1  0  0  0  0
  3  4  2  0  0  0  0
  4  5  1  0  0  0  0
  4  9  1  0  0  0  0
  5 29  1  0  0  0  0
  6  8  1  0  0  0  0
  6  5  2  0  0  0  0
  7  6  1  0  0  0  0
  8 32  1  0  0  0  0
  8 33  1  0  0  0  0
 10  3  1  0  0  0  0
 10 11  1  0  0  0  0
 11 34  1  0  0  0  0
 12 11  1  0  0  0  0
 12 36  1  1  0  0  0
 12 13  1  0  0  0  0
 14 12  1  0  0  0  0
 15 14  1  0  0  0  0
 15 40  1  0  0  0  0
 16 41  1  0  0  0  0
 16 15  1  0  0  0  0
 17 43  1  6  0  0  0
 17 28  1  0  0  0  0
 17 16  1  0  0  0  0
 18 45  1  0  0  0  0
 18 17  1  0  0  0  0
 19 18  1  0  0  0  0
 19 20  1  0  0  0  0
 20 26  1  0  0  0  0
 21 20  2  0  0  0  0
 21 46  1  0  0  0  0
 22 21  1  0  0  0  0
 23 24  1  0  0  0  0
 23 22  2  0  0  0  0
 24 19  1  0  0  0  0
 25 24  2  0  0  0  0
 26 49  1  1  0  0  0
 26 27  1  0  0  0  0
 27 15  1  0  0  0  0
 27 50  1  0  0  0  0
 28 26  1  0  0  0  0
 28 52  1  0  0  0  0
 30  7  1  0  0  0  0
 31  8  1  0  0  0  0
 35 11  1  0  0  0  0
 37 13  1  0  0  0  0
 38 14  1  0  0  0  0
 39 14  1  0  0  0  0
 42 16  1  0  0  0  0
 44 18  1  0  0  0  0
 47 22  1  0  0  0  0
 48 23  1  0  0  0  0
 51 27  1  0  0  0  0
 53 28  1  0  0  0  0
M  END
>  <Pose>
1

>  <Score>
-5.87

$$$$
