
 OpenBabel03232204043D

 54 58  0  0  1  0  0  0  0  0999 V2000
   19.0150  -56.4430   35.8710 Cl  0  0  0  0  0  0  0  0  0  0  0  0
   18.6100  -56.7390   34.1720 C   0  0  0  0  0  0  0  0  0  0  0  0
   17.9690  -57.8910   33.7910 C   0  0  0  0  0  0  0  0  0  0  0  0
   17.6590  -58.1110   32.4750 C   0  0  0  0  0  0  0  0  0  0  0  0
   17.9980  -57.1680   31.5380 C   0  0  0  0  0  0  0  0  0  0  0  0
   18.6500  -55.9880   31.8950 C   0  0  0  0  0  0  0  0  0  0  0  0
   18.9470  -55.7960   33.2260 C   0  0  0  0  0  0  0  0  0  0  0  0
   17.6020  -57.5720   30.2400 N   0  0  0  0  0  0  0  0  0  0  0  0
   16.9810  -58.8410   30.3830 C   0  0  0  0  0  0  0  0  0  0  0  0
   16.5030  -59.5260   29.4540 O   0  0  0  0  0  0  0  0  0  0  0  0
   16.9810  -59.2430   31.8030 C   0  0  1  0  0  0  0  0  0  0  0  0
   17.6580  -60.4970   32.0220 N   0  0  0  0  0  0  0  0  0  0  0  0
   16.9540  -61.1980   33.0500 C   0  0  1  0  0  0  0  0  0  0  0  0
   15.4960  -60.8260   32.9160 C   0  0  2  0  0  0  0  0  0  0  0  0
   15.5890  -59.4680   32.2680 C   0  0  1  0  0  0  0  0  0  0  0  0
   15.1120  -58.4890   33.2740 C   0  0  0  0  0  0  0  0  0  0  0  0
   15.3210  -57.2510   33.3360 O   0  0  0  0  0  0  0  0  0  0  0  0
   14.3240  -59.2460   34.2160 N   0  0  0  0  0  0  0  0  0  0  0  0
   14.8270  -60.5980   34.2220 C   0  0  0  0  0  0  0  0  0  0  0  0
   14.7300  -61.4430   35.1490 O   0  0  0  0  0  0  0  0  0  0  0  0
   13.2230  -58.7580   35.0200 C   0  0  0  0  0  0  0  0  0  0  0  0
   13.7400  -58.1600   36.2870 C   0  0  0  0  0  0  0  0  0  0  0  0
   13.0050  -58.2290   37.4520 C   0  0  0  0  0  0  0  0  0  0  0  0
   13.5060  -57.6680   38.6140 C   0  0  0  0  0  0  0  0  0  0  0  0
   14.7330  -57.0340   38.6500 C   0  0  0  0  0  0  0  0  0  0  0  0
   15.4760  -56.9600   37.4920 C   0  0  0  0  0  0  0  0  0  0  0  0
   14.9660  -57.5210   36.3440 C   0  0  0  0  0  0  0  0  0  0  0  0
   11.7630  -58.8710   37.4130 O   0  0  0  0  0  0  0  0  0  0  0  0
   11.2590  -59.4460   38.6230 C   0  0  0  0  0  0  0  0  0  0  0  0
   17.1610  -62.6950   32.9550 C   0  0  2  0  0  0  0  0  0  0  0  0
   18.5320  -62.9260   32.8830 O   0  0  0  0  0  0  0  0  0  0  0  0
   16.5820  -63.1270   31.6120 C   0  0  0  0  0  0  0  0  0  0  0  0
   17.7350  -58.5850   34.5870 H   0  0  0  0  0  0  0  0  0  0  0  0
   18.9190  -55.2410   31.1620 H   0  0  0  0  0  0  0  0  0  0  0  0
   19.4570  -54.8920   33.5700 H   0  0  0  0  0  0  0  0  0  0  0  0
   17.7230  -57.0620   29.3160 H   0  0  0  0  0  0  0  0  0  0  0  0
   18.6430  -60.3360   32.2580 H   0  0  0  0  0  0  0  0  0  0  0  0
   17.3050  -60.8770   34.0300 H   0  0  0  0  0  0  0  0  0  0  0  0
   14.9340  -61.5630   32.3130 H   0  0  0  0  0  0  0  0  0  0  0  0
   14.9150  -59.5050   31.3780 H   0  0  0  0  0  0  0  0  0  0  0  0
   12.6220  -57.9810   34.5010 H   0  0  0  0  0  0  0  0  0  0  0  0
   12.5080  -59.5680   35.2790 H   0  0  0  0  0  0  0  0  0  0  0  0
   12.9410  -57.7160   39.5260 H   0  0  0  0  0  0  0  0  0  0  0  0
   15.1420  -56.5910   39.5470 H   0  0  0  0  0  0  0  0  0  0  0  0
   16.4450  -56.4760   37.4570 H   0  0  0  0  0  0  0  0  0  0  0  0
   15.5470  -57.4600   35.4590 H   0  0  0  0  0  0  0  0  0  0  0  0
   11.9890  -60.1990   38.9620 H   0  0  0  0  0  0  0  0  0  0  0  0
   10.2680  -59.8990   38.4040 H   0  0  0  0  0  0  0  0  0  0  0  0
   11.1300  -58.7020   39.4120 H   0  0  0  0  0  0  0  0  0  0  0  0
   16.7250  -63.2390   33.7980 H   0  0  0  0  0  0  0  0  0  0  0  0
   18.9760  -62.1500   32.4730 H   0  0  0  0  0  0  0  0  0  0  0  0
   17.2620  -63.8530   31.1010 H   0  0  0  0  0  0  0  0  0  0  0  0
   15.5550  -63.5270   31.7250 H   0  0  0  0  0  0  0  0  0  0  0  0
   16.5080  -62.2590   30.9150 H   0  0  0  0  0  0  0  0  0  0  0  0
  2  1  1  0  0  0  0
  3  2  1  0  0  0  0
  3 33  1  0  0  0  0
  4  3  2  0  0  0  0
  5  6  2  0  0  0  0
  5  4  1  0  0  0  0
  6  7  1  0  0  0  0
  7 35  1  0  0  0  0
  7  2  2  0  0  0  0
  8  9  1  0  0  0  0
  8  5  1  0  0  0  0
 10  9  2  0  0  0  0
 11  9  1  6  0  0  0
 11 12  1  0  0  0  0
 11 15  1  0  0  0  0
 11  4  1  0  0  0  0
 12 37  1  0  0  0  0
 12 13  1  0  0  0  0
 13 38  1  1  0  0  0
 14 39  1  6  0  0  0
 14 13  1  0  0  0  0
 14 19  1  0  0  0  0
 15 40  1  6  0  0  0
 15 14  1  0  0  0  0
 15 16  1  0  0  0  0
 16 17  2  0  0  0  0
 16 18  1  0  0  0  0
 18 19  1  0  0  0  0
 18 21  1  0  0  0  0
 19 20  2  0  0  0  0
 21 42  1  0  0  0  0
 21 22  1  0  0  0  0
 22 27  2  0  0  0  0
 22 23  1  0  0  0  0
 23 24  2  0  0  0  0
 24 25  1  0  0  0  0
 24 43  1  0  0  0  0
 25 44  1  0  0  0  0
 26 25  2  0  0  0  0
 27 26  1  0  0  0  0
 28 23  1  0  0  0  0
 28 29  1  0  0  0  0
 29 47  1  0  0  0  0
 29 49  1  0  0  0  0
 30 13  1  0  0  0  0
 30 50  1  1  0  0  0
 31 30  1  0  0  0  0
 32 53  1  0  0  0  0
 32 30  1  0  0  0  0
 34  6  1  0  0  0  0
 36  8  1  0  0  0  0
 41 21  1  0  0  0  0
 45 26  1  0  0  0  0
 46 27  1  0  0  0  0
 48 29  1  0  0  0  0
 51 31  1  0  0  0  0
 52 32  1  0  0  0  0
 54 32  1  0  0  0  0
M  END
>  <Pose>
1

>  <Score>
-5.45

$$$$
