
 OpenBabel03232204043D

 53 56  0  0  0  0  0  0  0  0999 V2000
   13.5670  -60.2620   33.7850 B   0  0  0  0  0  0  0  0  0  0  0  0
   14.1000  -59.1540   35.2570 C   0  0  0  0  0  0  0  0  0  0  0  0
   13.1620  -58.7860   36.2240 C   0  0  0  0  0  0  0  0  0  0  0  0
   13.5730  -57.9820   37.2830 C   0  0  0  0  0  0  0  0  0  0  0  0
   14.8700  -57.5410   37.4020 C   0  0  0  0  0  0  0  0  0  0  0  0
   15.0090  -56.7740   38.5210 N   0  0  0  0  0  0  0  0  0  0  0  0
   13.7960  -56.7440   39.0880 C   0  0  0  0  0  0  0  0  0  0  0  0
   12.8790  -57.4740   38.3600 C   0  0  0  0  0  0  0  0  0  0  0  0
   16.2370  -56.1440   38.9560 C   0  0  0  0  0  0  0  0  0  0  0  0
   16.0170  -54.7120   39.3550 C   0  0  0  0  0  0  0  0  0  0  0  0
   14.9180  -54.3910   39.8480 O   0  0  0  0  0  0  0  0  0  0  0  0
   17.0230  -53.7510   39.1790 N   0  0  0  0  0  0  0  0  0  0  0  0
   18.3570  -53.8870   39.7220 C   0  0  0  0  0  0  0  0  0  0  0  0
   19.3260  -53.6730   38.5710 C   0  0  0  0  0  0  0  0  0  0  0  0
   18.6590  -53.5780   37.3400 N   0  0  0  0  0  0  0  0  0  0  0  0
   17.6540  -52.6140   37.1550 C   0  0  0  0  0  0  0  0  0  0  0  0
   16.8000  -52.5140   38.4140 C   0  0  0  0  0  0  0  0  0  0  0  0
   18.8740  -54.5550   36.3550 C   0  0  0  0  0  0  0  0  0  0  0  0
   17.7680  -54.6910   35.3710 C   0  0  0  0  0  0  0  0  0  0  0  0
   16.8070  -53.8900   35.4930 O   0  0  0  0  0  0  0  0  0  0  0  0
   17.7490  -55.6450   34.3420 N   0  0  0  0  0  0  0  0  0  0  0  0
   17.2710  -55.2890   33.0210 C   0  0  0  0  0  0  0  0  0  0  0  0
   18.3600  -55.6650   32.0370 C   0  0  0  0  0  0  0  0  0  0  0  0
   18.4450  -57.0640   32.0910 O   0  0  0  0  0  0  0  0  0  0  0  0
   18.9270  -57.4980   33.3030 C   0  0  0  0  0  0  0  0  0  0  0  0
   18.1870  -57.0170   34.5030 C   0  0  0  0  0  0  0  0  0  0  0  0
   15.7990  -57.9000   36.4530 C   0  0  0  0  0  0  0  0  0  0  0  0
   15.3960  -58.7040   35.3920 C   0  0  0  0  0  0  0  0  0  0  0  0
   12.1580  -59.1390   36.1110 H   0  0  0  0  0  0  0  0  0  0  0  0
   13.5660  -56.2110   40.0060 H   0  0  0  0  0  0  0  0  0  0  0  0
   11.8330  -57.6470   38.5420 H   0  0  0  0  0  0  0  0  0  0  0  0
   16.6810  -56.6600   39.8350 H   0  0  0  0  0  0  0  0  0  0  0  0
   16.9890  -56.1040   38.1380 H   0  0  0  0  0  0  0  0  0  0  0  0
   18.5060  -54.8260   40.2590 H   0  0  0  0  0  0  0  0  0  0  0  0
   18.5620  -53.0720   40.4720 H   0  0  0  0  0  0  0  0  0  0  0  0
   19.9610  -54.6060   38.5420 H   0  0  0  0  0  0  0  0  0  0  0  0
   20.0480  -52.8560   38.7980 H   0  0  0  0  0  0  0  0  0  0  0  0
   17.9790  -51.6270   36.8150 H   0  0  0  0  0  0  0  0  0  0  0  0
   16.9420  -52.9880   36.3590 H   0  0  0  0  0  0  0  0  0  0  0  0
   17.2330  -51.7000   39.0290 H   0  0  0  0  0  0  0  0  0  0  0  0
   15.7400  -52.4010   38.2020 H   0  0  0  0  0  0  0  0  0  0  0  0
   19.8590  -54.3490   35.8490 H   0  0  0  0  0  0  0  0  0  0  0  0
   19.0330  -55.5420   36.8720 H   0  0  0  0  0  0  0  0  0  0  0  0
   16.3990  -55.9650   32.7800 H   0  0  0  0  0  0  0  0  0  0  0  0
   16.9610  -54.2360   32.9530 H   0  0  0  0  0  0  0  0  0  0  0  0
   18.0160  -55.4020   31.0080 H   0  0  0  0  0  0  0  0  0  0  0  0
   19.2960  -55.1650   32.3120 H   0  0  0  0  0  0  0  0  0  0  0  0
   18.8810  -58.6130   33.2990 H   0  0  0  0  0  0  0  0  0  0  0  0
   20.0090  -57.2490   33.3220 H   0  0  0  0  0  0  0  0  0  0  0  0
   17.3060  -57.6670   34.6750 H   0  0  0  0  0  0  0  0  0  0  0  0
   18.8400  -57.1500   35.3870 H   0  0  0  0  0  0  0  0  0  0  0  0
   16.8340  -57.5730   36.5120 H   0  0  0  0  0  0  0  0  0  0  0  0
   16.1430  -58.9750   34.6580 H   0  0  0  0  0  0  0  0  0  0  0  0
  1  2  1  0  0  0  0
  2 28  2  0  0  0  0
  2  3  1  0  0  0  0
  3  4  2  0  0  0  0
  4  5  1  0  0  0  0
  4  8  1  0  0  0  0
  5  6  1  0  0  0  0
  6  9  1  0  0  0  0
  6  7  1  0  0  0  0
  7 30  1  0  0  0  0
  8 31  1  0  0  0  0
  8  7  2  0  0  0  0
  9 10  1  0  0  0  0
  9 32  1  0  0  0  0
 10 11  2  0  0  0  0
 12 10  1  0  0  0  0
 12 13  1  0  0  0  0
 13 34  1  0  0  0  0
 13 35  1  0  0  0  0
 14 37  1  0  0  0  0
 14 13  1  0  0  0  0
 15 14  1  0  0  0  0
 16 15  1  0  0  0  0
 16 17  1  0  0  0  0
 17 40  1  0  0  0  0
 17 12  1  0  0  0  0
 18 43  1  0  0  0  0
 18 15  1  0  0  0  0
 19 20  2  0  0  0  0
 19 18  1  0  0  0  0
 21 26  1  0  0  0  0
 21 19  1  0  0  0  0
 22 21  1  0  0  0  0
 23 24  1  0  0  0  0
 23 47  1  0  0  0  0
 23 22  1  0  0  0  0
 24 25  1  0  0  0  0
 25 49  1  0  0  0  0
 25 26  1  0  0  0  0
 26 50  1  0  0  0  0
 26 51  1  0  0  0  0
 27 52  1  0  0  0  0
 27  5  2  0  0  0  0
 28 27  1  0  0  0  0
 29  3  1  0  0  0  0
 33  9  1  0  0  0  0
 36 14  1  0  0  0  0
 38 16  1  0  0  0  0
 39 16  1  0  0  0  0
 41 17  1  0  0  0  0
 42 18  1  0  0  0  0
 44 22  1  0  0  0  0
 45 22  1  0  0  0  0
 46 23  1  0  0  0  0
 48 25  1  0  0  0  0
 53 28  1  0  0  0  0
M  END
>  <Pose>
1

>  <Score>
-5.76

$$$$
