
 OpenBabel03232204043D

 47 50  0  0  1  0  0  0  0  0999 V2000
   14.5170  -56.9970   38.6800 Cl  0  0  0  0  0  0  0  0  0  0  0  0
   15.6960  -56.3690   37.5600 C   0  0  0  0  0  0  0  0  0  0  0  0
   15.9730  -57.0830   36.4150 C   0  0  0  0  0  0  0  0  0  0  0  0
   16.9040  -56.6400   35.4690 C   0  0  0  0  0  0  0  0  0  0  0  0
   17.5280  -55.4520   35.7450 C   0  0  0  0  0  0  0  0  0  0  0  0
   17.2580  -54.7320   36.8890 C   0  0  0  0  0  0  0  0  0  0  0  0
   16.3250  -55.1820   37.8270 C   0  0  0  0  0  0  0  0  0  0  0  0
   17.1050  -57.4440   34.3140 N   0  0  0  0  0  0  0  0  0  0  0  0
   18.0540  -58.4930   34.2170 C   0  0  0  0  0  0  0  0  0  0  0  0
   18.8170  -58.7640   35.1550 O   0  0  0  0  0  0  0  0  0  0  0  0
   18.1460  -59.2670   33.0120 N   0  0  0  0  0  0  0  0  0  0  0  0
   17.2910  -59.0010   31.9020 C   0  0  0  0  0  0  0  0  0  0  0  0
   17.0310  -59.8600   31.0420 O   0  0  0  0  0  0  0  0  0  0  0  0
   16.6910  -57.6250   31.7800 C   0  0  1  0  0  0  0  0  0  0  0  0
   16.2830  -57.2340   33.1460 C   0  0  0  0  0  0  0  0  0  0  0  0
   15.1480  -56.6750   33.3610 O   0  0  0  0  0  0  0  0  0  0  0  0
   17.7000  -56.7010   31.1810 C   0  0  0  0  0  0  0  0  0  0  0  0
   18.7000  -56.0730   31.7650 C   0  0  0  0  0  0  0  0  0  0  0  0
   19.4200  -55.2690   30.7400 C   0  0  2  0  0  0  0  0  0  0  0  0
   18.3450  -55.0880   29.7310 N   0  0  0  0  0  0  0  0  0  0  0  0
   17.6990  -56.3300   29.7960 N   0  0  0  0  0  0  0  0  0  0  0  0
   20.4430  -56.1260   30.0820 C   0  0  0  0  0  0  0  0  0  0  0  0
   20.0850  -57.3040   29.3920 C   0  0  0  0  0  0  0  0  0  0  0  0
   20.9800  -58.1000   28.7470 C   0  0  0  0  0  0  0  0  0  0  0  0
   22.3190  -57.7590   28.7510 C   0  0  0  0  0  0  0  0  0  0  0  0
   22.7050  -56.6170   29.4150 C   0  0  0  0  0  0  0  0  0  0  0  0
   21.7870  -55.8210   30.0640 C   0  0  0  0  0  0  0  0  0  0  0  0
   23.2480  -58.5600   28.0950 O   0  0  0  0  0  0  0  0  0  0  0  0
   20.5700  -59.2630   28.0800 O   0  0  0  0  0  0  0  0  0  0  0  0
   20.2050  -60.4010   28.8310 C   0  0  0  0  0  0  0  0  0  0  0  0
   15.4690  -58.0370   36.1930 H   0  0  0  0  0  0  0  0  0  0  0  0
   18.2510  -55.0760   35.0530 H   0  0  0  0  0  0  0  0  0  0  0  0
   17.7540  -53.7910   37.1100 H   0  0  0  0  0  0  0  0  0  0  0  0
   16.1140  -54.6120   38.7200 H   0  0  0  0  0  0  0  0  0  0  0  0
   18.8420  -60.0220   32.9630 H   0  0  0  0  0  0  0  0  0  0  0  0
   15.7690  -57.6480   31.1660 H   0  0  0  0  0  0  0  0  0  0  0  0
   18.9910  -56.1000   32.8010 H   0  0  0  0  0  0  0  0  0  0  0  0
   19.8050  -54.3240   31.1100 H   0  0  0  0  0  0  0  0  0  0  0  0
   17.7300  -54.2990   30.0100 H   0  0  0  0  0  0  0  0  0  0  0  0
   17.3020  -56.8740   29.0380 H   0  0  0  0  0  0  0  0  0  0  0  0
   19.0340  -57.5440   29.4070 H   0  0  0  0  0  0  0  0  0  0  0  0
   23.7590  -56.3880   29.4010 H   0  0  0  0  0  0  0  0  0  0  0  0
   22.1250  -54.9250   30.5760 H   0  0  0  0  0  0  0  0  0  0  0  0
   24.2100  -58.2530   28.0440 H   0  0  0  0  0  0  0  0  0  0  0  0
   19.2680  -60.2390   29.3770 H   0  0  0  0  0  0  0  0  0  0  0  0
   20.0520  -61.2240   28.0890 H   0  0  0  0  0  0  0  0  0  0  0  0
   21.0680  -60.6820   29.4800 H   0  0  0  0  0  0  0  0  0  0  0  0
  2  7  1  0  0  0  0
  2  1  1  0  0  0  0
  3  2  2  0  0  0  0
  4  5  2  0  0  0  0
  4  3  1  0  0  0  0
  5  6  1  0  0  0  0
  6 33  1  0  0  0  0
  6  7  2  0  0  0  0
  7 34  1  0  0  0  0
  8  4  1  0  0  0  0
  9  8  1  0  0  0  0
  9 10  2  0  0  0  0
 11  9  1  0  0  0  0
 12 11  1  0  0  0  0
 13 12  2  0  0  0  0
 14 36  1  6  0  0  0
 14 12  1  0  0  0  0
 14 15  1  0  0  0  0
 15 16  2  0  0  0  0
 15  8  1  0  0  0  0
 17 18  2  0  0  0  0
 17 14  1  0  0  0  0
 18 37  1  0  0  0  0
 19 38  1  1  0  0  0
 19 18  1  0  0  0  0
 20 21  1  0  0  0  0
 20 39  1  0  0  0  0
 20 19  1  0  0  0  0
 21 17  1  0  0  0  0
 22 19  1  0  0  0  0
 23 41  1  0  0  0  0
 23 22  2  0  0  0  0
 24 25  2  0  0  0  0
 24 23  1  0  0  0  0
 25 26  1  0  0  0  0
 26 27  2  0  0  0  0
 27 22  1  0  0  0  0
 27 43  1  0  0  0  0
 28 25  1  0  0  0  0
 29 24  1  0  0  0  0
 29 30  1  0  0  0  0
 30 45  1  0  0  0  0
 30 47  1  0  0  0  0
 31  3  1  0  0  0  0
 32  5  1  0  0  0  0
 35 11  1  0  0  0  0
 40 21  1  0  0  0  0
 42 26  1  0  0  0  0
 44 28  1  0  0  0  0
 46 30  1  0  0  0  0
M  END
>  <Pose>
1

>  <Score>
-7.31

$$$$
