
 OpenBabel03232204043D

 47 50  0  0  0  0  0  0  0  0999 V2000
   14.5740  -55.7310   38.7270 S   0  0  0  0  0  0  0  0  0  0  0  0
   13.7340  -54.8790   37.8330 O   0  0  0  0  0  0  0  0  0  0  0  0
   14.0660  -55.5880   40.1350 O   0  0  0  0  0  0  0  0  0  0  0  0
   14.4440  -57.3530   38.2700 N   0  0  0  0  0  0  0  0  0  0  0  0
   15.6340  -57.9430   37.7360 C   0  0  0  0  0  0  0  0  0  0  0  0
   15.7770  -57.7170   36.2430 C   0  0  0  0  0  0  0  0  0  0  0  0
   14.5330  -58.0460   35.5990 N   0  0  0  0  0  0  0  0  0  0  0  0
   13.4780  -58.6240   36.4080 C   0  0  0  0  0  0  0  0  0  0  0  0
   13.2480  -57.6930   37.5780 C   0  0  0  0  0  0  0  0  0  0  0  0
   14.3000  -57.8290   34.2110 C   0  0  0  0  0  0  0  0  0  0  0  0
   13.1410  -57.7990   33.7360 O   0  0  0  0  0  0  0  0  0  0  0  0
   15.4210  -57.6310   33.2890 C   0  0  0  0  0  0  0  0  0  0  0  0
   15.7410  -56.4760   32.6440 N   0  0  0  0  0  0  0  0  0  0  0  0
   16.8300  -56.6870   31.8880 C   0  0  0  0  0  0  0  0  0  0  0  0
   17.1870  -57.9590   32.0570 N   0  0  0  0  0  0  0  0  0  0  0  0
   16.3430  -58.5580   32.9070 C   0  0  0  0  0  0  0  0  0  0  0  0
   18.2650  -58.4240   31.3960 C   0  0  0  0  0  0  0  0  0  0  0  0
   19.0300  -57.6670   30.5520 C   0  0  0  0  0  0  0  0  0  0  0  0
   18.6730  -56.3370   30.3620 C   0  0  0  0  0  0  0  0  0  0  0  0
   17.5690  -55.8740   31.0420 C   0  0  0  0  0  0  0  0  0  0  0  0
   20.4330  -58.3080   29.7040 Cl  0  0  0  0  0  0  0  0  0  0  0  0
   16.1820  -55.1270   38.6990 N   0  0  0  0  0  0  0  0  0  0  0  0
   16.3560  -53.9800   39.5700 C   0  0  0  0  0  0  0  0  0  0  0  0
   17.5470  -53.2050   39.0570 C   0  0  0  0  0  0  0  0  0  0  0  0
   18.5110  -54.0460   38.5120 O   0  0  0  0  0  0  0  0  0  0  0  0
   18.0850  -54.6620   37.3380 C   0  0  0  0  0  0  0  0  0  0  0  0
   16.5700  -54.6940   37.3690 C   0  0  0  0  0  0  0  0  0  0  0  0
   15.5520  -59.0490   37.8750 H   0  0  0  0  0  0  0  0  0  0  0  0
   16.5000  -57.6090   38.3100 H   0  0  0  0  0  0  0  0  0  0  0  0
   16.0830  -56.6490   36.0720 H   0  0  0  0  0  0  0  0  0  0  0  0
   16.6000  -58.3340   35.8290 H   0  0  0  0  0  0  0  0  0  0  0  0
   13.8800  -59.6050   36.7790 H   0  0  0  0  0  0  0  0  0  0  0  0
   12.5610  -58.7710   35.8330 H   0  0  0  0  0  0  0  0  0  0  0  0
   12.5700  -58.2220   38.3070 H   0  0  0  0  0  0  0  0  0  0  0  0
   12.7320  -56.8020   37.2080 H   0  0  0  0  0  0  0  0  0  0  0  0
   16.4280  -59.6050   33.2060 H   0  0  0  0  0  0  0  0  0  0  0  0
   18.5760  -59.4690   31.5230 H   0  0  0  0  0  0  0  0  0  0  0  0
   19.2290  -55.6740   29.7090 H   0  0  0  0  0  0  0  0  0  0  0  0
   17.2520  -54.8360   30.9250 H   0  0  0  0  0  0  0  0  0  0  0  0
   16.4960  -54.2790   40.6280 H   0  0  0  0  0  0  0  0  0  0  0  0
   15.4460  -53.3510   39.4660 H   0  0  0  0  0  0  0  0  0  0  0  0
   18.0320  -52.6820   39.9070 H   0  0  0  0  0  0  0  0  0  0  0  0
   17.2880  -52.4590   38.2900 H   0  0  0  0  0  0  0  0  0  0  0  0
   18.4090  -55.7400   37.3790 H   0  0  0  0  0  0  0  0  0  0  0  0
   18.4740  -54.1710   36.4290 H   0  0  0  0  0  0  0  0  0  0  0  0
   16.1620  -53.6920   37.1190 H   0  0  0  0  0  0  0  0  0  0  0  0
   16.1520  -55.3930   36.6200 H   0  0  0  0  0  0  0  0  0  0  0  0
  1  3  2  0  0  0  0
  2  1  2  0  0  0  0
  4  1  1  0  0  0  0
  5 28  1  0  0  0  0
  5  4  1  0  0  0  0
  5 29  1  0  0  0  0
  6  5  1  0  0  0  0
  7  6  1  0  0  0  0
  7  8  1  0  0  0  0
  8 32  1  0  0  0  0
  8  9  1  0  0  0  0
  9  4  1  0  0  0  0
  9 34  1  0  0  0  0
 10  7  1  0  0  0  0
 11 10  2  0  0  0  0
 12 10  1  0  0  0  0
 13 12  1  0  0  0  0
 14 15  1  0  0  0  0
 14 13  2  0  0  0  0
 15 16  1  0  0  0  0
 16 36  1  0  0  0  0
 16 12  2  0  0  0  0
 17 37  1  0  0  0  0
 17 15  1  0  0  0  0
 18 17  2  0  0  0  0
 19 18  1  0  0  0  0
 19 20  2  0  0  0  0
 20 14  1  0  0  0  0
 21 18  1  0  0  0  0
 22  1  1  0  0  0  0
 22 23  1  0  0  0  0
 23 40  1  0  0  0  0
 24 23  1  0  0  0  0
 24 42  1  0  0  0  0
 25 24  1  0  0  0  0
 26 27  1  0  0  0  0
 26 44  1  0  0  0  0
 26 25  1  0  0  0  0
 27 22  1  0  0  0  0
 30  6  1  0  0  0  0
 31  6  1  0  0  0  0
 33  8  1  0  0  0  0
 35  9  1  0  0  0  0
 38 19  1  0  0  0  0
 39 20  1  0  0  0  0
 41 23  1  0  0  0  0
 43 24  1  0  0  0  0
 45 26  1  0  0  0  0
 46 27  1  0  0  0  0
 47 27  1  0  0  0  0
M  END
>  <Pose>
1

>  <Score>
-6.19

$$$$
