
 OpenBabel03232204043D

 61 64  0  0  1  0  0  0  0  0999 V2000
   13.4330  -58.4260   34.4900 S   0  0  0  0  0  0  0  0  0  0  0  0
   12.9820  -56.9800   34.2880 O   0  0  0  0  0  0  0  0  0  0  0  0
   12.4490  -59.2290   33.6370 O   0  0  0  0  0  0  0  0  0  0  0  0
   13.2890  -58.9270   36.0660 N   0  0  0  0  0  0  0  0  0  0  0  0
   12.5870  -58.2720   37.0590 C   0  0  1  0  0  0  0  0  0  0  0  0
   11.3870  -59.1750   37.3780 C   0  0  0  0  0  0  0  0  0  0  0  0
   11.9970  -60.5520   37.2360 C   0  0  0  0  0  0  0  0  0  0  0  0
   13.0970  -60.3670   36.2180 C   0  0  0  0  0  0  0  0  0  0  0  0
   13.4640  -58.1920   38.2970 C   0  0  0  0  0  0  0  0  0  0  0  0
   14.1150  -59.2120   38.5610 O   0  0  0  0  0  0  0  0  0  0  0  0
   13.4910  -57.0070   39.0530 N   0  0  0  0  0  0  0  0  0  0  0  0
   14.7170  -56.2600   39.1880 C   0  0  0  0  0  0  0  0  0  0  0  0
   15.3770  -55.8720   37.9210 C   0  0  0  0  0  0  0  0  0  0  0  0
   16.3370  -54.8280   37.9990 N   0  0  0  0  0  0  0  0  0  0  0  0
   15.8150  -53.5200   38.2220 C   0  0  0  0  0  0  0  0  0  0  0  0
   16.7490  -52.8040   39.1760 C   0  0  0  0  0  0  0  0  0  0  0  0
   18.1630  -52.9020   38.6410 C   0  0  0  0  0  0  0  0  0  0  0  0
   18.1390  -52.5610   37.1750 C   0  0  0  0  0  0  0  0  0  0  0  0
   17.6950  -53.6650   36.2900 C   0  0  0  0  0  0  0  0  0  0  0  0
   17.3130  -54.9290   36.9640 C   0  0  0  0  0  0  0  0  0  0  0  0
   15.0080  -58.6340   33.7830 C   0  0  0  0  0  0  0  0  0  0  0  0
   15.7330  -57.4930   33.4020 C   0  0  0  0  0  0  0  0  0  0  0  0
   16.9500  -57.5370   32.7840 C   0  0  0  0  0  0  0  0  0  0  0  0
   17.4820  -58.7880   32.5270 C   0  0  0  0  0  0  0  0  0  0  0  0
   16.8330  -59.9360   32.8700 C   0  0  0  0  0  0  0  0  0  0  0  0
   15.5980  -59.8330   33.4980 C   0  0  0  0  0  0  0  0  0  0  0  0
   14.8780  -61.3460   34.0010 Cl  0  0  0  0  0  0  0  0  0  0  0  0
   18.7640  -58.8490   31.8830 N   0  0  0  0  0  0  0  0  0  0  0  0
   19.4340  -57.6390   31.5360 C   0  0  0  0  0  0  0  0  0  0  0  0
   20.2750  -57.6330   30.6190 O   0  0  0  0  0  0  0  0  0  0  0  0
   19.0830  -56.4210   32.3080 C   0  0  0  0  0  0  0  0  0  0  0  0
   17.6620  -56.4070   32.4110 O   0  0  0  0  0  0  0  0  0  0  0  0
   12.1450  -57.2930   36.8680 H   0  0  0  0  0  0  0  0  0  0  0  0
   10.9400  -58.9680   38.3440 H   0  0  0  0  0  0  0  0  0  0  0  0
   10.6350  -59.0060   36.5860 H   0  0  0  0  0  0  0  0  0  0  0  0
   12.3930  -60.8230   38.2440 H   0  0  0  0  0  0  0  0  0  0  0  0
   11.2860  -61.2980   36.8600 H   0  0  0  0  0  0  0  0  0  0  0  0
   12.8370  -60.8340   35.2410 H   0  0  0  0  0  0  0  0  0  0  0  0
   14.0390  -60.7820   36.6140 H   0  0  0  0  0  0  0  0  0  0  0  0
   12.6520  -56.6320   39.5410 H   0  0  0  0  0  0  0  0  0  0  0  0
   14.4490  -55.3030   39.7260 H   0  0  0  0  0  0  0  0  0  0  0  0
   15.4430  -56.7680   39.8410 H   0  0  0  0  0  0  0  0  0  0  0  0
   14.6110  -55.5910   37.1860 H   0  0  0  0  0  0  0  0  0  0  0  0
   15.9020  -56.7760   37.5050 H   0  0  0  0  0  0  0  0  0  0  0  0
   14.7710  -53.5140   38.5790 H   0  0  0  0  0  0  0  0  0  0  0  0
   15.8260  -52.9590   37.2650 H   0  0  0  0  0  0  0  0  0  0  0  0
   16.5150  -51.7020   39.2210 H   0  0  0  0  0  0  0  0  0  0  0  0
   16.6620  -53.1650   40.2170 H   0  0  0  0  0  0  0  0  0  0  0  0
   18.8800  -52.2880   39.1730 H   0  0  0  0  0  0  0  0  0  0  0  0
   18.4830  -53.9610   38.7280 H   0  0  0  0  0  0  0  0  0  0  0  0
   19.1630  -52.1550   36.9220 H   0  0  0  0  0  0  0  0  0  0  0  0
   17.4510  -51.6930   37.0220 H   0  0  0  0  0  0  0  0  0  0  0  0
   16.8950  -53.3270   35.5680 H   0  0  0  0  0  0  0  0  0  0  0  0
   18.5600  -53.9130   35.6070 H   0  0  0  0  0  0  0  0  0  0  0  0
   18.2060  -55.4480   37.3700 H   0  0  0  0  0  0  0  0  0  0  0  0
   16.9190  -55.6180   36.1700 H   0  0  0  0  0  0  0  0  0  0  0  0
   15.2960  -56.5140   33.6140 H   0  0  0  0  0  0  0  0  0  0  0  0
   17.2840  -60.8990   32.6510 H   0  0  0  0  0  0  0  0  0  0  0  0
   19.1800  -59.7910   31.6810 H   0  0  0  0  0  0  0  0  0  0  0  0
   19.4380  -55.4920   31.8610 H   0  0  0  0  0  0  0  0  0  0  0  0
   19.4620  -56.5440   33.3590 H   0  0  0  0  0  0  0  0  0  0  0  0
  1  4  1  0  0  0  0
  2  1  2  0  0  0  0
  3  1  2  0  0  0  0
  4  8  1  0  0  0  0
  4  5  1  0  0  0  0
  5 33  1  6  0  0  0
  5  6  1  0  0  0  0
  5  9  1  0  0  0  0
  6 34  1  0  0  0  0
  7  6  1  0  0  0  0
  7 36  1  0  0  0  0
  8 39  1  0  0  0  0
  8  7  1  0  0  0  0
  9 10  2  0  0  0  0
  9 11  1  0  0  0  0
 11 12  1  0  0  0  0
 11 40  1  0  0  0  0
 12 41  1  0  0  0  0
 12 42  1  0  0  0  0
 13 14  1  0  0  0  0
 13 12  1  0  0  0  0
 14 15  1  0  0  0  0
 15 45  1  0  0  0  0
 15 16  1  0  0  0  0
 16 47  1  0  0  0  0
 16 48  1  0  0  0  0
 17 50  1  0  0  0  0
 17 49  1  0  0  0  0
 17 16  1  0  0  0  0
 18 17  1  0  0  0  0
 19 20  1  0  0  0  0
 19 18  1  0  0  0  0
 20 55  1  0  0  0  0
 20 14  1  0  0  0  0
 21  1  1  0  0  0  0
 22 57  1  0  0  0  0
 22 21  2  0  0  0  0
 23 22  1  0  0  0  0
 24 23  2  0  0  0  0
 24 25  1  0  0  0  0
 25 26  2  0  0  0  0
 26 21  1  0  0  0  0
 26 27  1  0  0  0  0
 28 24  1  0  0  0  0
 29 28  1  0  0  0  0
 29 31  1  0  0  0  0
 30 29  2  0  0  0  0
 31 32  1  0  0  0  0
 31 61  1  0  0  0  0
 32 23  1  0  0  0  0
 35  6  1  0  0  0  0
 37  7  1  0  0  0  0
 38  8  1  0  0  0  0
 43 13  1  0  0  0  0
 44 13  1  0  0  0  0
 46 15  1  0  0  0  0
 51 18  1  0  0  0  0
 52 18  1  0  0  0  0
 53 19  1  0  0  0  0
 54 19  1  0  0  0  0
 56 20  1  0  0  0  0
 58 25  1  0  0  0  0
 59 28  1  0  0  0  0
 60 31  1  0  0  0  0
M  END
>  <Pose>
1

>  <Score>
-7.51

$$$$
