
 OpenBabel03232204043D

 47 50  0  0  0  0  0  0  0  0999 V2000
   19.2190  -55.6830   28.8000 Cl  0  0  0  0  0  0  0  0  0  0  0  0
   18.6600  -55.8770   30.4500 C   0  0  0  0  0  0  0  0  0  0  0  0
   19.0500  -55.0360   31.4760 C   0  0  0  0  0  0  0  0  0  0  0  0
   18.6010  -55.1970   32.7750 C   0  0  0  0  0  0  0  0  0  0  0  0
   17.7340  -56.2190   33.1060 C   0  0  0  0  0  0  0  0  0  0  0  0
   17.3370  -57.0650   32.0920 C   0  0  0  0  0  0  0  0  0  0  0  0
   17.7880  -56.9020   30.7840 C   0  0  0  0  0  0  0  0  0  0  0  0
   17.2830  -56.3680   34.4480 N   0  0  0  0  0  0  0  0  0  0  0  0
   17.0850  -55.4100   35.2840 N   0  0  0  0  0  0  0  0  0  0  0  0
   16.6450  -55.8870   36.5080 C   0  0  0  0  0  0  0  0  0  0  0  0
   16.5800  -57.1990   36.3860 N   0  0  0  0  0  0  0  0  0  0  0  0
   16.9810  -57.4920   35.1020 C   0  0  0  0  0  0  0  0  0  0  0  0
   17.0390  -58.6560   34.6520 O   0  0  0  0  0  0  0  0  0  0  0  0
   16.0940  -58.1750   37.3100 C   0  0  0  0  0  0  0  0  0  0  0  0
   14.6540  -58.4780   37.2120 C   0  0  0  0  0  0  0  0  0  0  0  0
   14.0730  -58.5820   38.3710 O   0  0  0  0  0  0  0  0  0  0  0  0
   13.8350  -58.6660   36.1200 N   0  0  0  0  0  0  0  0  0  0  0  0
   13.3360  -59.9320   35.6560 C   0  0  0  0  0  0  0  0  0  0  0  0
   12.4020  -59.7810   34.4420 C   0  0  0  0  0  0  0  0  0  0  0  0
   13.0910  -59.0080   33.4040 N   0  0  0  0  0  0  0  0  0  0  0  0
   13.7380  -57.8210   33.9130 C   0  0  0  0  0  0  0  0  0  0  0  0
   14.5020  -57.1530   33.1790 O   0  0  0  0  0  0  0  0  0  0  0  0
   13.4210  -57.4970   35.3240 C   0  0  0  0  0  0  0  0  0  0  0  0
   16.3360  -54.9550   37.5900 C   0  0  0  0  0  0  0  0  0  0  0  0
   17.1890  -53.8590   37.7780 C   0  0  0  0  0  0  0  0  0  0  0  0
   17.0500  -52.9470   38.7880 C   0  0  0  0  0  0  0  0  0  0  0  0
   16.0180  -53.0680   39.7100 C   0  0  0  0  0  0  0  0  0  0  0  0
   15.1810  -54.1340   39.5370 C   0  0  0  0  0  0  0  0  0  0  0  0
   15.3290  -55.0640   38.5040 C   0  0  0  0  0  0  0  0  0  0  0  0
   19.7290  -54.2340   31.2210 H   0  0  0  0  0  0  0  0  0  0  0  0
   18.9030  -54.5420   33.5740 H   0  0  0  0  0  0  0  0  0  0  0  0
   16.6630  -57.8610   32.3500 H   0  0  0  0  0  0  0  0  0  0  0  0
   17.4740  -57.5680   29.9950 H   0  0  0  0  0  0  0  0  0  0  0  0
   16.3410  -58.0150   38.3350 H   0  0  0  0  0  0  0  0  0  0  0  0
   16.6440  -59.1620   37.0390 H   0  0  0  0  0  0  0  0  0  0  0  0
   12.6750  -60.3200   36.4760 H   0  0  0  0  0  0  0  0  0  0  0  0
   14.1080  -60.6540   35.4160 H   0  0  0  0  0  0  0  0  0  0  0  0
   11.4910  -59.2310   34.7250 H   0  0  0  0  0  0  0  0  0  0  0  0
   12.1070  -60.7780   34.0830 H   0  0  0  0  0  0  0  0  0  0  0  0
   13.1150  -59.2780   32.4170 H   0  0  0  0  0  0  0  0  0  0  0  0
   14.0010  -56.6080   35.6660 H   0  0  0  0  0  0  0  0  0  0  0  0
   12.3280  -57.3580   35.4870 H   0  0  0  0  0  0  0  0  0  0  0  0
   18.0040  -53.7490   37.0540 H   0  0  0  0  0  0  0  0  0  0  0  0
   17.7200  -52.1120   38.9130 H   0  0  0  0  0  0  0  0  0  0  0  0
   15.8890  -52.3610   40.5110 H   0  0  0  0  0  0  0  0  0  0  0  0
   14.3570  -54.2640   40.2500 H   0  0  0  0  0  0  0  0  0  0  0  0
   14.6450  -55.8680   38.4740 H   0  0  0  0  0  0  0  0  0  0  0  0
  1  2  1  0  0  0  0
  2  7  2  0  0  0  0
  2  3  1  0  0  0  0
  3  4  2  0  0  0  0
  4  5  1  0  0  0  0
  4 31  1  0  0  0  0
  5  8  1  0  0  0  0
  6 32  1  0  0  0  0
  6  5  2  0  0  0  0
  7  6  1  0  0  0  0
  8 12  1  0  0  0  0
  8  9  1  0  0  0  0
  9 10  2  0  0  0  0
 10 24  1  0  0  0  0
 11 10  1  0  0  0  0
 11 14  1  0  0  0  0
 12 11  1  0  0  0  0
 13 12  2  0  0  0  0
 14 34  1  0  0  0  0
 15 14  1  0  0  0  0
 15 16  2  0  0  0  0
 17 15  1  0  0  0  0
 18 17  1  0  0  0  0
 18 36  1  0  0  0  0
 19 38  1  0  0  0  0
 19 18  1  0  0  0  0
 20 21  1  0  0  0  0
 20 19  1  0  0  0  0
 21 23  1  0  0  0  0
 22 21  2  0  0  0  0
 23 42  1  0  0  0  0
 23 41  1  0  0  0  0
 23 17  1  0  0  0  0
 24 25  2  0  0  0  0
 24 29  1  0  0  0  0
 25 26  1  0  0  0  0
 26 44  1  0  0  0  0
 26 27  2  0  0  0  0
 27 45  1  0  0  0  0
 28 27  1  0  0  0  0
 28 46  1  0  0  0  0
 29 28  2  0  0  0  0
 30  3  1  0  0  0  0
 33  7  1  0  0  0  0
 35 14  1  0  0  0  0
 37 18  1  0  0  0  0
 39 19  1  0  0  0  0
 40 20  1  0  0  0  0
 43 25  1  0  0  0  0
 47 29  1  0  0  0  0
M  END
>  <Pose>
1

>  <Score>
-7.10

$$$$
