
 OpenBabel03232204043D

 42 45  0  0  0  0  0  0  0  0999 V2000
   13.1510  -62.1240   32.5780 Cl  0  0  0  0  0  0  0  0  0  0  0  0
   13.1320  -61.0520   33.9800 C   0  0  0  0  0  0  0  0  0  0  0  0
   12.9480  -61.5080   35.2550 C   0  0  0  0  0  0  0  0  0  0  0  0
   12.9270  -60.7020   36.3740 C   0  0  0  0  0  0  0  0  0  0  0  0
   13.1070  -59.3370   36.1730 C   0  0  0  0  0  0  0  0  0  0  0  0
   13.2960  -58.8620   34.8690 C   0  0  0  0  0  0  0  0  0  0  0  0
   13.3080  -59.7030   33.7920 C   0  0  0  0  0  0  0  0  0  0  0  0
   13.0980  -58.4500   37.2710 N   0  0  0  0  0  0  0  0  0  0  0  0
   12.2310  -58.4680   38.2560 N   0  0  0  0  0  0  0  0  0  0  0  0
   12.5670  -57.4780   39.0780 N   0  0  0  0  0  0  0  0  0  0  0  0
   13.6520  -56.8230   38.6210 C   0  0  0  0  0  0  0  0  0  0  0  0
   13.9710  -57.4490   37.4830 C   0  0  0  0  0  0  0  0  0  0  0  0
   15.0890  -56.7770   37.0100 C   0  0  0  0  0  0  0  0  0  0  0  0
   15.6860  -57.0740   35.9510 O   0  0  0  0  0  0  0  0  0  0  0  0
   15.4490  -55.7720   37.8220 N   0  0  0  0  0  0  0  0  0  0  0  0
   14.5540  -55.8000   38.8270 C   0  0  0  0  0  0  0  0  0  0  0  0
   14.5410  -55.0060   39.8150 O   0  0  0  0  0  0  0  0  0  0  0  0
   16.5300  -54.8530   37.6920 C   0  0  0  0  0  0  0  0  0  0  0  0
   17.7460  -55.1970   37.1350 C   0  0  0  0  0  0  0  0  0  0  0  0
   18.7870  -54.3010   37.0120 C   0  0  0  0  0  0  0  0  0  0  0  0
   18.6580  -52.9990   37.4500 C   0  0  0  0  0  0  0  0  0  0  0  0
   17.4490  -52.6410   38.0090 C   0  0  0  0  0  0  0  0  0  0  0  0
   16.4110  -53.5460   38.1270 C   0  0  0  0  0  0  0  0  0  0  0  0
   19.7150  -52.1010   37.3210 O   0  0  0  0  0  0  0  0  0  0  0  0
   19.9220  -51.3040   36.1960 C   0  0  0  0  0  0  0  0  0  0  0  0
   20.0120  -54.6480   36.4500 O   0  0  0  0  0  0  0  0  0  0  0  0
   20.1620  -54.4660   35.0540 C   0  0  0  0  0  0  0  0  0  0  0  0
   12.8080  -62.5790   35.4040 H   0  0  0  0  0  0  0  0  0  0  0  0
   12.7790  -61.0970   37.3720 H   0  0  0  0  0  0  0  0  0  0  0  0
   13.4380  -57.7900   34.7010 H   0  0  0  0  0  0  0  0  0  0  0  0
   13.4560  -59.3460   32.7650 H   0  0  0  0  0  0  0  0  0  0  0  0
   11.4160  -59.1390   38.3800 H   0  0  0  0  0  0  0  0  0  0  0  0
   12.0370  -57.2630   39.9560 H   0  0  0  0  0  0  0  0  0  0  0  0
   17.8550  -56.2130   36.7900 H   0  0  0  0  0  0  0  0  0  0  0  0
   17.3460  -51.6200   38.3520 H   0  0  0  0  0  0  0  0  0  0  0  0
   15.4640  -53.2530   38.5680 H   0  0  0  0  0  0  0  0  0  0  0  0
   20.9660  -50.9440   36.0970 H   0  0  0  0  0  0  0  0  0  0  0  0
   19.6950  -51.8480   35.2410 H   0  0  0  0  0  0  0  0  0  0  0  0
   19.2380  -50.4350   36.2490 H   0  0  0  0  0  0  0  0  0  0  0  0
   19.8350  -53.4540   34.7630 H   0  0  0  0  0  0  0  0  0  0  0  0
   21.2010  -54.6440   34.7200 H   0  0  0  0  0  0  0  0  0  0  0  0
   19.5340  -55.2250   34.5450 H   0  0  0  0  0  0  0  0  0  0  0  0
  1  2  1  0  0  0  0
  2  3  1  0  0  0  0
  3 28  1  0  0  0  0
  3  4  2  0  0  0  0
  4 29  1  0  0  0  0
  5  4  1  0  0  0  0
  5  8  1  0  0  0  0
  6  5  2  0  0  0  0
  7  2  2  0  0  0  0
  7  6  1  0  0  0  0
  8 12  1  0  0  0  0
  8  9  1  0  0  0  0
  9 32  1  0  0  0  0
  9 10  1  0  0  0  0
 10 33  1  0  0  0  0
 11 16  1  0  0  0  0
 11 10  1  0  0  0  0
 12 11  2  0  0  0  0
 13 12  1  0  0  0  0
 13 15  1  0  0  0  0
 14 13  2  0  0  0  0
 15 16  1  0  0  0  0
 16 17  2  0  0  0  0
 18 15  1  0  0  0  0
 18 23  1  0  0  0  0
 19 18  2  0  0  0  0
 20 19  1  0  0  0  0
 20 21  2  0  0  0  0
 21 22  1  0  0  0  0
 22 23  2  0  0  0  0
 22 35  1  0  0  0  0
 23 36  1  0  0  0  0
 24 21  1  0  0  0  0
 25 39  1  0  0  0  0
 25 24  1  0  0  0  0
 26 20  1  0  0  0  0
 27 26  1  0  0  0  0
 30  6  1  0  0  0  0
 31  7  1  0  0  0  0
 34 19  1  0  0  0  0
 37 25  1  0  0  0  0
 38 25  1  0  0  0  0
 40 27  1  0  0  0  0
 41 27  1  0  0  0  0
 42 27  1  0  0  0  0
M  END
>  <Pose>
1

>  <Score>
-7.02

$$$$
