
 OpenBabel03232204043D

 42 45  0  0  0  0  0  0  0  0999 V2000
   10.7790  -59.3480   39.6240 Cl  0  0  0  0  0  0  0  0  0  0  0  0
   12.1180  -59.0780   38.5100 C   0  0  0  0  0  0  0  0  0  0  0  0
   12.9560  -57.9890   38.6740 C   0  0  0  0  0  0  0  0  0  0  0  0
   13.9990  -57.7690   37.8170 C   0  0  0  0  0  0  0  0  0  0  0  0
   14.1690  -58.6740   36.7960 C   0  0  0  0  0  0  0  0  0  0  0  0
   13.3540  -59.7600   36.6110 C   0  0  0  0  0  0  0  0  0  0  0  0
   12.3020  -59.9710   37.4870 C   0  0  0  0  0  0  0  0  0  0  0  0
   15.2840  -58.4680   35.8510 C   0  0  0  0  0  0  0  0  0  0  0  0
   15.6930  -59.1220   34.8210 N   0  0  0  0  0  0  0  0  0  0  0  0
   16.8430  -58.5150   34.2150 C   0  0  0  0  0  0  0  0  0  0  0  0
   17.1260  -57.3120   35.0530 C   0  0  0  0  0  0  0  0  0  0  0  0
   16.1050  -57.3340   36.0740 N   0  0  0  0  0  0  0  0  0  0  0  0
   15.8820  -56.4200   37.1570 C   0  0  0  0  0  0  0  0  0  0  0  0
   16.5160  -55.3060   37.5520 N   0  0  0  0  0  0  0  0  0  0  0  0
   15.9260  -54.8040   38.6230 N   0  0  0  0  0  0  0  0  0  0  0  0
   14.9020  -55.6310   38.8930 C   0  0  0  0  0  0  0  0  0  0  0  0
   14.1080  -55.4730   39.8520 O   0  0  0  0  0  0  0  0  0  0  0  0
   14.8530  -56.6490   37.9920 N   0  0  0  0  0  0  0  0  0  0  0  0
   16.2890  -53.6060   39.3740 C   0  0  0  0  0  0  0  0  0  0  0  0
   17.7280  -53.3250   39.1610 C   0  0  0  0  0  0  0  0  0  0  0  0
   18.5760  -53.9150   39.8880 O   0  0  0  0  0  0  0  0  0  0  0  0
   18.1960  -52.4180   38.1740 N   0  0  0  0  0  0  0  0  0  0  0  0
   19.3060  -52.7670   37.3160 C   0  0  0  0  0  0  0  0  0  0  0  0
   18.8440  -53.7010   36.1950 C   0  0  0  0  0  0  0  0  0  0  0  0
   19.7470  -51.4820   36.6290 C   0  0  0  0  0  0  0  0  0  0  0  0
   12.7820  -57.3140   39.4820 H   0  0  0  0  0  0  0  0  0  0  0  0
   13.4780  -60.4800   35.8120 H   0  0  0  0  0  0  0  0  0  0  0  0
   11.6450  -60.8430   37.3420 H   0  0  0  0  0  0  0  0  0  0  0  0
   17.6860  -59.2490   34.2990 H   0  0  0  0  0  0  0  0  0  0  0  0
   16.6640  -58.2640   33.1450 H   0  0  0  0  0  0  0  0  0  0  0  0
   18.1480  -57.3090   35.4840 H   0  0  0  0  0  0  0  0  0  0  0  0
   16.9360  -56.3830   34.4540 H   0  0  0  0  0  0  0  0  0  0  0  0
   15.7270  -52.7680   38.9230 H   0  0  0  0  0  0  0  0  0  0  0  0
   16.0040  -53.6680   40.4340 H   0  0  0  0  0  0  0  0  0  0  0  0
   17.7110  -51.5010   38.0970 H   0  0  0  0  0  0  0  0  0  0  0  0
   20.1520  -53.1900   37.8780 H   0  0  0  0  0  0  0  0  0  0  0  0
   17.7930  -53.4060   35.9730 H   0  0  0  0  0  0  0  0  0  0  0  0
   19.5160  -53.5250   35.3430 H   0  0  0  0  0  0  0  0  0  0  0  0
   18.8890  -54.7610   36.5440 H   0  0  0  0  0  0  0  0  0  0  0  0
   19.0520  -51.3240   35.7790 H   0  0  0  0  0  0  0  0  0  0  0  0
   20.7650  -51.5640   36.2130 H   0  0  0  0  0  0  0  0  0  0  0  0
   19.6240  -50.6500   37.3360 H   0  0  0  0  0  0  0  0  0  0  0  0
  2  3  1  0  0  0  0
  2  1  1  0  0  0  0
  3 26  1  0  0  0  0
  4 18  1  0  0  0  0
  4  3  2  0  0  0  0
  5  4  1  0  0  0  0
  6  5  1  0  0  0  0
  6  7  1  0  0  0  0
  7  2  2  0  0  0  0
  8 12  1  0  0  0  0
  8  5  2  0  0  0  0
  9  8  1  0  0  0  0
 10 29  1  0  0  0  0
 10  9  1  0  0  0  0
 10 11  1  0  0  0  0
 11 31  1  0  0  0  0
 11 12  1  0  0  0  0
 12 13  1  0  0  0  0
 13 14  2  0  0  0  0
 13 18  1  0  0  0  0
 14 15  1  0  0  0  0
 15 16  1  0  0  0  0
 15 19  1  0  0  0  0
 16 17  2  0  0  0  0
 18 16  1  0  0  0  0
 19 34  1  0  0  0  0
 20 19  1  0  0  0  0
 20 21  2  0  0  0  0
 22 20  1  0  0  0  0
 23 36  1  0  0  0  0
 23 22  1  0  0  0  0
 24 39  1  0  0  0  0
 24 23  1  0  0  0  0
 25 23  1  0  0  0  0
 25 42  1  0  0  0  0
 27  6  1  0  0  0  0
 28  7  1  0  0  0  0
 30 10  1  0  0  0  0
 32 11  1  0  0  0  0
 33 19  1  0  0  0  0
 35 22  1  0  0  0  0
 37 24  1  0  0  0  0
 38 24  1  0  0  0  0
 40 25  1  0  0  0  0
 41 25  1  0  0  0  0
M  END
>  <Pose>
1

>  <Score>
-6.82

$$$$
