
 OpenBabel03232204043D

 43 46  0  0  0  0  0  0  0  0999 V2000
   10.7670  -58.9960   39.8190 Cl  0  0  0  0  0  0  0  0  0  0  0  0
   12.1030  -58.8830   38.6700 C   0  0  0  0  0  0  0  0  0  0  0  0
   13.0120  -57.8320   38.8150 C   0  0  0  0  0  0  0  0  0  0  0  0
   14.0840  -57.6890   37.9580 C   0  0  0  0  0  0  0  0  0  0  0  0
   14.2060  -58.6320   36.9570 C   0  0  0  0  0  0  0  0  0  0  0  0
   13.3480  -59.6670   36.7810 C   0  0  0  0  0  0  0  0  0  0  0  0
   12.2610  -59.8040   37.6590 C   0  0  0  0  0  0  0  0  0  0  0  0
   15.3680  -58.4650   36.0470 C   0  0  0  0  0  0  0  0  0  0  0  0
   15.7640  -59.1610   35.0250 N   0  0  0  0  0  0  0  0  0  0  0  0
   16.9650  -58.5910   34.4580 C   0  0  0  0  0  0  0  0  0  0  0  0
   17.3150  -57.3870   35.2970 C   0  0  0  0  0  0  0  0  0  0  0  0
   16.2330  -57.3820   36.2680 N   0  0  0  0  0  0  0  0  0  0  0  0
   16.0360  -56.4470   37.3270 C   0  0  0  0  0  0  0  0  0  0  0  0
   16.7390  -55.3620   37.7140 N   0  0  0  0  0  0  0  0  0  0  0  0
   16.1500  -54.8200   38.7780 N   0  0  0  0  0  0  0  0  0  0  0  0
   15.0920  -55.5880   39.0250 C   0  0  0  0  0  0  0  0  0  0  0  0
   14.2700  -55.4070   39.9660 O   0  0  0  0  0  0  0  0  0  0  0  0
   14.9920  -56.6140   38.1340 N   0  0  0  0  0  0  0  0  0  0  0  0
   16.6010  -53.6360   39.5160 C   0  0  0  0  0  0  0  0  0  0  0  0
   18.1460  -53.6700   39.3020 C   0  0  0  0  0  0  0  0  0  0  0  0
   18.6810  -54.1250   40.3730 O   0  0  0  0  0  0  0  0  0  0  0  0
   18.6880  -53.2560   38.1480 N   0  0  0  0  0  0  0  0  0  0  0  0
   19.2450  -52.8300   36.9620 C   0  0  0  0  0  0  0  0  0  0  0  0
   19.1980  -51.3050   36.8060 C   0  0  0  0  0  0  0  0  0  0  0  0
   20.2090  -50.8520   35.9920 O   0  0  0  0  0  0  0  0  0  0  0  0
   20.5210  -49.5300   36.1240 C   0  0  0  0  0  0  0  0  0  0  0  0
   12.8350  -57.1450   39.6240 H   0  0  0  0  0  0  0  0  0  0  0  0
   13.4640  -60.3750   35.9890 H   0  0  0  0  0  0  0  0  0  0  0  0
   11.5560  -60.6090   37.5610 H   0  0  0  0  0  0  0  0  0  0  0  0
   16.7460  -58.3080   33.4050 H   0  0  0  0  0  0  0  0  0  0  0  0
   17.8080  -59.3300   34.4940 H   0  0  0  0  0  0  0  0  0  0  0  0
   17.2900  -56.4590   34.7170 H   0  0  0  0  0  0  0  0  0  0  0  0
   18.3140  -57.5310   35.7860 H   0  0  0  0  0  0  0  0  0  0  0  0
   16.2220  -52.7280   39.0880 H   0  0  0  0  0  0  0  0  0  0  0  0
   16.3870  -53.7860   40.5630 H   0  0  0  0  0  0  0  0  0  0  0  0
   19.7910  -52.8320   38.8160 H   0  0  0  0  0  0  0  0  0  0  0  0
   20.2600  -53.2150   36.7280 H   0  0  0  0  0  0  0  0  0  0  0  0
   18.6410  -53.2210   36.0520 H   0  0  0  0  0  0  0  0  0  0  0  0
   18.2050  -50.9390   36.4970 H   0  0  0  0  0  0  0  0  0  0  0  0
   19.3950  -50.9170   37.8350 H   0  0  0  0  0  0  0  0  0  0  0  0
   20.9140  -49.3070   37.1650 H   0  0  0  0  0  0  0  0  0  0  0  0
   19.6070  -48.8800   36.0900 H   0  0  0  0  0  0  0  0  0  0  0  0
   21.2750  -49.2020   35.3900 H   0  0  0  0  0  0  0  0  0  0  0  0
  2  3  1  0  0  0  0
  2  1  1  0  0  0  0
  3 27  1  0  0  0  0
  4 18  1  0  0  0  0
  4  3  2  0  0  0  0
  5  4  1  0  0  0  0
  6  5  1  0  0  0  0
  6  7  1  0  0  0  0
  7  2  2  0  0  0  0
  8 12  1  0  0  0  0
  8  5  2  0  0  0  0
  9  8  1  0  0  0  0
 10 31  1  0  0  0  0
 10  9  1  0  0  0  0
 10 11  1  0  0  0  0
 11 33  1  0  0  0  0
 11 12  1  0  0  0  0
 12 13  1  0  0  0  0
 13 14  2  0  0  0  0
 13 18  1  0  0  0  0
 14 15  1  0  0  0  0
 15 16  1  0  0  0  0
 15 19  1  0  0  0  0
 16 17  2  0  0  0  0
 18 16  1  0  0  0  0
 19 35  1  0  0  0  0
 20 19  1  0  0  0  0
 20 21  2  0  0  0  0
 22 36  1  0  0  0  0
 22 20  1  0  0  0  0
 23 22  1  0  0  0  0
 24 23  1  0  0  0  0
 24 40  1  0  0  0  0
 25 26  1  0  0  0  0
 25 24  1  0  0  0  0
 26 41  1  0  0  0  0
 28  6  1  0  0  0  0
 29  7  1  0  0  0  0
 30 10  1  0  0  0  0
 32 11  1  0  0  0  0
 34 19  1  0  0  0  0
 37 23  1  0  0  0  0
 38 23  1  0  0  0  0
 39 24  1  0  0  0  0
 42 26  1  0  0  0  0
 43 26  1  0  0  0  0
M  END
>  <Pose>
1

>  <Score>
-6.85

$$$$
