
 OpenBabel03232204043D

 43 47  0  0  0  0  0  0  0  0999 V2000
   10.5690  -59.1180   40.1170 Cl  0  0  0  0  0  0  0  0  0  0  0  0
   11.8350  -58.9430   38.9210 C   0  0  0  0  0  0  0  0  0  0  0  0
   12.7870  -57.9380   38.9730 C   0  0  0  0  0  0  0  0  0  0  0  0
   13.7770  -57.8120   38.0270 C   0  0  0  0  0  0  0  0  0  0  0  0
   13.7820  -58.7390   37.0130 C   0  0  0  0  0  0  0  0  0  0  0  0
   12.8630  -59.7560   36.9120 C   0  0  0  0  0  0  0  0  0  0  0  0
   11.8700  -59.8570   37.8890 C   0  0  0  0  0  0  0  0  0  0  0  0
   14.8300  -58.6340   35.9780 C   0  0  0  0  0  0  0  0  0  0  0  0
   15.0730  -59.3450   34.9380 N   0  0  0  0  0  0  0  0  0  0  0  0
   16.2160  -58.8650   34.2100 C   0  0  0  0  0  0  0  0  0  0  0  0
   16.6830  -57.6780   34.9900 C   0  0  0  0  0  0  0  0  0  0  0  0
   15.7660  -57.5830   36.0960 N   0  0  0  0  0  0  0  0  0  0  0  0
   15.7120  -56.6380   37.1850 C   0  0  0  0  0  0  0  0  0  0  0  0
   16.4780  -55.5760   37.5000 N   0  0  0  0  0  0  0  0  0  0  0  0
   16.0200  -55.0190   38.6080 N   0  0  0  0  0  0  0  0  0  0  0  0
   14.9570  -55.7560   38.9690 C   0  0  0  0  0  0  0  0  0  0  0  0
   14.2680  -55.5040   39.9980 O   0  0  0  0  0  0  0  0  0  0  0  0
   14.7410  -56.7700   38.1030 N   0  0  0  0  0  0  0  0  0  0  0  0
   16.5520  -53.8390   39.3060 C   0  0  0  0  0  0  0  0  0  0  0  0
   18.0010  -53.7320   38.9920 C   0  0  0  0  0  0  0  0  0  0  0  0
   18.7980  -54.2170   39.8340 O   0  0  0  0  0  0  0  0  0  0  0  0
   18.4700  -53.1110   37.8030 N   0  0  0  0  0  0  0  0  0  0  0  0
   19.0690  -53.8190   36.6870 C   0  0  0  0  0  0  0  0  0  0  0  0
   19.5890  -52.7650   35.7460 C   0  0  0  0  0  0  0  0  0  0  0  0
   19.7200  -51.5650   36.6600 C   0  0  0  0  0  0  0  0  0  0  0  0
   18.4380  -51.7020   37.4890 C   0  0  0  0  0  0  0  0  0  0  0  0
   12.7420  -57.2450   39.7760 H   0  0  0  0  0  0  0  0  0  0  0  0
   12.8920  -60.4620   36.1120 H   0  0  0  0  0  0  0  0  0  0  0  0
   11.1630  -60.6620   37.7880 H   0  0  0  0  0  0  0  0  0  0  0  0
   15.9350  -58.5190   33.1810 H   0  0  0  0  0  0  0  0  0  0  0  0
   17.0180  -59.6390   34.1460 H   0  0  0  0  0  0  0  0  0  0  0  0
   16.7010  -56.7520   34.3750 H   0  0  0  0  0  0  0  0  0  0  0  0
   17.6890  -57.9010   35.4200 H   0  0  0  0  0  0  0  0  0  0  0  0
   16.3930  -53.9580   40.3980 H   0  0  0  0  0  0  0  0  0  0  0  0
   16.0110  -52.9670   38.9120 H   0  0  0  0  0  0  0  0  0  0  0  0
   18.2620  -54.4210   36.2250 H   0  0  0  0  0  0  0  0  0  0  0  0
   19.8930  -54.4530   37.0830 H   0  0  0  0  0  0  0  0  0  0  0  0
   18.8090  -52.5080   34.9920 H   0  0  0  0  0  0  0  0  0  0  0  0
   20.5530  -53.0340   35.2710 H   0  0  0  0  0  0  0  0  0  0  0  0
   19.7550  -50.6280   36.1000 H   0  0  0  0  0  0  0  0  0  0  0  0
   20.6120  -51.7060   37.3280 H   0  0  0  0  0  0  0  0  0  0  0  0
   18.4210  -51.0410   38.3520 H   0  0  0  0  0  0  0  0  0  0  0  0
   17.5940  -51.5510   36.7840 H   0  0  0  0  0  0  0  0  0  0  0  0
  2  3  1  0  0  0  0
  2  1  1  0  0  0  0
  3 27  1  0  0  0  0
  4 18  1  0  0  0  0
  4  3  2  0  0  0  0
  5  4  1  0  0  0  0
  6  5  1  0  0  0  0
  6  7  1  0  0  0  0
  7  2  2  0  0  0  0
  8 12  1  0  0  0  0
  8  5  2  0  0  0  0
  9  8  1  0  0  0  0
 10  9  1  0  0  0  0
 10 11  1  0  0  0  0
 11 33  1  0  0  0  0
 11 12  1  0  0  0  0
 12 13  1  0  0  0  0
 13 14  2  0  0  0  0
 13 18  1  0  0  0  0
 14 15  1  0  0  0  0
 15 16  1  0  0  0  0
 15 19  1  0  0  0  0
 16 17  2  0  0  0  0
 18 16  1  0  0  0  0
 19 34  1  0  0  0  0
 20 19  1  0  0  0  0
 20 21  2  0  0  0  0
 22 20  1  0  0  0  0
 23 37  1  0  0  0  0
 23 22  1  0  0  0  0
 24 25  1  0  0  0  0
 24 23  1  0  0  0  0
 25 41  1  0  0  0  0
 25 26  1  0  0  0  0
 26 22  1  0  0  0  0
 26 42  1  0  0  0  0
 28  6  1  0  0  0  0
 29  7  1  0  0  0  0
 30 10  1  0  0  0  0
 31 10  1  0  0  0  0
 32 11  1  0  0  0  0
 35 19  1  0  0  0  0
 36 23  1  0  0  0  0
 38 24  1  0  0  0  0
 39 24  1  0  0  0  0
 40 25  1  0  0  0  0
 43 26  1  0  0  0  0
M  END
>  <Pose>
1

>  <Score>
-7.05

$$$$
