
 OpenBabel03232204043D

 47 50  0  0  0  0  0  0  0  0999 V2000
   12.9230  -59.8560   37.2230 Cl  0  0  0  0  0  0  0  0  0  0  0  0
   14.1400  -58.5840   37.3070 C   0  0  0  0  0  0  0  0  0  0  0  0
   14.1000  -57.5920   38.2380 C   0  0  0  0  0  0  0  0  0  0  0  0
   15.0770  -56.6160   38.2670 C   0  0  0  0  0  0  0  0  0  0  0  0
   16.1040  -56.6280   37.3580 C   0  0  0  0  0  0  0  0  0  0  0  0
   16.1420  -57.6280   36.4210 C   0  0  0  0  0  0  0  0  0  0  0  0
   15.1660  -58.6080   36.3900 C   0  0  0  0  0  0  0  0  0  0  0  0
   17.1420  -55.6220   37.3570 N   0  0  0  0  0  0  0  0  0  0  0  0
   17.1430  -54.5730   38.3050 C   0  0  0  0  0  0  0  0  0  0  0  0
   18.0670  -53.6420   38.3370 C   0  0  0  0  0  0  0  0  0  0  0  0
   19.1860  -53.5200   37.4690 N   0  0  0  0  0  0  0  0  0  0  0  0
   20.2640  -54.4850   37.4190 C   0  0  0  0  0  0  0  0  0  0  0  0
   20.5590  -54.7610   35.9360 C   0  0  0  0  0  0  0  0  0  0  0  0
   19.6060  -54.1450   35.0780 N   0  0  0  0  0  0  0  0  0  0  0  0
   19.5720  -52.6860   35.1600 C   0  0  0  0  0  0  0  0  0  0  0  0
   19.2840  -52.3590   36.6060 C   0  0  0  0  0  0  0  0  0  0  0  0
   18.6860  -54.7470   34.1830 C   0  0  0  0  0  0  0  0  0  0  0  0
   17.5150  -55.2680   34.7060 N   0  0  0  0  0  0  0  0  0  0  0  0
   16.5780  -55.8700   33.9750 C   0  0  0  0  0  0  0  0  0  0  0  0
   16.7830  -55.9820   32.6280 C   0  0  0  0  0  0  0  0  0  0  0  0
   17.9280  -55.4790   32.0770 C   0  0  0  0  0  0  0  0  0  0  0  0
   18.9220  -54.8400   32.8440 C   0  0  0  0  0  0  0  0  0  0  0  0
   20.0950  -54.2980   32.2290 C   0  0  0  0  0  0  0  0  0  0  0  0
   21.1380  -54.0000   32.8080 O   0  0  0  0  0  0  0  0  0  0  0  0
   20.0800  -54.0720   30.8250 N   0  0  0  0  0  0  0  0  0  0  0  0
   16.0690  -54.5410   39.2720 N   0  0  0  0  0  0  0  0  0  0  0  0
   15.0650  -55.5400   39.2470 C   0  0  0  0  0  0  0  0  0  0  0  0
   14.1060  -55.5320   40.0920 O   0  0  0  0  0  0  0  0  0  0  0  0
   13.3170  -57.5480   38.9600 H   0  0  0  0  0  0  0  0  0  0  0  0
   16.9600  -57.6240   35.7110 H   0  0  0  0  0  0  0  0  0  0  0  0
   15.2010  -59.3860   35.6580 H   0  0  0  0  0  0  0  0  0  0  0  0
   17.8940  -55.6830   36.6480 H   0  0  0  0  0  0  0  0  0  0  0  0
   17.9590  -52.8760   39.1220 H   0  0  0  0  0  0  0  0  0  0  0  0
   20.0420  -55.4380   37.8980 H   0  0  0  0  0  0  0  0  0  0  0  0
   21.1660  -54.0240   37.9190 H   0  0  0  0  0  0  0  0  0  0  0  0
   20.5570  -55.8380   35.8210 H   0  0  0  0  0  0  0  0  0  0  0  0
   21.5630  -54.2830   35.8050 H   0  0  0  0  0  0  0  0  0  0  0  0
   18.7880  -52.2410   34.5460 H   0  0  0  0  0  0  0  0  0  0  0  0
   20.5520  -52.2480   34.8830 H   0  0  0  0  0  0  0  0  0  0  0  0
   20.0970  -51.7310   37.0470 H   0  0  0  0  0  0  0  0  0  0  0  0
   18.3500  -51.7530   36.6870 H   0  0  0  0  0  0  0  0  0  0  0  0
   15.6800  -56.2550   34.4640 H   0  0  0  0  0  0  0  0  0  0  0  0
   16.0480  -56.4610   32.0200 H   0  0  0  0  0  0  0  0  0  0  0  0
   18.1400  -55.5450   30.9970 H   0  0  0  0  0  0  0  0  0  0  0  0
   19.1920  -54.1500   30.2810 H   0  0  0  0  0  0  0  0  0  0  0  0
   20.9290  -53.8220   30.2710 H   0  0  0  0  0  0  0  0  0  0  0  0
   16.0370  -53.7840   39.9830 H   0  0  0  0  0  0  0  0  0  0  0  0
  1  2  1  0  0  0  0
  2  3  1  0  0  0  0
  3  4  2  0  0  0  0
  3 29  1  0  0  0  0
  4 27  1  0  0  0  0
  5  4  1  0  0  0  0
  6  5  2  0  0  0  0
  7  6  1  0  0  0  0
  7  2  2  0  0  0  0
  8  5  1  0  0  0  0
  8  9  1  0  0  0  0
  9 10  2  0  0  0  0
  9 26  1  0  0  0  0
 10 33  1  0  0  0  0
 11 10  1  0  0  0  0
 12 11  1  0  0  0  0
 12 34  1  0  0  0  0
 12 35  1  0  0  0  0
 13 12  1  0  0  0  0
 14 15  1  0  0  0  0
 14 13  1  0  0  0  0
 15 16  1  0  0  0  0
 16 41  1  0  0  0  0
 16 40  1  0  0  0  0
 16 11  1  0  0  0  0
 17 18  1  0  0  0  0
 17 14  1  0  0  0  0
 19 42  1  0  0  0  0
 19 18  2  0  0  0  0
 20 19  1  0  0  0  0
 21 20  2  0  0  0  0
 21 22  1  0  0  0  0
 22 17  2  0  0  0  0
 23 24  2  0  0  0  0
 23 22  1  0  0  0  0
 25 23  1  0  0  0  0
 26 47  1  0  0  0  0
 27 26  1  0  0  0  0
 27 28  2  0  0  0  0
 30  6  1  0  0  0  0
 31  7  1  0  0  0  0
 32  8  1  0  0  0  0
 36 13  1  0  0  0  0
 37 13  1  0  0  0  0
 38 15  1  0  0  0  0
 39 15  1  0  0  0  0
 43 20  1  0  0  0  0
 44 21  1  0  0  0  0
 45 25  1  0  0  0  0
 46 25  1  0  0  0  0
M  END
>  <Pose>
1

>  <Score>
-7.21

$$$$
