
 OpenBabel03162216103D

 38 42  0  0  1  0  0  0  0  0999 V2000
   18.6370  -56.1950   29.8830 B   0  0  0  0  0  0  0  0  0  0  0  0
   18.9280  -55.4240   31.5910 C   0  0  0  0  0  0  0  0  0  0  0  0
   18.0220  -55.6490   32.5990 C   0  0  0  0  0  0  0  0  0  0  0  0
   18.2590  -55.0770   33.8290 C   0  0  0  0  0  0  0  0  0  0  0  0
   19.3650  -54.2940   34.0740 C   0  0  0  0  0  0  0  0  0  0  0  0
   20.2820  -54.0670   33.0570 C   0  0  0  0  0  0  0  0  0  0  0  0
   20.0390  -54.6490   31.8110 C   0  0  0  0  0  0  0  0  0  0  0  0
   19.6020  -53.7080   35.3600 N   0  0  0  0  0  0  0  0  0  0  0  0
   19.5010  -54.4410   36.5710 C   0  0  0  0  0  0  0  0  0  0  0  0
   19.5420  -55.6930   36.6410 O   0  0  0  0  0  0  0  0  0  0  0  0
   19.3430  -53.4910   37.7040 C   0  0  2  0  0  0  0  0  0  0  0  0
   17.9050  -53.2660   38.0580 C   0  0  1  0  0  0  0  0  0  0  0  0
   17.9600  -51.9290   38.5110 O   0  0  0  0  0  0  0  0  0  0  0  0
   18.4450  -51.3610   37.3060 C   0  0  1  0  0  0  0  0  0  0  0  0
   19.7090  -52.1260   37.1180 C   0  0  2  0  0  0  0  0  0  0  0  0
   19.9600  -52.3610   35.6700 C   0  0  0  0  0  0  0  0  0  0  0  0
   20.4040  -51.5180   34.8870 O   0  0  0  0  0  0  0  0  0  0  0  0
   17.4270  -51.8910   36.3620 C   0  0  0  0  0  0  0  0  0  0  0  0
   17.1440  -53.1110   36.8080 C   0  0  0  0  0  0  0  0  0  0  0  0
   17.3450  -54.1860   39.0560 C   0  0  0  0  0  0  0  0  0  0  0  0
   16.6750  -55.2500   38.5180 O   0  0  0  0  0  0  0  0  0  0  0  0
   15.3350  -55.1050   38.7780 C   0  0  0  0  0  0  0  0  0  0  0  0
   15.1900  -53.8370   39.5530 C   0  0  0  0  0  0  0  0  0  0  0  0
   16.4940  -53.5390   39.9330 O   0  0  0  0  0  0  0  0  0  0  0  0
   17.1270  -56.2610   32.4570 H   0  0  0  0  0  0  0  0  0  0  0  0
   17.5520  -55.2370   34.6580 H   0  0  0  0  0  0  0  0  0  0  0  0
   21.1430  -53.4540   33.2630 H   0  0  0  0  0  0  0  0  0  0  0  0
   20.7520  -54.4710   31.0200 H   0  0  0  0  0  0  0  0  0  0  0  0
   19.9730  -53.7820   38.5430 H   0  0  0  0  0  0  0  0  0  0  0  0
   18.5270  -50.2890   37.3420 H   0  0  0  0  0  0  0  0  0  0  0  0
   20.5830  -51.7040   37.6140 H   0  0  0  0  0  0  0  0  0  0  0  0
   17.0500  -51.3360   35.5140 H   0  0  0  0  0  0  0  0  0  0  0  0
   16.4730  -53.7750   36.2730 H   0  0  0  0  0  0  0  0  0  0  0  0
   18.1970  -54.5810   39.6710 H   0  0  0  0  0  0  0  0  0  0  0  0
   14.9020  -55.9490   39.3500 H   0  0  0  0  0  0  0  0  0  0  0  0
   14.8100  -54.9760   37.7970 H   0  0  0  0  0  0  0  0  0  0  0  0
   14.5360  -53.9970   40.4600 H   0  0  0  0  0  0  0  0  0  0  0  0
   14.7870  -52.9890   38.9440 H   0  0  0  0  0  0  0  0  0  0  0  0
  1  2  1  0  0  0  0
  2  7  2  0  0  0  0
  2  3  1  0  0  0  0
  3  4  2  0  0  0  0
  4  5  1  0  0  0  0
  4 26  1  0  0  0  0
  5  8  1  0  0  0  0
  6 27  1  0  0  0  0
  6  5  2  0  0  0  0
  7  6  1  0  0  0  0
  8 16  1  0  0  0  0
  8  9  1  0  0  0  0
  9 10  2  0  0  0  0
  9 11  1  0  0  0  0
 11 12  1  0  0  0  0
 11 29  1  1  0  0  0
 12 13  1  0  0  0  0
 12 20  1  1  0  0  0
 14 30  1  1  0  0  0
 14 13  1  0  0  0  0
 15 14  1  0  0  0  0
 15 31  1  1  0  0  0
 15 11  1  0  0  0  0
 16 15  1  0  0  0  0
 17 16  2  0  0  0  0
 18 19  2  0  0  0  0
 18 14  1  0  0  0  0
 19 12  1  0  0  0  0
 20 34  1  0  0  0  0
 20 24  1  0  0  0  0
 21 22  1  0  0  0  0
 21 20  1  0  0  0  0
 22 35  1  0  0  0  0
 22 23  1  0  0  0  0
 23 24  1  0  0  0  0
 23 37  1  0  0  0  0
 25  3  1  0  0  0  0
 28  7  1  0  0  0  0
 32 18  1  0  0  0  0
 33 19  1  0  0  0  0
 36 22  1  0  0  0  0
 38 23  1  0  0  0  0
M  END
>  <Pose>
1

>  <Score>
-4.92

$$$$
