
 OpenBabel03232204043D

 57 60  0  0  1  0  0  0  0  0999 V2000
   14.0400  -58.8660   36.3790 S   0  0  0  0  0  0  0  0  0  0  0  0
   13.6750  -60.2240   36.9080 O   0  0  0  0  0  0  0  0  0  0  0  0
   12.9110  -58.4670   35.4510 O   0  0  0  0  0  0  0  0  0  0  0  0
   15.4680  -58.9200   35.4240 N   0  0  0  0  0  0  0  0  0  0  0  0
   15.2100  -59.4870   34.1240 C   0  0  0  0  0  0  0  0  0  0  0  0
   16.3960  -59.1780   33.2420 C   0  0  0  0  0  0  0  0  0  0  0  0
   17.4800  -58.6850   34.0540 N   0  0  0  0  0  0  0  0  0  0  0  0
   17.8030  -59.2840   35.3440 C   0  0  0  0  0  0  0  0  0  0  0  0
   16.5120  -59.7070   36.0480 C   0  0  0  0  0  0  0  0  0  0  0  0
   18.2470  -57.5940   33.6080 C   0  0  0  0  0  0  0  0  0  0  0  0
   19.4720  -57.7860   33.2920 O   0  0  0  0  0  0  0  0  0  0  0  0
   17.6460  -56.2360   33.5080 C   0  0  1  0  0  0  0  0  0  0  0  0
   18.0540  -55.3360   34.6390 C   0  0  0  0  0  0  0  0  0  0  0  0
   19.0540  -54.4330   34.0770 N   0  0  0  0  0  0  0  0  0  0  0  0
   19.3130  -54.7850   32.7310 C   0  0  0  0  0  0  0  0  0  0  0  0
   20.3640  -54.5000   32.1100 O   0  0  0  0  0  0  0  0  0  0  0  0
   18.1150  -55.5210   32.2720 C   0  0  0  0  0  0  0  0  0  0  0  0
   19.6810  -53.3510   34.8010 C   0  0  0  0  0  0  0  0  0  0  0  0
   18.8920  -52.9520   35.9900 C   0  0  0  0  0  0  0  0  0  0  0  0
   19.1870  -51.7570   36.6280 C   0  0  0  0  0  0  0  0  0  0  0  0
   18.4940  -51.3190   37.7440 C   0  0  0  0  0  0  0  0  0  0  0  0
   17.4790  -52.1280   38.2130 C   0  0  0  0  0  0  0  0  0  0  0  0
   17.1580  -53.3270   37.6010 C   0  0  0  0  0  0  0  0  0  0  0  0
   17.8730  -53.7420   36.4780 C   0  0  0  0  0  0  0  0  0  0  0  0
   20.4800  -50.7800   35.9870 Cl  0  0  0  0  0  0  0  0  0  0  0  0
   14.1620  -57.6880   37.6500 C   0  0  0  0  0  0  0  0  0  0  0  0
   15.0580  -56.6610   37.8440 C   0  0  0  0  0  0  0  0  0  0  0  0
   14.7190  -56.0310   39.0100 N   0  0  0  0  0  0  0  0  0  0  0  0
   13.6950  -56.6290   39.4910 O   0  0  0  0  0  0  0  0  0  0  0  0
   13.3060  -57.6270   38.7340 C   0  0  0  0  0  0  0  0  0  0  0  0
   12.1470  -58.4900   39.0500 C   0  0  0  0  0  0  0  0  0  0  0  0
   16.1690  -56.3170   36.9360 C   0  0  0  0  0  0  0  0  0  0  0  0
   15.1250  -60.6080   34.1720 H   0  0  0  0  0  0  0  0  0  0  0  0
   14.2600  -59.1210   33.6830 H   0  0  0  0  0  0  0  0  0  0  0  0
   16.7080  -60.0810   32.6560 H   0  0  0  0  0  0  0  0  0  0  0  0
   16.0940  -58.3810   32.5430 H   0  0  0  0  0  0  0  0  0  0  0  0
   18.5090  -60.1250   35.2140 H   0  0  0  0  0  0  0  0  0  0  0  0
   18.3180  -58.5090   35.9400 H   0  0  0  0  0  0  0  0  0  0  0  0
   16.6300  -59.5300   37.1160 H   0  0  0  0  0  0  0  0  0  0  0  0
   16.4060  -60.7960   35.8690 H   0  0  0  0  0  0  0  0  0  0  0  0
   16.5200  -56.3570   33.4770 H   0  0  0  0  0  0  0  0  0  0  0  0
   17.1590  -54.7680   35.0000 H   0  0  0  0  0  0  0  0  0  0  0  0
   18.5150  -55.8970   35.5060 H   0  0  0  0  0  0  0  0  0  0  0  0
   18.3520  -56.2270   31.4470 H   0  0  0  0  0  0  0  0  0  0  0  0
   17.3320  -54.7880   31.9730 H   0  0  0  0  0  0  0  0  0  0  0  0
   19.8590  -52.4560   34.1710 H   0  0  0  0  0  0  0  0  0  0  0  0
   20.6690  -53.7160   35.1880 H   0  0  0  0  0  0  0  0  0  0  0  0
   18.7720  -50.3780   38.1940 H   0  0  0  0  0  0  0  0  0  0  0  0
   16.9150  -51.8060   39.0940 H   0  0  0  0  0  0  0  0  0  0  0  0
   16.3580  -53.9250   38.0020 H   0  0  0  0  0  0  0  0  0  0  0  0
   17.6240  -54.6780   36.0010 H   0  0  0  0  0  0  0  0  0  0  0  0
   12.1220  -59.3230   38.3170 H   0  0  0  0  0  0  0  0  0  0  0  0
   12.3590  -58.9350   40.0650 H   0  0  0  0  0  0  0  0  0  0  0  0
   11.2290  -57.9010   39.0920 H   0  0  0  0  0  0  0  0  0  0  0  0
   16.3960  -55.2260   37.1320 H   0  0  0  0  0  0  0  0  0  0  0  0
   17.1030  -56.8480   37.1410 H   0  0  0  0  0  0  0  0  0  0  0  0
   15.8760  -56.4360   35.8540 H   0  0  0  0  0  0  0  0  0  0  0  0
  1  2  2  0  0  0  0
  1 26  1  0  0  0  0
  3  1  2  0  0  0  0
  4  9  1  0  0  0  0
  4  1  1  0  0  0  0
  5 33  1  0  0  0  0
  5  4  1  0  0  0  0
  6  7  1  0  0  0  0
  6  5  1  0  0  0  0
  7  8  1  0  0  0  0
  8 38  1  0  0  0  0
  8  9  1  0  0  0  0
  9 39  1  0  0  0  0
 10  7  1  0  0  0  0
 11 10  2  0  0  0  0
 12 41  1  6  0  0  0
 12 10  1  0  0  0  0
 12 13  1  0  0  0  0
 13 42  1  0  0  0  0
 13 43  1  0  0  0  0
 14 13  1  0  0  0  0
 14 18  1  0  0  0  0
 15 14  1  0  0  0  0
 16 15  2  0  0  0  0
 17 15  1  0  0  0  0
 17 12  1  0  0  0  0
 18 47  1  0  0  0  0
 18 19  1  0  0  0  0
 19 24  2  0  0  0  0
 19 20  1  0  0  0  0
 20 21  2  0  0  0  0
 21 48  1  0  0  0  0
 21 22  1  0  0  0  0
 22 49  1  0  0  0  0
 23 50  1  0  0  0  0
 23 22  2  0  0  0  0
 24 23  1  0  0  0  0
 25 20  1  0  0  0  0
 26 27  1  0  0  0  0
 26 30  2  0  0  0  0
 27 28  2  0  0  0  0
 28 29  1  0  0  0  0
 30 31  1  0  0  0  0
 30 29  1  0  0  0  0
 31 54  1  0  0  0  0
 31 53  1  0  0  0  0
 32 55  1  0  0  0  0
 32 56  1  0  0  0  0
 32 27  1  0  0  0  0
 34  5  1  0  0  0  0
 35  6  1  0  0  0  0
 36  6  1  0  0  0  0
 37  8  1  0  0  0  0
 40  9  1  0  0  0  0
 44 17  1  0  0  0  0
 45 17  1  0  0  0  0
 46 18  1  0  0  0  0
 51 24  1  0  0  0  0
 52 31  1  0  0  0  0
 57 32  1  0  0  0  0
M  END
>  <Pose>
1

>  <Score>
-6.13

$$$$
