
 OpenBabel03232204043D

 58 61  0  0  0  0  0  0  0  0999 V2000
   17.2900  -58.0600   31.2560 Cl  0  0  0  0  0  0  0  0  0  0  0  0
   18.0950  -56.6300   31.8590 C   0  0  0  0  0  0  0  0  0  0  0  0
   18.2050  -56.3610   33.2200 C   0  0  0  0  0  0  0  0  0  0  0  0
   18.8360  -55.2350   33.6900 C   0  0  0  0  0  0  0  0  0  0  0  0
   19.3740  -54.3530   32.7820 C   0  0  0  0  0  0  0  0  0  0  0  0
   19.2610  -54.6280   31.4120 C   0  0  0  0  0  0  0  0  0  0  0  0
   18.6280  -55.7550   30.9400 C   0  0  0  0  0  0  0  0  0  0  0  0
   18.5190  -56.0220   29.5630 O   0  0  0  0  0  0  0  0  0  0  0  0
   19.5660  -55.7430   28.6660 C   0  0  0  0  0  0  0  0  0  0  0  0
   19.9800  -53.2750   33.2170 O   0  0  0  0  0  0  0  0  0  0  0  0
   20.0990  -52.9930   34.4910 C   0  0  0  0  0  0  0  0  0  0  0  0
   20.6970  -51.9330   34.8760 O   0  0  0  0  0  0  0  0  0  0  0  0
   19.5920  -53.8160   35.4950 C   0  0  0  0  0  0  0  0  0  0  0  0
   18.9540  -54.9530   35.0550 C   0  0  0  0  0  0  0  0  0  0  0  0
   18.3840  -55.8970   36.0110 C   0  0  0  0  0  0  0  0  0  0  0  0
   19.7610  -53.4410   36.9180 C   0  0  0  0  0  0  0  0  0  0  0  0
   18.5910  -52.6670   37.4180 C   0  0  0  0  0  0  0  0  0  0  0  0
   18.4570  -51.4670   36.9940 O   0  0  0  0  0  0  0  0  0  0  0  0
   17.6420  -53.1450   38.3030 N   0  0  0  0  0  0  0  0  0  0  0  0
   17.9460  -54.0420   39.3740 C   0  0  0  0  0  0  0  0  0  0  0  0
   17.1230  -55.3160   39.1680 C   0  0  0  0  0  0  0  0  0  0  0  0
   15.7440  -54.9780   39.0700 N   0  0  0  0  0  0  0  0  0  0  0  0
   15.4080  -53.5400   39.1480 C   0  0  0  0  0  0  0  0  0  0  0  0
   16.2580  -52.7460   38.1810 C   0  0  0  0  0  0  0  0  0  0  0  0
   14.6830  -55.8920   38.8980 C   0  0  0  0  0  0  0  0  0  0  0  0
   13.7890  -55.8520   39.8810 O   0  0  0  0  0  0  0  0  0  0  0  0
   14.3980  -56.8450   37.8690 C   0  0  0  0  0  0  0  0  0  0  0  0
   13.2240  -57.6360   37.9590 C   0  0  0  0  0  0  0  0  0  0  0  0
   12.9190  -58.5620   36.9970 C   0  0  0  0  0  0  0  0  0  0  0  0
   11.8710  -59.2510   37.1010 O   0  0  0  0  0  0  0  0  0  0  0  0
   13.6970  -58.7780   35.9290 N   0  0  0  0  0  0  0  0  0  0  0  0
   14.8010  -58.0350   35.8440 C   0  0  0  0  0  0  0  0  0  0  0  0
   15.5750  -58.2030   34.8450 O   0  0  0  0  0  0  0  0  0  0  0  0
   15.1370  -57.0940   36.7930 N   0  0  0  0  0  0  0  0  0  0  0  0
   13.3590  -59.7620   34.9260 C   0  0  0  0  0  0  0  0  0  0  0  0
   17.7880  -57.0440   33.9450 H   0  0  0  0  0  0  0  0  0  0  0  0
   19.6890  -53.9230   30.7150 H   0  0  0  0  0  0  0  0  0  0  0  0
   20.5660  -55.9920   29.0660 H   0  0  0  0  0  0  0  0  0  0  0  0
   19.3350  -56.2340   27.7060 H   0  0  0  0  0  0  0  0  0  0  0  0
   19.5790  -54.6200   28.5430 H   0  0  0  0  0  0  0  0  0  0  0  0
   17.2900  -56.0010   35.7400 H   0  0  0  0  0  0  0  0  0  0  0  0
   18.4090  -55.5830   37.0460 H   0  0  0  0  0  0  0  0  0  0  0  0
   18.7890  -56.9240   35.8740 H   0  0  0  0  0  0  0  0  0  0  0  0
   20.7300  -53.0490   37.1990 H   0  0  0  0  0  0  0  0  0  0  0  0
   19.6820  -54.4290   37.4750 H   0  0  0  0  0  0  0  0  0  0  0  0
   17.6480  -53.6440   40.3680 H   0  0  0  0  0  0  0  0  0  0  0  0
   19.0260  -54.2790   39.4590 H   0  0  0  0  0  0  0  0  0  0  0  0
   17.4370  -55.7930   38.2060 H   0  0  0  0  0  0  0  0  0  0  0  0
   17.3750  -56.0250   39.9870 H   0  0  0  0  0  0  0  0  0  0  0  0
   14.3320  -53.4420   38.9890 H   0  0  0  0  0  0  0  0  0  0  0  0
   15.6760  -53.2220   40.1650 H   0  0  0  0  0  0  0  0  0  0  0  0
   15.9190  -52.9860   37.1600 H   0  0  0  0  0  0  0  0  0  0  0  0
   16.1720  -51.6600   38.3330 H   0  0  0  0  0  0  0  0  0  0  0  0
   12.5960  -57.4630   38.8210 H   0  0  0  0  0  0  0  0  0  0  0  0
   16.0170  -56.5650   36.6320 H   0  0  0  0  0  0  0  0  0  0  0  0
   14.2450  -59.9120   34.2740 H   0  0  0  0  0  0  0  0  0  0  0  0
   12.5550  -59.3730   34.2380 H   0  0  0  0  0  0  0  0  0  0  0  0
   13.0380  -60.7280   35.3570 H   0  0  0  0  0  0  0  0  0  0  0  0
  1  2  1  0  0  0  0
  2  3  1  0  0  0  0
  3  4  2  0  0  0  0
  3 36  1  0  0  0  0
  4 14  1  0  0  0  0
  5 10  1  0  0  0  0
  5  4  1  0  0  0  0
  6  5  2  0  0  0  0
  7  6  1  0  0  0  0
  7  2  2  0  0  0  0
  8  7  1  0  0  0  0
  9 38  1  0  0  0  0
  9  8  1  0  0  0  0
 10 11  1  0  0  0  0
 11 12  2  0  0  0  0
 11 13  1  0  0  0  0
 13 16  1  0  0  0  0
 14 13  2  0  0  0  0
 14 15  1  0  0  0  0
 15 42  1  0  0  0  0
 16 44  1  0  0  0  0
 16 17  1  0  0  0  0
 16 45  1  0  0  0  0
 17 19  1  0  0  0  0
 18 17  2  0  0  0  0
 19 20  1  0  0  0  0
 20 47  1  0  0  0  0
 20 46  1  0  0  0  0
 21 20  1  0  0  0  0
 21 49  1  0  0  0  0
 22 23  1  0  0  0  0
 22 21  1  0  0  0  0
 23 51  1  0  0  0  0
 24 19  1  0  0  0  0
 24 53  1  0  0  0  0
 24 23  1  0  0  0  0
 25 22  1  0  0  0  0
 25 26  2  0  0  0  0
 27 28  2  0  0  0  0
 27 25  1  0  0  0  0
 28 54  1  0  0  0  0
 29 30  2  0  0  0  0
 29 28  1  0  0  0  0
 31 29  1  0  0  0  0
 32 31  1  0  0  0  0
 32 34  1  0  0  0  0
 33 32  2  0  0  0  0
 34 27  1  0  0  0  0
 35 58  1  0  0  0  0
 35 31  1  0  0  0  0
 37  6  1  0  0  0  0
 39  9  1  0  0  0  0
 40  9  1  0  0  0  0
 41 15  1  0  0  0  0
 43 15  1  0  0  0  0
 48 21  1  0  0  0  0
 50 23  1  0  0  0  0
 52 24  1  0  0  0  0
 55 34  1  0  0  0  0
 56 35  1  0  0  0  0
 57 35  1  0  0  0  0
M  END
>  <Pose>
1

>  <Score>
-7.35

$$$$
