
 OpenBabel03232204043D

 35 38  0  0  1  0  0  0  0  0999 V2000
   11.4720  -61.6670   36.6050 Cl  0  0  0  0  0  0  0  0  0  0  0  0
   11.9970  -60.1080   37.2340 C   0  0  0  0  0  0  0  0  0  0  0  0
   11.2230  -59.4950   38.1920 C   0  0  0  0  0  0  0  0  0  0  0  0
   11.6330  -58.3070   38.6650 N   0  0  0  0  0  0  0  0  0  0  0  0
   12.7700  -57.6990   38.2360 C   0  0  0  0  0  0  0  0  0  0  0  0
   13.5330  -58.2890   37.3010 N   0  0  0  0  0  0  0  0  0  0  0  0
   14.5790  -57.5080   37.0490 N   0  0  0  0  0  0  0  0  0  0  0  0
   14.5230  -56.3960   37.8100 C   0  0  0  0  0  0  0  0  0  0  0  0
   13.3870  -56.5420   38.5370 N   0  0  0  0  0  0  0  0  0  0  0  0
   15.4450  -55.3110   37.8430 N   0  0  0  0  0  0  0  0  0  0  0  0
   15.4100  -54.2150   38.7470 C   0  0  0  0  0  0  0  0  0  0  0  0
   14.8230  -54.1400   39.8580 O   0  0  0  0  0  0  0  0  0  0  0  0
   16.2160  -53.0820   38.1780 C   0  0  2  0  0  0  0  0  0  0  0  0
   16.9780  -53.6640   37.0420 C   0  0  1  0  0  0  0  0  0  0  0  0
   18.4850  -53.6570   37.2270 C   0  0  0  0  0  0  0  0  0  0  0  0
   18.7480  -54.2370   38.5830 C   0  0  0  0  0  0  0  0  0  0  0  0
   18.0750  -53.6800   39.5740 C   0  0  0  0  0  0  0  0  0  0  0  0
   17.1540  -52.5650   39.2470 C   0  0  0  0  0  0  0  0  0  0  0  0
   16.5700  -55.0810   37.0090 C   0  0  0  0  0  0  0  0  0  0  0  0
   17.1420  -55.9930   36.3270 O   0  0  0  0  0  0  0  0  0  0  0  0
   13.1490  -59.4890   36.8010 C   0  0  0  0  0  0  0  0  0  0  0  0
   13.8710  -60.0500   35.9170 O   0  0  0  0  0  0  0  0  0  0  0  0
    9.9630  -60.1530   38.6770 C   0  0  0  0  0  0  0  0  0  0  0  0
   11.0470  -57.8340   39.3940 H   0  0  0  0  0  0  0  0  0  0  0  0
   15.5200  -52.2700   37.8690 H   0  0  0  0  0  0  0  0  0  0  0  0
   16.6880  -53.1220   36.1160 H   0  0  0  0  0  0  0  0  0  0  0  0
   18.9430  -54.3060   36.4590 H   0  0  0  0  0  0  0  0  0  0  0  0
   18.8520  -52.6180   37.1880 H   0  0  0  0  0  0  0  0  0  0  0  0
   19.4460  -55.0530   38.6970 H   0  0  0  0  0  0  0  0  0  0  0  0
   18.1910  -54.0200   40.5830 H   0  0  0  0  0  0  0  0  0  0  0  0
   16.5900  -52.2560   40.1580 H   0  0  0  0  0  0  0  0  0  0  0  0
   17.7280  -51.7030   38.8310 H   0  0  0  0  0  0  0  0  0  0  0  0
    9.2470  -60.2930   37.8580 H   0  0  0  0  0  0  0  0  0  0  0  0
   10.2040  -61.1370   39.1560 H   0  0  0  0  0  0  0  0  0  0  0  0
    9.4630  -59.5270   39.4440 H   0  0  0  0  0  0  0  0  0  0  0  0
  1  2  1  0  0  0  0
  2  3  2  0  0  0  0
  3  4  1  0  0  0  0
  3 23  1  0  0  0  0
  4 24  1  0  0  0  0
  5  9  2  0  0  0  0
  5  4  1  0  0  0  0
  6  5  1  0  0  0  0
  7  6  1  0  0  0  0
  7  8  2  0  0  0  0
  8 10  1  0  0  0  0
  8  9  1  0  0  0  0
 10 11  1  0  0  0  0
 11 12  2  0  0  0  0
 13 25  1  6  0  0  0
 13 11  1  0  0  0  0
 13 18  1  0  0  0  0
 14 26  1  6  0  0  0
 14 15  1  0  0  0  0
 14 13  1  0  0  0  0
 15 16  1  0  0  0  0
 16 29  1  0  0  0  0
 16 17  2  0  0  0  0
 17 30  1  0  0  0  0
 18 17  1  0  0  0  0
 18 31  1  0  0  0  0
 19 14  1  0  0  0  0
 19 10  1  0  0  0  0
 20 19  2  0  0  0  0
 21  2  1  0  0  0  0
 21  6  1  0  0  0  0
 22 21  2  0  0  0  0
 23 34  1  0  0  0  0
 23 35  1  0  0  0  0
 27 15  1  0  0  0  0
 28 15  1  0  0  0  0
 32 18  1  0  0  0  0
 33 23  1  0  0  0  0
M  END
>  <Pose>
1

>  <Score>
-6.66

$$$$
