
 OpenBabel03232204043D

 51 54  0  0  1  0  0  0  0  0999 V2000
   12.5480  -61.0510   34.7620 Cl  0  0  0  0  0  0  0  0  0  0  0  0
   12.2750  -60.3190   36.3280 C   0  0  0  0  0  0  0  0  0  0  0  0
   12.6180  -59.0110   36.5870 C   0  0  0  0  0  0  0  0  0  0  0  0
   12.3980  -58.4330   37.8560 C   0  0  0  0  0  0  0  0  0  0  0  0
   11.8280  -59.2450   38.7930 C   0  0  0  0  0  0  0  0  0  0  0  0
   11.4740  -60.5840   38.5320 C   0  0  0  0  0  0  0  0  0  0  0  0
   11.7030  -61.1190   37.2900 C   0  0  0  0  0  0  0  0  0  0  0  0
   12.7690  -57.0880   38.0480 N   0  0  0  0  0  0  0  0  0  0  0  0
   13.8620  -56.6350   38.7690 C   0  0  0  0  0  0  0  0  0  0  0  0
   13.8000  -55.7120   39.5890 O   0  0  0  0  0  0  0  0  0  0  0  0
   15.2370  -57.2460   38.5990 C   0  0  0  0  0  0  0  0  0  0  0  0
   15.9460  -56.5020   37.5480 N   0  0  0  0  0  0  0  0  0  0  0  0
   16.3250  -55.1920   37.6390 C   0  0  1  0  0  0  0  0  0  0  0  0
   16.9670  -54.8400   36.5130 N   0  0  0  0  0  0  0  0  0  0  0  0
   17.0280  -55.8770   35.6680 C   0  0  0  0  0  0  0  0  0  0  0  0
   16.3730  -56.9120   36.3510 C   0  0  0  0  0  0  0  0  0  0  0  0
   17.6080  -56.0290   34.3430 C   0  0  0  0  0  0  0  0  0  0  0  0
   18.3650  -57.1100   33.9870 C   0  0  0  0  0  0  0  0  0  0  0  0
   18.9060  -57.2780   32.7260 C   0  0  0  0  0  0  0  0  0  0  0  0
   18.7020  -56.3290   31.7350 C   0  0  0  0  0  0  0  0  0  0  0  0
   17.9410  -55.2420   32.0910 C   0  0  0  0  0  0  0  0  0  0  0  0
   17.4000  -55.0740   33.3510 C   0  0  0  0  0  0  0  0  0  0  0  0
   19.2290  -56.4630   30.4620 O   0  0  0  0  0  0  0  0  0  0  0  0
   20.2180  -55.5910   29.9450 C   0  0  0  0  0  0  0  0  0  0  0  0
   17.3760  -53.4400   36.6260 C   0  0  0  0  0  0  0  0  0  0  0  0
   17.2630  -53.1120   38.1030 C   0  0  0  0  0  0  0  0  0  0  0  0
   16.2240  -54.0570   38.5910 C   0  0  0  0  0  0  0  0  0  0  0  0
   13.2250  -58.2040   35.5150 C   0  0  0  0  0  0  0  0  0  0  0  0
   11.6280  -58.8780   39.7850 H   0  0  0  0  0  0  0  0  0  0  0  0
   11.0220  -61.2120   39.2880 H   0  0  0  0  0  0  0  0  0  0  0  0
   11.4260  -62.1630   37.0810 H   0  0  0  0  0  0  0  0  0  0  0  0
   12.1550  -56.3410   37.6000 H   0  0  0  0  0  0  0  0  0  0  0  0
   15.7700  -57.0710   39.5460 H   0  0  0  0  0  0  0  0  0  0  0  0
   15.1700  -58.2930   38.2880 H   0  0  0  0  0  0  0  0  0  0  0  0
   16.2200  -57.9210   35.9640 H   0  0  0  0  0  0  0  0  0  0  0  0
   18.5340  -57.8630   34.7750 H   0  0  0  0  0  0  0  0  0  0  0  0
   19.5000  -58.1650   32.5160 H   0  0  0  0  0  0  0  0  0  0  0  0
   17.7720  -54.4840   31.3180 H   0  0  0  0  0  0  0  0  0  0  0  0
   16.8040  -54.1980   33.6070 H   0  0  0  0  0  0  0  0  0  0  0  0
   19.7680  -54.6320   29.5940 H   0  0  0  0  0  0  0  0  0  0  0  0
   21.0310  -55.3730   30.6520 H   0  0  0  0  0  0  0  0  0  0  0  0
   20.6760  -56.0820   29.0620 H   0  0  0  0  0  0  0  0  0  0  0  0
   16.7980  -52.7740   35.9860 H   0  0  0  0  0  0  0  0  0  0  0  0
   18.4580  -53.3020   36.3970 H   0  0  0  0  0  0  0  0  0  0  0  0
   17.0470  -52.0490   38.2700 H   0  0  0  0  0  0  0  0  0  0  0  0
   18.2260  -53.4140   38.6180 H   0  0  0  0  0  0  0  0  0  0  0  0
   16.3880  -54.4040   39.6330 H   0  0  0  0  0  0  0  0  0  0  0  0
   15.2080  -53.5790   38.4960 H   0  0  0  0  0  0  0  0  0  0  0  0
   13.3920  -58.8380   34.6250 H   0  0  0  0  0  0  0  0  0  0  0  0
   12.5190  -57.3920   35.1740 H   0  0  0  0  0  0  0  0  0  0  0  0
   14.1670  -57.7020   35.7990 H   0  0  0  0  0  0  0  0  0  0  0  0
  1  2  1  0  0  0  0
  2  3  2  0  0  0  0
  2  7  1  0  0  0  0
  3  4  1  0  0  0  0
  4  8  1  0  0  0  0
  4  5  2  0  0  0  0
  5 29  1  0  0  0  0
  6  5  1  0  0  0  0
  6 30  1  0  0  0  0
  7  6  2  0  0  0  0
  8  9  1  0  0  0  0
  9 10  2  0  0  0  0
 11  9  1  0  0  0  0
 11 33  1  0  0  0  0
 12 13  1  0  0  0  0
 12 11  1  0  0  0  0
 13 14  1  6  0  0  0
 13 27  1  0  0  0  0
 14 25  1  0  0  0  0
 15 16  2  0  0  0  0
 15 14  1  0  0  0  0
 16 12  1  0  0  0  0
 17 15  1  0  0  0  0
 18 17  1  0  0  0  0
 18 36  1  0  0  0  0
 19 18  2  0  0  0  0
 20 21  2  0  0  0  0
 20 19  1  0  0  0  0
 21 22  1  0  0  0  0
 22 39  1  0  0  0  0
 22 17  2  0  0  0  0
 23 20  1  0  0  0  0
 24 23  1  0  0  0  0
 24 41  1  0  0  0  0
 25 26  1  0  0  0  0
 26 45  1  0  0  0  0
 26 27  1  0  0  0  0
 26 46  1  0  0  0  0
 27 47  1  0  0  0  0
 28 51  1  0  0  0  0
 28  3  1  0  0  0  0
 31  7  1  0  0  0  0
 32  8  1  0  0  0  0
 34 11  1  0  0  0  0
 35 16  1  0  0  0  0
 37 19  1  0  0  0  0
 38 21  1  0  0  0  0
 40 24  1  0  0  0  0
 42 24  1  0  0  0  0
 43 25  1  0  0  0  0
 44 25  1  0  0  0  0
 48 27  1  0  0  0  0
 49 28  1  0  0  0  0
 50 28  1  0  0  0  0
M  END
>  <Pose>
1

>  <Score>
-7.36

$$$$
