
 OpenBabel03232204043D

 49 52  0  0  1  0  0  0  0  0999 V2000
   20.3180  -50.9090   36.2630 Cl  0  0  0  0  0  0  0  0  0  0  0  0
   19.1040  -52.0600   36.7810 C   0  0  0  0  0  0  0  0  0  0  0  0
   19.0090  -53.3190   36.2050 C   0  0  0  0  0  0  0  0  0  0  0  0
   18.0490  -54.2010   36.6290 C   0  0  0  0  0  0  0  0  0  0  0  0
   17.1300  -53.8910   37.6420 C   0  0  0  0  0  0  0  0  0  0  0  0
   17.2420  -52.6450   38.1920 C   0  0  0  0  0  0  0  0  0  0  0  0
   18.2110  -51.7410   37.7730 C   0  0  0  0  0  0  0  0  0  0  0  0
   16.1550  -54.8330   38.0310 N   0  0  0  0  0  0  0  0  0  0  0  0
   15.2110  -54.7300   39.0570 C   0  0  0  0  0  0  0  0  0  0  0  0
   14.7920  -53.5990   39.4110 O   0  0  0  0  0  0  0  0  0  0  0  0
   14.6700  -55.9470   39.7710 C   0  0  0  0  0  0  0  0  0  0  0  0
   14.4750  -56.9640   38.7540 N   0  0  0  0  0  0  0  0  0  0  0  0
   14.9540  -58.2780   39.2340 C   0  0  0  0  0  0  0  0  0  0  0  0
   15.2560  -59.0160   37.9140 C   0  0  0  0  0  0  0  0  0  0  0  0
   14.1940  -58.5350   37.0170 N   0  0  0  0  0  0  0  0  0  0  0  0
   12.9120  -58.3820   37.6280 C   0  0  0  0  0  0  0  0  0  0  0  0
   13.0200  -57.1470   38.5380 C   0  0  0  0  0  0  0  0  0  0  0  0
   14.5160  -58.2560   35.6810 C   0  0  2  0  0  0  0  0  0  0  0  0
   13.6160  -58.5210   34.6840 N   0  0  0  0  0  0  0  0  0  0  0  0
   13.8530  -58.2970   33.3920 C   0  0  0  0  0  0  0  0  0  0  0  0
   15.0290  -57.7840   33.0180 N   0  0  0  0  0  0  0  0  0  0  0  0
   15.9830  -57.4830   33.8930 C   0  0  0  0  0  0  0  0  0  0  0  0
   17.2260  -56.9730   33.7890 N   0  0  0  0  0  0  0  0  0  0  0  0
   17.7030  -56.9020   35.0060 N   0  0  0  0  0  0  0  0  0  0  0  0
   16.8150  -57.3460   35.8820 N   0  0  0  0  0  0  0  0  0  0  0  0
   15.7220  -57.7240   35.2460 C   0  0  0  0  0  0  0  0  0  0  0  0
   17.9420  -56.5700   32.5940 C   0  0  0  0  0  0  0  0  0  0  0  0
   17.5700  -55.1640   32.1770 C   0  0  0  0  0  0  0  0  0  0  0  0
   19.7170  -53.5610   35.4270 H   0  0  0  0  0  0  0  0  0  0  0  0
   17.9910  -55.1740   36.1700 H   0  0  0  0  0  0  0  0  0  0  0  0
   16.5880  -52.2940   38.9690 H   0  0  0  0  0  0  0  0  0  0  0  0
   18.2500  -50.7600   38.2520 H   0  0  0  0  0  0  0  0  0  0  0  0
   16.1580  -55.7520   37.4870 H   0  0  0  0  0  0  0  0  0  0  0  0
   15.3850  -56.2140   40.5510 H   0  0  0  0  0  0  0  0  0  0  0  0
   13.7180  -55.5980   40.2210 H   0  0  0  0  0  0  0  0  0  0  0  0
   14.1660  -58.8550   39.7330 H   0  0  0  0  0  0  0  0  0  0  0  0
   15.8150  -58.1860   39.8810 H   0  0  0  0  0  0  0  0  0  0  0  0
   16.2540  -58.6540   37.6130 H   0  0  0  0  0  0  0  0  0  0  0  0
   15.2240  -60.0950   38.0400 H   0  0  0  0  0  0  0  0  0  0  0  0
   12.6620  -59.2750   38.2590 H   0  0  0  0  0  0  0  0  0  0  0  0
   12.0990  -58.1720   36.9270 H   0  0  0  0  0  0  0  0  0  0  0  0
   12.5570  -56.2860   38.0800 H   0  0  0  0  0  0  0  0  0  0  0  0
   12.4980  -57.3740   39.4930 H   0  0  0  0  0  0  0  0  0  0  0  0
   13.0730  -58.5390   32.6540 H   0  0  0  0  0  0  0  0  0  0  0  0
   19.0290  -56.6220   32.8060 H   0  0  0  0  0  0  0  0  0  0  0  0
   17.7530  -57.2340   31.7270 H   0  0  0  0  0  0  0  0  0  0  0  0
   18.2590  -54.4750   32.7140 H   0  0  0  0  0  0  0  0  0  0  0  0
   17.6870  -55.1040   31.0780 H   0  0  0  0  0  0  0  0  0  0  0  0
   16.4980  -54.9480   32.4100 H   0  0  0  0  0  0  0  0  0  0  0  0
  1  2  1  0  0  0  0
  2  7  1  0  0  0  0
  3  4  1  0  0  0  0
  3  2  2  0  0  0  0
  4  5  2  0  0  0  0
  5  8  1  0  0  0  0
  5  6  1  0  0  0  0
  6 31  1  0  0  0  0
  7  6  2  0  0  0  0
  7 32  1  0  0  0  0
  8  9  1  0  0  0  0
  9 10  2  0  0  0  0
  9 11  1  0  0  0  0
 11 35  1  0  0  0  0
 11 34  1  0  0  0  0
 12 13  1  0  0  0  0
 12 11  1  0  0  0  0
 13 36  1  0  0  0  0
 13 37  1  0  0  0  0
 14 39  1  0  0  0  0
 14 13  1  0  0  0  0
 15 16  1  0  0  0  0
 15 14  1  0  0  0  0
 16 40  1  0  0  0  0
 16 17  1  0  0  0  0
 17 12  1  0  0  0  0
 17 43  1  0  0  0  0
 18 15  1  6  0  0  0
 19 18  1  0  0  0  0
 20 19  2  0  0  0  0
 21 20  1  0  0  0  0
 21 22  1  0  0  0  0
 22 26  2  0  0  0  0
 23 22  1  0  0  0  0
 23 24  1  0  0  0  0
 24 25  2  0  0  0  0
 26 18  1  0  0  0  0
 26 25  1  0  0  0  0
 27 45  1  0  0  0  0
 27 23  1  0  0  0  0
 28 49  1  0  0  0  0
 28 27  1  0  0  0  0
 28 47  1  0  0  0  0
 29  3  1  0  0  0  0
 30  4  1  0  0  0  0
 33  8  1  0  0  0  0
 38 14  1  0  0  0  0
 41 16  1  0  0  0  0
 42 17  1  0  0  0  0
 44 20  1  0  0  0  0
 46 27  1  0  0  0  0
 48 28  1  0  0  0  0
M  END
>  <Pose>
1

>  <Score>
-7.14

$$$$
