
 OpenBabel03232204043D

 49 52  0  0  1  0  0  0  0  0999 V2000
   16.3030  -57.6640   32.9160 Cl  0  0  0  0  0  0  0  0  0  0  0  0
   14.9540  -58.3590   33.7910 C   0  0  0  0  0  0  0  0  0  0  0  0
   14.3540  -59.5100   33.3400 C   0  0  0  0  0  0  0  0  0  0  0  0
   13.3040  -59.9870   34.0840 C   0  0  0  0  0  0  0  0  0  0  0  0
   12.8400  -59.3650   35.2450 C   0  0  0  0  0  0  0  0  0  0  0  0
   13.4320  -58.2170   35.7030 C   0  0  0  0  0  0  0  0  0  0  0  0
   14.5070  -57.7390   34.9300 C   0  0  0  0  0  0  0  0  0  0  0  0
   13.0640  -57.5070   36.8660 N   0  0  0  0  0  0  0  0  0  0  0  0
   13.5060  -57.8450   38.1550 C   0  0  0  0  0  0  0  0  0  0  0  0
   13.5370  -59.0140   38.5700 O   0  0  0  0  0  0  0  0  0  0  0  0
   13.9750  -56.7900   39.1180 C   0  0  0  0  0  0  0  0  0  0  0  0
   15.0030  -55.9650   38.5660 N   0  0  0  0  0  0  0  0  0  0  0  0
   15.7530  -56.3070   37.4960 C   0  0  0  0  0  0  0  0  0  0  0  0
   16.7060  -55.4720   37.0330 N   0  0  0  0  0  0  0  0  0  0  0  0
   16.9640  -54.2830   37.5910 C   0  0  0  0  0  0  0  0  0  0  0  0
   17.9110  -53.4450   37.1380 N   0  0  0  0  0  0  0  0  0  0  0  0
   18.1890  -52.2470   37.6780 C   0  0  0  0  0  0  0  0  0  0  0  0
   17.4440  -51.8830   38.7580 N   0  0  0  0  0  0  0  0  0  0  0  0
   16.4880  -52.6900   39.2430 C   0  0  0  0  0  0  0  0  0  0  0  0
   16.2110  -53.9190   38.6800 C   0  0  2  0  0  0  0  0  0  0  0  0
   15.2330  -54.7630   39.1640 C   0  0  0  0  0  0  0  0  0  0  0  0
   14.5780  -54.3730   40.1630 O   0  0  0  0  0  0  0  0  0  0  0  0
   19.1950  -51.3920   37.1700 N   0  0  0  0  0  0  0  0  0  0  0  0
   19.9710  -51.8390   36.0370 C   0  0  0  0  0  0  0  0  0  0  0  0
   20.1990  -50.6560   35.0980 C   0  0  0  0  0  0  0  0  0  0  0  0
   20.6570  -49.5330   35.7840 O   0  0  0  0  0  0  0  0  0  0  0  0
   19.5990  -49.0920   36.5780 C   0  0  0  0  0  0  0  0  0  0  0  0
   19.4840  -50.0920   37.7290 C   0  0  0  0  0  0  0  0  0  0  0  0
   14.7920  -60.1620   32.1790 O   0  0  0  0  0  0  0  0  0  0  0  0
   14.2580  -61.4210   31.8380 C   0  0  0  0  0  0  0  0  0  0  0  0
   12.8090  -60.9060   33.7410 H   0  0  0  0  0  0  0  0  0  0  0  0
   12.0170  -59.8040   35.7460 H   0  0  0  0  0  0  0  0  0  0  0  0
   14.9740  -56.8210   35.3040 H   0  0  0  0  0  0  0  0  0  0  0  0
   12.4050  -56.6640   36.7610 H   0  0  0  0  0  0  0  0  0  0  0  0
   13.1530  -56.1470   39.4540 H   0  0  0  0  0  0  0  0  0  0  0  0
   14.3850  -57.3080   40.0060 H   0  0  0  0  0  0  0  0  0  0  0  0
   15.5430  -57.2680   37.0470 H   0  0  0  0  0  0  0  0  0  0  0  0
   15.8810  -52.4120   40.1120 H   0  0  0  0  0  0  0  0  0  0  0  0
   20.9650  -52.2330   36.3430 H   0  0  0  0  0  0  0  0  0  0  0  0
   19.3680  -52.5780   35.4780 H   0  0  0  0  0  0  0  0  0  0  0  0
   20.9890  -50.9380   34.3750 H   0  0  0  0  0  0  0  0  0  0  0  0
   19.2430  -50.3760   34.6080 H   0  0  0  0  0  0  0  0  0  0  0  0
   18.6760  -49.1250   35.9810 H   0  0  0  0  0  0  0  0  0  0  0  0
   19.7380  -48.0820   36.9710 H   0  0  0  0  0  0  0  0  0  0  0  0
   20.4190  -50.0840   38.3260 H   0  0  0  0  0  0  0  0  0  0  0  0
   18.5980  -49.7820   38.3220 H   0  0  0  0  0  0  0  0  0  0  0  0
   13.1480  -61.3360   31.8780 H   0  0  0  0  0  0  0  0  0  0  0  0
   14.5490  -62.2160   32.5360 H   0  0  0  0  0  0  0  0  0  0  0  0
   14.5010  -61.6550   30.7810 H   0  0  0  0  0  0  0  0  0  0  0  0
  1  2  1  0  0  0  0
  2  7  1  0  0  0  0
  3  2  2  0  0  0  0
  3  4  1  0  0  0  0
  4  5  2  0  0  0  0
  5  6  1  0  0  0  0
  5 32  1  0  0  0  0
  6  8  1  0  0  0  0
  7 33  1  0  0  0  0
  7  6  2  0  0  0  0
  8  9  1  0  0  0  0
  9 10  2  0  0  0  0
  9 11  1  0  0  0  0
 11 35  1  0  0  0  0
 11 36  1  0  0  0  0
 12 11  1  0  0  0  0
 12 21  1  0  0  0  0
 13 12  1  0  0  0  0
 14 13  1  0  0  0  0
 14 15  2  0  0  0  0
 16 15  1  0  0  0  0
 16 17  2  0  0  0  0
 17 18  1  0  0  0  0
 18 19  2  0  0  0  0
 19 38  1  0  0  0  0
 20 15  1  1  0  0  0
 20 21  1  0  0  0  0
 20 19  1  0  0  0  0
 21 22  2  0  0  0  0
 23 17  1  0  0  0  0
 23 28  1  0  0  0  0
 24 39  1  0  0  0  0
 24 23  1  0  0  0  0
 25 26  1  0  0  0  0
 25 24  1  0  0  0  0
 26 27  1  0  0  0  0
 27 44  1  0  0  0  0
 27 28  1  0  0  0  0
 28 46  1  0  0  0  0
 28 45  1  0  0  0  0
 29  3  1  0  0  0  0
 30 47  1  0  0  0  0
 30 29  1  0  0  0  0
 30 48  1  0  0  0  0
 31  4  1  0  0  0  0
 34  8  1  0  0  0  0
 37 13  1  0  0  0  0
 40 24  1  0  0  0  0
 41 25  1  0  0  0  0
 42 25  1  0  0  0  0
 43 27  1  0  0  0  0
 49 30  1  0  0  0  0
M  END
>  <Pose>
1

>  <Score>
-7.11

$$$$
