
 OpenBabel03232204043D

 42 45  0  0  1  0  0  0  0  0999 V2000
   16.1620  -54.0660   38.9610 S   0  0  0  0  0  0  0  0  0  0  0  0
   15.1300  -53.4900   39.8700 O   0  0  0  0  0  0  0  0  0  0  0  0
   17.3730  -54.4370   39.7760 O   0  0  0  0  0  0  0  0  0  0  0  0
   16.6560  -52.8890   37.8060 N   0  0  0  0  0  0  0  0  0  0  0  0
   17.1910  -53.4760   36.6180 C   0  0  0  0  0  0  0  0  0  0  0  0
   18.5130  -52.7880   36.3210 C   0  0  1  0  0  0  0  0  0  0  0  0
   18.9540  -52.3580   37.7050 C   0  0  0  0  0  0  0  0  0  0  0  0
   17.6090  -51.9590   38.3240 C   0  0  0  0  0  0  0  0  0  0  0  0
   19.4160  -53.7750   35.8540 O   0  0  0  0  0  0  0  0  0  0  0  0
   19.4500  -54.1710   34.5260 C   0  0  0  0  0  0  0  0  0  0  0  0
   18.4460  -55.0030   34.1260 N   0  0  0  0  0  0  0  0  0  0  0  0
   18.4530  -55.4030   32.8440 C   0  0  0  0  0  0  0  0  0  0  0  0
   19.4230  -55.0040   31.9470 C   0  0  0  0  0  0  0  0  0  0  0  0
   20.4160  -54.1600   32.4080 C   0  0  0  0  0  0  0  0  0  0  0  0
   20.4080  -53.7580   33.6970 N   0  0  0  0  0  0  0  0  0  0  0  0
   19.4200  -55.5340   30.2780 Cl  0  0  0  0  0  0  0  0  0  0  0  0
   15.5370  -55.5060   38.1920 C   0  0  0  0  0  0  0  0  0  0  0  0
   14.2460  -55.9270   38.4420 C   0  0  0  0  0  0  0  0  0  0  0  0
   13.7040  -57.0600   37.8590 C   0  0  0  0  0  0  0  0  0  0  0  0
   14.4660  -57.8160   36.9870 C   0  0  0  0  0  0  0  0  0  0  0  0
   15.7460  -57.3910   36.7440 C   0  0  0  0  0  0  0  0  0  0  0  0
   16.2900  -56.2640   37.3220 C   0  0  0  0  0  0  0  0  0  0  0  0
   13.8830  -58.9410   36.4260 O   0  0  0  0  0  0  0  0  0  0  0  0
   12.8130  -59.6490   37.0270 C   0  0  0  0  0  0  0  0  0  0  0  0
   11.9170  -58.7720   37.8610 C   0  0  0  0  0  0  0  0  0  0  0  0
   12.4190  -57.4900   38.1000 O   0  0  0  0  0  0  0  0  0  0  0  0
   16.5130  -53.2190   35.7710 H   0  0  0  0  0  0  0  0  0  0  0  0
   17.2800  -54.5610   36.6430 H   0  0  0  0  0  0  0  0  0  0  0  0
   18.3870  -51.9490   35.6270 H   0  0  0  0  0  0  0  0  0  0  0  0
   19.4200  -53.1770   38.2470 H   0  0  0  0  0  0  0  0  0  0  0  0
   19.5610  -51.4350   37.6330 H   0  0  0  0  0  0  0  0  0  0  0  0
   17.7070  -52.0040   39.4330 H   0  0  0  0  0  0  0  0  0  0  0  0
   17.3810  -50.9400   38.0000 H   0  0  0  0  0  0  0  0  0  0  0  0
   17.6880  -56.0620   32.4630 H   0  0  0  0  0  0  0  0  0  0  0  0
   21.2020  -53.8250   31.7170 H   0  0  0  0  0  0  0  0  0  0  0  0
   13.6400  -55.3380   39.1270 H   0  0  0  0  0  0  0  0  0  0  0  0
   16.3340  -58.0040   36.0500 H   0  0  0  0  0  0  0  0  0  0  0  0
   17.2950  -55.9510   37.1170 H   0  0  0  0  0  0  0  0  0  0  0  0
   12.2510  -60.1620   36.2270 H   0  0  0  0  0  0  0  0  0  0  0  0
   13.2920  -60.4510   37.6580 H   0  0  0  0  0  0  0  0  0  0  0  0
   10.9170  -58.7500   37.3550 H   0  0  0  0  0  0  0  0  0  0  0  0
   11.7750  -59.2770   38.8390 H   0  0  0  0  0  0  0  0  0  0  0  0
  1  3  2  0  0  0  0
  1  2  2  0  0  0  0
  4  8  1  0  0  0  0
  4  1  1  0  0  0  0
  5 28  1  0  0  0  0
  5  4  1  0  0  0  0
  6 29  1  6  0  0  0
  6  5  1  0  0  0  0
  6  7  1  0  0  0  0
  7 30  1  0  0  0  0
  7  8  1  0  0  0  0
  8 32  1  0  0  0  0
  9  6  1  0  0  0  0
 10  9  1  0  0  0  0
 11 10  2  0  0  0  0
 12 11  1  0  0  0  0
 13 14  1  0  0  0  0
 13 12  2  0  0  0  0
 14 15  1  0  0  0  0
 15 10  2  0  0  0  0
 16 13  1  0  0  0  0
 17 18  1  0  0  0  0
 17  1  1  0  0  0  0
 18 36  1  0  0  0  0
 19 26  1  0  0  0  0
 19 18  2  0  0  0  0
 20 19  1  0  0  0  0
 21 20  2  0  0  0  0
 21 22  1  0  0  0  0
 22 17  2  0  0  0  0
 23 20  1  0  0  0  0
 23 24  1  0  0  0  0
 24 40  1  0  0  0  0
 24 25  1  0  0  0  0
 25 26  1  0  0  0  0
 25 42  1  0  0  0  0
 27  5  1  0  0  0  0
 31  7  1  0  0  0  0
 33  8  1  0  0  0  0
 34 12  1  0  0  0  0
 35 14  1  0  0  0  0
 37 21  1  0  0  0  0
 38 22  1  0  0  0  0
 39 24  1  0  0  0  0
 41 25  1  0  0  0  0
M  END
>  <Pose>
1

>  <Score>
-7.07

$$$$
