
 OpenBabel03232204043D

 52 55  0  0  0  0  0  0  0  0999 V2000
   19.5960  -57.7780   31.3740 Cl  0  0  0  0  0  0  0  0  0  0  0  0
   18.2320  -57.4000   32.4230 C   0  0  0  0  0  0  0  0  0  0  0  0
   18.2880  -57.4740   33.7860 C   0  0  0  0  0  0  0  0  0  0  0  0
   17.1950  -57.1780   34.6150 C   0  0  0  0  0  0  0  0  0  0  0  0
   16.0360  -56.8000   34.0090 C   0  0  0  0  0  0  0  0  0  0  0  0
   15.9740  -56.7220   32.6250 C   0  0  0  0  0  0  0  0  0  0  0  0
   17.0550  -57.0150   31.8180 C   0  0  0  0  0  0  0  0  0  0  0  0
   17.3830  -57.2890   36.0850 C   0  0  0  0  0  0  0  0  0  0  0  0
   16.8340  -56.2270   36.8600 N   0  0  0  0  0  0  0  0  0  0  0  0
   17.4130  -54.9990   36.9590 C   0  0  0  0  0  0  0  0  0  0  0  0
   16.6390  -54.2430   37.8000 C   0  0  0  0  0  0  0  0  0  0  0  0
   15.6300  -55.0270   38.1780 N   0  0  0  0  0  0  0  0  0  0  0  0
   15.7280  -56.2570   37.6080 C   0  0  0  0  0  0  0  0  0  0  0  0
   14.7650  -57.3170   37.7860 N   0  0  0  0  0  0  0  0  0  0  0  0
   13.3850  -56.9330   37.6000 C   0  0  0  0  0  0  0  0  0  0  0  0
   12.4160  -58.0830   37.7090 C   0  0  0  0  0  0  0  0  0  0  0  0
   12.9260  -59.1580   36.9390 N   0  0  0  0  0  0  0  0  0  0  0  0
   14.1510  -59.6630   37.4630 C   0  0  0  0  0  0  0  0  0  0  0  0
   15.0580  -58.6670   38.1240 C   0  0  0  0  0  0  0  0  0  0  0  0
   12.9720  -58.8170   35.5520 C   0  0  0  0  0  0  0  0  0  0  0  0
   13.1650  -59.9860   34.6450 C   0  0  0  0  0  0  0  0  0  0  0  0
   14.2640  -60.5100   34.4040 O   0  0  0  0  0  0  0  0  0  0  0  0
   11.9640  -60.4900   34.0430 N   0  0  0  0  0  0  0  0  0  0  0  0
   17.0080  -52.9730   38.0410 N   0  0  0  0  0  0  0  0  0  0  0  0
   18.1180  -52.4320   37.4710 C   0  0  0  0  0  0  0  0  0  0  0  0
   18.4750  -51.2320   37.6930 O   0  0  0  0  0  0  0  0  0  0  0  0
   18.8960  -53.1480   36.6420 N   0  0  0  0  0  0  0  0  0  0  0  0
   18.5430  -54.4160   36.3910 C   0  0  0  0  0  0  0  0  0  0  0  0
   19.2870  -55.0550   35.6130 O   0  0  0  0  0  0  0  0  0  0  0  0
   16.2250  -52.1370   38.9140 C   0  0  0  0  0  0  0  0  0  0  0  0
   19.2260  -57.7840   34.2290 H   0  0  0  0  0  0  0  0  0  0  0  0
   15.1650  -56.5510   34.5970 H   0  0  0  0  0  0  0  0  0  0  0  0
   15.0410  -56.4160   32.1480 H   0  0  0  0  0  0  0  0  0  0  0  0
   16.9600  -56.9380   30.7270 H   0  0  0  0  0  0  0  0  0  0  0  0
   16.9530  -58.2700   36.3710 H   0  0  0  0  0  0  0  0  0  0  0  0
   18.4780  -57.4010   36.2870 H   0  0  0  0  0  0  0  0  0  0  0  0
   13.1140  -56.2320   38.4550 H   0  0  0  0  0  0  0  0  0  0  0  0
   13.2680  -56.3170   36.6950 H   0  0  0  0  0  0  0  0  0  0  0  0
   11.4430  -57.7400   37.3290 H   0  0  0  0  0  0  0  0  0  0  0  0
   12.2410  -58.3640   38.7760 H   0  0  0  0  0  0  0  0  0  0  0  0
   14.6710  -60.1740   36.5990 H   0  0  0  0  0  0  0  0  0  0  0  0
   13.8790  -60.4800   38.1860 H   0  0  0  0  0  0  0  0  0  0  0  0
   16.1010  -58.9700   37.8770 H   0  0  0  0  0  0  0  0  0  0  0  0
   15.0050  -58.8410   39.2470 H   0  0  0  0  0  0  0  0  0  0  0  0
   12.0260  -58.3290   35.1900 H   0  0  0  0  0  0  0  0  0  0  0  0
   13.8600  -58.1480   35.3940 H   0  0  0  0  0  0  0  0  0  0  0  0
   11.6200  -60.1350   33.1220 H   0  0  0  0  0  0  0  0  0  0  0  0
   11.4400  -61.2120   34.5320 H   0  0  0  0  0  0  0  0  0  0  0  0
   19.7640  -52.7210   36.1980 H   0  0  0  0  0  0  0  0  0  0  0  0
   15.1710  -52.4940   38.8730 H   0  0  0  0  0  0  0  0  0  0  0  0
   16.2540  -51.0830   38.5970 H   0  0  0  0  0  0  0  0  0  0  0  0
   16.6400  -52.1850   39.9460 H   0  0  0  0  0  0  0  0  0  0  0  0
  1  2  1  0  0  0  0
  2  3  1  0  0  0  0
  3 31  1  0  0  0  0
  3  4  2  0  0  0  0
  4  8  1  0  0  0  0
  5 32  1  0  0  0  0
  5  4  1  0  0  0  0
  6  5  2  0  0  0  0
  7  2  2  0  0  0  0
  7  6  1  0  0  0  0
  8 36  1  0  0  0  0
  8 35  1  0  0  0  0
  8  9  1  0  0  0  0
  9 10  1  0  0  0  0
  9 13  1  0  0  0  0
 10 11  2  0  0  0  0
 11 24  1  0  0  0  0
 11 12  1  0  0  0  0
 13 14  1  0  0  0  0
 13 12  2  0  0  0  0
 14 19  1  0  0  0  0
 15 16  1  0  0  0  0
 15 14  1  0  0  0  0
 15 37  1  0  0  0  0
 16 40  1  0  0  0  0
 17 18  1  0  0  0  0
 17 16  1  0  0  0  0
 18 19  1  0  0  0  0
 18 42  1  0  0  0  0
 19 44  1  0  0  0  0
 20 17  1  0  0  0  0
 21 20  1  0  0  0  0
 22 21  2  0  0  0  0
 23 48  1  0  0  0  0
 23 21  1  0  0  0  0
 24 30  1  0  0  0  0
 25 26  2  0  0  0  0
 25 24  1  0  0  0  0
 27 25  1  0  0  0  0
 28 27  1  0  0  0  0
 28 10  1  0  0  0  0
 29 28  2  0  0  0  0
 30 52  1  0  0  0  0
 33  6  1  0  0  0  0
 34  7  1  0  0  0  0
 38 15  1  0  0  0  0
 39 16  1  0  0  0  0
 41 18  1  0  0  0  0
 43 19  1  0  0  0  0
 45 20  1  0  0  0  0
 46 20  1  0  0  0  0
 47 23  1  0  0  0  0
 49 27  1  0  0  0  0
 50 30  1  0  0  0  0
 51 30  1  0  0  0  0
M  END
>  <Pose>
1

>  <Score>
-6.27

$$$$
