
 OpenBabel03232204043D

 46 49  0  0  0  0  0  0  0  0999 V2000
   19.4090  -53.7800   34.1940 Cl  0  0  0  0  0  0  0  0  0  0  0  0
   18.3770  -55.1050   33.6910 C   0  0  0  0  0  0  0  0  0  0  0  0
   18.3120  -56.3030   34.3710 C   0  0  0  0  0  0  0  0  0  0  0  0
   17.5040  -57.3460   33.9810 C   0  0  0  0  0  0  0  0  0  0  0  0
   16.7150  -57.2110   32.8610 C   0  0  0  0  0  0  0  0  0  0  0  0
   16.7680  -56.0160   32.1660 C   0  0  0  0  0  0  0  0  0  0  0  0
   17.5830  -54.9780   32.5690 C   0  0  0  0  0  0  0  0  0  0  0  0
   17.4620  -58.6150   34.7380 C   0  0  0  0  0  0  0  0  0  0  0  0
   16.1570  -58.8960   35.2890 N   0  0  0  0  0  0  0  0  0  0  0  0
   15.0610  -59.5830   34.6680 C   0  0  0  0  0  0  0  0  0  0  0  0
   15.0810  -60.0660   33.4880 O   0  0  0  0  0  0  0  0  0  0  0  0
   13.9660  -59.6320   35.5790 N   0  0  0  0  0  0  0  0  0  0  0  0
   14.2020  -58.5670   36.5290 C   0  0  0  0  0  0  0  0  0  0  0  0
   13.7710  -57.2750   35.8600 C   0  0  0  0  0  0  0  0  0  0  0  0
   14.4180  -56.1490   36.6580 C   0  0  0  0  0  0  0  0  0  0  0  0
   14.1910  -56.3530   38.0770 N   0  0  0  0  0  0  0  0  0  0  0  0
   13.3330  -57.4210   38.5160 C   0  0  0  0  0  0  0  0  0  0  0  0
   13.5380  -58.7310   37.8280 C   0  0  0  0  0  0  0  0  0  0  0  0
   14.8130  -55.4940   39.0200 C   0  0  0  0  0  0  0  0  0  0  0  0
   14.5540  -55.6330   40.2590 O   0  0  0  0  0  0  0  0  0  0  0  0
   15.7460  -54.4430   38.6550 C   0  0  0  0  0  0  0  0  0  0  0  0
   16.4990  -54.4930   37.5390 N   0  0  0  0  0  0  0  0  0  0  0  0
   17.3430  -53.4840   37.2630 C   0  0  0  0  0  0  0  0  0  0  0  0
   17.4740  -52.3830   38.0830 C   0  0  0  0  0  0  0  0  0  0  0  0
   16.7260  -52.3290   39.1950 N   0  0  0  0  0  0  0  0  0  0  0  0
   15.8700  -53.3480   39.4790 C   0  0  0  0  0  0  0  0  0  0  0  0
   15.6850  -58.5410   36.5860 C   0  0  0  0  0  0  0  0  0  0  0  0
   16.4510  -58.2690   37.5500 O   0  0  0  0  0  0  0  0  0  0  0  0
   18.9410  -56.3880   35.2490 H   0  0  0  0  0  0  0  0  0  0  0  0
   16.0510  -58.0000   32.4980 H   0  0  0  0  0  0  0  0  0  0  0  0
   16.1380  -55.9170   31.2780 H   0  0  0  0  0  0  0  0  0  0  0  0
   17.6240  -54.0420   32.0240 H   0  0  0  0  0  0  0  0  0  0  0  0
   17.8390  -59.4120   34.0820 H   0  0  0  0  0  0  0  0  0  0  0  0
   18.1800  -58.5710   35.6070 H   0  0  0  0  0  0  0  0  0  0  0  0
   13.1650  -60.2900   35.5680 H   0  0  0  0  0  0  0  0  0  0  0  0
   14.1880  -57.3050   34.8320 H   0  0  0  0  0  0  0  0  0  0  0  0
   12.6680  -57.1840   35.8540 H   0  0  0  0  0  0  0  0  0  0  0  0
   14.0280  -55.1770   36.3730 H   0  0  0  0  0  0  0  0  0  0  0  0
   15.4970  -56.1870   36.4120 H   0  0  0  0  0  0  0  0  0  0  0  0
   12.2900  -57.0430   38.4280 H   0  0  0  0  0  0  0  0  0  0  0  0
   13.4770  -57.6190   39.6170 H   0  0  0  0  0  0  0  0  0  0  0  0
   12.5000  -59.1360   37.6230 H   0  0  0  0  0  0  0  0  0  0  0  0
   13.9880  -59.5030   38.4890 H   0  0  0  0  0  0  0  0  0  0  0  0
   17.9580  -53.5160   36.3600 H   0  0  0  0  0  0  0  0  0  0  0  0
   18.1680  -51.6050   37.8080 H   0  0  0  0  0  0  0  0  0  0  0  0
   15.2750  -53.2640   40.4010 H   0  0  0  0  0  0  0  0  0  0  0  0
  2  1  1  0  0  0  0
  2  3  1  0  0  0  0
  3 29  1  0  0  0  0
  4  3  2  0  0  0  0
  4  8  1  0  0  0  0
  5  4  1  0  0  0  0
  6  7  1  0  0  0  0
  6  5  2  0  0  0  0
  7  2  2  0  0  0  0
  8  9  1  0  0  0  0
  8 34  1  0  0  0  0
  9 27  1  0  0  0  0
 10  9  1  0  0  0  0
 10 12  1  0  0  0  0
 11 10  2  0  0  0  0
 12 13  1  0  0  0  0
 13 27  1  0  0  0  0
 13 18  1  0  0  0  0
 14 13  1  0  0  0  0
 14 15  1  0  0  0  0
 15 16  1  0  0  0  0
 16 17  1  0  0  0  0
 16 19  1  0  0  0  0
 17 41  1  0  0  0  0
 18 43  1  0  0  0  0
 18 17  1  0  0  0  0
 19 20  2  0  0  0  0
 21 19  1  0  0  0  0
 21 26  1  0  0  0  0
 22 21  2  0  0  0  0
 23 22  1  0  0  0  0
 23 24  2  0  0  0  0
 24 25  1  0  0  0  0
 25 26  2  0  0  0  0
 26 46  1  0  0  0  0
 27 28  2  0  0  0  0
 30  5  1  0  0  0  0
 31  6  1  0  0  0  0
 32  7  1  0  0  0  0
 33  8  1  0  0  0  0
 35 12  1  0  0  0  0
 36 14  1  0  0  0  0
 37 14  1  0  0  0  0
 38 15  1  0  0  0  0
 39 15  1  0  0  0  0
 40 17  1  0  0  0  0
 42 18  1  0  0  0  0
 44 23  1  0  0  0  0
 45 24  1  0  0  0  0
M  END
>  <Pose>
1

>  <Score>
-6.99

$$$$
