
 OpenBabel03232204043D

 50 53  0  0  1  0  0  0  0  0999 V2000
   18.4790  -61.1090   34.7170 Cl  0  0  0  0  0  0  0  0  0  0  0  0
   16.9840  -60.2400   35.0090 C   0  0  0  0  0  0  0  0  0  0  0  0
   16.1410  -59.8660   33.9710 C   0  0  0  0  0  0  0  0  0  0  0  0
   14.9700  -59.1780   34.2860 C   0  0  0  0  0  0  0  0  0  0  0  0
   14.6350  -58.8660   35.5770 C   0  0  0  0  0  0  0  0  0  0  0  0
   15.4730  -59.2360   36.6150 C   0  0  0  0  0  0  0  0  0  0  0  0
   16.6330  -59.9170   36.3050 C   0  0  0  0  0  0  0  0  0  0  0  0
   13.3850  -58.1620   35.8530 C   0  0  2  0  0  0  0  0  0  0  0  0
   13.1720  -57.6360   37.1450 N   0  0  0  0  0  4  0  0  0  0  0  0
   12.5360  -58.5790   37.9640 C   0  0  0  0  0  0  0  0  0  0  0  0
   11.9980  -58.7080   39.1520 C   0  0  0  0  0  0  0  0  0  0  0  0
   11.4190  -59.9790   39.6010 C   0  0  0  0  0  0  0  0  0  0  0  0
   11.7280  -61.2180   38.8990 C   0  0  0  0  0  0  0  0  0  0  0  0
   12.5460  -61.0620   37.6410 C   0  0  0  0  0  0  0  0  0  0  0  0
   12.4310  -59.7520   37.1090 N   0  0  0  0  0  0  0  0  0  0  0  0
   12.2140  -59.1580   35.7960 C   0  0  2  0  0  0  0  0  0  0  0  0
   12.2900  -60.1750   34.7360 C   0  0  0  0  0  0  0  0  0  0  0  0
   14.1010  -56.7270   37.6410 C   0  0  0  0  0  0  0  0  0  0  0  0
   15.3150  -56.6390   36.9800 C   0  0  0  0  0  0  0  0  0  0  0  0
   16.3210  -55.7910   37.3760 C   0  0  0  0  0  0  0  0  0  0  0  0
   16.1830  -54.9500   38.4850 C   0  0  0  0  0  0  0  0  0  0  0  0
   14.9710  -55.0580   39.1210 C   0  0  0  0  0  0  0  0  0  0  0  0
   13.9710  -55.9080   38.7200 C   0  0  0  0  0  0  0  0  0  0  0  0
   17.2000  -54.0980   38.8710 O   0  0  0  0  0  0  0  0  0  0  0  0
   16.9610  -52.7140   38.9290 C   0  0  0  0  0  0  0  0  0  0  0  0
   13.1000  -57.2080   34.9040 O   0  0  0  0  0  0  0  0  0  0  0  0
   16.3990  -60.1100   32.9570 H   0  0  0  0  0  0  0  0  0  0  0  0
   14.3780  -58.9370   33.4060 H   0  0  0  0  0  0  0  0  0  0  0  0
   15.1770  -58.9860   37.6190 H   0  0  0  0  0  0  0  0  0  0  0  0
   17.2510  -60.1790   37.1520 H   0  0  0  0  0  0  0  0  0  0  0  0
   12.3130  -56.9440   36.9580 H   0  0  0  0  0  0  0  0  0  0  0  0
   11.9440  -57.8380   39.8420 H   0  0  0  0  0  0  0  0  0  0  0  0
   10.3060  -59.8270   39.6730 H   0  0  0  0  0  0  0  0  0  0  0  0
   11.7410  -60.0760   40.6890 H   0  0  0  0  0  0  0  0  0  0  0  0
   10.7620  -61.7770   38.6740 H   0  0  0  0  0  0  0  0  0  0  0  0
   12.2900  -61.9170   39.5670 H   0  0  0  0  0  0  0  0  0  0  0  0
   12.1560  -61.7880   36.9040 H   0  0  0  0  0  0  0  0  0  0  0  0
   13.5990  -61.3650   37.8100 H   0  0  0  0  0  0  0  0  0  0  0  0
   11.2630  -58.6400   35.7770 H   0  0  0  0  0  0  0  0  0  0  0  0
   12.2220  -59.7110   33.7370 H   0  0  0  0  0  0  0  0  0  0  0  0
   13.0330  -60.9690   34.8470 H   0  0  0  0  0  0  0  0  0  0  0  0
   11.2950  -60.7200   34.8090 H   0  0  0  0  0  0  0  0  0  0  0  0
   15.5450  -57.2360   36.0790 H   0  0  0  0  0  0  0  0  0  0  0  0
   17.2790  -55.7250   36.8560 H   0  0  0  0  0  0  0  0  0  0  0  0
   14.8260  -54.4120   40.0020 H   0  0  0  0  0  0  0  0  0  0  0  0
   13.0910  -55.8890   39.3070 H   0  0  0  0  0  0  0  0  0  0  0  0
   16.4660  -52.4150   39.8930 H   0  0  0  0  0  0  0  0  0  0  0  0
   16.3360  -52.3140   38.1220 H   0  0  0  0  0  0  0  0  0  0  0  0
   17.9250  -52.1300   38.9220 H   0  0  0  0  0  0  0  0  0  0  0  0
   12.1590  -57.0170   34.7370 H   0  0  0  0  0  0  0  0  0  0  0  0
  1  2  1  0  0  0  0
  2  7  1  0  0  0  0
  3  4  1  0  0  0  0
  3  2  2  0  0  0  0
  4  5  2  0  0  0  0
  5  8  1  0  0  0  0
  5  6  1  0  0  0  0
  6 29  1  0  0  0  0
  7  6  2  0  0  0  0
  7 30  1  0  0  0  0
  8 26  1  6  0  0  0
  8  9  1  0  0  0  0
  9 18  1  0  0  0  0
  9 10  1  0  0  0  0
 10 11  2  0  0  0  0
 11 12  1  0  0  0  0
 11 32  1  0  0  0  0
 12 33  1  0  0  0  0
 12 34  1  0  0  0  0
 13 36  1  0  0  0  0
 13 12  1  0  0  0  0
 14 38  1  0  0  0  0
 14 13  1  0  0  0  0
 15 14  1  0  0  0  0
 15 10  1  0  0  0  0
 16 39  1  6  0  0  0
 16  8  1  0  0  0  0
 16 15  1  0  0  0  0
 17 42  1  0  0  0  0
 17 41  1  0  0  0  0
 17 16  1  0  0  0  0
 18 23  1  0  0  0  0
 19 20  1  0  0  0  0
 19 18  2  0  0  0  0
 20 21  2  0  0  0  0
 21 24  1  0  0  0  0
 21 22  1  0  0  0  0
 22 45  1  0  0  0  0
 23 22  2  0  0  0  0
 23 46  1  0  0  0  0
 24 25  1  0  0  0  0
 25 47  1  0  0  0  0
 27  3  1  0  0  0  0
 28  4  1  0  0  0  0
 31  9  1  0  0  0  0
 35 13  1  0  0  0  0
 37 14  1  0  0  0  0
 40 17  1  0  0  0  0
 43 19  1  0  0  0  0
 44 20  1  0  0  0  0
 48 25  1  0  0  0  0
 49 25  1  0  0  0  0
 50 26  1  0  0  0  0
M  END
>  <Pose>
1

>  <Score>
-4.19

$$$$
