
 OpenBabel03232204043D

 37 40  0  0  0  0  0  0  0  0999 V2000
   17.5660  -61.8210   31.3600 Cl  0  0  0  0  0  0  0  0  0  0  0  0
   16.8130  -60.8930   32.6540 C   0  0  0  0  0  0  0  0  0  0  0  0
   15.7370  -61.3930   33.3570 C   0  0  0  0  0  0  0  0  0  0  0  0
   15.1450  -60.6660   34.3730 C   0  0  0  0  0  0  0  0  0  0  0  0
   15.5990  -59.4150   34.7300 C   0  0  0  0  0  0  0  0  0  0  0  0
   16.6790  -58.9220   34.0200 C   0  0  0  0  0  0  0  0  0  0  0  0
   17.2760  -59.6410   33.0030 C   0  0  0  0  0  0  0  0  0  0  0  0
   14.9820  -58.6720   35.7800 N   0  0  0  0  0  0  0  0  0  0  0  0
   15.5920  -57.9550   36.7500 C   0  0  0  0  0  0  0  0  0  0  0  0
   16.8310  -57.8410   36.8630 O   0  0  0  0  0  0  0  0  0  0  0  0
   14.6630  -57.3700   37.5940 C   0  0  0  0  0  0  0  0  0  0  0  0
   13.4620  -57.7390   37.1260 C   0  0  0  0  0  0  0  0  0  0  0  0
   12.5670  -57.1650   37.9490 N   0  0  0  0  0  0  0  0  0  0  0  0
   13.2010  -56.4750   38.8800 N   0  0  0  0  0  0  0  0  0  0  0  0
   14.4960  -56.5910   38.6750 N   0  0  0  0  0  0  0  0  0  0  0  0
   15.5580  -56.0040   39.4580 C   0  0  0  0  0  0  0  0  0  0  0  0
   16.0570  -54.7210   38.9180 C   0  0  0  0  0  0  0  0  0  0  0  0
   15.7480  -53.5470   39.5600 C   0  0  0  0  0  0  0  0  0  0  0  0
   16.2200  -52.3640   39.0380 C   0  0  0  0  0  0  0  0  0  0  0  0
   16.9910  -52.3380   37.8900 C   0  0  0  0  0  0  0  0  0  0  0  0
   17.3000  -53.5140   37.2450 C   0  0  0  0  0  0  0  0  0  0  0  0
   16.8240  -54.6800   37.7770 C   0  0  0  0  0  0  0  0  0  0  0  0
   13.6720  -58.5330   36.0180 C   0  0  0  0  0  0  0  0  0  0  0  0
   12.7550  -59.0570   35.3270 O   0  0  0  0  0  0  0  0  0  0  0  0
   15.3880  -62.3760   33.0690 H   0  0  0  0  0  0  0  0  0  0  0  0
   14.2980  -61.0650   34.9230 H   0  0  0  0  0  0  0  0  0  0  0  0
   17.0490  -57.9490   34.2820 H   0  0  0  0  0  0  0  0  0  0  0  0
   18.1330  -59.2460   32.4420 H   0  0  0  0  0  0  0  0  0  0  0  0
   11.5300  -57.2310   37.8920 H   0  0  0  0  0  0  0  0  0  0  0  0
   12.7510  -55.9170   39.6650 H   0  0  0  0  0  0  0  0  0  0  0  0
   15.1800  -55.8190   40.5020 H   0  0  0  0  0  0  0  0  0  0  0  0
   16.4080  -56.7270   39.5940 H   0  0  0  0  0  0  0  0  0  0  0  0
   15.1370  -53.5320   40.4750 H   0  0  0  0  0  0  0  0  0  0  0  0
   15.9690  -51.4310   39.5580 H   0  0  0  0  0  0  0  0  0  0  0  0
   17.3720  -51.4010   37.4660 H   0  0  0  0  0  0  0  0  0  0  0  0
   17.8980  -53.5240   36.3500 H   0  0  0  0  0  0  0  0  0  0  0  0
   17.0880  -55.6000   37.2380 H   0  0  0  0  0  0  0  0  0  0  0  0
  1  2  1  0  0  0  0
  2  7  2  0  0  0  0
  2  3  1  0  0  0  0
  3  4  2  0  0  0  0
  4  5  1  0  0  0  0
  4 26  1  0  0  0  0
  5  8  1  0  0  0  0
  6 27  1  0  0  0  0
  6  5  2  0  0  0  0
  7  6  1  0  0  0  0
  8 23  1  0  0  0  0
  8  9  1  0  0  0  0
  9 10  2  0  0  0  0
  9 11  1  0  0  0  0
 11 15  1  0  0  0  0
 12 11  2  0  0  0  0
 12 13  1  0  0  0  0
 13 14  1  0  0  0  0
 14 30  1  0  0  0  0
 15 14  1  0  0  0  0
 15 16  1  0  0  0  0
 16 32  1  0  0  0  0
 16 31  1  0  0  0  0
 17 16  1  0  0  0  0
 17 18  1  0  0  0  0
 18 33  1  0  0  0  0
 19 34  1  0  0  0  0
 19 18  2  0  0  0  0
 20 19  1  0  0  0  0
 21 22  1  0  0  0  0
 21 20  2  0  0  0  0
 22 17  2  0  0  0  0
 23 12  1  0  0  0  0
 24 23  2  0  0  0  0
 25  3  1  0  0  0  0
 28  7  1  0  0  0  0
 29 13  1  0  0  0  0
 35 20  1  0  0  0  0
 36 21  1  0  0  0  0
 37 22  1  0  0  0  0
M  END
>  <Pose>
1

>  <Score>
-6.62

$$$$
