
 OpenBabel03232204043D

 56 59  0  0  1  0  0  0  0  0999 V2000
   16.4150  -59.7820   32.6880 S   0  0  0  0  0  0  0  0  0  0  0  0
   17.3720  -60.7650   33.2370 O   0  0  0  0  0  0  0  0  0  0  0  0
   15.7590  -60.3780   31.4660 O   0  0  0  0  0  0  0  0  0  0  0  0
   15.1840  -59.3100   33.7720 N   0  0  0  0  0  0  0  0  0  0  0  0
   15.3160  -58.0030   34.2870 C   0  0  0  0  0  0  0  0  0  0  0  0
   14.0110  -57.6710   35.0400 C   0  0  0  0  0  0  0  0  0  0  0  0
   14.0650  -58.5330   36.1930 N   0  0  0  0  0  0  0  0  0  0  0  0
   13.9610  -59.9630   35.8290 C   0  0  0  0  0  0  0  0  0  0  0  0
   14.6870  -60.3280   34.6000 C   0  0  0  0  0  0  0  0  0  0  0  0
   14.1970  -58.2020   37.5410 C   0  0  0  0  0  0  0  0  0  0  0  0
   13.1320  -58.5160   38.2530 O   0  0  0  0  0  0  0  0  0  0  0  0
   15.2310  -57.5980   38.3400 C   0  0  0  0  0  0  0  0  0  0  0  0
   15.6240  -56.2540   38.0430 N   0  0  0  0  0  0  0  0  0  0  0  0
   15.0400  -55.0740   38.5960 C   0  0  0  0  0  0  0  0  0  0  0  0
   14.0660  -55.0890   39.4230 O   0  0  0  0  0  0  0  0  0  0  0  0
   15.7220  -53.9560   38.0700 N   0  0  0  0  0  0  0  0  0  0  0  0
   16.9800  -54.4170   37.5030 C   0  0  1  0  0  0  0  0  0  0  0  0
   17.3890  -53.7050   36.2610 C   0  0  1  0  0  0  0  0  0  0  0  0
   18.9200  -53.6400   36.2490 C   0  0  0  0  0  0  0  0  0  0  0  0
   19.3030  -52.6100   37.2940 C   0  0  0  0  0  0  0  0  0  0  0  0
   18.5510  -52.8960   38.5700 C   0  0  0  0  0  0  0  0  0  0  0  0
   18.0160  -54.3210   38.6000 C   0  0  0  0  0  0  0  0  0  0  0  0
   16.9890  -54.4080   34.9850 C   0  0  0  0  0  0  0  0  0  0  0  0
   16.6760  -55.8400   37.1670 C   0  0  0  0  0  0  0  0  0  0  0  0
   17.2300  -56.5380   36.2950 O   0  0  0  0  0  0  0  0  0  0  0  0
   17.2760  -58.3120   32.1990 C   0  0  0  0  0  0  0  0  0  0  0  0
   18.0820  -57.1520   33.1490 S   0  0  0  0  0  0  0  0  0  0  0  0
   18.6100  -56.1050   31.9150 C   0  0  0  0  0  0  0  0  0  0  0  0
   18.1350  -56.7000   30.7760 C   0  0  0  0  0  0  0  0  0  0  0  0
   17.4440  -57.8430   30.9290 C   0  0  0  0  0  0  0  0  0  0  0  0
   19.5460  -54.6100   32.0660 Cl  0  0  0  0  0  0  0  0  0  0  0  0
   16.1760  -57.9020   34.9820 H   0  0  0  0  0  0  0  0  0  0  0  0
   15.4850  -57.2900   33.4660 H   0  0  0  0  0  0  0  0  0  0  0  0
   13.8970  -56.6190   35.1950 H   0  0  0  0  0  0  0  0  0  0  0  0
   13.2170  -58.0870   34.3350 H   0  0  0  0  0  0  0  0  0  0  0  0
   12.8690  -60.1390   35.6880 H   0  0  0  0  0  0  0  0  0  0  0  0
   14.2580  -60.5970   36.6880 H   0  0  0  0  0  0  0  0  0  0  0  0
   15.5530  -60.9960   34.8900 H   0  0  0  0  0  0  0  0  0  0  0  0
   14.0450  -61.0100   33.9670 H   0  0  0  0  0  0  0  0  0  0  0  0
   14.9920  -57.6690   39.4620 H   0  0  0  0  0  0  0  0  0  0  0  0
   16.1880  -58.2280   38.3130 H   0  0  0  0  0  0  0  0  0  0  0  0
   15.4060  -52.9740   38.0740 H   0  0  0  0  0  0  0  0  0  0  0  0
   16.9960  -52.6620   36.2510 H   0  0  0  0  0  0  0  0  0  0  0  0
   19.2870  -54.6230   36.5630 H   0  0  0  0  0  0  0  0  0  0  0  0
   19.3060  -53.3640   35.2500 H   0  0  0  0  0  0  0  0  0  0  0  0
   19.0170  -51.6100   36.8660 H   0  0  0  0  0  0  0  0  0  0  0  0
   20.3830  -52.5920   37.4960 H   0  0  0  0  0  0  0  0  0  0  0  0
   17.6930  -52.1930   38.6310 H   0  0  0  0  0  0  0  0  0  0  0  0
   19.2000  -52.6900   39.4560 H   0  0  0  0  0  0  0  0  0  0  0  0
   17.5000  -54.4180   39.5980 H   0  0  0  0  0  0  0  0  0  0  0  0
   18.8290  -55.0480   38.5050 H   0  0  0  0  0  0  0  0  0  0  0  0
   16.0460  -54.9590   35.0520 H   0  0  0  0  0  0  0  0  0  0  0  0
   16.8710  -53.6210   34.1830 H   0  0  0  0  0  0  0  0  0  0  0  0
   17.8190  -55.0620   34.5880 H   0  0  0  0  0  0  0  0  0  0  0  0
   18.3420  -56.2120   29.7930 H   0  0  0  0  0  0  0  0  0  0  0  0
   17.0200  -58.3980   30.0670 H   0  0  0  0  0  0  0  0  0  0  0  0
  1  2  2  0  0  0  0
  1  4  1  0  0  0  0
  3  1  2  0  0  0  0
  4  5  1  0  0  0  0
  4  9  1  0  0  0  0
  5 32  1  0  0  0  0
  5  6  1  0  0  0  0
  6 34  1  0  0  0  0
  6  7  1  0  0  0  0
  7 10  1  0  0  0  0
  8  7  1  0  0  0  0
  8 37  1  0  0  0  0
  9 38  1  0  0  0  0
  9  8  1  0  0  0  0
 10 11  2  0  0  0  0
 10 12  1  0  0  0  0
 12 40  1  0  0  0  0
 13 12  1  0  0  0  0
 13 14  1  0  0  0  0
 14 15  2  0  0  0  0
 16 42  1  0  0  0  0
 16 14  1  0  0  0  0
 17 24  1  6  0  0  0
 17 16  1  0  0  0  0
 17 22  1  0  0  0  0
 18 43  1  1  0  0  0
 18 17  1  0  0  0  0
 19 18  1  0  0  0  0
 19 44  1  0  0  0  0
 19 20  1  0  0  0  0
 20 47  1  0  0  0  0
 20 21  1  0  0  0  0
 21 22  1  0  0  0  0
 21 48  1  0  0  0  0
 21 49  1  0  0  0  0
 22 50  1  0  0  0  0
 23 52  1  0  0  0  0
 23 18  1  0  0  0  0
 24 13  1  0  0  0  0
 25 24  2  0  0  0  0
 26  1  1  0  0  0  0
 26 27  1  0  0  0  0
 28 31  1  0  0  0  0
 28 27  1  0  0  0  0
 29 30  1  0  0  0  0
 29 28  2  0  0  0  0
 30 26  2  0  0  0  0
 33  5  1  0  0  0  0
 35  6  1  0  0  0  0
 36  8  1  0  0  0  0
 39  9  1  0  0  0  0
 41 12  1  0  0  0  0
 45 19  1  0  0  0  0
 46 20  1  0  0  0  0
 51 22  1  0  0  0  0
 53 23  1  0  0  0  0
 54 23  1  0  0  0  0
 55 29  1  0  0  0  0
 56 30  1  0  0  0  0
M  END
>  <Pose>
1

>  <Score>
-7.52

$$$$
