
 OpenBabel03232204043D

 60 63  0  0  1  0  0  0  0  0999 V2000
   14.4680  -62.1920   28.2110 Cl  0  0  0  0  0  0  0  0  0  0  0  0
   15.5510  -61.1620   29.1470 C   0  0  0  0  0  0  0  0  0  0  0  0
   15.2490  -60.8780   30.4510 C   0  0  0  0  0  0  0  0  0  0  0  0
   16.0730  -60.0800   31.2020 C   0  0  0  0  0  0  0  0  0  0  0  0
   17.2290  -59.5700   30.5780 C   0  0  0  0  0  0  0  0  0  0  0  0
   17.5110  -59.8620   29.2850 C   0  0  0  0  0  0  0  0  0  0  0  0
   16.6860  -60.6610   28.5380 C   0  0  0  0  0  0  0  0  0  0  0  0
   15.8760  -59.7550   32.4460 O   0  0  0  0  0  0  0  0  0  0  0  0
   16.2300  -59.7440   33.7110 C   0  0  0  0  0  0  0  0  0  0  0  0
   15.8400  -58.6130   34.6200 C   0  0  1  0  0  0  0  0  0  0  0  0
   14.9370  -57.8290   33.8880 O   0  0  0  0  0  0  0  0  0  0  0  0
   13.6410  -58.2640   33.9300 C   0  0  0  0  0  0  0  0  0  0  0  0
   12.9680  -58.0750   35.2740 C   0  0  0  0  0  0  0  0  0  0  0  0
   14.0370  -58.3930   36.2550 N   0  0  0  0  0  0  0  0  0  0  0  0
   15.0430  -59.2570   35.7690 C   0  0  0  0  0  0  0  0  0  0  0  0
   13.9530  -57.8340   37.5130 C   0  0  0  0  0  0  0  0  0  0  0  0
   13.2340  -58.4010   38.4360 O   0  0  0  0  0  0  0  0  0  0  0  0
   14.6110  -56.6310   37.9240 C   0  0  0  0  0  0  0  0  0  0  0  0
   15.6600  -56.1060   37.2900 N   0  0  0  0  0  0  0  0  0  0  0  0
   16.2850  -54.9740   37.6710 C   0  0  0  0  0  0  0  0  0  0  0  0
   15.8300  -54.2900   38.7870 C   0  0  0  0  0  0  0  0  0  0  0  0
   14.7900  -54.7800   39.4410 N   0  0  0  0  0  0  0  0  0  0  0  0
   14.1830  -55.9110   39.0440 C   0  0  0  0  0  0  0  0  0  0  0  0
   16.5550  -53.0500   39.1600 C   0  0  0  0  0  0  0  0  0  0  0  0
   16.9150  -57.7500   35.1010 C   0  0  0  0  0  0  0  0  0  0  0  0
   18.2530  -57.9110   34.5280 C   0  0  0  0  0  0  0  0  0  0  0  0
   18.9310  -58.9310   34.7580 O   0  0  0  0  0  0  0  0  0  0  0  0
   18.8270  -56.9130   33.6900 N   0  0  0  0  0  0  0  0  0  0  0  0
   19.1480  -55.5830   34.1990 C   0  0  0  0  0  0  0  0  0  0  0  0
   18.5990  -54.5830   33.2030 C   0  0  0  0  0  0  0  0  0  0  0  0
   19.1680  -54.8350   31.9510 O   0  0  0  0  0  0  0  0  0  0  0  0
   18.6430  -56.0280   31.4570 C   0  0  0  0  0  0  0  0  0  0  0  0
   19.1220  -57.1680   32.2960 C   0  0  0  0  0  0  0  0  0  0  0  0
   14.3490  -61.2680   30.9020 H   0  0  0  0  0  0  0  0  0  0  0  0
   17.9200  -58.9280   31.1300 H   0  0  0  0  0  0  0  0  0  0  0  0
   18.3990  -59.4780   28.7850 H   0  0  0  0  0  0  0  0  0  0  0  0
   16.8630  -60.9200   27.5170 H   0  0  0  0  0  0  0  0  0  0  0  0
   15.9470  -60.7360   34.2460 H   0  0  0  0  0  0  0  0  0  0  0  0
   17.3840  -59.8160   33.7870 H   0  0  0  0  0  0  0  0  0  0  0  0
   13.0610  -57.6760   33.2000 H   0  0  0  0  0  0  0  0  0  0  0  0
   13.5930  -59.3180   33.6000 H   0  0  0  0  0  0  0  0  0  0  0  0
   12.1430  -58.7880   35.3400 H   0  0  0  0  0  0  0  0  0  0  0  0
   12.7160  -57.0280   35.4390 H   0  0  0  0  0  0  0  0  0  0  0  0
   14.4820  -60.1120   35.2510 H   0  0  0  0  0  0  0  0  0  0  0  0
   15.7020  -59.7500   36.4580 H   0  0  0  0  0  0  0  0  0  0  0  0
   17.1300  -54.6270   37.0910 H   0  0  0  0  0  0  0  0  0  0  0  0
   13.3370  -56.2870   39.5970 H   0  0  0  0  0  0  0  0  0  0  0  0
   15.9480  -52.4130   39.8440 H   0  0  0  0  0  0  0  0  0  0  0  0
   17.5020  -53.3690   39.6400 H   0  0  0  0  0  0  0  0  0  0  0  0
   16.8260  -52.4300   38.2840 H   0  0  0  0  0  0  0  0  0  0  0  0
   17.0070  -57.8630   36.2510 H   0  0  0  0  0  0  0  0  0  0  0  0
   16.5990  -56.6660   35.0420 H   0  0  0  0  0  0  0  0  0  0  0  0
   18.7090  -55.4150   35.2000 H   0  0  0  0  0  0  0  0  0  0  0  0
   20.2580  -55.4360   34.2190 H   0  0  0  0  0  0  0  0  0  0  0  0
   17.5050  -54.6720   33.1860 H   0  0  0  0  0  0  0  0  0  0  0  0
   18.8950  -53.5400   33.4660 H   0  0  0  0  0  0  0  0  0  0  0  0
   17.5380  -56.0370   31.4550 H   0  0  0  0  0  0  0  0  0  0  0  0
   19.0610  -56.1700   30.4320 H   0  0  0  0  0  0  0  0  0  0  0  0
   18.6370  -58.0930   31.9260 H   0  0  0  0  0  0  0  0  0  0  0  0
   20.2160  -57.3430   32.2130 H   0  0  0  0  0  0  0  0  0  0  0  0
  1  2  1  0  0  0  0
  2  3  1  0  0  0  0
  3 34  1  0  0  0  0
  3  4  2  0  0  0  0
  4  8  1  0  0  0  0
  5 35  1  0  0  0  0
  5  4  1  0  0  0  0
  6  5  2  0  0  0  0
  7  2  2  0  0  0  0
  7  6  1  0  0  0  0
  8  9  1  0  0  0  0
  9 39  1  0  0  0  0
  9 38  1  0  0  0  0
 10  9  1  6  0  0  0
 10 25  1  0  0  0  0
 10 15  1  0  0  0  0
 11 12  1  0  0  0  0
 11 10  1  0  0  0  0
 12 13  1  0  0  0  0
 13 42  1  0  0  0  0
 13 43  1  0  0  0  0
 13 14  1  0  0  0  0
 14 16  1  0  0  0  0
 15 14  1  0  0  0  0
 15 45  1  0  0  0  0
 16 18  1  0  0  0  0
 16 17  2  0  0  0  0
 18 23  1  0  0  0  0
 19 20  1  0  0  0  0
 19 18  2  0  0  0  0
 20 21  2  0  0  0  0
 21 24  1  0  0  0  0
 21 22  1  0  0  0  0
 23 22  2  0  0  0  0
 23 47  1  0  0  0  0
 24 49  1  0  0  0  0
 24 48  1  0  0  0  0
 25 51  1  0  0  0  0
 26 27  2  0  0  0  0
 26 25  1  0  0  0  0
 28 29  1  0  0  0  0
 28 26  1  0  0  0  0
 29 54  1  0  0  0  0
 29 53  1  0  0  0  0
 30 56  1  0  0  0  0
 30 29  1  0  0  0  0
 31 30  1  0  0  0  0
 32 31  1  0  0  0  0
 32 33  1  0  0  0  0
 33 28  1  0  0  0  0
 36  6  1  0  0  0  0
 37  7  1  0  0  0  0
 40 12  1  0  0  0  0
 41 12  1  0  0  0  0
 44 15  1  0  0  0  0
 46 20  1  0  0  0  0
 50 24  1  0  0  0  0
 52 25  1  0  0  0  0
 55 30  1  0  0  0  0
 57 32  1  0  0  0  0
 58 32  1  0  0  0  0
 59 33  1  0  0  0  0
 60 33  1  0  0  0  0
M  END
>  <Pose>
1

>  <Score>
-6.85

$$$$
