
 OpenBabel03232204043D

 55 58  0  0  1  0  0  0  0  0999 V2000
   19.3660  -57.6830   31.1040 Cl  0  0  0  0  0  0  0  0  0  0  0  0
   17.8340  -58.0300   31.9490 C   0  0  0  0  0  0  0  0  0  0  0  0
   17.2090  -57.0670   32.7040 C   0  0  0  0  0  0  0  0  0  0  0  0
   16.0070  -57.3380   33.3580 C   0  0  0  0  0  0  0  0  0  0  0  0
   15.3830  -58.5900   33.2760 C   0  0  0  0  0  0  0  0  0  0  0  0
   16.0360  -59.5270   32.5120 C   0  0  0  0  0  0  0  0  0  0  0  0
   17.2280  -59.2720   31.8600 C   0  0  0  0  0  0  0  0  0  0  0  0
   14.1150  -58.7520   33.9650 C   0  0  2  0  0  0  0  0  0  0  0  0
   13.9440  -57.6690   35.0270 C   0  0  0  0  0  0  0  0  0  0  0  0
   12.4850  -57.7780   35.4220 C   0  0  0  0  0  0  0  0  0  0  0  0
   12.2500  -58.9990   36.1080 N   0  0  0  0  0  0  0  0  0  0  0  0
   12.6060  -60.2370   35.3670 C   0  0  0  0  0  0  0  0  0  0  0  0
   13.8180  -60.1000   34.5090 C   0  0  0  0  0  0  0  0  0  0  0  0
   11.7400  -59.1360   37.3920 C   0  0  0  0  0  0  0  0  0  0  0  0
   10.7190  -59.9440   37.5190 O   0  0  0  0  0  0  0  0  0  0  0  0
   12.1380  -58.5180   38.6660 C   0  0  0  0  0  0  0  0  0  0  0  0
   13.1400  -57.5450   38.6370 N   0  0  0  0  0  0  0  0  0  0  0  0
   14.4750  -57.7550   38.1750 C   0  0  0  0  0  0  0  0  0  0  0  0
   14.8470  -58.9580   38.1540 O   0  0  0  0  0  0  0  0  0  0  0  0
   15.3050  -56.6540   37.7680 C   0  0  0  0  0  0  0  0  0  0  0  0
   15.4690  -55.4790   38.2800 C   0  0  0  0  0  0  0  0  0  0  0  0
   14.7790  -55.0260   39.4470 N   0  0  0  0  0  0  0  0  0  0  0  0
   14.9950  -53.7450   39.9970 N   0  0  0  0  0  0  0  0  0  0  0  0
   15.9120  -52.8490   39.4120 C   0  0  0  0  0  0  0  0  0  0  0  0
   16.0770  -51.7110   39.9390 O   0  0  0  0  0  0  0  0  0  0  0  0
   16.6350  -53.2680   38.2270 C   0  0  0  0  0  0  0  0  0  0  0  0
   16.4300  -54.5160   37.6840 C   0  0  0  0  0  0  0  0  0  0  0  0
   17.1690  -54.8450   36.5840 C   0  0  0  0  0  0  0  0  0  0  0  0
   18.1040  -53.9770   36.0090 C   0  0  0  0  0  0  0  0  0  0  0  0
   18.2720  -52.7480   36.5860 C   0  0  0  0  0  0  0  0  0  0  0  0
   17.5410  -52.3650   37.7080 C   0  0  0  0  0  0  0  0  0  0  0  0
   13.0790  -58.4520   33.0240 O   0  0  0  0  0  0  0  0  0  0  0  0
   17.6830  -56.0870   32.7750 H   0  0  0  0  0  0  0  0  0  0  0  0
   15.5740  -56.5440   33.9330 H   0  0  0  0  0  0  0  0  0  0  0  0
   15.5610  -60.4990   32.4390 H   0  0  0  0  0  0  0  0  0  0  0  0
   17.7120  -60.0460   31.2590 H   0  0  0  0  0  0  0  0  0  0  0  0
   14.6320  -57.7820   35.8600 H   0  0  0  0  0  0  0  0  0  0  0  0
   14.1350  -56.6970   34.5640 H   0  0  0  0  0  0  0  0  0  0  0  0
   11.9510  -57.9400   34.3980 H   0  0  0  0  0  0  0  0  0  0  0  0
   12.1020  -56.8500   35.7810 H   0  0  0  0  0  0  0  0  0  0  0  0
   12.6780  -61.1020   36.0770 H   0  0  0  0  0  0  0  0  0  0  0  0
   11.7250  -60.4480   34.7260 H   0  0  0  0  0  0  0  0  0  0  0  0
   14.6690  -60.5790   35.0500 H   0  0  0  0  0  0  0  0  0  0  0  0
   13.6610  -60.8190   33.6360 H   0  0  0  0  0  0  0  0  0  0  0  0
   11.1600  -58.1260   39.1140 H   0  0  0  0  0  0  0  0  0  0  0  0
   12.4110  -59.3390   39.4260 H   0  0  0  0  0  0  0  0  0  0  0  0
   12.9390  -56.5430   38.8980 H   0  0  0  0  0  0  0  0  0  0  0  0
   15.8990  -56.8740   36.8480 H   0  0  0  0  0  0  0  0  0  0  0  0
   14.0820  -55.6410   39.9320 H   0  0  0  0  0  0  0  0  0  0  0  0
   14.4770  -53.4460   40.8560 H   0  0  0  0  0  0  0  0  0  0  0  0
   17.0690  -55.7870   36.1130 H   0  0  0  0  0  0  0  0  0  0  0  0
   18.6620  -54.2960   35.1340 H   0  0  0  0  0  0  0  0  0  0  0  0
   19.0130  -52.0860   36.1290 H   0  0  0  0  0  0  0  0  0  0  0  0
   17.7180  -51.3800   38.1190 H   0  0  0  0  0  0  0  0  0  0  0  0
   12.9010  -59.2910   32.5310 H   0  0  0  0  0  0  0  0  0  0  0  0
  1  2  1  0  0  0  0
  2  3  1  0  0  0  0
  3 33  1  0  0  0  0
  3  4  2  0  0  0  0
  4 34  1  0  0  0  0
  5  4  1  0  0  0  0
  5  8  1  0  0  0  0
  6  5  2  0  0  0  0
  7  2  2  0  0  0  0
  7  6  1  0  0  0  0
  8 32  1  6  0  0  0
  8 13  1  0  0  0  0
  8  9  1  0  0  0  0
  9 10  1  0  0  0  0
  9 37  1  0  0  0  0
 10 40  1  0  0  0  0
 10 11  1  0  0  0  0
 11 14  1  0  0  0  0
 12 41  1  0  0  0  0
 12 11  1  0  0  0  0
 13 43  1  0  0  0  0
 13 12  1  0  0  0  0
 14 15  2  0  0  0  0
 14 16  1  0  0  0  0
 16 45  1  0  0  0  0
 16 46  1  0  0  0  0
 17 16  1  0  0  0  0
 17 47  1  0  0  0  0
 18 17  1  0  0  0  0
 19 18  2  0  0  0  0
 20 18  1  0  0  0  0
 20 21  2  0  0  0  0
 21 22  1  0  0  0  0
 22 49  1  0  0  0  0
 22 23  1  0  0  0  0
 23 50  1  0  0  0  0
 24 25  2  0  0  0  0
 24 23  1  0  0  0  0
 26 24  1  0  0  0  0
 27 26  2  0  0  0  0
 27 21  1  0  0  0  0
 28 27  1  0  0  0  0
 29 28  2  0  0  0  0
 29 30  1  0  0  0  0
 30 31  2  0  0  0  0
 31 54  1  0  0  0  0
 31 26  1  0  0  0  0
 35  6  1  0  0  0  0
 36  7  1  0  0  0  0
 38  9  1  0  0  0  0
 39 10  1  0  0  0  0
 42 12  1  0  0  0  0
 44 13  1  0  0  0  0
 48 20  1  0  0  0  0
 51 28  1  0  0  0  0
 52 29  1  0  0  0  0
 53 30  1  0  0  0  0
 55 32  1  0  0  0  0
M  END
>  <Pose>
1

>  <Score>
-8.34

$$$$
