
 OpenBabel03232204043D

 58 58  0  0  1  0  0  0  0  0999 V2000
   12.5500  -62.3550   32.8720 Cl  0  0  0  0  0  0  0  0  0  0  0  0
   12.4860  -61.4420   34.3720 C   0  0  0  0  0  0  0  0  0  0  0  0
   13.0070  -60.1800   34.5010 C   0  0  0  0  0  0  0  0  0  0  0  0
   12.9520  -59.4660   35.6880 C   0  0  0  0  0  0  0  0  0  0  0  0
   13.3630  -58.2550   36.1010 N   0  0  0  0  0  0  0  0  0  0  0  0
   13.0480  -58.0530   37.3920 C   0  0  0  0  0  0  0  0  0  0  0  0
   12.4150  -59.1970   37.7840 N   0  0  0  0  0  0  0  0  0  0  0  0
   12.3440  -60.0670   36.7700 C   0  0  0  0  0  0  0  0  0  0  0  0
   11.8070  -61.3340   36.6840 C   0  0  0  0  0  0  0  0  0  0  0  0
   11.8850  -62.0140   35.4740 C   0  0  0  0  0  0  0  0  0  0  0  0
   11.9090  -59.3730   39.1440 C   0  0  0  0  0  0  0  0  0  0  0  0
   13.3070  -56.8680   38.2460 C   0  0  0  0  0  0  0  0  0  0  0  0
   14.7560  -56.6230   38.5170 C   0  0  0  0  0  0  0  0  0  0  0  0
   15.0220  -55.3330   39.1990 C   0  0  0  0  0  0  0  0  0  0  0  0
   14.4800  -55.1100   40.3110 O   0  0  0  0  0  0  0  0  0  0  0  0
   15.8640  -54.3610   38.6280 N   0  0  0  0  0  0  0  0  0  0  0  0
   16.1680  -54.3270   37.1970 C   0  0  0  0  0  0  0  0  0  0  0  0
   17.6550  -54.6020   37.0970 C   0  0  2  0  0  0  0  0  0  0  0  0
   18.4440  -53.6190   37.9290 C   0  0  1  0  0  0  0  0  0  0  0  0
   17.5080  -52.5760   38.5520 C   0  0  0  0  0  0  0  0  0  0  0  0
   16.4950  -53.3130   39.4120 C   0  0  0  0  0  0  0  0  0  0  0  0
   19.0610  -54.2390   39.0430 O   0  0  0  0  0  0  0  0  0  0  0  0
   19.5430  -52.9330   37.1760 C   0  0  0  0  0  0  0  0  0  0  0  0
   18.1360  -54.7770   35.7720 N   0  0  0  0  0  0  0  0  0  0  0  0
   19.1990  -54.0650   35.2960 C   0  0  0  0  0  0  0  0  0  0  0  0
   19.6660  -54.2330   34.0100 C   0  0  0  0  0  0  0  0  0  0  0  0
   19.0490  -55.1400   33.1770 C   0  0  0  0  0  0  0  0  0  0  0  0
   19.4510  -55.3250   31.9790 O   0  0  0  0  0  0  0  0  0  0  0  0
   18.0020  -55.8370   33.6530 N   0  0  0  0  0  0  0  0  0  0  0  0
   17.5760  -55.6370   34.9330 C   0  0  0  0  0  0  0  0  0  0  0  0
   16.5980  -56.3140   35.3200 O   0  0  0  0  0  0  0  0  0  0  0  0
   20.8190  -53.4760   33.4620 C   0  0  0  0  0  0  0  0  0  0  0  0
   13.4820  -59.7200   33.6420 H   0  0  0  0  0  0  0  0  0  0  0  0
   11.3310  -61.8030   37.5340 H   0  0  0  0  0  0  0  0  0  0  0  0
   11.4670  -63.0040   35.3980 H   0  0  0  0  0  0  0  0  0  0  0  0
   11.0100  -58.7180   39.3240 H   0  0  0  0  0  0  0  0  0  0  0  0
   12.6620  -59.0510   39.8970 H   0  0  0  0  0  0  0  0  0  0  0  0
   11.6150  -60.4400   39.2820 H   0  0  0  0  0  0  0  0  0  0  0  0
   12.7120  -56.9110   39.1950 H   0  0  0  0  0  0  0  0  0  0  0  0
   12.9160  -55.9850   37.6990 H   0  0  0  0  0  0  0  0  0  0  0  0
   15.1300  -57.4620   39.1700 H   0  0  0  0  0  0  0  0  0  0  0  0
   15.2950  -56.6940   37.5480 H   0  0  0  0  0  0  0  0  0  0  0  0
   15.8840  -53.3040   36.8760 H   0  0  0  0  0  0  0  0  0  0  0  0
   15.6280  -55.1150   36.6440 H   0  0  0  0  0  0  0  0  0  0  0  0
   17.7700  -55.5990   37.6260 H   0  0  0  0  0  0  0  0  0  0  0  0
   18.1170  -51.9530   39.2380 H   0  0  0  0  0  0  0  0  0  0  0  0
   17.0570  -51.9210   37.8090 H   0  0  0  0  0  0  0  0  0  0  0  0
   15.6970  -52.6000   39.7060 H   0  0  0  0  0  0  0  0  0  0  0  0
   16.9930  -53.7010   40.3130 H   0  0  0  0  0  0  0  0  0  0  0  0
   18.9620  -53.6040   39.7930 H   0  0  0  0  0  0  0  0  0  0  0  0
   20.4550  -52.7710   37.8230 H   0  0  0  0  0  0  0  0  0  0  0  0
   19.2610  -51.8940   36.8460 H   0  0  0  0  0  0  0  0  0  0  0  0
   19.8870  -53.5060   36.3070 H   0  0  0  0  0  0  0  0  0  0  0  0
   19.6910  -53.3410   35.9620 H   0  0  0  0  0  0  0  0  0  0  0  0
   17.5350  -56.5220   33.0300 H   0  0  0  0  0  0  0  0  0  0  0  0
   21.7260  -54.0930   33.6790 H   0  0  0  0  0  0  0  0  0  0  0  0
   20.7570  -53.3920   32.3570 H   0  0  0  0  0  0  0  0  0  0  0  0
   20.8850  -52.4760   33.9390 H   0  0  0  0  0  0  0  0  0  0  0  0
  1  2  1  0  0  0  0
  2  3  2  0  0  0  0
  2 10  1  0  0  0  0
  3  4  1  0  0  0  0
  4  5  1  0  0  0  0
  4  8  2  0  0  0  0
  5  6  2  0  0  0  0
  6  7  1  0  0  0  0
  6 12  1  0  0  0  0
  7 11  1  0  0  0  0
  8  7  1  0  0  0  0
  9  8  1  0  0  0  0
  9 34  1  0  0  0  0
 10  9  2  0  0  0  0
 11 38  1  0  0  0  0
 11 36  1  0  0  0  0
 11 37  1  0  0  0  0
 12 13  1  0  0  0  0
 12 39  1  0  0  0  0
 13 41  1  0  0  0  0
 13 14  1  0  0  0  0
 14 15  2  0  0  0  0
 16 14  1  0  0  0  0
 16 21  1  0  0  0  0
 17 16  1  0  0  0  0
 18 17  1  0  0  0  0
 18 45  1  1  0  0  0
 18 19  1  0  0  0  0
 19 20  1  0  0  0  0
 19 22  1  1  0  0  0
 20 46  1  0  0  0  0
 20 21  1  0  0  0  0
 21 48  1  0  0  0  0
 21 49  1  0  0  0  0
 22 50  1  0  0  0  0
 23 51  1  0  0  0  0
 24 18  1  0  0  0  0
 25 54  1  0  0  0  0
 27 29  1  0  0  0  0
 27 26  1  0  0  0  0
 28 27  2  0  0  0  0
 29 30  1  0  0  0  0
 30 31  2  0  0  0  0
 30 24  1  0  0  0  0
 32 56  1  0  0  0  0
 32 58  1  0  0  0  0
 32 26  1  0  0  0  0
 33  3  1  0  0  0  0
 35 10  1  0  0  0  0
 40 12  1  0  0  0  0
 42 13  1  0  0  0  0
 43 17  1  0  0  0  0
 44 17  1  0  0  0  0
 47 20  1  0  0  0  0
 52 23  1  0  0  0  0
 53 23  1  0  0  0  0
 55 29  1  0  0  0  0
 57 32  1  0  0  0  0
M  END
>  <Pose>
1

>  <Score>
-7.01

$$$$
