
 OpenBabel03232204043D

 42 45  0  0  0  0  0  0  0  0999 V2000
   11.5880  -61.3940   34.6540 Cl  0  0  0  0  0  0  0  0  0  0  0  0
   11.8650  -60.2650   35.9790 C   0  0  0  0  0  0  0  0  0  0  0  0
   12.9420  -59.3940   35.9900 C   0  0  0  0  0  0  0  0  0  0  0  0
   13.1950  -58.4970   37.0050 C   0  0  0  0  0  0  0  0  0  0  0  0
   14.1350  -57.5700   37.2610 N   0  0  0  0  0  0  0  0  0  0  0  0
   13.8940  -56.9600   38.4380 C   0  0  0  0  0  0  0  0  0  0  0  0
   12.7760  -57.5300   38.9170 N   0  0  0  0  0  0  0  0  0  0  0  0
   12.3040  -58.4760   38.0820 C   0  0  0  0  0  0  0  0  0  0  0  0
   11.2300  -59.3360   38.0840 C   0  0  0  0  0  0  0  0  0  0  0  0
   10.9950  -60.2220   37.0630 C   0  0  0  0  0  0  0  0  0  0  0  0
   14.7090  -55.8710   39.0770 C   0  0  0  0  0  0  0  0  0  0  0  0
   15.1580  -54.9320   38.0650 N   0  0  0  0  0  0  0  0  0  0  0  0
   16.5090  -54.5690   37.9080 C   0  0  0  0  0  0  0  0  0  0  0  0
   17.2470  -55.3490   37.2810 O   0  0  0  0  0  0  0  0  0  0  0  0
   17.0710  -53.3200   38.4500 C   0  0  0  0  0  0  0  0  0  0  0  0
   16.0950  -52.2980   38.8850 C   0  0  0  0  0  0  0  0  0  0  0  0
   16.7490  -53.0690   39.9620 C   0  0  0  0  0  0  0  0  0  0  0  0
   18.4220  -52.9560   38.1420 N   0  0  0  0  0  0  0  0  0  0  0  0
   18.5950  -51.9730   37.1470 C   0  0  0  0  0  0  0  0  0  0  0  0
   18.8880  -52.6900   35.8340 C   0  0  0  0  0  0  0  0  0  0  0  0
   20.1270  -53.2840   35.8870 O   0  0  0  0  0  0  0  0  0  0  0  0
   20.5210  -53.6950   37.1360 C   0  0  0  0  0  0  0  0  0  0  0  0
   19.3510  -54.0060   38.0470 C   0  0  0  0  0  0  0  0  0  0  0  0
   13.6390  -59.4150   35.1440 H   0  0  0  0  0  0  0  0  0  0  0  0
   12.3300  -57.2670   39.8250 H   0  0  0  0  0  0  0  0  0  0  0  0
   10.5540  -59.3080   38.9180 H   0  0  0  0  0  0  0  0  0  0  0  0
   10.1540  -60.9130   37.0350 H   0  0  0  0  0  0  0  0  0  0  0  0
   15.5620  -56.2700   39.6120 H   0  0  0  0  0  0  0  0  0  0  0  0
   14.0290  -55.3190   39.7480 H   0  0  0  0  0  0  0  0  0  0  0  0
   14.4430  -54.5080   37.4290 H   0  0  0  0  0  0  0  0  0  0  0  0
   15.0030  -52.4560   38.7710 H   0  0  0  0  0  0  0  0  0  0  0  0
   16.3270  -51.2100   38.8200 H   0  0  0  0  0  0  0  0  0  0  0  0
   16.2220  -53.9080   40.4740 H   0  0  0  0  0  0  0  0  0  0  0  0
   17.4840  -52.5670   40.5770 H   0  0  0  0  0  0  0  0  0  0  0  0
   17.8310  -51.2070   37.0420 H   0  0  0  0  0  0  0  0  0  0  0  0
   19.5490  -51.4110   37.3820 H   0  0  0  0  0  0  0  0  0  0  0  0
   18.1090  -53.4570   35.6670 H   0  0  0  0  0  0  0  0  0  0  0  0
   18.8440  -51.9110   35.0230 H   0  0  0  0  0  0  0  0  0  0  0  0
   21.0690  -54.6730   36.9940 H   0  0  0  0  0  0  0  0  0  0  0  0
   21.2610  -53.0220   37.6190 H   0  0  0  0  0  0  0  0  0  0  0  0
   18.9540  -54.9840   37.7160 H   0  0  0  0  0  0  0  0  0  0  0  0
   19.8050  -54.2040   39.0600 H   0  0  0  0  0  0  0  0  0  0  0  0
  1  2  1  0  0  0  0
  2  3  2  0  0  0  0
  2 10  1  0  0  0  0
  3  4  1  0  0  0  0
  4  5  1  0  0  0  0
  4  8  2  0  0  0  0
  5  6  2  0  0  0  0
  6  7  1  0  0  0  0
  6 11  1  0  0  0  0
  7 25  1  0  0  0  0
  8  9  1  0  0  0  0
  8  7  1  0  0  0  0
  9 26  1  0  0  0  0
 10  9  2  0  0  0  0
 11 28  1  0  0  0  0
 11 29  1  0  0  0  0
 12 11  1  0  0  0  0
 13 12  1  0  0  0  0
 13 15  1  0  0  0  0
 14 13  2  0  0  0  0
 15 16  1  0  0  0  0
 15 17  1  0  0  0  0
 16 17  1  0  0  0  0
 17 33  1  0  0  0  0
 17 34  1  0  0  0  0
 18 15  1  0  0  0  0
 19 36  1  0  0  0  0
 19 18  1  0  0  0  0
 20 21  1  0  0  0  0
 20 19  1  0  0  0  0
 21 22  1  0  0  0  0
 22 40  1  0  0  0  0
 22 23  1  0  0  0  0
 23 18  1  0  0  0  0
 23 42  1  0  0  0  0
 24  3  1  0  0  0  0
 27 10  1  0  0  0  0
 30 12  1  0  0  0  0
 31 16  1  0  0  0  0
 32 16  1  0  0  0  0
 35 19  1  0  0  0  0
 37 20  1  0  0  0  0
 38 20  1  0  0  0  0
 39 22  1  0  0  0  0
 41 23  1  0  0  0  0
M  END
>  <Pose>
1

>  <Score>
-5.74

$$$$
