
 OpenBabel03232204043D

 50 53  0  0  1  0  0  0  0  0999 V2000
   14.9520  -55.5340   39.5680 Cl  0  0  0  0  0  0  0  0  0  0  0  0
   14.9900  -56.7110   38.2790 C   0  0  0  0  0  0  0  0  0  0  0  0
   14.1230  -57.7810   38.2270 C   0  0  0  0  0  0  0  0  0  0  0  0
   14.2100  -58.6760   37.1790 C   0  0  0  0  0  0  0  0  0  0  0  0
   15.1310  -58.5500   36.1700 C   0  0  0  0  0  0  0  0  0  0  0  0
   16.0010  -57.4620   36.2390 C   0  0  0  0  0  0  0  0  0  0  0  0
   15.9200  -56.5650   37.2820 C   0  0  0  0  0  0  0  0  0  0  0  0
   15.2240  -59.5250   35.0540 C   0  0  1  0  0  0  0  0  0  0  0  0
   13.9020  -59.7510   34.4560 N   0  0  0  0  0  0  0  0  0  0  0  0
   13.5380  -58.5160   33.8690 C   0  0  0  0  0  0  0  0  0  0  0  0
   12.3740  -58.0820   33.6980 O   0  0  0  0  0  0  0  0  0  0  0  0
   14.7910  -57.8330   33.4940 C   0  0  0  0  0  0  0  0  0  0  0  0
   14.9230  -56.7140   32.9480 O   0  0  0  0  0  0  0  0  0  0  0  0
   15.8460  -58.7500   33.9050 C   0  0  0  0  0  0  0  0  0  0  0  0
   17.0210  -58.8690   33.3920 C   0  0  0  0  0  0  0  0  0  0  0  0
   17.9280  -59.8070   33.8820 O   0  0  0  0  0  0  0  0  0  0  0  0
   17.4400  -58.0220   32.2800 C   0  0  0  0  0  0  0  0  0  0  0  0
   16.8000  -57.5400   31.2750 O   0  0  0  0  0  0  0  0  0  0  0  0
   17.5850  -56.8260   30.5200 C   0  0  0  0  0  0  0  0  0  0  0  0
   18.8480  -56.8240   31.0540 C   0  0  0  0  0  0  0  0  0  0  0  0
   18.7700  -57.5890   32.1840 C   0  0  0  0  0  0  0  0  0  0  0  0
   13.1460  -60.9950   34.4880 C   0  0  0  0  0  0  0  0  0  0  0  0
   13.6780  -62.0610   33.5800 C   0  0  0  0  0  0  0  0  0  0  0  0
   13.3720  -61.9200   32.1980 N   0  0  0  0  0  4  0  0  0  0  0  0
   14.4170  -61.4390   31.3520 C   0  0  0  0  0  0  0  0  0  0  0  0
   15.6070  -62.3680   31.2680 C   0  0  0  0  0  0  0  0  0  0  0  0
   15.2200  -63.6310   30.8350 O   0  0  0  0  0  0  0  0  0  0  0  0
   14.1550  -64.1360   31.5740 C   0  0  0  0  0  0  0  0  0  0  0  0
   12.9650  -63.2130   31.6090 C   0  0  0  0  0  0  0  0  0  0  0  0
   13.4040  -57.8640   39.0270 H   0  0  0  0  0  0  0  0  0  0  0  0
   13.5090  -59.5000   37.1720 H   0  0  0  0  0  0  0  0  0  0  0  0
   16.7400  -57.3650   35.4300 H   0  0  0  0  0  0  0  0  0  0  0  0
   16.6000  -55.7190   37.3280 H   0  0  0  0  0  0  0  0  0  0  0  0
   15.7630  -60.4390   35.2860 H   0  0  0  0  0  0  0  0  0  0  0  0
   17.3410  -56.2890   29.5960 H   0  0  0  0  0  0  0  0  0  0  0  0
   19.7550  -56.3270   30.6830 H   0  0  0  0  0  0  0  0  0  0  0  0
   19.5760  -57.8080   32.8640 H   0  0  0  0  0  0  0  0  0  0  0  0
   12.0680  -60.8010   34.2690 H   0  0  0  0  0  0  0  0  0  0  0  0
   13.2170  -61.3520   35.5530 H   0  0  0  0  0  0  0  0  0  0  0  0
   14.7580  -62.2360   33.7820 H   0  0  0  0  0  0  0  0  0  0  0  0
   13.1850  -63.0190   33.9160 H   0  0  0  0  0  0  0  0  0  0  0  0
   12.5640  -61.2650   32.1060 H   0  0  0  0  0  0  0  0  0  0  0  0
   13.9830  -61.4430   30.3050 H   0  0  0  0  0  0  0  0  0  0  0  0
   14.7420  -60.4180   31.5210 H   0  0  0  0  0  0  0  0  0  0  0  0
   16.2400  -61.9490   30.4300 H   0  0  0  0  0  0  0  0  0  0  0  0
   16.2390  -62.3690   32.1620 H   0  0  0  0  0  0  0  0  0  0  0  0
   14.4530  -64.3730   32.6200 H   0  0  0  0  0  0  0  0  0  0  0  0
   13.8420  -65.0790   31.0800 H   0  0  0  0  0  0  0  0  0  0  0  0
   12.6560  -63.0130   30.5700 H   0  0  0  0  0  0  0  0  0  0  0  0
   12.1920  -63.7120   32.2200 H   0  0  0  0  0  0  0  0  0  0  0  0
  2  1  1  0  0  0  0
  3  2  1  0  0  0  0
  3 30  1  0  0  0  0
  4  3  2  0  0  0  0
  5  6  2  0  0  0  0
  5  4  1  0  0  0  0
  6  7  1  0  0  0  0
  7 33  1  0  0  0  0
  7  2  2  0  0  0  0
  8 34  1  1  0  0  0
  8  5  1  0  0  0  0
  9 22  1  0  0  0  0
  9  8  1  0  0  0  0
 10  9  1  0  0  0  0
 11 10  2  0  0  0  0
 12 10  1  0  0  0  0
 12 14  1  0  0  0  0
 13 12  2  0  0  0  0
 14  8  1  0  0  0  0
 15 16  1  0  0  0  0
 15 14  2  0  0  0  0
 17 15  1  0  0  0  0
 18 17  1  0  0  0  0
 19 20  2  0  0  0  0
 19 18  1  0  0  0  0
 20 21  1  0  0  0  0
 21 17  2  0  0  0  0
 21 37  1  0  0  0  0
 22 39  1  0  0  0  0
 23 40  1  0  0  0  0
 23 41  1  0  0  0  0
 23 22  1  0  0  0  0
 24 23  1  0  0  0  0
 25 44  1  0  0  0  0
 25 24  1  0  0  0  0
 26 25  1  0  0  0  0
 26 46  1  0  0  0  0
 27 26  1  0  0  0  0
 27 28  1  0  0  0  0
 28 29  1  0  0  0  0
 28 47  1  0  0  0  0
 29 24  1  0  0  0  0
 29 50  1  0  0  0  0
 31  4  1  0  0  0  0
 32  6  1  0  0  0  0
 35 19  1  0  0  0  0
 36 20  1  0  0  0  0
 38 22  1  0  0  0  0
 42 24  1  0  0  0  0
 43 25  1  0  0  0  0
 45 26  1  0  0  0  0
 48 28  1  0  0  0  0
 49 29  1  0  0  0  0
M  END
>  <Pose>
1

>  <Score>
-6.90

$$$$
