
 OpenBabel03232204043D

 63 66  0  0  1  0  0  0  0  0999 V2000
   12.8840  -64.4870   30.2360 Cl  0  0  0  0  0  0  0  0  0  0  0  0
   13.8260  -63.3450   31.1670 C   0  0  0  0  0  0  0  0  0  0  0  0
   14.0230  -63.4660   32.5220 C   0  0  0  0  0  0  0  0  0  0  0  0
   14.7750  -62.5360   33.2090 C   0  0  0  0  0  0  0  0  0  0  0  0
   15.3700  -61.4340   32.5800 C   0  0  0  0  0  0  0  0  0  0  0  0
   15.1580  -61.3400   31.2250 C   0  0  0  0  0  0  0  0  0  0  0  0
   14.3940  -62.2820   30.5240 C   0  0  0  0  0  0  0  0  0  0  0  0
   16.1830  -60.5230   33.3560 C   0  0  0  0  0  0  0  0  0  0  0  0
   15.6710  -59.5850   34.1350 C   0  0  0  0  0  0  0  0  0  0  0  0
   16.4660  -58.6040   34.9590 C   0  0  2  0  0  0  0  0  0  0  0  0
   15.5240  -58.0120   35.8640 N   0  0  0  0  0  0  0  0  0  0  0  0
   14.1940  -58.3380   35.4890 C   0  0  0  0  0  0  0  0  0  0  0  0
   13.1480  -57.8830   35.9750 O   0  0  0  0  0  0  0  0  0  0  0  0
   14.2890  -59.3340   34.3970 C   0  0  0  0  0  0  0  0  0  0  0  0
   13.3010  -59.8510   33.8240 O   0  0  0  0  0  0  0  0  0  0  0  0
   15.8710  -57.1980   37.0250 C   0  0  0  0  0  0  0  0  0  0  0  0
   16.5700  -55.9590   36.5790 C   0  0  0  0  0  0  0  0  0  0  0  0
   16.8180  -55.0460   37.7070 N   0  0  0  0  0  4  0  0  0  0  0  0
   15.6140  -54.9500   38.4720 C   0  0  0  0  0  0  0  0  0  0  0  0
   15.6310  -53.7490   39.4140 C   0  0  0  0  0  0  0  0  0  0  0  0
   15.8270  -52.6180   38.6010 O   0  0  0  0  0  0  0  0  0  0  0  0
   17.1250  -52.6670   38.1380 C   0  0  0  0  0  0  0  0  0  0  0  0
   17.2440  -53.7900   37.1270 C   0  0  0  0  0  0  0  0  0  0  0  0
   17.0660  -57.6370   34.0010 C   0  0  0  0  0  0  0  0  0  0  0  0
   18.4200  -57.5870   33.8370 C   0  0  0  0  0  0  0  0  0  0  0  0
   18.9610  -56.7050   32.9460 C   0  0  0  0  0  0  0  0  0  0  0  0
   18.1750  -55.8540   32.1980 C   0  0  0  0  0  0  0  0  0  0  0  0
   16.8030  -55.9030   32.3630 C   0  0  0  0  0  0  0  0  0  0  0  0
   16.2590  -56.8010   33.2690 C   0  0  0  0  0  0  0  0  0  0  0  0
   18.7340  -54.9580   31.2930 O   0  0  0  0  0  0  0  0  0  0  0  0
   19.2480  -55.4770   30.0580 C   0  0  0  0  0  0  0  0  0  0  0  0
   20.7620  -55.2860   30.0390 C   0  0  0  0  0  0  0  0  0  0  0  0
   21.3730  -56.6210   29.6380 C   0  0  0  0  0  0  0  0  0  0  0  0
   17.5960  -60.5940   33.3170 O   0  0  0  0  0  0  0  0  0  0  0  0
   13.5690  -64.3100   33.0190 H   0  0  0  0  0  0  0  0  0  0  0  0
   14.9200  -62.6470   34.2770 H   0  0  0  0  0  0  0  0  0  0  0  0
   15.6160  -60.5270   30.6760 H   0  0  0  0  0  0  0  0  0  0  0  0
   14.2530  -62.1620   29.4500 H   0  0  0  0  0  0  0  0  0  0  0  0
   17.2740  -59.1490   35.4920 H   0  0  0  0  0  0  0  0  0  0  0  0
   16.5540  -57.7950   37.6700 H   0  0  0  0  0  0  0  0  0  0  0  0
   14.9500  -56.9700   37.5840 H   0  0  0  0  0  0  0  0  0  0  0  0
   15.9740  -55.3880   35.8480 H   0  0  0  0  0  0  0  0  0  0  0  0
   17.5750  -56.2180   36.1590 H   0  0  0  0  0  0  0  0  0  0  0  0
   17.5890  -55.4210   38.3190 H   0  0  0  0  0  0  0  0  0  0  0  0
   15.5590  -55.8730   39.1110 H   0  0  0  0  0  0  0  0  0  0  0  0
   14.7140  -54.8450   37.8320 H   0  0  0  0  0  0  0  0  0  0  0  0
   16.4800  -53.9110   40.1000 H   0  0  0  0  0  0  0  0  0  0  0  0
   14.6610  -53.6840   39.9090 H   0  0  0  0  0  0  0  0  0  0  0  0
   17.3770  -51.7340   37.6060 H   0  0  0  0  0  0  0  0  0  0  0  0
   17.8590  -52.8620   38.9320 H   0  0  0  0  0  0  0  0  0  0  0  0
   18.3150  -53.9030   36.8550 H   0  0  0  0  0  0  0  0  0  0  0  0
   16.6280  -53.6020   36.2270 H   0  0  0  0  0  0  0  0  0  0  0  0
   19.0810  -58.2330   34.4000 H   0  0  0  0  0  0  0  0  0  0  0  0
   20.0360  -56.6530   32.8050 H   0  0  0  0  0  0  0  0  0  0  0  0
   16.2050  -55.2300   31.7680 H   0  0  0  0  0  0  0  0  0  0  0  0
   15.1700  -56.7920   33.3550 H   0  0  0  0  0  0  0  0  0  0  0  0
   19.0400  -56.5560   29.9880 H   0  0  0  0  0  0  0  0  0  0  0  0
   18.7720  -54.9600   29.2050 H   0  0  0  0  0  0  0  0  0  0  0  0
   20.9970  -54.5500   29.2420 H   0  0  0  0  0  0  0  0  0  0  0  0
   21.1260  -54.9500   31.0280 H   0  0  0  0  0  0  0  0  0  0  0  0
   22.2810  -56.4620   29.0440 H   0  0  0  0  0  0  0  0  0  0  0  0
   20.6720  -57.2190   29.0070 H   0  0  0  0  0  0  0  0  0  0  0  0
   21.6180  -57.1700   30.5690 H   0  0  0  0  0  0  0  0  0  0  0  0
  1  2  1  0  0  0  0
  2  3  1  0  0  0  0
  3 35  1  0  0  0  0
  3  4  2  0  0  0  0
  4 36  1  0  0  0  0
  5  4  1  0  0  0  0
  5  8  1  0  0  0  0
  6  5  2  0  0  0  0
  7  2  2  0  0  0  0
  7  6  1  0  0  0  0
  8  9  2  0  0  0  0
  9 14  1  0  0  0  0
  9 10  1  0  0  0  0
 10 39  1  1  0  0  0
 10 11  1  0  0  0  0
 11 16  1  0  0  0  0
 12 11  1  0  0  0  0
 12 13  2  0  0  0  0
 14 12  1  0  0  0  0
 15 14  2  0  0  0  0
 16 41  1  0  0  0  0
 16 40  1  0  0  0  0
 17 16  1  0  0  0  0
 17 18  1  0  0  0  0
 18 44  1  0  0  0  0
 18 19  1  0  0  0  0
 19 45  1  0  0  0  0
 19 20  1  0  0  0  0
 20 48  1  0  0  0  0
 20 47  1  0  0  0  0
 21 20  1  0  0  0  0
 22 21  1  0  0  0  0
 22 50  1  0  0  0  0
 23 18  1  0  0  0  0
 23 22  1  0  0  0  0
 24 10  1  0  0  0  0
 25 24  1  0  0  0  0
 25 53  1  0  0  0  0
 26 25  2  0  0  0  0
 27 28  2  0  0  0  0
 27 26  1  0  0  0  0
 28 29  1  0  0  0  0
 29 56  1  0  0  0  0
 29 24  2  0  0  0  0
 30 27  1  0  0  0  0
 31 30  1  0  0  0  0
 32 31  1  0  0  0  0
 32 60  1  0  0  0  0
 33 32  1  0  0  0  0
 33 63  1  0  0  0  0
 34  8  1  0  0  0  0
 37  6  1  0  0  0  0
 38  7  1  0  0  0  0
 42 17  1  0  0  0  0
 43 17  1  0  0  0  0
 46 19  1  0  0  0  0
 49 22  1  0  0  0  0
 51 23  1  0  0  0  0
 52 23  1  0  0  0  0
 54 26  1  0  0  0  0
 55 28  1  0  0  0  0
 57 31  1  0  0  0  0
 58 31  1  0  0  0  0
 59 32  1  0  0  0  0
 61 33  1  0  0  0  0
 62 33  1  0  0  0  0
M  END
>  <Pose>
1

>  <Score>
-6.65

$$$$
