
 OpenBabel03232204043D

 57 61  0  0  1  0  0  0  0  0999 V2000
   18.9460  -51.5450   37.1760 Cl  0  0  0  0  0  0  0  0  0  0  0  0
   17.7750  -52.7880   37.5830 C   0  0  0  0  0  0  0  0  0  0  0  0
   17.6840  -53.9710   36.8740 C   0  0  0  0  0  0  0  0  0  0  0  0
   16.7660  -54.9350   37.2000 C   0  0  0  0  0  0  0  0  0  0  0  0
   15.8810  -54.7680   38.2640 C   0  0  0  0  0  0  0  0  0  0  0  0
   15.9630  -53.5970   38.9770 C   0  0  0  0  0  0  0  0  0  0  0  0
   16.8920  -52.6460   38.6290 C   0  0  0  0  0  0  0  0  0  0  0  0
   14.9080  -55.8430   38.6110 C   0  0  1  0  0  0  0  0  0  0  0  0
   13.8510  -55.2880   39.2840 O   0  0  0  0  0  0  0  0  0  0  0  0
   14.5090  -56.6820   37.4270 C   0  0  2  0  0  0  0  0  0  0  0  0
   13.2190  -57.2650   37.7710 N   0  0  0  0  0  0  0  0  0  0  0  0
   13.2250  -58.6220   37.2610 C   0  0  1  0  0  0  0  0  0  0  0  0
   14.6650  -59.0200   37.4100 C   0  0  2  0  0  0  0  0  0  0  0  0
   15.4490  -57.7830   37.1070 C   0  0  1  0  0  0  0  0  0  0  0  0
   15.7950  -57.8620   35.6610 C   0  0  0  0  0  0  0  0  0  0  0  0
   16.2200  -56.9270   34.9420 O   0  0  0  0  0  0  0  0  0  0  0  0
   15.5450  -59.2260   35.2570 N   0  0  0  0  0  0  0  0  0  0  0  0
   15.1430  -59.9690   36.3890 C   0  0  0  0  0  0  0  0  0  0  0  0
   15.1740  -61.2160   36.5280 O   0  0  0  0  0  0  0  0  0  0  0  0
   15.6750  -59.7280   33.9210 C   0  0  0  0  0  0  0  0  0  0  0  0
   14.6830  -60.7500   33.5100 C   0  0  0  0  0  0  0  0  0  0  0  0
   15.1900  -62.1360   33.3150 C   0  0  0  0  0  0  0  0  0  0  0  0
   14.6220  -63.0580   34.1830 O   0  0  0  0  0  0  0  0  0  0  0  0
   15.5580  -64.0770   34.4590 C   0  0  0  0  0  0  0  0  0  0  0  0
   12.3270  -59.5120   38.0360 C   0  0  0  0  0  0  0  0  0  0  0  0
   11.3670  -59.9630   37.1620 C   0  0  0  0  0  0  0  0  0  0  0  0
   10.3870  -60.8280   37.6290 C   0  0  0  0  0  0  0  0  0  0  0  0
   10.4030  -61.2100   38.9500 C   0  0  0  0  0  0  0  0  0  0  0  0
   11.3660  -60.7620   39.8380 C   0  0  0  0  0  0  0  0  0  0  0  0
   12.3330  -59.9030   39.3600 C   0  0  0  0  0  0  0  0  0  0  0  0
   11.5690  -59.4150   35.8460 N   0  0  0  0  0  0  0  0  0  0  0  0
   12.7120  -58.5820   35.9030 C   0  0  0  0  0  0  0  0  0  0  0  0
   13.1550  -57.9470   34.9310 O   0  0  0  0  0  0  0  0  0  0  0  0
   18.3650  -54.1320   36.0330 H   0  0  0  0  0  0  0  0  0  0  0  0
   16.7000  -55.8750   36.6300 H   0  0  0  0  0  0  0  0  0  0  0  0
   15.3210  -53.3940   39.8230 H   0  0  0  0  0  0  0  0  0  0  0  0
   16.9710  -51.7060   39.1870 H   0  0  0  0  0  0  0  0  0  0  0  0
   15.4960  -56.5330   39.3230 H   0  0  0  0  0  0  0  0  0  0  0  0
   13.1610  -55.9900   39.4060 H   0  0  0  0  0  0  0  0  0  0  0  0
   14.3170  -56.0050   36.5440 H   0  0  0  0  0  0  0  0  0  0  0  0
   12.4530  -56.7090   37.3760 H   0  0  0  0  0  0  0  0  0  0  0  0
   14.8470  -59.3960   38.4350 H   0  0  0  0  0  0  0  0  0  0  0  0
   16.3980  -57.7390   37.6670 H   0  0  0  0  0  0  0  0  0  0  0  0
   16.7010  -60.1210   33.7910 H   0  0  0  0  0  0  0  0  0  0  0  0
   15.6030  -58.8880   33.1690 H   0  0  0  0  0  0  0  0  0  0  0  0
   13.9230  -60.8150   34.3470 H   0  0  0  0  0  0  0  0  0  0  0  0
   14.0590  -60.4370   32.6330 H   0  0  0  0  0  0  0  0  0  0  0  0
   16.2840  -62.2380   33.4110 H   0  0  0  0  0  0  0  0  0  0  0  0
   14.9200  -62.4410   32.2730 H   0  0  0  0  0  0  0  0  0  0  0  0
   15.8610  -64.6020   33.5360 H   0  0  0  0  0  0  0  0  0  0  0  0
   16.4700  -63.5930   34.8690 H   0  0  0  0  0  0  0  0  0  0  0  0
   15.1680  -64.7700   35.2300 H   0  0  0  0  0  0  0  0  0  0  0  0
    9.6170  -61.1910   36.9330 H   0  0  0  0  0  0  0  0  0  0  0  0
    9.6290  -61.8890   39.3010 H   0  0  0  0  0  0  0  0  0  0  0  0
   11.3160  -61.1040   40.8630 H   0  0  0  0  0  0  0  0  0  0  0  0
   13.1030  -59.5420   40.0590 H   0  0  0  0  0  0  0  0  0  0  0  0
   10.9470  -59.6340   35.0350 H   0  0  0  0  0  0  0  0  0  0  0  0
  1  2  1  0  0  0  0
  2  7  1  0  0  0  0
  3  4  1  0  0  0  0
  3  2  2  0  0  0  0
  4  5  2  0  0  0  0
  5  8  1  0  0  0  0
  5  6  1  0  0  0  0
  6 36  1  0  0  0  0
  7  6  2  0  0  0  0
  7 37  1  0  0  0  0
  8  9  1  0  0  0  0
  8 38  1  1  0  0  0
  9 39  1  0  0  0  0
 10 40  1  6  0  0  0
 10 11  1  0  0  0  0
 10  8  1  0  0  0  0
 12 32  1  6  0  0  0
 12 13  1  0  0  0  0
 12 11  1  0  0  0  0
 12 25  1  0  0  0  0
 13 42  1  1  0  0  0
 14 13  1  0  0  0  0
 14 10  1  0  0  0  0
 14 43  1  1  0  0  0
 15 14  1  0  0  0  0
 16 15  2  0  0  0  0
 17 15  1  0  0  0  0
 17 18  1  0  0  0  0
 18 19  2  0  0  0  0
 18 13  1  0  0  0  0
 20 17  1  0  0  0  0
 21 20  1  0  0  0  0
 21 46  1  0  0  0  0
 22 48  1  0  0  0  0
 22 21  1  0  0  0  0
 22 23  1  0  0  0  0
 23 24  1  0  0  0  0
 24 51  1  0  0  0  0
 24 52  1  0  0  0  0
 25 30  1  0  0  0  0
 26 27  1  0  0  0  0
 26 25  2  0  0  0  0
 27 28  2  0  0  0  0
 28 54  1  0  0  0  0
 28 29  1  0  0  0  0
 29 55  1  0  0  0  0
 30 29  2  0  0  0  0
 30 56  1  0  0  0  0
 31 32  1  0  0  0  0
 31 26  1  0  0  0  0
 33 32  2  0  0  0  0
 34  3  1  0  0  0  0
 35  4  1  0  0  0  0
 41 11  1  0  0  0  0
 44 20  1  0  0  0  0
 45 20  1  0  0  0  0
 47 21  1  0  0  0  0
 49 22  1  0  0  0  0
 50 24  1  0  0  0  0
 53 27  1  0  0  0  0
 57 31  1  0  0  0  0
M  END
>  <Pose>
1

>  <Score>
-6.58

$$$$
