
 OpenBabel03232204043D

 48 51  0  0  1  0  0  0  0  0999 V2000
   11.5850  -59.4700   36.4180 Cl  0  0  0  0  0  0  0  0  0  0  0  0
   12.9360  -59.7360   35.3380 C   0  0  0  0  0  0  0  0  0  0  0  0
   12.8470  -60.6660   34.3070 C   0  0  0  0  0  0  0  0  0  0  0  0
   13.9180  -60.8660   33.4630 C   0  0  0  0  0  0  0  0  0  0  0  0
   15.1010  -60.1720   33.5990 C   0  0  0  0  0  0  0  0  0  0  0  0
   15.1960  -59.2490   34.6180 C   0  0  0  0  0  0  0  0  0  0  0  0
   14.1270  -59.0470   35.4610 C   0  0  0  0  0  0  0  0  0  0  0  0
   16.2620  -60.3610   32.7150 C   0  0  0  0  0  0  0  0  0  0  0  0
   17.2720  -59.2710   32.9040 C   0  0  0  0  0  0  0  0  0  0  0  0
   18.2470  -59.5270   33.6920 O   0  0  0  0  0  0  0  0  0  0  0  0
   17.1520  -58.0360   32.2500 N   0  0  0  0  0  0  0  0  0  0  0  0
   17.7250  -57.7980   30.9630 C   0  0  0  0  0  0  0  0  0  0  0  0
   18.0630  -56.3600   30.6910 C   0  0  0  0  0  0  0  0  0  0  0  0
   18.2780  -55.6350   31.9670 C   0  0  2  0  0  0  0  0  0  0  0  0
   17.4910  -55.9010   33.0720 C   0  0  0  0  0  0  0  0  0  0  0  0
   17.6720  -55.2480   34.2260 N   0  0  0  0  0  0  0  0  0  0  0  0
   18.6210  -54.3020   34.3880 C   0  0  2  0  0  0  0  0  0  0  0  0
   19.3950  -54.0380   33.3070 N   0  0  0  0  0  0  0  0  0  0  0  0
   19.2510  -54.6660   32.1280 C   0  0  0  0  0  0  0  0  0  0  0  0
   20.0610  -54.3720   31.0410 O   0  0  0  0  0  0  0  0  0  0  0  0
   18.7720  -53.6470   35.6220 N   0  0  0  0  0  0  0  0  0  0  0  0
   19.7080  -52.5720   35.7690 C   0  0  0  0  0  0  0  0  0  0  0  0
   19.2240  -51.7440   36.9690 C   0  0  0  0  0  0  0  0  0  0  0  0
   19.2410  -52.4860   38.1230 O   0  0  0  0  0  0  0  0  0  0  0  0
   18.6830  -53.7330   38.0470 C   0  0  0  0  0  0  0  0  0  0  0  0
   17.9890  -54.0520   36.7510 C   0  0  0  0  0  0  0  0  0  0  0  0
   16.4360  -56.9660   32.8860 C   0  0  0  0  0  0  0  0  0  0  0  0
   11.9270  -61.2120   34.1940 H   0  0  0  0  0  0  0  0  0  0  0  0
   13.8590  -61.5910   32.6550 H   0  0  0  0  0  0  0  0  0  0  0  0
   16.1150  -58.6620   34.7780 H   0  0  0  0  0  0  0  0  0  0  0  0
   14.1940  -58.3120   36.2780 H   0  0  0  0  0  0  0  0  0  0  0  0
   15.8820  -60.3840   31.6620 H   0  0  0  0  0  0  0  0  0  0  0  0
   16.6900  -61.3620   32.9360 H   0  0  0  0  0  0  0  0  0  0  0  0
   18.5670  -58.4870   30.7250 H   0  0  0  0  0  0  0  0  0  0  0  0
   16.9390  -58.0630   30.1850 H   0  0  0  0  0  0  0  0  0  0  0  0
   17.2450  -55.8310   30.1180 H   0  0  0  0  0  0  0  0  0  0  0  0
   18.9600  -56.2530   30.0360 H   0  0  0  0  0  0  0  0  0  0  0  0
   20.1740  -53.4180   30.6880 H   0  0  0  0  0  0  0  0  0  0  0  0
   19.6990  -51.8670   34.9050 H   0  0  0  0  0  0  0  0  0  0  0  0
   20.7590  -52.9110   35.9340 H   0  0  0  0  0  0  0  0  0  0  0  0
   18.1720  -51.4730   36.7420 H   0  0  0  0  0  0  0  0  0  0  0  0
   19.8080  -50.8310   37.0840 H   0  0  0  0  0  0  0  0  0  0  0  0
   19.4410  -54.5220   38.2470 H   0  0  0  0  0  0  0  0  0  0  0  0
   17.9040  -53.8120   38.8530 H   0  0  0  0  0  0  0  0  0  0  0  0
   16.9640  -53.5880   36.7460 H   0  0  0  0  0  0  0  0  0  0  0  0
   17.8660  -55.1570   36.7220 H   0  0  0  0  0  0  0  0  0  0  0  0
   16.0310  -57.2800   33.8660 H   0  0  0  0  0  0  0  0  0  0  0  0
   15.6080  -56.5690   32.2580 H   0  0  0  0  0  0  0  0  0  0  0  0
  2  7  1  0  0  0  0
  2  1  1  0  0  0  0
  3  2  2  0  0  0  0
  4  5  2  0  0  0  0
  4  3  1  0  0  0  0
  5  6  1  0  0  0  0
  6 30  1  0  0  0  0
  6  7  2  0  0  0  0
  7 31  1  0  0  0  0
  8  9  1  0  0  0  0
  8 33  1  0  0  0  0
  8  5  1  0  0  0  0
  9 10  2  0  0  0  0
 11 27  1  0  0  0  0
 11  9  1  0  0  0  0
 12 11  1  0  0  0  0
 13 12  1  0  0  0  0
 13 14  1  0  0  0  0
 14 19  1  6  0  0  0
 14 15  1  0  0  0  0
 15 16  2  0  0  0  0
 16 17  1  0  0  0  0
 17 21  1  1  0  0  0
 18 17  1  0  0  0  0
 19 18  2  0  0  0  0
 20 19  1  0  0  0  0
 21 22  1  0  0  0  0
 21 26  1  0  0  0  0
 22 40  1  0  0  0  0
 22 23  1  0  0  0  0
 23 42  1  0  0  0  0
 23 24  1  0  0  0  0
 25 24  1  0  0  0  0
 25 43  1  0  0  0  0
 25 44  1  0  0  0  0
 26 25  1  0  0  0  0
 27 15  1  0  0  0  0
 27 47  1  0  0  0  0
 28  3  1  0  0  0  0
 29  4  1  0  0  0  0
 32  8  1  0  0  0  0
 34 12  1  0  0  0  0
 35 12  1  0  0  0  0
 36 13  1  0  0  0  0
 37 13  1  0  0  0  0
 38 20  1  0  0  0  0
 39 22  1  0  0  0  0
 41 23  1  0  0  0  0
 45 26  1  0  0  0  0
 46 26  1  0  0  0  0
 48 27  1  0  0  0  0
M  END
>  <Pose>
1

>  <Score>
-6.40

$$$$
