
 OpenBabel03232204043D

 52 55  0  0  0  0  0  0  0  0999 V2000
   22.0230  -57.0610   29.5320 Cl  0  0  0  0  0  0  0  0  0  0  0  0
   20.4640  -56.8150   30.2590 C   0  0  0  0  0  0  0  0  0  0  0  0
   19.8910  -55.5430   30.3050 C   0  0  0  0  0  0  0  0  0  0  0  0
   18.6500  -55.3540   30.8860 C   0  0  0  0  0  0  0  0  0  0  0  0
   17.9450  -56.4220   31.4350 C   0  0  0  0  0  0  0  0  0  0  0  0
   18.5040  -57.6700   31.3930 C   0  0  0  0  0  0  0  0  0  0  0  0
   19.7550  -57.8580   30.8060 C   0  0  0  0  0  0  0  0  0  0  0  0
   16.6150  -56.1740   32.0510 C   0  0  0  0  0  0  0  0  0  0  0  0
   16.6330  -56.4410   33.5020 C   0  0  0  0  0  0  0  0  0  0  0  0
   17.3100  -55.6660   34.2270 O   0  0  0  0  0  0  0  0  0  0  0  0
   15.9420  -57.5000   34.1120 N   0  0  0  0  0  0  0  0  0  0  0  0
   16.6280  -58.4270   35.0300 C   0  0  0  0  0  0  0  0  0  0  0  0
   15.6680  -58.7700   36.1590 C   0  0  0  0  0  0  0  0  0  0  0  0
   14.7650  -57.6450   36.2940 N   0  0  0  0  0  0  0  0  0  0  0  0
   13.7810  -57.5060   35.2340 C   0  0  0  0  0  0  0  0  0  0  0  0
   14.5280  -57.7860   33.9180 C   0  0  0  0  0  0  0  0  0  0  0  0
   14.8510  -56.7360   37.3800 C   0  0  0  0  0  0  0  0  0  0  0  0
   13.8860  -56.7460   38.3700 C   0  0  0  0  0  0  0  0  0  0  0  0
   13.9860  -55.8520   39.3970 N   0  0  0  0  0  0  0  0  0  0  0  0
   14.9640  -54.9730   39.4910 N   0  0  0  0  0  0  0  0  0  0  0  0
   15.9530  -54.9080   38.5460 C   0  0  0  0  0  0  0  0  0  0  0  0
   15.8490  -55.8010   37.5240 C   0  0  0  0  0  0  0  0  0  0  0  0
   16.9690  -53.9400   38.7070 N   0  0  0  0  0  0  0  0  0  0  0  0
   16.7260  -52.5440   38.3950 C   0  0  0  0  0  0  0  0  0  0  0  0
   17.8960  -51.9620   37.6010 C   0  0  0  0  0  0  0  0  0  0  0  0
   19.1110  -52.2900   38.1700 O   0  0  0  0  0  0  0  0  0  0  0  0
   19.2460  -53.6690   38.1270 C   0  0  0  0  0  0  0  0  0  0  0  0
   18.2910  -54.2680   39.1750 C   0  0  0  0  0  0  0  0  0  0  0  0
   20.4340  -54.7250   29.8830 H   0  0  0  0  0  0  0  0  0  0  0  0
   18.1740  -54.3760   30.9390 H   0  0  0  0  0  0  0  0  0  0  0  0
   17.9920  -58.5420   31.8090 H   0  0  0  0  0  0  0  0  0  0  0  0
   20.1680  -58.8520   30.7880 H   0  0  0  0  0  0  0  0  0  0  0  0
   15.9090  -56.9030   31.5560 H   0  0  0  0  0  0  0  0  0  0  0  0
   16.2670  -55.1460   31.8280 H   0  0  0  0  0  0  0  0  0  0  0  0
   17.5190  -57.8900   35.3870 H   0  0  0  0  0  0  0  0  0  0  0  0
   16.9690  -59.3290   34.4820 H   0  0  0  0  0  0  0  0  0  0  0  0
   16.1790  -59.0220   37.0990 H   0  0  0  0  0  0  0  0  0  0  0  0
   15.0570  -59.6530   35.8640 H   0  0  0  0  0  0  0  0  0  0  0  0
   13.2940  -56.5320   35.1870 H   0  0  0  0  0  0  0  0  0  0  0  0
   13.0540  -58.3340   35.3610 H   0  0  0  0  0  0  0  0  0  0  0  0
   14.0810  -57.2630   33.0750 H   0  0  0  0  0  0  0  0  0  0  0  0
   14.4710  -58.8770   33.6910 H   0  0  0  0  0  0  0  0  0  0  0  0
   13.0600  -57.4140   38.3860 H   0  0  0  0  0  0  0  0  0  0  0  0
   16.6010  -55.7880   36.7540 H   0  0  0  0  0  0  0  0  0  0  0  0
   15.8140  -52.3960   37.7820 H   0  0  0  0  0  0  0  0  0  0  0  0
   16.6900  -51.9730   39.3410 H   0  0  0  0  0  0  0  0  0  0  0  0
   17.7820  -50.8700   37.5890 H   0  0  0  0  0  0  0  0  0  0  0  0
   17.8750  -52.2990   36.5500 H   0  0  0  0  0  0  0  0  0  0  0  0
   20.2710  -54.0150   38.2800 H   0  0  0  0  0  0  0  0  0  0  0  0
   18.8320  -54.0190   37.1410 H   0  0  0  0  0  0  0  0  0  0  0  0
   18.5080  -55.3190   39.3160 H   0  0  0  0  0  0  0  0  0  0  0  0
   18.4590  -53.6790   40.1200 H   0  0  0  0  0  0  0  0  0  0  0  0
  1  2  1  0  0  0  0
  2  3  2  0  0  0  0
  2  7  1  0  0  0  0
  3  4  1  0  0  0  0
  4 30  1  0  0  0  0
  4  5  2  0  0  0  0
  5  8  1  0  0  0  0
  6  5  1  0  0  0  0
  6 31  1  0  0  0  0
  7  6  2  0  0  0  0
  8  9  1  0  0  0  0
  9 11  1  0  0  0  0
  9 10  2  0  0  0  0
 11 12  1  0  0  0  0
 12 35  1  0  0  0  0
 12 13  1  0  0  0  0
 13 14  1  0  0  0  0
 13 37  1  0  0  0  0
 14 17  1  0  0  0  0
 15 40  1  0  0  0  0
 15 14  1  0  0  0  0
 16 11  1  0  0  0  0
 16 15  1  0  0  0  0
 17 22  2  0  0  0  0
 17 18  1  0  0  0  0
 18 43  1  0  0  0  0
 18 19  2  0  0  0  0
 19 20  1  0  0  0  0
 21 23  1  0  0  0  0
 21 20  2  0  0  0  0
 22 21  1  0  0  0  0
 23 28  1  0  0  0  0
 24 23  1  0  0  0  0
 24 46  1  0  0  0  0
 25 26  1  0  0  0  0
 25 24  1  0  0  0  0
 27 26  1  0  0  0  0
 27 49  1  0  0  0  0
 27 28  1  0  0  0  0
 28 51  1  0  0  0  0
 28 52  1  0  0  0  0
 29  3  1  0  0  0  0
 32  7  1  0  0  0  0
 33  8  1  0  0  0  0
 34  8  1  0  0  0  0
 36 12  1  0  0  0  0
 38 13  1  0  0  0  0
 39 15  1  0  0  0  0
 41 16  1  0  0  0  0
 42 16  1  0  0  0  0
 44 22  1  0  0  0  0
 45 24  1  0  0  0  0
 47 25  1  0  0  0  0
 48 25  1  0  0  0  0
 50 27  1  0  0  0  0
M  END
>  <Pose>
1

>  <Score>
-7.10

$$$$
