
 OpenBabel03232204043D

 42 45  0  0  0  0  0  0  0  0999 V2000
   12.5080  -60.2600   34.2440 Cl  0  0  0  0  0  0  0  0  0  0  0  0
   12.3620  -59.7130   35.8850 C   0  0  0  0  0  0  0  0  0  0  0  0
   13.1050  -58.6730   36.4290 C   0  0  0  0  0  0  0  0  0  0  0  0
   12.9390  -58.2860   37.7130 C   0  0  0  0  0  0  0  0  0  0  0  0
   11.9990  -58.9760   38.4510 C   0  0  0  0  0  0  0  0  0  0  0  0
   11.2460  -59.9960   37.9760 C   0  0  0  0  0  0  0  0  0  0  0  0
   11.3950  -60.3940   36.6930 C   0  0  0  0  0  0  0  0  0  0  0  0
   13.6770  -57.2220   38.3570 N   0  0  0  0  0  0  0  0  0  0  0  0
   13.3690  -56.8280   39.5740 N   0  0  0  0  0  0  0  0  0  0  0  0
   14.1380  -55.9610   39.8240 N   0  0  0  0  0  0  0  0  0  0  0  0
   15.0510  -55.4120   39.2400 C   0  0  0  0  0  0  0  0  0  0  0  0
   14.6740  -56.4680   37.9780 C   0  0  0  0  0  0  0  0  0  0  0  0
   16.1430  -54.7560   38.5450 C   0  0  0  0  0  0  0  0  0  0  0  0
   16.4630  -55.6860   37.5600 O   0  0  0  0  0  0  0  0  0  0  0  0
   16.9400  -53.6640   38.4600 N   0  0  0  0  0  0  0  0  0  0  0  0
   16.7690  -52.4030   37.8020 C   0  0  0  0  0  0  0  0  0  0  0  0
   18.1540  -51.8050   37.4790 C   0  0  0  0  0  0  0  0  0  0  0  0
   18.9940  -52.9840   37.2240 N   0  0  0  0  0  0  0  0  0  0  0  0
   19.3630  -53.8140   38.3220 C   0  0  0  0  0  0  0  0  0  0  0  0
   18.2030  -53.7480   39.2620 C   0  0  0  0  0  0  0  0  0  0  0  0
   19.3100  -53.3290   35.9150 C   0  0  0  0  0  0  0  0  0  0  0  0
   18.6620  -54.3920   35.2740 N   0  0  0  0  0  0  0  0  0  0  0  0
   18.8590  -54.7760   34.0620 C   0  0  0  0  0  0  0  0  0  0  0  0
   19.7780  -54.1320   33.2200 C   0  0  0  0  0  0  0  0  0  0  0  0
   20.4310  -53.0800   33.8490 C   0  0  0  0  0  0  0  0  0  0  0  0
   20.1940  -52.7480   35.0620 N   0  0  0  0  0  0  0  0  0  0  0  0
   13.8650  -58.2050   35.8100 H   0  0  0  0  0  0  0  0  0  0  0  0
   11.9050  -58.6250   39.5210 H   0  0  0  0  0  0  0  0  0  0  0  0
   10.5200  -60.4880   38.6190 H   0  0  0  0  0  0  0  0  0  0  0  0
   10.8610  -61.1650   36.2310 H   0  0  0  0  0  0  0  0  0  0  0  0
   15.1830  -56.4460   37.1080 H   0  0  0  0  0  0  0  0  0  0  0  0
   16.3480  -51.6480   38.5110 H   0  0  0  0  0  0  0  0  0  0  0  0
   16.2580  -52.4440   36.8500 H   0  0  0  0  0  0  0  0  0  0  0  0
   18.1480  -51.1580   36.6060 H   0  0  0  0  0  0  0  0  0  0  0  0
   18.5140  -51.2590   38.3820 H   0  0  0  0  0  0  0  0  0  0  0  0
   20.2530  -53.4260   38.8470 H   0  0  0  0  0  0  0  0  0  0  0  0
   19.6060  -54.8660   37.9520 H   0  0  0  0  0  0  0  0  0  0  0  0
   18.1990  -52.9280   40.0070 H   0  0  0  0  0  0  0  0  0  0  0  0
   18.1670  -54.7060   39.8010 H   0  0  0  0  0  0  0  0  0  0  0  0
   18.3690  -55.6470   33.5960 H   0  0  0  0  0  0  0  0  0  0  0  0
   19.9820  -54.4120   32.2060 H   0  0  0  0  0  0  0  0  0  0  0  0
   21.2020  -52.5330   33.2520 H   0  0  0  0  0  0  0  0  0  0  0  0
  1  2  1  0  0  0  0
  2  3  2  0  0  0  0
  2  7  1  0  0  0  0
  3  4  1  0  0  0  0
  4  8  1  0  0  0  0
  4  5  2  0  0  0  0
  5 28  1  0  0  0  0
  6  5  1  0  0  0  0
  6 29  1  0  0  0  0
  7  6  2  0  0  0  0
  8  9  1  0  0  0  0
  9 10  2  0  0  0  0
 11 10  1  0  0  0  0
 12  8  1  0  0  0  0
 12 11  2  0  0  0  0
 13 11  1  0  0  0  0
 14 13  2  0  0  0  0
 15 13  1  0  0  0  0
 15 20  1  0  0  0  0
 16 15  1  0  0  0  0
 16 32  1  0  0  0  0
 17 16  1  0  0  0  0
 17 35  1  0  0  0  0
 18 17  1  0  0  0  0
 18 19  1  0  0  0  0
 19 36  1  0  0  0  0
 19 20  1  0  0  0  0
 20 39  1  0  0  0  0
 20 38  1  0  0  0  0
 21 18  1  0  0  0  0
 22 21  2  0  0  0  0
 23 22  1  0  0  0  0
 24 25  1  0  0  0  0
 24 23  2  0  0  0  0
 25 26  2  0  0  0  0
 26 21  1  0  0  0  0
 27  3  1  0  0  0  0
 30  7  1  0  0  0  0
 31 12  1  0  0  0  0
 33 16  1  0  0  0  0
 34 17  1  0  0  0  0
 37 19  1  0  0  0  0
 40 23  1  0  0  0  0
 41 24  1  0  0  0  0
 42 25  1  0  0  0  0
M  END
>  <Pose>
1

>  <Score>
-7.32

$$$$
