
 OpenBabel03232204043D

 33 36  0  0  1  0  0  0  0  0999 V2000
   12.0520  -58.6680   38.5490 Cl  0  0  0  0  0  0  0  0  0  0  0  0
   13.6210  -58.2260   37.9110 C   0  0  0  0  0  0  0  0  0  0  0  0
   14.1040  -56.9380   38.0090 C   0  0  0  0  0  0  0  0  0  0  0  0
   15.3440  -56.5750   37.5090 C   0  0  0  0  0  0  0  0  0  0  0  0
   16.0870  -57.5680   36.9000 C   0  0  0  0  0  0  0  0  0  0  0  0
   15.6010  -58.8650   36.8010 C   0  0  0  0  0  0  0  0  0  0  0  0
   14.3650  -59.2170   37.3030 C   0  0  0  0  0  0  0  0  0  0  0  0
   15.8430  -55.2470   37.6080 N   0  0  0  0  0  0  0  0  0  0  0  0
   16.6480  -54.5250   36.6580 C   0  0  0  0  0  0  0  0  0  0  0  0
   17.1210  -55.0160   35.6060 O   0  0  0  0  0  0  0  0  0  0  0  0
   16.8250  -53.1470   37.1090 C   0  0  2  0  0  0  0  0  0  0  0  0
   18.1900  -52.8090   37.6100 C   0  0  1  0  0  0  0  0  0  0  0  0
   17.8750  -51.7470   38.4950 O   0  0  0  0  0  0  0  0  0  0  0  0
   17.0430  -52.5020   39.3620 C   0  0  1  0  0  0  0  0  0  0  0  0
   15.9980  -53.0040   38.3960 C   0  0  2  0  0  0  0  0  0  0  0  0
   15.6190  -54.3820   38.7150 C   0  0  0  0  0  0  0  0  0  0  0  0
   15.1540  -54.7720   39.8140 O   0  0  0  0  0  0  0  0  0  0  0  0
   17.9400  -53.6320   39.6830 C   0  0  0  0  0  0  0  0  0  0  0  0
   18.6990  -53.8060   38.5770 C   0  0  0  0  0  0  0  0  0  0  0  0
   19.1660  -52.3910   36.5670 C   0  0  0  0  0  0  0  0  0  0  0  0
   20.2480  -51.7660   37.1720 O   0  0  0  0  0  0  0  0  0  0  0  0
   13.5240  -56.1500   38.4890 H   0  0  0  0  0  0  0  0  0  0  0  0
   17.0640  -57.3030   36.5010 H   0  0  0  0  0  0  0  0  0  0  0  0
   16.1980  -59.6360   36.3210 H   0  0  0  0  0  0  0  0  0  0  0  0
   14.0030  -60.2370   37.2150 H   0  0  0  0  0  0  0  0  0  0  0  0
   16.5260  -52.3840   36.3700 H   0  0  0  0  0  0  0  0  0  0  0  0
   16.6690  -51.9350   40.1960 H   0  0  0  0  0  0  0  0  0  0  0  0
   15.1520  -52.3260   38.2650 H   0  0  0  0  0  0  0  0  0  0  0  0
   18.0040  -54.2080   40.5810 H   0  0  0  0  0  0  0  0  0  0  0  0
   19.4980  -54.5240   38.4560 H   0  0  0  0  0  0  0  0  0  0  0  0
   18.6500  -51.6310   35.9240 H   0  0  0  0  0  0  0  0  0  0  0  0
   19.4770  -53.2070   35.8970 H   0  0  0  0  0  0  0  0  0  0  0  0
   19.9380  -51.0470   37.7680 H   0  0  0  0  0  0  0  0  0  0  0  0
  2  3  1  0  0  0  0
  2  1  1  0  0  0  0
  3 22  1  0  0  0  0
  4  8  1  0  0  0  0
  4  3  2  0  0  0  0
  5  4  1  0  0  0  0
  6  5  2  0  0  0  0
  6  7  1  0  0  0  0
  7  2  2  0  0  0  0
  8 16  1  0  0  0  0
  9 11  1  0  0  0  0
  9  8  1  0  0  0  0
 10  9  2  0  0  0  0
 11 26  1  6  0  0  0
 11 12  1  0  0  0  0
 11 15  1  0  0  0  0
 12 20  1  6  0  0  0
 12 13  1  0  0  0  0
 12 19  1  0  0  0  0
 13 14  1  0  0  0  0
 14 18  1  0  0  0  0
 14 27  1  1  0  0  0
 15 28  1  6  0  0  0
 15 16  1  0  0  0  0
 15 14  1  0  0  0  0
 16 17  2  0  0  0  0
 18 29  1  0  0  0  0
 19 18  2  0  0  0  0
 20 21  1  0  0  0  0
 21 33  1  0  0  0  0
 23  5  1  0  0  0  0
 24  6  1  0  0  0  0
 25  7  1  0  0  0  0
 30 19  1  0  0  0  0
 31 20  1  0  0  0  0
 32 20  1  0  0  0  0
M  END
>  <Pose>
1

>  <Score>
-5.54

$$$$
