
 OpenBabel03232204043D

 41 44  0  0  0  0  0  0  0  0999 V2000
   18.8280  -55.1620   35.4200 F   0  0  0  0  0  0  0  0  0  0  0  0
   18.1490  -54.5520   36.4220 C   0  0  0  0  0  0  0  0  0  0  0  0
   17.0520  -55.2020   36.9670 C   0  0  0  0  0  0  0  0  0  0  0  0
   16.3140  -54.6420   37.9860 C   0  0  0  0  0  0  0  0  0  0  0  0
   16.7050  -53.3990   38.4540 C   0  0  0  0  0  0  0  0  0  0  0  0
   17.7920  -52.7530   37.9150 C   0  0  0  0  0  0  0  0  0  0  0  0
   18.5250  -53.3170   36.8960 C   0  0  0  0  0  0  0  0  0  0  0  0
   15.7680  -52.6820   39.7530 Cl  0  0  0  0  0  0  0  0  0  0  0  0
   15.2240  -55.5090   38.3840 C   0  0  0  0  0  0  0  0  0  0  0  0
   14.3610  -55.3200   39.2710 O   0  0  0  0  0  0  0  0  0  0  0  0
   15.3280  -56.6810   37.5240 C   0  0  0  0  0  0  0  0  0  0  0  0
   14.5500  -57.6860   37.5550 O   0  0  0  0  0  0  0  0  0  0  0  0
   16.4430  -56.4760   36.6710 N   0  0  0  0  0  0  0  0  0  0  0  0
   16.9310  -57.3760   35.6470 C   0  0  0  0  0  0  0  0  0  0  0  0
   16.2560  -57.2190   34.3750 N   0  0  0  0  0  0  0  0  0  0  0  0
   17.1830  -56.9170   33.3390 C   0  0  0  0  0  0  0  0  0  0  0  0
   16.9820  -57.6540   32.0610 C   0  0  0  0  0  0  0  0  0  0  0  0
   16.5890  -59.0270   32.2410 N   0  0  0  0  0  0  0  0  0  0  0  0
   16.0700  -59.4340   33.5260 C   0  0  0  0  0  0  0  0  0  0  0  0
   15.3150  -58.2470   34.0860 C   0  0  0  0  0  0  0  0  0  0  0  0
   16.6920  -59.9860   31.2070 C   0  0  0  0  0  0  0  0  0  0  0  0
   15.6210  -60.3540   30.4860 N   0  0  0  0  0  0  0  0  0  0  0  0
   15.6930  -61.2660   29.4960 C   0  0  0  0  0  0  0  0  0  0  0  0
   16.8980  -61.8660   29.1850 C   0  0  0  0  0  0  0  0  0  0  0  0
   17.9730  -61.5010   29.9020 N   0  0  0  0  0  0  0  0  0  0  0  0
   17.9020  -60.5900   30.8910 C   0  0  0  0  0  0  0  0  0  0  0  0
   18.0780  -51.7670   38.3070 H   0  0  0  0  0  0  0  0  0  0  0  0
   19.3880  -52.7790   36.4860 H   0  0  0  0  0  0  0  0  0  0  0  0
   18.0130  -57.2310   35.5770 H   0  0  0  0  0  0  0  0  0  0  0  0
   16.7610  -58.4190   35.9880 H   0  0  0  0  0  0  0  0  0  0  0  0
   17.1100  -55.8200   33.1220 H   0  0  0  0  0  0  0  0  0  0  0  0
   18.2350  -57.0550   33.7160 H   0  0  0  0  0  0  0  0  0  0  0  0
   16.3140  -57.1130   31.3460 H   0  0  0  0  0  0  0  0  0  0  0  0
   17.9830  -57.6830   31.5390 H   0  0  0  0  0  0  0  0  0  0  0  0
   16.9680  -59.5840   34.1820 H   0  0  0  0  0  0  0  0  0  0  0  0
   15.4440  -60.3390   33.4660 H   0  0  0  0  0  0  0  0  0  0  0  0
   14.6880  -58.4650   34.9470 H   0  0  0  0  0  0  0  0  0  0  0  0
   14.6140  -57.8500   33.2950 H   0  0  0  0  0  0  0  0  0  0  0  0
   14.8200  -61.5570   28.9200 H   0  0  0  0  0  0  0  0  0  0  0  0
   16.9280  -62.5970   28.3830 H   0  0  0  0  0  0  0  0  0  0  0  0
   18.7650  -60.2910   31.4750 H   0  0  0  0  0  0  0  0  0  0  0  0
  1  2  1  0  0  0  0
  2  7  2  0  0  0  0
  2  3  1  0  0  0  0
  3  4  2  0  0  0  0
  4  9  1  0  0  0  0
  4  5  1  0  0  0  0
  5  8  1  0  0  0  0
  6 27  1  0  0  0  0
  6  5  2  0  0  0  0
  7  6  1  0  0  0  0
  9 10  2  0  0  0  0
 11 12  2  0  0  0  0
 11  9  1  0  0  0  0
 13  3  1  0  0  0  0
 13 11  1  0  0  0  0
 14 30  1  0  0  0  0
 14 13  1  0  0  0  0
 15 14  1  0  0  0  0
 16 32  1  0  0  0  0
 16 15  1  0  0  0  0
 17 18  1  0  0  0  0
 17 16  1  0  0  0  0
 18 19  1  0  0  0  0
 19 20  1  0  0  0  0
 19 35  1  0  0  0  0
 20 15  1  0  0  0  0
 20 37  1  0  0  0  0
 21 18  1  0  0  0  0
 22 21  2  0  0  0  0
 23 22  1  0  0  0  0
 24 23  2  0  0  0  0
 24 25  1  0  0  0  0
 25 26  2  0  0  0  0
 26 21  1  0  0  0  0
 26 41  1  0  0  0  0
 28  7  1  0  0  0  0
 29 14  1  0  0  0  0
 31 16  1  0  0  0  0
 33 17  1  0  0  0  0
 34 17  1  0  0  0  0
 36 19  1  0  0  0  0
 38 20  1  0  0  0  0
 39 23  1  0  0  0  0
 40 24  1  0  0  0  0
M  END
>  <Pose>
1

>  <Score>
-6.20

$$$$
