
 OpenBabel03232204043D

 41 44  0  0  0  0  0  0  0  0999 V2000
   16.7380  -53.2110   39.5060 Cl  0  0  0  0  0  0  0  0  0  0  0  0
   16.1550  -54.6660   38.7410 C   0  0  0  0  0  0  0  0  0  0  0  0
   14.9430  -55.2360   39.0960 C   0  0  0  0  0  0  0  0  0  0  0  0
   14.4670  -56.3890   38.5010 C   0  0  0  0  0  0  0  0  0  0  0  0
   15.2460  -56.9720   37.5180 C   0  0  0  0  0  0  0  0  0  0  0  0
   16.4520  -56.3900   37.1770 C   0  0  0  0  0  0  0  0  0  0  0  0
   16.9450  -55.2370   37.7620 C   0  0  0  0  0  0  0  0  0  0  0  0
   18.2560  -54.6530   37.3450 C   0  0  0  0  0  0  0  0  0  0  0  0
   18.0900  -53.8440   36.0940 C   0  0  0  0  0  0  0  0  0  0  0  0
   17.5980  -52.6690   36.2190 O   0  0  0  0  0  0  0  0  0  0  0  0
   18.4660  -54.3670   34.8290 N   0  0  0  0  0  0  0  0  0  0  0  0
   19.8370  -54.3760   34.4600 C   0  0  0  0  0  0  0  0  0  0  0  0
   19.9520  -53.7950   33.0450 C   0  0  0  0  0  0  0  0  0  0  0  0
   19.1920  -54.8040   32.2110 C   0  0  0  0  0  0  0  0  0  0  0  0
   18.0020  -55.3150   32.6850 C   0  0  0  0  0  0  0  0  0  0  0  0
   17.3400  -56.2320   31.9240 N   0  0  0  0  0  0  0  0  0  0  0  0
   17.7980  -56.6550   30.7350 C   0  0  0  0  0  0  0  0  0  0  0  0
   18.9610  -56.1470   30.2880 N   0  0  0  0  0  0  0  0  0  0  0  0
   19.6710  -55.2250   31.0040 C   0  0  0  0  0  0  0  0  0  0  0  0
   20.8660  -54.7020   30.5450 O   0  0  0  0  0  0  0  0  0  0  0  0
   17.4420  -54.8760   33.9790 C   0  0  0  0  0  0  0  0  0  0  0  0
   14.7690  -58.1220   36.9240 O   0  0  0  0  0  0  0  0  0  0  0  0
   13.4210  -58.5460   36.9450 C   0  0  0  0  0  0  0  0  0  0  0  0
   12.5860  -57.8900   37.9870 C   0  0  0  0  0  0  0  0  0  0  0  0
   13.2750  -56.9930   38.8150 O   0  0  0  0  0  0  0  0  0  0  0  0
   14.3200  -54.8000   39.8570 H   0  0  0  0  0  0  0  0  0  0  0  0
   17.0580  -56.8560   36.4030 H   0  0  0  0  0  0  0  0  0  0  0  0
   18.9380  -55.5120   37.1640 H   0  0  0  0  0  0  0  0  0  0  0  0
   18.7130  -54.0460   38.1270 H   0  0  0  0  0  0  0  0  0  0  0  0
   20.2590  -55.4220   34.4130 H   0  0  0  0  0  0  0  0  0  0  0  0
   20.5020  -53.8340   35.1600 H   0  0  0  0  0  0  0  0  0  0  0  0
   20.9880  -53.7030   32.7170 H   0  0  0  0  0  0  0  0  0  0  0  0
   19.4340  -52.8170   33.0600 H   0  0  0  0  0  0  0  0  0  0  0  0
   17.2570  -57.3890   30.1390 H   0  0  0  0  0  0  0  0  0  0  0  0
   20.8350  -53.8410   30.0110 H   0  0  0  0  0  0  0  0  0  0  0  0
   16.6240  -54.1180   33.8300 H   0  0  0  0  0  0  0  0  0  0  0  0
   16.9210  -55.7650   34.4110 H   0  0  0  0  0  0  0  0  0  0  0  0
   12.9920  -58.2510   35.9410 H   0  0  0  0  0  0  0  0  0  0  0  0
   13.3680  -59.6520   36.9540 H   0  0  0  0  0  0  0  0  0  0  0  0
   11.7190  -57.3280   37.5580 H   0  0  0  0  0  0  0  0  0  0  0  0
   12.1190  -58.7020   38.6120 H   0  0  0  0  0  0  0  0  0  0  0  0
  2  3  1  0  0  0  0
  2  1  1  0  0  0  0
  3 26  1  0  0  0  0
  4 25  1  0  0  0  0
  4  3  2  0  0  0  0
  5  4  1  0  0  0  0
  6  5  2  0  0  0  0
  6  7  1  0  0  0  0
  7  2  2  0  0  0  0
  8  7  1  0  0  0  0
  8 29  1  0  0  0  0
  9 10  2  0  0  0  0
  9  8  1  0  0  0  0
 11  9  1  0  0  0  0
 12 11  1  0  0  0  0
 12 31  1  0  0  0  0
 13 33  1  0  0  0  0
 13 12  1  0  0  0  0
 14 15  2  0  0  0  0
 14 13  1  0  0  0  0
 15 21  1  0  0  0  0
 16 15  1  0  0  0  0
 17 16  2  0  0  0  0
 18 17  1  0  0  0  0
 18 19  2  0  0  0  0
 19 14  1  0  0  0  0
 20 19  1  0  0  0  0
 21 37  1  0  0  0  0
 21 11  1  0  0  0  0
 22 23  1  0  0  0  0
 22  5  1  0  0  0  0
 23 39  1  0  0  0  0
 23 24  1  0  0  0  0
 24 41  1  0  0  0  0
 24 25  1  0  0  0  0
 27  6  1  0  0  0  0
 28  8  1  0  0  0  0
 30 12  1  0  0  0  0
 32 13  1  0  0  0  0
 34 17  1  0  0  0  0
 35 20  1  0  0  0  0
 36 21  1  0  0  0  0
 38 23  1  0  0  0  0
 40 24  1  0  0  0  0
M  END
>  <Pose>
1

>  <Score>
-6.28

$$$$
