
 OpenBabel03232204043D

 36 39  0  0  1  0  0  0  0  0999 V2000
   13.2900  -60.2620   36.3360 Cl  0  0  0  0  0  0  0  0  0  0  0  0
   13.8570  -58.7700   37.0560 C   0  0  0  0  0  0  0  0  0  0  0  0
   14.9450  -58.0750   36.5700 C   0  0  0  0  0  0  0  0  0  0  0  0
   15.4040  -56.8990   37.1280 C   0  0  2  0  0  0  0  0  0  0  0  0
   14.7280  -56.4080   38.2280 C   0  0  0  0  0  0  0  0  0  0  0  0
   13.6380  -57.0940   38.7240 C   0  0  0  0  0  0  0  0  0  0  0  0
   13.1800  -58.2700   38.1650 C   0  0  0  0  0  0  0  0  0  0  0  0
   15.2010  -55.1480   38.8430 C   0  0  0  0  0  0  0  0  0  0  0  0
   14.7690  -54.4950   39.8380 N   0  0  0  0  0  0  0  0  0  0  0  0
   15.5290  -53.2950   40.1170 C   0  0  0  0  0  0  0  0  0  0  0  0
   16.5970  -53.2670   39.0730 C   0  0  0  0  0  0  0  0  0  0  0  0
   16.3260  -54.4680   38.3060 N   0  0  0  0  0  0  0  0  0  0  0  0
   16.9680  -55.0430   37.1680 C   0  0  0  0  0  0  0  0  0  0  0  0
   18.0340  -54.6290   36.4590 N   0  0  0  0  0  0  0  0  0  0  0  0
   18.2980  -55.4670   35.4710 N   0  0  0  0  0  0  0  0  0  0  0  0
   17.3580  -56.4380   35.5720 C   0  0  0  0  0  0  0  0  0  0  0  0
   17.2950  -57.4140   34.7930 O   0  0  0  0  0  0  0  0  0  0  0  0
   16.5320  -56.1990   36.6040 N   0  0  0  0  0  0  0  0  0  0  0  0
   19.3650  -55.3660   34.4930 C   0  0  0  0  0  0  0  0  0  0  0  0
   18.8950  -54.4890   33.3240 C   0  0  0  0  0  0  0  0  0  0  0  0
   20.0640  -53.8680   32.6510 C   0  0  0  0  0  0  0  0  0  0  0  0
   21.0130  -53.3070   33.2530 O   0  0  0  0  0  0  0  0  0  0  0  0
   20.1120  -53.9090   31.2340 N   0  0  0  0  0  0  0  0  0  0  0  0
   15.4490  -58.4890   35.7080 H   0  0  0  0  0  0  0  0  0  0  0  0
   13.1320  -56.6840   39.5840 H   0  0  0  0  0  0  0  0  0  0  0  0
   12.3240  -58.8130   38.5530 H   0  0  0  0  0  0  0  0  0  0  0  0
   15.9460  -53.3020   41.1440 H   0  0  0  0  0  0  0  0  0  0  0  0
   14.8130  -52.4420   40.0000 H   0  0  0  0  0  0  0  0  0  0  0  0
   17.6210  -53.2440   39.4900 H   0  0  0  0  0  0  0  0  0  0  0  0
   16.4590  -52.3600   38.4180 H   0  0  0  0  0  0  0  0  0  0  0  0
   20.2120  -54.8060   34.9510 H   0  0  0  0  0  0  0  0  0  0  0  0
   19.6790  -56.3390   34.1180 H   0  0  0  0  0  0  0  0  0  0  0  0
   18.2080  -53.7000   33.6810 H   0  0  0  0  0  0  0  0  0  0  0  0
   18.3690  -55.1060   32.5540 H   0  0  0  0  0  0  0  0  0  0  0  0
   20.9910  -53.8600   30.6890 H   0  0  0  0  0  0  0  0  0  0  0  0
   19.2100  -53.9920   30.7200 H   0  0  0  0  0  0  0  0  0  0  0  0
  1  2  1  0  0  0  0
  2  7  1  0  0  0  0
  3  2  2  0  0  0  0
  4  3  1  6  0  0  0
  4  5  1  0  0  0  0
  5  6  1  0  0  0  0
  5  8  2  0  0  0  0
  6 25  1  0  0  0  0
  7 26  1  0  0  0  0
  7  6  2  0  0  0  0
  8  9  1  0  0  0  0
  9 10  1  0  0  0  0
 10 27  1  0  0  0  0
 11 29  1  0  0  0  0
 11 10  1  0  0  0  0
 12  8  1  0  0  0  0
 12 11  1  0  0  0  0
 13 12  1  0  0  0  0
 14 13  2  0  0  0  0
 15 16  1  0  0  0  0
 15 14  1  0  0  0  0
 16 18  1  0  0  0  0
 17 16  2  0  0  0  0
 18  4  1  0  0  0  0
 18 13  1  0  0  0  0
 19 31  1  0  0  0  0
 19 15  1  0  0  0  0
 20 33  1  0  0  0  0
 20 19  1  0  0  0  0
 21 22  2  0  0  0  0
 21 20  1  0  0  0  0
 23 21  1  0  0  0  0
 24  3  1  0  0  0  0
 28 10  1  0  0  0  0
 30 11  1  0  0  0  0
 32 19  1  0  0  0  0
 34 20  1  0  0  0  0
 35 23  1  0  0  0  0
 36 23  1  0  0  0  0
M  END
>  <Pose>
1

>  <Score>
-6.82

$$$$
