
 OpenBabel03232204043D

 46 49  0  0  1  0  0  0  0  0999 V2000
   20.3060  -52.0870   34.8480 Cl  0  0  0  0  0  0  0  0  0  0  0  0
   19.2250  -53.3030   35.5050 C   0  0  0  0  0  0  0  0  0  0  0  0
   18.4730  -54.1080   34.6730 C   0  0  0  0  0  0  0  0  0  0  0  0
   17.6080  -55.0790   35.1960 C   0  0  0  0  0  0  0  0  0  0  0  0
   17.5520  -55.1820   36.5620 C   0  0  0  0  0  0  0  0  0  0  0  0
   18.3170  -54.3610   37.4030 C   0  0  0  0  0  0  0  0  0  0  0  0
   19.1640  -53.4100   36.8790 C   0  0  0  0  0  0  0  0  0  0  0  0
   16.7020  -56.1390   37.1080 O   0  0  0  0  0  0  0  0  0  0  0  0
   15.9170  -56.9830   36.3400 C   0  0  0  0  0  0  0  0  0  0  0  0
   15.9750  -56.8770   34.9590 C   0  0  0  0  0  0  0  0  0  0  0  0
   16.8270  -55.9100   34.2590 C   0  0  2  0  0  0  0  0  0  0  0  0
   17.7740  -56.6460   33.3590 C   0  0  0  0  0  0  0  0  0  0  0  0
   18.4610  -57.7520   33.8090 C   0  0  0  0  0  0  0  0  0  0  0  0
   19.3190  -58.4110   32.9830 N   0  0  0  0  0  0  0  0  0  0  0  0
   19.5100  -57.9850   31.7090 C   0  0  0  0  0  0  0  0  0  0  0  0
   20.3140  -58.6200   30.9710 O   0  0  0  0  0  0  0  0  0  0  0  0
   18.8550  -56.9100   31.2430 N   0  0  0  0  0  0  0  0  0  0  0  0
   18.0050  -56.2550   32.0550 C   0  0  0  0  0  0  0  0  0  0  0  0
   17.4080  -55.2640   31.6100 O   0  0  0  0  0  0  0  0  0  0  0  0
   19.0850  -56.4790   29.8670 C   0  0  0  0  0  0  0  0  0  0  0  0
   20.0130  -59.5770   33.5180 C   0  0  0  0  0  0  0  0  0  0  0  0
   18.2710  -58.1850   35.0920 O   0  0  0  0  0  0  0  0  0  0  0  0
   15.1750  -57.7410   34.2380 C   0  0  0  0  0  0  0  0  0  0  0  0
   15.1860  -57.6910   32.9670 O   0  0  0  0  0  0  0  0  0  0  0  0
   14.3620  -58.6570   34.7860 N   0  0  0  0  0  0  0  0  0  0  0  0
   14.3390  -58.7240   36.1400 C   0  0  0  0  0  0  0  0  0  0  0  0
   13.5690  -59.5910   36.6340 O   0  0  0  0  0  0  0  0  0  0  0  0
   15.1010  -57.9020   36.8840 N   0  0  0  0  0  0  0  0  0  0  0  0
   15.0200  -58.0350   38.3240 C   0  0  0  0  0  0  0  0  0  0  0  0
   13.5360  -59.5510   33.9740 C   0  0  0  0  0  0  0  0  0  0  0  0
   18.5330  -54.0100   33.5890 H   0  0  0  0  0  0  0  0  0  0  0  0
   18.2210  -54.5020   38.4770 H   0  0  0  0  0  0  0  0  0  0  0  0
   19.7460  -52.7870   37.5440 H   0  0  0  0  0  0  0  0  0  0  0  0
   16.1800  -55.2960   33.5950 H   0  0  0  0  0  0  0  0  0  0  0  0
   18.7860  -55.4470   29.6890 H   0  0  0  0  0  0  0  0  0  0  0  0
   18.4690  -57.1730   29.2340 H   0  0  0  0  0  0  0  0  0  0  0  0
   20.1450  -56.6960   29.6070 H   0  0  0  0  0  0  0  0  0  0  0  0
   20.1440  -59.4250   34.6120 H   0  0  0  0  0  0  0  0  0  0  0  0
   19.3480  -60.4770   33.3710 H   0  0  0  0  0  0  0  0  0  0  0  0
   20.9770  -59.7300   33.0000 H   0  0  0  0  0  0  0  0  0  0  0  0
   15.6960  -58.8690   38.6380 H   0  0  0  0  0  0  0  0  0  0  0  0
   15.3350  -57.1180   38.8460 H   0  0  0  0  0  0  0  0  0  0  0  0
   13.9740  -58.2570   38.6420 H   0  0  0  0  0  0  0  0  0  0  0  0
   14.0840  -60.5360   33.9920 H   0  0  0  0  0  0  0  0  0  0  0  0
   12.5160  -59.6340   34.3410 H   0  0  0  0  0  0  0  0  0  0  0  0
   13.5610  -59.2120   32.9360 H   0  0  0  0  0  0  0  0  0  0  0  0
  1  2  1  0  0  0  0
  2  7  1  0  0  0  0
  3  4  1  0  0  0  0
  3  2  2  0  0  0  0
  4  5  2  0  0  0  0
  5  8  1  0  0  0  0
  5  6  1  0  0  0  0
  6 32  1  0  0  0  0
  7  6  2  0  0  0  0
  7 33  1  0  0  0  0
  9 28  1  0  0  0  0
  9  8  1  0  0  0  0
 10  9  2  0  0  0  0
 11 34  1  6  0  0  0
 11 10  1  0  0  0  0
 11  4  1  0  0  0  0
 12 13  1  0  0  0  0
 12 11  1  0  0  0  0
 13 22  2  0  0  0  0
 14 21  1  0  0  0  0
 14 13  1  0  0  0  0
 15 14  1  0  0  0  0
 16 15  2  0  0  0  0
 17 15  1  0  0  0  0
 17 18  1  0  0  0  0
 18 12  1  0  0  0  0
 19 18  2  0  0  0  0
 20 17  1  0  0  0  0
 21 38  1  0  0  0  0
 23 25  1  0  0  0  0
 23 10  1  0  0  0  0
 24 23  2  0  0  0  0
 25 26  1  0  0  0  0
 26 27  2  0  0  0  0
 26 28  1  0  0  0  0
 28 29  1  0  0  0  0
 29 41  1  0  0  0  0
 29 43  1  0  0  0  0
 29 42  1  0  0  0  0
 30 44  1  0  0  0  0
 30 45  1  0  0  0  0
 30 25  1  0  0  0  0
 31  3  1  0  0  0  0
 35 20  1  0  0  0  0
 36 20  1  0  0  0  0
 37 20  1  0  0  0  0
 39 21  1  0  0  0  0
 40 21  1  0  0  0  0
 46 30  1  0  0  0  0
M  END
>  <Pose>
1

>  <Score>
-5.28

$$$$
