
 OpenBabel03232204043D

 50 53  0  0  1  0  0  0  0  0999 V2000
   15.1050  -56.0100   38.7450 S   0  0  0  0  0  0  0  0  0  0  0  0
   13.6480  -55.5710   38.7390 O   0  0  0  0  0  0  0  0  0  0  0  0
   15.2670  -56.7260   40.0850 O   0  0  0  0  0  0  0  0  0  0  0  0
   16.1430  -54.6990   38.6940 N   0  0  0  0  0  0  0  0  0  0  0  0
   15.5910  -53.4210   38.5830 C   0  0  0  0  0  0  0  0  0  0  0  0
   16.6180  -52.3040   38.8180 C   0  0  0  0  0  0  0  0  0  0  0  0
   17.8920  -52.6320   38.2510 N   0  0  0  0  0  0  0  0  0  0  0  0
   18.4050  -53.9690   38.4560 C   0  0  0  0  0  0  0  0  0  0  0  0
   17.3490  -54.9210   37.9310 C   0  0  0  0  0  0  0  0  0  0  0  0
   18.6100  -51.6780   37.5200 C   0  0  0  0  0  0  0  0  0  0  0  0
   18.2140  -50.4860   37.4700 O   0  0  0  0  0  0  0  0  0  0  0  0
   19.8630  -52.0160   36.7730 C   0  0  0  0  0  0  0  0  0  0  0  0
   20.4340  -50.8560   35.9920 C   0  0  0  0  0  0  0  0  0  0  0  0
   19.5990  -51.3320   34.8050 C   0  0  0  0  0  0  0  0  0  0  0  0
   19.5650  -52.7120   35.4690 C   0  0  0  0  0  0  0  0  0  0  0  0
   15.3120  -57.2250   37.5030 C   0  0  0  0  0  0  0  0  0  0  0  0
   16.5120  -57.2400   36.7640 C   0  0  0  0  0  0  0  0  0  0  0  0
   16.7100  -58.1320   35.7360 C   0  0  0  0  0  0  0  0  0  0  0  0
   15.7610  -59.0570   35.3650 C   0  0  0  0  0  0  0  0  0  0  0  0
   14.5900  -59.0490   36.0830 C   0  0  0  0  0  0  0  0  0  0  0  0
   14.3690  -58.1480   37.1360 C   0  0  0  0  0  0  0  0  0  0  0  0
   12.8840  -58.2520   38.0490 Cl  0  0  0  0  0  0  0  0  0  0  0  0
   16.0260  -59.9460   34.2960 N   0  0  0  0  0  0  0  0  0  0  0  0
   17.2510  -59.9240   33.5740 C   0  0  0  0  0  0  0  0  0  0  0  0
   17.6460  -60.8260   32.8100 O   0  0  0  0  0  0  0  0  0  0  0  0
   18.1010  -58.7200   33.7670 C   0  0  2  0  0  0  0  0  0  0  0  0
   17.9080  -58.1260   35.0210 O   0  0  0  0  0  0  0  0  0  0  0  0
   17.8140  -57.6850   32.7020 C   0  0  0  0  0  0  0  0  0  0  0  0
   14.8530  -53.2610   39.3930 H   0  0  0  0  0  0  0  0  0  0  0  0
   15.1220  -53.2350   37.6070 H   0  0  0  0  0  0  0  0  0  0  0  0
   16.2250  -51.3870   38.3550 H   0  0  0  0  0  0  0  0  0  0  0  0
   16.7620  -52.1900   39.9100 H   0  0  0  0  0  0  0  0  0  0  0  0
   19.3870  -54.1290   37.9870 H   0  0  0  0  0  0  0  0  0  0  0  0
   18.4780  -54.1340   39.5680 H   0  0  0  0  0  0  0  0  0  0  0  0
   17.1580  -54.7010   36.8600 H   0  0  0  0  0  0  0  0  0  0  0  0
   17.6650  -55.9570   38.0760 H   0  0  0  0  0  0  0  0  0  0  0  0
   20.6110  -52.5330   37.4210 H   0  0  0  0  0  0  0  0  0  0  0  0
   21.5130  -50.9230   35.8020 H   0  0  0  0  0  0  0  0  0  0  0  0
   20.1160  -49.8460   36.3590 H   0  0  0  0  0  0  0  0  0  0  0  0
   18.6060  -50.8570   34.7580 H   0  0  0  0  0  0  0  0  0  0  0  0
   20.1180  -51.2940   33.8440 H   0  0  0  0  0  0  0  0  0  0  0  0
   20.3860  -53.3830   35.1380 H   0  0  0  0  0  0  0  0  0  0  0  0
   18.5900  -53.2090   35.4080 H   0  0  0  0  0  0  0  0  0  0  0  0
   17.2620  -56.5220   37.0430 H   0  0  0  0  0  0  0  0  0  0  0  0
   13.8170  -59.7540   35.8300 H   0  0  0  0  0  0  0  0  0  0  0  0
   15.3000  -60.6470   34.0190 H   0  0  0  0  0  0  0  0  0  0  0  0
   19.1530  -59.0330   33.6780 H   0  0  0  0  0  0  0  0  0  0  0  0
   17.2430  -58.1870   31.8700 H   0  0  0  0  0  0  0  0  0  0  0  0
   18.7650  -57.2730   32.3220 H   0  0  0  0  0  0  0  0  0  0  0  0
   17.1630  -56.8910   33.1150 H   0  0  0  0  0  0  0  0  0  0  0  0
  1  3  2  0  0  0  0
  2  1  2  0  0  0  0
  4  1  1  0  0  0  0
  5  4  1  0  0  0  0
  5  6  1  0  0  0  0
  5 29  1  0  0  0  0
  6 32  1  0  0  0  0
  7  8  1  0  0  0  0
  7  6  1  0  0  0  0
  8 34  1  0  0  0  0
  9 36  1  0  0  0  0
  9  8  1  0  0  0  0
  9  4  1  0  0  0  0
 10  7  1  0  0  0  0
 11 10  2  0  0  0  0
 12 37  1  0  0  0  0
 12 10  1  0  0  0  0
 13 39  1  0  0  0  0
 13 12  1  0  0  0  0
 14 15  1  0  0  0  0
 14 13  1  0  0  0  0
 15 12  1  0  0  0  0
 16  1  1  0  0  0  0
 17 44  1  0  0  0  0
 17 16  2  0  0  0  0
 18 17  1  0  0  0  0
 19 18  2  0  0  0  0
 19 20  1  0  0  0  0
 20 21  2  0  0  0  0
 21 16  1  0  0  0  0
 21 22  1  0  0  0  0
 23 19  1  0  0  0  0
 24 26  1  0  0  0  0
 24 23  1  0  0  0  0
 25 24  2  0  0  0  0
 26 47  1  6  0  0  0
 26 27  1  0  0  0  0
 27 18  1  0  0  0  0
 28 50  1  0  0  0  0
 28 26  1  0  0  0  0
 30  5  1  0  0  0  0
 31  6  1  0  0  0  0
 33  8  1  0  0  0  0
 35  9  1  0  0  0  0
 38 13  1  0  0  0  0
 40 14  1  0  0  0  0
 41 14  1  0  0  0  0
 42 15  1  0  0  0  0
 43 15  1  0  0  0  0
 45 20  1  0  0  0  0
 46 23  1  0  0  0  0
 48 28  1  0  0  0  0
 49 28  1  0  0  0  0
M  END
>  <Pose>
1

>  <Score>
-6.50

$$$$
