
 OpenBabel03232204043D

 37 40  0  0  1  0  0  0  0  0999 V2000
   11.5720  -59.6080   36.9750 Cl  0  0  0  0  0  0  0  0  0  0  0  0
   13.2010  -58.9390   36.9310 C   0  0  0  0  0  0  0  0  0  0  0  0
   13.4730  -57.7100   37.5250 C   0  0  0  0  0  0  0  0  0  0  0  0
   14.7610  -57.2320   37.4670 C   0  0  0  0  0  0  0  0  0  0  0  0
   15.7730  -57.9640   36.8270 C   0  0  0  0  0  0  0  0  0  0  0  0
   15.5000  -59.1670   36.2480 C   0  0  0  0  0  0  0  0  0  0  0  0
   14.2040  -59.6510   36.3070 C   0  0  0  0  0  0  0  0  0  0  0  0
   15.1340  -55.9850   38.0420 N   0  0  0  0  0  0  0  0  0  0  0  0
   14.8220  -55.4030   39.3020 C   0  0  0  0  0  0  0  0  0  0  0  0
   14.4560  -56.0450   40.3020 O   0  0  0  0  0  0  0  0  0  0  0  0
   15.0000  -53.9440   39.2200 C   0  0  1  0  0  0  0  0  0  0  0  0
   15.4810  -53.2950   40.3130 O   0  0  0  0  0  0  0  0  0  0  0  0
   16.2650  -52.3040   39.7530 N   0  0  0  0  0  0  0  0  0  0  0  0
   16.9340  -52.8560   38.6160 C   0  0  0  0  0  0  0  0  0  0  0  0
   16.1630  -53.8830   38.2740 C   0  0  0  0  0  0  0  0  0  0  0  0
   15.9900  -55.0170   37.3800 C   0  0  0  0  0  0  0  0  0  0  0  0
   16.5140  -55.0930   36.2390 O   0  0  0  0  0  0  0  0  0  0  0  0
   18.1330  -52.3860   37.9510 C   0  0  0  0  0  0  0  0  0  0  0  0
   18.2490  -51.0730   37.4850 C   0  0  0  0  0  0  0  0  0  0  0  0
   19.4450  -50.9070   36.9030 N   0  0  0  0  0  0  0  0  0  0  0  0
   20.1030  -52.0650   36.9760 N   0  0  0  0  0  0  0  0  0  0  0  0
   19.3190  -52.9680   37.6080 C   0  0  0  0  0  0  0  0  0  0  0  0
   19.6770  -54.3840   37.8760 C   0  0  0  0  0  0  0  0  0  0  0  0
   20.0040  -49.7140   36.2760 C   0  0  0  0  0  0  0  0  0  0  0  0
   12.6930  -57.1280   38.0300 H   0  0  0  0  0  0  0  0  0  0  0  0
   16.7830  -57.5470   36.8040 H   0  0  0  0  0  0  0  0  0  0  0  0
   16.3120  -59.7270   35.7460 H   0  0  0  0  0  0  0  0  0  0  0  0
   13.9490  -60.6090   35.8510 H   0  0  0  0  0  0  0  0  0  0  0  0
   14.1060  -53.4670   38.7620 H   0  0  0  0  0  0  0  0  0  0  0  0
   16.3210  -51.3400   40.1190 H   0  0  0  0  0  0  0  0  0  0  0  0
   17.5060  -50.2980   37.5680 H   0  0  0  0  0  0  0  0  0  0  0  0
   20.1770  -54.4570   38.8470 H   0  0  0  0  0  0  0  0  0  0  0  0
   20.4230  -54.7210   37.1180 H   0  0  0  0  0  0  0  0  0  0  0  0
   18.8110  -55.0580   37.7760 H   0  0  0  0  0  0  0  0  0  0  0  0
   20.2370  -49.9040   35.2050 H   0  0  0  0  0  0  0  0  0  0  0  0
   19.2340  -48.8930   36.2380 H   0  0  0  0  0  0  0  0  0  0  0  0
   20.9340  -49.3780   36.7720 H   0  0  0  0  0  0  0  0  0  0  0  0
  2  1  1  0  0  0  0
  2  3  1  0  0  0  0
  3 25  1  0  0  0  0
  4  3  2  0  0  0  0
  4  8  1  0  0  0  0
  5  4  1  0  0  0  0
  6  7  1  0  0  0  0
  6  5  2  0  0  0  0
  7  2  2  0  0  0  0
  8  9  1  0  0  0  0
  9 10  2  0  0  0  0
 11 29  1  6  0  0  0
 11  9  1  0  0  0  0
 11 12  1  0  0  0  0
 13 30  1  0  0  0  0
 13 12  1  0  0  0  0
 14 13  1  0  0  0  0
 15 14  2  0  0  0  0
 15 11  1  0  0  0  0
 16  8  1  0  0  0  0
 16 15  1  0  0  0  0
 17 16  2  0  0  0  0
 18 14  1  0  0  0  0
 19 31  1  0  0  0  0
 19 18  2  0  0  0  0
 20 21  1  0  0  0  0
 20 19  1  0  0  0  0
 21 22  2  0  0  0  0
 22 23  1  0  0  0  0
 22 18  1  0  0  0  0
 23 32  1  0  0  0  0
 24 37  1  0  0  0  0
 24 20  1  0  0  0  0
 26  5  1  0  0  0  0
 27  6  1  0  0  0  0
 28  7  1  0  0  0  0
 33 23  1  0  0  0  0
 34 23  1  0  0  0  0
 35 24  1  0  0  0  0
 36 24  1  0  0  0  0
M  END
>  <Pose>
1

>  <Score>
-6.31

$$$$
