
 OpenBabel03232204043D

 50 53  0  0  1  0  0  0  0  0999 V2000
   15.7500  -53.3540   39.7360 Cl  0  0  0  0  0  0  0  0  0  0  0  0
   16.1630  -54.2960   38.3060 C   0  0  0  0  0  0  0  0  0  0  0  0
   15.6340  -55.5950   38.1940 C   0  0  0  0  0  0  0  0  0  0  0  0
   15.9510  -56.3180   37.0830 C   0  0  0  0  0  0  0  0  0  0  0  0
   16.7740  -55.8110   36.0870 C   0  0  0  0  0  0  0  0  0  0  0  0
   17.2780  -54.5380   36.2260 C   0  0  0  0  0  0  0  0  0  0  0  0
   16.9790  -53.7700   37.3290 C   0  0  0  0  0  0  0  0  0  0  0  0
   18.1680  -54.0120   35.1310 C   0  0  0  0  0  0  0  0  0  0  0  0
   15.1690  -57.5910   37.1490 C   0  0  2  0  0  0  0  0  0  0  0  0
   15.8410  -58.7330   36.6730 N   0  0  0  0  0  0  0  0  0  0  0  0
   15.5700  -58.8180   35.2660 C   0  0  2  0  0  0  0  0  0  0  0  0
   14.5140  -57.8500   34.9160 C   0  0  2  0  0  0  0  0  0  0  0  0
   13.9430  -57.5080   36.2950 C   0  0  1  0  0  0  0  0  0  0  0  0
   13.0160  -58.6080   36.4900 C   0  0  0  0  0  0  0  0  0  0  0  0
   12.6870  -59.2900   37.4850 O   0  0  0  0  0  0  0  0  0  0  0  0
   12.4390  -58.8400   35.1780 N   0  0  0  0  0  0  0  0  0  0  0  0
   13.3450  -58.3500   34.2010 C   0  0  0  0  0  0  0  0  0  0  0  0
   13.1510  -58.3580   32.9780 O   0  0  0  0  0  0  0  0  0  0  0  0
   11.1720  -59.4450   34.8620 C   0  0  0  0  0  0  0  0  0  0  0  0
   11.2340  -60.6790   34.0410 C   0  0  0  0  0  0  0  0  0  0  0  0
   11.0560  -61.8730   34.6710 O   0  0  0  0  0  0  0  0  0  0  0  0
   10.3770  -62.8280   33.9440 C   0  0  0  0  0  0  0  0  0  0  0  0
   15.3290  -60.2460   34.8140 C   0  0  1  0  0  0  0  0  0  0  0  0
   14.2480  -60.8580   35.3750 O   0  0  0  0  0  0  0  0  0  0  0  0
   15.4340  -60.3160   33.3260 C   0  0  0  0  0  0  0  0  0  0  0  0
   14.7480  -57.6560   38.5470 C   0  0  0  0  0  0  0  0  0  0  0  0
   14.3180  -58.6250   39.2480 O   0  0  0  0  0  0  0  0  0  0  0  0
   14.8860  -56.3750   39.1180 N   0  0  0  0  0  0  0  0  0  0  0  0
   17.0600  -56.3630   35.1920 H   0  0  0  0  0  0  0  0  0  0  0  0
   17.3930  -52.7600   37.4110 H   0  0  0  0  0  0  0  0  0  0  0  0
   17.7050  -54.2650   34.1560 H   0  0  0  0  0  0  0  0  0  0  0  0
   19.1570  -54.5540   35.1430 H   0  0  0  0  0  0  0  0  0  0  0  0
   18.3010  -52.9300   35.1990 H   0  0  0  0  0  0  0  0  0  0  0  0
   16.8720  -58.7160   36.8670 H   0  0  0  0  0  0  0  0  0  0  0  0
   16.5050  -58.5300   34.6880 H   0  0  0  0  0  0  0  0  0  0  0  0
   14.8800  -56.8730   34.5180 H   0  0  0  0  0  0  0  0  0  0  0  0
   13.4760  -56.5040   36.2900 H   0  0  0  0  0  0  0  0  0  0  0  0
   10.6450  -59.7010   35.8100 H   0  0  0  0  0  0  0  0  0  0  0  0
   10.5260  -58.6770   34.3710 H   0  0  0  0  0  0  0  0  0  0  0  0
   12.2580  -60.7050   33.5700 H   0  0  0  0  0  0  0  0  0  0  0  0
   10.5470  -60.6020   33.1630 H   0  0  0  0  0  0  0  0  0  0  0  0
   10.8680  -63.0800   33.0020 H   0  0  0  0  0  0  0  0  0  0  0  0
   10.3190  -63.7460   34.5680 H   0  0  0  0  0  0  0  0  0  0  0  0
    9.3490  -62.4210   33.7490 H   0  0  0  0  0  0  0  0  0  0  0  0
   16.2330  -60.8030   35.2320 H   0  0  0  0  0  0  0  0  0  0  0  0
   14.4020  -61.2150   36.2860 H   0  0  0  0  0  0  0  0  0  0  0  0
   16.2410  -61.0610   33.0460 H   0  0  0  0  0  0  0  0  0  0  0  0
   14.5240  -60.7350   32.8430 H   0  0  0  0  0  0  0  0  0  0  0  0
   15.7550  -59.3430   32.9340 H   0  0  0  0  0  0  0  0  0  0  0  0
   14.5320  -56.0080   40.0370 H   0  0  0  0  0  0  0  0  0  0  0  0
  2  1  1  0  0  0  0
  3  2  1  0  0  0  0
  3 28  1  0  0  0  0
  4  3  2  0  0  0  0
  5  6  2  0  0  0  0
  5  4  1  0  0  0  0
  6  7  1  0  0  0  0
  7 30  1  0  0  0  0
  7  2  2  0  0  0  0
  8 32  1  0  0  0  0
  8 33  1  0  0  0  0
  8  6  1  0  0  0  0
  9  4  1  6  0  0  0
  9 26  1  0  0  0  0
 10 34  1  0  0  0  0
 10  9  1  0  0  0  0
 11 35  1  6  0  0  0
 11 10  1  0  0  0  0
 12 36  1  6  0  0  0
 12 11  1  0  0  0  0
 12 13  1  0  0  0  0
 13 37  1  1  0  0  0
 13 14  1  0  0  0  0
 13  9  1  0  0  0  0
 14 15  2  0  0  0  0
 16 14  1  0  0  0  0
 17 12  1  0  0  0  0
 17 16  1  0  0  0  0
 18 17  2  0  0  0  0
 19 16  1  0  0  0  0
 19 38  1  0  0  0  0
 20 21  1  0  0  0  0
 20 19  1  0  0  0  0
 22 43  1  0  0  0  0
 22 21  1  0  0  0  0
 23 45  1  1  0  0  0
 23 11  1  0  0  0  0
 23 24  1  0  0  0  0
 24 46  1  0  0  0  0
 25 23  1  0  0  0  0
 26 28  1  0  0  0  0
 26 27  2  0  0  0  0
 28 50  1  0  0  0  0
 29  5  1  0  0  0  0
 31  8  1  0  0  0  0
 39 19  1  0  0  0  0
 40 20  1  0  0  0  0
 41 20  1  0  0  0  0
 42 22  1  0  0  0  0
 44 22  1  0  0  0  0
 47 25  1  0  0  0  0
 48 25  1  0  0  0  0
 49 25  1  0  0  0  0
M  END
>  <Pose>
1

>  <Score>
-5.25

$$$$
