
 OpenBabel03232204043D

 48 51  0  0  0  0  0  0  0  0999 V2000
   17.7400  -59.2100   33.5280 B   0  0  0  0  0  0  0  0  0  0  0  0
   16.0180  -59.0340   34.3240 C   0  0  0  0  0  0  0  0  0  0  0  0
   15.7640  -58.3980   35.5050 C   0  0  0  0  0  0  0  0  0  0  0  0
   14.5080  -58.2830   36.0600 C   0  0  0  0  0  0  0  0  0  0  0  0
   13.4490  -58.8600   35.3520 C   0  0  0  0  0  0  0  0  0  0  0  0
   13.6450  -59.5100   34.1650 C   0  0  0  0  0  0  0  0  0  0  0  0
   14.9350  -59.5940   33.6540 C   0  0  0  0  0  0  0  0  0  0  0  0
   12.1790  -58.7550   35.8850 O   0  0  0  0  0  0  0  0  0  0  0  0
   11.7890  -59.5710   36.9580 C   0  0  0  0  0  0  0  0  0  0  0  0
   14.2580  -57.5880   37.3110 C   0  0  0  0  0  0  0  0  0  0  0  0
   14.8220  -56.4800   37.7070 C   0  0  0  0  0  0  0  0  0  0  0  0
   15.7680  -55.7760   36.9770 O   0  0  0  0  0  0  0  0  0  0  0  0
   16.1920  -54.6420   37.6440 C   0  0  0  0  0  0  0  0  0  0  0  0
   15.5530  -54.5260   38.8570 C   0  0  0  0  0  0  0  0  0  0  0  0
   15.8300  -53.4610   39.6870 C   0  0  0  0  0  0  0  0  0  0  0  0
   16.7530  -52.5160   39.2920 C   0  0  0  0  0  0  0  0  0  0  0  0
   17.3930  -52.6580   38.0450 C   0  0  0  0  0  0  0  0  0  0  0  0
   17.1350  -53.6990   37.2090 C   0  0  0  0  0  0  0  0  0  0  0  0
   17.7420  -53.8840   35.9190 C   0  0  0  0  0  0  0  0  0  0  0  0
   18.7190  -54.8640   35.6690 N   0  0  0  0  0  4  0  0  0  0  0  0
   18.4450  -55.7570   34.5770 C   0  0  0  0  0  0  0  0  0  0  0  0
   18.8000  -55.2000   33.2210 C   0  0  0  0  0  0  0  0  0  0  0  0
   19.2130  -53.8750   33.2560 O   0  0  0  0  0  0  0  0  0  0  0  0
   20.3260  -53.8350   34.0890 C   0  0  0  0  0  0  0  0  0  0  0  0
   20.0620  -54.2840   35.4890 C   0  0  0  0  0  0  0  0  0  0  0  0
   18.3060  -51.6240   37.7780 O   0  0  0  0  0  0  0  0  0  0  0  0
   14.6640  -55.6900   38.9320 C   0  0  0  0  0  0  0  0  0  0  0  0
   13.8940  -55.9760   39.8750 O   0  0  0  0  0  0  0  0  0  0  0  0
   16.6180  -57.9580   36.0280 H   0  0  0  0  0  0  0  0  0  0  0  0
   12.8510  -59.9810   33.5740 H   0  0  0  0  0  0  0  0  0  0  0  0
   15.1050  -60.1140   32.7000 H   0  0  0  0  0  0  0  0  0  0  0  0
   10.6590  -59.6640   36.9770 H   0  0  0  0  0  0  0  0  0  0  0  0
   12.0710  -59.0730   37.9210 H   0  0  0  0  0  0  0  0  0  0  0  0
   12.1560  -60.6150   36.8820 H   0  0  0  0  0  0  0  0  0  0  0  0
   13.5240  -58.0300   38.0030 H   0  0  0  0  0  0  0  0  0  0  0  0
   15.3170  -53.3780   40.6450 H   0  0  0  0  0  0  0  0  0  0  0  0
   17.0100  -51.6620   39.8970 H   0  0  0  0  0  0  0  0  0  0  0  0
   16.9570  -54.0230   35.0940 H   0  0  0  0  0  0  0  0  0  0  0  0
   18.2160  -52.8960   35.5490 H   0  0  0  0  0  0  0  0  0  0  0  0
   18.8440  -55.4460   36.5230 H   0  0  0  0  0  0  0  0  0  0  0  0
   19.1290  -56.6450   34.7350 H   0  0  0  0  0  0  0  0  0  0  0  0
   17.4290  -56.1480   34.6150 H   0  0  0  0  0  0  0  0  0  0  0  0
   19.6360  -55.7710   32.7240 H   0  0  0  0  0  0  0  0  0  0  0  0
   17.9380  -55.3180   32.5340 H   0  0  0  0  0  0  0  0  0  0  0  0
   20.6210  -52.7450   34.1570 H   0  0  0  0  0  0  0  0  0  0  0  0
   21.1870  -54.3750   33.5990 H   0  0  0  0  0  0  0  0  0  0  0  0
   20.2060  -53.4830   36.2430 H   0  0  0  0  0  0  0  0  0  0  0  0
   20.8160  -55.0590   35.7390 H   0  0  0  0  0  0  0  0  0  0  0  0
  1  2  1  0  0  0  0
  2  3  1  0  0  0  0
  3 29  1  0  0  0  0
  3  4  2  0  0  0  0
  4 10  1  0  0  0  0
  5  8  1  0  0  0  0
  5  4  1  0  0  0  0
  6  5  2  0  0  0  0
  7  6  1  0  0  0  0
  7  2  2  0  0  0  0
  8  9  1  0  0  0  0
  9 32  1  0  0  0  0
  9 33  1  0  0  0  0
 10 11  2  0  0  0  0
 10 35  1  0  0  0  0
 11 27  1  0  0  0  0
 12 13  1  0  0  0  0
 12 11  1  0  0  0  0
 13 14  1  0  0  0  0
 14 27  1  0  0  0  0
 14 15  2  0  0  0  0
 15 36  1  0  0  0  0
 16 15  1  0  0  0  0
 16 37  1  0  0  0  0
 17 16  2  0  0  0  0
 18 13  2  0  0  0  0
 18 17  1  0  0  0  0
 19 18  1  0  0  0  0
 20 19  1  0  0  0  0
 20 40  1  0  0  0  0
 21 42  1  0  0  0  0
 21 41  1  0  0  0  0
 21 20  1  0  0  0  0
 22 23  1  0  0  0  0
 22 21  1  0  0  0  0
 23 24  1  0  0  0  0
 24 45  1  0  0  0  0
 24 25  1  0  0  0  0
 25 20  1  0  0  0  0
 25 48  1  0  0  0  0
 25 47  1  0  0  0  0
 26 17  1  0  0  0  0
 27 28  2  0  0  0  0
 30  6  1  0  0  0  0
 31  7  1  0  0  0  0
 34  9  1  0  0  0  0
 38 19  1  0  0  0  0
 39 19  1  0  0  0  0
 43 22  1  0  0  0  0
 44 22  1  0  0  0  0
 46 24  1  0  0  0  0
M  END
>  <Pose>
1

>  <Score>
-7.32

$$$$
