
 OpenBabel03232204043D

 49 52  0  0  1  0  0  0  0  0999 V2000
   16.6060  -59.4880   32.8650 S   0  0  0  0  0  0  0  0  0  0  0  0
   17.4910  -60.6690   33.1890 O   0  0  0  0  0  0  0  0  0  0  0  0
   15.4100  -60.0210   32.1520 O   0  0  0  0  0  0  0  0  0  0  0  0
   16.1940  -58.7490   34.3620 N   0  0  0  0  0  0  0  0  0  0  0  0
   15.8950  -59.7650   35.3510 C   0  0  0  0  0  0  0  0  0  0  0  0
   15.3010  -59.1290   36.6020 C   0  0  0  0  0  0  0  0  0  0  0  0
   14.0650  -58.4510   36.2110 N   0  0  0  0  0  0  0  0  0  0  0  0
   13.8620  -58.3290   34.7980 C   0  0  0  0  0  0  0  0  0  0  0  0
   15.1360  -57.8000   34.1930 C   0  0  0  0  0  0  0  0  0  0  0  0
   13.1910  -57.9970   37.2030 C   0  0  0  0  0  0  0  0  0  0  0  0
   12.2560  -58.7940   37.6220 O   0  0  0  0  0  0  0  0  0  0  0  0
   13.1660  -56.6930   37.8730 C   0  0  0  0  0  0  0  0  0  0  0  0
   14.4450  -56.4650   39.1010 S   0  0  0  0  0  0  0  0  0  0  0  0
   15.3070  -54.9080   38.9780 C   0  0  1  0  0  0  0  0  0  0  0  0
   15.0110  -53.8910   39.7780 N   0  0  0  0  0  0  0  0  0  0  0  0
   15.6380  -52.7120   39.7390 C   0  0  0  0  0  0  0  0  0  0  0  0
   16.6400  -52.5440   38.8220 N   0  0  0  0  0  0  0  0  0  0  0  0
   16.9630  -53.5490   38.0010 C   0  0  0  0  0  0  0  0  0  0  0  0
   17.9110  -53.6430   37.0230 N   0  0  0  0  0  0  0  0  0  0  0  0
   17.8450  -54.8480   36.4970 N   0  0  0  0  0  0  0  0  0  0  0  0
   16.8860  -55.5630   37.0900 C   0  0  0  0  0  0  0  0  0  0  0  0
   16.3110  -54.7670   38.0450 C   0  0  0  0  0  0  0  0  0  0  0  0
   18.8250  -52.6050   36.6460 C   0  0  0  0  0  0  0  0  0  0  0  0
   17.4730  -58.3440   31.8660 C   0  0  0  0  0  0  0  0  0  0  0  0
   17.2010  -56.9960   31.8170 C   0  0  0  0  0  0  0  0  0  0  0  0
   17.9140  -56.1480   31.0030 C   0  0  0  0  0  0  0  0  0  0  0  0
   18.9410  -56.6470   30.2030 C   0  0  0  0  0  0  0  0  0  0  0  0
   19.2290  -58.0160   30.2430 C   0  0  0  0  0  0  0  0  0  0  0  0
   18.5010  -58.8460   31.0670 C   0  0  0  0  0  0  0  0  0  0  0  0
   19.8380  -55.5600   29.1770 Cl  0  0  0  0  0  0  0  0  0  0  0  0
   16.8400  -60.2400   35.6490 H   0  0  0  0  0  0  0  0  0  0  0  0
   15.2140  -60.5330   34.9750 H   0  0  0  0  0  0  0  0  0  0  0  0
   15.0680  -59.9580   37.3010 H   0  0  0  0  0  0  0  0  0  0  0  0
   16.0440  -58.4300   36.9960 H   0  0  0  0  0  0  0  0  0  0  0  0
   12.9740  -57.7340   34.5140 H   0  0  0  0  0  0  0  0  0  0  0  0
   13.6400  -59.3560   34.4010 H   0  0  0  0  0  0  0  0  0  0  0  0
   14.9950  -57.4400   33.1660 H   0  0  0  0  0  0  0  0  0  0  0  0
   15.3800  -56.8690   34.7930 H   0  0  0  0  0  0  0  0  0  0  0  0
   12.1910  -56.5980   38.3910 H   0  0  0  0  0  0  0  0  0  0  0  0
   13.2130  -55.8220   37.1840 H   0  0  0  0  0  0  0  0  0  0  0  0
   15.3650  -51.9160   40.4080 H   0  0  0  0  0  0  0  0  0  0  0  0
   16.6180  -56.5720   36.8670 H   0  0  0  0  0  0  0  0  0  0  0  0
   19.2020  -52.0170   37.5280 H   0  0  0  0  0  0  0  0  0  0  0  0
   19.6940  -53.0700   36.1010 H   0  0  0  0  0  0  0  0  0  0  0  0
   18.2970  -51.9140   35.9620 H   0  0  0  0  0  0  0  0  0  0  0  0
   16.4110  -56.6120   32.4350 H   0  0  0  0  0  0  0  0  0  0  0  0
   17.7280  -55.0890   30.9450 H   0  0  0  0  0  0  0  0  0  0  0  0
   20.0350  -58.3770   29.6040 H   0  0  0  0  0  0  0  0  0  0  0  0
   18.7160  -59.8880   31.1000 H   0  0  0  0  0  0  0  0  0  0  0  0
  1  2  2  0  0  0  0
  1  4  1  0  0  0  0
  3  1  2  0  0  0  0
  4  5  1  0  0  0  0
  5 31  1  0  0  0  0
  5  6  1  0  0  0  0
  6 34  1  0  0  0  0
  6 33  1  0  0  0  0
  7  6  1  0  0  0  0
  7 10  1  0  0  0  0
  8  7  1  0  0  0  0
  9  4  1  0  0  0  0
  9 38  1  0  0  0  0
  9  8  1  0  0  0  0
 10 11  2  0  0  0  0
 10 12  1  0  0  0  0
 12 39  1  0  0  0  0
 12 13  1  0  0  0  0
 14 13  1  1  0  0  0
 14 15  1  0  0  0  0
 16 15  2  0  0  0  0
 16 41  1  0  0  0  0
 17 16  1  0  0  0  0
 18 22  2  0  0  0  0
 18 17  1  0  0  0  0
 19 18  1  0  0  0  0
 20 19  1  0  0  0  0
 20 21  2  0  0  0  0
 21 22  1  0  0  0  0
 22 14  1  0  0  0  0
 23 19  1  0  0  0  0
 23 43  1  0  0  0  0
 24  1  1  0  0  0  0
 25 24  1  0  0  0  0
 25 46  1  0  0  0  0
 26 25  2  0  0  0  0
 27 28  2  0  0  0  0
 27 26  1  0  0  0  0
 28 29  1  0  0  0  0
 29 49  1  0  0  0  0
 29 24  2  0  0  0  0
 30 27  1  0  0  0  0
 32  5  1  0  0  0  0
 35  8  1  0  0  0  0
 36  8  1  0  0  0  0
 37  9  1  0  0  0  0
 40 12  1  0  0  0  0
 42 21  1  0  0  0  0
 44 23  1  0  0  0  0
 45 23  1  0  0  0  0
 47 26  1  0  0  0  0
 48 28  1  0  0  0  0
M  END
>  <Pose>
1

>  <Score>
-8.11

$$$$
