
 OpenBabel03232204043D

 49 52  0  0  0  0  0  0  0  0999 V2000
   18.6530  -53.1560   37.2420 S   0  0  0  0  0  0  0  0  0  0  0  0
   19.9640  -52.4040   37.4290 O   0  0  0  0  0  0  0  0  0  0  0  0
   18.7210  -54.3000   38.2470 O   0  0  0  0  0  0  0  0  0  0  0  0
   17.4040  -52.1310   37.6990 N   0  0  0  0  0  0  0  0  0  0  0  0
   17.1050  -52.1060   39.1100 C   0  0  0  0  0  0  0  0  0  0  0  0
   15.6360  -52.4870   39.2830 C   0  0  0  0  0  0  0  0  0  0  0  0
   15.3160  -53.5520   38.4100 N   0  0  0  0  0  0  0  0  0  0  0  0
   15.2060  -53.0390   36.9720 C   0  0  0  0  0  0  0  0  0  0  0  0
   16.2890  -52.0320   36.8310 C   0  0  0  0  0  0  0  0  0  0  0  0
   15.1520  -54.8910   38.6120 C   0  0  0  0  0  0  0  0  0  0  0  0
   15.3240  -55.1810   39.9470 O   0  0  0  0  0  0  0  0  0  0  0  0
   14.8680  -56.0830   37.9130 C   0  0  0  0  0  0  0  0  0  0  0  0
   13.9900  -57.0290   37.8490 C   0  0  0  0  0  0  0  0  0  0  0  0
   12.8540  -57.0990   38.6690 N   0  0  0  0  0  0  0  0  0  0  0  0
   11.8520  -58.0910   38.5740 N   0  0  0  0  0  0  0  0  0  0  0  0
   11.9780  -59.0890   37.6020 C   0  0  0  0  0  0  0  0  0  0  0  0
   11.0930  -59.9790   37.5060 O   0  0  0  0  0  0  0  0  0  0  0  0
   13.1520  -59.0680   36.7120 C   0  0  0  0  0  0  0  0  0  0  0  0
   14.1280  -58.0930   36.8100 C   0  0  0  0  0  0  0  0  0  0  0  0
   15.1760  -58.1480   35.9490 C   0  0  0  0  0  0  0  0  0  0  0  0
   15.2470  -59.1700   34.9970 C   0  0  0  0  0  0  0  0  0  0  0  0
   14.2820  -60.1400   34.8950 C   0  0  0  0  0  0  0  0  0  0  0  0
   13.2190  -60.0810   35.7710 C   0  0  0  0  0  0  0  0  0  0  0  0
   18.5230  -53.8410   35.6700 C   0  0  0  0  0  0  0  0  0  0  0  0
   17.5070  -54.7040   35.3460 C   0  0  0  0  0  0  0  0  0  0  0  0
   17.4230  -55.2420   34.0750 C   0  0  0  0  0  0  0  0  0  0  0  0
   18.3420  -54.9420   33.0940 C   0  0  0  0  0  0  0  0  0  0  0  0
   19.3720  -54.0720   33.4150 C   0  0  0  0  0  0  0  0  0  0  0  0
   19.4430  -53.5360   34.6990 C   0  0  0  0  0  0  0  0  0  0  0  0
   18.1920  -55.6510   31.4990 Cl  0  0  0  0  0  0  0  0  0  0  0  0
   17.7700  -52.7210   39.7260 H   0  0  0  0  0  0  0  0  0  0  0  0
   17.1990  -51.0590   39.4550 H   0  0  0  0  0  0  0  0  0  0  0  0
   15.0890  -51.5460   38.8780 H   0  0  0  0  0  0  0  0  0  0  0  0
   15.2930  -52.5550   40.2980 H   0  0  0  0  0  0  0  0  0  0  0  0
   14.2040  -52.5760   36.9640 H   0  0  0  0  0  0  0  0  0  0  0  0
   15.2470  -53.8980   36.2880 H   0  0  0  0  0  0  0  0  0  0  0  0
   15.8260  -51.0140   36.9970 H   0  0  0  0  0  0  0  0  0  0  0  0
   16.6790  -51.9850   35.7880 H   0  0  0  0  0  0  0  0  0  0  0  0
   15.7110  -56.2740   37.1350 H   0  0  0  0  0  0  0  0  0  0  0  0
   12.7140  -56.4310   39.4290 H   0  0  0  0  0  0  0  0  0  0  0  0
   11.0350  -58.0390   39.2520 H   0  0  0  0  0  0  0  0  0  0  0  0
   15.9720  -57.4230   35.9690 H   0  0  0  0  0  0  0  0  0  0  0  0
   16.0940  -59.1730   34.3380 H   0  0  0  0  0  0  0  0  0  0  0  0
   14.3230  -60.9400   34.1610 H   0  0  0  0  0  0  0  0  0  0  0  0
   12.4180  -60.8280   35.7370 H   0  0  0  0  0  0  0  0  0  0  0  0
   16.7350  -55.0030   36.0440 H   0  0  0  0  0  0  0  0  0  0  0  0
   16.6180  -55.9340   33.7970 H   0  0  0  0  0  0  0  0  0  0  0  0
   20.1040  -53.8250   32.6500 H   0  0  0  0  0  0  0  0  0  0  0  0
   20.2900  -52.8560   34.8650 H   0  0  0  0  0  0  0  0  0  0  0  0
  1  2  2  0  0  0  0
  1  4  1  0  0  0  0
  1  3  2  0  0  0  0
  4  5  1  0  0  0  0
  5  6  1  0  0  0  0
  5 32  1  0  0  0  0
  5 31  1  0  0  0  0
  6 34  1  0  0  0  0
  7 10  1  0  0  0  0
  7  6  1  0  0  0  0
  8  7  1  0  0  0  0
  9  8  1  0  0  0  0
  9 37  1  0  0  0  0
  9  4  1  0  0  0  0
 10 11  2  0  0  0  0
 12 10  1  0  0  0  0
 13 12  2  0  0  0  0
 13 14  1  0  0  0  0
 14 40  1  0  0  0  0
 15 14  1  0  0  0  0
 15 41  1  0  0  0  0
 16 15  1  0  0  0  0
 17 16  2  0  0  0  0
 18 19  1  0  0  0  0
 18 16  1  0  0  0  0
 19 13  1  0  0  0  0
 20 42  1  0  0  0  0
 20 19  2  0  0  0  0
 21 20  1  0  0  0  0
 22 21  2  0  0  0  0
 22 23  1  0  0  0  0
 23 18  2  0  0  0  0
 24  1  1  0  0  0  0
 25 24  1  0  0  0  0
 25 46  1  0  0  0  0
 26 25  2  0  0  0  0
 27 28  2  0  0  0  0
 27 26  1  0  0  0  0
 28 29  1  0  0  0  0
 29 49  1  0  0  0  0
 29 24  2  0  0  0  0
 30 27  1  0  0  0  0
 33  6  1  0  0  0  0
 35  8  1  0  0  0  0
 36  8  1  0  0  0  0
 38  9  1  0  0  0  0
 39 12  1  0  0  0  0
 43 21  1  0  0  0  0
 44 22  1  0  0  0  0
 45 23  1  0  0  0  0
 47 26  1  0  0  0  0
 48 28  1  0  0  0  0
M  END
>  <Pose>
1

>  <Score>
-7.24

$$$$
