
 OpenBabel03232204043D

 44 47  0  0  0  0  0  0  0  0999 V2000
   20.1480  -54.2810   36.1520 Cl  0  0  0  0  0  0  0  0  0  0  0  0
   19.5010  -54.5400   34.5620 C   0  0  0  0  0  0  0  0  0  0  0  0
   18.2810  -55.1390   34.3800 C   0  0  0  0  0  0  0  0  0  0  0  0
   17.8230  -55.3170   33.0940 C   0  0  0  0  0  0  0  0  0  0  0  0
   18.5280  -54.9230   31.9770 C   0  0  0  0  0  0  0  0  0  0  0  0
   19.7510  -54.3240   32.1780 C   0  0  0  0  0  0  0  0  0  0  0  0
   20.2180  -54.1420   33.4620 C   0  0  0  0  0  0  0  0  0  0  0  0
   18.0200  -55.1230   30.6340 N   0  0  0  0  0  0  0  0  0  0  0  0
   17.9250  -56.4690   30.1870 C   0  0  0  0  0  0  0  0  0  0  0  0
   18.8930  -56.9440   29.2020 C   0  0  0  0  0  0  0  0  0  0  0  0
   18.5230  -58.0690   28.6410 O   0  0  0  0  0  0  0  0  0  0  0  0
   20.0920  -56.4370   28.7670 N   0  0  0  0  0  0  0  0  0  0  0  0
   20.8920  -55.4620   29.4360 C   0  0  0  0  0  0  0  0  0  0  0  0
   22.2650  -56.0700   29.7060 C   0  0  0  0  0  0  0  0  0  0  0  0
   22.8100  -56.3070   28.4250 O   0  0  0  0  0  0  0  0  0  0  0  0
   22.1210  -57.3500   27.8480 C   0  0  0  0  0  0  0  0  0  0  0  0
   20.6860  -56.9340   27.5070 C   0  0  0  0  0  0  0  0  0  0  0  0
   17.4900  -55.5840   35.4540 N   0  0  0  0  0  0  0  0  0  0  0  0
   17.0070  -56.8040   35.5720 N   0  0  0  0  0  0  0  0  0  0  0  0
   16.3160  -56.9130   36.6910 N   0  0  0  0  0  0  0  0  0  0  0  0
   16.3720  -55.7340   37.2770 N   0  0  0  0  0  0  0  0  0  0  0  0
   17.1120  -54.8780   36.5110 C   0  0  0  0  0  0  0  0  0  0  0  0
   17.3470  -53.4860   36.8910 C   0  0  0  0  0  0  0  0  0  0  0  0
   16.7270  -52.7940   38.0140 C   0  0  0  0  0  0  0  0  0  0  0  0
   18.1670  -53.3010   38.2020 C   0  0  0  0  0  0  0  0  0  0  0  0
   16.8430  -55.7970   32.9220 H   0  0  0  0  0  0  0  0  0  0  0  0
   20.3040  -54.0150   31.2940 H   0  0  0  0  0  0  0  0  0  0  0  0
   21.2000  -53.6590   33.5620 H   0  0  0  0  0  0  0  0  0  0  0  0
   17.7470  -54.3310   30.0450 H   0  0  0  0  0  0  0  0  0  0  0  0
   16.9060  -56.5730   29.6990 H   0  0  0  0  0  0  0  0  0  0  0  0
   17.8460  -57.1880   31.0530 H   0  0  0  0  0  0  0  0  0  0  0  0
   21.1320  -54.6890   28.6070 H   0  0  0  0  0  0  0  0  0  0  0  0
   20.4590  -54.9130   30.2540 H   0  0  0  0  0  0  0  0  0  0  0  0
   22.8660  -55.3780   30.2970 H   0  0  0  0  0  0  0  0  0  0  0  0
   22.2240  -57.0410   30.1970 H   0  0  0  0  0  0  0  0  0  0  0  0
   22.1140  -58.2160   28.5410 H   0  0  0  0  0  0  0  0  0  0  0  0
   22.6180  -57.6760   26.9260 H   0  0  0  0  0  0  0  0  0  0  0  0
   20.1350  -57.7740   27.0900 H   0  0  0  0  0  0  0  0  0  0  0  0
   20.7690  -56.0440   26.8520 H   0  0  0  0  0  0  0  0  0  0  0  0
   17.7860  -52.8080   36.0890 H   0  0  0  0  0  0  0  0  0  0  0  0
   16.5940  -51.6720   37.9360 H   0  0  0  0  0  0  0  0  0  0  0  0
   16.0600  -53.2110   38.7640 H   0  0  0  0  0  0  0  0  0  0  0  0
   18.9110  -52.4950   38.2400 H   0  0  0  0  0  0  0  0  0  0  0  0
   18.3600  -54.1830   38.8080 H   0  0  0  0  0  0  0  0  0  0  0  0
  2  1  1  0  0  0  0
  3  2  1  0  0  0  0
  3 18  1  0  0  0  0
  4  3  2  0  0  0  0
  5  6  2  0  0  0  0
  5  4  1  0  0  0  0
  6  7  1  0  0  0  0
  7 28  1  0  0  0  0
  7  2  2  0  0  0  0
  8  5  1  0  0  0  0
  9  8  1  0  0  0  0
  9 31  1  0  0  0  0
 10  9  1  0  0  0  0
 11 10  2  0  0  0  0
 12 10  1  0  0  0  0
 12 13  1  0  0  0  0
 13 14  1  0  0  0  0
 13 33  1  0  0  0  0
 14 35  1  0  0  0  0
 14 34  1  0  0  0  0
 15 14  1  0  0  0  0
 16 15  1  0  0  0  0
 16 36  1  0  0  0  0
 17 16  1  0  0  0  0
 17 12  1  0  0  0  0
 18 19  1  0  0  0  0
 18 22  1  0  0  0  0
 19 20  2  0  0  0  0
 20 21  1  0  0  0  0
 22 23  1  0  0  0  0
 22 21  2  0  0  0  0
 23 24  1  0  0  0  0
 23 25  1  0  0  0  0
 24 25  1  0  0  0  0
 24 42  1  0  0  0  0
 25 43  1  0  0  0  0
 25 44  1  0  0  0  0
 26  4  1  0  0  0  0
 27  6  1  0  0  0  0
 29  8  1  0  0  0  0
 30  9  1  0  0  0  0
 32 13  1  0  0  0  0
 37 16  1  0  0  0  0
 38 17  1  0  0  0  0
 39 17  1  0  0  0  0
 40 23  1  0  0  0  0
 41 24  1  0  0  0  0
M  END
>  <Pose>
1

>  <Score>
-6.26

$$$$
