
 OpenBabel03232204043D

 49 52  0  0  1  0  0  0  0  0999 V2000
    9.2740  -60.5950   39.2260 B   0  0  0  0  0  0  0  0  0  0  0  0
   10.8360  -59.9070   38.3610 C   0  0  0  0  0  0  0  0  0  0  0  0
   11.5710  -58.8800   38.9070 C   0  0  0  0  0  0  0  0  0  0  0  0
   12.7070  -58.3730   38.2880 C   0  0  0  0  0  0  0  0  0  0  0  0
   13.1360  -58.8960   37.0860 C   0  0  0  0  0  0  0  0  0  0  0  0
   12.3950  -59.9300   36.5390 C   0  0  0  0  0  0  0  0  0  0  0  0
   11.2670  -60.4350   37.1530 C   0  0  0  0  0  0  0  0  0  0  0  0
   14.3100  -58.4160   36.3860 C   0  0  0  0  0  0  0  0  0  0  0  0
   15.5670  -58.4220   36.9830 C   0  0  0  0  0  0  0  0  0  0  0  0
   16.6430  -57.9920   36.3660 O   0  0  0  0  0  0  0  0  0  0  0  0
   16.6220  -57.5240   35.1400 C   0  0  0  0  0  0  0  0  0  0  0  0
   15.4230  -57.4800   34.4690 C   0  0  0  0  0  0  0  0  0  0  0  0
   15.4470  -56.9830   33.1880 C   0  0  0  0  0  0  0  0  0  0  0  0
   16.5900  -56.5420   32.5710 C   0  0  0  0  0  0  0  0  0  0  0  0
   17.8300  -56.5780   33.2420 C   0  0  0  0  0  0  0  0  0  0  0  0
   17.7970  -57.0770   34.5230 C   0  0  0  0  0  0  0  0  0  0  0  0
   18.9560  -56.1250   32.5870 O   0  0  0  0  0  0  0  0  0  0  0  0
   19.2990  -56.3760   31.2910 C   0  0  2  0  0  0  0  0  0  0  0  0
   19.8510  -57.6710   31.0980 O   0  0  0  0  0  0  0  0  0  0  0  0
   19.6500  -57.9610   29.7660 C   0  0  1  0  0  0  0  0  0  0  0  0
   20.3830  -57.0640   28.8180 C   0  0  2  0  0  0  0  0  0  0  0  0
   20.3080  -55.6120   29.2220 C   0  0  1  0  0  0  0  0  0  0  0  0
   20.3540  -55.4420   30.7270 C   0  0  1  0  0  0  0  0  0  0  0  0
   20.0710  -54.1120   31.0170 O   0  0  0  0  0  0  0  0  0  0  0  0
   21.3090  -54.8970   28.5770 O   0  0  0  0  0  0  0  0  0  0  0  0
   19.7420  -57.1660   27.5720 O   0  0  0  0  0  0  0  0  0  0  0  0
   19.9320  -59.4030   29.4270 C   0  0  0  0  0  0  0  0  0  0  0  0
   19.1290  -60.2780   30.1550 O   0  0  0  0  0  0  0  0  0  0  0  0
   14.2740  -57.9240   35.0870 C   0  0  0  0  0  0  0  0  0  0  0  0
   13.1740  -57.8840   34.4730 O   0  0  0  0  0  0  0  0  0  0  0  0
   11.2480  -58.4540   39.8540 H   0  0  0  0  0  0  0  0  0  0  0  0
   13.2830  -57.5720   38.7100 H   0  0  0  0  0  0  0  0  0  0  0  0
   12.7330  -60.3450   35.5870 H   0  0  0  0  0  0  0  0  0  0  0  0
   10.6860  -61.2440   36.7240 H   0  0  0  0  0  0  0  0  0  0  0  0
   15.5930  -58.8100   38.0050 H   0  0  0  0  0  0  0  0  0  0  0  0
   14.4870  -56.9560   32.6680 H   0  0  0  0  0  0  0  0  0  0  0  0
   16.6010  -56.1520   31.5620 H   0  0  0  0  0  0  0  0  0  0  0  0
   18.7080  -57.1310   35.0880 H   0  0  0  0  0  0  0  0  0  0  0  0
   18.4320  -56.2930   30.6160 H   0  0  0  0  0  0  0  0  0  0  0  0
   18.5510  -57.8080   29.5690 H   0  0  0  0  0  0  0  0  0  0  0  0
   21.4450  -57.3810   28.6570 H   0  0  0  0  0  0  0  0  0  0  0  0
   19.3270  -55.2120   28.8900 H   0  0  0  0  0  0  0  0  0  0  0  0
   21.3270  -55.7530   31.1610 H   0  0  0  0  0  0  0  0  0  0  0  0
   20.3940  -53.5190   30.2980 H   0  0  0  0  0  0  0  0  0  0  0  0
   21.7760  -54.2560   29.1960 H   0  0  0  0  0  0  0  0  0  0  0  0
   18.7640  -57.0560   27.6720 H   0  0  0  0  0  0  0  0  0  0  0  0
   21.0080  -59.6450   29.5390 H   0  0  0  0  0  0  0  0  0  0  0  0
   19.6970  -59.6050   28.3470 H   0  0  0  0  0  0  0  0  0  0  0  0
   19.5600  -60.3400   31.0650 H   0  0  0  0  0  0  0  0  0  0  0  0
  2  3  1  0  0  0  0
  2  1  1  0  0  0  0
  3 31  1  0  0  0  0
  4 32  1  0  0  0  0
  4  3  2  0  0  0  0
  5  4  1  0  0  0  0
  6  5  2  0  0  0  0
  6  7  1  0  0  0  0
  7  2  2  0  0  0  0
  8  9  2  0  0  0  0
  8  5  1  0  0  0  0
  9 35  1  0  0  0  0
 10  9  1  0  0  0  0
 11 10  1  0  0  0  0
 12 29  1  0  0  0  0
 12 11  2  0  0  0  0
 13 12  1  0  0  0  0
 14 13  2  0  0  0  0
 14 15  1  0  0  0  0
 15 16  2  0  0  0  0
 16 38  1  0  0  0  0
 16 11  1  0  0  0  0
 17 15  1  0  0  0  0
 18 39  1  6  0  0  0
 18 17  1  0  0  0  0
 19 18  1  0  0  0  0
 20 40  1  6  0  0  0
 20 19  1  0  0  0  0
 21 41  1  6  0  0  0
 21 22  1  0  0  0  0
 21 20  1  0  0  0  0
 22 42  1  6  0  0  0
 22 23  1  0  0  0  0
 23 24  1  0  0  0  0
 23 43  1  1  0  0  0
 23 18  1  0  0  0  0
 25 45  1  0  0  0  0
 25 22  1  0  0  0  0
 26 46  1  0  0  0  0
 26 21  1  0  0  0  0
 27 47  1  0  0  0  0
 27 20  1  0  0  0  0
 27 28  1  0  0  0  0
 28 49  1  0  0  0  0
 29  8  1  0  0  0  0
 30 29  2  0  0  0  0
 33  6  1  0  0  0  0
 34  7  1  0  0  0  0
 36 13  1  0  0  0  0
 37 14  1  0  0  0  0
 44 24  1  0  0  0  0
 48 27  1  0  0  0  0
M  END
>  <Pose>
1

>  <Score>
-6.83

$$$$
