
 OpenBabel03232204043D

 45 48  0  0  0  0  0  0  0  0999 V2000
   19.8330  -53.9810   33.4960 S   0  0  0  0  0  0  0  0  0  0  0  0
   19.1500  -52.7530   32.9400 O   0  0  0  0  0  0  0  0  0  0  0  0
   20.8730  -54.4020   32.5260 O   0  0  0  0  0  0  0  0  0  0  0  0
   20.5100  -53.5810   35.0290 N   0  0  0  0  0  0  0  0  0  0  0  0
   20.1610  -54.5820   35.9700 C   0  0  0  0  0  0  0  0  0  0  0  0
   19.5620  -54.1330   37.2720 C   0  0  0  0  0  0  0  0  0  0  0  0
   18.7980  -52.9490   37.0530 N   0  0  0  0  0  0  0  0  0  0  0  0
   19.7580  -51.9130   36.6730 C   0  0  0  0  0  0  0  0  0  0  0  0
   20.2720  -52.2290   35.3180 C   0  0  0  0  0  0  0  0  0  0  0  0
   17.9970  -52.5310   38.1520 C   0  0  0  0  0  0  0  0  0  0  0  0
   16.5410  -52.6900   37.8740 C   0  0  0  0  0  0  0  0  0  0  0  0
   16.1320  -54.0780   37.8430 N   0  0  0  0  0  0  0  0  0  0  0  0
   16.5700  -55.0310   37.0210 N   0  0  0  0  0  0  0  0  0  0  0  0
   15.9730  -56.1990   37.2990 C   0  0  0  0  0  0  0  0  0  0  0  0
   15.1370  -55.9810   38.3210 N   0  0  0  0  0  0  0  0  0  0  0  0
   14.3810  -56.9810   38.8360 C   0  0  0  0  0  0  0  0  0  0  0  0
   14.4300  -58.2650   38.3420 C   0  0  0  0  0  0  0  0  0  0  0  0
   15.2850  -58.5180   37.2870 C   0  0  0  0  0  0  0  0  0  0  0  0
   16.0410  -57.4810   36.7850 C   0  0  0  0  0  0  0  0  0  0  0  0
   15.2440  -54.6600   38.6500 C   0  0  0  0  0  0  0  0  0  0  0  0
   14.5690  -54.1610   39.5820 O   0  0  0  0  0  0  0  0  0  0  0  0
   18.6780  -55.3110   33.6680 C   0  0  0  0  0  0  0  0  0  0  0  0
   16.9750  -55.2770   33.6050 S   0  0  0  0  0  0  0  0  0  0  0  0
   16.6560  -56.9310   33.8540 C   0  0  0  0  0  0  0  0  0  0  0  0
   17.9080  -57.4720   33.9810 C   0  0  0  0  0  0  0  0  0  0  0  0
   18.9490  -56.6380   33.8850 C   0  0  0  0  0  0  0  0  0  0  0  0
   14.9650  -57.8510   33.9400 B   0  0  0  0  0  0  0  0  0  0  0  0
   19.3800  -55.2470   35.4830 H   0  0  0  0  0  0  0  0  0  0  0  0
   21.0830  -55.2130   36.1590 H   0  0  0  0  0  0  0  0  0  0  0  0
   18.9870  -54.9960   37.6670 H   0  0  0  0  0  0  0  0  0  0  0  0
   20.4480  -53.9180   37.9410 H   0  0  0  0  0  0  0  0  0  0  0  0
   19.3050  -50.9140   36.6730 H   0  0  0  0  0  0  0  0  0  0  0  0
   20.6010  -52.0160   37.3970 H   0  0  0  0  0  0  0  0  0  0  0  0
   19.5520  -51.7740   34.5790 H   0  0  0  0  0  0  0  0  0  0  0  0
   21.2470  -51.6750   35.2020 H   0  0  0  0  0  0  0  0  0  0  0  0
   18.2240  -53.1210   39.0930 H   0  0  0  0  0  0  0  0  0  0  0  0
   18.2200  -51.4460   38.3640 H   0  0  0  0  0  0  0  0  0  0  0  0
   15.9610  -52.2110   38.7120 H   0  0  0  0  0  0  0  0  0  0  0  0
   16.2410  -52.2220   36.8980 H   0  0  0  0  0  0  0  0  0  0  0  0
   13.7100  -56.7770   39.6660 H   0  0  0  0  0  0  0  0  0  0  0  0
   13.8350  -59.0740   38.7410 H   0  0  0  0  0  0  0  0  0  0  0  0
   15.3340  -59.5300   36.8850 H   0  0  0  0  0  0  0  0  0  0  0  0
   16.7020  -57.6900   35.9630 H   0  0  0  0  0  0  0  0  0  0  0  0
   18.0140  -58.5660   34.1560 H   0  0  0  0  0  0  0  0  0  0  0  0
   20.0090  -56.9830   33.9750 H   0  0  0  0  0  0  0  0  0  0  0  0
  1 22  1  0  0  0  0
  1  4  1  0  0  0  0
  2  1  2  0  0  0  0
  3  1  2  0  0  0  0
  4  9  1  0  0  0  0
  4  5  1  0  0  0  0
  5 29  1  0  0  0  0
  5  6  1  0  0  0  0
  6 30  1  0  0  0  0
  6 31  1  0  0  0  0
  7  6  1  0  0  0  0
  7 10  1  0  0  0  0
  8  7  1  0  0  0  0
  8 33  1  0  0  0  0
  9  8  1  0  0  0  0
 10 37  1  0  0  0  0
 10 36  1  0  0  0  0
 11 10  1  0  0  0  0
 11 38  1  0  0  0  0
 12 11  1  0  0  0  0
 12 20  1  0  0  0  0
 13 14  2  0  0  0  0
 13 12  1  0  0  0  0
 14 15  1  0  0  0  0
 15 20  1  0  0  0  0
 15 16  1  0  0  0  0
 16 40  1  0  0  0  0
 17 41  1  0  0  0  0
 17 16  2  0  0  0  0
 18 17  1  0  0  0  0
 19 18  2  0  0  0  0
 19 14  1  0  0  0  0
 20 21  2  0  0  0  0
 22 26  2  0  0  0  0
 23 22  1  0  0  0  0
 23 24  1  0  0  0  0
 24 27  1  0  0  0  0
 24 25  2  0  0  0  0
 25 44  1  0  0  0  0
 26 45  1  0  0  0  0
 26 25  1  0  0  0  0
 28  5  1  0  0  0  0
 32  8  1  0  0  0  0
 34  9  1  0  0  0  0
 35  9  1  0  0  0  0
 39 11  1  0  0  0  0
 42 18  1  0  0  0  0
 43 19  1  0  0  0  0
M  END
>  <Pose>
1

>  <Score>
-6.88

$$$$
