
 OpenBabel03232204043D

 52 55  0  0  0  0  0  0  0  0999 V2000
   15.9040  -61.8650   30.0830 Cl  0  0  0  0  0  0  0  0  0  0  0  0
   15.9530  -60.8980   31.5770 C   0  0  0  0  0  0  0  0  0  0  0  0
   14.8670  -60.7900   32.4380 C   0  0  0  0  0  0  0  0  0  0  0  0
   14.8950  -59.9770   33.5570 C   0  0  0  0  0  0  0  0  0  0  0  0
   16.0490  -59.2250   33.8520 C   0  0  0  0  0  0  0  0  0  0  0  0
   17.0890  -59.3560   33.0030 C   0  0  0  0  0  0  0  0  0  0  0  0
   17.0850  -60.1590   31.8770 C   0  0  0  0  0  0  0  0  0  0  0  0
   15.9800  -58.3390   35.0310 C   0  0  0  0  0  0  0  0  0  0  0  0
   15.0710  -58.5520   36.0420 C   0  0  0  0  0  0  0  0  0  0  0  0
   14.9800  -57.6080   37.0750 C   0  0  0  0  0  0  0  0  0  0  0  0
   15.7810  -56.4880   37.0970 C   0  0  0  0  0  0  0  0  0  0  0  0
   15.7620  -55.4960   38.0780 C   0  0  0  0  0  0  0  0  0  0  0  0
   14.8030  -55.7300   39.0950 C   0  0  0  0  0  0  0  0  0  0  0  0
   13.9720  -56.8470   39.1070 C   0  0  0  0  0  0  0  0  0  0  0  0
   14.0690  -57.7800   38.0860 C   0  0  0  0  0  0  0  0  0  0  0  0
   14.6150  -54.8700   40.1590 O   0  0  0  0  0  0  0  0  0  0  0  0
   16.4350  -54.2440   38.0830 C   0  0  0  0  0  0  0  0  0  0  0  0
   16.8510  -53.5400   39.2690 N   0  0  0  0  0  4  0  0  0  0  0  0
   18.2940  -53.7660   39.5610 C   0  0  0  0  0  0  0  0  0  0  0  0
   19.0760  -53.7510   38.2960 C   0  0  0  0  0  0  0  0  0  0  0  0
   19.0140  -52.5180   37.5460 N   0  0  0  0  0  0  0  0  0  0  0  0
   17.7980  -51.8050   37.7430 C   0  0  0  0  0  0  0  0  0  0  0  0
   16.9490  -52.0940   38.8900 C   0  0  0  0  0  0  0  0  0  0  0  0
   19.2240  -52.7820   36.1140 C   0  0  0  0  0  0  0  0  0  0  0  0
   19.2460  -54.2610   35.8060 C   0  0  0  0  0  0  0  0  0  0  0  0
   20.5240  -54.7980   35.8470 O   0  0  0  0  0  0  0  0  0  0  0  0
   16.6070  -56.3330   36.1430 O   0  0  0  0  0  0  0  0  0  0  0  0
   16.7650  -57.1710   35.1150 C   0  0  0  0  0  0  0  0  0  0  0  0
   17.5960  -56.9600   34.2230 O   0  0  0  0  0  0  0  0  0  0  0  0
   13.9920  -61.3610   32.1860 H   0  0  0  0  0  0  0  0  0  0  0  0
   14.0350  -59.9020   34.2120 H   0  0  0  0  0  0  0  0  0  0  0  0
   18.0170  -58.8170   33.1640 H   0  0  0  0  0  0  0  0  0  0  0  0
   17.9450  -60.2340   31.2290 H   0  0  0  0  0  0  0  0  0  0  0  0
   14.4300  -59.4140   36.0720 H   0  0  0  0  0  0  0  0  0  0  0  0
   13.2850  -57.0520   39.8920 H   0  0  0  0  0  0  0  0  0  0  0  0
   13.3800  -58.6460   38.0640 H   0  0  0  0  0  0  0  0  0  0  0  0
   15.5000  -53.4980   37.8220 H   0  0  0  0  0  0  0  0  0  0  0  0
   16.9960  -54.0400   37.2020 H   0  0  0  0  0  0  0  0  0  0  0  0
   16.2890  -53.5530   40.0880 H   0  0  0  0  0  0  0  0  0  0  0  0
   18.4940  -54.5900   40.2190 H   0  0  0  0  0  0  0  0  0  0  0  0
   18.6100  -52.8340   40.1590 H   0  0  0  0  0  0  0  0  0  0  0  0
   18.8340  -54.6090   37.6580 H   0  0  0  0  0  0  0  0  0  0  0  0
   20.1530  -53.8730   38.6060 H   0  0  0  0  0  0  0  0  0  0  0  0
   17.2210  -51.8350   36.7900 H   0  0  0  0  0  0  0  0  0  0  0  0
   18.0790  -50.6900   37.8340 H   0  0  0  0  0  0  0  0  0  0  0  0
   15.9000  -51.7490   38.7410 H   0  0  0  0  0  0  0  0  0  0  0  0
   17.3970  -51.5790   39.7970 H   0  0  0  0  0  0  0  0  0  0  0  0
   20.1810  -52.3270   35.8490 H   0  0  0  0  0  0  0  0  0  0  0  0
   18.4360  -52.3390   35.4720 H   0  0  0  0  0  0  0  0  0  0  0  0
   18.6670  -54.5600   34.9400 H   0  0  0  0  0  0  0  0  0  0  0  0
   18.6690  -54.7180   36.6840 H   0  0  0  0  0  0  0  0  0  0  0  0
   20.4410  -55.7920   36.0020 H   0  0  0  0  0  0  0  0  0  0  0  0
  1  2  1  0  0  0  0
  2  7  2  0  0  0  0
  2  3  1  0  0  0  0
  3  4  2  0  0  0  0
  4  5  1  0  0  0  0
  4 31  1  0  0  0  0
  5  8  1  0  0  0  0
  6 32  1  0  0  0  0
  6  5  2  0  0  0  0
  7  6  1  0  0  0  0
  8 28  1  0  0  0  0
  8  9  2  0  0  0  0
  9 34  1  0  0  0  0
  9 10  1  0  0  0  0
 10 11  2  0  0  0  0
 10 15  1  0  0  0  0
 11 12  1  0  0  0  0
 12 17  1  0  0  0  0
 12 13  2  0  0  0  0
 13 14  1  0  0  0  0
 13 16  1  0  0  0  0
 14 35  1  0  0  0  0
 15 14  2  0  0  0  0
 17 18  1  0  0  0  0
 18 19  1  0  0  0  0
 18 39  1  0  0  0  0
 19 41  1  0  0  0  0
 19 40  1  0  0  0  0
 20 43  1  0  0  0  0
 20 19  1  0  0  0  0
 21 22  1  0  0  0  0
 21 20  1  0  0  0  0
 22 45  1  0  0  0  0
 22 23  1  0  0  0  0
 23 18  1  0  0  0  0
 23 47  1  0  0  0  0
 24 21  1  0  0  0  0
 25 26  1  0  0  0  0
 25 24  1  0  0  0  0
 25 51  1  0  0  0  0
 26 52  1  0  0  0  0
 27 11  1  0  0  0  0
 28 27  1  0  0  0  0
 29 28  2  0  0  0  0
 30  3  1  0  0  0  0
 33  7  1  0  0  0  0
 36 15  1  0  0  0  0
 37 17  1  0  0  0  0
 38 17  1  0  0  0  0
 42 20  1  0  0  0  0
 44 22  1  0  0  0  0
 46 23  1  0  0  0  0
 48 24  1  0  0  0  0
 49 24  1  0  0  0  0
 50 25  1  0  0  0  0
M  END
>  <Pose>
1

>  <Score>
-6.68

$$$$
