
 OpenBabel03232204043D

 54 57  0  0  0  0  0  0  0  0999 V2000
   18.4190  -55.4670   31.2080 B   0  0  0  0  0  0  0  0  0  0  0  0
   18.1660  -56.0010   33.0210 C   0  0  0  0  0  0  0  0  0  0  0  0
   18.2530  -57.3250   33.3900 C   0  0  0  0  0  0  0  0  0  0  0  0
   18.0640  -57.6980   34.7220 C   0  0  0  0  0  0  0  0  0  0  0  0
   17.7940  -56.7340   35.6470 C   0  0  0  0  0  0  0  0  0  0  0  0
   17.7050  -55.4170   35.2980 C   0  0  0  0  0  0  0  0  0  0  0  0
   17.8910  -55.0490   33.9880 C   0  0  0  0  0  0  0  0  0  0  0  0
   17.5590  -57.1920   37.0750 C   0  0  0  0  0  0  0  0  0  0  0  0
   16.2490  -56.8090   37.5360 N   0  0  0  0  0  0  0  0  0  0  0  0
   15.1900  -57.6780   37.6440 C   0  0  0  0  0  0  0  0  0  0  0  0
   14.0750  -56.9920   38.0820 C   0  0  0  0  0  0  0  0  0  0  0  0
   14.4760  -55.7260   38.2340 N   0  0  0  0  0  0  0  0  0  0  0  0
   15.8010  -55.6090   37.9050 C   0  0  0  0  0  0  0  0  0  0  0  0
   16.4980  -54.4010   38.0690 N   0  0  0  0  0  0  0  0  0  0  0  0
   16.1810  -53.0960   37.6110 C   0  0  0  0  0  0  0  0  0  0  0  0
   17.4330  -52.2390   37.3920 C   0  0  0  0  0  0  0  0  0  0  0  0
   18.6210  -52.9480   37.1480 N   0  0  0  0  0  0  0  0  0  0  0  0
   18.9170  -54.0320   37.9990 C   0  0  0  0  0  0  0  0  0  0  0  0
   17.7560  -54.4680   38.8630 C   0  0  0  0  0  0  0  0  0  0  0  0
   19.2430  -52.8760   35.8910 C   0  0  0  0  0  0  0  0  0  0  0  0
   20.0930  -51.7060   35.6210 C   0  0  0  0  0  0  0  0  0  0  0  0
   20.8800  -51.6500   34.6380 O   0  0  0  0  0  0  0  0  0  0  0  0
   20.0450  -50.6160   36.4620 O   0  0  0  0  0  0  0  0  0  0  0  0
   20.5590  -49.3620   36.1050 C   0  0  0  0  0  0  0  0  0  0  0  0
   12.9020  -57.6270   38.2760 N   0  0  0  0  0  0  0  0  0  0  0  0
   12.8460  -58.9440   38.0340 C   0  0  0  0  0  0  0  0  0  0  0  0
   11.7470  -59.5250   38.2190 O   0  0  0  0  0  0  0  0  0  0  0  0
   13.9050  -59.6420   37.6110 N   0  0  0  0  0  0  0  0  0  0  0  0
   15.1110  -59.0330   37.4030 C   0  0  0  0  0  0  0  0  0  0  0  0
   16.0860  -59.7170   37.0090 O   0  0  0  0  0  0  0  0  0  0  0  0
   11.7520  -56.8670   38.7310 C   0  0  0  0  0  0  0  0  0  0  0  0
   18.4680  -58.1130   32.6620 H   0  0  0  0  0  0  0  0  0  0  0  0
   18.1490  -58.7660   34.9640 H   0  0  0  0  0  0  0  0  0  0  0  0
   17.4790  -54.6630   36.0290 H   0  0  0  0  0  0  0  0  0  0  0  0
   17.8190  -54.0060   33.7200 H   0  0  0  0  0  0  0  0  0  0  0  0
   18.3980  -56.7510   37.6090 H   0  0  0  0  0  0  0  0  0  0  0  0
   17.6410  -58.3110   37.0560 H   0  0  0  0  0  0  0  0  0  0  0  0
   15.6770  -53.0730   36.6090 H   0  0  0  0  0  0  0  0  0  0  0  0
   15.6170  -52.5570   38.3960 H   0  0  0  0  0  0  0  0  0  0  0  0
   17.2740  -51.5030   36.5600 H   0  0  0  0  0  0  0  0  0  0  0  0
   17.6290  -51.5760   38.2900 H   0  0  0  0  0  0  0  0  0  0  0  0
   19.7220  -53.7020   38.7060 H   0  0  0  0  0  0  0  0  0  0  0  0
   19.3410  -54.8700   37.4230 H   0  0  0  0  0  0  0  0  0  0  0  0
   17.5850  -53.7830   39.7180 H   0  0  0  0  0  0  0  0  0  0  0  0
   17.9510  -55.4890   39.2110 H   0  0  0  0  0  0  0  0  0  0  0  0
   18.5110  -53.0680   35.0690 H   0  0  0  0  0  0  0  0  0  0  0  0
   19.9400  -53.7690   35.8200 H   0  0  0  0  0  0  0  0  0  0  0  0
   21.5630  -49.1940   36.5630 H   0  0  0  0  0  0  0  0  0  0  0  0
   19.8750  -48.5990   36.5760 H   0  0  0  0  0  0  0  0  0  0  0  0
   20.6620  -49.1990   35.0150 H   0  0  0  0  0  0  0  0  0  0  0  0
   13.8440  -60.6760   37.4290 H   0  0  0  0  0  0  0  0  0  0  0  0
   12.0130  -56.4460   39.7250 H   0  0  0  0  0  0  0  0  0  0  0  0
   11.5590  -55.9920   38.0610 H   0  0  0  0  0  0  0  0  0  0  0  0
   10.8650  -57.5110   38.7270 H   0  0  0  0  0  0  0  0  0  0  0  0
  1  2  1  0  0  0  0
  2  3  2  0  0  0  0
  2  7  1  0  0  0  0
  3  4  1  0  0  0  0
  4 33  1  0  0  0  0
  4  5  2  0  0  0  0
  5  8  1  0  0  0  0
  6  5  1  0  0  0  0
  6 34  1  0  0  0  0
  7  6  2  0  0  0  0
  8  9  1  0  0  0  0
  8 36  1  0  0  0  0
  9 10  1  0  0  0  0
  9 13  1  0  0  0  0
 10 11  2  0  0  0  0
 11 12  1  0  0  0  0
 11 25  1  0  0  0  0
 13 14  1  0  0  0  0
 13 12  2  0  0  0  0
 14 19  1  0  0  0  0
 15 14  1  0  0  0  0
 15 39  1  0  0  0  0
 16 15  1  0  0  0  0
 16 41  1  0  0  0  0
 17 16  1  0  0  0  0
 17 18  1  0  0  0  0
 18 42  1  0  0  0  0
 18 19  1  0  0  0  0
 19 45  1  0  0  0  0
 19 44  1  0  0  0  0
 20 17  1  0  0  0  0
 21 20  1  0  0  0  0
 21 23  1  0  0  0  0
 22 21  2  0  0  0  0
 24 23  1  0  0  0  0
 24 48  1  0  0  0  0
 24 49  1  0  0  0  0
 25 31  1  0  0  0  0
 26 27  2  0  0  0  0
 26 25  1  0  0  0  0
 28 26  1  0  0  0  0
 29 28  1  0  0  0  0
 29 10  1  0  0  0  0
 30 29  2  0  0  0  0
 31 52  1  0  0  0  0
 32  3  1  0  0  0  0
 35  7  1  0  0  0  0
 37  8  1  0  0  0  0
 38 15  1  0  0  0  0
 40 16  1  0  0  0  0
 43 18  1  0  0  0  0
 46 20  1  0  0  0  0
 47 20  1  0  0  0  0
 50 24  1  0  0  0  0
 51 28  1  0  0  0  0
 53 31  1  0  0  0  0
 54 31  1  0  0  0  0
M  END
>  <Pose>
1

>  <Score>
-6.13

$$$$
