
 OpenBabel03232204043D

 48 51  0  0  0  0  0  0  0  0999 V2000
   12.1350  -59.5200   36.8570 B   0  0  0  0  0  0  0  0  0  0  0  0
   13.8310  -58.6640   36.7020 C   0  0  0  0  0  0  0  0  0  0  0  0
   14.7110  -58.9590   35.6660 C   0  0  0  0  0  0  0  0  0  0  0  0
   15.9420  -58.3060   35.6140 C   0  0  0  0  0  0  0  0  0  0  0  0
   16.3410  -57.3840   36.5300 C   0  0  0  0  0  0  0  0  0  0  0  0
   15.4180  -57.1180   37.5600 C   0  0  0  0  0  0  0  0  0  0  0  0
   14.1940  -57.7380   37.6520 C   0  0  0  0  0  0  0  0  0  0  0  0
   17.6170  -56.6980   36.5640 C   0  0  0  0  0  0  0  0  0  0  0  0
   18.0710  -56.0550   35.3550 N   0  0  0  0  0  0  0  0  0  0  0  0
   18.5030  -56.6590   34.2380 C   0  0  0  0  0  0  0  0  0  0  0  0
   18.8350  -55.6970   33.3100 C   0  0  0  0  0  0  0  0  0  0  0  0
   18.5940  -54.5330   33.8930 N   0  0  0  0  0  0  0  0  0  0  0  0
   18.1300  -54.7170   35.1370 C   0  0  0  0  0  0  0  0  0  0  0  0
   17.7560  -53.7000   36.0760 N   0  0  0  0  0  0  0  0  0  0  0  0
   18.6050  -52.5340   36.1790 C   0  0  0  0  0  0  0  0  0  0  0  0
   19.2140  -52.5250   37.5730 C   0  0  0  0  0  0  0  0  0  0  0  0
   18.4430  -53.2570   38.5210 N   0  0  0  0  0  0  0  0  0  0  0  0
   17.0350  -53.2790   38.3010 C   0  0  0  0  0  0  0  0  0  0  0  0
   16.6050  -53.7560   36.9380 C   0  0  0  0  0  0  0  0  0  0  0  0
   19.0260  -54.4150   39.0860 C   0  0  0  0  0  0  0  0  0  0  0  0
   19.3160  -55.9810   32.0740 N   0  0  0  0  0  0  0  0  0  0  0  0
   19.4710  -57.2790   31.7670 C   0  0  0  0  0  0  0  0  0  0  0  0
   19.9160  -57.5240   30.6170 O   0  0  0  0  0  0  0  0  0  0  0  0
   19.1680  -58.2640   32.6300 N   0  0  0  0  0  0  0  0  0  0  0  0
   18.6890  -57.9930   33.8590 C   0  0  0  0  0  0  0  0  0  0  0  0
   18.4030  -58.8760   34.6790 O   0  0  0  0  0  0  0  0  0  0  0  0
   19.6350  -54.9020   31.1630 C   0  0  0  0  0  0  0  0  0  0  0  0
   14.4370  -59.6810   34.9080 H   0  0  0  0  0  0  0  0  0  0  0  0
   16.5630  -58.5800   34.8040 H   0  0  0  0  0  0  0  0  0  0  0  0
   15.6480  -56.4000   38.3410 H   0  0  0  0  0  0  0  0  0  0  0  0
   13.5210  -57.4860   38.4800 H   0  0  0  0  0  0  0  0  0  0  0  0
   17.5590  -55.8760   37.3410 H   0  0  0  0  0  0  0  0  0  0  0  0
   18.4050  -57.4330   36.8610 H   0  0  0  0  0  0  0  0  0  0  0  0
   17.9330  -51.6290   36.0850 H   0  0  0  0  0  0  0  0  0  0  0  0
   19.3570  -52.4430   35.3830 H   0  0  0  0  0  0  0  0  0  0  0  0
   20.2130  -52.9970   37.4830 H   0  0  0  0  0  0  0  0  0  0  0  0
   19.3660  -51.4850   37.9170 H   0  0  0  0  0  0  0  0  0  0  0  0
   16.6290  -52.2410   38.4780 H   0  0  0  0  0  0  0  0  0  0  0  0
   16.5600  -53.9230   39.0670 H   0  0  0  0  0  0  0  0  0  0  0  0
   15.8320  -53.0330   36.5490 H   0  0  0  0  0  0  0  0  0  0  0  0
   16.1660  -54.7680   37.0260 H   0  0  0  0  0  0  0  0  0  0  0  0
   19.9040  -54.8220   38.5490 H   0  0  0  0  0  0  0  0  0  0  0  0
   18.2560  -55.2250   39.0870 H   0  0  0  0  0  0  0  0  0  0  0  0
   19.3170  -54.2850   40.1630 H   0  0  0  0  0  0  0  0  0  0  0  0
   19.2940  -59.2690   32.3830 H   0  0  0  0  0  0  0  0  0  0  0  0
   20.4540  -55.1850   30.4610 H   0  0  0  0  0  0  0  0  0  0  0  0
   19.8010  -53.9790   31.7130 H   0  0  0  0  0  0  0  0  0  0  0  0
   18.7450  -54.7570   30.5100 H   0  0  0  0  0  0  0  0  0  0  0  0
  2  1  1  0  0  0  0
  2  7  1  0  0  0  0
  3  2  2  0  0  0  0
  4  3  1  0  0  0  0
  4  5  2  0  0  0  0
  5  8  1  0  0  0  0
  5  6  1  0  0  0  0
  6  7  2  0  0  0  0
  6 30  1  0  0  0  0
  7 31  1  0  0  0  0
  8 33  1  0  0  0  0
  8 32  1  0  0  0  0
  9  8  1  0  0  0  0
 10  9  1  0  0  0  0
 11 12  1  0  0  0  0
 11 10  2  0  0  0  0
 12 13  2  0  0  0  0
 13  9  1  0  0  0  0
 13 14  1  0  0  0  0
 14 15  1  0  0  0  0
 14 19  1  0  0  0  0
 15 16  1  0  0  0  0
 16 37  1  0  0  0  0
 16 17  1  0  0  0  0
 17 20  1  0  0  0  0
 18 38  1  0  0  0  0
 18 17  1  0  0  0  0
 18 39  1  0  0  0  0
 19 41  1  0  0  0  0
 19 18  1  0  0  0  0
 20 43  1  0  0  0  0
 20 44  1  0  0  0  0
 21 11  1  0  0  0  0
 22 21  1  0  0  0  0
 22 24  1  0  0  0  0
 23 22  2  0  0  0  0
 24 25  1  0  0  0  0
 25 10  1  0  0  0  0
 25 26  2  0  0  0  0
 27 47  1  0  0  0  0
 27 21  1  0  0  0  0
 28  3  1  0  0  0  0
 29  4  1  0  0  0  0
 34 15  1  0  0  0  0
 35 15  1  0  0  0  0
 36 16  1  0  0  0  0
 40 19  1  0  0  0  0
 42 20  1  0  0  0  0
 45 24  1  0  0  0  0
 46 27  1  0  0  0  0
 48 27  1  0  0  0  0
M  END
>  <Pose>
1

>  <Score>
-5.98

$$$$
