
 OpenBabel03232204043D

 38 41  0  0  1  0  0  0  0  0999 V2000
   14.8550  -61.7320   34.0160 Cl  0  0  0  0  0  0  0  0  0  0  0  0
   14.7090  -59.9900   33.9120 C   0  0  0  0  0  0  0  0  0  0  0  0
   15.8470  -59.1840   33.8680 C   0  0  0  0  0  0  0  0  0  0  0  0
   15.7760  -57.8250   33.7870 C   0  0  0  0  0  0  0  0  0  0  0  0
   14.5040  -57.2720   33.7490 C   0  0  0  0  0  0  0  0  0  0  0  0
   13.3680  -58.0510   33.7900 C   0  0  0  0  0  0  0  0  0  0  0  0
   13.4600  -59.4220   33.8720 C   0  0  0  0  0  0  0  0  0  0  0  0
   17.1460  -57.2730   33.7600 C   0  0  2  0  0  0  0  0  0  0  0  0
   17.3840  -56.4060   34.9710 C   0  0  0  0  0  0  0  0  0  0  0  0
   17.7670  -55.1620   34.9000 C   0  0  0  0  0  0  0  0  0  0  0  0
   17.9930  -54.5150   33.6500 N   0  0  0  0  0  0  0  0  0  0  0  0
   17.7920  -55.2570   32.4600 C   0  0  0  0  0  0  0  0  0  0  0  0
   17.4070  -56.5120   32.5190 C   0  0  0  0  0  0  0  0  0  0  0  0
   17.2130  -57.2390   31.2720 C   0  0  0  0  0  0  0  0  0  0  0  0
   17.0750  -57.8220   30.2830 N   0  0  0  0  0  0  0  0  0  0  0  0
   18.0000  -54.6780   31.1690 N   0  0  0  0  0  0  0  0  0  0  0  0
   17.9000  -54.6250   36.2700 C   0  0  0  0  0  0  0  0  0  0  0  0
   17.5640  -55.6570   37.1120 O   0  0  0  0  0  0  0  0  0  0  0  0
   17.2400  -56.7720   36.3740 C   0  0  0  0  0  0  0  0  0  0  0  0
   16.8780  -57.9220   36.8040 O   0  0  0  0  0  0  0  0  0  0  0  0
   17.0230  -53.4000   36.4060 C   0  0  0  0  0  0  0  0  0  0  0  0
   19.3250  -54.2000   36.5740 C   0  0  0  0  0  0  0  0  0  0  0  0
   18.0250  -58.4640   33.8340 C   0  0  0  0  0  0  0  0  0  0  0  0
   19.3080  -58.4680   33.8400 O   0  0  0  0  0  0  0  0  0  0  0  0
   17.2000  -59.6050   33.8990 N   0  0  0  0  0  0  0  0  0  0  0  0
   14.3870  -56.2040   33.6850 H   0  0  0  0  0  0  0  0  0  0  0  0
   12.3650  -57.6250   33.7610 H   0  0  0  0  0  0  0  0  0  0  0  0
   12.5880  -60.0610   33.9070 H   0  0  0  0  0  0  0  0  0  0  0  0
   18.2980  -53.5210   33.5860 H   0  0  0  0  0  0  0  0  0  0  0  0
   17.2330  -54.6260   30.4860 H   0  0  0  0  0  0  0  0  0  0  0  0
   18.9330  -54.3150   30.9400 H   0  0  0  0  0  0  0  0  0  0  0  0
   16.9680  -53.0500   37.4520 H   0  0  0  0  0  0  0  0  0  0  0  0
   16.0520  -53.5070   35.9100 H   0  0  0  0  0  0  0  0  0  0  0  0
   17.5600  -52.5780   35.8500 H   0  0  0  0  0  0  0  0  0  0  0  0
   19.9710  -55.0470   36.2070 H   0  0  0  0  0  0  0  0  0  0  0  0
   19.4100  -54.1270   37.6760 H   0  0  0  0  0  0  0  0  0  0  0  0
   19.5910  -53.2370   36.1330 H   0  0  0  0  0  0  0  0  0  0  0  0
   17.5720  -60.6020   33.9590 H   0  0  0  0  0  0  0  0  0  0  0  0
  2  1  1  0  0  0  0
  3 25  1  0  0  0  0
  3  2  2  0  0  0  0
  4  3  1  0  0  0  0
  5  4  2  0  0  0  0
  5  6  1  0  0  0  0
  6  7  2  0  0  0  0
  7 28  1  0  0  0  0
  7  2  1  0  0  0  0
  8 13  1  6  0  0  0
  8  4  1  0  0  0  0
  8 23  1  0  0  0  0
  8  9  1  0  0  0  0
  9 19  1  0  0  0  0
 10  9  2  0  0  0  0
 10 17  1  0  0  0  0
 11 10  1  0  0  0  0
 12 13  2  0  0  0  0
 12 11  1  0  0  0  0
 14 13  1  0  0  0  0
 15 14  3  0  0  0  0
 16 12  1  0  0  0  0
 17 21  1  0  0  0  0
 17 22  1  0  0  0  0
 17 18  1  0  0  0  0
 19 20  2  0  0  0  0
 19 18  1  0  0  0  0
 21 32  1  0  0  0  0
 22 36  1  0  0  0  0
 23 24  2  0  0  0  0
 23 25  1  0  0  0  0
 25 38  1  0  0  0  0
 26  5  1  0  0  0  0
 27  6  1  0  0  0  0
 29 11  1  0  0  0  0
 30 16  1  0  0  0  0
 31 16  1  0  0  0  0
 33 21  1  0  0  0  0
 34 21  1  0  0  0  0
 35 22  1  0  0  0  0
 37 22  1  0  0  0  0
M  END
>  <Pose>
1

>  <Score>
-5.01

$$$$
