
 OpenBabel03232204043D

 36 39  0  0  1  0  0  0  0  0999 V2000
   20.3680  -50.7620   35.9870 Cl  0  0  0  0  0  0  0  0  0  0  0  0
   19.3530  -51.9140   36.8380 C   0  0  0  0  0  0  0  0  0  0  0  0
   19.5640  -53.2700   36.7040 C   0  0  0  0  0  0  0  0  0  0  0  0
   18.7580  -54.1710   37.3790 C   0  0  0  0  0  0  0  0  0  0  0  0
   17.7250  -53.7790   38.2030 C   0  0  0  0  0  0  0  0  0  0  0  0
   17.5200  -52.4130   38.3310 C   0  0  0  0  0  0  0  0  0  0  0  0
   18.3220  -51.5090   37.6600 C   0  0  0  0  0  0  0  0  0  0  0  0
   16.8880  -54.7010   38.9030 N   0  0  0  0  0  0  0  0  0  0  0  0
   15.5280  -54.5160   39.3260 C   0  0  0  0  0  0  0  0  0  0  0  0
   14.8420  -53.4740   39.1820 O   0  0  0  0  0  0  0  0  0  0  0  0
   15.0300  -55.7510   39.9760 C   0  0  1  0  0  0  0  0  0  0  0  0
   13.8170  -56.1800   39.4490 O   0  0  0  0  0  0  0  0  0  0  0  0
   14.0230  -56.5540   38.1970 N   0  0  1  0  0  0  0  0  0  0  0  0
   15.3550  -56.9180   37.9890 C   0  0  1  0  0  0  0  0  0  0  0  0
   15.9780  -56.7860   39.3790 C   0  0  1  0  0  0  0  0  0  0  0  0
   17.2430  -56.0150   39.3300 C   0  0  0  0  0  0  0  0  0  0  0  0
   18.4260  -56.3840   39.5970 O   0  0  0  0  0  0  0  0  0  0  0  0
   15.6610  -58.2040   37.3450 C   0  0  0  0  0  0  0  0  0  0  0  0
   14.5310  -59.0350   36.8800 C   0  0  0  0  0  0  0  0  0  0  0  0
   13.4160  -58.1260   36.4140 C   0  0  0  0  0  0  0  0  0  0  0  0
   12.9970  -57.3150   37.6130 C   0  0  0  0  0  0  0  0  0  0  0  0
   20.3750  -53.6360   36.0600 H   0  0  0  0  0  0  0  0  0  0  0  0
   18.9180  -55.2330   37.2790 H   0  0  0  0  0  0  0  0  0  0  0  0
   16.7080  -52.0960   38.9790 H   0  0  0  0  0  0  0  0  0  0  0  0
   18.1640  -50.4490   37.7580 H   0  0  0  0  0  0  0  0  0  0  0  0
   15.0520  -55.7320   41.0610 H   0  0  0  0  0  0  0  0  0  0  0  0
   15.8430  -56.0960   37.3820 H   0  0  0  0  0  0  0  0  0  0  0  0
   16.0240  -57.7110   39.9340 H   0  0  0  0  0  0  0  0  0  0  0  0
   16.2550  -58.8280   38.0780 H   0  0  0  0  0  0  0  0  0  0  0  0
   16.3790  -58.0850   36.4800 H   0  0  0  0  0  0  0  0  0  0  0  0
   14.8320  -59.6450   35.9950 H   0  0  0  0  0  0  0  0  0  0  0  0
   14.0990  -59.7110   37.6460 H   0  0  0  0  0  0  0  0  0  0  0  0
   12.5630  -58.7710   36.1260 H   0  0  0  0  0  0  0  0  0  0  0  0
   13.6950  -57.5140   35.5520 H   0  0  0  0  0  0  0  0  0  0  0  0
   12.4970  -58.0120   38.3320 H   0  0  0  0  0  0  0  0  0  0  0  0
   12.1800  -56.6240   37.2620 H   0  0  0  0  0  0  0  0  0  0  0  0
  1  2  1  0  0  0  0
  2  7  1  0  0  0  0
  3  2  2  0  0  0  0
  3  4  1  0  0  0  0
  4  5  2  0  0  0  0
  5  6  1  0  0  0  0
  5  8  1  0  0  0  0
  6 24  1  0  0  0  0
  7 25  1  0  0  0  0
  7  6  2  0  0  0  0
  8  9  1  0  0  0  0
  8 16  1  0  0  0  0
  9 11  1  0  0  0  0
 10  9  2  0  0  0  0
 11 26  1  1  0  0  0
 12 11  1  0  0  0  0
 13 12  1  1  0  0  0
 14 27  1  6  0  0  0
 14 13  1  0  0  0  0
 14 15  1  0  0  0  0
 15 28  1  1  0  0  0
 15 11  1  0  0  0  0
 16 15  1  0  0  0  0
 16 17  2  0  0  0  0
 18 14  1  0  0  0  0
 18 29  1  0  0  0  0
 19 18  1  0  0  0  0
 19 32  1  0  0  0  0
 20 19  1  0  0  0  0
 20 21  1  0  0  0  0
 21 13  1  0  0  0  0
 21 35  1  0  0  0  0
 22  3  1  0  0  0  0
 23  4  1  0  0  0  0
 30 18  1  0  0  0  0
 31 19  1  0  0  0  0
 33 20  1  0  0  0  0
 34 20  1  0  0  0  0
 36 21  1  0  0  0  0
M  END
>  <Pose>
1

>  <Score>
-4.31

$$$$
