
 OpenBabel03232204043D

 52 55  0  0  0  0  0  0  0  0999 V2000
   23.8480  -54.7560   28.7450 B   0  0  0  0  0  0  0  0  0  0  0  0
   22.3240  -55.8880   28.8490 C   0  0  0  0  0  0  0  0  0  0  0  0
   22.4350  -57.1820   28.3640 C   0  0  0  0  0  0  0  0  0  0  0  0
   21.3120  -57.9830   28.4450 C   0  0  0  0  0  0  0  0  0  0  0  0
   20.1420  -57.5130   28.9830 C   0  0  0  0  0  0  0  0  0  0  0  0
   20.0070  -56.2170   29.4800 C   0  0  0  0  0  0  0  0  0  0  0  0
   21.1360  -55.4320   29.3900 C   0  0  0  0  0  0  0  0  0  0  0  0
   18.7490  -55.7900   30.0560 C   0  0  0  0  0  0  0  0  0  0  0  0
   18.3090  -56.2680   31.1690 N   0  0  0  0  0  0  0  0  0  0  0  0
   17.1110  -55.8930   31.7560 N   0  0  0  0  0  0  0  0  0  0  0  0
   16.9370  -55.9860   33.1650 C   0  0  0  0  0  0  0  0  0  0  0  0
   17.4090  -55.0390   33.9600 N   0  0  0  0  0  4  0  0  0  0  0  0
   17.2650  -55.0310   35.2970 C   0  0  0  0  0  0  0  0  0  0  0  0
   16.5900  -56.0680   35.8390 N   0  0  0  0  0  0  0  0  0  0  0  0
   16.0830  -57.0720   35.0750 C   0  0  0  0  0  0  0  0  0  0  0  0
   16.2680  -57.0120   33.7330 N   0  0  0  0  0  0  0  0  0  0  0  0
   15.3670  -58.1400   35.6520 N   0  0  0  0  0  0  0  0  0  0  0  0
   15.5060  -58.4670   37.0480 C   0  0  0  0  0  0  0  0  0  0  0  0
   14.0740  -58.4910   37.6030 C   0  0  0  0  0  0  0  0  0  0  0  0
   13.3060  -59.3320   36.8230 O   0  0  0  0  0  0  0  0  0  0  0  0
   13.0940  -58.7730   35.5630 C   0  0  0  0  0  0  0  0  0  0  0  0
   14.4560  -58.9170   34.8510 C   0  0  0  0  0  0  0  0  0  0  0  0
   17.7920  -53.9770   36.1200 N   0  0  0  0  0  0  0  0  0  0  0  0
   17.2620  -53.7140   37.4270 C   0  0  0  0  0  0  0  0  0  0  0  0
   18.0330  -52.7870   38.2830 C   0  0  0  0  0  0  0  0  0  0  0  0
   18.9610  -52.0100   37.6030 O   0  0  0  0  0  0  0  0  0  0  0  0
   19.7520  -52.7680   36.7500 C   0  0  0  0  0  0  0  0  0  0  0  0
   18.8700  -53.1890   35.6000 C   0  0  0  0  0  0  0  0  0  0  0  0
   19.0090  -58.3300   29.0610 O   0  0  0  0  0  0  0  0  0  0  0  0
   23.6190  -57.6690   27.8140 O   0  0  0  0  0  0  0  0  0  0  0  0
   21.4180  -59.0010   28.0550 H   0  0  0  0  0  0  0  0  0  0  0  0
   21.0450  -54.4060   29.7750 H   0  0  0  0  0  0  0  0  0  0  0  0
   18.1540  -55.0500   29.5460 H   0  0  0  0  0  0  0  0  0  0  0  0
   16.3390  -55.5470   31.1750 H   0  0  0  0  0  0  0  0  0  0  0  0
   15.9550  -59.4750   37.1560 H   0  0  0  0  0  0  0  0  0  0  0  0
   16.1000  -57.6920   37.5950 H   0  0  0  0  0  0  0  0  0  0  0  0
   14.1270  -58.8120   38.6580 H   0  0  0  0  0  0  0  0  0  0  0  0
   13.7080  -57.4360   37.5450 H   0  0  0  0  0  0  0  0  0  0  0  0
   12.9550  -57.6600   35.7060 H   0  0  0  0  0  0  0  0  0  0  0  0
   12.2810  -59.2420   35.0170 H   0  0  0  0  0  0  0  0  0  0  0  0
   14.7380  -60.0010   34.9910 H   0  0  0  0  0  0  0  0  0  0  0  0
   14.4050  -58.6210   33.7980 H   0  0  0  0  0  0  0  0  0  0  0  0
   16.2070  -53.3510   37.2790 H   0  0  0  0  0  0  0  0  0  0  0  0
   17.2000  -54.7150   37.9570 H   0  0  0  0  0  0  0  0  0  0  0  0
   18.5360  -53.3400   39.1170 H   0  0  0  0  0  0  0  0  0  0  0  0
   17.3180  -52.0780   38.7740 H   0  0  0  0  0  0  0  0  0  0  0  0
   20.6040  -52.1540   36.4470 H   0  0  0  0  0  0  0  0  0  0  0  0
   20.1020  -53.7230   37.2250 H   0  0  0  0  0  0  0  0  0  0  0  0
   19.5370  -53.7890   34.9260 H   0  0  0  0  0  0  0  0  0  0  0  0
   18.5090  -52.3220   35.0070 H   0  0  0  0  0  0  0  0  0  0  0  0
   18.1460  -57.9220   29.4080 H   0  0  0  0  0  0  0  0  0  0  0  0
   24.5360  -57.3430   28.0790 H   0  0  0  0  0  0  0  0  0  0  0  0
  1  2  1  0  0  0  0
  2  7  1  0  0  0  0
  3  4  1  0  0  0  0
  3  2  2  0  0  0  0
  4  5  2  0  0  0  0
  5 29  1  0  0  0  0
  5  6  1  0  0  0  0
  6  8  1  0  0  0  0
  7  6  2  0  0  0  0
  7 32  1  0  0  0  0
  8  9  2  0  0  0  0
  9 10  1  0  0  0  0
 10 11  1  0  0  0  0
 11 16  1  0  0  0  0
 11 12  2  0  0  0  0
 12 13  2  0  0  0  0
 13 14  1  0  0  0  0
 13 23  1  0  0  0  0
 15 17  1  0  0  0  0
 15 14  2  0  0  0  0
 16 15  1  0  0  0  0
 17 18  1  0  0  0  0
 18 35  1  0  0  0  0
 18 36  1  0  0  0  0
 18 19  1  0  0  0  0
 19 37  1  0  0  0  0
 20 19  1  0  0  0  0
 21 39  1  0  0  0  0
 21 20  1  0  0  0  0
 22 41  1  0  0  0  0
 22 21  1  0  0  0  0
 22 17  1  0  0  0  0
 23 24  1  0  0  0  0
 24 44  1  0  0  0  0
 24 25  1  0  0  0  0
 25 46  1  0  0  0  0
 25 45  1  0  0  0  0
 26 25  1  0  0  0  0
 27 48  1  0  0  0  0
 27 26  1  0  0  0  0
 28 23  1  0  0  0  0
 28 27  1  0  0  0  0
 29 51  1  0  0  0  0
 30 52  1  0  0  0  0
 30  3  1  0  0  0  0
 31  4  1  0  0  0  0
 33  8  1  0  0  0  0
 34 10  1  0  0  0  0
 38 19  1  0  0  0  0
 40 21  1  0  0  0  0
 42 22  1  0  0  0  0
 43 24  1  0  0  0  0
 47 27  1  0  0  0  0
 49 28  1  0  0  0  0
 50 28  1  0  0  0  0
M  END
>  <Pose>
1

>  <Score>
-7.20

$$$$
