
 OpenBabel03232204043D

 46 49  0  0  0  0  0  0  0  0999 V2000
   17.2720  -56.2800   34.8480 Cl  0  0  0  0  0  0  0  0  0  0  0  0
   18.3700  -54.9100   34.7790 C   0  0  0  0  0  0  0  0  0  0  0  0
   18.3220  -53.9670   35.8010 C   0  0  0  0  0  0  0  0  0  0  0  0
   19.1920  -52.8870   35.7430 C   0  0  0  0  0  0  0  0  0  0  0  0
   20.0710  -52.8030   34.6610 C   0  0  0  0  0  0  0  0  0  0  0  0
   20.1050  -53.7360   33.6660 C   0  0  0  0  0  0  0  0  0  0  0  0
   19.2520  -54.7960   33.7200 C   0  0  0  0  0  0  0  0  0  0  0  0
   20.7400  -51.7120   34.8770 O   0  0  0  0  0  0  0  0  0  0  0  0
   20.3620  -51.1170   35.9790 C   0  0  0  0  0  0  0  0  0  0  0  0
   20.8650  -50.0410   36.4010 O   0  0  0  0  0  0  0  0  0  0  0  0
   19.3830  -51.8400   36.5500 N   0  0  0  0  0  0  0  0  0  0  0  0
   18.7290  -51.4840   37.7760 C   0  0  0  0  0  0  0  0  0  0  0  0
   18.0510  -52.6700   38.3670 C   0  0  0  0  0  0  0  0  0  0  0  0
   18.6690  -53.6930   38.9820 N   0  0  0  0  0  0  0  0  0  0  0  0
   17.8020  -54.5890   39.3610 O   0  0  0  0  0  0  0  0  0  0  0  0
   16.6120  -54.1550   38.9970 C   0  0  0  0  0  0  0  0  0  0  0  0
   16.7470  -52.9750   38.3840 N   0  0  0  0  0  0  0  0  0  0  0  0
   15.3700  -54.9500   39.2760 C   0  0  0  0  0  0  0  0  0  0  0  0
   14.5700  -54.2870   40.0220 O   0  0  0  0  0  0  0  0  0  0  0  0
   15.2190  -56.1830   38.7590 N   0  0  0  0  0  0  0  0  0  0  0  0
   15.0760  -57.4560   38.2400 C   0  0  0  0  0  0  0  0  0  0  0  0
   13.6460  -57.7700   37.7830 C   0  0  0  0  0  0  0  0  0  0  0  0
   13.5540  -58.5870   36.6380 N   0  0  0  0  0  0  0  0  0  0  0  0
   13.9220  -57.8820   35.4740 C   0  0  0  0  0  0  0  0  0  0  0  0
   13.2870  -58.4160   34.2340 C   0  0  0  0  0  0  0  0  0  0  0  0
   13.2980  -59.7870   34.2810 O   0  0  0  0  0  0  0  0  0  0  0  0
   12.4920  -60.3220   35.2680 C   0  0  0  0  0  0  0  0  0  0  0  0
   12.5480  -59.5650   36.5630 C   0  0  0  0  0  0  0  0  0  0  0  0
   17.6600  -54.0210   36.6350 H   0  0  0  0  0  0  0  0  0  0  0  0
   20.8130  -53.6270   32.8440 H   0  0  0  0  0  0  0  0  0  0  0  0
   19.2790  -55.5420   32.9240 H   0  0  0  0  0  0  0  0  0  0  0  0
   18.0200  -50.6620   37.5710 H   0  0  0  0  0  0  0  0  0  0  0  0
   19.4350  -51.0810   38.5360 H   0  0  0  0  0  0  0  0  0  0  0  0
   16.0130  -56.6890   39.7570 H   0  0  0  0  0  0  0  0  0  0  0  0
   15.2630  -58.2420   39.0340 H   0  0  0  0  0  0  0  0  0  0  0  0
   15.7200  -57.7210   37.3850 H   0  0  0  0  0  0  0  0  0  0  0  0
   13.0550  -56.8490   37.5950 H   0  0  0  0  0  0  0  0  0  0  0  0
   13.1650  -58.2830   38.6360 H   0  0  0  0  0  0  0  0  0  0  0  0
   13.7390  -56.7910   35.5850 H   0  0  0  0  0  0  0  0  0  0  0  0
   15.0390  -57.9700   35.3090 H   0  0  0  0  0  0  0  0  0  0  0  0
   12.2640  -58.0220   34.0740 H   0  0  0  0  0  0  0  0  0  0  0  0
   13.9060  -58.1390   33.3270 H   0  0  0  0  0  0  0  0  0  0  0  0
   12.7740  -61.3970   35.3900 H   0  0  0  0  0  0  0  0  0  0  0  0
   11.4500  -60.3070   34.8990 H   0  0  0  0  0  0  0  0  0  0  0  0
   12.6550  -60.3550   37.3680 H   0  0  0  0  0  0  0  0  0  0  0  0
   11.5740  -59.0800   36.7670 H   0  0  0  0  0  0  0  0  0  0  0  0
  2  1  1  0  0  0  0
  2  3  1  0  0  0  0
  3 29  1  0  0  0  0
  4  3  2  0  0  0  0
  4 11  1  0  0  0  0
  5  8  1  0  0  0  0
  5  4  1  0  0  0  0
  6  7  1  0  0  0  0
  6  5  2  0  0  0  0
  7  2  2  0  0  0  0
  8  9  1  0  0  0  0
  9 10  2  0  0  0  0
  9 11  1  0  0  0  0
 11 12  1  0  0  0  0
 12 13  1  0  0  0  0
 12 33  1  0  0  0  0
 13 17  1  0  0  0  0
 13 14  2  0  0  0  0
 14 15  1  0  0  0  0
 16 18  1  0  0  0  0
 16 15  1  0  0  0  0
 17 16  2  0  0  0  0
 18 19  2  0  0  0  0
 20 18  1  0  0  0  0
 20 34  1  0  0  0  0
 21 20  1  0  0  0  0
 21 35  1  0  0  0  0
 22 21  1  0  0  0  0
 22 38  1  0  0  0  0
 23 22  1  0  0  0  0
 24 39  1  0  0  0  0
 24 23  1  0  0  0  0
 25 26  1  0  0  0  0
 25 24  1  0  0  0  0
 26 27  1  0  0  0  0
 27 43  1  0  0  0  0
 27 28  1  0  0  0  0
 28 23  1  0  0  0  0
 28 46  1  0  0  0  0
 28 45  1  0  0  0  0
 30  6  1  0  0  0  0
 31  7  1  0  0  0  0
 32 12  1  0  0  0  0
 36 21  1  0  0  0  0
 37 22  1  0  0  0  0
 40 24  1  0  0  0  0
 41 25  1  0  0  0  0
 42 25  1  0  0  0  0
 44 27  1  0  0  0  0
M  END
>  <Pose>
1

>  <Score>
-7.20

$$$$
