
 OpenBabel03232204043D

 41 45  0  0  1  0  0  0  0  0999 V2000
   18.9330  -51.4090   37.3550 Cl  0  0  0  0  0  0  0  0  0  0  0  0
   18.2490  -52.9800   36.9240 C   0  0  0  0  0  0  0  0  0  0  0  0
   18.3740  -53.4960   35.6570 C   0  0  0  0  0  0  0  0  0  0  0  0
   17.8300  -54.7310   35.3550 C   0  0  0  0  0  0  0  0  0  0  0  0
   17.1510  -55.4890   36.2780 C   0  0  0  0  0  0  0  0  0  0  0  0
   17.0240  -54.9730   37.5540 C   0  0  0  0  0  0  0  0  0  0  0  0
   17.5730  -53.7290   37.8600 C   0  0  0  0  0  0  0  0  0  0  0  0
   16.5850  -56.7690   35.9790 N   0  0  0  0  0  0  0  0  0  0  0  0
   15.3590  -57.3400   36.4090 C   0  0  0  0  0  0  0  0  0  0  0  0
   14.4700  -56.7410   37.0710 O   0  0  0  0  0  0  0  0  0  0  0  0
   15.2620  -58.7710   35.9660 C   0  0  1  0  0  0  0  0  0  0  0  0
   14.0380  -58.9980   35.1440 C   0  0  2  0  0  0  0  0  0  0  0  0
   14.5080  -59.6500   33.9770 O   0  0  0  0  0  0  0  0  0  0  0  0
   15.4980  -58.6890   33.6490 C   0  0  2  0  0  0  0  0  0  0  0  0
   16.3630  -58.8350   34.8970 C   0  0  1  0  0  0  0  0  0  0  0  0
   17.2470  -57.7050   35.1370 C   0  0  0  0  0  0  0  0  0  0  0  0
   18.4080  -57.5980   34.6640 O   0  0  0  0  0  0  0  0  0  0  0  0
   14.6870  -57.4490   33.6740 C   0  0  0  0  0  0  0  0  0  0  0  0
   13.6730  -57.6800   34.5330 C   0  0  0  0  0  0  0  0  0  0  0  0
   16.2020  -58.9530   32.3850 C   0  0  0  0  0  0  0  0  0  0  0  0
   12.9190  -59.6980   35.7880 C   0  0  0  0  0  0  0  0  0  0  0  0
   11.9040  -59.8730   34.8450 O   0  0  0  0  0  0  0  0  0  0  0  0
   12.1350  -61.0500   34.1790 C   0  0  0  0  0  0  0  0  0  0  0  0
   12.8970  -61.8610   35.1930 C   0  0  0  0  0  0  0  0  0  0  0  0
   13.3220  -60.9800   36.1620 O   0  0  0  0  0  0  0  0  0  0  0  0
   18.8970  -52.9310   34.9140 H   0  0  0  0  0  0  0  0  0  0  0  0
   17.9170  -55.1650   34.3520 H   0  0  0  0  0  0  0  0  0  0  0  0
   16.4950  -55.5370   38.3140 H   0  0  0  0  0  0  0  0  0  0  0  0
   17.4830  -53.3150   38.8500 H   0  0  0  0  0  0  0  0  0  0  0  0
   15.4270  -59.4790   36.7770 H   0  0  0  0  0  0  0  0  0  0  0  0
   16.8420  -59.8110   34.8650 H   0  0  0  0  0  0  0  0  0  0  0  0
   14.7990  -56.5080   33.1520 H   0  0  0  0  0  0  0  0  0  0  0  0
   12.8040  -57.0830   34.7530 H   0  0  0  0  0  0  0  0  0  0  0  0
   17.1850  -59.4680   32.4970 H   0  0  0  0  0  0  0  0  0  0  0  0
   16.4110  -58.0100   31.8050 H   0  0  0  0  0  0  0  0  0  0  0  0
   15.6220  -59.5890   31.6650 H   0  0  0  0  0  0  0  0  0  0  0  0
   12.5800  -59.1760   36.6820 H   0  0  0  0  0  0  0  0  0  0  0  0
   11.1280  -61.5010   33.9500 H   0  0  0  0  0  0  0  0  0  0  0  0
   12.6450  -60.9510   33.2130 H   0  0  0  0  0  0  0  0  0  0  0  0
   13.7420  -62.3480   34.6410 H   0  0  0  0  0  0  0  0  0  0  0  0
   12.1820  -62.6290   35.5870 H   0  0  0  0  0  0  0  0  0  0  0  0
  2  1  1  0  0  0  0
  2  7  1  0  0  0  0
  3  2  2  0  0  0  0
  4  3  1  0  0  0  0
  4  5  2  0  0  0  0
  5  6  1  0  0  0  0
  6  7  2  0  0  0  0
  6 28  1  0  0  0  0
  7 29  1  0  0  0  0
  8  5  1  0  0  0  0
  8  9  1  0  0  0  0
  9 10  2  0  0  0  0
 11  9  1  0  0  0  0
 11 30  1  1  0  0  0
 12 21  1  1  0  0  0
 12 11  1  0  0  0  0
 13 12  1  0  0  0  0
 14 20  1  6  0  0  0
 14 18  1  0  0  0  0
 14 13  1  0  0  0  0
 14 15  1  0  0  0  0
 15 31  1  1  0  0  0
 15 16  1  0  0  0  0
 15 11  1  0  0  0  0
 16  8  1  0  0  0  0
 17 16  2  0  0  0  0
 18 19  2  0  0  0  0
 19 33  1  0  0  0  0
 19 12  1  0  0  0  0
 20 34  1  0  0  0  0
 21 25  1  0  0  0  0
 21 37  1  0  0  0  0
 22 21  1  0  0  0  0
 23 22  1  0  0  0  0
 23 24  1  0  0  0  0
 24 41  1  0  0  0  0
 24 25  1  0  0  0  0
 26  3  1  0  0  0  0
 27  4  1  0  0  0  0
 32 18  1  0  0  0  0
 35 20  1  0  0  0  0
 36 20  1  0  0  0  0
 38 23  1  0  0  0  0
 39 23  1  0  0  0  0
 40 24  1  0  0  0  0
M  END
>  <Pose>
1

>  <Score>
-4.89

$$$$
