
 OpenBabel03232204043D

 49 52  0  0  0  0  0  0  0  0999 V2000
   22.7030  -56.9400   28.7280 Cl  0  0  0  0  0  0  0  0  0  0  0  0
   21.1100  -56.6170   29.4250 C   0  0  0  0  0  0  0  0  0  0  0  0
   20.8810  -55.4680   30.1370 C   0  0  0  0  0  0  0  0  0  0  0  0
   19.6150  -55.2920   30.6510 C   0  0  0  0  0  0  0  0  0  0  0  0
   18.6050  -56.2320   30.4640 C   0  0  0  0  0  0  0  0  0  0  0  0
   18.8860  -57.3790   29.7360 C   0  0  0  0  0  0  0  0  0  0  0  0
   20.1470  -57.5670   29.2170 C   0  0  0  0  0  0  0  0  0  0  0  0
   17.3060  -56.0230   31.0080 N   0  0  0  0  0  0  0  0  0  0  0  0
   16.9830  -56.0240   32.3760 C   0  0  0  0  0  0  0  0  0  0  0  0
   15.9610  -56.6690   32.7360 O   0  0  0  0  0  0  0  0  0  0  0  0
   17.7280  -55.3480   33.3610 N   0  0  0  0  0  0  0  0  0  0  0  0
   17.9490  -55.7600   34.6700 N   0  0  0  0  0  0  0  0  0  0  0  0
   17.6560  -54.8590   35.7210 C   0  0  0  0  0  0  0  0  0  0  0  0
   18.3440  -53.7960   35.8390 O   0  0  0  0  0  0  0  0  0  0  0  0
   16.5830  -55.1690   36.6460 C   0  0  0  0  0  0  0  0  0  0  0  0
   15.7680  -56.1880   36.5270 N   0  0  0  0  0  0  0  0  0  0  0  0
   14.8460  -56.2470   37.5410 N   0  0  0  0  0  0  0  0  0  0  0  0
   15.1260  -55.1300   38.3860 C   0  0  0  0  0  0  0  0  0  0  0  0
   14.5800  -54.6920   39.4810 N   0  0  0  0  0  0  0  0  0  0  0  0
   15.0580  -53.5320   40.1450 N   0  0  0  0  0  0  0  0  0  0  0  0
   16.1500  -52.7910   39.6570 C   0  0  0  0  0  0  0  0  0  0  0  0
   16.6130  -51.7110   40.2710 C   0  0  0  0  0  0  0  0  0  0  0  0
   16.7760  -53.2650   38.4280 C   0  0  0  0  0  0  0  0  0  0  0  0
   17.7360  -52.6290   37.9810 O   0  0  0  0  0  0  0  0  0  0  0  0
   16.2370  -54.4390   37.8180 N   0  0  0  0  0  0  0  0  0  0  0  0
   13.8560  -57.2550   37.7260 C   0  0  0  0  0  0  0  0  0  0  0  0
   13.4840  -58.0900   36.7010 C   0  0  0  0  0  0  0  0  0  0  0  0
   12.5560  -59.1140   36.8370 C   0  0  0  0  0  0  0  0  0  0  0  0
   11.9530  -59.3360   38.0590 C   0  0  0  0  0  0  0  0  0  0  0  0
   12.3080  -58.5080   39.1030 C   0  0  0  0  0  0  0  0  0  0  0  0
   13.2430  -57.4870   38.9360 C   0  0  0  0  0  0  0  0  0  0  0  0
   10.9770  -60.4500   38.2600 C   0  0  0  0  0  0  0  0  0  0  0  0
   21.6650  -54.7230   30.2900 H   0  0  0  0  0  0  0  0  0  0  0  0
   19.3810  -54.3910   31.2280 H   0  0  0  0  0  0  0  0  0  0  0  0
   18.0710  -58.0890   29.6070 H   0  0  0  0  0  0  0  0  0  0  0  0
   20.3430  -58.4790   28.6380 H   0  0  0  0  0  0  0  0  0  0  0  0
   16.5480  -55.8600   30.2990 H   0  0  0  0  0  0  0  0  0  0  0  0
   18.2010  -54.4170   33.1170 H   0  0  0  0  0  0  0  0  0  0  0  0
   18.3120  -56.7110   34.8340 H   0  0  0  0  0  0  0  0  0  0  0  0
   14.5470  -53.2670   41.0170 H   0  0  0  0  0  0  0  0  0  0  0  0
   16.1930  -51.3220   41.1830 H   0  0  0  0  0  0  0  0  0  0  0  0
   17.4630  -51.1710   39.8670 H   0  0  0  0  0  0  0  0  0  0  0  0
   13.9610  -57.9210   35.7260 H   0  0  0  0  0  0  0  0  0  0  0  0
   12.2880  -59.7480   36.0120 H   0  0  0  0  0  0  0  0  0  0  0  0
   11.8190  -58.6900   40.0590 H   0  0  0  0  0  0  0  0  0  0  0  0
   13.5000  -56.8480   39.7780 H   0  0  0  0  0  0  0  0  0  0  0  0
    9.9790  -60.2430   37.8670 H   0  0  0  0  0  0  0  0  0  0  0  0
   10.8920  -60.7450   39.3130 H   0  0  0  0  0  0  0  0  0  0  0  0
   11.3610  -61.3810   37.7370 H   0  0  0  0  0  0  0  0  0  0  0  0
  1  2  1  0  0  0  0
  2  3  1  0  0  0  0
  3 33  1  0  0  0  0
  3  4  2  0  0  0  0
  4 34  1  0  0  0  0
  5  4  1  0  0  0  0
  5  8  1  0  0  0  0
  6  5  2  0  0  0  0
  7  2  2  0  0  0  0
  7  6  1  0  0  0  0
  8  9  1  0  0  0  0
  9 10  2  0  0  0  0
  9 11  1  0  0  0  0
 11 12  1  0  0  0  0
 12 39  1  0  0  0  0
 12 13  1  0  0  0  0
 13 14  2  0  0  0  0
 13 15  1  0  0  0  0
 15 25  1  0  0  0  0
 16 15  2  0  0  0  0
 16 17  1  0  0  0  0
 17 26  1  0  0  0  0
 17 18  1  0  0  0  0
 18 19  2  0  0  0  0
 19 20  1  0  0  0  0
 20 40  1  0  0  0  0
 21 20  1  0  0  0  0
 21 22  2  0  0  0  0
 22 41  1  0  0  0  0
 23 21  1  0  0  0  0
 24 23  2  0  0  0  0
 25 18  1  0  0  0  0
 25 23  1  0  0  0  0
 26 31  1  0  0  0  0
 27 28  1  0  0  0  0
 27 26  2  0  0  0  0
 28 29  2  0  0  0  0
 29 32  1  0  0  0  0
 29 30  1  0  0  0  0
 30 45  1  0  0  0  0
 31 30  2  0  0  0  0
 31 46  1  0  0  0  0
 32 48  1  0  0  0  0
 35  6  1  0  0  0  0
 36  7  1  0  0  0  0
 37  8  1  0  0  0  0
 38 11  1  0  0  0  0
 42 22  1  0  0  0  0
 43 27  1  0  0  0  0
 44 28  1  0  0  0  0
 47 32  1  0  0  0  0
 49 32  1  0  0  0  0
M  END
>  <Pose>
1

>  <Score>
-8.81

$$$$
