
 OpenBabel03232204043D

 53 57  0  0  1  0  0  0  0  0999 V2000
   16.5180  -61.6580   33.1370 Cl  0  0  0  0  0  0  0  0  0  0  0  0
   16.1850  -60.0270   33.6810 C   0  0  0  0  0  0  0  0  0  0  0  0
   17.0900  -58.9950   33.5430 C   0  0  0  0  0  0  0  0  0  0  0  0
   16.7930  -57.7110   33.9870 C   0  0  0  0  0  0  0  0  0  0  0  0
   15.5650  -57.5290   34.5620 C   0  0  0  0  0  0  0  0  0  0  0  0
   14.6500  -58.5440   34.7080 C   0  0  0  0  0  0  0  0  0  0  0  0
   14.9450  -59.8010   34.2710 C   0  0  0  0  0  0  0  0  0  0  0  0
   17.9470  -56.8520   33.6990 C   0  0  2  0  0  0  0  0  0  0  0  0
   18.4920  -56.2330   34.8940 N   0  0  0  0  0  0  0  0  0  0  0  0
   19.3350  -55.1750   34.3300 C   0  0  1  0  0  0  0  0  0  0  0  0
   18.6380  -54.6710   33.1240 C   0  0  2  0  0  0  0  0  0  0  0  0
   17.5400  -55.6560   32.8800 C   0  0  1  0  0  0  0  0  0  0  0  0
   17.4750  -55.9360   31.4430 C   0  0  0  0  0  0  0  0  0  0  0  0
   16.5070  -56.5100   30.8840 O   0  0  0  0  0  0  0  0  0  0  0  0
   18.6790  -55.4390   30.8740 N   0  0  0  0  0  0  0  0  0  0  0  0
   19.4790  -54.8330   31.8800 C   0  0  0  0  0  0  0  0  0  0  0  0
   20.6840  -54.4660   31.8190 O   0  0  0  0  0  0  0  0  0  0  0  0
   19.0310  -55.5440   29.4600 C   0  0  0  0  0  0  0  0  0  0  0  0
   20.2610  -56.4330   29.3480 C   0  0  0  0  0  0  0  0  0  0  0  0
   21.2520  -55.8130   28.6050 O   0  0  0  0  0  0  0  0  0  0  0  0
   22.4510  -55.8810   29.2880 C   0  0  0  0  0  0  0  0  0  0  0  0
   19.5710  -54.0800   35.3260 C   0  0  0  0  0  0  0  0  0  0  0  0
   18.6230  -54.0590   36.4510 C   0  0  0  0  0  0  0  0  0  0  0  0
   19.1370  -54.2430   37.7330 C   0  0  0  0  0  0  0  0  0  0  0  0
   18.2820  -54.2070   38.8040 C   0  0  0  0  0  0  0  0  0  0  0  0
   16.9300  -53.9970   38.6730 C   0  0  0  0  0  0  0  0  0  0  0  0
   16.4600  -53.8200   37.3900 C   0  0  0  0  0  0  0  0  0  0  0  0
   17.2750  -53.8460   36.2780 C   0  0  0  0  0  0  0  0  0  0  0  0
   18.9590  -57.7060   33.0570 C   0  0  0  0  0  0  0  0  0  0  0  0
   20.0880  -57.4000   32.6480 O   0  0  0  0  0  0  0  0  0  0  0  0
   18.3930  -59.0070   32.9800 N   0  0  0  0  0  0  0  0  0  0  0  0
   15.3260  -56.5110   34.9150 H   0  0  0  0  0  0  0  0  0  0  0  0
   13.7080  -58.3410   35.1640 H   0  0  0  0  0  0  0  0  0  0  0  0
   14.2420  -60.6120   34.3760 H   0  0  0  0  0  0  0  0  0  0  0  0
   19.0690  -56.9130   35.4610 H   0  0  0  0  0  0  0  0  0  0  0  0
   20.3480  -55.6040   34.1020 H   0  0  0  0  0  0  0  0  0  0  0  0
   18.2600  -53.6320   33.1730 H   0  0  0  0  0  0  0  0  0  0  0  0
   16.5620  -55.3210   33.3000 H   0  0  0  0  0  0  0  0  0  0  0  0
   19.2990  -54.5640   29.0550 H   0  0  0  0  0  0  0  0  0  0  0  0
   18.1980  -55.9590   28.8640 H   0  0  0  0  0  0  0  0  0  0  0  0
   20.5890  -56.6690   30.3830 H   0  0  0  0  0  0  0  0  0  0  0  0
   20.0040  -57.3750   28.8220 H   0  0  0  0  0  0  0  0  0  0  0  0
   22.7560  -56.9250   29.4740 H   0  0  0  0  0  0  0  0  0  0  0  0
   22.4270  -55.3660   30.2720 H   0  0  0  0  0  0  0  0  0  0  0  0
   23.2190  -55.3550   28.6780 H   0  0  0  0  0  0  0  0  0  0  0  0
   20.6310  -54.0900   35.6600 H   0  0  0  0  0  0  0  0  0  0  0  0
   19.4490  -53.1130   34.7550 H   0  0  0  0  0  0  0  0  0  0  0  0
   20.2180  -54.4120   37.8580 H   0  0  0  0  0  0  0  0  0  0  0  0
   18.6840  -54.3500   39.7970 H   0  0  0  0  0  0  0  0  0  0  0  0
   16.2440  -53.9670   39.5070 H   0  0  0  0  0  0  0  0  0  0  0  0
   15.4050  -53.6510   37.2260 H   0  0  0  0  0  0  0  0  0  0  0  0
   16.8420  -53.6830   35.2770 H   0  0  0  0  0  0  0  0  0  0  0  0
   18.8470  -59.8680   32.5720 H   0  0  0  0  0  0  0  0  0  0  0  0
  1  2  1  0  0  0  0
  2  7  1  0  0  0  0
  3  2  2  0  0  0  0
  3  4  1  0  0  0  0
  4  5  2  0  0  0  0
  5  6  1  0  0  0  0
  5 32  1  0  0  0  0
  6 33  1  0  0  0  0
  7 34  1  0  0  0  0
  7  6  2  0  0  0  0
  8 29  1  6  0  0  0
  8  4  1  0  0  0  0
  8  9  1  0  0  0  0
  9 35  1  0  0  0  0
 10 36  1  6  0  0  0
 10  9  1  0  0  0  0
 10 22  1  0  0  0  0
 11 37  1  1  0  0  0
 11 10  1  0  0  0  0
 12 11  1  0  0  0  0
 12 38  1  1  0  0  0
 12  8  1  0  0  0  0
 13 12  1  0  0  0  0
 14 13  2  0  0  0  0
 15 13  1  0  0  0  0
 15 16  1  0  0  0  0
 16 11  1  0  0  0  0
 17 16  2  0  0  0  0
 18 15  1  0  0  0  0
 19 18  1  0  0  0  0
 19 41  1  0  0  0  0
 20 21  1  0  0  0  0
 20 19  1  0  0  0  0
 21 43  1  0  0  0  0
 21 44  1  0  0  0  0
 22 46  1  0  0  0  0
 22 23  1  0  0  0  0
 23 24  1  0  0  0  0
 24 48  1  0  0  0  0
 24 25  2  0  0  0  0
 25 49  1  0  0  0  0
 26 25  1  0  0  0  0
 26 50  1  0  0  0  0
 27 26  2  0  0  0  0
 28 23  2  0  0  0  0
 28 27  1  0  0  0  0
 30 29  2  0  0  0  0
 31 29  1  0  0  0  0
 31  3  1  0  0  0  0
 39 18  1  0  0  0  0
 40 18  1  0  0  0  0
 42 19  1  0  0  0  0
 45 21  1  0  0  0  0
 47 22  1  0  0  0  0
 51 27  1  0  0  0  0
 52 28  1  0  0  0  0
 53 31  1  0  0  0  0
M  END
>  <Pose>
1

>  <Score>
-6.38

$$$$
