
 OpenBabel03232204043D

 42 45  0  0  0  0  0  0  0  0999 V2000
   12.2420  -59.4680   38.2060 Cl  0  0  0  0  0  0  0  0  0  0  0  0
   13.4550  -58.2230   37.9870 C   0  0  0  0  0  0  0  0  0  0  0  0
   14.4310  -58.3820   37.0250 C   0  0  0  0  0  0  0  0  0  0  0  0
   15.3650  -57.3600   36.8980 C   0  0  0  0  0  0  0  0  0  0  0  0
   15.3610  -56.2250   37.6690 C   0  0  0  0  0  0  0  0  0  0  0  0
   14.3800  -56.0870   38.6190 C   0  0  0  0  0  0  0  0  0  0  0  0
   13.4470  -57.0850   38.7610 C   0  0  0  0  0  0  0  0  0  0  0  0
   16.3750  -55.1900   37.4800 C   0  0  0  0  0  0  0  0  0  0  0  0
   16.5420  -54.2740   38.5420 N   0  0  0  0  0  0  0  0  0  0  0  0
   17.6850  -54.4070   39.3560 C   0  0  0  0  0  0  0  0  0  0  0  0
   18.8850  -53.5880   38.9650 C   0  0  0  0  0  0  0  0  0  0  0  0
   18.3620  -52.4590   38.1510 N   0  0  0  0  0  0  0  0  0  0  0  0
   17.1390  -51.9320   38.6260 C   0  0  0  0  0  0  0  0  0  0  0  0
   16.0560  -52.9430   38.3140 C   0  0  0  0  0  0  0  0  0  0  0  0
   19.1530  -52.0520   37.0560 C   0  0  0  0  0  0  0  0  0  0  0  0
   19.6890  -50.7940   37.0530 N   0  0  0  0  0  0  0  0  0  0  0  0
   20.4180  -50.2770   36.0720 C   0  0  0  0  0  0  0  0  0  0  0  0
   20.6620  -51.0330   34.9890 N   0  0  0  0  0  0  0  0  0  0  0  0
   20.1590  -52.2870   34.9350 C   0  0  0  0  0  0  0  0  0  0  0  0
   20.2470  -53.2580   34.0070 N   0  0  0  0  0  0  0  0  0  0  0  0
   19.5810  -54.3320   34.4300 C   0  0  0  0  0  0  0  0  0  0  0  0
   19.0460  -54.0920   35.6400 N   0  0  0  0  0  0  0  0  0  0  0  0
   19.3910  -52.8360   35.9640 C   0  0  0  0  0  0  0  0  0  0  0  0
   20.9540  -48.9390   36.1340 N   0  0  0  0  0  0  0  0  0  0  0  0
   14.4650  -59.2670   36.3980 H   0  0  0  0  0  0  0  0  0  0  0  0
   16.1120  -57.5410   36.1220 H   0  0  0  0  0  0  0  0  0  0  0  0
   14.3310  -55.1930   39.2670 H   0  0  0  0  0  0  0  0  0  0  0  0
   12.6630  -56.9740   39.5230 H   0  0  0  0  0  0  0  0  0  0  0  0
   17.3760  -55.6140   37.2180 H   0  0  0  0  0  0  0  0  0  0  0  0
   16.0780  -54.6050   36.5610 H   0  0  0  0  0  0  0  0  0  0  0  0
   17.9870  -55.4490   39.4090 H   0  0  0  0  0  0  0  0  0  0  0  0
   17.3990  -54.1110   40.4070 H   0  0  0  0  0  0  0  0  0  0  0  0
   19.6670  -54.1340   38.4410 H   0  0  0  0  0  0  0  0  0  0  0  0
   19.3350  -53.0990   39.8540 H   0  0  0  0  0  0  0  0  0  0  0  0
   17.2160  -51.9540   39.7740 H   0  0  0  0  0  0  0  0  0  0  0  0
   16.8890  -50.9040   38.4150 H   0  0  0  0  0  0  0  0  0  0  0  0
   15.6450  -52.8650   37.2940 H   0  0  0  0  0  0  0  0  0  0  0  0
   15.2220  -52.7560   39.0300 H   0  0  0  0  0  0  0  0  0  0  0  0
   19.5020  -55.2600   33.8530 H   0  0  0  0  0  0  0  0  0  0  0  0
   18.4870  -54.7870   36.1800 H   0  0  0  0  0  0  0  0  0  0  0  0
   21.7740  -48.6520   35.5830 H   0  0  0  0  0  0  0  0  0  0  0  0
   20.5050  -48.2330   36.7510 H   0  0  0  0  0  0  0  0  0  0  0  0
  2  1  1  0  0  0  0
  2  7  1  0  0  0  0
  3  2  2  0  0  0  0
  4  3  1  0  0  0  0
  4  5  2  0  0  0  0
  5  6  1  0  0  0  0
  6  7  2  0  0  0  0
  6 27  1  0  0  0  0
  7 28  1  0  0  0  0
  8  5  1  0  0  0  0
  8  9  1  0  0  0  0
  9 10  1  0  0  0  0
 10 31  1  0  0  0  0
 10 32  1  0  0  0  0
 11 10  1  0  0  0  0
 11 34  1  0  0  0  0
 12 13  1  0  0  0  0
 12 11  1  0  0  0  0
 13 35  1  0  0  0  0
 14  9  1  0  0  0  0
 14 13  1  0  0  0  0
 14 38  1  0  0  0  0
 15 12  1  0  0  0  0
 16 15  1  0  0  0  0
 17 24  1  0  0  0  0
 17 16  2  0  0  0  0
 18 17  1  0  0  0  0
 19 18  2  0  0  0  0
 19 23  1  0  0  0  0
 20 21  2  0  0  0  0
 20 19  1  0  0  0  0
 21 22  1  0  0  0  0
 22 23  1  0  0  0  0
 22 40  1  0  0  0  0
 23 15  2  0  0  0  0
 24 42  1  0  0  0  0
 25  3  1  0  0  0  0
 26  4  1  0  0  0  0
 29  8  1  0  0  0  0
 30  8  1  0  0  0  0
 33 11  1  0  0  0  0
 36 13  1  0  0  0  0
 37 14  1  0  0  0  0
 39 21  1  0  0  0  0
 41 24  1  0  0  0  0
M  END
>  <Pose>
1

>  <Score>
-7.53

$$$$
