
 OpenBabel03232204043D

 42 45  0  0  0  0  0  0  0  0999 V2000
   11.8910  -60.8630   34.6140 Cl  0  0  0  0  0  0  0  0  0  0  0  0
   12.4100  -59.6660   35.7960 C   0  0  0  0  0  0  0  0  0  0  0  0
   11.8740  -59.6730   37.0600 C   0  0  0  0  0  0  0  0  0  0  0  0
   12.2940  -58.7240   37.9770 C   0  0  0  0  0  0  0  0  0  0  0  0
   13.2300  -57.7800   37.6530 C   0  0  0  0  0  0  0  0  0  0  0  0
   13.7680  -57.7710   36.3880 C   0  0  0  0  0  0  0  0  0  0  0  0
   13.3530  -58.7100   35.4780 C   0  0  0  0  0  0  0  0  0  0  0  0
   13.6180  -56.8030   38.7010 C   0  0  0  0  0  0  0  0  0  0  0  0
   14.8690  -56.1750   38.2800 N   0  0  0  0  0  0  0  0  0  0  0  0
   15.7640  -56.6150   37.4160 N   0  0  0  0  0  0  0  0  0  0  0  0
   16.7680  -55.7670   37.2950 N   0  0  0  0  0  0  0  0  0  0  0  0
   16.5440  -54.7270   38.0980 C   0  0  0  0  0  0  0  0  0  0  0  0
   15.3430  -54.9830   38.7230 C   0  0  0  0  0  0  0  0  0  0  0  0
   14.8860  -54.0740   39.5970 N   0  0  0  0  0  0  0  0  0  0  0  0
   15.5790  -52.9520   39.8530 C   0  0  0  0  0  0  0  0  0  0  0  0
   16.7490  -52.7240   39.2310 N   0  0  0  0  0  0  0  0  0  0  0  0
   17.2960  -53.5820   38.3300 C   0  0  0  0  0  0  0  0  0  0  0  0
   18.5200  -53.3480   37.6780 N   0  0  0  0  0  0  0  0  0  0  0  0
   19.7510  -54.0670   37.8720 C   0  0  0  0  0  0  0  0  0  0  0  0
   20.1530  -54.6630   36.5740 C   0  0  0  0  0  0  0  0  0  0  0  0
   19.5700  -54.1590   35.4030 N   0  0  0  0  0  0  0  0  0  0  0  0
   18.9670  -52.8950   35.3950 C   0  0  0  0  0  0  0  0  0  0  0  0
   18.6140  -52.2910   36.7020 C   0  0  0  0  0  0  0  0  0  0  0  0
   18.6420  -55.1400   34.8690 C   0  0  0  0  0  0  0  0  0  0  0  0
   11.1340  -60.4050   37.3460 H   0  0  0  0  0  0  0  0  0  0  0  0
   11.8620  -58.7390   38.9780 H   0  0  0  0  0  0  0  0  0  0  0  0
   14.4960  -57.0360   36.1360 H   0  0  0  0  0  0  0  0  0  0  0  0
   13.7530  -58.7440   34.4560 H   0  0  0  0  0  0  0  0  0  0  0  0
   12.8530  -56.0250   38.8080 H   0  0  0  0  0  0  0  0  0  0  0  0
   13.7390  -57.3340   39.6680 H   0  0  0  0  0  0  0  0  0  0  0  0
   15.1800  -52.2410   40.5630 H   0  0  0  0  0  0  0  0  0  0  0  0
   19.6770  -54.8540   38.6450 H   0  0  0  0  0  0  0  0  0  0  0  0
   20.5230  -53.3600   38.2430 H   0  0  0  0  0  0  0  0  0  0  0  0
   21.2740  -54.5450   36.4840 H   0  0  0  0  0  0  0  0  0  0  0  0
   20.0210  -55.7810   36.6250 H   0  0  0  0  0  0  0  0  0  0  0  0
   19.6660  -52.1730   34.8740 H   0  0  0  0  0  0  0  0  0  0  0  0
   18.0530  -52.8870   34.7320 H   0  0  0  0  0  0  0  0  0  0  0  0
   19.3690  -51.5440   37.0310 H   0  0  0  0  0  0  0  0  0  0  0  0
   17.6300  -51.7510   36.6110 H   0  0  0  0  0  0  0  0  0  0  0  0
   18.7250  -56.1180   35.4210 H   0  0  0  0  0  0  0  0  0  0  0  0
   17.6000  -54.7880   35.0350 H   0  0  0  0  0  0  0  0  0  0  0  0
   18.8440  -55.3720   33.8070 H   0  0  0  0  0  0  0  0  0  0  0  0
  1  2  1  0  0  0  0
  2  3  1  0  0  0  0
  3 25  1  0  0  0  0
  3  4  2  0  0  0  0
  4 26  1  0  0  0  0
  5  4  1  0  0  0  0
  5  8  1  0  0  0  0
  6  5  2  0  0  0  0
  7  2  2  0  0  0  0
  7  6  1  0  0  0  0
  8 29  1  0  0  0  0
  8 30  1  0  0  0  0
  9  8  1  0  0  0  0
  9 13  1  0  0  0  0
 10  9  1  0  0  0  0
 11 10  2  0  0  0  0
 11 12  1  0  0  0  0
 12 17  1  0  0  0  0
 12 13  2  0  0  0  0
 13 14  1  0  0  0  0
 14 15  2  0  0  0  0
 15 31  1  0  0  0  0
 16 15  1  0  0  0  0
 17 16  2  0  0  0  0
 18 19  1  0  0  0  0
 18 17  1  0  0  0  0
 19 33  1  0  0  0  0
 19 32  1  0  0  0  0
 20 35  1  0  0  0  0
 20 19  1  0  0  0  0
 21 20  1  0  0  0  0
 22 21  1  0  0  0  0
 22 23  1  0  0  0  0
 23 38  1  0  0  0  0
 23 18  1  0  0  0  0
 24 41  1  0  0  0  0
 24 21  1  0  0  0  0
 24 40  1  0  0  0  0
 27  6  1  0  0  0  0
 28  7  1  0  0  0  0
 34 20  1  0  0  0  0
 36 22  1  0  0  0  0
 37 22  1  0  0  0  0
 39 23  1  0  0  0  0
 42 24  1  0  0  0  0
M  END
>  <Pose>
1

>  <Score>
-6.23

$$$$
