
 OpenBabel03232204043D

 38 41  0  0  1  0  0  0  0  0999 V2000
   13.9090  -58.2230   34.1770 B   0  0  0  0  0  0  0  0  0  0  0  0
   13.5910  -58.2110   36.0550 C   0  0  0  0  0  0  0  0  0  0  0  0
   13.8010  -57.0830   36.8130 C   0  0  0  0  0  0  0  0  0  0  0  0
   13.5760  -57.0410   38.1970 C   0  0  0  0  0  0  0  0  0  0  0  0
   13.1290  -58.1980   38.7700 C   0  0  0  0  0  0  0  0  0  0  0  0
   12.9180  -59.3390   37.9930 C   0  0  0  0  0  0  0  0  0  0  0  0
   13.1440  -59.3520   36.6530 C   0  0  0  0  0  0  0  0  0  0  0  0
   13.8170  -55.8410   38.8940 N   0  0  0  0  0  0  0  0  0  0  0  0
   15.0760  -55.2470   39.0770 C   0  0  0  0  0  0  0  0  0  0  0  0
   16.1590  -55.8470   39.1310 O   0  0  0  0  0  0  0  0  0  0  0  0
   15.1660  -53.7530   39.2250 C   0  0  2  0  0  0  0  0  0  0  0  0
   15.3360  -53.0190   37.9210 C   0  0  0  0  0  0  0  0  0  0  0  0
   16.7930  -52.9660   38.1070 N   0  0  2  0  0  0  0  0  0  0  0  0
   16.5460  -53.2370   39.5110 C   0  0  0  0  0  0  0  0  0  0  0  0
   17.8890  -52.7400   37.2300 C   0  0  2  0  0  0  0  0  0  0  0  0
   18.8290  -51.7910   37.4770 N   0  0  0  0  0  0  0  0  0  0  0  0
   19.8720  -51.5940   36.6190 C   0  0  0  0  0  0  0  0  0  0  0  0
   20.0030  -52.3270   35.5090 N   0  0  0  0  0  0  0  0  0  0  0  0
   19.1170  -53.2760   35.2040 C   0  0  0  0  0  0  0  0  0  0  0  0
   19.0280  -54.1320   34.1670 N   0  0  0  0  0  0  0  0  0  0  0  0
   17.9470  -54.8530   34.3730 N   0  0  0  0  0  0  0  0  0  0  0  0
   17.3450  -54.4820   35.5090 N   0  0  0  0  0  0  0  0  0  0  0  0
   18.0630  -53.4730   36.0730 C   0  0  0  0  0  0  0  0  0  0  0  0
   19.9310  -54.2630   33.0260 C   0  0  0  0  0  0  0  0  0  0  0  0
   14.1550  -56.1880   36.3140 H   0  0  0  0  0  0  0  0  0  0  0  0
   12.9280  -58.2540   39.8430 H   0  0  0  0  0  0  0  0  0  0  0  0
   12.5590  -60.2410   38.5070 H   0  0  0  0  0  0  0  0  0  0  0  0
   12.9720  -60.2550   36.0690 H   0  0  0  0  0  0  0  0  0  0  0  0
   12.9460  -55.3510   39.3180 H   0  0  0  0  0  0  0  0  0  0  0  0
   14.3410  -53.3220   39.8180 H   0  0  0  0  0  0  0  0  0  0  0  0
   15.1370  -53.6110   37.0030 H   0  0  0  0  0  0  0  0  0  0  0  0
   14.9400  -52.0000   37.8880 H   0  0  0  0  0  0  0  0  0  0  0  0
   17.2040  -54.0140   39.9550 H   0  0  0  0  0  0  0  0  0  0  0  0
   16.5830  -52.3000   40.0840 H   0  0  0  0  0  0  0  0  0  0  0  0
   20.5800  -50.8220   36.8810 H   0  0  0  0  0  0  0  0  0  0  0  0
   19.9420  -55.2940   32.6350 H   0  0  0  0  0  0  0  0  0  0  0  0
   20.9940  -54.0520   33.3400 H   0  0  0  0  0  0  0  0  0  0  0  0
   19.7040  -53.5520   32.2300 H   0  0  0  0  0  0  0  0  0  0  0  0
  1  2  1  0  0  0  0
  2  7  2  0  0  0  0
  2  3  1  0  0  0  0
  3  4  2  0  0  0  0
  4  5  1  0  0  0  0
  4  8  1  0  0  0  0
  5 26  1  0  0  0  0
  6 27  1  0  0  0  0
  6  5  2  0  0  0  0
  7  6  1  0  0  0  0
  8  9  1  0  0  0  0
  8 29  1  0  0  0  0
  9 10  2  0  0  0  0
  9 11  1  0  0  0  0
 11 14  1  0  0  0  0
 11 30  1  1  0  0  0
 12 11  1  0  0  0  0
 13 12  1  1  0  0  0
 13 14  1  0  0  0  0
 14 33  1  0  0  0  0
 14 34  1  0  0  0  0
 15 23  1  6  0  0  0
 15 16  1  0  0  0  0
 15 13  1  0  0  0  0
 17 35  1  0  0  0  0
 17 16  2  0  0  0  0
 18 17  1  0  0  0  0
 19 18  1  0  0  0  0
 19 23  2  0  0  0  0
 20 21  1  0  0  0  0
 20 19  1  0  0  0  0
 21 22  2  0  0  0  0
 22 23  1  0  0  0  0
 24 37  1  0  0  0  0
 24 20  1  0  0  0  0
 25  3  1  0  0  0  0
 28  7  1  0  0  0  0
 31 12  1  0  0  0  0
 32 12  1  0  0  0  0
 36 24  1  0  0  0  0
 38 24  1  0  0  0  0
M  END
>  <Pose>
1

>  <Score>
-6.79

$$$$
