
 OpenBabel03232204043D

 52 56  0  0  0  0  0  0  0  0999 V2000
   11.9670  -60.8080   34.5770 Cl  0  0  0  0  0  0  0  0  0  0  0  0
   13.2840  -59.7100   34.2000 C   0  0  0  0  0  0  0  0  0  0  0  0
   14.5540  -60.1790   33.8940 C   0  0  0  0  0  0  0  0  0  0  0  0
   15.5770  -59.2990   33.6010 C   0  0  0  0  0  0  0  0  0  0  0  0
   15.3900  -57.9330   33.5990 C   0  0  0  0  0  0  0  0  0  0  0  0
   14.1040  -57.4750   33.9090 C   0  0  0  0  0  0  0  0  0  0  0  0
   13.0770  -58.3470   34.2020 C   0  0  0  0  0  0  0  0  0  0  0  0
   16.4660  -56.9990   33.2920 C   0  0  0  0  0  0  0  0  0  0  0  0
   16.3460  -56.2260   32.3160 O   0  0  0  0  0  0  0  0  0  0  0  0
   17.6590  -57.0100   34.1570 C   0  0  0  0  0  0  0  0  0  0  0  0
   18.0210  -55.7060   34.6620 N   0  0  0  0  0  0  0  0  0  0  0  0
   17.6040  -55.0620   35.7320 N   0  0  0  0  0  0  0  0  0  0  0  0
   18.1920  -53.8630   35.8520 C   0  0  0  0  0  0  0  0  0  0  0  0
   17.7550  -53.2250   36.9490 N   0  0  0  0  0  0  0  0  0  0  0  0
   16.8560  -54.0080   37.5830 C   0  0  0  0  0  0  0  0  0  0  0  0
   16.7710  -55.1660   36.8020 C   0  0  0  0  0  0  0  0  0  0  0  0
   15.9010  -56.1270   37.2730 C   0  0  0  0  0  0  0  0  0  0  0  0
   15.7940  -57.1960   36.6000 O   0  0  0  0  0  0  0  0  0  0  0  0
   15.1650  -55.9870   38.4070 N   0  0  0  0  0  0  0  0  0  0  0  0
   15.3020  -54.8460   39.0990 C   0  0  0  0  0  0  0  0  0  0  0  0
   14.6030  -54.7340   40.1590 O   0  0  0  0  0  0  0  0  0  0  0  0
   16.1300  -53.8680   38.7050 N   0  0  0  0  0  0  0  0  0  0  0  0
   16.2320  -52.6690   39.4930 C   0  0  0  0  0  0  0  0  0  0  0  0
   14.2740  -57.0430   38.8310 C   0  0  0  0  0  0  0  0  0  0  0  0
   19.0250  -53.7690   34.7850 N   0  0  0  0  0  0  0  0  0  0  0  0
   18.9310  -54.8860   34.0520 C   0  0  0  0  0  0  0  0  0  0  0  0
   19.6240  -55.2160   32.8520 N   0  0  0  0  0  0  0  0  0  0  0  0
   19.3970  -54.4910   31.6130 C   0  0  0  0  0  0  0  0  0  0  0  0
   19.4180  -55.4930   30.4850 C   0  0  0  0  0  0  0  0  0  0  0  0
   20.6240  -56.2120   30.5040 O   0  0  0  0  0  0  0  0  0  0  0  0
   20.7000  -57.0540   31.5910 C   0  0  0  0  0  0  0  0  0  0  0  0
   20.5800  -56.2910   32.8630 C   0  0  0  0  0  0  0  0  0  0  0  0
   14.7320  -61.2380   33.8890 H   0  0  0  0  0  0  0  0  0  0  0  0
   16.5690  -59.6620   33.3630 H   0  0  0  0  0  0  0  0  0  0  0  0
   13.8960  -56.4200   33.9220 H   0  0  0  0  0  0  0  0  0  0  0  0
   12.0720  -57.9980   34.4450 H   0  0  0  0  0  0  0  0  0  0  0  0
   18.5100  -57.5370   33.7500 H   0  0  0  0  0  0  0  0  0  0  0  0
   17.3470  -57.6350   35.0510 H   0  0  0  0  0  0  0  0  0  0  0  0
   15.2720  -52.5330   40.0490 H   0  0  0  0  0  0  0  0  0  0  0  0
   16.4180  -51.7950   38.8190 H   0  0  0  0  0  0  0  0  0  0  0  0
   17.1010  -52.7160   40.1720 H   0  0  0  0  0  0  0  0  0  0  0  0
   14.8730  -57.8900   39.2560 H   0  0  0  0  0  0  0  0  0  0  0  0
   13.7730  -57.4710   37.9270 H   0  0  0  0  0  0  0  0  0  0  0  0
   13.4820  -56.6990   39.4980 H   0  0  0  0  0  0  0  0  0  0  0  0
   20.1940  -53.7380   31.4320 H   0  0  0  0  0  0  0  0  0  0  0  0
   18.3990  -53.9950   31.6040 H   0  0  0  0  0  0  0  0  0  0  0  0
   18.5470  -56.1470   30.4470 H   0  0  0  0  0  0  0  0  0  0  0  0
   19.4430  -54.9100   29.5280 H   0  0  0  0  0  0  0  0  0  0  0  0
   19.8950  -57.8380   31.5730 H   0  0  0  0  0  0  0  0  0  0  0  0
   21.7060  -57.5260   31.5690 H   0  0  0  0  0  0  0  0  0  0  0  0
   21.5510  -55.8920   33.2330 H   0  0  0  0  0  0  0  0  0  0  0  0
   20.2610  -57.0210   33.6590 H   0  0  0  0  0  0  0  0  0  0  0  0
  2  7  1  0  0  0  0
  2  1  1  0  0  0  0
  3  2  2  0  0  0  0
  4  3  1  0  0  0  0
  5  4  2  0  0  0  0
  5  6  1  0  0  0  0
  6 35  1  0  0  0  0
  6  7  2  0  0  0  0
  7 36  1  0  0  0  0
  8  5  1  0  0  0  0
  8 10  1  0  0  0  0
  9  8  2  0  0  0  0
 10 11  1  0  0  0  0
 10 38  1  0  0  0  0
 11 12  1  0  0  0  0
 12 13  1  0  0  0  0
 12 16  1  0  0  0  0
 13 14  2  0  0  0  0
 14 15  1  0  0  0  0
 15 22  1  0  0  0  0
 16 17  1  0  0  0  0
 16 15  2  0  0  0  0
 17 19  1  0  0  0  0
 18 17  2  0  0  0  0
 19 24  1  0  0  0  0
 19 20  1  0  0  0  0
 20 21  2  0  0  0  0
 22 20  1  0  0  0  0
 22 23  1  0  0  0  0
 23 39  1  0  0  0  0
 23 41  1  0  0  0  0
 24 42  1  0  0  0  0
 24 44  1  0  0  0  0
 25 13  1  0  0  0  0
 26 11  1  0  0  0  0
 26 25  2  0  0  0  0
 27 32  1  0  0  0  0
 27 26  1  0  0  0  0
 28 27  1  0  0  0  0
 29 30  1  0  0  0  0
 29 28  1  0  0  0  0
 30 31  1  0  0  0  0
 31 32  1  0  0  0  0
 32 51  1  0  0  0  0
 32 52  1  0  0  0  0
 33  3  1  0  0  0  0
 34  4  1  0  0  0  0
 37 10  1  0  0  0  0
 40 23  1  0  0  0  0
 43 24  1  0  0  0  0
 45 28  1  0  0  0  0
 46 28  1  0  0  0  0
 47 29  1  0  0  0  0
 48 29  1  0  0  0  0
 49 31  1  0  0  0  0
 50 31  1  0  0  0  0
M  END
>  <Pose>
1

>  <Score>
-6.94

$$$$
