
 OpenBabel03232204043D

 48 52  0  0  1  0  0  0  0  0999 V2000
   19.9180  -50.6840   36.4710 Cl  0  0  0  0  0  0  0  0  0  0  0  0
   18.8200  -52.0010   36.8930 C   0  0  0  0  0  0  0  0  0  0  0  0
   17.9270  -51.8360   37.9280 C   0  0  0  0  0  0  0  0  0  0  0  0
   17.0590  -52.8410   38.2820 C   0  0  0  0  0  0  0  0  0  0  0  0
   17.0520  -54.0480   37.6120 C   0  0  0  0  0  0  0  0  0  0  0  0
   17.9540  -54.1960   36.5790 C   0  0  0  0  0  0  0  0  0  0  0  0
   18.8290  -53.1990   36.2140 C   0  0  0  0  0  0  0  0  0  0  0  0
   16.1330  -55.0480   38.0240 N   0  0  0  0  0  0  0  0  0  0  0  0
   15.2040  -54.8920   39.0920 C   0  0  0  0  0  0  0  0  0  0  0  0
   14.3650  -55.8370   39.4470 C   0  0  0  0  0  0  0  0  0  0  0  0
   14.2690  -57.1150   38.8340 N   0  0  0  0  0  0  0  0  0  0  0  0
   13.0250  -57.8360   38.9680 C   0  0  0  0  0  0  0  0  0  0  0  0
   12.5780  -58.2600   37.5930 C   0  0  0  0  0  0  0  0  0  0  0  0
   13.6480  -58.8140   36.7870 N   0  0  2  0  0  0  0  0  0  0  0  0
   14.9010  -58.0910   36.6990 C   0  0  0  0  0  0  0  0  0  0  0  0
   15.3440  -57.7360   38.0940 C   0  0  0  0  0  0  0  0  0  0  0  0
   13.4540  -60.0500   36.0970 C   0  0  2  0  0  0  0  0  0  0  0  0
   13.0380  -61.1250   36.7950 N   0  0  0  0  0  0  0  0  0  0  0  0
   12.8410  -62.3240   36.1760 C   0  0  0  0  0  0  0  0  0  0  0  0
   13.0600  -62.4600   34.8500 N   0  0  0  0  0  0  0  0  0  0  0  0
   13.4730  -61.4300   34.1050 C   0  0  0  0  0  0  0  0  0  0  0  0
   13.7610  -61.2900   32.7980 N   0  0  0  0  0  0  0  0  0  0  0  0
   14.1280  -60.0350   32.6070 N   0  0  0  0  0  0  0  0  0  0  0  0
   14.0820  -59.3500   33.7840 C   0  0  0  0  0  0  0  0  0  0  0  0
   13.6700  -60.2090   34.7530 C   0  0  0  0  0  0  0  0  0  0  0  0
   13.6910  -62.3180   31.7550 C   0  0  0  0  0  0  0  0  0  0  0  0
   15.2030  -53.6530   39.7850 N   0  0  0  0  0  0  0  0  0  0  0  0
   16.1070  -52.6470   39.3940 C   0  0  0  0  0  0  0  0  0  0  0  0
   16.1630  -51.5120   39.9700 O   0  0  0  0  0  0  0  0  0  0  0  0
   17.9240  -50.8850   38.4630 H   0  0  0  0  0  0  0  0  0  0  0  0
   17.9670  -55.1300   36.0430 H   0  0  0  0  0  0  0  0  0  0  0  0
   19.5310  -53.3140   35.4080 H   0  0  0  0  0  0  0  0  0  0  0  0
   16.1210  -55.9620   37.5240 H   0  0  0  0  0  0  0  0  0  0  0  0
   13.6820  -55.6520   40.2730 H   0  0  0  0  0  0  0  0  0  0  0  0
   13.1340  -58.7600   39.5730 H   0  0  0  0  0  0  0  0  0  0  0  0
   12.2230  -57.1960   39.3870 H   0  0  0  0  0  0  0  0  0  0  0  0
   11.8150  -59.0770   37.7710 H   0  0  0  0  0  0  0  0  0  0  0  0
   11.9970  -57.4760   37.0580 H   0  0  0  0  0  0  0  0  0  0  0  0
   15.6630  -58.8010   36.2630 H   0  0  0  0  0  0  0  0  0  0  0  0
   14.8360  -57.1700   36.0940 H   0  0  0  0  0  0  0  0  0  0  0  0
   16.2700  -57.1310   38.1060 H   0  0  0  0  0  0  0  0  0  0  0  0
   15.5630  -58.7180   38.6070 H   0  0  0  0  0  0  0  0  0  0  0  0
   12.5050  -63.1630   36.7810 H   0  0  0  0  0  0  0  0  0  0  0  0
   14.3260  -58.3100   33.9450 H   0  0  0  0  0  0  0  0  0  0  0  0
   13.3470  -61.8770   30.7930 H   0  0  0  0  0  0  0  0  0  0  0  0
   12.9130  -63.0730   32.0330 H   0  0  0  0  0  0  0  0  0  0  0  0
   14.6830  -62.7720   31.5800 H   0  0  0  0  0  0  0  0  0  0  0  0
   14.5510  -53.4620   40.5800 H   0  0  0  0  0  0  0  0  0  0  0  0
  1  2  1  0  0  0  0
  2  3  1  0  0  0  0
  3  4  2  0  0  0  0
  3 30  1  0  0  0  0
  4 28  1  0  0  0  0
  5  8  1  0  0  0  0
  5  4  1  0  0  0  0
  6  5  2  0  0  0  0
  7  6  1  0  0  0  0
  7  2  2  0  0  0  0
  8  9  1  0  0  0  0
  9 10  2  0  0  0  0
  9 27  1  0  0  0  0
 10 34  1  0  0  0  0
 11 12  1  0  0  0  0
 11 10  1  0  0  0  0
 12 36  1  0  0  0  0
 12 35  1  0  0  0  0
 13 37  1  0  0  0  0
 13 12  1  0  0  0  0
 14 15  1  6  0  0  0
 14 13  1  0  0  0  0
 15 16  1  0  0  0  0
 16 41  1  0  0  0  0
 16 42  1  0  0  0  0
 16 11  1  0  0  0  0
 17 25  1  1  0  0  0
 17 14  1  0  0  0  0
 17 18  1  0  0  0  0
 19 43  1  0  0  0  0
 19 18  2  0  0  0  0
 20 19  1  0  0  0  0
 21 25  2  0  0  0  0
 21 20  1  0  0  0  0
 22 21  1  0  0  0  0
 23 22  1  0  0  0  0
 23 24  2  0  0  0  0
 24 44  1  0  0  0  0
 24 25  1  0  0  0  0
 26 46  1  0  0  0  0
 26 22  1  0  0  0  0
 27 48  1  0  0  0  0
 28 27  1  0  0  0  0
 28 29  2  0  0  0  0
 31  6  1  0  0  0  0
 32  7  1  0  0  0  0
 33  8  1  0  0  0  0
 38 13  1  0  0  0  0
 39 15  1  0  0  0  0
 40 15  1  0  0  0  0
 45 26  1  0  0  0  0
 47 26  1  0  0  0  0
M  END
>  <Pose>
1

>  <Score>
-6.89

$$$$
