
 OpenBabel03232204043D

 49 52  0  0  0  0  0  0  0  0999 V2000
   14.4730  -56.0150   38.7960 Cl  0  0  0  0  0  0  0  0  0  0  0  0
   15.7170  -54.8160   38.4230 C   0  0  0  0  0  0  0  0  0  0  0  0
   16.6150  -54.9460   37.3980 C   0  0  0  0  0  0  0  0  0  0  0  0
   17.5130  -53.9730   37.1300 C   0  0  0  0  0  0  0  0  0  0  0  0
   17.5540  -52.8250   37.8710 C   0  0  0  0  0  0  0  0  0  0  0  0
   16.6290  -52.6880   38.9340 C   0  0  0  0  0  0  0  0  0  0  0  0
   15.7180  -53.6660   39.2200 C   0  0  0  0  0  0  0  0  0  0  0  0
   14.8240  -53.5080   40.3030 O   0  0  0  0  0  0  0  0  0  0  0  0
   18.3880  -51.8550   37.6260 O   0  0  0  0  0  0  0  0  0  0  0  0
   19.2470  -51.9540   36.6180 C   0  0  0  0  0  0  0  0  0  0  0  0
   20.0300  -51.0200   36.4030 O   0  0  0  0  0  0  0  0  0  0  0  0
   19.2690  -53.1050   35.8030 C   0  0  0  0  0  0  0  0  0  0  0  0
   18.4190  -54.1300   36.0330 C   0  0  0  0  0  0  0  0  0  0  0  0
   18.3210  -55.4550   35.3990 C   0  0  0  0  0  0  0  0  0  0  0  0
   17.9770  -55.6210   34.0550 N   0  0  0  0  0  4  0  0  0  0  0  0
   16.7070  -55.8730   33.5740 C   0  0  0  0  0  0  0  0  0  0  0  0
   16.7560  -56.9290   32.4160 C   0  0  0  0  0  0  0  0  0  0  0  0
   17.0940  -58.1640   33.2720 N   0  0  0  0  0  0  0  0  0  0  0  0
   18.3730  -58.0960   33.7890 C   0  0  0  0  0  0  0  0  0  0  0  0
   18.8840  -56.6670   33.4990 C   0  0  0  0  0  0  0  0  0  0  0  0
   16.0020  -59.0510   33.3940 C   0  0  0  0  0  0  0  0  0  0  0  0
   16.0600  -60.4000   33.4390 C   0  0  0  0  0  0  0  0  0  0  0  0
   14.9340  -61.1880   33.8120 C   0  0  0  0  0  0  0  0  0  0  0  0
   13.7360  -60.6130   34.1450 C   0  0  0  0  0  0  0  0  0  0  0  0
   13.6630  -59.2250   34.0940 C   0  0  0  0  0  0  0  0  0  0  0  0
   14.7640  -58.4670   33.7250 C   0  0  0  0  0  0  0  0  0  0  0  0
   12.6660  -61.4240   34.5010 O   0  0  0  0  0  0  0  0  0  0  0  0
   11.5950  -61.6800   33.5790 C   0  0  0  0  0  0  0  0  0  0  0  0
   16.5590  -55.8380   36.8350 H   0  0  0  0  0  0  0  0  0  0  0  0
   16.6490  -51.7870   39.5340 H   0  0  0  0  0  0  0  0  0  0  0  0
   20.0230  -53.1430   35.0380 H   0  0  0  0  0  0  0  0  0  0  0  0
   18.2850  -56.3420   36.0400 H   0  0  0  0  0  0  0  0  0  0  0  0
   19.5540  -55.5810   35.2200 H   0  0  0  0  0  0  0  0  0  0  0  0
   18.3410  -54.7480   33.5520 H   0  0  0  0  0  0  0  0  0  0  0  0
   15.9670  -56.3830   34.2580 H   0  0  0  0  0  0  0  0  0  0  0  0
   16.1170  -55.0300   33.1400 H   0  0  0  0  0  0  0  0  0  0  0  0
   17.4540  -56.8340   31.6820 H   0  0  0  0  0  0  0  0  0  0  0  0
   15.7060  -57.0100   32.1280 H   0  0  0  0  0  0  0  0  0  0  0  0
   18.3410  -58.2490   34.9000 H   0  0  0  0  0  0  0  0  0  0  0  0
   19.1610  -58.7910   33.4000 H   0  0  0  0  0  0  0  0  0  0  0  0
   18.9620  -56.5200   32.4460 H   0  0  0  0  0  0  0  0  0  0  0  0
   19.9020  -56.5070   33.9140 H   0  0  0  0  0  0  0  0  0  0  0  0
   17.0080  -60.8780   33.1650 H   0  0  0  0  0  0  0  0  0  0  0  0
   15.0590  -62.2470   33.8360 H   0  0  0  0  0  0  0  0  0  0  0  0
   12.7340  -58.7270   34.3530 H   0  0  0  0  0  0  0  0  0  0  0  0
   14.6570  -57.4130   33.6630 H   0  0  0  0  0  0  0  0  0  0  0  0
   10.6680  -61.1240   33.9620 H   0  0  0  0  0  0  0  0  0  0  0  0
   11.3990  -62.7310   33.3910 H   0  0  0  0  0  0  0  0  0  0  0  0
   11.7510  -61.2000   32.5900 H   0  0  0  0  0  0  0  0  0  0  0  0
  2  1  1  0  0  0  0
  2  7  1  0  0  0  0
  3  2  2  0  0  0  0
  4  3  1  0  0  0  0
  4  5  2  0  0  0  0
  5  6  1  0  0  0  0
  6  7  2  0  0  0  0
  6 30  1  0  0  0  0
  7  8  1  0  0  0  0
  9  5  1  0  0  0  0
 10  9  1  0  0  0  0
 11 10  2  0  0  0  0
 12 13  2  0  0  0  0
 12 10  1  0  0  0  0
 13  4  1  0  0  0  0
 14 13  1  0  0  0  0
 14 32  1  0  0  0  0
 15 14  1  0  0  0  0
 16 15  1  0  0  0  0
 16 35  1  0  0  0  0
 17 18  1  0  0  0  0
 17 16  1  0  0  0  0
 18 21  1  0  0  0  0
 18 19  1  0  0  0  0
 19 39  1  0  0  0  0
 20 19  1  0  0  0  0
 20 42  1  0  0  0  0
 20 15  1  0  0  0  0
 21 22  2  0  0  0  0
 21 26  1  0  0  0  0
 22 23  1  0  0  0  0
 23 44  1  0  0  0  0
 23 24  2  0  0  0  0
 24 27  1  0  0  0  0
 25 24  1  0  0  0  0
 25 45  1  0  0  0  0
 26 25  2  0  0  0  0
 28 47  1  0  0  0  0
 28 27  1  0  0  0  0
 29  3  1  0  0  0  0
 31 12  1  0  0  0  0
 33 14  1  0  0  0  0
 34 15  1  0  0  0  0
 36 16  1  0  0  0  0
 37 17  1  0  0  0  0
 38 17  1  0  0  0  0
 40 19  1  0  0  0  0
 41 20  1  0  0  0  0
 43 22  1  0  0  0  0
 46 26  1  0  0  0  0
 48 28  1  0  0  0  0
 49 28  1  0  0  0  0
M  END
>  <Pose>
1

>  <Score>
-6.73

$$$$
