
 OpenBabel03232204043D

 47 50  0  0  1  0  0  0  0  0999 V2000
   18.5480  -55.2670   32.8890 S   0  0  0  0  0  0  0  0  0  0  0  0
   17.1160  -55.4530   32.5260 O   0  0  0  0  0  0  0  0  0  0  0  0
   19.1470  -56.5700   33.3770 O   0  0  0  0  0  0  0  0  0  0  0  0
   18.7880  -54.0950   34.0890 N   0  0  0  0  0  0  0  0  0  0  0  0
   19.0770  -54.6070   35.3520 C   0  0  0  0  0  0  0  0  0  0  0  0
   18.9650  -53.7720   36.5490 C   0  0  1  0  0  0  0  0  0  0  0  0
   18.9040  -52.3090   36.1910 C   0  0  0  0  0  0  0  0  0  0  0  0
   17.8270  -52.1120   35.1850 C   0  0  0  0  0  0  0  0  0  0  0  0
   18.1590  -52.8680   33.9300 C   0  0  0  0  0  0  0  0  0  0  0  0
   17.8140  -54.0890   37.4380 C   0  0  0  0  0  0  0  0  0  0  0  0
   17.1930  -55.2660   37.4390 N   0  0  0  0  0  0  0  0  0  0  0  0
   16.1510  -55.5180   38.2510 C   0  0  0  0  0  0  0  0  0  0  0  0
   15.3540  -56.6040   38.4510 N   0  0  0  0  0  0  0  0  0  0  0  0
   14.4900  -56.2640   39.3830 N   0  0  0  0  0  0  0  0  0  0  0  0
   14.6830  -55.0250   39.7930 N   0  0  0  0  0  0  0  0  0  0  0  0
   15.7160  -54.5180   39.1100 C   0  0  0  0  0  0  0  0  0  0  0  0
   16.3530  -53.2890   39.1190 C   0  0  0  0  0  0  0  0  0  0  0  0
   17.3810  -53.1390   38.2730 N   0  0  0  0  0  0  0  0  0  0  0  0
   15.9330  -52.2770   39.9710 O   0  0  0  0  0  0  0  0  0  0  0  0
   15.4480  -57.8600   37.7750 C   0  0  0  0  0  0  0  0  0  0  0  0
   14.8900  -57.8400   36.4020 C   0  0  0  0  0  0  0  0  0  0  0  0
   13.5740  -58.1890   36.2250 C   0  0  0  0  0  0  0  0  0  0  0  0
   12.9700  -58.1970   34.9700 C   0  0  0  0  0  0  0  0  0  0  0  0
   13.7000  -57.8470   33.8540 C   0  0  0  0  0  0  0  0  0  0  0  0
   15.0200  -57.4960   34.0230 C   0  0  0  0  0  0  0  0  0  0  0  0
   15.6140  -57.4910   35.2840 C   0  0  0  0  0  0  0  0  0  0  0  0
   12.5910  -58.6440   37.6010 Cl  0  0  0  0  0  0  0  0  0  0  0  0
   19.4640  -54.8560   31.3950 C   0  0  0  0  0  0  0  0  0  0  0  0
   20.1040  -55.0800   35.3100 H   0  0  0  0  0  0  0  0  0  0  0  0
   18.4050  -55.5080   35.5110 H   0  0  0  0  0  0  0  0  0  0  0  0
   19.9230  -53.8730   37.1590 H   0  0  0  0  0  0  0  0  0  0  0  0
   18.7720  -51.6970   37.1070 H   0  0  0  0  0  0  0  0  0  0  0  0
   19.8630  -51.9840   35.7200 H   0  0  0  0  0  0  0  0  0  0  0  0
   17.8480  -51.0070   34.9220 H   0  0  0  0  0  0  0  0  0  0  0  0
   16.8050  -52.2930   35.5170 H   0  0  0  0  0  0  0  0  0  0  0  0
   17.2130  -52.9340   33.3320 H   0  0  0  0  0  0  0  0  0  0  0  0
   18.8290  -52.2010   33.3140 H   0  0  0  0  0  0  0  0  0  0  0  0
   15.3920  -52.4990   40.7930 H   0  0  0  0  0  0  0  0  0  0  0  0
   14.9310  -58.6880   38.3120 H   0  0  0  0  0  0  0  0  0  0  0  0
   16.5410  -58.1100   37.6540 H   0  0  0  0  0  0  0  0  0  0  0  0
   11.9360  -58.4690   34.8160 H   0  0  0  0  0  0  0  0  0  0  0  0
   13.2310  -57.8510   32.8600 H   0  0  0  0  0  0  0  0  0  0  0  0
   15.6020  -57.2170   33.1330 H   0  0  0  0  0  0  0  0  0  0  0  0
   16.6520  -57.2130   35.3970 H   0  0  0  0  0  0  0  0  0  0  0  0
   19.0310  -53.9770   30.9000 H   0  0  0  0  0  0  0  0  0  0  0  0
   20.5150  -54.7080   31.7150 H   0  0  0  0  0  0  0  0  0  0  0  0
   19.3290  -55.7220   30.7160 H   0  0  0  0  0  0  0  0  0  0  0  0
  1  3  2  0  0  0  0
  1  4  1  0  0  0  0
  2  1  2  0  0  0  0
  4  5  1  0  0  0  0
  5 30  1  0  0  0  0
  5  6  1  0  0  0  0
  6 31  1  1  0  0  0
  6 10  1  0  0  0  0
  7  6  1  0  0  0  0
  7 32  1  0  0  0  0
  8 35  1  0  0  0  0
  8  7  1  0  0  0  0
  9  4  1  0  0  0  0
  9  8  1  0  0  0  0
 10 11  2  0  0  0  0
 10 18  1  0  0  0  0
 11 12  1  0  0  0  0
 12 13  1  0  0  0  0
 12 16  2  0  0  0  0
 13 14  1  0  0  0  0
 14 15  2  0  0  0  0
 16 17  1  0  0  0  0
 16 15  1  0  0  0  0
 17 19  1  0  0  0  0
 18 17  2  0  0  0  0
 19 38  1  0  0  0  0
 20 39  1  0  0  0  0
 20 13  1  0  0  0  0
 21 20  1  0  0  0  0
 22 21  1  0  0  0  0
 22 27  1  0  0  0  0
 23 22  2  0  0  0  0
 24 25  2  0  0  0  0
 24 23  1  0  0  0  0
 25 26  1  0  0  0  0
 26 44  1  0  0  0  0
 26 21  2  0  0  0  0
 28 46  1  0  0  0  0
 28  1  1  0  0  0  0
 29  5  1  0  0  0  0
 33  7  1  0  0  0  0
 34  8  1  0  0  0  0
 36  9  1  0  0  0  0
 37  9  1  0  0  0  0
 40 20  1  0  0  0  0
 41 23  1  0  0  0  0
 42 24  1  0  0  0  0
 43 25  1  0  0  0  0
 45 28  1  0  0  0  0
 47 28  1  0  0  0  0
M  END
>  <Pose>
1

>  <Score>
-6.41

$$$$
