
 OpenBabel03232204043D

 54 57  0  0  1  0  0  0  0  0999 V2000
   15.2250  -58.0050   36.8530 S   0  0  0  0  0  0  0  0  0  0  0  0
   16.3890  -57.0890   36.4540 O   0  0  0  0  0  0  0  0  0  0  0  0
   15.8080  -58.8860   37.9310 O   0  0  0  0  0  0  0  0  0  0  0  0
   13.9730  -57.0180   37.3960 N   0  0  0  0  0  0  0  0  0  0  0  0
   14.4690  -55.6890   37.8080 C   0  0  0  0  0  0  0  0  0  0  0  0
   15.3250  -55.8900   39.0030 C   0  0  2  0  0  0  0  0  0  0  0  0
   14.8690  -56.6620   40.0060 O   0  0  0  0  0  0  0  0  0  0  0  0
   13.8400  -57.4980   39.8040 C   0  0  0  0  0  0  0  0  0  0  0  0
   13.1650  -57.4490   38.4760 C   0  0  0  0  0  0  0  0  0  0  0  0
   15.6510  -54.5360   39.5400 C   0  0  0  0  0  0  0  0  0  0  0  0
   14.9530  -54.1170   40.5020 O   0  0  0  0  0  0  0  0  0  0  0  0
   16.6740  -53.7030   39.0520 N   0  0  0  0  0  0  0  0  0  0  0  0
   16.4780  -52.6700   38.0520 C   0  0  0  0  0  0  0  0  0  0  0  0
   17.7950  -51.9340   37.9030 C   0  0  0  0  0  0  0  0  0  0  0  0
   18.8710  -52.7980   37.4550 N   0  0  0  0  0  0  0  0  0  0  0  0
   18.8990  -53.9790   38.2580 C   0  0  0  0  0  0  0  0  0  0  0  0
   18.0590  -53.8210   39.5320 C   0  0  0  0  0  0  0  0  0  0  0  0
   18.7170  -53.0170   36.0540 C   0  0  0  0  0  0  0  0  0  0  0  0
   19.7300  -53.9630   35.4690 C   0  0  0  0  0  0  0  0  0  0  0  0
   20.2230  -53.5370   34.0880 C   0  0  0  0  0  0  0  0  0  0  0  0
   19.4470  -54.7990   34.3010 C   0  0  0  0  0  0  0  0  0  0  0  0
   14.8360  -58.9120   35.4260 C   0  0  0  0  0  0  0  0  0  0  0  0
   13.7580  -59.7680   35.3800 C   0  0  0  0  0  0  0  0  0  0  0  0
   13.4760  -60.5380   34.2670 C   0  0  0  0  0  0  0  0  0  0  0  0
   14.2860  -60.4540   33.1630 C   0  0  0  0  0  0  0  0  0  0  0  0
   15.3750  -59.5950   33.1910 C   0  0  0  0  0  0  0  0  0  0  0  0
   15.6500  -58.8380   34.2940 C   0  0  0  0  0  0  0  0  0  0  0  0
   12.6180  -59.8600   36.7350 Cl  0  0  0  0  0  0  0  0  0  0  0  0
   13.5960  -55.0950   38.0740 H   0  0  0  0  0  0  0  0  0  0  0  0
   15.0440  -55.2030   37.0200 H   0  0  0  0  0  0  0  0  0  0  0  0
   16.3340  -56.3150   38.7000 H   0  0  0  0  0  0  0  0  0  0  0  0
   13.0560  -57.2840   40.5930 H   0  0  0  0  0  0  0  0  0  0  0  0
   14.1490  -58.5380   40.0100 H   0  0  0  0  0  0  0  0  0  0  0  0
   12.6010  -58.3430   38.2240 H   0  0  0  0  0  0  0  0  0  0  0  0
   12.3440  -56.6450   38.5570 H   0  0  0  0  0  0  0  0  0  0  0  0
   16.1260  -53.1010   37.1120 H   0  0  0  0  0  0  0  0  0  0  0  0
   15.7530  -51.9090   38.4070 H   0  0  0  0  0  0  0  0  0  0  0  0
   17.6400  -51.1200   37.1370 H   0  0  0  0  0  0  0  0  0  0  0  0
   18.0030  -51.4220   38.8460 H   0  0  0  0  0  0  0  0  0  0  0  0
   19.9240  -54.1740   38.5960 H   0  0  0  0  0  0  0  0  0  0  0  0
   18.4480  -54.8340   37.7120 H   0  0  0  0  0  0  0  0  0  0  0  0
   18.1260  -54.7950   40.0570 H   0  0  0  0  0  0  0  0  0  0  0  0
   18.3670  -52.9640   40.1300 H   0  0  0  0  0  0  0  0  0  0  0  0
   17.6770  -53.3110   35.8320 H   0  0  0  0  0  0  0  0  0  0  0  0
   18.8650  -52.0280   35.5480 H   0  0  0  0  0  0  0  0  0  0  0  0
   20.5320  -54.2930   36.1600 H   0  0  0  0  0  0  0  0  0  0  0  0
   19.7280  -52.6890   33.5840 H   0  0  0  0  0  0  0  0  0  0  0  0
   21.3020  -53.6090   33.8690 H   0  0  0  0  0  0  0  0  0  0  0  0
   20.0250  -55.7280   34.1670 H   0  0  0  0  0  0  0  0  0  0  0  0
   18.4640  -54.8200   33.7940 H   0  0  0  0  0  0  0  0  0  0  0  0
   12.6300  -61.2130   34.2290 H   0  0  0  0  0  0  0  0  0  0  0  0
   14.0560  -61.0580   32.3010 H   0  0  0  0  0  0  0  0  0  0  0  0
   15.9820  -59.5620   32.3000 H   0  0  0  0  0  0  0  0  0  0  0  0
   16.4980  -58.1620   34.3310 H   0  0  0  0  0  0  0  0  0  0  0  0
  1  4  1  0  0  0  0
  1  3  2  0  0  0  0
  2  1  2  0  0  0  0
  4  5  1  0  0  0  0
  4  9  1  0  0  0  0
  5 29  1  0  0  0  0
  5  6  1  0  0  0  0
  6 31  1  6  0  0  0
  6 10  1  0  0  0  0
  6  7  1  0  0  0  0
  8  7  1  0  0  0  0
  8 33  1  0  0  0  0
  8 32  1  0  0  0  0
  9 35  1  0  0  0  0
  9  8  1  0  0  0  0
 10 11  2  0  0  0  0
 12 17  1  0  0  0  0
 12 10  1  0  0  0  0
 13 37  1  0  0  0  0
 13 12  1  0  0  0  0
 14 13  1  0  0  0  0
 14 39  1  0  0  0  0
 15 14  1  0  0  0  0
 15 16  1  0  0  0  0
 16 40  1  0  0  0  0
 16 17  1  0  0  0  0
 17 42  1  0  0  0  0
 17 43  1  0  0  0  0
 18 15  1  0  0  0  0
 19 18  1  0  0  0  0
 19 46  1  0  0  0  0
 20 21  1  0  0  0  0
 20 19  1  0  0  0  0
 21 19  1  0  0  0  0
 22  1  1  0  0  0  0
 23 22  1  0  0  0  0
 23 28  1  0  0  0  0
 24 23  2  0  0  0  0
 25 26  2  0  0  0  0
 25 24  1  0  0  0  0
 26 27  1  0  0  0  0
 27 54  1  0  0  0  0
 27 22  2  0  0  0  0
 30  5  1  0  0  0  0
 34  9  1  0  0  0  0
 36 13  1  0  0  0  0
 38 14  1  0  0  0  0
 41 16  1  0  0  0  0
 44 18  1  0  0  0  0
 45 18  1  0  0  0  0
 47 20  1  0  0  0  0
 48 20  1  0  0  0  0
 49 21  1  0  0  0  0
 50 21  1  0  0  0  0
 51 24  1  0  0  0  0
 52 25  1  0  0  0  0
 53 26  1  0  0  0  0
M  END
>  <Pose>
1

>  <Score>
-6.34

$$$$
