
 OpenBabel03232204043D

 56 59  0  0  0  0  0  0  0  0999 V2000
   19.1890  -55.0320   34.4410 B   0  0  0  0  0  0  0  0  0  0  0  0
   18.5910  -53.9760   35.9090 C   0  0  0  0  0  0  0  0  0  0  0  0
   17.5710  -54.4610   36.7450 C   0  0  0  0  0  0  0  0  0  0  0  0
   17.1620  -53.6960   37.7790 C   0  0  0  0  0  0  0  0  0  0  0  0
   17.7190  -52.4630   38.0350 C   0  0  0  0  0  0  0  0  0  0  0  0
   18.7390  -52.0000   37.1900 C   0  0  0  0  0  0  0  0  0  0  0  0
   19.1790  -52.7530   36.1200 C   0  0  0  0  0  0  0  0  0  0  0  0
   17.2770  -51.7080   39.1110 O   0  0  0  0  0  0  0  0  0  0  0  0
   17.7470  -50.4630   39.4940 C   0  0  0  0  0  0  0  0  0  0  0  0
   16.1640  -54.2290   38.7220 C   0  0  0  0  0  0  0  0  0  0  0  0
   15.4420  -55.2590   38.2600 C   0  0  0  0  0  0  0  0  0  0  0  0
   15.5870  -55.8030   36.9890 O   0  0  0  0  0  0  0  0  0  0  0  0
   14.6990  -56.8790   36.8570 C   0  0  0  0  0  0  0  0  0  0  0  0
   13.9580  -57.0830   37.9810 C   0  0  0  0  0  0  0  0  0  0  0  0
   13.0410  -58.1030   38.0730 C   0  0  0  0  0  0  0  0  0  0  0  0
   12.8520  -58.9630   36.9970 C   0  0  0  0  0  0  0  0  0  0  0  0
   13.6130  -58.7480   35.8470 C   0  0  0  0  0  0  0  0  0  0  0  0
   14.5150  -57.7370   35.7590 C   0  0  0  0  0  0  0  0  0  0  0  0
   15.2110  -57.3340   34.5180 C   0  0  0  0  0  0  0  0  0  0  0  0
   16.4130  -57.9940   34.3090 N   0  0  0  0  0  4  0  0  0  0  0  0
   16.2400  -59.2330   33.4870 C   0  0  0  0  0  0  0  0  0  0  0  0
   17.3400  -59.1190   32.4020 C   0  0  0  0  0  0  0  0  0  0  0  0
   18.2910  -58.1280   32.7960 N   0  0  0  0  0  0  0  0  0  0  0  0
   18.7570  -58.2230   34.1240 C   0  0  0  0  0  0  0  0  0  0  0  0
   17.5200  -58.1740   35.1240 C   0  0  0  0  0  0  0  0  0  0  0  0
   18.6720  -57.1620   31.8920 C   0  0  0  0  0  0  0  0  0  0  0  0
   17.6450  -56.4150   31.1010 C   0  0  0  0  0  0  0  0  0  0  0  0
   17.9910  -55.0600   30.9790 O   0  0  0  0  0  0  0  0  0  0  0  0
   13.3640  -59.6500   34.8130 O   0  0  0  0  0  0  0  0  0  0  0  0
   14.4160  -56.0280   38.9320 C   0  0  0  0  0  0  0  0  0  0  0  0
   13.9940  -55.8370   40.0810 O   0  0  0  0  0  0  0  0  0  0  0  0
   17.1900  -55.4380   36.4950 H   0  0  0  0  0  0  0  0  0  0  0  0
   19.2010  -51.0390   37.3520 H   0  0  0  0  0  0  0  0  0  0  0  0
   19.9810  -52.3440   35.4760 H   0  0  0  0  0  0  0  0  0  0  0  0
   17.6780  -49.6730   38.7470 H   0  0  0  0  0  0  0  0  0  0  0  0
   17.1530  -50.1250   40.3840 H   0  0  0  0  0  0  0  0  0  0  0  0
   18.8230  -50.5260   39.8380 H   0  0  0  0  0  0  0  0  0  0  0  0
   16.0020  -53.8300   39.6910 H   0  0  0  0  0  0  0  0  0  0  0  0
   12.4720  -58.2240   38.9950 H   0  0  0  0  0  0  0  0  0  0  0  0
   12.1220  -59.7550   37.0880 H   0  0  0  0  0  0  0  0  0  0  0  0
   14.4740  -57.5120   33.6570 H   0  0  0  0  0  0  0  0  0  0  0  0
   15.2890  -56.2140   34.5080 H   0  0  0  0  0  0  0  0  0  0  0  0
   16.8030  -57.3270   33.4610 H   0  0  0  0  0  0  0  0  0  0  0  0
   15.2370  -59.2350   33.0370 H   0  0  0  0  0  0  0  0  0  0  0  0
   16.4460  -60.0920   34.1440 H   0  0  0  0  0  0  0  0  0  0  0  0
   17.7970  -60.1120   32.2900 H   0  0  0  0  0  0  0  0  0  0  0  0
   16.8360  -58.8290   31.4860 H   0  0  0  0  0  0  0  0  0  0  0  0
   19.1670  -59.2330   34.2730 H   0  0  0  0  0  0  0  0  0  0  0  0
   19.4840  -57.4860   34.3870 H   0  0  0  0  0  0  0  0  0  0  0  0
   17.4410  -59.1930   35.6190 H   0  0  0  0  0  0  0  0  0  0  0  0
   17.7850  -57.4600   35.8950 H   0  0  0  0  0  0  0  0  0  0  0  0
   19.2750  -56.3310   32.4300 H   0  0  0  0  0  0  0  0  0  0  0  0
   19.4480  -57.5580   31.1700 H   0  0  0  0  0  0  0  0  0  0  0  0
   16.6150  -56.4920   31.4410 H   0  0  0  0  0  0  0  0  0  0  0  0
   17.6500  -56.8260   30.0450 H   0  0  0  0  0  0  0  0  0  0  0  0
   17.3170  -54.6070   30.3730 H   0  0  0  0  0  0  0  0  0  0  0  0
  1  2  1  0  0  0  0
  2  7  2  0  0  0  0
  2  3  1  0  0  0  0
  3  4  2  0  0  0  0
  4  5  1  0  0  0  0
  4 10  1  0  0  0  0
  5  8  1  0  0  0  0
  6 33  1  0  0  0  0
  6  5  2  0  0  0  0
  7  6  1  0  0  0  0
  8  9  1  0  0  0  0
  9 37  1  0  0  0  0
  9 36  1  0  0  0  0
 10 38  1  0  0  0  0
 11 10  2  0  0  0  0
 11 30  1  0  0  0  0
 12 11  1  0  0  0  0
 13 12  1  0  0  0  0
 13 14  1  0  0  0  0
 14 15  2  0  0  0  0
 14 30  1  0  0  0  0
 15 39  1  0  0  0  0
 16 40  1  0  0  0  0
 16 15  1  0  0  0  0
 17 16  2  0  0  0  0
 18 17  1  0  0  0  0
 18 13  2  0  0  0  0
 19 18  1  0  0  0  0
 20 19  1  0  0  0  0
 20 25  1  0  0  0  0
 21 45  1  0  0  0  0
 21 20  1  0  0  0  0
 22 23  1  0  0  0  0
 22 21  1  0  0  0  0
 23 24  1  0  0  0  0
 24 48  1  0  0  0  0
 24 49  1  0  0  0  0
 24 25  1  0  0  0  0
 25 50  1  0  0  0  0
 25 51  1  0  0  0  0
 26 52  1  0  0  0  0
 26 23  1  0  0  0  0
 27 54  1  0  0  0  0
 27 26  1  0  0  0  0
 28 27  1  0  0  0  0
 29 17  1  0  0  0  0
 30 31  2  0  0  0  0
 32  3  1  0  0  0  0
 34  7  1  0  0  0  0
 35  9  1  0  0  0  0
 41 19  1  0  0  0  0
 42 19  1  0  0  0  0
 43 20  1  0  0  0  0
 44 21  1  0  0  0  0
 46 22  1  0  0  0  0
 47 22  1  0  0  0  0
 53 26  1  0  0  0  0
 55 27  1  0  0  0  0
 56 28  1  0  0  0  0
M  END
>  <Pose>
1

>  <Score>
-7.07

$$$$
