
 OpenBabel03232204043D

 51 55  0  0  1  0  0  0  0  0999 V2000
   11.8880  -62.3850   37.8260 Cl  0  0  0  0  0  0  0  0  0  0  0  0
   12.2930  -61.3410   36.4810 C   0  0  0  0  0  0  0  0  0  0  0  0
   13.2470  -60.3640   36.5760 C   0  0  0  0  0  0  0  0  0  0  0  0
   13.5390  -59.5520   35.4770 C   0  0  0  0  0  0  0  0  0  0  0  0
   12.8480  -59.7660   34.3220 C   0  0  0  0  0  0  0  0  0  0  0  0
   11.8690  -60.7680   34.2220 C   0  0  0  0  0  0  0  0  0  0  0  0
   11.5830  -61.5610   35.2960 C   0  0  0  0  0  0  0  0  0  0  0  0
   13.2990  -58.8360   33.3420 N   0  0  0  0  0  0  0  0  0  0  0  0
   14.2990  -58.0160   33.8960 C   0  0  0  0  0  0  0  0  0  0  0  0
   14.8910  -57.0870   33.2610 O   0  0  0  0  0  0  0  0  0  0  0  0
   14.4940  -58.4470   35.2850 C   0  0  1  0  0  0  0  0  0  0  0  0
   14.1380  -57.4200   36.2380 N   0  0  0  0  0  0  0  0  0  0  0  0
   15.2940  -57.0100   36.9700 C   0  0  2  0  0  0  0  0  0  0  0  0
   16.4400  -57.6480   36.2910 C   0  0  1  0  0  0  0  0  0  0  0  0
   15.9170  -58.8610   35.5730 C   0  0  2  0  0  0  0  0  0  0  0  0
   16.7580  -58.9030   34.3560 C   0  0  0  0  0  0  0  0  0  0  0  0
   16.9680  -59.8730   33.5850 O   0  0  0  0  0  0  0  0  0  0  0  0
   17.3570  -57.6090   34.1330 N   0  0  0  0  0  0  0  0  0  0  0  0
   16.8770  -56.7530   35.1630 C   0  0  0  0  0  0  0  0  0  0  0  0
   16.8440  -55.5020   35.1010 O   0  0  0  0  0  0  0  0  0  0  0  0
   18.2660  -57.2700   33.0580 C   0  0  0  0  0  0  0  0  0  0  0  0
   17.5640  -56.7790   31.8210 C   0  0  1  0  0  0  0  0  0  0  0  0
   17.2420  -55.4330   31.9710 O   0  0  0  0  0  0  0  0  0  0  0  0
   18.2900  -54.7040   31.4560 C   0  0  0  0  0  0  0  0  0  0  0  0
   18.9590  -55.5360   30.3850 C   0  0  0  0  0  0  0  0  0  0  0  0
   18.3520  -56.9140   30.5660 C   0  0  0  0  0  0  0  0  0  0  0  0
   15.1920  -57.3110   38.4410 C   0  0  0  0  0  0  0  0  0  0  0  0
   13.9660  -56.8640   39.0740 C   0  0  0  0  0  0  0  0  0  0  0  0
   13.9520  -55.8080   39.7420 O   0  0  0  0  0  0  0  0  0  0  0  0
   12.7700  -57.6060   38.9510 N   0  0  0  0  0  0  0  0  0  0  0  0
   13.7830  -60.2000   37.4760 H   0  0  0  0  0  0  0  0  0  0  0  0
   11.3610  -60.8870   33.2890 H   0  0  0  0  0  0  0  0  0  0  0  0
   10.8280  -62.3260   35.2010 H   0  0  0  0  0  0  0  0  0  0  0  0
   12.9490  -58.7550   32.3400 H   0  0  0  0  0  0  0  0  0  0  0  0
   13.4190  -57.7340   36.9270 H   0  0  0  0  0  0  0  0  0  0  0  0
   15.3760  -55.8930   36.8180 H   0  0  0  0  0  0  0  0  0  0  0  0
   17.3130  -57.8810   36.9350 H   0  0  0  0  0  0  0  0  0  0  0  0
   15.9870  -59.7900   36.1680 H   0  0  0  0  0  0  0  0  0  0  0  0
   18.9810  -56.4950   33.4040 H   0  0  0  0  0  0  0  0  0  0  0  0
   18.8930  -58.1690   32.8070 H   0  0  0  0  0  0  0  0  0  0  0  0
   16.6090  -57.3310   31.7080 H   0  0  0  0  0  0  0  0  0  0  0  0
   17.8590  -53.7870   30.9930 H   0  0  0  0  0  0  0  0  0  0  0  0
   19.0090  -54.3580   32.2270 H   0  0  0  0  0  0  0  0  0  0  0  0
   18.6750  -55.1570   29.3890 H   0  0  0  0  0  0  0  0  0  0  0  0
   20.0570  -55.5830   30.5330 H   0  0  0  0  0  0  0  0  0  0  0  0
   19.1020  -57.7100   30.5870 H   0  0  0  0  0  0  0  0  0  0  0  0
   17.6870  -57.1590   29.6860 H   0  0  0  0  0  0  0  0  0  0  0  0
   15.2440  -58.4330   38.5360 H   0  0  0  0  0  0  0  0  0  0  0  0
   16.1190  -56.9500   38.9370 H   0  0  0  0  0  0  0  0  0  0  0  0
   11.8560  -57.1460   39.1740 H   0  0  0  0  0  0  0  0  0  0  0  0
   12.7260  -58.5970   38.6500 H   0  0  0  0  0  0  0  0  0  0  0  0
  2  3  1  0  0  0  0
  2  1  1  0  0  0  0
  3 31  1  0  0  0  0
  4  3  2  0  0  0  0
  5  4  1  0  0  0  0
  6  5  2  0  0  0  0
  6  7  1  0  0  0  0
  7  2  2  0  0  0  0
  8  9  1  0  0  0  0
  8  5  1  0  0  0  0
 10  9  2  0  0  0  0
 11  9  1  6  0  0  0
 11  4  1  0  0  0  0
 11 15  1  0  0  0  0
 11 12  1  0  0  0  0
 12 35  1  0  0  0  0
 12 13  1  0  0  0  0
 13 36  1  6  0  0  0
 13 27  1  0  0  0  0
 14 37  1  1  0  0  0
 14 13  1  0  0  0  0
 15 38  1  1  0  0  0
 15 14  1  0  0  0  0
 16 15  1  0  0  0  0
 17 16  2  0  0  0  0
 18 16  1  0  0  0  0
 18 19  1  0  0  0  0
 19 14  1  0  0  0  0
 20 19  2  0  0  0  0
 21 39  1  0  0  0  0
 21 18  1  0  0  0  0
 22 41  1  6  0  0  0
 22 23  1  0  0  0  0
 22 21  1  0  0  0  0
 24 23  1  0  0  0  0
 24 43  1  0  0  0  0
 25 45  1  0  0  0  0
 25 26  1  0  0  0  0
 25 24  1  0  0  0  0
 26 46  1  0  0  0  0
 26 22  1  0  0  0  0
 27 48  1  0  0  0  0
 27 49  1  0  0  0  0
 27 28  1  0  0  0  0
 28 29  2  0  0  0  0
 30 28  1  0  0  0  0
 30 50  1  0  0  0  0
 32  6  1  0  0  0  0
 33  7  1  0  0  0  0
 34  8  1  0  0  0  0
 40 21  1  0  0  0  0
 42 24  1  0  0  0  0
 44 25  1  0  0  0  0
 47 26  1  0  0  0  0
 51 30  1  0  0  0  0
M  END
>  <Pose>
1

>  <Score>
-7.60

$$$$
