
 OpenBabel03232204043D

 53 56  0  0  0  0  0  0  0  0999 V2000
   10.1860  -60.7270   37.8790 Cl  0  0  0  0  0  0  0  0  0  0  0  0
   11.5110  -59.5910   37.8390 C   0  0  0  0  0  0  0  0  0  0  0  0
   12.2260  -59.3520   36.6880 C   0  0  0  0  0  0  0  0  0  0  0  0
   13.2610  -58.4680   36.6430 C   0  0  0  0  0  0  0  0  0  0  0  0
   13.6660  -57.7420   37.7840 C   0  0  0  0  0  0  0  0  0  0  0  0
   12.9210  -58.0010   38.9540 C   0  0  0  0  0  0  0  0  0  0  0  0
   11.8900  -58.8920   38.9620 C   0  0  0  0  0  0  0  0  0  0  0  0
   14.6400  -56.8910   37.8030 O   0  0  0  0  0  0  0  0  0  0  0  0
   15.6200  -56.0620   37.8560 C   0  0  0  0  0  0  0  0  0  0  0  0
   15.6530  -54.8610   38.7130 C   0  0  0  0  0  0  0  0  0  0  0  0
   14.5630  -54.6780   39.4050 O   0  0  0  0  0  0  0  0  0  0  0  0
   16.6490  -53.9150   38.8940 N   0  0  0  0  0  0  0  0  0  0  0  0
   16.4200  -52.5520   38.3230 C   0  0  0  0  0  0  0  0  0  0  0  0
   17.7390  -52.1260   37.7310 C   0  0  0  0  0  0  0  0  0  0  0  0
   18.6250  -53.2420   37.4510 N   0  0  0  0  0  0  0  0  0  0  0  0
   19.0480  -54.0430   38.5680 C   0  0  0  0  0  0  0  0  0  0  0  0
   17.9100  -54.0330   39.5770 C   0  0  0  0  0  0  0  0  0  0  0  0
   19.0340  -53.5070   36.1270 C   0  0  0  0  0  0  0  0  0  0  0  0
   18.5330  -54.5660   35.4320 N   0  0  0  0  0  0  0  0  0  0  0  0
   18.8840  -54.8540   34.1860 C   0  0  0  0  0  0  0  0  0  0  0  0
   19.7910  -54.0390   33.5890 N   0  0  0  0  0  0  0  0  0  0  0  0
   20.3220  -52.9940   34.1980 C   0  0  0  0  0  0  0  0  0  0  0  0
   19.9500  -52.6970   35.5050 C   0  0  0  0  0  0  0  0  0  0  0  0
   18.3730  -55.9510   33.4500 N   0  0  0  0  0  0  0  0  0  0  0  0
   17.3990  -55.7230   32.3870 C   0  0  0  0  0  0  0  0  0  0  0  0
   16.2260  -56.6520   32.7140 C   0  0  0  0  0  0  0  0  0  0  0  0
   16.6460  -57.9550   32.7210 O   0  0  0  0  0  0  0  0  0  0  0  0
   17.5780  -58.2590   33.6840 C   0  0  0  0  0  0  0  0  0  0  0  0
   18.7620  -57.3190   33.6900 C   0  0  0  0  0  0  0  0  0  0  0  0
   11.9080  -59.9170   35.8080 H   0  0  0  0  0  0  0  0  0  0  0  0
   13.7960  -58.2920   35.7450 H   0  0  0  0  0  0  0  0  0  0  0  0
   13.2220  -57.4470   39.8390 H   0  0  0  0  0  0  0  0  0  0  0  0
   11.3350  -59.0710   39.8770 H   0  0  0  0  0  0  0  0  0  0  0  0
   15.8490  -55.6260   36.7980 H   0  0  0  0  0  0  0  0  0  0  0  0
   16.6630  -56.5480   38.0400 H   0  0  0  0  0  0  0  0  0  0  0  0
   16.1600  -51.9290   39.2030 H   0  0  0  0  0  0  0  0  0  0  0  0
   15.6070  -52.5990   37.5660 H   0  0  0  0  0  0  0  0  0  0  0  0
   18.2860  -51.5150   38.5100 H   0  0  0  0  0  0  0  0  0  0  0  0
   17.6120  -51.5160   36.7980 H   0  0  0  0  0  0  0  0  0  0  0  0
   19.3690  -55.0570   38.3190 H   0  0  0  0  0  0  0  0  0  0  0  0
   19.9540  -53.5540   39.0350 H   0  0  0  0  0  0  0  0  0  0  0  0
   18.0580  -53.0480   40.1340 H   0  0  0  0  0  0  0  0  0  0  0  0
   17.9770  -54.7870   40.3490 H   0  0  0  0  0  0  0  0  0  0  0  0
   21.0520  -52.3500   33.6980 H   0  0  0  0  0  0  0  0  0  0  0  0
   20.3880  -51.8310   36.0000 H   0  0  0  0  0  0  0  0  0  0  0  0
   17.0530  -54.6740   32.3630 H   0  0  0  0  0  0  0  0  0  0  0  0
   17.8470  -56.0640   31.4550 H   0  0  0  0  0  0  0  0  0  0  0  0
   15.8050  -56.3170   33.6920 H   0  0  0  0  0  0  0  0  0  0  0  0
   15.4730  -56.5070   31.9390 H   0  0  0  0  0  0  0  0  0  0  0  0
   17.1540  -58.2900   34.7120 H   0  0  0  0  0  0  0  0  0  0  0  0
   17.9720  -59.2750   33.4720 H   0  0  0  0  0  0  0  0  0  0  0  0
   19.2470  -57.4210   34.6830 H   0  0  0  0  0  0  0  0  0  0  0  0
   19.4920  -57.6470   32.9320 H   0  0  0  0  0  0  0  0  0  0  0  0
  2  1  1  0  0  0  0
  2  7  1  0  0  0  0
  3  2  2  0  0  0  0
  4  3  1  0  0  0  0
  4  5  2  0  0  0  0
  5  8  1  0  0  0  0
  5  6  1  0  0  0  0
  6  7  2  0  0  0  0
  6 32  1  0  0  0  0
  7 33  1  0  0  0  0
  8  9  1  0  0  0  0
  9 35  1  0  0  0  0
  9 10  1  0  0  0  0
 10 12  1  0  0  0  0
 10 11  2  0  0  0  0
 12 17  1  0  0  0  0
 13 12  1  0  0  0  0
 13 36  1  0  0  0  0
 14 13  1  0  0  0  0
 14 38  1  0  0  0  0
 15 14  1  0  0  0  0
 15 16  1  0  0  0  0
 16 41  1  0  0  0  0
 16 17  1  0  0  0  0
 17 42  1  0  0  0  0
 17 43  1  0  0  0  0
 18 15  1  0  0  0  0
 19 18  1  0  0  0  0
 20 19  2  0  0  0  0
 21 20  1  0  0  0  0
 21 22  2  0  0  0  0
 22 23  1  0  0  0  0
 23 45  1  0  0  0  0
 23 18  2  0  0  0  0
 24 29  1  0  0  0  0
 24 20  1  0  0  0  0
 25 26  1  0  0  0  0
 25 24  1  0  0  0  0
 26 27  1  0  0  0  0
 26 48  1  0  0  0  0
 27 28  1  0  0  0  0
 28 29  1  0  0  0  0
 28 50  1  0  0  0  0
 29 52  1  0  0  0  0
 30  3  1  0  0  0  0
 31  4  1  0  0  0  0
 34  9  1  0  0  0  0
 37 13  1  0  0  0  0
 39 14  1  0  0  0  0
 40 16  1  0  0  0  0
 44 22  1  0  0  0  0
 46 25  1  0  0  0  0
 47 25  1  0  0  0  0
 49 26  1  0  0  0  0
 51 28  1  0  0  0  0
 53 29  1  0  0  0  0
M  END
>  <Pose>
1

>  <Score>
-7.31

$$$$
