
 OpenBabel03232204043D

 36 38  0  0  1  0  0  0  0  0999 V2000
   14.7130  -58.2640   36.2090 Cl  0  0  0  0  0  0  0  0  0  0  0  0
   15.2740  -56.8820   37.1290 C   0  0  0  0  0  0  0  0  0  0  0  0
   14.5110  -56.4660   38.2000 C   0  0  0  0  0  0  0  0  0  0  0  0
   15.0150  -55.3530   38.8860 C   0  0  0  0  0  0  0  0  0  0  0  0
   14.3660  -54.9350   39.8640 O   0  0  0  0  0  0  0  0  0  0  0  0
   16.1540  -54.7610   38.5080 N   0  0  0  0  0  0  0  0  0  0  0  0
   16.8810  -55.1660   37.4780 N   0  0  0  0  0  0  0  0  0  0  0  0
   18.0970  -54.4120   37.2060 C   0  0  1  0  0  0  0  0  0  0  0  0
   17.6730  -52.9680   37.0080 C   0  0  1  0  0  0  0  0  0  0  0  0
   16.8260  -52.5170   38.1170 C   0  0  1  0  0  0  0  0  0  0  0  0
   16.6970  -53.5920   39.2050 C   0  0  2  0  0  0  0  0  0  0  0  0
   18.1040  -53.9920   39.5520 C   0  0  0  0  0  0  0  0  0  0  0  0
   18.8280  -54.4140   38.5290 C   0  0  0  0  0  0  0  0  0  0  0  0
   18.2160  -51.9070   37.8900 C   0  0  0  0  0  0  0  0  0  0  0  0
   16.4490  -56.2170   36.7900 C   0  0  0  0  0  0  0  0  0  0  0  0
   17.1330  -56.6100   35.8100 O   0  0  0  0  0  0  0  0  0  0  0  0
   13.3000  -57.0900   38.6170 N   0  0  0  0  0  0  0  0  0  0  0  0
   13.1040  -58.4850   38.7710 C   0  0  0  0  0  0  0  0  0  0  0  0
   11.7740  -58.8730   39.3620 C   0  0  0  0  0  0  0  0  0  0  0  0
   13.2380  -59.2570   37.4660 C   0  0  0  0  0  0  0  0  0  0  0  0
   18.6940  -54.8140   36.3960 H   0  0  0  0  0  0  0  0  0  0  0  0
   17.5070  -52.6830   35.9550 H   0  0  0  0  0  0  0  0  0  0  0  0
   15.9610  -51.8410   37.9810 H   0  0  0  0  0  0  0  0  0  0  0  0
   16.1100  -53.2760   40.0530 H   0  0  0  0  0  0  0  0  0  0  0  0
   18.4200  -53.9140   40.5750 H   0  0  0  0  0  0  0  0  0  0  0  0
   19.8490  -54.7450   38.5440 H   0  0  0  0  0  0  0  0  0  0  0  0
   18.2740  -50.8860   37.5070 H   0  0  0  0  0  0  0  0  0  0  0  0
   18.9680  -52.2470   38.6570 H   0  0  0  0  0  0  0  0  0  0  0  0
   12.5120  -56.4380   38.8190 H   0  0  0  0  0  0  0  0  0  0  0  0
   13.8800  -58.9050   39.4430 H   0  0  0  0  0  0  0  0  0  0  0  0
   11.6720  -58.6080   40.4340 H   0  0  0  0  0  0  0  0  0  0  0  0
   11.6560  -59.9970   39.3440 H   0  0  0  0  0  0  0  0  0  0  0  0
   10.9090  -58.4850   38.8330 H   0  0  0  0  0  0  0  0  0  0  0  0
   13.1530  -60.3420   37.7610 H   0  0  0  0  0  0  0  0  0  0  0  0
   14.2530  -59.1500   37.0460 H   0  0  0  0  0  0  0  0  0  0  0  0
   12.4240  -59.0680   36.7680 H   0  0  0  0  0  0  0  0  0  0  0  0
  2  3  2  0  0  0  0
  3 17  1  0  0  0  0
  3  4  1  0  0  0  0
  4  5  2  0  0  0  0
  6  4  1  0  0  0  0
  6 11  1  0  0  0  0
  7  6  1  0  0  0  0
  8 21  1  6  0  0  0
  8  7  1  0  0  0  0
  8 13  1  0  0  0  0
  9 22  1  6  0  0  0
  9  8  1  0  0  0  0
  9 14  1  0  0  0  0
  9 10  1  0  0  0  0
 10 23  1  6  0  0  0
 10 11  1  0  0  0  0
 11 12  1  0  0  0  0
 11 24  1  1  0  0  0
 12 25  1  0  0  0  0
 13 26  1  0  0  0  0
 13 12  2  0  0  0  0
 14 10  1  0  0  0  0
 14 28  1  0  0  0  0
 15  2  1  0  0  0  0
 15  7  1  0  0  0  0
 16 15  2  0  0  0  0
 17 18  1  0  0  0  0
 17 29  1  0  0  0  0
 18 19  1  0  0  0  0
 18 30  1  0  0  0  0
 19 31  1  0  0  0  0
 20 34  1  0  0  0  0
 20 18  1  0  0  0  0
 27 14  1  0  0  0  0
 32 19  1  0  0  0  0
 33 19  1  0  0  0  0
 35 20  1  0  0  0  0
 36 20  1  0  0  0  0
M  END
>  <Pose>
1

>  <Score>
-6.21

$$$$
