
 OpenBabel03232204043D

 59 62  0  0  1  0  0  0  0  0999 V2000
   18.1070  -54.8870   31.2230 Cl  0  0  0  0  0  0  0  0  0  0  0  0
   18.0510  -56.0980   32.5670 C   0  0  2  0  0  0  0  0  0  0  0  0
   18.5890  -55.7440   33.7250 C   0  0  2  0  0  0  0  0  0  0  0  0
   18.5590  -56.7940   34.7730 C   0  0  0  0  0  0  0  0  0  0  0  0
   18.0070  -57.9100   34.4800 N   0  0  0  0  0  0  0  0  0  0  0  0
   17.4500  -58.2270   33.2820 N   0  0  0  0  0  0  0  0  0  0  0  0
   17.4660  -57.3410   32.3240 C   0  0  0  0  0  0  0  0  0  0  0  0
   16.9610  -57.5340   31.1660 O   0  0  0  0  0  0  0  0  0  0  0  0
   16.6340  -59.4390   33.2350 C   0  0  0  0  0  0  0  0  0  0  0  0
   17.1330  -60.6480   32.8690 C   0  0  0  0  0  0  0  0  0  0  0  0
   16.3720  -61.7930   32.9520 C   0  0  0  0  0  0  0  0  0  0  0  0
   15.0600  -61.7430   33.4190 C   0  0  0  0  0  0  0  0  0  0  0  0
   14.5720  -60.4870   33.7790 C   0  0  0  0  0  0  0  0  0  0  0  0
   15.3300  -59.3850   33.6910 C   0  0  0  0  0  0  0  0  0  0  0  0
   18.8660  -54.4570   34.1610 N   0  0  0  0  0  0  0  0  0  0  0  0
   20.0210  -53.7760   34.5700 C   0  0  0  0  0  0  0  0  0  0  0  0
   19.7610  -53.2700   36.0360 C   0  0  0  0  0  0  0  0  0  0  0  0
   18.6540  -53.7650   36.6890 N   0  0  0  0  0  0  0  0  0  0  0  0
   17.5170  -54.2000   35.9240 C   0  0  0  0  0  0  0  0  0  0  0  0
   17.6140  -53.6430   34.4660 C   0  0  0  0  0  0  0  0  0  0  0  0
   18.0250  -52.8270   37.6770 C   0  0  0  0  0  0  0  0  0  0  0  0
   17.2380  -53.5830   38.6400 C   0  0  0  0  0  0  0  0  0  0  0  0
   17.4070  -53.9880   39.6670 O   0  0  0  0  0  0  0  0  0  0  0  0
   15.6850  -53.8950   38.0000 N   0  0  0  0  0  0  0  0  0  0  0  0
   15.2600  -54.7760   39.1450 C   0  0  0  0  0  0  0  0  0  0  0  0
   14.9210  -54.3960   40.2320 O   0  0  0  0  0  0  0  0  0  0  0  0
   15.2980  -56.1640   38.7470 N   0  0  0  0  0  0  0  0  0  0  0  0
   14.6460  -56.7640   37.6450 C   0  0  0  0  0  0  0  0  0  0  0  0
   15.0350  -58.1190   37.2130 C   0  0  0  0  0  0  0  0  0  0  0  0
   14.1280  -59.1120   37.9470 C   0  0  0  0  0  0  0  0  0  0  0  0
   12.8420  -58.3260   38.0340 C   0  0  0  0  0  0  0  0  0  0  0  0
   13.1730  -56.9000   38.0830 C   0  0  0  0  0  0  0  0  0  0  0  0
   19.0370  -56.4380   35.6590 H   0  0  0  0  0  0  0  0  0  0  0  0
   18.1490  -60.7130   32.4780 H   0  0  0  0  0  0  0  0  0  0  0  0
   16.7550  -62.7370   32.7090 H   0  0  0  0  0  0  0  0  0  0  0  0
   14.5110  -62.6560   33.4800 H   0  0  0  0  0  0  0  0  0  0  0  0
   13.5510  -60.4890   34.1640 H   0  0  0  0  0  0  0  0  0  0  0  0
   14.9180  -58.4280   33.9850 H   0  0  0  0  0  0  0  0  0  0  0  0
   20.9830  -54.2650   34.4910 H   0  0  0  0  0  0  0  0  0  0  0  0
   20.1090  -52.8670   33.9090 H   0  0  0  0  0  0  0  0  0  0  0  0
   19.7530  -52.1430   35.9120 H   0  0  0  0  0  0  0  0  0  0  0  0
   20.7560  -53.4300   36.5540 H   0  0  0  0  0  0  0  0  0  0  0  0
   17.4660  -55.3030   35.7450 H   0  0  0  0  0  0  0  0  0  0  0  0
   16.6040  -53.7420   36.2950 H   0  0  0  0  0  0  0  0  0  0  0  0
   16.7890  -53.8850   33.8670 H   0  0  0  0  0  0  0  0  0  0  0  0
   17.9160  -52.5740   34.5920 H   0  0  0  0  0  0  0  0  0  0  0  0
   18.8770  -52.2980   38.0830 H   0  0  0  0  0  0  0  0  0  0  0  0
   17.3850  -52.1470   37.1070 H   0  0  0  0  0  0  0  0  0  0  0  0
   15.9090  -53.4440   37.4140 H   0  0  0  0  0  0  0  0  0  0  0  0
   15.8800  -56.8050   39.3830 H   0  0  0  0  0  0  0  0  0  0  0  0
   14.7400  -56.0840   36.7150 H   0  0  0  0  0  0  0  0  0  0  0  0
   14.7710  -58.2250   36.1330 H   0  0  0  0  0  0  0  0  0  0  0  0
   16.1040  -58.3780   37.3550 H   0  0  0  0  0  0  0  0  0  0  0  0
   14.5160  -59.3280   38.9650 H   0  0  0  0  0  0  0  0  0  0  0  0
   13.9910  -60.0540   37.3520 H   0  0  0  0  0  0  0  0  0  0  0  0
   12.3870  -58.6140   39.0490 H   0  0  0  0  0  0  0  0  0  0  0  0
   12.1000  -58.5860   37.2510 H   0  0  0  0  0  0  0  0  0  0  0  0
   12.4990  -56.1980   37.5500 H   0  0  0  0  0  0  0  0  0  0  0  0
   13.1550  -56.6060   39.2080 H   0  0  0  0  0  0  0  0  0  0  0  0
  2  1  1  6  0  0  0
  2  3  1  0  0  0  0
  3 15  1  1  0  0  0
  3  4  1  0  0  0  0
  4 33  1  0  0  0  0
  5  4  2  0  0  0  0
  6  5  1  0  0  0  0
  7  2  1  0  0  0  0
  7  6  1  0  0  0  0
  8  7  2  0  0  0  0
  9  6  1  0  0  0  0
  9 14  1  0  0  0  0
 10 11  1  0  0  0  0
 10  9  2  0  0  0  0
 11 12  2  0  0  0  0
 12 36  1  0  0  0  0
 12 13  1  0  0  0  0
 13 37  1  0  0  0  0
 14 13  2  0  0  0  0
 14 38  1  0  0  0  0
 15 20  1  0  0  0  0
 15 16  1  0  0  0  0
 16 17  1  0  0  0  0
 17 42  1  0  0  0  0
 17 18  1  0  0  0  0
 18 21  1  0  0  0  0
 19 44  1  0  0  0  0
 19 18  1  0  0  0  0
 20 46  1  0  0  0  0
 20 19  1  0  0  0  0
 21 47  1  0  0  0  0
 21 22  1  0  0  0  0
 22 23  2  0  0  0  0
 24 22  1  0  0  0  0
 24 25  1  0  0  0  0
 25 26  2  0  0  0  0
 27 25  1  0  0  0  0
 27 50  1  0  0  0  0
 28 32  1  0  0  0  0
 28 27  1  0  0  0  0
 29 53  1  0  0  0  0
 29 28  1  0  0  0  0
 29 30  1  0  0  0  0
 30 31  1  0  0  0  0
 30 54  1  0  0  0  0
 31 32  1  0  0  0  0
 31 56  1  0  0  0  0
 32 59  1  0  0  0  0
 34 10  1  0  0  0  0
 35 11  1  0  0  0  0
 39 16  1  0  0  0  0
 40 16  1  0  0  0  0
 41 17  1  0  0  0  0
 43 19  1  0  0  0  0
 45 20  1  0  0  0  0
 48 21  1  0  0  0  0
 49 24  1  0  0  0  0
 51 28  1  0  0  0  0
 52 29  1  0  0  0  0
 55 30  1  0  0  0  0
 57 31  1  0  0  0  0
 58 32  1  0  0  0  0
M  END
>  <Pose>
1

>  <Score>
-7.49

$$$$
