
 OpenBabel03232204043D

 56 59  0  0  1  0  0  0  0  0999 V2000
   18.7290  -54.8300   32.8290 Cl  0  0  0  0  0  0  0  0  0  0  0  0
   18.0050  -55.5240   34.2630 C   0  0  0  0  0  0  0  0  0  0  0  0
   17.7060  -56.8830   34.2290 C   0  0  0  0  0  0  0  0  0  0  0  0
   17.1380  -57.3970   35.3750 C   0  0  0  0  0  0  0  0  0  0  0  0
   16.9030  -56.6050   36.4350 N   0  0  0  0  0  0  0  0  0  0  0  0
   17.1790  -55.3140   36.4880 N   0  0  0  0  0  0  0  0  0  0  0  0
   17.7350  -54.7700   35.3890 C   0  0  0  0  0  0  0  0  0  0  0  0
   18.0090  -53.5380   35.4150 O   0  0  0  0  0  0  0  0  0  0  0  0
   16.8970  -54.5300   37.6550 C   0  0  0  0  0  0  0  0  0  0  0  0
   15.6710  -54.6270   38.2720 C   0  0  0  0  0  0  0  0  0  0  0  0
   15.3840  -53.8680   39.4110 C   0  0  0  0  0  0  0  0  0  0  0  0
   16.3130  -53.0050   39.9480 C   0  0  0  0  0  0  0  0  0  0  0  0
   17.5430  -52.9010   39.3370 C   0  0  0  0  0  0  0  0  0  0  0  0
   17.8150  -53.6610   38.2040 C   0  0  0  0  0  0  0  0  0  0  0  0
   17.9660  -57.6800   33.0830 N   0  0  0  0  0  0  0  0  0  0  0  0
   19.2620  -58.2560   32.8130 C   0  0  0  0  0  0  0  0  0  0  0  0
   19.6200  -58.0540   31.3740 C   0  0  0  0  0  0  0  0  0  0  0  0
   18.6730  -57.1170   30.8230 N   0  0  0  0  0  0  0  0  0  0  0  0
   17.4060  -57.7490   30.7290 C   0  0  0  0  0  0  0  0  0  0  0  0
   16.8870  -57.9220   32.1590 C   0  0  0  0  0  0  0  0  0  0  0  0
   19.1210  -56.3360   29.7410 C   0  0  0  0  0  0  0  0  0  0  0  0
   20.0670  -55.2740   30.0990 C   0  0  0  0  0  0  0  0  0  0  0  0
   19.8200  -54.6460   31.1840 O   0  0  0  0  0  0  0  0  0  0  0  0
   21.2140  -54.8900   29.3630 N   0  0  0  0  0  0  0  0  0  0  0  0
   21.5300  -55.3740   28.0430 C   0  0  0  0  0  0  0  0  0  0  0  0
   21.6480  -56.8670   28.0720 C   0  0  1  0  0  0  0  0  0  0  0  0
   20.9420  -57.4000   27.0260 O   0  0  0  0  0  0  0  0  0  0  0  0
   21.7490  -58.1670   26.2310 C   0  0  0  0  0  0  0  0  0  0  0  0
   22.8180  -58.6550   27.1860 C   0  0  0  0  0  0  0  0  0  0  0  0
   23.0900  -57.3240   27.9090 C   0  0  0  0  0  0  0  0  0  0  0  0
   16.8950  -58.4590   35.3740 H   0  0  0  0  0  0  0  0  0  0  0  0
   14.9290  -55.3120   37.8490 H   0  0  0  0  0  0  0  0  0  0  0  0
   14.4260  -53.9400   39.8990 H   0  0  0  0  0  0  0  0  0  0  0  0
   16.1260  -52.3950   40.8380 H   0  0  0  0  0  0  0  0  0  0  0  0
   18.2720  -52.2200   39.7610 H   0  0  0  0  0  0  0  0  0  0  0  0
   18.7800  -53.5860   37.7170 H   0  0  0  0  0  0  0  0  0  0  0  0
   19.3420  -59.3120   33.1410 H   0  0  0  0  0  0  0  0  0  0  0  0
   20.0640  -57.7250   33.4090 H   0  0  0  0  0  0  0  0  0  0  0  0
   19.4360  -59.0280   30.8290 H   0  0  0  0  0  0  0  0  0  0  0  0
   20.6340  -57.6880   31.2000 H   0  0  0  0  0  0  0  0  0  0  0  0
   16.6820  -57.2470   30.0760 H   0  0  0  0  0  0  0  0  0  0  0  0
   17.5630  -58.7790   30.3290 H   0  0  0  0  0  0  0  0  0  0  0  0
   16.4220  -58.9290   32.3070 H   0  0  0  0  0  0  0  0  0  0  0  0
   16.0880  -57.1480   32.2670 H   0  0  0  0  0  0  0  0  0  0  0  0
   18.2720  -55.8910   29.1500 H   0  0  0  0  0  0  0  0  0  0  0  0
   19.6470  -57.0340   29.0210 H   0  0  0  0  0  0  0  0  0  0  0  0
   21.8620  -54.2080   29.8050 H   0  0  0  0  0  0  0  0  0  0  0  0
   22.4990  -54.9410   27.6750 H   0  0  0  0  0  0  0  0  0  0  0  0
   20.7320  -55.0660   27.3520 H   0  0  0  0  0  0  0  0  0  0  0  0
   21.2950  -57.2890   29.0260 H   0  0  0  0  0  0  0  0  0  0  0  0
   22.2530  -57.5130   25.4940 H   0  0  0  0  0  0  0  0  0  0  0  0
   21.1950  -58.9980   25.7610 H   0  0  0  0  0  0  0  0  0  0  0  0
   23.7020  -59.0560   26.6980 H   0  0  0  0  0  0  0  0  0  0  0  0
   22.3470  -59.3290   27.9300 H   0  0  0  0  0  0  0  0  0  0  0  0
   23.6210  -56.6940   27.1580 H   0  0  0  0  0  0  0  0  0  0  0  0
   23.6250  -57.4690   28.8420 H   0  0  0  0  0  0  0  0  0  0  0  0
  1  2  1  0  0  0  0
  2  7  1  0  0  0  0
  3  2  2  0  0  0  0
  3  4  1  0  0  0  0
  4  5  2  0  0  0  0
  5  6  1  0  0  0  0
  6  9  1  0  0  0  0
  7  8  2  0  0  0  0
  7  6  1  0  0  0  0
  9 14  2  0  0  0  0
  9 10  1  0  0  0  0
 10 11  2  0  0  0  0
 11 33  1  0  0  0  0
 11 12  1  0  0  0  0
 12 34  1  0  0  0  0
 13 35  1  0  0  0  0
 13 12  2  0  0  0  0
 14 13  1  0  0  0  0
 15  3  1  0  0  0  0
 16 15  1  0  0  0  0
 16 37  1  0  0  0  0
 16 38  1  0  0  0  0
 17 16  1  0  0  0  0
 18 17  1  0  0  0  0
 19 18  1  0  0  0  0
 19 20  1  0  0  0  0
 20 44  1  0  0  0  0
 20 43  1  0  0  0  0
 20 15  1  0  0  0  0
 21 22  1  0  0  0  0
 21 18  1  0  0  0  0
 22 23  2  0  0  0  0
 24 47  1  0  0  0  0
 24 22  1  0  0  0  0
 25 26  1  0  0  0  0
 25 24  1  0  0  0  0
 26 50  1  1  0  0  0
 27 26  1  0  0  0  0
 28 27  1  0  0  0  0
 28 29  1  0  0  0  0
 29 30  1  0  0  0  0
 29 54  1  0  0  0  0
 30 26  1  0  0  0  0
 30 56  1  0  0  0  0
 31  4  1  0  0  0  0
 32 10  1  0  0  0  0
 36 14  1  0  0  0  0
 39 17  1  0  0  0  0
 40 17  1  0  0  0  0
 41 19  1  0  0  0  0
 42 19  1  0  0  0  0
 45 21  1  0  0  0  0
 46 21  1  0  0  0  0
 48 25  1  0  0  0  0
 49 25  1  0  0  0  0
 51 28  1  0  0  0  0
 52 28  1  0  0  0  0
 53 29  1  0  0  0  0
 55 30  1  0  0  0  0
M  END
>  <Pose>
1

>  <Score>
-5.90

$$$$
