
 OpenBabel03232204043D

 50 54  0  0  0  0  0  0  0  0999 V2000
   14.9720  -54.7210   39.0370 S   0  0  0  0  0  0  0  0  0  0  0  0
   14.8720  -54.7340   40.5590 O   0  0  0  0  0  0  0  0  0  0  0  0
   14.0920  -53.6310   38.4820 O   0  0  0  0  0  0  0  0  0  0  0  0
   14.5640  -56.2240   38.4670 N   0  0  0  0  0  0  0  0  0  0  0  0
   15.5390  -57.1380   38.0590 C   0  0  0  0  0  0  0  0  0  0  0  0
   14.9740  -58.1030   37.0110 C   0  0  0  0  0  0  0  0  0  0  0  0
   14.3510  -57.3520   35.9950 N   0  0  0  0  0  0  0  0  0  0  0  0
   13.3180  -56.4980   36.4440 C   0  0  0  0  0  0  0  0  0  0  0  0
   13.2820  -56.4750   37.9550 C   0  0  0  0  0  0  0  0  0  0  0  0
   14.1100  -58.0220   34.7580 C   0  0  0  0  0  0  0  0  0  0  0  0
   15.3550  -58.0030   33.9540 C   0  0  0  0  0  0  0  0  0  0  0  0
   16.2400  -59.0630   33.9330 C   0  0  0  0  0  0  0  0  0  0  0  0
   17.4030  -59.0930   33.2070 C   0  0  0  0  0  0  0  0  0  0  0  0
   18.1420  -60.1300   33.2690 O   0  0  0  0  0  0  0  0  0  0  0  0
   17.7450  -58.0170   32.4380 N   0  0  0  0  0  0  0  0  0  0  0  0
   18.7910  -57.9180   31.7190 N   0  0  0  0  0  0  0  0  0  0  0  0
   19.0560  -56.8610   31.0100 C   0  0  0  0  0  0  0  0  0  0  0  0
   17.6750  -55.8990   31.3970 S   0  0  0  0  0  0  0  0  0  0  0  0
   16.8880  -56.9940   32.4600 C   0  0  0  0  0  0  0  0  0  0  0  0
   15.7420  -56.9690   33.1770 N   0  0  0  0  0  0  0  0  0  0  0  0
   20.1780  -56.5300   30.1230 C   0  0  0  0  0  0  0  0  0  0  0  0
   20.1310  -55.3520   29.4080 C   0  0  0  0  0  0  0  0  0  0  0  0
   21.1600  -54.9820   28.5540 C   0  0  0  0  0  0  0  0  0  0  0  0
   22.2600  -55.8020   28.4110 C   0  0  0  0  0  0  0  0  0  0  0  0
   22.3300  -56.9890   29.1190 C   0  0  0  0  0  0  0  0  0  0  0  0
   21.2850  -57.3140   29.9530 C   0  0  0  0  0  0  0  0  0  0  0  0
   23.5530  -55.3520   27.3470 Cl  0  0  0  0  0  0  0  0  0  0  0  0
   16.6430  -54.3410   38.6860 C   0  0  0  0  0  0  0  0  0  0  0  0
   17.5690  -53.8530   39.5580 N   0  0  0  0  0  0  0  0  0  0  0  0
   18.7390  -53.6800   38.9400 C   0  0  0  0  0  0  0  0  0  0  0  0
   18.6250  -54.0460   37.6560 N   0  0  0  0  0  0  0  0  0  0  0  0
   17.3350  -54.4510   37.5040 C   0  0  0  0  0  0  0  0  0  0  0  0
   15.8410  -57.7420   38.9730 H   0  0  0  0  0  0  0  0  0  0  0  0
   16.4720  -56.7180   37.6170 H   0  0  0  0  0  0  0  0  0  0  0  0
   14.2180  -58.7190   37.5400 H   0  0  0  0  0  0  0  0  0  0  0  0
   15.7790  -58.7700   36.6280 H   0  0  0  0  0  0  0  0  0  0  0  0
   13.5560  -55.4570   36.1280 H   0  0  0  0  0  0  0  0  0  0  0  0
   12.3010  -56.8040   36.0860 H   0  0  0  0  0  0  0  0  0  0  0  0
   12.5600  -55.6830   38.3140 H   0  0  0  0  0  0  0  0  0  0  0  0
   12.8890  -57.4350   38.3570 H   0  0  0  0  0  0  0  0  0  0  0  0
   13.3310  -57.4550   34.2070 H   0  0  0  0  0  0  0  0  0  0  0  0
   13.8370  -59.0610   34.9580 H   0  0  0  0  0  0  0  0  0  0  0  0
   15.9470  -59.9270   34.5630 H   0  0  0  0  0  0  0  0  0  0  0  0
   19.2950  -54.6730   29.4820 H   0  0  0  0  0  0  0  0  0  0  0  0
   21.1520  -54.0660   27.9790 H   0  0  0  0  0  0  0  0  0  0  0  0
   23.1920  -57.6320   29.0070 H   0  0  0  0  0  0  0  0  0  0  0  0
   21.3500  -58.2380   30.4990 H   0  0  0  0  0  0  0  0  0  0  0  0
   19.6390  -53.3040   39.4080 H   0  0  0  0  0  0  0  0  0  0  0  0
   19.3650  -54.0220   36.9350 H   0  0  0  0  0  0  0  0  0  0  0  0
   16.9520  -54.8020   36.5640 H   0  0  0  0  0  0  0  0  0  0  0  0
  1  2  2  0  0  0  0
  3  1  2  0  0  0  0
  4  1  1  0  0  0  0
  5  4  1  0  0  0  0
  5 33  1  0  0  0  0
  6 35  1  0  0  0  0
  6  5  1  0  0  0  0
  7  8  1  0  0  0  0
  7  6  1  0  0  0  0
  8  9  1  0  0  0  0
  9 39  1  0  0  0  0
  9 40  1  0  0  0  0
  9  4  1  0  0  0  0
 10 42  1  0  0  0  0
 10  7  1  0  0  0  0
 11 10  1  0  0  0  0
 12 11  2  0  0  0  0
 12 43  1  0  0  0  0
 13 14  2  0  0  0  0
 13 12  1  0  0  0  0
 15 19  1  0  0  0  0
 15 13  1  0  0  0  0
 16 15  1  0  0  0  0
 17 18  1  0  0  0  0
 17 16  2  0  0  0  0
 18 19  1  0  0  0  0
 19 20  2  0  0  0  0
 20 11  1  0  0  0  0
 21 17  1  0  0  0  0
 22 44  1  0  0  0  0
 22 21  2  0  0  0  0
 23 22  1  0  0  0  0
 24 23  2  0  0  0  0
 24 25  1  0  0  0  0
 25 26  2  0  0  0  0
 26 21  1  0  0  0  0
 26 47  1  0  0  0  0
 27 24  1  0  0  0  0
 28  1  1  0  0  0  0
 28 29  1  0  0  0  0
 30 48  1  0  0  0  0
 30 29  2  0  0  0  0
 31 30  1  0  0  0  0
 32 31  1  0  0  0  0
 32 28  2  0  0  0  0
 34  5  1  0  0  0  0
 36  6  1  0  0  0  0
 37  8  1  0  0  0  0
 38  8  1  0  0  0  0
 41 10  1  0  0  0  0
 45 23  1  0  0  0  0
 46 25  1  0  0  0  0
 49 31  1  0  0  0  0
 50 32  1  0  0  0  0
M  END
>  <Pose>
1

>  <Score>
-7.79

$$$$
