
 OpenBabel03232204043D

 56 59  0  0  0  0  0  0  0  0999 V2000
   15.7730  -53.4560   39.0330 S   0  0  0  0  0  0  0  0  0  0  0  0
   14.9390  -52.4600   38.2870 O   0  0  0  0  0  0  0  0  0  0  0  0
   15.1350  -53.6870   40.3710 O   0  0  0  0  0  0  0  0  0  0  0  0
   17.3640  -52.8490   39.1970 N   0  0  0  0  0  0  0  0  0  0  0  0
   18.3380  -53.8170   39.5500 C   0  0  0  0  0  0  0  0  0  0  0  0
   18.9490  -54.5360   38.3770 C   0  0  0  0  0  0  0  0  0  0  0  0
   19.1790  -53.6530   37.2540 N   0  0  0  0  0  0  0  0  0  0  0  0
   19.0470  -52.2330   37.5190 C   0  0  0  0  0  0  0  0  0  0  0  0
   17.7370  -51.9130   38.1980 C   0  0  0  0  0  0  0  0  0  0  0  0
   19.5080  -54.1890   36.0030 C   0  0  0  0  0  0  0  0  0  0  0  0
   20.1730  -55.2510   35.9490 O   0  0  0  0  0  0  0  0  0  0  0  0
   19.0990  -53.5450   34.7280 C   0  0  0  0  0  0  0  0  0  0  0  0
   18.6320  -54.5020   33.7630 N   0  0  0  0  0  0  0  0  0  0  0  0
   17.5060  -55.3460   33.9480 C   0  0  0  0  0  0  0  0  0  0  0  0
   16.7720  -55.3580   34.9930 O   0  0  0  0  0  0  0  0  0  0  0  0
   17.2890  -56.1860   32.8220 N   0  0  0  0  0  0  0  0  0  0  0  0
   18.4490  -56.0400   31.9620 C   0  0  0  0  0  0  0  0  0  0  0  0
   18.0690  -55.7870   30.5320 C   0  0  0  0  0  0  0  0  0  0  0  0
   17.7920  -57.0360   29.7490 C   0  0  0  0  0  0  0  0  0  0  0  0
   18.8660  -58.0770   29.8710 C   0  0  0  0  0  0  0  0  0  0  0  0
   19.9550  -57.6730   30.8410 C   0  0  0  0  0  0  0  0  0  0  0  0
   19.2920  -57.2800   32.1430 C   0  0  0  0  0  0  0  0  0  0  0  0
   19.1350  -54.8280   32.4740 C   0  0  0  0  0  0  0  0  0  0  0  0
   20.0260  -54.1650   31.8910 O   0  0  0  0  0  0  0  0  0  0  0  0
   16.1130  -57.0250   32.5980 C   0  0  0  0  0  0  0  0  0  0  0  0
   15.7530  -55.0130   38.1890 C   0  0  0  0  0  0  0  0  0  0  0  0
   14.6970  -56.3260   38.4070 S   0  0  0  0  0  0  0  0  0  0  0  0
   15.3360  -57.3920   37.2470 C   0  0  0  0  0  0  0  0  0  0  0  0
   16.3780  -56.6850   36.7070 C   0  0  0  0  0  0  0  0  0  0  0  0
   16.5940  -55.4440   37.1990 C   0  0  0  0  0  0  0  0  0  0  0  0
   14.8100  -59.0320   36.8120 Cl  0  0  0  0  0  0  0  0  0  0  0  0
   17.8380  -54.5990   40.1760 H   0  0  0  0  0  0  0  0  0  0  0  0
   19.1430  -53.3460   40.1480 H   0  0  0  0  0  0  0  0  0  0  0  0
   18.3650  -55.4310   38.0770 H   0  0  0  0  0  0  0  0  0  0  0  0
   19.9570  -54.8940   38.7100 H   0  0  0  0  0  0  0  0  0  0  0  0
   19.0740  -51.6620   36.5630 H   0  0  0  0  0  0  0  0  0  0  0  0
   19.8720  -51.8620   38.1420 H   0  0  0  0  0  0  0  0  0  0  0  0
   16.9230  -51.7120   37.4470 H   0  0  0  0  0  0  0  0  0  0  0  0
   17.8900  -50.9150   38.7040 H   0  0  0  0  0  0  0  0  0  0  0  0
   19.9340  -52.9910   34.2830 H   0  0  0  0  0  0  0  0  0  0  0  0
   18.3240  -52.7940   34.9930 H   0  0  0  0  0  0  0  0  0  0  0  0
   17.1670  -55.1490   30.4790 H   0  0  0  0  0  0  0  0  0  0  0  0
   18.9160  -55.2420   30.0490 H   0  0  0  0  0  0  0  0  0  0  0  0
   17.7090  -56.7290   28.6740 H   0  0  0  0  0  0  0  0  0  0  0  0
   16.8000  -57.4380   30.0300 H   0  0  0  0  0  0  0  0  0  0  0  0
   18.3870  -59.0330   30.1710 H   0  0  0  0  0  0  0  0  0  0  0  0
   19.3730  -58.2490   28.8800 H   0  0  0  0  0  0  0  0  0  0  0  0
   20.6140  -58.5350   31.0080 H   0  0  0  0  0  0  0  0  0  0  0  0
   20.4820  -56.8030   30.4370 H   0  0  0  0  0  0  0  0  0  0  0  0
   20.0800  -57.1540   32.9110 H   0  0  0  0  0  0  0  0  0  0  0  0
   18.6530  -58.1260   32.4730 H   0  0  0  0  0  0  0  0  0  0  0  0
   16.4020  -58.0570   32.3140 H   0  0  0  0  0  0  0  0  0  0  0  0
   15.5170  -57.0500   33.5150 H   0  0  0  0  0  0  0  0  0  0  0  0
   15.5030  -56.5130   31.8260 H   0  0  0  0  0  0  0  0  0  0  0  0
   17.0100  -57.1310   35.8950 H   0  0  0  0  0  0  0  0  0  0  0  0
   17.4320  -54.8080   36.8010 H   0  0  0  0  0  0  0  0  0  0  0  0
  1  4  1  0  0  0  0
  1  3  2  0  0  0  0
  2  1  2  0  0  0  0
  4  5  1  0  0  0  0
  5 33  1  0  0  0  0
  5 32  1  0  0  0  0
  6 35  1  0  0  0  0
  6  5  1  0  0  0  0
  7  8  1  0  0  0  0
  7  6  1  0  0  0  0
  8 37  1  0  0  0  0
  8  9  1  0  0  0  0
  9 39  1  0  0  0  0
  9  4  1  0  0  0  0
 10  7  1  0  0  0  0
 11 10  2  0  0  0  0
 12 41  1  0  0  0  0
 12 10  1  0  0  0  0
 13 14  1  0  0  0  0
 13 12  1  0  0  0  0
 14 15  2  0  0  0  0
 16 14  1  0  0  0  0
 17 22  1  0  0  0  0
 17 23  1  0  0  0  0
 17 16  1  0  0  0  0
 18 17  1  0  0  0  0
 19 20  1  0  0  0  0
 19 45  1  0  0  0  0
 19 18  1  0  0  0  0
 20 46  1  0  0  0  0
 20 21  1  0  0  0  0
 21 48  1  0  0  0  0
 21 22  1  0  0  0  0
 22 51  1  0  0  0  0
 22 50  1  0  0  0  0
 23 13  1  0  0  0  0
 24 23  2  0  0  0  0
 25 16  1  0  0  0  0
 25 53  1  0  0  0  0
 26 27  1  0  0  0  0
 26  1  1  0  0  0  0
 28 27  1  0  0  0  0
 29 30  1  0  0  0  0
 29 28  2  0  0  0  0
 30 26  2  0  0  0  0
 31 28  1  0  0  0  0
 34  6  1  0  0  0  0
 36  8  1  0  0  0  0
 38  9  1  0  0  0  0
 40 12  1  0  0  0  0
 42 18  1  0  0  0  0
 43 18  1  0  0  0  0
 44 19  1  0  0  0  0
 47 20  1  0  0  0  0
 49 21  1  0  0  0  0
 52 25  1  0  0  0  0
 54 25  1  0  0  0  0
 55 29  1  0  0  0  0
 56 30  1  0  0  0  0
M  END
>  <Pose>
1

>  <Score>
-6.90

$$$$
