
 OpenBabel03232204043D

 68 71  0  0  0  0  0  0  0  0999 V2000
   14.4120  -55.4760   38.8620 S   0  0  0  0  0  0  0  0  0  0  0  0
   13.2130  -54.6010   38.5910 O   0  0  0  0  0  0  0  0  0  0  0  0
   14.5410  -55.5270   40.3680 O   0  0  0  0  0  0  0  0  0  0  0  0
   14.3280  -56.9690   38.1360 N   0  0  0  0  0  0  0  0  0  0  0  0
   15.3230  -57.9200   38.2310 C   0  0  0  0  0  0  0  0  0  0  0  0
   15.6840  -58.4520   36.8710 C   0  0  0  0  0  0  0  0  0  0  0  0
   14.5920  -58.7480   36.0140 N   0  0  0  0  0  0  0  0  0  0  0  0
   13.3450  -58.6670   36.7050 C   0  0  0  0  0  0  0  0  0  0  0  0
   13.2020  -57.3050   37.3770 C   0  0  0  0  0  0  0  0  0  0  0  0
   14.5860  -58.0010   34.7900 C   0  0  0  0  0  0  0  0  0  0  0  0
   13.6070  -58.5770   33.8080 C   0  0  0  0  0  0  0  0  0  0  0  0
   12.4280  -58.1670   33.8780 O   0  0  0  0  0  0  0  0  0  0  0  0
   14.0050  -59.5410   32.8480 N   0  0  0  0  0  0  0  0  0  0  0  0
   15.3560  -60.0200   32.9090 C   0  0  0  0  0  0  0  0  0  0  0  0
   15.6400  -61.2970   32.2160 C   0  0  0  0  0  0  0  0  0  0  0  0
   14.7480  -62.3800   32.7710 C   0  0  0  0  0  0  0  0  0  0  0  0
   15.4040  -63.1300   33.9350 C   0  0  0  0  0  0  0  0  0  0  0  0
   16.5850  -63.9390   33.4360 C   0  0  0  0  0  0  0  0  0  0  0  0
   17.1940  -63.1790   32.2710 C   0  0  0  0  0  0  0  0  0  0  0  0
   17.0690  -61.7110   32.6200 C   0  0  0  0  0  0  0  0  0  0  0  0
   15.6100  -61.3080   30.8040 N   0  0  0  0  0  0  0  0  0  0  0  0
   14.3700  -61.0750   30.1530 C   0  0  0  0  0  0  0  0  0  0  0  0
   14.5500  -61.5780   28.7090 C   0  0  0  0  0  0  0  0  0  0  0  0
   15.5180  -60.8410   28.0700 O   0  0  0  0  0  0  0  0  0  0  0  0
   16.1140  -59.8860   28.8540 C   0  0  0  0  0  0  0  0  0  0  0  0
   16.6030  -60.4580   30.1850 C   0  0  0  0  0  0  0  0  0  0  0  0
   15.8010  -54.5880   38.2450 C   0  0  0  0  0  0  0  0  0  0  0  0
   16.5870  -55.1010   37.2500 C   0  0  0  0  0  0  0  0  0  0  0  0
   17.6690  -54.4130   36.7660 C   0  0  0  0  0  0  0  0  0  0  0  0
   17.9680  -53.1790   37.3010 C   0  0  0  0  0  0  0  0  0  0  0  0
   17.1760  -52.6580   38.3070 C   0  0  0  0  0  0  0  0  0  0  0  0
   16.0950  -53.3550   38.7830 C   0  0  0  0  0  0  0  0  0  0  0  0
   19.3600  -52.3240   36.6600 Cl  0  0  0  0  0  0  0  0  0  0  0  0
   15.0700  -58.8320   38.8460 H   0  0  0  0  0  0  0  0  0  0  0  0
   16.2730  -57.5450   38.6950 H   0  0  0  0  0  0  0  0  0  0  0  0
   16.2670  -59.3990   37.0180 H   0  0  0  0  0  0  0  0  0  0  0  0
   16.4100  -57.7370   36.4300 H   0  0  0  0  0  0  0  0  0  0  0  0
   13.3110  -59.4440   37.5210 H   0  0  0  0  0  0  0  0  0  0  0  0
   12.5200  -58.7690   35.9930 H   0  0  0  0  0  0  0  0  0  0  0  0
   12.9640  -56.5580   36.5650 H   0  0  0  0  0  0  0  0  0  0  0  0
   12.2750  -57.3550   38.0210 H   0  0  0  0  0  0  0  0  0  0  0  0
   15.5930  -57.8710   34.3420 H   0  0  0  0  0  0  0  0  0  0  0  0
   14.2090  -56.9800   35.0100 H   0  0  0  0  0  0  0  0  0  0  0  0
   13.2900  -59.8570   32.1400 H   0  0  0  0  0  0  0  0  0  0  0  0
   16.0020  -59.2010   32.5200 H   0  0  0  0  0  0  0  0  0  0  0  0
   15.6350  -60.1880   33.9950 H   0  0  0  0  0  0  0  0  0  0  0  0
   14.5280  -63.1700   32.0080 H   0  0  0  0  0  0  0  0  0  0  0  0
   13.8080  -61.9610   33.1940 H   0  0  0  0  0  0  0  0  0  0  0  0
   14.6470  -63.8380   34.3210 H   0  0  0  0  0  0  0  0  0  0  0  0
   15.6750  -62.4520   34.7620 H   0  0  0  0  0  0  0  0  0  0  0  0
   17.3300  -64.0130   34.2550 H   0  0  0  0  0  0  0  0  0  0  0  0
   16.2340  -64.9340   33.1510 H   0  0  0  0  0  0  0  0  0  0  0  0
   18.2650  -63.4530   32.1110 H   0  0  0  0  0  0  0  0  0  0  0  0
   16.6050  -63.3640   31.3500 H   0  0  0  0  0  0  0  0  0  0  0  0
   17.8290  -61.1620   32.0700 H   0  0  0  0  0  0  0  0  0  0  0  0
   17.2250  -61.5130   33.7010 H   0  0  0  0  0  0  0  0  0  0  0  0
   13.5290  -61.6840   30.5460 H   0  0  0  0  0  0  0  0  0  0  0  0
   14.0670  -60.0150   30.0520 H   0  0  0  0  0  0  0  0  0  0  0  0
   14.9520  -62.6250   28.8170 H   0  0  0  0  0  0  0  0  0  0  0  0
   13.5890  -61.6080   28.1930 H   0  0  0  0  0  0  0  0  0  0  0  0
   15.4810  -58.9740   29.0240 H   0  0  0  0  0  0  0  0  0  0  0  0
   17.0310  -59.5060   28.3370 H   0  0  0  0  0  0  0  0  0  0  0  0
   17.5020  -61.0650   29.9660 H   0  0  0  0  0  0  0  0  0  0  0  0
   16.8960  -59.5860   30.7960 H   0  0  0  0  0  0  0  0  0  0  0  0
   16.3630  -56.0850   36.8120 H   0  0  0  0  0  0  0  0  0  0  0  0
   18.2890  -54.8340   35.9730 H   0  0  0  0  0  0  0  0  0  0  0  0
   17.4250  -51.6790   38.7200 H   0  0  0  0  0  0  0  0  0  0  0  0
   15.4860  -52.9220   39.5790 H   0  0  0  0  0  0  0  0  0  0  0  0
  1  3  2  0  0  0  0
  2  1  2  0  0  0  0
  4  5  1  0  0  0  0
  4  1  1  0  0  0  0
  5 35  1  0  0  0  0
  5 34  1  0  0  0  0
  6 36  1  0  0  0  0
  6  5  1  0  0  0  0
  7  8  1  0  0  0  0
  7  6  1  0  0  0  0
  8  9  1  0  0  0  0
  8 38  1  0  0  0  0
  9 41  1  0  0  0  0
  9  4  1  0  0  0  0
 10 43  1  0  0  0  0
 10  7  1  0  0  0  0
 11 12  2  0  0  0  0
 11 10  1  0  0  0  0
 13 14  1  0  0  0  0
 13 11  1  0  0  0  0
 14 46  1  0  0  0  0
 15 20  1  0  0  0  0
 15 16  1  0  0  0  0
 15 14  1  0  0  0  0
 16 48  1  0  0  0  0
 16 17  1  0  0  0  0
 17 49  1  0  0  0  0
 17 50  1  0  0  0  0
 18 17  1  0  0  0  0
 18 51  1  0  0  0  0
 19 20  1  0  0  0  0
 19 18  1  0  0  0  0
 20 56  1  0  0  0  0
 21 15  1  0  0  0  0
 22 57  1  0  0  0  0
 22 21  1  0  0  0  0
 23 59  1  0  0  0  0
 23 22  1  0  0  0  0
 24 23  1  0  0  0  0
 24 25  1  0  0  0  0
 25 61  1  0  0  0  0
 25 26  1  0  0  0  0
 26 64  1  0  0  0  0
 26 21  1  0  0  0  0
 27 32  1  0  0  0  0
 27  1  1  0  0  0  0
 28 27  2  0  0  0  0
 29 28  1  0  0  0  0
 29 30  2  0  0  0  0
 30 31  1  0  0  0  0
 31 67  1  0  0  0  0
 31 32  2  0  0  0  0
 32 68  1  0  0  0  0
 33 30  1  0  0  0  0
 37  6  1  0  0  0  0
 39  8  1  0  0  0  0
 40  9  1  0  0  0  0
 42 10  1  0  0  0  0
 44 13  1  0  0  0  0
 45 14  1  0  0  0  0
 47 16  1  0  0  0  0
 52 18  1  0  0  0  0
 53 19  1  0  0  0  0
 54 19  1  0  0  0  0
 55 20  1  0  0  0  0
 58 22  1  0  0  0  0
 60 23  1  0  0  0  0
 62 25  1  0  0  0  0
 63 26  1  0  0  0  0
 65 28  1  0  0  0  0
 66 29  1  0  0  0  0
M  END
>  <Pose>
1

>  <Score>
-7.49

$$$$
