
 OpenBabel03232204043D

 38 41  0  0  0  0  0  0  0  0999 V2000
   22.1060  -58.1810   28.7500 Cl  0  0  0  0  0  0  0  0  0  0  0  0
   21.0170  -57.2330   29.7410 C   0  0  0  0  0  0  0  0  0  0  0  0
   20.0250  -57.8180   30.5170 C   0  0  0  0  0  0  0  0  0  0  0  0
   19.1530  -57.1100   31.2960 C   0  0  0  0  0  0  0  0  0  0  0  0
   19.2380  -55.7480   31.3350 C   0  0  0  0  0  0  0  0  0  0  0  0
   20.2250  -55.1310   30.5690 C   0  0  0  0  0  0  0  0  0  0  0  0
   21.0970  -55.8640   29.7870 C   0  0  0  0  0  0  0  0  0  0  0  0
   18.3740  -54.8540   32.1230 C   0  0  0  0  0  0  0  0  0  0  0  0
   19.2000  -54.1140   33.1220 C   0  0  0  0  0  0  0  0  0  0  0  0
   19.5210  -55.0140   34.3290 C   0  0  0  0  0  0  0  0  0  0  0  0
   18.1950  -55.2470   34.9200 N   0  0  0  0  0  0  0  0  0  0  0  0
   17.3090  -56.0150   34.1040 C   0  0  0  0  0  0  0  0  0  0  0  0
   17.1660  -55.4870   32.7060 C   0  0  0  0  0  0  0  0  0  0  0  0
   17.9150  -54.7100   36.1990 C   0  0  0  0  0  0  0  0  0  0  0  0
   16.6910  -54.8680   36.7310 N   0  0  0  0  0  0  0  0  0  0  0  0
   16.3120  -54.4260   37.9140 N   0  0  0  0  0  0  0  0  0  0  0  0
   15.1810  -54.4730   38.6240 N   0  0  0  0  0  0  0  0  0  0  0  0
   15.3340  -53.8640   39.7780 N   0  0  0  0  0  0  0  0  0  0  0  0
   16.5610  -53.4220   39.8280 N   0  0  0  0  0  0  0  0  0  0  0  0
   17.1830  -53.7640   38.6730 C   0  0  0  0  0  0  0  0  0  0  0  0
   18.4650  -53.5610   38.1910 C   0  0  0  0  0  0  0  0  0  0  0  0
   18.8440  -54.0310   36.9510 C   0  0  0  0  0  0  0  0  0  0  0  0
   17.9300  -53.8770   31.1960 O   0  0  0  0  0  0  0  0  0  0  0  0
   19.9320  -58.8900   30.5010 H   0  0  0  0  0  0  0  0  0  0  0  0
   18.3830  -57.5690   31.9040 H   0  0  0  0  0  0  0  0  0  0  0  0
   20.3640  -54.0650   30.5380 H   0  0  0  0  0  0  0  0  0  0  0  0
   21.8730  -55.3590   29.1780 H   0  0  0  0  0  0  0  0  0  0  0  0
   20.1730  -53.7960   32.6970 H   0  0  0  0  0  0  0  0  0  0  0  0
   18.7040  -53.2160   33.5280 H   0  0  0  0  0  0  0  0  0  0  0  0
   20.1870  -54.4900   35.0270 H   0  0  0  0  0  0  0  0  0  0  0  0
   19.9020  -55.9990   34.0250 H   0  0  0  0  0  0  0  0  0  0  0  0
   17.7630  -57.0490   34.0190 H   0  0  0  0  0  0  0  0  0  0  0  0
   16.3070  -56.1440   34.5540 H   0  0  0  0  0  0  0  0  0  0  0  0
   16.3670  -54.6850   32.7760 H   0  0  0  0  0  0  0  0  0  0  0  0
   16.7230  -56.2560   32.0580 H   0  0  0  0  0  0  0  0  0  0  0  0
   19.1420  -53.0220   38.8330 H   0  0  0  0  0  0  0  0  0  0  0  0
   19.8400  -53.8730   36.5770 H   0  0  0  0  0  0  0  0  0  0  0  0
   17.6800  -54.3710   30.3550 H   0  0  0  0  0  0  0  0  0  0  0  0
  1  2  1  0  0  0  0
  2  7  2  0  0  0  0
  2  3  1  0  0  0  0
  3  4  2  0  0  0  0
  4  5  1  0  0  0  0
  4 25  1  0  0  0  0
  5  8  1  0  0  0  0
  6  5  2  0  0  0  0
  7  6  1  0  0  0  0
  8 13  1  0  0  0  0
  8  9  1  0  0  0  0
  9 29  1  0  0  0  0
  9 10  1  0  0  0  0
 10 11  1  0  0  0  0
 10 30  1  0  0  0  0
 11 14  1  0  0  0  0
 12 33  1  0  0  0  0
 12 11  1  0  0  0  0
 13 34  1  0  0  0  0
 13 12  1  0  0  0  0
 14 15  2  0  0  0  0
 14 22  1  0  0  0  0
 15 16  1  0  0  0  0
 16 17  1  0  0  0  0
 16 20  1  0  0  0  0
 17 18  2  0  0  0  0
 18 19  1  0  0  0  0
 20 19  2  0  0  0  0
 21 20  1  0  0  0  0
 21 36  1  0  0  0  0
 22 21  2  0  0  0  0
 23  8  1  0  0  0  0
 24  3  1  0  0  0  0
 26  6  1  0  0  0  0
 27  7  1  0  0  0  0
 28  9  1  0  0  0  0
 31 10  1  0  0  0  0
 32 12  1  0  0  0  0
 35 13  1  0  0  0  0
 37 22  1  0  0  0  0
 38 23  1  0  0  0  0
M  END
>  <Pose>
1

>  <Score>
-5.64

$$$$
