
 OpenBabel03232204043D

 50 53  0  0  1  0  0  0  0  0999 V2000
   19.6340  -53.7530   35.6500 S   0  0  0  0  0  0  0  0  0  0  0  0
   20.3890  -52.4660   35.5440 O   0  0  0  0  0  0  0  0  0  0  0  0
   20.4920  -54.6940   36.4580 O   0  0  0  0  0  0  0  0  0  0  0  0
   18.1650  -53.5310   36.4700 N   0  0  0  0  0  0  0  0  0  0  0  0
   18.2430  -53.5250   37.8810 C   0  0  0  0  0  0  0  0  0  0  0  0
   16.9720  -53.9110   38.5900 C   0  0  0  0  0  0  0  0  0  0  0  0
   16.3070  -55.0320   37.9860 N   0  0  0  0  0  0  0  0  0  0  0  0
   16.7690  -55.4420   36.6830 C   0  0  0  0  0  0  0  0  0  0  0  0
   17.0330  -54.1650   35.8900 C   0  0  0  0  0  0  0  0  0  0  0  0
   15.2540  -55.6730   38.6580 C   0  0  0  0  0  0  0  0  0  0  0  0
   14.3970  -54.9370   39.2250 O   0  0  0  0  0  0  0  0  0  0  0  0
   15.0890  -57.1500   38.7420 C   0  0  2  0  0  0  0  0  0  0  0  0
   14.9150  -57.7350   37.4630 N   0  0  0  0  0  0  0  0  0  0  0  0
   13.5730  -57.8490   36.9920 C   0  0  2  0  0  0  0  0  0  0  0  0
   12.6320  -58.0710   38.5160 S   0  0  0  0  0  0  0  0  0  0  0  0
   13.9720  -57.5510   39.6590 C   0  0  0  0  0  0  0  0  0  0  0  0
   13.5830  -59.1850   36.2750 C   0  0  0  0  0  0  0  0  0  0  0  0
   14.8720  -59.0100   35.4610 C   0  0  0  0  0  0  0  0  0  0  0  0
   15.7270  -58.2900   36.4030 C   0  0  0  0  0  0  0  0  0  0  0  0
   16.9840  -58.1910   36.2740 O   0  0  0  0  0  0  0  0  0  0  0  0
   13.0830  -56.7510   36.1350 C   0  0  0  0  0  0  0  0  0  0  0  0
   19.4320  -54.4960   34.0650 C   0  0  0  0  0  0  0  0  0  0  0  0
   19.9890  -53.9180   32.9460 C   0  0  0  0  0  0  0  0  0  0  0  0
   19.8490  -54.4700   31.6950 C   0  0  0  0  0  0  0  0  0  0  0  0
   19.1380  -55.6410   31.5020 C   0  0  0  0  0  0  0  0  0  0  0  0
   18.5910  -56.1980   32.6450 C   0  0  0  0  0  0  0  0  0  0  0  0
   18.7220  -55.6580   33.9000 C   0  0  0  0  0  0  0  0  0  0  0  0
   18.9400  -56.3720   29.9230 Cl  0  0  0  0  0  0  0  0  0  0  0  0
   18.6280  -52.5490   38.2420 H   0  0  0  0  0  0  0  0  0  0  0  0
   19.0140  -54.2860   38.1860 H   0  0  0  0  0  0  0  0  0  0  0  0
   16.3380  -52.9990   38.6490 H   0  0  0  0  0  0  0  0  0  0  0  0
   17.2220  -54.1450   39.6660 H   0  0  0  0  0  0  0  0  0  0  0  0
   16.0520  -56.0950   36.1550 H   0  0  0  0  0  0  0  0  0  0  0  0
   17.7440  -55.9630   36.8340 H   0  0  0  0  0  0  0  0  0  0  0  0
   16.1420  -53.5350   35.8500 H   0  0  0  0  0  0  0  0  0  0  0  0
   17.2870  -54.4270   34.8300 H   0  0  0  0  0  0  0  0  0  0  0  0
   16.0140  -57.5320   39.2250 H   0  0  0  0  0  0  0  0  0  0  0  0
   14.1990  -58.4200   40.2980 H   0  0  0  0  0  0  0  0  0  0  0  0
   13.6140  -56.7370   40.3220 H   0  0  0  0  0  0  0  0  0  0  0  0
   13.7110  -59.9610   37.0630 H   0  0  0  0  0  0  0  0  0  0  0  0
   12.7130  -59.3370   35.6380 H   0  0  0  0  0  0  0  0  0  0  0  0
   15.2670  -60.0290   35.2230 H   0  0  0  0  0  0  0  0  0  0  0  0
   14.6350  -58.4120   34.5770 H   0  0  0  0  0  0  0  0  0  0  0  0
   12.2810  -57.1710   35.4570 H   0  0  0  0  0  0  0  0  0  0  0  0
   12.5490  -55.9450   36.7060 H   0  0  0  0  0  0  0  0  0  0  0  0
   13.8470  -56.3430   35.4470 H   0  0  0  0  0  0  0  0  0  0  0  0
   20.5560  -52.9890   33.0810 H   0  0  0  0  0  0  0  0  0  0  0  0
   20.2960  -54.0010   30.8170 H   0  0  0  0  0  0  0  0  0  0  0  0
   18.0320  -57.1230   32.4650 H   0  0  0  0  0  0  0  0  0  0  0  0
   18.2690  -56.1480   34.7370 H   0  0  0  0  0  0  0  0  0  0  0  0
  1  3  2  0  0  0  0
  1  4  1  0  0  0  0
  2  1  2  0  0  0  0
  4  5  1  0  0  0  0
  5 30  1  0  0  0  0
  5 29  1  0  0  0  0
  5  6  1  0  0  0  0
  6 31  1  0  0  0  0
  6 32  1  0  0  0  0
  7  6  1  0  0  0  0
  7 10  1  0  0  0  0
  8 34  1  0  0  0  0
  8  7  1  0  0  0  0
  9  4  1  0  0  0  0
  9  8  1  0  0  0  0
 10 12  1  0  0  0  0
 10 11  2  0  0  0  0
 12 37  1  1  0  0  0
 12 16  1  0  0  0  0
 13 12  1  0  0  0  0
 14 21  1  6  0  0  0
 14 13  1  0  0  0  0
 14 15  1  0  0  0  0
 15 16  1  0  0  0  0
 16 38  1  0  0  0  0
 16 39  1  0  0  0  0
 17 14  1  0  0  0  0
 17 40  1  0  0  0  0
 18 17  1  0  0  0  0
 18 19  1  0  0  0  0
 19 13  1  0  0  0  0
 20 19  2  0  0  0  0
 21 45  1  0  0  0  0
 22  1  1  0  0  0  0
 23 47  1  0  0  0  0
 23 22  2  0  0  0  0
 24 23  1  0  0  0  0
 25 24  2  0  0  0  0
 25 26  1  0  0  0  0
 26 27  2  0  0  0  0
 27 22  1  0  0  0  0
 27 50  1  0  0  0  0
 28 25  1  0  0  0  0
 33  8  1  0  0  0  0
 35  9  1  0  0  0  0
 36  9  1  0  0  0  0
 41 17  1  0  0  0  0
 42 18  1  0  0  0  0
 43 18  1  0  0  0  0
 44 21  1  0  0  0  0
 46 21  1  0  0  0  0
 48 24  1  0  0  0  0
 49 26  1  0  0  0  0
M  END
>  <Pose>
1

>  <Score>
-6.19

$$$$
