
 OpenBabel03232204043D

 67 70  0  0  1  0  0  0  0  0999 V2000
   19.3970  -54.2470   35.2370 S   0  0  0  0  0  0  0  0  0  0  0  0
   19.8860  -53.1690   34.2710 O   0  0  0  0  0  0  0  0  0  0  0  0
   20.6800  -54.7440   35.8910 O   0  0  0  0  0  0  0  0  0  0  0  0
   18.7390  -55.4920   34.3550 N   0  0  0  0  0  0  0  0  0  0  0  0
   18.7170  -55.4250   32.9480 C   0  0  0  0  0  0  0  0  0  0  0  0
   17.3270  -55.5240   32.3570 C   0  0  2  0  0  0  0  0  0  0  0  0
   16.3660  -56.2810   33.1910 C   0  0  0  0  0  0  0  0  0  0  0  0
   16.9310  -57.1440   34.2590 C   0  0  0  0  0  0  0  0  0  0  0  0
   18.1430  -56.5960   34.9680 C   0  0  0  0  0  0  0  0  0  0  0  0
   17.3730  -56.0930   30.9860 C   0  0  0  0  0  0  0  0  0  0  0  0
   16.6790  -57.1120   30.7470 O   0  0  0  0  0  0  0  0  0  0  0  0
   18.1940  -55.4800   29.9670 N   0  0  0  0  0  0  0  0  0  0  0  0
   19.0440  -56.3310   29.2160 C   0  0  0  0  0  0  0  0  0  0  0  0
   19.9290  -55.7370   28.1880 C   0  0  0  0  0  0  0  0  0  0  0  0
   21.2400  -55.3440   28.5470 N   0  0  0  0  0  0  0  0  0  0  0  0
   21.8370  -54.3070   27.8390 C   0  0  0  0  0  0  0  0  0  0  0  0
   23.0380  -54.6620   27.0110 C   0  0  0  0  0  0  0  0  0  0  0  0
   23.8700  -55.5770   27.6410 O   0  0  0  0  0  0  0  0  0  0  0  0
   23.1270  -56.7470   27.7910 C   0  0  0  0  0  0  0  0  0  0  0  0
   22.0870  -56.4730   28.8540 C   0  0  0  0  0  0  0  0  0  0  0  0
   18.4030  -53.5470   36.4600 C   0  0  0  0  0  0  0  0  0  0  0  0
   17.3060  -54.2400   36.9500 C   0  0  0  0  0  0  0  0  0  0  0  0
   16.4910  -53.7330   37.9330 C   0  0  0  0  0  0  0  0  0  0  0  0
   16.7760  -52.4680   38.4600 C   0  0  0  0  0  0  0  0  0  0  0  0
   17.8500  -51.7980   37.9740 C   0  0  0  0  0  0  0  0  0  0  0  0
   18.6720  -52.3110   36.9840 C   0  0  0  0  0  0  0  0  0  0  0  0
   20.1700  -51.2610   36.3680 B   0  0  0  0  0  0  0  0  0  0  0  0
   15.7800  -52.1060   39.5040 C   0  0  0  0  0  0  0  0  0  0  0  0
   14.6200  -53.0130   39.1450 C   0  0  0  0  0  0  0  0  0  0  0  0
   15.3390  -54.1840   38.6300 N   0  0  0  0  0  0  0  0  0  0  0  0
   14.9090  -55.4940   38.8300 C   0  0  0  0  0  0  0  0  0  0  0  0
   14.2530  -55.7920   39.8870 O   0  0  0  0  0  0  0  0  0  0  0  0
   15.1590  -56.5890   37.8950 C   0  0  0  0  0  0  0  0  0  0  0  0
   13.8910  -57.3840   37.5920 C   0  0  0  0  0  0  0  0  0  0  0  0
   19.2880  -56.3100   32.5410 H   0  0  0  0  0  0  0  0  0  0  0  0
   19.2630  -54.5300   32.6070 H   0  0  0  0  0  0  0  0  0  0  0  0
   16.9810  -54.4510   32.2640 H   0  0  0  0  0  0  0  0  0  0  0  0
   15.7590  -56.9650   32.5210 H   0  0  0  0  0  0  0  0  0  0  0  0
   15.6460  -55.5740   33.6750 H   0  0  0  0  0  0  0  0  0  0  0  0
   16.1490  -57.2770   35.0540 H   0  0  0  0  0  0  0  0  0  0  0  0
   17.0900  -58.1810   33.8650 H   0  0  0  0  0  0  0  0  0  0  0  0
   17.9900  -56.4210   36.0490 H   0  0  0  0  0  0  0  0  0  0  0  0
   18.8990  -57.4450   34.9490 H   0  0  0  0  0  0  0  0  0  0  0  0
   18.0970  -54.4660   29.8780 H   0  0  0  0  0  0  0  0  0  0  0  0
   18.3700  -57.0560   28.6750 H   0  0  0  0  0  0  0  0  0  0  0  0
   19.6400  -56.9300   29.9790 H   0  0  0  0  0  0  0  0  0  0  0  0
   19.9900  -56.4500   27.2890 H   0  0  0  0  0  0  0  0  0  0  0  0
   19.3670  -54.8630   27.7080 H   0  0  0  0  0  0  0  0  0  0  0  0
   22.2810  -53.5970   28.6420 H   0  0  0  0  0  0  0  0  0  0  0  0
   21.1190  -53.6450   27.3360 H   0  0  0  0  0  0  0  0  0  0  0  0
   22.7030  -55.1260   26.0680 H   0  0  0  0  0  0  0  0  0  0  0  0
   23.6420  -53.7730   26.7460 H   0  0  0  0  0  0  0  0  0  0  0  0
   22.7230  -57.0980   26.8410 H   0  0  0  0  0  0  0  0  0  0  0  0
   23.7670  -57.5770   28.1920 H   0  0  0  0  0  0  0  0  0  0  0  0
   22.6670  -56.1720   29.7760 H   0  0  0  0  0  0  0  0  0  0  0  0
   21.5190  -57.3660   29.1530 H   0  0  0  0  0  0  0  0  0  0  0  0
   17.0410  -55.2200   36.5790 H   0  0  0  0  0  0  0  0  0  0  0  0
   18.1000  -50.8050   38.3660 H   0  0  0  0  0  0  0  0  0  0  0  0
   16.1320  -52.2670   40.5250 H   0  0  0  0  0  0  0  0  0  0  0  0
   15.4550  -51.0590   39.3710 H   0  0  0  0  0  0  0  0  0  0  0  0
   14.0060  -53.2730   40.0300 H   0  0  0  0  0  0  0  0  0  0  0  0
   13.9700  -52.5440   38.4060 H   0  0  0  0  0  0  0  0  0  0  0  0
   15.4810  -56.0940   36.9250 H   0  0  0  0  0  0  0  0  0  0  0  0
   15.9380  -57.2970   38.1880 H   0  0  0  0  0  0  0  0  0  0  0  0
   13.8500  -57.6050   36.5150 H   0  0  0  0  0  0  0  0  0  0  0  0
   13.0230  -56.7790   37.9340 H   0  0  0  0  0  0  0  0  0  0  0  0
   13.9170  -58.3150   38.1920 H   0  0  0  0  0  0  0  0  0  0  0  0
  1  3  2  0  0  0  0
  1 21  1  0  0  0  0
  2  1  2  0  0  0  0
  4  9  1  0  0  0  0
  4  1  1  0  0  0  0
  5  4  1  0  0  0  0
  6 37  1  6  0  0  0
  6  5  1  0  0  0  0
  6  7  1  0  0  0  0
  7 39  1  0  0  0  0
  7  8  1  0  0  0  0
  8  9  1  0  0  0  0
  8 40  1  0  0  0  0
  9 42  1  0  0  0  0
 10  6  1  0  0  0  0
 11 10  2  0  0  0  0
 12 10  1  0  0  0  0
 13 12  1  0  0  0  0
 13 46  1  0  0  0  0
 14 15  1  0  0  0  0
 14 13  1  0  0  0  0
 15 20  1  0  0  0  0
 16 15  1  0  0  0  0
 16 49  1  0  0  0  0
 17 18  1  0  0  0  0
 17 16  1  0  0  0  0
 18 19  1  0  0  0  0
 19 54  1  0  0  0  0
 19 20  1  0  0  0  0
 20 56  1  0  0  0  0
 20 55  1  0  0  0  0
 21 22  2  0  0  0  0
 21 26  1  0  0  0  0
 22 23  1  0  0  0  0
 23 24  2  0  0  0  0
 23 30  1  0  0  0  0
 24 28  1  0  0  0  0
 25 58  1  0  0  0  0
 25 24  1  0  0  0  0
 26 25  2  0  0  0  0
 27 26  1  0  0  0  0
 28 59  1  0  0  0  0
 29 28  1  0  0  0  0
 29 61  1  0  0  0  0
 30 31  1  0  0  0  0
 30 29  1  0  0  0  0
 31 32  2  0  0  0  0
 33 64  1  0  0  0  0
 33 31  1  0  0  0  0
 34 33  1  0  0  0  0
 34 66  1  0  0  0  0
 34 67  1  0  0  0  0
 35  5  1  0  0  0  0
 36  5  1  0  0  0  0
 38  7  1  0  0  0  0
 41  8  1  0  0  0  0
 43  9  1  0  0  0  0
 44 12  1  0  0  0  0
 45 13  1  0  0  0  0
 47 14  1  0  0  0  0
 48 14  1  0  0  0  0
 50 16  1  0  0  0  0
 51 17  1  0  0  0  0
 52 17  1  0  0  0  0
 53 19  1  0  0  0  0
 57 22  1  0  0  0  0
 60 28  1  0  0  0  0
 62 29  1  0  0  0  0
 63 33  1  0  0  0  0
 65 34  1  0  0  0  0
M  END
>  <Pose>
1

>  <Score>
-9.00

$$$$
