
 OpenBabel03232204043D

 49 52  0  0  1  0  0  0  0  0999 V2000
   16.7680  -60.0270   32.7140 Cl  0  0  0  0  0  0  0  0  0  0  0  0
   17.2110  -58.4170   33.2810 C   0  0  0  0  0  0  0  0  0  0  0  0
   18.4020  -58.2020   33.9200 C   0  0  0  0  0  0  0  0  0  0  0  0
   18.7370  -56.9350   34.3600 C   0  0  0  0  0  0  0  0  0  0  0  0
   17.9090  -55.8480   34.1800 C   0  0  0  0  0  0  0  0  0  0  0  0
   16.7140  -56.0790   33.5340 C   0  0  0  0  0  0  0  0  0  0  0  0
   16.3650  -57.3610   33.0850 C   0  0  0  0  0  0  0  0  0  0  0  0
   18.2590  -54.5430   34.6300 N   0  0  0  0  0  0  0  0  0  0  0  0
   17.5680  -53.7110   35.6080 C   0  0  0  0  0  0  0  0  0  0  0  0
   18.6040  -52.7900   36.1900 C   0  0  2  0  0  0  0  0  0  0  0  0
   19.7710  -52.7980   35.2600 C   0  0  0  0  0  0  0  0  0  0  0  0
   19.3930  -53.7600   34.1980 C   0  0  0  0  0  0  0  0  0  0  0  0
   19.9160  -53.9500   33.0520 O   0  0  0  0  0  0  0  0  0  0  0  0
   18.9150  -53.0220   37.6050 C   0  0  0  0  0  0  0  0  0  0  0  0
   20.1580  -52.9790   37.9400 O   0  0  0  0  0  0  0  0  0  0  0  0
   18.0070  -53.2850   38.6360 N   0  0  0  0  0  0  0  0  0  0  0  0
   18.3720  -54.1780   39.7240 C   0  0  0  0  0  0  0  0  0  0  0  0
   17.3760  -55.3280   39.8300 C   0  0  0  0  0  0  0  0  0  0  0  0
   16.0710  -54.8470   39.4870 N   0  0  0  0  0  0  0  0  0  0  0  0
   15.7770  -53.4600   39.6760 C   0  0  0  0  0  0  0  0  0  0  0  0
   16.6870  -52.7040   38.6880 C   0  0  0  0  0  0  0  0  0  0  0  0
   15.0920  -55.7190   38.9630 C   0  0  0  0  0  0  0  0  0  0  0  0
   15.1850  -56.4580   37.8240 N   0  0  0  0  0  0  0  0  0  0  0  0
   14.0570  -57.1620   37.6680 C   0  0  0  0  0  0  0  0  0  0  0  0
   13.2210  -56.8740   38.7200 C   0  0  0  0  0  0  0  0  0  0  0  0
   13.8770  -56.0070   39.4710 N   0  0  0  0  0  0  0  0  0  0  0  0
   16.3380  -56.4750   36.9130 C   0  0  0  0  0  0  0  0  0  0  0  0
   19.0570  -59.0580   34.0640 H   0  0  0  0  0  0  0  0  0  0  0  0
   19.6930  -56.8280   34.8600 H   0  0  0  0  0  0  0  0  0  0  0  0
   16.0410  -55.2750   33.3720 H   0  0  0  0  0  0  0  0  0  0  0  0
   15.4230  -57.5310   32.5780 H   0  0  0  0  0  0  0  0  0  0  0  0
   17.0640  -54.3470   36.3330 H   0  0  0  0  0  0  0  0  0  0  0  0
   16.7780  -53.1560   35.0300 H   0  0  0  0  0  0  0  0  0  0  0  0
   18.1540  -51.7530   36.0850 H   0  0  0  0  0  0  0  0  0  0  0  0
   19.9210  -51.8170   34.7130 H   0  0  0  0  0  0  0  0  0  0  0  0
   20.7280  -53.0140   35.7510 H   0  0  0  0  0  0  0  0  0  0  0  0
   18.3140  -53.5820   40.6660 H   0  0  0  0  0  0  0  0  0  0  0  0
   19.4060  -54.5430   39.6490 H   0  0  0  0  0  0  0  0  0  0  0  0
   17.3350  -55.6270   40.9050 H   0  0  0  0  0  0  0  0  0  0  0  0
   17.7250  -56.1590   39.1810 H   0  0  0  0  0  0  0  0  0  0  0  0
   14.7350  -53.1930   39.3890 H   0  0  0  0  0  0  0  0  0  0  0  0
   16.0230  -53.1530   40.7120 H   0  0  0  0  0  0  0  0  0  0  0  0
   16.6790  -51.6430   39.0090 H   0  0  0  0  0  0  0  0  0  0  0  0
   16.2050  -52.8810   37.7140 H   0  0  0  0  0  0  0  0  0  0  0  0
   13.8380  -57.8410   36.8530 H   0  0  0  0  0  0  0  0  0  0  0  0
   12.2170  -57.2670   38.9160 H   0  0  0  0  0  0  0  0  0  0  0  0
   16.0100  -56.0910   35.9150 H   0  0  0  0  0  0  0  0  0  0  0  0
   17.1140  -55.8080   37.3150 H   0  0  0  0  0  0  0  0  0  0  0  0
   16.6710  -57.5040   36.7650 H   0  0  0  0  0  0  0  0  0  0  0  0
  1  2  1  0  0  0  0
  2  3  1  0  0  0  0
  3 28  1  0  0  0  0
  3  4  2  0  0  0  0
  4 29  1  0  0  0  0
  5  4  1  0  0  0  0
  5  8  1  0  0  0  0
  6  5  2  0  0  0  0
  7  2  2  0  0  0  0
  7  6  1  0  0  0  0
  8  9  1  0  0  0  0
  9 10  1  0  0  0  0
  9 32  1  0  0  0  0
 10 34  1  6  0  0  0
 10 14  1  0  0  0  0
 11 36  1  0  0  0  0
 11 10  1  0  0  0  0
 12  8  1  0  0  0  0
 12 11  1  0  0  0  0
 13 12  2  0  0  0  0
 14 15  2  0  0  0  0
 14 16  1  0  0  0  0
 16 21  1  0  0  0  0
 16 17  1  0  0  0  0
 17 18  1  0  0  0  0
 17 37  1  0  0  0  0
 18 39  1  0  0  0  0
 19 20  1  0  0  0  0
 19 18  1  0  0  0  0
 20 42  1  0  0  0  0
 21 43  1  0  0  0  0
 21 20  1  0  0  0  0
 22 26  2  0  0  0  0
 22 19  1  0  0  0  0
 23 22  1  0  0  0  0
 24 23  1  0  0  0  0
 24 25  2  0  0  0  0
 25 46  1  0  0  0  0
 25 26  1  0  0  0  0
 27 48  1  0  0  0  0
 27 23  1  0  0  0  0
 30  6  1  0  0  0  0
 31  7  1  0  0  0  0
 33  9  1  0  0  0  0
 35 11  1  0  0  0  0
 38 17  1  0  0  0  0
 40 18  1  0  0  0  0
 41 20  1  0  0  0  0
 44 21  1  0  0  0  0
 45 24  1  0  0  0  0
 47 27  1  0  0  0  0
 49 27  1  0  0  0  0
M  END
>  <Pose>
1

>  <Score>
-6.34

$$$$
