
 OpenBabel03232204043D

 35 38  0  0  1  0  0  0  0  0999 V2000
   19.7880  -51.9740   36.0960 Cl  0  0  0  0  0  0  0  0  0  0  0  0
   18.9660  -53.4320   35.5470 C   0  0  0  0  0  0  0  0  0  0  0  0
   19.4240  -54.1210   34.4400 C   0  0  0  0  0  0  0  0  0  0  0  0
   18.8010  -55.2620   33.9960 C   0  0  0  0  0  0  0  0  0  0  0  0
   17.6740  -55.7660   34.6570 C   0  0  0  0  0  0  0  0  0  0  0  0
   17.2460  -55.0550   35.7540 C   0  0  0  0  0  0  0  0  0  0  0  0
   17.8510  -53.9120   36.2200 C   0  0  0  0  0  0  0  0  0  0  0  0
   17.0380  -56.9520   34.1990 N   0  0  0  0  0  0  0  0  0  0  0  0
   17.2600  -58.3090   34.6150 C   0  0  0  0  0  0  0  0  0  0  0  0
   18.2390  -58.6650   35.3170 O   0  0  0  0  0  0  0  0  0  0  0  0
   16.1880  -59.1980   34.1010 C   0  0  1  0  0  0  0  0  0  0  0  0
   15.3540  -59.8190   35.1750 C   0  0  1  0  0  0  0  0  0  0  0  0
   15.3240  -58.8520   36.3400 C   0  0  1  0  0  0  0  0  0  0  0  0
   14.5650  -57.6720   35.7350 C   0  0  1  0  0  0  0  0  0  0  0  0
   14.1180  -58.1230   34.3630 C   0  0  1  0  0  0  0  0  0  0  0  0
   15.2410  -58.2300   33.3800 C   0  0  1  0  0  0  0  0  0  0  0  0
   16.0220  -56.9810   33.2090 C   0  0  0  0  0  0  0  0  0  0  0  0
   15.7950  -56.1190   32.3250 O   0  0  0  0  0  0  0  0  0  0  0  0
   13.9150  -59.6240   34.6700 C   0  0  0  0  0  0  0  0  0  0  0  0
   13.4000  -57.4090   36.4520 O   0  0  0  0  0  0  0  0  0  0  0  0
   14.5280  -59.4000   37.3230 O   0  0  0  0  0  0  0  0  0  0  0  0
   20.2990  -53.7230   33.9310 H   0  0  0  0  0  0  0  0  0  0  0  0
   19.1360  -55.8130   33.1400 H   0  0  0  0  0  0  0  0  0  0  0  0
   16.3700  -55.4170   36.2980 H   0  0  0  0  0  0  0  0  0  0  0  0
   17.4950  -53.3610   37.0960 H   0  0  0  0  0  0  0  0  0  0  0  0
   16.5730  -59.9310   33.3640 H   0  0  0  0  0  0  0  0  0  0  0  0
   15.5760  -60.8390   35.4300 H   0  0  0  0  0  0  0  0  0  0  0  0
   16.3270  -58.5630   36.6750 H   0  0  0  0  0  0  0  0  0  0  0  0
   15.1690  -56.7710   35.7230 H   0  0  0  0  0  0  0  0  0  0  0  0
   13.2110  -57.6530   33.9960 H   0  0  0  0  0  0  0  0  0  0  0  0
   14.8600  -58.6470   32.4330 H   0  0  0  0  0  0  0  0  0  0  0  0
   13.6990  -60.1990   33.7780 H   0  0  0  0  0  0  0  0  0  0  0  0
   13.2030  -59.7260   35.5120 H   0  0  0  0  0  0  0  0  0  0  0  0
   12.9200  -56.6670   35.9760 H   0  0  0  0  0  0  0  0  0  0  0  0
   14.3690  -60.3680   37.2400 H   0  0  0  0  0  0  0  0  0  0  0  0
  2  1  1  0  0  0  0
  2  7  1  0  0  0  0
  3  2  2  0  0  0  0
  4  3  1  0  0  0  0
  4  5  2  0  0  0  0
  5  6  1  0  0  0  0
  6  7  2  0  0  0  0
  6 24  1  0  0  0  0
  7 25  1  0  0  0  0
  8  9  1  0  0  0  0
  8  5  1  0  0  0  0
  9 10  2  0  0  0  0
 11 26  1  6  0  0  0
 11  9  1  0  0  0  0
 11 12  1  0  0  0  0
 12 27  1  1  0  0  0
 12 13  1  0  0  0  0
 13 28  1  1  0  0  0
 13 21  1  0  0  0  0
 14 29  1  6  0  0  0
 14 13  1  0  0  0  0
 14 20  1  0  0  0  0
 15 30  1  6  0  0  0
 15 19  1  0  0  0  0
 15 14  1  0  0  0  0
 16 31  1  6  0  0  0
 16 11  1  0  0  0  0
 16 15  1  0  0  0  0
 17 16  1  0  0  0  0
 17  8  1  0  0  0  0
 18 17  2  0  0  0  0
 19 12  1  0  0  0  0
 19 33  1  0  0  0  0
 22  3  1  0  0  0  0
 23  4  1  0  0  0  0
 32 19  1  0  0  0  0
 34 20  1  0  0  0  0
 35 21  1  0  0  0  0
M  END
>  <Pose>
1

>  <Score>
-5.31

$$$$
