
 OpenBabel03232204043D

 41 44  0  0  1  0  0  0  0  0999 V2000
   13.1550  -59.3410   38.2960 Cl  0  0  0  0  0  0  0  0  0  0  0  0
   14.1990  -58.7160   37.0300 C   0  0  0  0  0  0  0  0  0  0  0  0
   14.0910  -59.1600   35.7290 C   0  0  0  0  0  0  0  0  0  0  0  0
   14.9200  -58.6630   34.7310 C   0  0  0  0  0  0  0  0  0  0  0  0
   15.8780  -57.7110   35.0020 C   0  0  0  0  0  0  0  0  0  0  0  0
   15.9820  -57.2690   36.3020 C   0  0  0  0  0  0  0  0  0  0  0  0
   15.1580  -57.7620   37.2960 C   0  0  0  0  0  0  0  0  0  0  0  0
   16.7490  -57.1820   33.9720 N   0  0  0  0  0  0  0  0  0  0  0  0
   16.2110  -56.5740   32.8130 C   0  0  0  0  0  0  0  0  0  0  0  0
   14.9670  -56.4800   32.6660 O   0  0  0  0  0  0  0  0  0  0  0  0
   17.1120  -56.0670   31.8130 N   0  0  0  0  0  0  0  0  0  0  0  0
   18.5200  -56.1720   31.9760 C   0  0  0  0  0  0  0  0  0  0  0  0
   19.2690  -56.0420   30.9750 O   0  0  0  0  0  0  0  0  0  0  0  0
   19.0750  -56.4300   33.3140 C   0  0  2  0  0  0  0  0  0  0  0  0
   18.1570  -57.2710   34.1020 C   0  0  0  0  0  0  0  0  0  0  0  0
   18.6320  -58.1140   34.9390 O   0  0  0  0  0  0  0  0  0  0  0  0
   19.3460  -55.1430   34.0380 C   0  0  0  0  0  0  0  0  0  0  0  0
   19.9100  -54.9710   35.2050 C   0  0  0  0  0  0  0  0  0  0  0  0
   19.9610  -53.5330   35.5110 C   0  0  1  0  0  0  0  0  0  0  0  0
   19.6960  -52.9000   34.2500 N   0  0  0  0  0  0  0  0  0  0  0  0
   19.0070  -53.8730   33.5080 N   0  0  0  0  0  0  0  0  0  0  0  0
   18.8600  -53.2520   36.4670 C   0  0  0  0  0  0  0  0  0  0  0  0
   18.8320  -52.0670   37.1630 C   0  0  0  0  0  0  0  0  0  0  0  0
   17.8260  -51.8030   38.0410 N   0  0  0  0  0  0  0  0  0  0  0  0
   16.8250  -52.6680   38.2730 C   0  0  0  0  0  0  0  0  0  0  0  0
   16.8210  -53.8650   37.5930 C   0  0  0  0  0  0  0  0  0  0  0  0
   17.8510  -54.1520   36.6840 C   0  0  0  0  0  0  0  0  0  0  0  0
   13.3470  -59.9050   35.4980 H   0  0  0  0  0  0  0  0  0  0  0  0
   14.8470  -58.9980   33.7080 H   0  0  0  0  0  0  0  0  0  0  0  0
   16.7410  -56.5120   36.5320 H   0  0  0  0  0  0  0  0  0  0  0  0
   15.2340  -57.4200   38.3310 H   0  0  0  0  0  0  0  0  0  0  0  0
   16.7600  -55.6120   30.9430 H   0  0  0  0  0  0  0  0  0  0  0  0
   20.0610  -56.9450   33.2720 H   0  0  0  0  0  0  0  0  0  0  0  0
   20.2740  -55.7800   35.8260 H   0  0  0  0  0  0  0  0  0  0  0  0
   20.9460  -53.2240   35.9370 H   0  0  0  0  0  0  0  0  0  0  0  0
   20.5500  -52.5930   33.7750 H   0  0  0  0  0  0  0  0  0  0  0  0
   18.3720  -53.6240   32.7160 H   0  0  0  0  0  0  0  0  0  0  0  0
   19.6370  -51.3460   36.9920 H   0  0  0  0  0  0  0  0  0  0  0  0
   16.0210  -52.4350   38.9870 H   0  0  0  0  0  0  0  0  0  0  0  0
   16.0220  -54.5660   37.7700 H   0  0  0  0  0  0  0  0  0  0  0  0
   17.8380  -55.0780   36.1650 H   0  0  0  0  0  0  0  0  0  0  0  0
  2  7  1  0  0  0  0
  2  1  1  0  0  0  0
  3  2  2  0  0  0  0
  4  5  2  0  0  0  0
  4  3  1  0  0  0  0
  5  6  1  0  0  0  0
  6 30  1  0  0  0  0
  6  7  2  0  0  0  0
  7 31  1  0  0  0  0
  8 15  1  0  0  0  0
  8  5  1  0  0  0  0
  9  8  1  0  0  0  0
 10  9  2  0  0  0  0
 11 12  1  0  0  0  0
 11  9  1  0  0  0  0
 12 14  1  0  0  0  0
 13 12  2  0  0  0  0
 14 33  1  6  0  0  0
 14 17  1  0  0  0  0
 14 15  1  0  0  0  0
 15 16  2  0  0  0  0
 17 18  2  0  0  0  0
 18 19  1  0  0  0  0
 18 34  1  0  0  0  0
 19 35  1  1  0  0  0
 19 22  1  0  0  0  0
 20 19  1  0  0  0  0
 21 17  1  0  0  0  0
 21 20  1  0  0  0  0
 22 27  2  0  0  0  0
 22 23  1  0  0  0  0
 23 24  2  0  0  0  0
 24 25  1  0  0  0  0
 25 39  1  0  0  0  0
 26 40  1  0  0  0  0
 26 25  2  0  0  0  0
 27 26  1  0  0  0  0
 28  3  1  0  0  0  0
 29  4  1  0  0  0  0
 32 11  1  0  0  0  0
 36 20  1  0  0  0  0
 37 21  1  0  0  0  0
 38 23  1  0  0  0  0
 41 27  1  0  0  0  0
M  END
>  <Pose>
1

>  <Score>
-6.64

$$$$
