
 OpenBabel03232204043D

 58 62  0  0  1  0  0  0  0  0999 V2000
   15.8000  -52.6720   39.7760 Cl  0  0  0  0  0  0  0  0  0  0  0  0
   16.3210  -53.6810   38.4450 C   0  0  0  0  0  0  0  0  0  0  0  0
   15.9640  -55.0120   38.3860 C   0  0  0  0  0  0  0  0  0  0  0  0
   16.3590  -55.8300   37.3510 C   0  0  0  0  0  0  0  0  0  0  0  0
   17.1350  -55.2810   36.3540 C   0  0  0  0  0  0  0  0  0  0  0  0
   17.4800  -53.9680   36.4250 C   0  0  0  0  0  0  0  0  0  0  0  0
   17.0950  -53.1340   37.4500 C   0  0  0  0  0  0  0  0  0  0  0  0
   15.9540  -57.2780   37.3120 C   0  0  0  0  0  0  0  0  0  0  0  0
   15.5820  -57.6490   35.9580 N   0  0  0  0  0  0  0  0  0  0  0  0
   14.2240  -57.7420   35.5440 C   0  0  0  0  0  0  0  0  0  0  0  0
   13.2970  -57.5760   36.4010 O   0  0  0  0  0  0  0  0  0  0  0  0
   13.8200  -58.0220   34.1630 C   0  0  1  0  0  0  0  0  0  0  0  0
   14.8760  -58.4300   33.2970 N   0  0  1  0  0  0  0  0  0  0  0  0
   16.1630  -57.8710   33.5560 C   0  0  0  0  0  0  0  0  0  0  0  0
   16.4560  -56.5500   32.8870 C   0  0  0  0  0  0  0  0  0  0  0  0
   17.4160  -57.1930   32.0490 N   0  0  0  0  0  0  0  0  0  0  0  0
   17.1790  -58.4690   32.5970 C   0  0  0  0  0  0  0  0  0  0  0  0
   17.3720  -56.9780   30.6490 C   0  0  0  0  0  0  0  0  0  0  0  0
   18.6610  -56.7420   29.9890 C   0  0  0  0  0  0  0  0  0  0  0  0
   19.5750  -57.7610   29.8810 C   0  0  0  0  0  0  0  0  0  0  0  0
   20.8100  -57.5640   29.2580 C   0  0  0  0  0  0  0  0  0  0  0  0
   21.1100  -56.3220   28.7460 C   0  0  0  0  0  0  0  0  0  0  0  0
   20.2140  -55.2840   28.8410 C   0  0  0  0  0  0  0  0  0  0  0  0
   18.9910  -55.5150   29.4680 C   0  0  0  0  0  0  0  0  0  0  0  0
   21.7320  -58.5860   29.1470 O   0  0  0  0  0  0  0  0  0  0  0  0
   21.6750  -59.4260   28.0090 C   0  0  0  0  0  0  0  0  0  0  0  0
   16.5750  -57.9400   34.9820 C   0  0  0  0  0  0  0  0  0  0  0  0
   17.7390  -58.2390   35.3500 O   0  0  0  0  0  0  0  0  0  0  0  0
   14.9600  -59.8610   33.3320 C   0  0  0  0  0  0  0  0  0  0  0  0
   13.8550  -60.3710   34.2150 C   0  0  1  0  0  0  0  0  0  0  0  0
   12.8760  -59.2320   34.2170 C   0  0  0  0  0  0  0  0  0  0  0  0
   13.2960  -61.5540   33.7530 O   0  0  0  0  0  0  0  0  0  0  0  0
   15.3430  -55.4400   39.1890 H   0  0  0  0  0  0  0  0  0  0  0  0
   17.4440  -55.9080   35.5480 H   0  0  0  0  0  0  0  0  0  0  0  0
   18.0930  -53.5460   35.6300 H   0  0  0  0  0  0  0  0  0  0  0  0
   17.3890  -52.0780   37.4800 H   0  0  0  0  0  0  0  0  0  0  0  0
   15.0730  -57.3780   37.9810 H   0  0  0  0  0  0  0  0  0  0  0  0
   16.8230  -57.8680   37.6610 H   0  0  0  0  0  0  0  0  0  0  0  0
   13.2400  -57.1790   33.7180 H   0  0  0  0  0  0  0  0  0  0  0  0
   15.6090  -56.0410   32.4320 H   0  0  0  0  0  0  0  0  0  0  0  0
   17.0020  -55.8550   33.5910 H   0  0  0  0  0  0  0  0  0  0  0  0
   16.8000  -59.2750   31.9630 H   0  0  0  0  0  0  0  0  0  0  0  0
   18.0610  -58.8550   33.1870 H   0  0  0  0  0  0  0  0  0  0  0  0
   16.8340  -57.8720   30.2060 H   0  0  0  0  0  0  0  0  0  0  0  0
   16.6410  -56.1370   30.4540 H   0  0  0  0  0  0  0  0  0  0  0  0
   19.4050  -58.7600   30.2610 H   0  0  0  0  0  0  0  0  0  0  0  0
   22.0850  -56.2000   28.2660 H   0  0  0  0  0  0  0  0  0  0  0  0
   20.5040  -54.3330   28.4210 H   0  0  0  0  0  0  0  0  0  0  0  0
   18.3280  -54.6640   29.5140 H   0  0  0  0  0  0  0  0  0  0  0  0
   22.4560  -60.2050   28.1560 H   0  0  0  0  0  0  0  0  0  0  0  0
   20.6690  -59.8990   27.9040 H   0  0  0  0  0  0  0  0  0  0  0  0
   21.8860  -58.8730   27.0730 H   0  0  0  0  0  0  0  0  0  0  0  0
   15.9250  -60.2380   33.7540 H   0  0  0  0  0  0  0  0  0  0  0  0
   14.8330  -60.2650   32.2850 H   0  0  0  0  0  0  0  0  0  0  0  0
   14.2480  -60.4760   35.2640 H   0  0  0  0  0  0  0  0  0  0  0  0
   12.2430  -59.2050   35.1180 H   0  0  0  0  0  0  0  0  0  0  0  0
   12.3070  -59.2460   33.2820 H   0  0  0  0  0  0  0  0  0  0  0  0
   12.7300  -61.3280   32.9750 H   0  0  0  0  0  0  0  0  0  0  0  0
  2  1  1  0  0  0  0
  3  2  1  0  0  0  0
  3 33  1  0  0  0  0
  4  3  2  0  0  0  0
  5  6  2  0  0  0  0
  5  4  1  0  0  0  0
  6  7  1  0  0  0  0
  7 36  1  0  0  0  0
  7  2  2  0  0  0  0
  8  4  1  0  0  0  0
  8 38  1  0  0  0  0
  8 37  1  0  0  0  0
  9  8  1  0  0  0  0
 10  9  1  0  0  0  0
 10 11  2  0  0  0  0
 12 39  1  6  0  0  0
 12 31  1  0  0  0  0
 12 10  1  0  0  0  0
 13 29  1  1  0  0  0
 13 14  1  0  0  0  0
 13 12  1  0  0  0  0
 14 27  1  0  0  0  0
 15 14  1  0  0  0  0
 15 41  1  0  0  0  0
 16 17  1  0  0  0  0
 16 15  1  0  0  0  0
 17 43  1  0  0  0  0
 17 14  1  0  0  0  0
 18 16  1  0  0  0  0
 19 18  1  0  0  0  0
 20 19  1  0  0  0  0
 20 46  1  0  0  0  0
 21 20  2  0  0  0  0
 22 23  2  0  0  0  0
 22 21  1  0  0  0  0
 23 24  1  0  0  0  0
 24 49  1  0  0  0  0
 24 19  2  0  0  0  0
 25 21  1  0  0  0  0
 26 50  1  0  0  0  0
 26 25  1  0  0  0  0
 27 28  2  0  0  0  0
 27  9  1  0  0  0  0
 29 53  1  0  0  0  0
 29 30  1  0  0  0  0
 30 31  1  0  0  0  0
 30 55  1  1  0  0  0
 31 56  1  0  0  0  0
 32 30  1  0  0  0  0
 34  5  1  0  0  0  0
 35  6  1  0  0  0  0
 40 15  1  0  0  0  0
 42 17  1  0  0  0  0
 44 18  1  0  0  0  0
 45 18  1  0  0  0  0
 47 22  1  0  0  0  0
 48 23  1  0  0  0  0
 51 26  1  0  0  0  0
 52 26  1  0  0  0  0
 54 29  1  0  0  0  0
 57 31  1  0  0  0  0
 58 32  1  0  0  0  0
M  END
>  <Pose>
1

>  <Score>
-6.54

$$$$
