
 OpenBabel03232204043D

 55 59  0  0  1  0  0  0  0  0999 V2000
   16.4890  -60.7920   32.4370 B   0  0  0  0  0  0  0  0  0  0  0  0
   15.1330  -59.9430   33.4730 C   0  0  0  0  0  0  0  0  0  0  0  0
   15.2510  -59.2200   34.6430 C   0  0  0  0  0  0  0  0  0  0  0  0
   14.0250  -58.7960   35.0420 N   0  0  0  0  0  0  0  0  0  0  0  0
   13.1650  -59.2320   34.1620 N   0  0  0  0  0  0  0  0  0  0  0  0
   13.7660  -59.9340   33.1850 C   0  0  0  0  0  0  0  0  0  0  0  0
   13.6910  -58.0130   36.2080 C   0  0  0  0  0  0  0  0  0  0  0  0
   13.4370  -58.8670   37.4290 C   0  0  2  0  0  0  0  0  0  0  0  0
   12.6650  -60.0980   37.0930 C   0  0  0  0  0  0  0  0  0  0  0  0
   12.7660  -58.0400   38.4730 C   0  0  0  0  0  0  0  0  0  0  0  0
   11.5700  -58.3240   38.7340 O   0  0  0  0  0  0  0  0  0  0  0  0
   13.4290  -56.9840   39.1420 N   0  0  0  0  0  0  0  0  0  0  0  0
   14.6690  -56.4930   38.7990 N   0  0  0  0  0  0  0  0  0  0  0  0
   15.1630  -55.3010   39.3500 C   0  0  0  0  0  0  0  0  0  0  0  0
   14.5760  -54.8210   40.3670 O   0  0  0  0  0  0  0  0  0  0  0  0
   16.3290  -54.5550   38.8210 C   0  0  1  0  0  0  0  0  0  0  0  0
   16.6360  -54.9810   37.4000 C   0  0  0  0  0  0  0  0  0  0  0  0
   17.8260  -54.2370   36.8640 C   0  0  1  0  0  0  0  0  0  0  0  0
   17.4490  -52.7540   36.8290 C   0  0  0  0  0  0  0  0  0  0  0  0
   17.1210  -52.2880   38.2110 C   0  0  1  0  0  0  0  0  0  0  0  0
   15.9710  -53.0860   38.7810 C   0  0  0  0  0  0  0  0  0  0  0  0
   18.3370  -52.4600   39.0920 C   0  0  0  0  0  0  0  0  0  0  0  0
   18.6870  -53.9300   39.1180 C   0  0  2  0  0  0  0  0  0  0  0  0
   19.0440  -54.3790   37.7240 C   0  0  0  0  0  0  0  0  0  0  0  0
   17.5500  -54.7290   39.6970 C   0  0  0  0  0  0  0  0  0  0  0  0
   18.0490  -54.7000   35.5080 N   0  0  2  0  0  0  0  0  0  0  0  0
   17.2420  -54.6860   34.4620 N   0  0  0  0  0  0  0  0  0  0  0  0
   17.8030  -55.1940   33.4070 N   0  0  0  0  0  0  0  0  0  0  0  0
   19.0270  -55.5670   33.7380 C   0  0  0  0  0  0  0  0  0  0  0  0
   19.1840  -55.2580   35.0550 N   0  0  0  0  0  0  0  0  0  0  0  0
   16.1660  -59.0210   35.1620 H   0  0  0  0  0  0  0  0  0  0  0  0
   13.3400  -60.4210   32.3190 H   0  0  0  0  0  0  0  0  0  0  0  0
   12.7620  -57.4580   35.9950 H   0  0  0  0  0  0  0  0  0  0  0  0
   14.4760  -57.2660   36.4530 H   0  0  0  0  0  0  0  0  0  0  0  0
   14.4150  -59.1750   37.8550 H   0  0  0  0  0  0  0  0  0  0  0  0
   13.2020  -60.5900   36.2340 H   0  0  0  0  0  0  0  0  0  0  0  0
   12.7370  -60.8380   37.9210 H   0  0  0  0  0  0  0  0  0  0  0  0
   11.6410  -59.9100   36.7530 H   0  0  0  0  0  0  0  0  0  0  0  0
   12.9220  -56.5480   39.9620 H   0  0  0  0  0  0  0  0  0  0  0  0
   15.2600  -57.0220   38.1130 H   0  0  0  0  0  0  0  0  0  0  0  0
   16.7780  -56.0910   37.3440 H   0  0  0  0  0  0  0  0  0  0  0  0
   15.7610  -54.6510   36.7820 H   0  0  0  0  0  0  0  0  0  0  0  0
   18.2480  -52.1460   36.3960 H   0  0  0  0  0  0  0  0  0  0  0  0
   16.5050  -52.7160   36.2300 H   0  0  0  0  0  0  0  0  0  0  0  0
   16.8110  -51.2310   38.1870 H   0  0  0  0  0  0  0  0  0  0  0  0
   15.7130  -52.6840   39.7840 H   0  0  0  0  0  0  0  0  0  0  0  0
   15.1110  -52.9760   38.0830 H   0  0  0  0  0  0  0  0  0  0  0  0
   19.1720  -51.8990   38.6020 H   0  0  0  0  0  0  0  0  0  0  0  0
   18.1050  -52.0690   40.0880 H   0  0  0  0  0  0  0  0  0  0  0  0
   19.5710  -54.0310   39.8110 H   0  0  0  0  0  0  0  0  0  0  0  0
   19.4270  -55.4130   37.7430 H   0  0  0  0  0  0  0  0  0  0  0  0
   19.8050  -53.6750   37.3260 H   0  0  0  0  0  0  0  0  0  0  0  0
   17.2970  -54.3470   40.6890 H   0  0  0  0  0  0  0  0  0  0  0  0
   17.8460  -55.7940   39.6880 H   0  0  0  0  0  0  0  0  0  0  0  0
   19.7460  -56.0260   33.0770 H   0  0  0  0  0  0  0  0  0  0  0  0
  1  2  1  0  0  0  0
  2  3  2  0  0  0  0
  3  4  1  0  0  0  0
  3 31  1  0  0  0  0
  4  7  1  0  0  0  0
  5  4  1  0  0  0  0
  6  2  1  0  0  0  0
  6  5  2  0  0  0  0
  7 34  1  0  0  0  0
  7  8  1  0  0  0  0
  8 35  1  1  0  0  0
  8 10  1  0  0  0  0
  9  8  1  0  0  0  0
  9 37  1  0  0  0  0
 10 11  2  0  0  0  0
 10 12  1  0  0  0  0
 12 39  1  0  0  0  0
 13 12  1  0  0  0  0
 13 14  1  0  0  0  0
 14 15  2  0  0  0  0
 16 14  1  1  0  0  0
 16 25  1  0  0  0  0
 17 16  1  0  0  0  0
 18 19  1  6  0  0  0
 18 17  1  0  0  0  0
 18 24  1  0  0  0  0
 19 20  1  0  0  0  0
 20 45  1  6  0  0  0
 20 21  1  0  0  0  0
 20 22  1  0  0  0  0
 21 16  1  0  0  0  0
 21 46  1  0  0  0  0
 22 23  1  0  0  0  0
 22 49  1  0  0  0  0
 23 25  1  0  0  0  0
 23 50  1  1  0  0  0
 24 51  1  0  0  0  0
 24 23  1  0  0  0  0
 25 53  1  0  0  0  0
 26 27  1  1  0  0  0
 26 18  1  0  0  0  0
 28 29  2  0  0  0  0
 28 27  1  0  0  0  0
 29 30  1  0  0  0  0
 30 26  1  0  0  0  0
 32  6  1  0  0  0  0
 33  7  1  0  0  0  0
 36  9  1  0  0  0  0
 38  9  1  0  0  0  0
 40 13  1  0  0  0  0
 41 17  1  0  0  0  0
 42 17  1  0  0  0  0
 43 19  1  0  0  0  0
 44 19  1  0  0  0  0
 47 21  1  0  0  0  0
 48 22  1  0  0  0  0
 52 24  1  0  0  0  0
 54 25  1  0  0  0  0
 55 29  1  0  0  0  0
M  END
>  <Pose>
1

>  <Score>
-6.67

$$$$
