
 OpenBabel03232204043D

 52 55  0  0  1  0  0  0  0  0999 V2000
   11.9030  -61.3710   34.0900 Cl  0  0  0  0  0  0  0  0  0  0  0  0
   12.4340  -60.1380   35.2040 C   0  0  0  0  0  0  0  0  0  0  0  0
   12.2010  -60.1740   36.5560 C   0  0  0  0  0  0  0  0  0  0  0  0
   12.6420  -59.1770   37.3890 C   0  0  0  0  0  0  0  0  0  0  0  0
   13.3510  -58.0750   36.8970 C   0  0  0  0  0  0  0  0  0  0  0  0
   13.5840  -58.0380   35.5540 C   0  0  0  0  0  0  0  0  0  0  0  0
   13.1370  -59.0430   34.7260 C   0  0  0  0  0  0  0  0  0  0  0  0
   13.7920  -57.0600   37.8290 C   0  0  0  0  0  0  0  0  0  0  0  0
   12.9780  -56.1390   38.1690 O   0  0  0  0  0  0  0  0  0  0  0  0
   15.1450  -57.0180   38.4240 C   0  0  0  0  0  0  0  0  0  0  0  0
   16.0190  -56.2640   37.5190 N   0  0  0  0  0  0  0  0  0  0  0  0
   16.5530  -55.0600   37.6250 C   0  0  2  0  0  0  0  0  0  0  0  0
   17.3100  -54.7660   36.5340 N   0  0  0  0  0  0  0  0  0  0  0  0
   17.2620  -55.8000   35.7230 C   0  0  0  0  0  0  0  0  0  0  0  0
   16.4350  -56.7540   36.3530 C   0  0  0  0  0  0  0  0  0  0  0  0
   17.8720  -56.0130   34.4070 C   0  0  0  0  0  0  0  0  0  0  0  0
   17.9780  -55.0920   33.4150 C   0  0  0  0  0  0  0  0  0  0  0  0
   18.5080  -55.3790   32.1570 C   0  0  0  0  0  0  0  0  0  0  0  0
   18.9580  -56.6370   31.8660 C   0  0  0  0  0  0  0  0  0  0  0  0
   18.8670  -57.5920   32.8500 C   0  0  0  0  0  0  0  0  0  0  0  0
   18.3390  -57.2920   34.0870 C   0  0  0  0  0  0  0  0  0  0  0  0
   19.4970  -56.9540   30.6070 O   0  0  0  0  0  0  0  0  0  0  0  0
   19.5510  -56.0310   29.5520 C   0  0  0  0  0  0  0  0  0  0  0  0
   17.9770  -53.5090   36.3400 C   0  0  0  0  0  0  0  0  0  0  0  0
   19.2100  -53.4180   37.2350 C   0  0  0  0  0  0  0  0  0  0  0  0
   18.8090  -54.1370   38.5270 C   0  0  0  0  0  0  0  0  0  0  0  0
   17.6330  -53.4070   39.1170 C   0  0  0  0  0  0  0  0  0  0  0  0
   16.3420  -54.1860   38.8200 C   0  0  0  0  0  0  0  0  0  0  0  0
   11.6540  -61.0120   36.9730 H   0  0  0  0  0  0  0  0  0  0  0  0
   12.4340  -59.2430   38.4650 H   0  0  0  0  0  0  0  0  0  0  0  0
   14.1200  -57.2230   35.1090 H   0  0  0  0  0  0  0  0  0  0  0  0
   13.3450  -58.9740   33.6570 H   0  0  0  0  0  0  0  0  0  0  0  0
   15.0340  -56.4310   39.3810 H   0  0  0  0  0  0  0  0  0  0  0  0
   15.5510  -58.0040   38.6530 H   0  0  0  0  0  0  0  0  0  0  0  0
   16.1980  -57.7310   35.9260 H   0  0  0  0  0  0  0  0  0  0  0  0
   17.6880  -54.0900   33.5830 H   0  0  0  0  0  0  0  0  0  0  0  0
   18.5720  -54.6110   31.3900 H   0  0  0  0  0  0  0  0  0  0  0  0
   19.2230  -58.5820   32.6160 H   0  0  0  0  0  0  0  0  0  0  0  0
   18.2680  -58.0510   34.8520 H   0  0  0  0  0  0  0  0  0  0  0  0
   20.3920  -55.3260   29.7300 H   0  0  0  0  0  0  0  0  0  0  0  0
   19.6330  -56.5410   28.5620 H   0  0  0  0  0  0  0  0  0  0  0  0
   18.6180  -55.3990   29.4770 H   0  0  0  0  0  0  0  0  0  0  0  0
   18.0730  -53.1340   35.3460 H   0  0  0  0  0  0  0  0  0  0  0  0
   17.2800  -52.7200   36.8350 H   0  0  0  0  0  0  0  0  0  0  0  0
   20.0600  -53.9020   36.7440 H   0  0  0  0  0  0  0  0  0  0  0  0
   19.4610  -52.3940   37.5140 H   0  0  0  0  0  0  0  0  0  0  0  0
   18.4900  -55.1800   38.2580 H   0  0  0  0  0  0  0  0  0  0  0  0
   19.6570  -54.2540   39.2150 H   0  0  0  0  0  0  0  0  0  0  0  0
   17.8020  -53.3690   40.2170 H   0  0  0  0  0  0  0  0  0  0  0  0
   17.5600  -52.3480   38.8010 H   0  0  0  0  0  0  0  0  0  0  0  0
   15.5330  -53.4690   38.5230 H   0  0  0  0  0  0  0  0  0  0  0  0
   15.9830  -54.7390   39.7020 H   0  0  0  0  0  0  0  0  0  0  0  0
  1  2  1  0  0  0  0
  2  3  1  0  0  0  0
  3 29  1  0  0  0  0
  3  4  2  0  0  0  0
  4 30  1  0  0  0  0
  5  4  1  0  0  0  0
  5  8  1  0  0  0  0
  6  5  2  0  0  0  0
  7  2  2  0  0  0  0
  7  6  1  0  0  0  0
  8  9  2  0  0  0  0
  8 10  1  0  0  0  0
 10 34  1  0  0  0  0
 10 33  1  0  0  0  0
 11 12  1  0  0  0  0
 11 10  1  0  0  0  0
 12 13  1  1  0  0  0
 12 28  1  0  0  0  0
 14 15  2  0  0  0  0
 14 13  1  0  0  0  0
 15 11  1  0  0  0  0
 16 14  1  0  0  0  0
 17 36  1  0  0  0  0
 17 16  2  0  0  0  0
 18 17  1  0  0  0  0
 19 18  2  0  0  0  0
 19 20  1  0  0  0  0
 20 21  2  0  0  0  0
 21 16  1  0  0  0  0
 21 39  1  0  0  0  0
 22 19  1  0  0  0  0
 23 40  1  0  0  0  0
 23 22  1  0  0  0  0
 24 13  1  0  0  0  0
 24 44  1  0  0  0  0
 24 25  1  0  0  0  0
 25 46  1  0  0  0  0
 25 26  1  0  0  0  0
 26 27  1  0  0  0  0
 26 48  1  0  0  0  0
 27 49  1  0  0  0  0
 28 27  1  0  0  0  0
 28 52  1  0  0  0  0
 31  6  1  0  0  0  0
 32  7  1  0  0  0  0
 35 15  1  0  0  0  0
 37 18  1  0  0  0  0
 38 20  1  0  0  0  0
 41 23  1  0  0  0  0
 42 23  1  0  0  0  0
 43 24  1  0  0  0  0
 45 25  1  0  0  0  0
 47 26  1  0  0  0  0
 50 27  1  0  0  0  0
 51 28  1  0  0  0  0
M  END
>  <Pose>
1

>  <Score>
-6.22

$$$$
