
 OpenBabel03232204043D

 48 51  0  0  1  0  0  0  0  0999 V2000
   15.3790  -53.6600   39.9750 Cl  0  0  0  0  0  0  0  0  0  0  0  0
   15.3840  -55.0030   38.8370 C   0  0  0  0  0  0  0  0  0  0  0  0
   16.3570  -55.0140   37.8660 C   0  0  0  0  0  0  0  0  0  0  0  0
   16.3320  -56.0840   36.9860 C   0  0  0  0  0  0  0  0  0  0  0  0
   15.3930  -57.0380   37.1090 N   0  0  0  0  0  0  0  0  0  0  0  0
   14.4530  -57.0400   38.0390 N   0  0  0  0  0  0  0  0  0  0  0  0
   14.4470  -56.0150   38.9100 C   0  0  0  0  0  0  0  0  0  0  0  0
   13.5780  -55.9500   39.8260 O   0  0  0  0  0  0  0  0  0  0  0  0
   13.4760  -58.0890   38.1190 C   0  0  0  0  0  0  0  0  0  0  0  0
   13.8120  -59.3790   37.7640 C   0  0  0  0  0  0  0  0  0  0  0  0
   12.8720  -60.4110   37.8370 C   0  0  0  0  0  0  0  0  0  0  0  0
   11.5940  -60.1540   38.2650 C   0  0  0  0  0  0  0  0  0  0  0  0
   11.2460  -58.8760   38.6190 C   0  0  0  0  0  0  0  0  0  0  0  0
   12.1820  -57.8730   38.5430 C   0  0  0  0  0  0  0  0  0  0  0  0
   17.3040  -53.9700   37.8080 N   0  0  0  0  0  0  0  0  0  0  0  0
   16.9270  -52.6110   37.4360 C   0  0  0  0  0  0  0  0  0  0  0  0
   17.6060  -52.3720   36.0730 C   0  0  0  0  0  0  0  0  0  0  0  0
   19.0030  -52.6670   36.1550 N   0  0  0  0  0  0  0  0  0  0  0  0
   19.5350  -53.0270   37.4870 C   0  0  0  0  0  0  0  0  0  0  0  0
   18.7150  -54.1400   38.1070 C   0  0  0  0  0  0  0  0  0  0  0  0
   19.8820  -52.6270   35.0420 C   0  0  0  0  0  0  0  0  0  0  0  0
   20.4260  -51.5450   34.6680 O   0  0  0  0  0  0  0  0  0  0  0  0
   20.2220  -53.8220   34.2500 C   0  0  1  0  0  0  0  0  0  0  0  0
   19.5860  -54.9270   34.7290 O   0  0  0  0  0  0  0  0  0  0  0  0
   19.3270  -55.7790   33.6640 C   0  0  0  0  0  0  0  0  0  0  0  0
   18.8510  -54.7910   32.6080 C   0  0  0  0  0  0  0  0  0  0  0  0
   19.8500  -53.6690   32.7920 C   0  0  0  0  0  0  0  0  0  0  0  0
   17.0950  -56.1010   36.2160 H   0  0  0  0  0  0  0  0  0  0  0  0
   14.7940  -59.6540   37.4220 H   0  0  0  0  0  0  0  0  0  0  0  0
   13.1150  -61.4330   37.5650 H   0  0  0  0  0  0  0  0  0  0  0  0
   10.8470  -60.9340   38.3310 H   0  0  0  0  0  0  0  0  0  0  0  0
   10.2600  -58.6280   38.9580 H   0  0  0  0  0  0  0  0  0  0  0  0
   11.9040  -56.8750   38.8210 H   0  0  0  0  0  0  0  0  0  0  0  0
   17.3610  -51.9050   38.1620 H   0  0  0  0  0  0  0  0  0  0  0  0
   15.8590  -52.4930   37.2700 H   0  0  0  0  0  0  0  0  0  0  0  0
   17.1200  -53.1200   35.4060 H   0  0  0  0  0  0  0  0  0  0  0  0
   17.3600  -51.3450   35.7380 H   0  0  0  0  0  0  0  0  0  0  0  0
   19.3920  -52.1250   38.1130 H   0  0  0  0  0  0  0  0  0  0  0  0
   20.5920  -53.2760   37.4110 H   0  0  0  0  0  0  0  0  0  0  0  0
   18.8790  -54.1210   39.2090 H   0  0  0  0  0  0  0  0  0  0  0  0
   19.1050  -55.1120   37.7470 H   0  0  0  0  0  0  0  0  0  0  0  0
   21.3340  -53.8980   34.2810 H   0  0  0  0  0  0  0  0  0  0  0  0
   20.2260  -56.3280   33.3300 H   0  0  0  0  0  0  0  0  0  0  0  0
   18.5230  -56.4890   33.8920 H   0  0  0  0  0  0  0  0  0  0  0  0
   17.8570  -54.4160   32.8830 H   0  0  0  0  0  0  0  0  0  0  0  0
   18.9060  -55.2330   31.5970 H   0  0  0  0  0  0  0  0  0  0  0  0
   19.4130  -52.6790   32.5590 H   0  0  0  0  0  0  0  0  0  0  0  0
   20.7080  -53.9100   32.1330 H   0  0  0  0  0  0  0  0  0  0  0  0
  2  7  1  0  0  0  0
  2  1  1  0  0  0  0
  3  2  2  0  0  0  0
  4  5  2  0  0  0  0
  4  3  1  0  0  0  0
  5  6  1  0  0  0  0
  6  9  1  0  0  0  0
  6  7  1  0  0  0  0
  7  8  2  0  0  0  0
  9 14  1  0  0  0  0
 10 11  1  0  0  0  0
 10  9  2  0  0  0  0
 11 12  2  0  0  0  0
 12 31  1  0  0  0  0
 12 13  1  0  0  0  0
 13 32  1  0  0  0  0
 14 13  2  0  0  0  0
 14 33  1  0  0  0  0
 15  3  1  0  0  0  0
 15 20  1  0  0  0  0
 16 15  1  0  0  0  0
 16 34  1  0  0  0  0
 17 18  1  0  0  0  0
 17 16  1  0  0  0  0
 18 19  1  0  0  0  0
 19 20  1  0  0  0  0
 19 38  1  0  0  0  0
 20 40  1  0  0  0  0
 21 18  1  0  0  0  0
 22 21  2  0  0  0  0
 23 42  1  1  0  0  0
 23 24  1  0  0  0  0
 23 21  1  0  0  0  0
 25 44  1  0  0  0  0
 25 24  1  0  0  0  0
 26 27  1  0  0  0  0
 26 45  1  0  0  0  0
 26 25  1  0  0  0  0
 27 23  1  0  0  0  0
 28  4  1  0  0  0  0
 29 10  1  0  0  0  0
 30 11  1  0  0  0  0
 35 16  1  0  0  0  0
 36 17  1  0  0  0  0
 37 17  1  0  0  0  0
 39 19  1  0  0  0  0
 41 20  1  0  0  0  0
 43 25  1  0  0  0  0
 46 26  1  0  0  0  0
 47 27  1  0  0  0  0
 48 27  1  0  0  0  0
M  END
>  <Pose>
1

>  <Score>
-6.70

$$$$
