
 OpenBabel03232204043D

 50 53  0  0  0  0  0  0  0  0999 V2000
   16.6910  -56.3380   36.2560 Cl  0  0  0  0  0  0  0  0  0  0  0  0
   15.5050  -56.3480   37.5410 C   0  0  0  0  0  0  0  0  0  0  0  0
   15.5960  -55.4050   38.5440 C   0  0  0  0  0  0  0  0  0  0  0  0
   14.6280  -55.4700   39.5300 C   0  0  0  0  0  0  0  0  0  0  0  0
   13.6540  -56.4000   39.5140 N   0  0  0  0  0  0  0  0  0  0  0  0
   13.5520  -57.3110   38.5600 N   0  0  0  0  0  0  0  0  0  0  0  0
   14.4770  -57.2770   37.5840 C   0  0  0  0  0  0  0  0  0  0  0  0
   14.3870  -58.1340   36.6790 O   0  0  0  0  0  0  0  0  0  0  0  0
   12.5130  -58.2950   38.5500 C   0  0  0  0  0  0  0  0  0  0  0  0
   11.8860  -58.6730   39.7190 C   0  0  0  0  0  0  0  0  0  0  0  0
   10.8830  -59.6210   39.7180 C   0  0  0  0  0  0  0  0  0  0  0  0
   10.4610  -60.2330   38.5560 C   0  0  0  0  0  0  0  0  0  0  0  0
   11.0830  -59.8580   37.3830 C   0  0  0  0  0  0  0  0  0  0  0  0
   12.0830  -58.9130   37.3900 C   0  0  0  0  0  0  0  0  0  0  0  0
   16.6240  -54.4140   38.5720 N   0  0  0  0  0  0  0  0  0  0  0  0
   16.2390  -53.0310   38.6370 C   0  0  0  0  0  0  0  0  0  0  0  0
   17.1450  -52.1630   37.7930 C   0  0  0  0  0  0  0  0  0  0  0  0
   18.5010  -52.6530   37.7790 N   0  0  0  0  0  0  0  0  0  0  0  0
   18.8860  -53.6550   38.7430 C   0  0  0  0  0  0  0  0  0  0  0  0
   18.0030  -54.8570   38.5320 C   0  0  0  0  0  0  0  0  0  0  0  0
   19.4310  -52.1540   36.8310 C   0  0  0  0  0  0  0  0  0  0  0  0
   20.3630  -51.3570   37.1730 O   0  0  0  0  0  0  0  0  0  0  0  0
   19.3770  -52.5240   35.3920 C   0  0  0  0  0  0  0  0  0  0  0  0
   19.5580  -53.9000   35.1980 O   0  0  0  0  0  0  0  0  0  0  0  0
   19.4700  -54.4490   33.9330 C   0  0  0  0  0  0  0  0  0  0  0  0
   20.2430  -54.2550   32.8590 N   0  0  0  0  0  0  0  0  0  0  0  0
   19.8170  -54.9640   31.8650 O   0  0  0  0  0  0  0  0  0  0  0  0
   18.7540  -55.6670   32.1970 C   0  0  0  0  0  0  0  0  0  0  0  0
   18.5070  -55.3580   33.5190 C   0  0  0  0  0  0  0  0  0  0  0  0
   18.0480  -56.5700   31.2700 C   0  0  0  0  0  0  0  0  0  0  0  0
   14.6910  -54.7240   40.3360 H   0  0  0  0  0  0  0  0  0  0  0  0
   12.1960  -58.2110   40.6470 H   0  0  0  0  0  0  0  0  0  0  0  0
   10.3910  -59.9200   40.6340 H   0  0  0  0  0  0  0  0  0  0  0  0
    9.6690  -60.9780   38.5670 H   0  0  0  0  0  0  0  0  0  0  0  0
   10.7330  -60.3540   36.4820 H   0  0  0  0  0  0  0  0  0  0  0  0
   12.5430  -58.6500   36.4530 H   0  0  0  0  0  0  0  0  0  0  0  0
   15.2010  -52.8710   38.2880 H   0  0  0  0  0  0  0  0  0  0  0  0
   16.2650  -52.7350   39.7160 H   0  0  0  0  0  0  0  0  0  0  0  0
   16.7200  -52.0070   36.8000 H   0  0  0  0  0  0  0  0  0  0  0  0
   17.1760  -51.1550   38.2850 H   0  0  0  0  0  0  0  0  0  0  0  0
   18.6200  -53.2490   39.7580 H   0  0  0  0  0  0  0  0  0  0  0  0
   19.9620  -53.8980   38.7060 H   0  0  0  0  0  0  0  0  0  0  0  0
   18.2300  -55.3660   37.5670 H   0  0  0  0  0  0  0  0  0  0  0  0
   18.1860  -55.5560   39.3990 H   0  0  0  0  0  0  0  0  0  0  0  0
   20.0840  -51.9290   34.7830 H   0  0  0  0  0  0  0  0  0  0  0  0
   18.3510  -52.2810   34.9880 H   0  0  0  0  0  0  0  0  0  0  0  0
   17.6960  -55.7710   34.0960 H   0  0  0  0  0  0  0  0  0  0  0  0
   17.0660  -56.8900   31.6550 H   0  0  0  0  0  0  0  0  0  0  0  0
   18.6530  -57.5010   31.0630 H   0  0  0  0  0  0  0  0  0  0  0  0
   17.9280  -56.0500   30.2740 H   0  0  0  0  0  0  0  0  0  0  0  0
  1  2  1  0  0  0  0
  2  7  1  0  0  0  0
  2  3  2  0  0  0  0
  3 15  1  0  0  0  0
  3  4  1  0  0  0  0
  4 31  1  0  0  0  0
  5  4  2  0  0  0  0
  6  5  1  0  0  0  0
  7  6  1  0  0  0  0
  8  7  2  0  0  0  0
  9  6  1  0  0  0  0
  9 10  1  0  0  0  0
 10 32  1  0  0  0  0
 11 10  2  0  0  0  0
 11 33  1  0  0  0  0
 12 34  1  0  0  0  0
 12 11  1  0  0  0  0
 13 14  1  0  0  0  0
 13 12  2  0  0  0  0
 14  9  2  0  0  0  0
 15 16  1  0  0  0  0
 16 38  1  0  0  0  0
 17 40  1  0  0  0  0
 17 16  1  0  0  0  0
 18 17  1  0  0  0  0
 18 19  1  0  0  0  0
 19 41  1  0  0  0  0
 20 15  1  0  0  0  0
 20 19  1  0  0  0  0
 20 44  1  0  0  0  0
 21 22  2  0  0  0  0
 21 18  1  0  0  0  0
 23 21  1  0  0  0  0
 24 23  1  0  0  0  0
 25 24  1  0  0  0  0
 26 25  2  0  0  0  0
 27 28  1  0  0  0  0
 27 26  1  0  0  0  0
 28 29  2  0  0  0  0
 29 25  1  0  0  0  0
 29 47  1  0  0  0  0
 30 48  1  0  0  0  0
 30 28  1  0  0  0  0
 35 13  1  0  0  0  0
 36 14  1  0  0  0  0
 37 16  1  0  0  0  0
 39 17  1  0  0  0  0
 42 19  1  0  0  0  0
 43 20  1  0  0  0  0
 45 23  1  0  0  0  0
 46 23  1  0  0  0  0
 49 30  1  0  0  0  0
 50 30  1  0  0  0  0
M  END
>  <Pose>
1

>  <Score>
-6.50

$$$$
