
 OpenBabel03232204043D

 53 56  0  0  0  0  0  0  0  0999 V2000
   19.8520  -54.7290   31.4850 Cl  0  0  0  0  0  0  0  0  0  0  0  0
   19.4100  -54.7090   33.1890 C   0  0  0  0  0  0  0  0  0  0  0  0
   18.1140  -55.1070   33.5130 C   0  0  0  0  0  0  0  0  0  0  0  0
   17.7530  -55.0960   34.8410 C   0  0  0  0  0  0  0  0  0  0  0  0
   18.6620  -54.6990   35.8130 C   0  0  0  0  0  0  0  0  0  0  0  0
   19.9520  -54.3040   35.4810 C   0  0  0  0  0  0  0  0  0  0  0  0
   20.3150  -54.3140   34.1460 C   0  0  0  0  0  0  0  0  0  0  0  0
   18.3740  -54.6610   37.1670 O   0  0  0  0  0  0  0  0  0  0  0  0
   17.1510  -54.4630   37.8200 C   0  0  0  0  0  0  0  0  0  0  0  0
   16.0880  -55.4600   37.5370 C   0  0  0  0  0  0  0  0  0  0  0  0
   16.1920  -56.1780   36.3080 N   0  0  0  0  0  0  0  0  0  0  0  0
   16.3440  -55.5500   34.9880 C   0  0  0  0  0  0  0  0  0  0  0  0
   16.1380  -57.5990   36.3360 C   0  0  0  0  0  0  0  0  0  0  0  0
   17.0510  -58.1880   36.9590 O   0  0  0  0  0  0  0  0  0  0  0  0
   15.0810  -58.3550   35.6830 C   0  0  0  0  0  0  0  0  0  0  0  0
   14.7410  -58.0220   34.2880 C   0  0  0  0  0  0  0  0  0  0  0  0
   15.1660  -58.9140   33.1970 C   0  0  0  0  0  0  0  0  0  0  0  0
   16.4160  -58.7260   32.5610 N   0  0  0  0  0  0  0  0  0  0  0  0
   17.5220  -59.6070   32.6370 C   0  0  0  0  0  0  0  0  0  0  0  0
   17.6130  -60.7070   33.2590 O   0  0  0  0  0  0  0  0  0  0  0  0
   18.5640  -59.0360   31.8650 N   0  0  0  0  0  0  0  0  0  0  0  0
   17.9970  -57.9980   31.0080 C   0  0  0  0  0  0  0  0  0  0  0  0
   16.7750  -57.6230   31.7510 C   0  0  0  0  0  0  0  0  0  0  0  0
   16.1720  -56.4940   31.6580 O   0  0  0  0  0  0  0  0  0  0  0  0
   17.4210  -54.4480   39.3370 C   0  0  0  0  0  0  0  0  0  0  0  0
   18.5520  -53.4800   39.5570 C   0  0  0  0  0  0  0  0  0  0  0  0
   18.9090  -52.8050   38.4030 O   0  0  0  0  0  0  0  0  0  0  0  0
   17.8490  -52.1230   37.8330 C   0  0  0  0  0  0  0  0  0  0  0  0
   16.6750  -53.0290   37.5350 C   0  0  0  0  0  0  0  0  0  0  0  0
   17.4450  -55.4060   32.7280 H   0  0  0  0  0  0  0  0  0  0  0  0
   20.6210  -54.0050   36.2500 H   0  0  0  0  0  0  0  0  0  0  0  0
   21.3230  -54.0090   33.8550 H   0  0  0  0  0  0  0  0  0  0  0  0
   15.1090  -54.8970   37.4920 H   0  0  0  0  0  0  0  0  0  0  0  0
   15.9500  -56.1500   38.4170 H   0  0  0  0  0  0  0  0  0  0  0  0
   16.0020  -56.1790   34.1700 H   0  0  0  0  0  0  0  0  0  0  0  0
   15.7190  -54.6180   34.9400 H   0  0  0  0  0  0  0  0  0  0  0  0
   14.1250  -58.3690   36.2650 H   0  0  0  0  0  0  0  0  0  0  0  0
   15.3950  -59.4430   35.6940 H   0  0  0  0  0  0  0  0  0  0  0  0
   15.2230  -57.0090   34.0740 H   0  0  0  0  0  0  0  0  0  0  0  0
   13.6360  -57.7520   34.2030 H   0  0  0  0  0  0  0  0  0  0  0  0
   15.0710  -59.9780   33.6110 H   0  0  0  0  0  0  0  0  0  0  0  0
   14.3920  -58.9530   32.3570 H   0  0  0  0  0  0  0  0  0  0  0  0
   19.5730  -59.2840   31.8760 H   0  0  0  0  0  0  0  0  0  0  0  0
   17.6860  -58.4190   30.0340 H   0  0  0  0  0  0  0  0  0  0  0  0
   18.6910  -57.1390   30.9050 H   0  0  0  0  0  0  0  0  0  0  0  0
   17.6210  -55.4540   39.7130 H   0  0  0  0  0  0  0  0  0  0  0  0
   16.4920  -54.0430   39.7920 H   0  0  0  0  0  0  0  0  0  0  0  0
   18.3320  -52.7430   40.3670 H   0  0  0  0  0  0  0  0  0  0  0  0
   19.4320  -54.0640   39.8960 H   0  0  0  0  0  0  0  0  0  0  0  0
   17.5390  -51.2260   38.4150 H   0  0  0  0  0  0  0  0  0  0  0  0
   18.2200  -51.7230   36.8460 H   0  0  0  0  0  0  0  0  0  0  0  0
   15.8850  -52.7900   38.2930 H   0  0  0  0  0  0  0  0  0  0  0  0
   16.2900  -52.9120   36.5230 H   0  0  0  0  0  0  0  0  0  0  0  0
  1  2  1  0  0  0  0
  2  3  2  0  0  0  0
  2  7  1  0  0  0  0
  3  4  1  0  0  0  0
  4 12  1  0  0  0  0
  4  5  2  0  0  0  0
  5  8  1  0  0  0  0
  6  5  1  0  0  0  0
  6 31  1  0  0  0  0
  7  6  2  0  0  0  0
  8  9  1  0  0  0  0
  9 25  1  0  0  0  0
 10  9  1  0  0  0  0
 10 34  1  0  0  0  0
 11 13  1  0  0  0  0
 11 10  1  0  0  0  0
 12 11  1  0  0  0  0
 13 14  2  0  0  0  0
 15 38  1  0  0  0  0
 15 37  1  0  0  0  0
 15 13  1  0  0  0  0
 16 15  1  0  0  0  0
 17 41  1  0  0  0  0
 17 16  1  0  0  0  0
 18 19  1  0  0  0  0
 18 17  1  0  0  0  0
 19 20  2  0  0  0  0
 21 43  1  0  0  0  0
 21 19  1  0  0  0  0
 22 23  1  0  0  0  0
 22 21  1  0  0  0  0
 23 18  1  0  0  0  0
 24 23  2  0  0  0  0
 25 26  1  0  0  0  0
 25 46  1  0  0  0  0
 25 47  1  0  0  0  0
 26 49  1  0  0  0  0
 26 48  1  0  0  0  0
 27 26  1  0  0  0  0
 28 27  1  0  0  0  0
 28 50  1  0  0  0  0
 29  9  1  0  0  0  0
 29 28  1  0  0  0  0
 29 52  1  0  0  0  0
 30  3  1  0  0  0  0
 32  7  1  0  0  0  0
 33 10  1  0  0  0  0
 35 12  1  0  0  0  0
 36 12  1  0  0  0  0
 39 16  1  0  0  0  0
 40 16  1  0  0  0  0
 42 17  1  0  0  0  0
 44 22  1  0  0  0  0
 45 22  1  0  0  0  0
 51 28  1  0  0  0  0
 53 29  1  0  0  0  0
M  END
>  <Pose>
1

>  <Score>
-6.53

$$$$
