
 OpenBabel03232204043D

 55 58  0  0  1  0  0  0  0  0999 V2000
   11.5090  -59.9710   38.8110 B   0  0  0  0  0  0  0  0  0  0  0  0
   12.4220  -59.9950   37.1310 C   0  0  0  0  0  0  0  0  0  0  0  0
   13.6270  -59.3590   37.0490 C   0  0  0  0  0  0  0  0  0  0  0  0
   14.3070  -59.3550   35.8670 C   0  0  0  0  0  0  0  0  0  0  0  0
   13.8510  -59.9640   34.7130 C   0  0  0  0  0  0  0  0  0  0  0  0
   12.6330  -60.5990   34.8240 C   0  0  0  0  0  0  0  0  0  0  0  0
   11.9140  -60.6200   36.0180 C   0  0  0  0  0  0  0  0  0  0  0  0
   14.6540  -59.8950   33.5040 C   0  0  2  0  0  0  0  0  0  0  0  0
   15.3040  -61.1150   33.1310 N   0  0  0  0  0  0  0  0  0  0  0  0
   16.7080  -61.0080   33.3090 C   0  0  0  0  0  0  0  0  0  0  0  0
   17.6050  -61.8860   33.2720 O   0  0  0  0  0  0  0  0  0  0  0  0
   17.0340  -59.5870   33.5710 C   0  0  0  0  0  0  0  0  0  0  0  0
   18.1730  -59.1000   33.7780 O   0  0  0  0  0  0  0  0  0  0  0  0
   15.7580  -58.8970   33.5350 C   0  0  0  0  0  0  0  0  0  0  0  0
   15.6540  -57.5620   33.5530 C   0  0  0  0  0  0  0  0  0  0  0  0
   14.3370  -57.0860   33.5450 O   0  0  0  0  0  0  0  0  0  0  0  0
   16.8040  -56.6650   33.5740 C   0  0  0  0  0  0  0  0  0  0  0  0
   17.4620  -56.1600   34.5590 O   0  0  0  0  0  0  0  0  0  0  0  0
   18.4470  -55.3840   34.2140 C   0  0  0  0  0  0  0  0  0  0  0  0
   18.4820  -55.3430   32.8280 C   0  0  0  0  0  0  0  0  0  0  0  0
   17.4230  -56.1690   32.4440 C   0  0  0  0  0  0  0  0  0  0  0  0
   19.4380  -54.5870   32.1920 C   0  0  0  0  0  0  0  0  0  0  0  0
   20.3630  -53.8680   32.9130 C   0  0  0  0  0  0  0  0  0  0  0  0
   20.3350  -53.9040   34.3020 C   0  0  0  0  0  0  0  0  0  0  0  0
   19.3870  -54.6560   34.9200 C   0  0  0  0  0  0  0  0  0  0  0  0
   19.3330  -54.7130   36.2970 O   0  0  0  0  0  0  0  0  0  0  0  0
   19.0080  -53.6150   37.1380 C   0  0  0  0  0  0  0  0  0  0  0  0
   14.6590  -62.3030   32.6430 C   0  0  0  0  0  0  0  0  0  0  0  0
   13.5860  -61.9750   31.6210 C   0  0  0  0  0  0  0  0  0  0  0  0
   14.0330  -62.0740   30.2740 N   0  0  0  0  0  4  0  0  0  0  0  0
   15.2440  -61.3790   29.9630 C   0  0  0  0  0  0  0  0  0  0  0  0
   14.1180  -63.4660   29.8540 C   0  0  0  0  0  0  0  0  0  0  0  0
   14.0610  -58.8500   37.9190 H   0  0  0  0  0  0  0  0  0  0  0  0
   15.2710  -58.8280   35.8490 H   0  0  0  0  0  0  0  0  0  0  0  0
   12.2340  -61.0820   33.9670 H   0  0  0  0  0  0  0  0  0  0  0  0
   10.9730  -61.1210   36.0740 H   0  0  0  0  0  0  0  0  0  0  0  0
   13.9550  -59.6740   32.6380 H   0  0  0  0  0  0  0  0  0  0  0  0
   17.1710  -56.3560   31.4100 H   0  0  0  0  0  0  0  0  0  0  0  0
   19.4690  -54.5490   31.1170 H   0  0  0  0  0  0  0  0  0  0  0  0
   21.1250  -53.2630   32.4560 H   0  0  0  0  0  0  0  0  0  0  0  0
   21.0890  -53.3200   34.8500 H   0  0  0  0  0  0  0  0  0  0  0  0
   18.5530  -54.0340   38.0760 H   0  0  0  0  0  0  0  0  0  0  0  0
   19.9480  -53.0900   37.3550 H   0  0  0  0  0  0  0  0  0  0  0  0
   18.2730  -52.9310   36.7080 H   0  0  0  0  0  0  0  0  0  0  0  0
   14.2420  -62.9220   33.4620 H   0  0  0  0  0  0  0  0  0  0  0  0
   15.4030  -62.9470   32.1260 H   0  0  0  0  0  0  0  0  0  0  0  0
   13.1870  -60.9500   31.8420 H   0  0  0  0  0  0  0  0  0  0  0  0
   12.6950  -62.6420   31.7410 H   0  0  0  0  0  0  0  0  0  0  0  0
   13.2790  -61.6400   29.6610 H   0  0  0  0  0  0  0  0  0  0  0  0
   15.0620  -60.2830   30.0070 H   0  0  0  0  0  0  0  0  0  0  0  0
   16.1180  -61.6960   30.5460 H   0  0  0  0  0  0  0  0  0  0  0  0
   15.4770  -61.6110   28.8920 H   0  0  0  0  0  0  0  0  0  0  0  0
   15.0760  -63.8910   30.1810 H   0  0  0  0  0  0  0  0  0  0  0  0
   13.3220  -64.0620   30.3410 H   0  0  0  0  0  0  0  0  0  0  0  0
   14.0130  -63.4990   28.7530 H   0  0  0  0  0  0  0  0  0  0  0  0
  2  1  1  0  0  0  0
  3  2  1  0  0  0  0
  3 33  1  0  0  0  0
  4  3  2  0  0  0  0
  5  6  2  0  0  0  0
  5  4  1  0  0  0  0
  6  7  1  0  0  0  0
  7 36  1  0  0  0  0
  7  2  2  0  0  0  0
  8 37  1  6  0  0  0
  8 14  1  0  0  0  0
  8  5  1  0  0  0  0
  9 10  1  0  0  0  0
  9  8  1  0  0  0  0
 10 12  1  0  0  0  0
 11 10  2  0  0  0  0
 12 13  2  0  0  0  0
 14 15  2  0  0  0  0
 14 12  1  0  0  0  0
 15 17  1  0  0  0  0
 16 15  1  0  0  0  0
 17 18  1  0  0  0  0
 19 18  1  0  0  0  0
 19 25  1  0  0  0  0
 20 19  2  0  0  0  0
 21 20  1  0  0  0  0
 21 17  2  0  0  0  0
 22 20  1  0  0  0  0
 22 23  2  0  0  0  0
 23 24  1  0  0  0  0
 24 41  1  0  0  0  0
 24 25  2  0  0  0  0
 25 26  1  0  0  0  0
 26 27  1  0  0  0  0
 27 43  1  0  0  0  0
 27 42  1  0  0  0  0
 28  9  1  0  0  0  0
 28 45  1  0  0  0  0
 29 48  1  0  0  0  0
 29 47  1  0  0  0  0
 29 28  1  0  0  0  0
 30 29  1  0  0  0  0
 31 50  1  0  0  0  0
 31 30  1  0  0  0  0
 31 51  1  0  0  0  0
 32 53  1  0  0  0  0
 32 30  1  0  0  0  0
 32 54  1  0  0  0  0
 34  4  1  0  0  0  0
 35  6  1  0  0  0  0
 38 21  1  0  0  0  0
 39 22  1  0  0  0  0
 40 23  1  0  0  0  0
 44 27  1  0  0  0  0
 46 28  1  0  0  0  0
 49 30  1  0  0  0  0
 52 31  1  0  0  0  0
 55 32  1  0  0  0  0
M  END
>  <Pose>
1

>  <Score>
-7.30

$$$$
