
 OpenBabel03232204043D

 53 56  0  0  1  0  0  0  0  0999 V2000
   19.6930  -53.9950   36.0910 S   0  0  0  0  0  0  0  0  0  0  0  0
   20.3470  -52.7460   35.5300 O   0  0  0  0  0  0  0  0  0  0  0  0
   20.8370  -54.9030   36.4940 O   0  0  0  0  0  0  0  0  0  0  0  0
   18.6980  -53.5620   37.3440 N   0  0  0  0  0  0  0  0  0  0  0  0
   18.8100  -54.1250   38.6110 C   0  0  0  0  0  0  0  0  0  0  0  0
   17.6180  -53.6710   39.4650 C   0  0  0  0  0  0  0  0  0  0  0  0
   16.4020  -53.6860   38.6510 N   0  0  0  0  0  0  0  0  0  0  0  0
   16.4250  -52.8700   37.4530 C   0  0  0  0  0  0  0  0  0  0  0  0
   17.8830  -52.4220   37.2660 C   0  0  0  0  0  0  0  0  0  0  0  0
   15.2880  -54.4830   39.0370 C   0  0  0  0  0  0  0  0  0  0  0  0
   14.9470  -54.4550   40.2420 O   0  0  0  0  0  0  0  0  0  0  0  0
   14.5790  -55.3020   38.0540 C   0  0  0  0  0  0  0  0  0  0  0  0
   14.7610  -56.8010   38.2460 C   0  0  2  0  0  0  0  0  0  0  0  0
   15.9190  -57.3300   37.5750 N   0  0  0  0  0  0  0  0  0  0  0  0
   16.0670  -58.1890   36.4540 C   0  0  0  0  0  0  0  0  0  0  0  0
   17.1380  -58.8300   36.2860 O   0  0  0  0  0  0  0  0  0  0  0  0
   15.0690  -58.4490   35.3940 C   0  0  0  0  0  0  0  0  0  0  0  0
   13.6800  -58.3190   35.5000 C   0  0  0  0  0  0  0  0  0  0  0  0
   12.8940  -58.5920   34.4160 C   0  0  0  0  0  0  0  0  0  0  0  0
   13.4190  -58.9980   33.1880 C   0  0  0  0  0  0  0  0  0  0  0  0
   14.8070  -59.1170   33.1130 C   0  0  0  0  0  0  0  0  0  0  0  0
   15.6110  -58.8460   34.1980 C   0  0  0  0  0  0  0  0  0  0  0  0
   12.9680  -57.9180   36.6600 N   0  0  0  0  0  0  0  0  0  0  0  0
   13.4950  -57.4930   37.9210 C   0  0  0  0  0  0  0  0  0  0  0  0
   12.7140  -57.7770   38.8960 O   0  0  0  0  0  0  0  0  0  0  0  0
   18.8530  -54.7630   34.7400 C   0  0  0  0  0  0  0  0  0  0  0  0
   17.8350  -55.6670   34.9450 C   0  0  0  0  0  0  0  0  0  0  0  0
   17.2130  -56.2440   33.8590 C   0  0  0  0  0  0  0  0  0  0  0  0
   17.5570  -55.9620   32.5500 C   0  0  0  0  0  0  0  0  0  0  0  0
   18.5840  -55.0490   32.3470 C   0  0  0  0  0  0  0  0  0  0  0  0
   19.2030  -54.4760   33.4340 C   0  0  0  0  0  0  0  0  0  0  0  0
   16.7780  -56.6810   31.1800 Cl  0  0  0  0  0  0  0  0  0  0  0  0
   19.7380  -53.8240   39.1830 H   0  0  0  0  0  0  0  0  0  0  0  0
   18.7580  -55.2390   38.6500 H   0  0  0  0  0  0  0  0  0  0  0  0
   17.7610  -52.6380   39.8210 H   0  0  0  0  0  0  0  0  0  0  0  0
   17.5000  -54.3100   40.3600 H   0  0  0  0  0  0  0  0  0  0  0  0
   16.2010  -53.4750   36.5460 H   0  0  0  0  0  0  0  0  0  0  0  0
   15.7980  -51.9860   37.5500 H   0  0  0  0  0  0  0  0  0  0  0  0
   18.0870  -51.6820   38.0950 H   0  0  0  0  0  0  0  0  0  0  0  0
   17.9820  -51.8480   36.3130 H   0  0  0  0  0  0  0  0  0  0  0  0
   13.4570  -55.1440   38.1520 H   0  0  0  0  0  0  0  0  0  0  0  0
   14.8150  -55.0140   37.0120 H   0  0  0  0  0  0  0  0  0  0  0  0
   14.9330  -56.9400   39.3580 H   0  0  0  0  0  0  0  0  0  0  0  0
   16.8750  -57.0490   37.9600 H   0  0  0  0  0  0  0  0  0  0  0  0
   11.8290  -58.4950   34.5020 H   0  0  0  0  0  0  0  0  0  0  0  0
   12.7930  -59.2080   32.3450 H   0  0  0  0  0  0  0  0  0  0  0  0
   15.2070  -59.4290   32.1590 H   0  0  0  0  0  0  0  0  0  0  0  0
   16.6820  -58.9370   34.1430 H   0  0  0  0  0  0  0  0  0  0  0  0
   11.9520  -57.9360   36.5710 H   0  0  0  0  0  0  0  0  0  0  0  0
   17.5060  -55.9390   35.9270 H   0  0  0  0  0  0  0  0  0  0  0  0
   16.3950  -56.9670   34.0160 H   0  0  0  0  0  0  0  0  0  0  0  0
   18.8630  -54.8240   31.3320 H   0  0  0  0  0  0  0  0  0  0  0  0
   19.9960  -53.7750   33.2380 H   0  0  0  0  0  0  0  0  0  0  0  0
  1  3  2  0  0  0  0
  1  4  1  0  0  0  0
  2  1  2  0  0  0  0
  4  5  1  0  0  0  0
  5 34  1  0  0  0  0
  5 33  1  0  0  0  0
  5  6  1  0  0  0  0
  6 35  1  0  0  0  0
  6 36  1  0  0  0  0
  7 10  1  0  0  0  0
  7  6  1  0  0  0  0
  8 38  1  0  0  0  0
  8  7  1  0  0  0  0
  9  4  1  0  0  0  0
  9  8  1  0  0  0  0
  9 39  1  0  0  0  0
 10 11  2  0  0  0  0
 12 41  1  0  0  0  0
 12 13  1  0  0  0  0
 12 10  1  0  0  0  0
 13 43  1  1  0  0  0
 14 44  1  0  0  0  0
 14 13  1  0  0  0  0
 15 14  1  0  0  0  0
 16 15  2  0  0  0  0
 17 18  1  0  0  0  0
 17 15  1  0  0  0  0
 18 23  1  0  0  0  0
 19 45  1  0  0  0  0
 19 18  2  0  0  0  0
 20 19  1  0  0  0  0
 21 20  2  0  0  0  0
 21 22  1  0  0  0  0
 22 17  2  0  0  0  0
 23 24  1  0  0  0  0
 24 13  1  0  0  0  0
 24 25  2  0  0  0  0
 26 27  1  0  0  0  0
 26  1  1  0  0  0  0
 27 50  1  0  0  0  0
 28 51  1  0  0  0  0
 28 27  2  0  0  0  0
 29 28  1  0  0  0  0
 30 29  2  0  0  0  0
 30 31  1  0  0  0  0
 31 26  2  0  0  0  0
 32 29  1  0  0  0  0
 37  8  1  0  0  0  0
 40  9  1  0  0  0  0
 42 12  1  0  0  0  0
 46 20  1  0  0  0  0
 47 21  1  0  0  0  0
 48 22  1  0  0  0  0
 49 23  1  0  0  0  0
 52 30  1  0  0  0  0
 53 31  1  0  0  0  0
M  END
>  <Pose>
1

>  <Score>
-8.18

$$$$
