
 OpenBabel03232204043D

 49 52  0  0  1  0  0  0  0  0999 V2000
   13.2700  -57.8290   38.2700 B   0  0  0  0  0  0  0  0  0  0  0  0
   14.5350  -56.4080   38.2440 C   0  0  0  0  0  0  0  0  0  0  0  0
   14.3750  -55.3060   39.0540 C   0  0  0  0  0  0  0  0  0  0  0  0
   15.2710  -54.2790   39.0480 C   0  0  0  0  0  0  0  0  0  0  0  0
   15.3860  -53.0930   39.7110 N   0  0  0  0  0  0  0  0  0  0  0  0
   16.4820  -52.4670   39.3090 N   0  0  0  0  0  0  0  0  0  0  0  0
   17.1240  -53.1930   38.3850 C   0  0  0  0  0  0  0  0  0  0  0  0
   16.3610  -54.3420   38.2150 C   0  0  0  0  0  0  0  0  0  0  0  0
   16.5470  -55.4420   37.3880 C   0  0  0  0  0  0  0  0  0  0  0  0
   15.6410  -56.4790   37.3950 C   0  0  0  0  0  0  0  0  0  0  0  0
   18.3270  -52.9290   37.6820 N   0  0  0  0  0  0  0  0  0  0  0  0
   19.3880  -53.8810   37.3560 C   0  0  0  0  0  0  0  0  0  0  0  0
   19.7970  -53.4690   35.9600 C   0  0  2  0  0  0  0  0  0  0  0  0
   19.8160  -51.9480   36.0660 C   0  0  0  0  0  0  0  0  0  0  0  0
   18.7860  -51.6900   37.1330 C   0  0  0  0  0  0  0  0  0  0  0  0
   18.3770  -50.5480   37.5000 O   0  0  0  0  0  0  0  0  0  0  0  0
   18.8070  -53.9010   34.9440 C   0  0  0  0  0  0  0  0  0  0  0  0
   17.9480  -53.0680   34.5610 O   0  0  0  0  0  0  0  0  0  0  0  0
   18.7970  -55.2040   34.3970 N   0  0  0  0  0  0  0  0  0  0  0  0
   17.6200  -56.0350   34.3790 C   0  0  0  0  0  0  0  0  0  0  0  0
   16.9960  -55.9980   33.0000 C   0  0  0  0  0  0  0  0  0  0  0  0
   16.3230  -57.2250   32.6540 N   0  0  0  0  0  0  0  0  0  0  0  0
   17.2970  -58.0850   31.9920 C   0  0  0  0  0  0  0  0  0  0  0  0
   18.1200  -58.8480   33.0270 C   0  0  0  0  0  0  0  0  0  0  0  0
   17.3740  -59.7730   33.7190 O   0  0  0  0  0  0  0  0  0  0  0  0
   16.0450  -59.4250   33.6650 C   0  0  0  0  0  0  0  0  0  0  0  0
   15.8370  -57.9320   33.8180 C   0  0  0  0  0  0  0  0  0  0  0  0
   13.5220  -55.2400   39.7160 H   0  0  0  0  0  0  0  0  0  0  0  0
   14.6590  -52.8140   40.4160 H   0  0  0  0  0  0  0  0  0  0  0  0
   17.4260  -55.4780   36.7250 H   0  0  0  0  0  0  0  0  0  0  0  0
   15.8030  -57.3370   36.7370 H   0  0  0  0  0  0  0  0  0  0  0  0
   19.0700  -54.9270   37.4380 H   0  0  0  0  0  0  0  0  0  0  0  0
   20.2580  -53.7210   38.0250 H   0  0  0  0  0  0  0  0  0  0  0  0
   20.8220  -53.8060   35.7350 H   0  0  0  0  0  0  0  0  0  0  0  0
   19.3690  -51.5440   35.1340 H   0  0  0  0  0  0  0  0  0  0  0  0
   20.7940  -51.5480   36.3180 H   0  0  0  0  0  0  0  0  0  0  0  0
   19.6990  -55.5610   33.9930 H   0  0  0  0  0  0  0  0  0  0  0  0
   16.8750  -55.5310   35.0560 H   0  0  0  0  0  0  0  0  0  0  0  0
   17.7700  -57.0460   34.7520 H   0  0  0  0  0  0  0  0  0  0  0  0
   17.8130  -55.8640   32.2450 H   0  0  0  0  0  0  0  0  0  0  0  0
   16.3170  -55.1310   32.8800 H   0  0  0  0  0  0  0  0  0  0  0  0
   16.8570  -58.8030   31.3040 H   0  0  0  0  0  0  0  0  0  0  0  0
   18.0010  -57.4130   31.4510 H   0  0  0  0  0  0  0  0  0  0  0  0
   18.9190  -59.3760   32.4300 H   0  0  0  0  0  0  0  0  0  0  0  0
   18.6030  -58.1640   33.7520 H   0  0  0  0  0  0  0  0  0  0  0  0
   15.5350  -59.7640   32.7430 H   0  0  0  0  0  0  0  0  0  0  0  0
   15.5440  -59.9360   34.5220 H   0  0  0  0  0  0  0  0  0  0  0  0
   14.7340  -57.7950   33.9550 H   0  0  0  0  0  0  0  0  0  0  0  0
   16.3190  -57.5810   34.7580 H   0  0  0  0  0  0  0  0  0  0  0  0
  2  1  1  0  0  0  0
  2  3  1  0  0  0  0
  3 28  1  0  0  0  0
  4  3  2  0  0  0  0
  4  5  1  0  0  0  0
  5 29  1  0  0  0  0
  6  5  1  0  0  0  0
  7  6  2  0  0  0  0
  8  7  1  0  0  0  0
  8  4  1  0  0  0  0
  9 10  1  0  0  0  0
  9  8  2  0  0  0  0
 10  2  2  0  0  0  0
 11  7  1  0  0  0  0
 12 32  1  0  0  0  0
 12 11  1  0  0  0  0
 12 33  1  0  0  0  0
 13 34  1  6  0  0  0
 13 14  1  0  0  0  0
 13 12  1  0  0  0  0
 14 36  1  0  0  0  0
 14 15  1  0  0  0  0
 15 16  2  0  0  0  0
 15 11  1  0  0  0  0
 17 13  1  0  0  0  0
 18 17  2  0  0  0  0
 19 17  1  0  0  0  0
 20 19  1  0  0  0  0
 20 39  1  0  0  0  0
 20 38  1  0  0  0  0
 21 20  1  0  0  0  0
 22 21  1  0  0  0  0
 22 27  1  0  0  0  0
 23 22  1  0  0  0  0
 23 24  1  0  0  0  0
 24 25  1  0  0  0  0
 24 45  1  0  0  0  0
 26 25  1  0  0  0  0
 26 27  1  0  0  0  0
 26 47  1  0  0  0  0
 27 48  1  0  0  0  0
 27 49  1  0  0  0  0
 30  9  1  0  0  0  0
 31 10  1  0  0  0  0
 35 14  1  0  0  0  0
 37 19  1  0  0  0  0
 40 21  1  0  0  0  0
 41 21  1  0  0  0  0
 42 23  1  0  0  0  0
 43 23  1  0  0  0  0
 44 24  1  0  0  0  0
 46 26  1  0  0  0  0
M  END
>  <Pose>
1

>  <Score>
-7.14

$$$$
