
 OpenBabel03232204043D

 40 43  0  0  1  0  0  0  0  0999 V2000
   16.0480  -56.5370   33.2360 Cl  0  0  0  0  0  0  0  0  0  0  0  0
   17.3090  -55.4960   33.8630 C   0  0  0  0  0  0  0  0  0  0  0  0
   17.3360  -54.8180   35.0440 N   0  0  0  0  0  0  0  0  0  0  0  0
   18.4630  -54.1200   35.1900 C   0  0  0  0  0  0  0  0  0  0  0  0
   19.1790  -54.3890   34.0160 C   0  0  0  0  0  0  0  0  0  0  0  0
   18.4740  -55.2360   33.1940 C   0  0  0  0  0  0  0  0  0  0  0  0
   18.9430  -55.8600   31.6280 Cl  0  0  0  0  0  0  0  0  0  0  0  0
   18.9110  -53.2560   36.2510 C   0  0  0  0  0  0  0  0  0  0  0  0
   20.0550  -52.6630   35.9640 O   0  0  0  0  0  0  0  0  0  0  0  0
   18.3450  -52.9660   37.4820 N   0  0  0  0  0  0  0  0  0  0  0  0
   18.8910  -53.6570   38.6750 C   0  0  0  0  0  0  0  0  0  0  0  0
   17.7500  -54.4540   39.2510 C   0  0  0  0  0  0  0  0  0  0  0  0
   16.4860  -54.2250   38.6260 N   0  0  0  0  0  0  0  0  0  0  0  0
   16.0780  -52.9540   38.0450 C   0  0  0  0  0  0  0  0  0  0  0  0
   17.2940  -52.0730   37.8030 C   0  0  0  0  0  0  0  0  0  0  0  0
   15.5370  -55.2800   38.5440 C   0  0  2  0  0  0  0  0  0  0  0  0
   14.4820  -55.3340   39.3780 N   0  0  0  0  0  0  0  0  0  0  0  0
   13.5700  -56.3330   39.3150 C   0  0  0  0  0  0  0  0  0  0  0  0
   13.6960  -57.3120   38.4030 N   0  0  0  0  0  0  0  0  0  0  0  0
   14.7200  -57.3300   37.5350 C   0  0  0  0  0  0  0  0  0  0  0  0
   15.0680  -58.1760   36.5470 N   0  0  0  0  0  0  0  0  0  0  0  0
   16.1760  -57.7080   36.0090 N   0  0  0  0  0  0  0  0  0  0  0  0
   16.5630  -56.5670   36.6270 C   0  0  0  0  0  0  0  0  0  0  0  0
   15.6530  -56.2910   37.6130 C   0  0  0  0  0  0  0  0  0  0  0  0
   14.3740  -59.3920   36.1220 C   0  0  0  0  0  0  0  0  0  0  0  0
   16.5260  -54.9120   35.6890 H   0  0  0  0  0  0  0  0  0  0  0  0
   20.1670  -54.0130   33.7240 H   0  0  0  0  0  0  0  0  0  0  0  0
   19.7520  -54.2750   38.3830 H   0  0  0  0  0  0  0  0  0  0  0  0
   19.2120  -52.8620   39.3930 H   0  0  0  0  0  0  0  0  0  0  0  0
   18.0610  -55.5170   39.2400 H   0  0  0  0  0  0  0  0  0  0  0  0
   17.6640  -54.1940   40.3470 H   0  0  0  0  0  0  0  0  0  0  0  0
   15.3620  -52.4550   38.7030 H   0  0  0  0  0  0  0  0  0  0  0  0
   15.6080  -53.1740   37.0730 H   0  0  0  0  0  0  0  0  0  0  0  0
   17.4950  -51.6390   38.8590 H   0  0  0  0  0  0  0  0  0  0  0  0
   17.0780  -51.2370   37.1700 H   0  0  0  0  0  0  0  0  0  0  0  0
   12.7330  -56.3530   39.9970 H   0  0  0  0  0  0  0  0  0  0  0  0
   17.4220  -55.9880   36.3880 H   0  0  0  0  0  0  0  0  0  0  0  0
   15.0180  -60.2590   36.4240 H   0  0  0  0  0  0  0  0  0  0  0  0
   14.1880  -59.4030   35.0390 H   0  0  0  0  0  0  0  0  0  0  0  0
   13.4150  -59.4940   36.6400 H   0  0  0  0  0  0  0  0  0  0  0  0
  1  2  1  0  0  0  0
  2  3  1  0  0  0  0
  3  4  1  0  0  0  0
  3 26  1  0  0  0  0
  4  8  1  0  0  0  0
  5  4  2  0  0  0  0
  6  2  2  0  0  0  0
  6  5  1  0  0  0  0
  7  6  1  0  0  0  0
  8 10  1  0  0  0  0
  9  8  2  0  0  0  0
 10 15  1  0  0  0  0
 10 11  1  0  0  0  0
 11 12  1  0  0  0  0
 11 29  1  0  0  0  0
 12 31  1  0  0  0  0
 13 12  1  0  0  0  0
 14 13  1  0  0  0  0
 14 32  1  0  0  0  0
 15 14  1  0  0  0  0
 15 34  1  0  0  0  0
 16 13  1  1  0  0  0
 16 17  1  0  0  0  0
 18 17  2  0  0  0  0
 18 36  1  0  0  0  0
 19 18  1  0  0  0  0
 20 24  2  0  0  0  0
 20 19  1  0  0  0  0
 21 20  1  0  0  0  0
 22 21  1  0  0  0  0
 22 23  2  0  0  0  0
 23 24  1  0  0  0  0
 24 16  1  0  0  0  0
 25 38  1  0  0  0  0
 25 21  1  0  0  0  0
 25 40  1  0  0  0  0
 27  5  1  0  0  0  0
 28 11  1  0  0  0  0
 30 12  1  0  0  0  0
 33 14  1  0  0  0  0
 35 15  1  0  0  0  0
 37 23  1  0  0  0  0
 39 25  1  0  0  0  0
M  END
>  <Pose>
1

>  <Score>
-6.88

$$$$
