
 OpenBabel03232204043D

 52 55  0  0  1  0  0  0  0  0999 V2000
   16.9720  -61.7420   32.8960 Cl  0  0  0  0  0  0  0  0  0  0  0  0
   16.0920  -60.3090   33.4190 C   0  0  0  0  0  0  0  0  0  0  0  0
   16.8510  -59.1800   33.7590 C   0  0  0  0  0  0  0  0  0  0  0  0
   16.1630  -58.0690   34.1650 C   0  0  0  0  0  0  0  0  0  0  0  0
   14.7540  -58.0610   34.2380 C   0  0  0  0  0  0  0  0  0  0  0  0
   14.0220  -59.1720   33.9030 C   0  0  0  0  0  0  0  0  0  0  0  0
   14.7200  -60.2880   33.4950 C   0  0  0  0  0  0  0  0  0  0  0  0
   17.1430  -57.0140   34.4560 C   0  0  2  0  0  0  0  0  0  0  0  0
   17.0080  -56.4170   35.7360 N   0  0  0  0  0  0  0  0  0  0  0  0
   17.4510  -55.0920   35.7370 C   0  0  1  0  0  0  0  0  0  0  0  0
   17.4870  -54.6900   34.2790 C   0  0  2  0  0  0  0  0  0  0  0  0
   16.9840  -55.8480   33.4810 C   0  0  1  0  0  0  0  0  0  0  0  0
   17.8620  -55.9890   32.2900 C   0  0  0  0  0  0  0  0  0  0  0  0
   17.6550  -56.8020   31.3590 O   0  0  0  0  0  0  0  0  0  0  0  0
   18.9340  -55.0540   32.4230 N   0  0  0  0  0  0  0  0  0  0  0  0
   18.8620  -54.5310   33.7570 C   0  0  0  0  0  0  0  0  0  0  0  0
   19.8190  -54.0250   34.3640 O   0  0  0  0  0  0  0  0  0  0  0  0
   19.9050  -54.6800   31.4410 C   0  0  0  0  0  0  0  0  0  0  0  0
   20.3450  -55.7560   30.5140 C   0  0  0  0  0  0  0  0  0  0  0  0
   21.5590  -55.4790   29.7000 C   0  0  0  0  0  0  0  0  0  0  0  0
   22.4510  -56.7080   29.5750 C   0  0  0  0  0  0  0  0  0  0  0  0
   16.7720  -54.1020   36.6010 C   0  0  0  0  0  0  0  0  0  0  0  0
   16.9350  -54.2180   38.0640 C   0  0  0  0  0  0  0  0  0  0  0  0
   15.8430  -53.7240   38.9090 C   0  0  0  0  0  0  0  0  0  0  0  0
   14.8920  -54.4670   39.2140 O   0  0  0  0  0  0  0  0  0  0  0  0
   15.8040  -52.3960   39.4240 N   0  0  0  0  0  0  0  0  0  0  0  0
   18.4540  -57.6250   34.2220 C   0  0  0  0  0  0  0  0  0  0  0  0
   19.6090  -57.1170   34.3680 O   0  0  0  0  0  0  0  0  0  0  0  0
   18.2550  -58.9530   33.7780 N   0  0  0  0  0  0  0  0  0  0  0  0
   14.2430  -57.1600   34.5660 H   0  0  0  0  0  0  0  0  0  0  0  0
   12.9420  -59.2010   33.9470 H   0  0  0  0  0  0  0  0  0  0  0  0
   14.1640  -61.1750   33.2250 H   0  0  0  0  0  0  0  0  0  0  0  0
   17.2580  -57.0110   36.5440 H   0  0  0  0  0  0  0  0  0  0  0  0
   18.5370  -55.1040   36.0640 H   0  0  0  0  0  0  0  0  0  0  0  0
   16.9500  -53.7480   34.0830 H   0  0  0  0  0  0  0  0  0  0  0  0
   15.9560  -55.7520   33.1320 H   0  0  0  0  0  0  0  0  0  0  0  0
   20.8340  -54.3370   31.9870 H   0  0  0  0  0  0  0  0  0  0  0  0
   19.5890  -53.7760   30.8650 H   0  0  0  0  0  0  0  0  0  0  0  0
   20.5940  -56.6580   31.1500 H   0  0  0  0  0  0  0  0  0  0  0  0
   19.4860  -56.1150   29.8940 H   0  0  0  0  0  0  0  0  0  0  0  0
   22.2090  -54.6720   30.0440 H   0  0  0  0  0  0  0  0  0  0  0  0
   21.1970  -55.1980   28.6700 H   0  0  0  0  0  0  0  0  0  0  0  0
   22.4810  -57.3000   30.5120 H   0  0  0  0  0  0  0  0  0  0  0  0
   23.4940  -56.4220   29.3070 H   0  0  0  0  0  0  0  0  0  0  0  0
   22.0770  -57.3950   28.7900 H   0  0  0  0  0  0  0  0  0  0  0  0
   17.0290  -53.0830   36.2050 H   0  0  0  0  0  0  0  0  0  0  0  0
   15.6630  -54.1730   36.3880 H   0  0  0  0  0  0  0  0  0  0  0  0
   17.0820  -55.3020   38.3730 H   0  0  0  0  0  0  0  0  0  0  0  0
   17.8670  -53.7300   38.4400 H   0  0  0  0  0  0  0  0  0  0  0  0
   15.5630  -52.1700   40.4060 H   0  0  0  0  0  0  0  0  0  0  0  0
   16.0280  -51.6120   38.7880 H   0  0  0  0  0  0  0  0  0  0  0  0
   18.9690  -59.6680   33.5030 H   0  0  0  0  0  0  0  0  0  0  0  0
  1  2  1  0  0  0  0
  2  7  2  0  0  0  0
  2  3  1  0  0  0  0
  3 29  1  0  0  0  0
  3  4  2  0  0  0  0
  4  5  1  0  0  0  0
  5 30  1  0  0  0  0
  6 31  1  0  0  0  0
  6  5  2  0  0  0  0
  7  6  1  0  0  0  0
  8  4  1  6  0  0  0
  8  9  1  0  0  0  0
  9 10  1  0  0  0  0
  9 33  1  0  0  0  0
 10 34  1  1  0  0  0
 10 22  1  0  0  0  0
 11 35  1  6  0  0  0
 11 10  1  0  0  0  0
 12 36  1  6  0  0  0
 12 11  1  0  0  0  0
 12  8  1  0  0  0  0
 13 15  1  0  0  0  0
 13 12  1  0  0  0  0
 14 13  2  0  0  0  0
 15 16  1  0  0  0  0
 16 11  1  0  0  0  0
 16 17  2  0  0  0  0
 18 37  1  0  0  0  0
 18 15  1  0  0  0  0
 19 39  1  0  0  0  0
 19 18  1  0  0  0  0
 20 41  1  0  0  0  0
 20 19  1  0  0  0  0
 21 20  1  0  0  0  0
 21 43  1  0  0  0  0
 22 23  1  0  0  0  0
 23 48  1  0  0  0  0
 23 49  1  0  0  0  0
 23 24  1  0  0  0  0
 24 25  2  0  0  0  0
 24 26  1  0  0  0  0
 26 50  1  0  0  0  0
 27 28  2  0  0  0  0
 27  8  1  0  0  0  0
 29 27  1  0  0  0  0
 32  7  1  0  0  0  0
 38 18  1  0  0  0  0
 40 19  1  0  0  0  0
 42 20  1  0  0  0  0
 44 21  1  0  0  0  0
 45 21  1  0  0  0  0
 46 22  1  0  0  0  0
 47 22  1  0  0  0  0
 51 26  1  0  0  0  0
 52 29  1  0  0  0  0
M  END
>  <Pose>
1

>  <Score>
-7.02

$$$$
