
 OpenBabel03232204043D

 62 65  0  0  1  0  0  0  0  0999 V2000
   14.7950  -55.2680   39.4830 S   0  0  0  0  0  0  0  0  0  0  0  0
   13.3680  -55.4780   39.0250 O   0  0  0  0  0  0  0  0  0  0  0  0
   15.3360  -56.6550   39.8050 O   0  0  0  0  0  0  0  0  0  0  0  0
   15.7900  -54.5810   38.2890 N   0  0  0  0  0  0  0  0  0  0  0  0
   17.0780  -55.1780   38.1700 C   0  0  0  0  0  0  0  0  0  0  0  0
   18.0690  -54.3590   38.9730 C   0  0  0  0  0  0  0  0  0  0  0  0
   18.2420  -53.1030   38.2860 N   0  0  0  0  0  0  0  0  0  0  0  0
   17.1040  -52.6310   37.5890 C   0  0  0  0  0  0  0  0  0  0  0  0
   15.8590  -53.1560   38.3060 C   0  0  0  0  0  0  0  0  0  0  0  0
   19.5130  -52.9130   37.6810 C   0  0  0  0  0  0  0  0  0  0  0  0
   19.3530  -52.9140   36.2020 C   0  0  1  0  0  0  0  0  0  0  0  0
   20.2920  -51.9870   35.5070 C   0  0  0  0  0  0  0  0  0  0  0  0
   21.0190  -51.1730   36.1240 O   0  0  0  0  0  0  0  0  0  0  0  0
   20.2820  -52.1130   34.1200 O   0  0  0  0  0  0  0  0  0  0  0  0
   19.9760  -53.2730   33.4390 C   0  0  0  0  0  0  0  0  0  0  0  0
   19.6650  -54.3670   34.1670 C   0  0  0  0  0  0  0  0  0  0  0  0
   19.6720  -54.2630   35.6100 C   0  0  0  0  0  0  0  0  0  0  0  0
   19.9300  -55.2290   36.3490 O   0  0  0  0  0  0  0  0  0  0  0  0
   19.3440  -55.6450   33.5160 C   0  0  0  0  0  0  0  0  0  0  0  0
   17.9930  -55.8300   33.1800 N   0  0  0  0  0  0  0  0  0  0  0  0
   17.0480  -56.1890   34.1490 C   0  0  0  0  0  0  0  0  0  0  0  0
   15.8140  -56.8400   33.4840 C   0  0  0  0  0  0  0  0  0  0  0  0
   16.3570  -57.8190   32.5770 N   0  0  0  0  0  0  0  0  0  0  0  0
   17.0420  -57.2540   31.4240 C   0  0  0  0  0  0  0  0  0  0  0  0
   17.6410  -55.9080   31.8090 C   0  0  0  0  0  0  0  0  0  0  0  0
   16.2440  -59.2060   32.7960 C   0  0  0  0  0  0  0  0  0  0  0  0
   15.1990  -59.7920   33.4730 C   0  0  0  0  0  0  0  0  0  0  0  0
   15.1380  -61.1540   33.6550 C   0  0  0  0  0  0  0  0  0  0  0  0
   16.1080  -62.0030   33.1760 C   0  0  0  0  0  0  0  0  0  0  0  0
   17.1620  -61.4490   32.4980 C   0  0  0  0  0  0  0  0  0  0  0  0
   17.2280  -60.0760   32.3130 C   0  0  0  0  0  0  0  0  0  0  0  0
   13.7890  -61.8370   34.5220 Cl  0  0  0  0  0  0  0  0  0  0  0  0
   14.7620  -54.3640   40.9850 C   0  0  0  0  0  0  0  0  0  0  0  0
   17.3930  -55.0410   37.0930 H   0  0  0  0  0  0  0  0  0  0  0  0
   17.1060  -56.2450   38.3690 H   0  0  0  0  0  0  0  0  0  0  0  0
   17.6150  -54.1420   39.9610 H   0  0  0  0  0  0  0  0  0  0  0  0
   19.0090  -54.8880   39.1420 H   0  0  0  0  0  0  0  0  0  0  0  0
   17.0830  -52.8510   36.5080 H   0  0  0  0  0  0  0  0  0  0  0  0
   17.0650  -51.5120   37.6850 H   0  0  0  0  0  0  0  0  0  0  0  0
   15.9170  -52.7590   39.3530 H   0  0  0  0  0  0  0  0  0  0  0  0
   14.9380  -52.7000   37.8730 H   0  0  0  0  0  0  0  0  0  0  0  0
   19.9650  -51.9300   37.9660 H   0  0  0  0  0  0  0  0  0  0  0  0
   20.1840  -53.7210   38.0540 H   0  0  0  0  0  0  0  0  0  0  0  0
   18.3340  -52.6460   35.9240 H   0  0  0  0  0  0  0  0  0  0  0  0
   19.9680  -53.3630   32.3670 H   0  0  0  0  0  0  0  0  0  0  0  0
   19.7640  -56.4600   34.1750 H   0  0  0  0  0  0  0  0  0  0  0  0
   19.9500  -55.6940   32.5610 H   0  0  0  0  0  0  0  0  0  0  0  0
   16.6390  -55.3560   34.7430 H   0  0  0  0  0  0  0  0  0  0  0  0
   17.4400  -57.0410   34.7770 H   0  0  0  0  0  0  0  0  0  0  0  0
   15.0890  -57.1990   34.2040 H   0  0  0  0  0  0  0  0  0  0  0  0
   15.3340  -55.9980   32.9340 H   0  0  0  0  0  0  0  0  0  0  0  0
   17.8560  -57.8840   31.0600 H   0  0  0  0  0  0  0  0  0  0  0  0
   16.2640  -57.0350   30.6650 H   0  0  0  0  0  0  0  0  0  0  0  0
   18.5440  -55.7630   31.1870 H   0  0  0  0  0  0  0  0  0  0  0  0
   16.9510  -55.0780   31.5500 H   0  0  0  0  0  0  0  0  0  0  0  0
   14.4160  -59.1270   33.8640 H   0  0  0  0  0  0  0  0  0  0  0  0
   16.0440  -63.0890   33.3300 H   0  0  0  0  0  0  0  0  0  0  0  0
   17.9650  -62.0700   32.0920 H   0  0  0  0  0  0  0  0  0  0  0  0
   18.0550  -59.6210   31.7750 H   0  0  0  0  0  0  0  0  0  0  0  0
   13.9410  -53.6240   41.0490 H   0  0  0  0  0  0  0  0  0  0  0  0
   14.6030  -55.0560   41.8630 H   0  0  0  0  0  0  0  0  0  0  0  0
   15.7010  -53.8200   41.2080 H   0  0  0  0  0  0  0  0  0  0  0  0
  1  3  2  0  0  0  0
  1 33  1  0  0  0  0
  2  1  2  0  0  0  0
  4  9  1  0  0  0  0
  4  1  1  0  0  0  0
  5  4  1  0  0  0  0
  5 35  1  0  0  0  0
  5  6  1  0  0  0  0
  6 37  1  0  0  0  0
  6 36  1  0  0  0  0
  7  6  1  0  0  0  0
  8 39  1  0  0  0  0
  8  7  1  0  0  0  0
  8  9  1  0  0  0  0
  9 40  1  0  0  0  0
 10 42  1  0  0  0  0
 10 43  1  0  0  0  0
 10  7  1  0  0  0  0
 11 44  1  6  0  0  0
 11 10  1  0  0  0  0
 12 13  2  0  0  0  0
 12 11  1  0  0  0  0
 14 12  1  0  0  0  0
 15 14  1  0  0  0  0
 15 16  2  0  0  0  0
 16 17  1  0  0  0  0
 17 11  1  0  0  0  0
 17 18  2  0  0  0  0
 19 16  1  0  0  0  0
 19 46  1  0  0  0  0
 20 19  1  0  0  0  0
 20 21  1  0  0  0  0
 21 48  1  0  0  0  0
 21 49  1  0  0  0  0
 22 21  1  0  0  0  0
 22 50  1  0  0  0  0
 23 26  1  0  0  0  0
 23 22  1  0  0  0  0
 24 25  1  0  0  0  0
 24 23  1  0  0  0  0
 25 20  1  0  0  0  0
 26 27  1  0  0  0  0
 27 28  2  0  0  0  0
 27 56  1  0  0  0  0
 28 32  1  0  0  0  0
 29 57  1  0  0  0  0
 29 28  1  0  0  0  0
 30 29  2  0  0  0  0
 31 30  1  0  0  0  0
 31 26  2  0  0  0  0
 33 60  1  0  0  0  0
 33 62  1  0  0  0  0
 33 61  1  0  0  0  0
 34  5  1  0  0  0  0
 38  8  1  0  0  0  0
 41  9  1  0  0  0  0
 45 15  1  0  0  0  0
 47 19  1  0  0  0  0
 51 22  1  0  0  0  0
 52 24  1  0  0  0  0
 53 24  1  0  0  0  0
 54 25  1  0  0  0  0
 55 25  1  0  0  0  0
 58 30  1  0  0  0  0
 59 31  1  0  0  0  0
M  END
>  <Pose>
1

>  <Score>
-6.10

$$$$
