
 OpenBabel03162216043D

 50 53  0  0  0  0  0  0  0  0999 V2000
   40.3860    9.0500   47.6430 B   0  0  0  0  0  0  0  0  0  0  0  0
   41.2930    8.7550   46.0060 C   0  0  0  0  0  0  0  0  0  0  0  0
   41.1870    9.6630   44.9930 C   0  0  0  0  0  0  0  0  0  0  0  0
   41.8640    9.4180   43.8010 C   0  0  0  0  0  0  0  0  0  0  0  0
   42.6260    8.2610   43.6690 C   0  0  0  0  0  0  0  0  0  0  0  0
   42.7380    7.3450   44.6800 C   0  0  0  0  0  0  0  0  0  0  0  0
   42.0630    7.6010   45.8530 C   0  0  0  0  0  0  0  0  0  0  0  0
   42.1830    6.6660   46.8700 O   0  0  0  0  0  0  0  0  0  0  0  0
   43.5400    6.1420   44.5220 C   0  0  0  0  0  0  0  0  0  0  0  0
   44.7930    6.1550   44.2350 N   0  0  0  0  0  0  0  0  0  0  0  0
   45.4940    4.9080   44.1030 N   0  0  0  0  0  0  0  0  0  0  0  0
   46.4820    4.8380   43.1300 C   0  0  0  0  0  0  0  0  0  0  0  0
   46.3870    5.6710   42.1510 O   0  0  0  0  0  0  0  0  0  0  0  0
   47.6260    3.9490   43.0520 C   0  0  0  0  0  0  0  0  0  0  0  0
   47.8890    3.0870   42.0170 N   0  0  0  0  0  0  0  0  0  0  0  0
   48.9950    2.4400   42.2620 N   0  0  0  0  0  0  0  0  0  0  0  0
   49.5210    2.8050   43.4190 N   0  0  0  0  0  0  0  0  0  0  0  0
   48.6960    3.7360   43.9270 C   0  0  0  0  0  0  0  0  0  0  0  0
   48.8320    4.4240   45.2150 C   0  0  0  0  0  0  0  0  0  0  0  0
   50.0820    4.1380   45.9230 N   0  0  0  0  0  0  0  0  0  0  0  0
   49.7640    3.3700   47.1430 C   0  0  0  0  0  0  0  0  0  0  0  0
   48.6290    4.0120   47.8610 C   0  0  0  0  0  0  0  0  0  0  0  0
   48.9170    5.3350   48.0920 O   0  0  0  0  0  0  0  0  0  0  0  0
   50.2100    5.6900   47.8100 C   0  0  0  0  0  0  0  0  0  0  0  0
   50.6470    5.4250   46.3930 C   0  0  0  0  0  0  0  0  0  0  0  0
   50.7050    2.2480   43.9610 C   0  0  0  0  0  0  0  0  0  0  0  0
   51.9930    2.4850   43.6310 N   0  0  0  0  0  0  0  0  0  0  0  0
   52.7820    1.7680   44.3880 O   0  0  0  0  0  0  0  0  0  0  0  0
   52.0810    1.0480   45.2260 N   0  0  0  0  0  0  0  0  0  0  0  0
   50.7870    1.3210   44.9890 C   0  0  0  0  0  0  0  0  0  0  0  0
   49.7110    0.7390   45.6940 N   0  0  0  0  0  0  0  0  0  0  0  0
   41.7380   10.6600   42.3750 B   0  0  0  0  0  0  0  0  0  0  0  0
   40.4320   10.8220   45.1040 O   0  0  0  0  0  0  0  0  0  0  0  0
   43.1470    8.0730   42.7520 H   0  0  0  0  0  0  0  0  0  0  0  0
   41.3610    6.1980   47.2320 H   0  0  0  0  0  0  0  0  0  0  0  0
   43.0730    5.1680   44.6480 H   0  0  0  0  0  0  0  0  0  0  0  0
   45.1930    4.1490   44.7580 H   0  0  0  0  0  0  0  0  0  0  0  0
   48.0230    4.1650   45.9020 H   0  0  0  0  0  0  0  0  0  0  0  0
   48.8450    5.5100   45.0520 H   0  0  0  0  0  0  0  0  0  0  0  0
   49.5820    2.3110   46.9040 H   0  0  0  0  0  0  0  0  0  0  0  0
   50.6700    3.4220   47.7750 H   0  0  0  0  0  0  0  0  0  0  0  0
   47.6670    3.9360   47.3260 H   0  0  0  0  0  0  0  0  0  0  0  0
   48.5420    3.5270   48.8770 H   0  0  0  0  0  0  0  0  0  0  0  0
   50.2560    6.8140   47.9390 H   0  0  0  0  0  0  0  0  0  0  0  0
   50.9110    5.2710   48.5620 H   0  0  0  0  0  0  0  0  0  0  0  0
   51.7380    5.3080   46.4170 H   0  0  0  0  0  0  0  0  0  0  0  0
   50.3550    6.2610   45.7640 H   0  0  0  0  0  0  0  0  0  0  0  0
   49.1730    1.3250   46.3580 H   0  0  0  0  0  0  0  0  0  0  0  0
   49.4360   -0.2520   45.5740 H   0  0  0  0  0  0  0  0  0  0  0  0
   39.8560   11.1420   44.3430 H   0  0  0  0  0  0  0  0  0  0  0  0
  2  1  1  0  0  0  0
  3 33  1  0  0  0  0
  3  2  2  0  0  0  0
  4  3  1  0  0  0  0
  5  4  2  0  0  0  0
  5  6  1  0  0  0  0
  6  7  2  0  0  0  0
  7  2  1  0  0  0  0
  7  8  1  0  0  0  0
  8 35  1  0  0  0  0
  9 36  1  0  0  0  0
  9  6  1  0  0  0  0
 10  9  2  0  0  0  0
 11 10  1  0  0  0  0
 11 37  1  0  0  0  0
 12 11  1  0  0  0  0
 13 12  2  0  0  0  0
 14 12  1  0  0  0  0
 14 18  2  0  0  0  0
 15 16  2  0  0  0  0
 15 14  1  0  0  0  0
 16 17  1  0  0  0  0
 17 18  1  0  0  0  0
 17 26  1  0  0  0  0
 18 19  1  0  0  0  0
 19 38  1  0  0  0  0
 19 20  1  0  0  0  0
 20 25  1  0  0  0  0
 20 21  1  0  0  0  0
 21 41  1  0  0  0  0
 21 22  1  0  0  0  0
 22 23  1  0  0  0  0
 22 43  1  0  0  0  0
 24 44  1  0  0  0  0
 24 23  1  0  0  0  0
 24 45  1  0  0  0  0
 25 46  1  0  0  0  0
 25 24  1  0  0  0  0
 26 30  1  0  0  0  0
 27 26  2  0  0  0  0
 27 28  1  0  0  0  0
 28 29  1  0  0  0  0
 30 29  2  0  0  0  0
 30 31  1  0  0  0  0
 31 48  1  0  0  0  0
 32  4  1  0  0  0  0
 34  5  1  0  0  0  0
 39 19  1  0  0  0  0
 40 21  1  0  0  0  0
 42 22  1  0  0  0  0
 47 25  1  0  0  0  0
 49 31  1  0  0  0  0
 50 33  1  0  0  0  0
M  END
>  <Pose>
1

>  <Score>
-8.72

$$$$
