
 OpenBabel03172210433D

 52 55  0  0  0  0  0  0  0  0999 V2000
   46.6270    3.4650   40.3670 B   0  0  0  0  0  0  0  0  0  0  0  0
   47.0350    4.4760   41.9370 C   0  0  0  0  0  0  0  0  0  0  0  0
   47.8800    3.9030   42.8660 C   0  0  0  0  0  0  0  0  0  0  0  0
   48.1780    4.6270   44.0000 C   0  0  0  0  0  0  0  0  0  0  0  0
   47.6520    5.8900   44.2080 C   0  0  0  0  0  0  0  0  0  0  0  0
   46.8090    6.4680   43.2890 C   0  0  0  0  0  0  0  0  0  0  0  0
   46.5130    5.7420   42.1540 C   0  0  0  0  0  0  0  0  0  0  0  0
   45.6730    6.3010   41.2200 O   0  0  0  0  0  0  0  0  0  0  0  0
   46.2710    7.7960   43.5330 C   0  0  0  0  0  0  0  0  0  0  0  0
   45.1690    8.2210   43.0550 N   0  0  0  0  0  0  0  0  0  0  0  0
   44.6670    9.5130   43.3070 N   0  0  0  0  0  0  0  0  0  0  0  0
   43.9130    9.7440   44.4900 C   0  0  0  0  0  0  0  0  0  0  0  0
   44.1690    9.0690   45.6080 N   0  0  0  0  0  4  0  0  0  0  0  0
   43.4680    9.2620   46.7610 C   0  0  0  0  0  0  0  0  0  0  0  0
   42.5000   10.1740   46.7130 N   0  0  0  0  0  0  0  0  0  0  0  0
   42.1730   10.9030   45.6220 C   0  0  0  0  0  0  0  0  0  0  0  0
   42.9250   10.6470   44.5100 N   0  0  0  0  0  0  0  0  0  0  0  0
   41.1400   11.8580   45.6170 N   0  0  0  0  0  0  0  0  0  0  0  0
   39.8840   11.5810   46.2420 C   0  0  0  0  0  0  0  0  0  0  0  0
   38.7910   11.8930   45.2160 C   0  0  0  0  0  0  0  0  0  0  0  0
   39.3170   12.2630   43.9970 O   0  0  0  0  0  0  0  0  0  0  0  0
   40.1540   13.3490   44.0440 C   0  0  0  0  0  0  0  0  0  0  0  0
   41.3340   13.1250   44.9830 C   0  0  0  0  0  0  0  0  0  0  0  0
   43.7560    8.5350   47.9360 N   0  0  0  0  0  0  0  0  0  0  0  0
   42.8860    7.4750   48.3640 C   0  0  0  0  0  0  0  0  0  0  0  0
   42.6330    7.6720   49.8510 C   0  0  0  0  0  0  0  0  0  0  0  0
   43.8070    7.9220   50.5500 O   0  0  0  0  0  0  0  0  0  0  0  0
   44.4500    9.0720   50.1500 C   0  0  0  0  0  0  0  0  0  0  0  0
   44.9230    8.8550   48.7070 C   0  0  0  0  0  0  0  0  0  0  0  0
   49.3480    3.8440   45.2970 B   0  0  0  0  0  0  0  0  0  0  0  0
   48.4000    2.6300   42.6400 O   0  0  0  0  0  0  0  0  0  0  0  0
   47.8990    6.4510   45.1160 H   0  0  0  0  0  0  0  0  0  0  0  0
   44.7020    5.9850   41.1340 H   0  0  0  0  0  0  0  0  0  0  0  0
   46.8370    8.4680   44.1580 H   0  0  0  0  0  0  0  0  0  0  0  0
   44.8800   10.2320   42.6070 H   0  0  0  0  0  0  0  0  0  0  0  0
   39.7440   12.3180   47.0680 H   0  0  0  0  0  0  0  0  0  0  0  0
   39.8230   10.5380   46.5990 H   0  0  0  0  0  0  0  0  0  0  0  0
   38.0620   12.6170   45.5960 H   0  0  0  0  0  0  0  0  0  0  0  0
   38.2320   10.9360   45.0520 H   0  0  0  0  0  0  0  0  0  0  0  0
   39.6210   14.2900   44.2930 H   0  0  0  0  0  0  0  0  0  0  0  0
   40.5810   13.4920   43.0290 H   0  0  0  0  0  0  0  0  0  0  0  0
   42.3020   13.1520   44.4430 H   0  0  0  0  0  0  0  0  0  0  0  0
   41.3580   13.9740   45.6960 H   0  0  0  0  0  0  0  0  0  0  0  0
   41.8770    7.5130   47.8770 H   0  0  0  0  0  0  0  0  0  0  0  0
   43.3580    6.4790   48.2460 H   0  0  0  0  0  0  0  0  0  0  0  0
   41.8870    8.4720   49.9970 H   0  0  0  0  0  0  0  0  0  0  0  0
   42.2070    6.7280   50.2540 H   0  0  0  0  0  0  0  0  0  0  0  0
   43.7230    9.9020   50.1120 H   0  0  0  0  0  0  0  0  0  0  0  0
   45.2930    9.2560   50.8250 H   0  0  0  0  0  0  0  0  0  0  0  0
   45.5630    7.9330   48.7480 H   0  0  0  0  0  0  0  0  0  0  0  0
   45.4710    9.7320   48.3280 H   0  0  0  0  0  0  0  0  0  0  0  0
   48.3190    1.9270   43.3550 H   0  0  0  0  0  0  0  0  0  0  0  0
  1  2  1  0  0  0  0
  2  7  2  0  0  0  0
  2  3  1  0  0  0  0
  3  4  2  0  0  0  0
  4  5  1  0  0  0  0
  4 30  1  0  0  0  0
  5 32  1  0  0  0  0
  6  9  1  0  0  0  0
  6  5  2  0  0  0  0
  7  6  1  0  0  0  0
  8  7  1  0  0  0  0
  9 34  1  0  0  0  0
 10 11  1  0  0  0  0
 10  9  2  0  0  0  0
 11 12  1  0  0  0  0
 12 17  1  0  0  0  0
 12 13  2  0  0  0  0
 13 14  2  0  0  0  0
 14 24  1  0  0  0  0
 15 14  1  0  0  0  0
 16 15  2  0  0  0  0
 17 16  1  0  0  0  0
 18 16  1  0  0  0  0
 18 19  1  0  0  0  0
 19 37  1  0  0  0  0
 19 36  1  0  0  0  0
 20 38  1  0  0  0  0
 20 19  1  0  0  0  0
 21 22  1  0  0  0  0
 21 20  1  0  0  0  0
 22 40  1  0  0  0  0
 22 23  1  0  0  0  0
 23 18  1  0  0  0  0
 23 43  1  0  0  0  0
 24 25  1  0  0  0  0
 24 29  1  0  0  0  0
 25 26  1  0  0  0  0
 26 46  1  0  0  0  0
 26 47  1  0  0  0  0
 26 27  1  0  0  0  0
 28 27  1  0  0  0  0
 28 49  1  0  0  0  0
 29 50  1  0  0  0  0
 29 28  1  0  0  0  0
 31  3  1  0  0  0  0
 31 52  1  0  0  0  0
 33  8  1  0  0  0  0
 35 11  1  0  0  0  0
 39 20  1  0  0  0  0
 41 22  1  0  0  0  0
 42 23  1  0  0  0  0
 44 25  1  0  0  0  0
 45 25  1  0  0  0  0
 48 28  1  0  0  0  0
 51 29  1  0  0  0  0
M  END
>  <Pose>
1

>  <Score>
-5.97

$$$$
