
 OpenBabel03172210433D

 60 63  0  0  1  0  0  0  0  0999 V2000
   47.3610   15.2400   44.1550 B   0  0  0  0  0  0  0  0  0  0  0  0
   46.4310   15.9250   45.6820 C   0  0  0  0  0  0  0  0  0  0  0  0
   45.5100   15.0760   46.3160 C   0  0  0  0  0  0  0  0  0  0  0  0
   44.8580   15.5760   47.3970 C   0  0  0  0  0  0  0  0  0  0  0  0
   45.0820   16.8750   47.8700 C   0  0  0  0  0  0  0  0  0  0  0  0
   45.9890   17.6880   47.2300 C   0  0  0  0  0  0  0  0  0  0  0  0
   46.6620   17.1990   46.1310 C   0  0  0  0  0  0  0  0  0  0  0  0
   46.3760   19.4690   47.7830 B   0  0  0  0  0  0  0  0  0  0  0  0
   43.6130   14.5310   48.3470 B   0  0  0  0  0  0  0  0  0  0  0  0
   45.3220   13.8290   45.8310 O   0  0  0  0  0  0  0  0  0  0  0  0
   44.2460   13.3950   45.0010 C   0  0  0  0  0  0  0  0  0  0  0  0
   43.3490   12.5020   45.7470 C   0  0  1  0  0  0  0  0  0  0  0  0
   44.1770   11.6010   46.4390 O   0  0  0  0  0  0  0  0  0  0  0  0
   42.0800   12.8840   46.3460 C   0  0  0  0  0  0  0  0  0  0  0  0
   40.8420   12.3260   45.9350 N   0  0  0  0  0  0  0  0  0  0  0  0
   39.6240   12.9170   46.0570 C   0  0  0  0  0  0  0  0  0  0  0  0
   38.6590   12.0860   45.5540 C   0  0  0  0  0  0  0  0  0  0  0  0
   39.3040   11.0140   45.1430 N   0  0  0  0  0  0  0  0  0  0  0  0
   40.6430   11.1230   45.3630 C   0  0  0  0  0  0  0  0  0  0  0  0
   41.5510   10.0360   45.1100 N   0  0  0  0  0  0  0  0  0  0  0  0
   41.9180    8.9960   45.9920 C   0  0  0  0  0  0  0  0  0  0  0  0
   42.8500    8.0260   45.2150 C   0  0  0  0  0  0  0  0  0  0  0  0
   44.0090    8.8270   44.8720 N   0  0  0  0  0  4  0  0  0  0  0  0
   43.5550    9.5840   43.6910 C   0  0  0  0  0  0  0  0  0  0  0  0
   42.1330    9.9760   43.7630 C   0  0  0  0  0  0  0  0  0  0  0  0
   45.1440    8.0010   44.5140 C   0  0  0  0  0  0  0  0  0  0  0  0
   45.0850    7.7090   43.0310 C   0  0  0  0  0  0  0  0  0  0  0  0
   46.2940    8.0960   42.4400 O   0  0  0  0  0  0  0  0  0  0  0  0
   37.3220   12.3760   45.5380 N   0  0  0  0  0  0  0  0  0  0  0  0
   36.9590   13.5540   46.0580 C   0  0  0  0  0  0  0  0  0  0  0  0
   35.7240   13.8190   46.0420 O   0  0  0  0  0  0  0  0  0  0  0  0
   37.8690   14.4060   46.5690 N   0  0  0  0  0  0  0  0  0  0  0  0
   39.1840   14.1350   46.5910 C   0  0  0  0  0  0  0  0  0  0  0  0
   40.0920   15.0210   47.1240 O   0  0  0  0  0  0  0  0  0  0  0  0
   36.3850   11.4170   44.9670 C   0  0  0  0  0  0  0  0  0  0  0  0
   44.5530   17.2450   48.7250 H   0  0  0  0  0  0  0  0  0  0  0  0
   47.3950   17.8160   45.5940 H   0  0  0  0  0  0  0  0  0  0  0  0
   44.7900   12.7260   44.2480 H   0  0  0  0  0  0  0  0  0  0  0  0
   43.8110   14.1650   44.3800 H   0  0  0  0  0  0  0  0  0  0  0  0
   42.9930   11.7330   44.8710 H   0  0  0  0  0  0  0  0  0  0  0  0
   44.8630   11.2180   45.8630 H   0  0  0  0  0  0  0  0  0  0  0  0
   42.1430   12.9800   47.4810 H   0  0  0  0  0  0  0  0  0  0  0  0
   42.0200   14.0240   46.1160 H   0  0  0  0  0  0  0  0  0  0  0  0
   41.0730    8.3110   46.2610 H   0  0  0  0  0  0  0  0  0  0  0  0
   42.5450    9.3020   46.8350 H   0  0  0  0  0  0  0  0  0  0  0  0
   42.3410    7.6610   44.3030 H   0  0  0  0  0  0  0  0  0  0  0  0
   43.1790    7.1940   45.8380 H   0  0  0  0  0  0  0  0  0  0  0  0
   44.2500    9.5460   45.5880 H   0  0  0  0  0  0  0  0  0  0  0  0
   44.2700   10.3520   43.3840 H   0  0  0  0  0  0  0  0  0  0  0  0
   43.6220    8.8030   42.8660 H   0  0  0  0  0  0  0  0  0  0  0  0
   42.0130   10.9660   43.2860 H   0  0  0  0  0  0  0  0  0  0  0  0
   41.4500    9.2900   43.2040 H   0  0  0  0  0  0  0  0  0  0  0  0
   45.1080    7.0120   45.0420 H   0  0  0  0  0  0  0  0  0  0  0  0
   46.1100    8.5090   44.7020 H   0  0  0  0  0  0  0  0  0  0  0  0
   44.9880    6.6170   42.8450 H   0  0  0  0  0  0  0  0  0  0  0  0
   44.2550    8.2780   42.5260 H   0  0  0  0  0  0  0  0  0  0  0  0
   46.4430    9.0760   42.5490 H   0  0  0  0  0  0  0  0  0  0  0  0
   36.1260   11.8390   43.9520 H   0  0  0  0  0  0  0  0  0  0  0  0
   36.9350   10.4840   44.7400 H   0  0  0  0  0  0  0  0  0  0  0  0
   35.4750   11.2760   45.5450 H   0  0  0  0  0  0  0  0  0  0  0  0
  1  2  1  0  0  0  0
  2  7  2  0  0  0  0
  2  3  1  0  0  0  0
  3  4  2  0  0  0  0
  4  5  1  0  0  0  0
  4  9  1  0  0  0  0
  5 36  1  0  0  0  0
  6  8  1  0  0  0  0
  6  5  2  0  0  0  0
  7  6  1  0  0  0  0
 10  3  1  0  0  0  0
 11 12  1  0  0  0  0
 11 10  1  0  0  0  0
 12 40  1  6  0  0  0
 12 14  1  0  0  0  0
 12 13  1  0  0  0  0
 14 42  1  0  0  0  0
 15 16  1  0  0  0  0
 15 14  1  0  0  0  0
 16 33  1  0  0  0  0
 17 16  2  0  0  0  0
 18 19  2  0  0  0  0
 18 17  1  0  0  0  0
 19 15  1  0  0  0  0
 20 19  1  0  0  0  0
 20 21  1  0  0  0  0
 21 44  1  0  0  0  0
 21 45  1  0  0  0  0
 22 47  1  0  0  0  0
 22 21  1  0  0  0  0
 23 22  1  0  0  0  0
 23 48  1  0  0  0  0
 24 25  1  0  0  0  0
 24 23  1  0  0  0  0
 25 20  1  0  0  0  0
 26 54  1  0  0  0  0
 26 23  1  0  0  0  0
 26 53  1  0  0  0  0
 27 26  1  0  0  0  0
 28 57  1  0  0  0  0
 28 27  1  0  0  0  0
 29 17  1  0  0  0  0
 29 30  1  0  0  0  0
 30 32  1  0  0  0  0
 31 30  2  0  0  0  0
 32 33  1  0  0  0  0
 33 34  2  0  0  0  0
 35 29  1  0  0  0  0
 35 60  1  0  0  0  0
 37  7  1  0  0  0  0
 38 11  1  0  0  0  0
 39 11  1  0  0  0  0
 41 13  1  0  0  0  0
 43 14  1  0  0  0  0
 46 22  1  0  0  0  0
 49 24  1  0  0  0  0
 50 24  1  0  0  0  0
 51 25  1  0  0  0  0
 52 25  1  0  0  0  0
 55 27  1  0  0  0  0
 56 27  1  0  0  0  0
 58 35  1  0  0  0  0
 59 35  1  0  0  0  0
M  END
>  <Pose>
1

>  <Score>
-6.61

$$$$
