
 OpenBabel03172210433D

 56 59  0  0  0  0  0  0  0  0999 V2000
   41.4440    7.2750   46.2800 B   0  0  0  0  0  0  0  0  0  0  0  0
   42.7450    7.6140   44.9290 C   0  0  0  0  0  0  0  0  0  0  0  0
   42.8690    8.8630   44.3330 C   0  0  0  0  0  0  0  0  0  0  0  0
   43.8060    9.1140   43.3570 C   0  0  0  0  0  0  0  0  0  0  0  0
   44.6270    8.0770   42.9830 C   0  0  0  0  0  0  0  0  0  0  0  0
   44.5310    6.8190   43.5550 C   0  0  0  0  0  0  0  0  0  0  0  0
   43.5790    6.6120   44.5290 C   0  0  0  0  0  0  0  0  0  0  0  0
   45.3860    5.7030   43.1810 C   0  0  0  0  0  0  0  0  0  0  0  0
   45.7890    5.5360   41.9760 N   0  0  0  0  0  0  0  0  0  0  0  0
   46.5950    4.5150   41.5350 N   0  0  0  0  0  0  0  0  0  0  0  0
   47.7800    4.0890   42.1760 C   0  0  0  0  0  0  0  0  0  0  0  0
   48.5300    3.2840   41.5900 O   0  0  0  0  0  0  0  0  0  0  0  0
   48.1500    4.5650   43.5020 C   0  0  0  0  0  0  0  0  0  0  0  0
   47.7150    5.6490   44.1580 N   0  0  0  0  0  0  0  0  0  0  0  0
   48.2970    5.7160   45.3300 N   0  0  0  0  0  0  0  0  0  0  0  0
   49.1400    4.6830   45.5010 N   0  0  0  0  0  0  0  0  0  0  0  0
   49.0650    3.9570   44.3820 C   0  0  0  0  0  0  0  0  0  0  0  0
   49.7510    2.7080   44.0440 C   0  0  0  0  0  0  0  0  0  0  0  0
   51.1890    2.7070   44.1350 N   0  0  0  0  0  0  0  0  0  0  0  0
   51.5090    1.4940   44.8990 C   0  0  0  0  0  0  0  0  0  0  0  0
   51.0790    0.2290   44.2700 C   0  0  0  0  0  0  0  0  0  0  0  0
   51.1290    0.3060   42.8870 O   0  0  0  0  0  0  0  0  0  0  0  0
   52.1740    1.1340   42.5360 C   0  0  0  0  0  0  0  0  0  0  0  0
   51.7620    2.5700   42.7940 C   0  0  0  0  0  0  0  0  0  0  0  0
   49.9000    4.4820   46.6980 C   0  0  0  0  0  0  0  0  0  0  0  0
   51.1190    4.9490   47.0120 N   0  0  0  0  0  0  0  0  0  0  0  0
   51.4420    4.5330   48.2140 O   0  0  0  0  0  0  0  0  0  0  0  0
   50.4790    3.8000   48.7190 N   0  0  0  0  0  0  0  0  0  0  0  0
   49.5040    3.7530   47.7930 C   0  0  0  0  0  0  0  0  0  0  0  0
   48.2850    3.0510   47.9770 N   0  0  0  0  0  0  0  0  0  0  0  0
   43.8710   10.3740   42.8110 O   0  0  0  0  0  0  0  0  0  0  0  0
   44.3200   11.5330   43.4340 C   0  0  0  0  0  0  0  0  0  0  0  0
   43.7680   11.7710   44.8020 C   0  0  0  0  0  0  0  0  0  0  0  0
   42.0090    9.8750   44.7510 O   0  0  0  0  0  0  0  0  0  0  0  0
   45.3680    8.2530   42.2200 H   0  0  0  0  0  0  0  0  0  0  0  0
   43.4910    5.6240   44.9920 H   0  0  0  0  0  0  0  0  0  0  0  0
   45.6940    4.9900   43.9330 H   0  0  0  0  0  0  0  0  0  0  0  0
   46.2980    4.0150   40.6480 H   0  0  0  0  0  0  0  0  0  0  0  0
   49.4890    2.4110   42.9940 H   0  0  0  0  0  0  0  0  0  0  0  0
   49.3300    1.8490   44.6550 H   0  0  0  0  0  0  0  0  0  0  0  0
   52.5880    1.5040   45.0590 H   0  0  0  0  0  0  0  0  0  0  0  0
   50.9320    1.6190   45.8580 H   0  0  0  0  0  0  0  0  0  0  0  0
   49.9880    0.0750   44.5210 H   0  0  0  0  0  0  0  0  0  0  0  0
   51.5950   -0.6720   44.6610 H   0  0  0  0  0  0  0  0  0  0  0  0
   52.4330    1.0750   41.4600 H   0  0  0  0  0  0  0  0  0  0  0  0
   53.0420    0.8850   43.1770 H   0  0  0  0  0  0  0  0  0  0  0  0
   51.0180    2.8280   42.0280 H   0  0  0  0  0  0  0  0  0  0  0  0
   52.6890    3.1610   42.7330 H   0  0  0  0  0  0  0  0  0  0  0  0
   47.3570    3.5120   48.0790 H   0  0  0  0  0  0  0  0  0  0  0  0
   48.2700    2.0000   48.0190 H   0  0  0  0  0  0  0  0  0  0  0  0
   45.4380   11.5620   43.4910 H   0  0  0  0  0  0  0  0  0  0  0  0
   44.0180   12.3980   42.7900 H   0  0  0  0  0  0  0  0  0  0  0  0
   43.1840   12.7310   44.8630 H   0  0  0  0  0  0  0  0  0  0  0  0
   44.5440   11.8080   45.6010 H   0  0  0  0  0  0  0  0  0  0  0  0
   43.0330   10.9700   45.0410 H   0  0  0  0  0  0  0  0  0  0  0  0
   41.0350    9.6650   44.9300 H   0  0  0  0  0  0  0  0  0  0  0  0
  2  1  1  0  0  0  0
  3 34  1  0  0  0  0
  3  2  2  0  0  0  0
  4  3  1  0  0  0  0
  5  4  2  0  0  0  0
  5  6  1  0  0  0  0
  6  7  2  0  0  0  0
  7  2  1  0  0  0  0
  7 36  1  0  0  0  0
  8  6  1  0  0  0  0
  8 37  1  0  0  0  0
  9  8  2  0  0  0  0
 10  9  1  0  0  0  0
 10 11  1  0  0  0  0
 11 13  1  0  0  0  0
 12 11  2  0  0  0  0
 13 14  1  0  0  0  0
 13 17  2  0  0  0  0
 14 15  2  0  0  0  0
 15 16  1  0  0  0  0
 16 25  1  0  0  0  0
 17 16  1  0  0  0  0
 18 19  1  0  0  0  0
 18 17  1  0  0  0  0
 18 40  1  0  0  0  0
 19 20  1  0  0  0  0
 20 41  1  0  0  0  0
 20 42  1  0  0  0  0
 21 43  1  0  0  0  0
 21 44  1  0  0  0  0
 21 20  1  0  0  0  0
 22 21  1  0  0  0  0
 23 24  1  0  0  0  0
 23 22  1  0  0  0  0
 23 46  1  0  0  0  0
 24 19  1  0  0  0  0
 25 26  2  0  0  0  0
 25 29  1  0  0  0  0
 26 27  1  0  0  0  0
 27 28  1  0  0  0  0
 29 30  1  0  0  0  0
 29 28  2  0  0  0  0
 30 50  1  0  0  0  0
 30 49  1  0  0  0  0
 31  4  1  0  0  0  0
 31 32  1  0  0  0  0
 32 51  1  0  0  0  0
 32 33  1  0  0  0  0
 33 53  1  0  0  0  0
 33 55  1  0  0  0  0
 33 54  1  0  0  0  0
 34 56  1  0  0  0  0
 35  5  1  0  0  0  0
 38 10  1  0  0  0  0
 39 18  1  0  0  0  0
 45 23  1  0  0  0  0
 47 24  1  0  0  0  0
 48 24  1  0  0  0  0
 52 32  1  0  0  0  0
M  END
>  <Pose>
1

>  <Score>
-7.10

$$$$
