
 OpenBabel03172210433D

 53 56  0  0  0  0  0  0  0  0999 V2000
   47.5950    3.0870   42.1900 B   0  0  0  0  0  0  0  0  0  0  0  0
   47.6680    4.5430   43.4560 C   0  0  0  0  0  0  0  0  0  0  0  0
   48.6460    4.5280   44.4280 C   0  0  0  0  0  0  0  0  0  0  0  0
   48.7340    5.5560   45.3250 C   0  0  0  0  0  0  0  0  0  0  0  0
   47.8210    6.5810   45.2210 C   0  0  0  0  0  0  0  0  0  0  0  0
   46.8210    6.6430   44.2680 C   0  0  0  0  0  0  0  0  0  0  0  0
   46.7850    5.5300   43.3500 C   0  0  0  0  0  0  0  0  0  0  0  0
   45.8700    7.6060   44.0780 C   0  0  0  0  0  0  0  0  0  0  0  0
   44.6170    7.8600   43.6580 N   0  0  0  0  0  0  0  0  0  0  0  0
   44.6770    9.4270   43.9530 N   0  0  0  0  0  0  0  0  0  0  0  0
   43.7440    9.9550   42.9830 C   0  0  0  0  0  0  0  0  0  0  0  0
   44.1580   10.4930   41.9560 O   0  0  0  0  0  0  0  0  0  0  0  0
   42.3210    9.7750   43.1660 C   0  0  0  0  0  0  0  0  0  0  0  0
   41.3470    9.3480   42.4430 N   0  0  0  0  0  0  0  0  0  0  0  0
   40.2040    9.8460   42.8850 N   0  0  0  0  0  0  0  0  0  0  0  0
   40.4530   10.6150   43.9350 N   0  0  0  0  0  0  0  0  0  0  0  0
   41.7450   10.6460   44.2290 C   0  0  0  0  0  0  0  0  0  0  0  0
   42.5650   11.3970   45.1350 C   0  0  0  0  0  0  0  0  0  0  0  0
   42.8260   12.8040   44.8220 N   0  0  0  0  0  0  0  0  0  0  0  0
   44.2000   13.1510   44.9800 C   0  0  0  0  0  0  0  0  0  0  0  0
   44.6960   13.1390   46.3980 C   0  0  0  0  0  0  0  0  0  0  0  0
   44.1970   14.2410   47.0730 O   0  0  0  0  0  0  0  0  0  0  0  0
   43.0150   14.6930   46.4750 C   0  0  0  0  0  0  0  0  0  0  0  0
   42.2070   13.5250   46.0180 C   0  0  0  0  0  0  0  0  0  0  0  0
   39.4840   11.6060   44.3560 C   0  0  0  0  0  0  0  0  0  0  0  0
   39.4560   12.8730   44.3520 N   0  0  0  0  0  0  0  0  0  0  0  0
   38.3440   13.3610   44.9030 O   0  0  0  0  0  0  0  0  0  0  0  0
   37.6470   12.3460   45.2650 N   0  0  0  0  0  0  0  0  0  0  0  0
   38.2620   11.1990   44.9740 C   0  0  0  0  0  0  0  0  0  0  0  0
   37.8270    9.8880   45.2290 N   0  0  0  0  0  0  0  0  0  0  0  0
   49.7230    5.5860   46.3150 O   0  0  0  0  0  0  0  0  0  0  0  0
   49.5520    6.4740   47.4380 C   0  0  0  0  0  0  0  0  0  0  0  0
   49.5420    3.4570   44.4880 O   0  0  0  0  0  0  0  0  0  0  0  0
   47.9070    7.4130   45.9430 H   0  0  0  0  0  0  0  0  0  0  0  0
   46.0240    5.5380   42.5640 H   0  0  0  0  0  0  0  0  0  0  0  0
   46.2630    8.6900   44.3860 H   0  0  0  0  0  0  0  0  0  0  0  0
   45.2570    9.6290   44.6530 H   0  0  0  0  0  0  0  0  0  0  0  0
   42.4670   11.2640   46.2170 H   0  0  0  0  0  0  0  0  0  0  0  0
   43.6690   10.9760   45.0100 H   0  0  0  0  0  0  0  0  0  0  0  0
   44.8080   12.4700   44.3720 H   0  0  0  0  0  0  0  0  0  0  0  0
   44.3870   14.2100   44.5950 H   0  0  0  0  0  0  0  0  0  0  0  0
   44.5620   12.1880   46.9140 H   0  0  0  0  0  0  0  0  0  0  0  0
   45.8110   13.3140   46.3530 H   0  0  0  0  0  0  0  0  0  0  0  0
   43.0980   15.5210   45.7970 H   0  0  0  0  0  0  0  0  0  0  0  0
   42.4240   15.1170   47.3680 H   0  0  0  0  0  0  0  0  0  0  0  0
   41.1870   13.8170   45.8110 H   0  0  0  0  0  0  0  0  0  0  0  0
   42.3160   12.7880   46.8700 H   0  0  0  0  0  0  0  0  0  0  0  0
   37.2910    9.6270   46.0760 H   0  0  0  0  0  0  0  0  0  0  0  0
   38.0190    9.0800   44.5460 H   0  0  0  0  0  0  0  0  0  0  0  0
   50.3710    6.3760   48.1600 H   0  0  0  0  0  0  0  0  0  0  0  0
   49.5210    7.5380   47.0080 H   0  0  0  0  0  0  0  0  0  0  0  0
   48.5870    6.2570   47.8900 H   0  0  0  0  0  0  0  0  0  0  0  0
   49.1690    2.5220   44.7570 H   0  0  0  0  0  0  0  0  0  0  0  0
  1  2  1  0  0  0  0
  2  3  1  0  0  0  0
  3 33  1  0  0  0  0
  3  4  2  0  0  0  0
  4 31  1  0  0  0  0
  5  4  1  0  0  0  0
  5 34  1  0  0  0  0
  6  5  2  0  0  0  0
  7  2  2  0  0  0  0
  7  6  1  0  0  0  0
  8  6  1  0  0  0  0
  8 36  1  0  0  0  0
  9 10  1  0  0  0  0
  9  8  1  0  0  0  0
 10 37  1  0  0  0  0
 11 13  1  0  0  0  0
 11 10  1  0  0  0  0
 12 11  2  0  0  0  0
 13 17  2  0  0  0  0
 14 15  2  0  0  0  0
 14 13  1  0  0  0  0
 15 16  1  0  0  0  0
 16 17  1  0  0  0  0
 16 25  1  0  0  0  0
 17 18  1  0  0  0  0
 18 38  1  0  0  0  0
 19 20  1  0  0  0  0
 19 18  1  0  0  0  0
 19 24  1  0  0  0  0
 20 21  1  0  0  0  0
 21 42  1  0  0  0  0
 21 22  1  0  0  0  0
 23 22  1  0  0  0  0
 23 45  1  0  0  0  0
 24 23  1  0  0  0  0
 24 47  1  0  0  0  0
 25 29  1  0  0  0  0
 26 25  2  0  0  0  0
 26 27  1  0  0  0  0
 27 28  1  0  0  0  0
 29 30  1  0  0  0  0
 29 28  2  0  0  0  0
 30 48  1  0  0  0  0
 31 32  1  0  0  0  0
 32 52  1  0  0  0  0
 32 50  1  0  0  0  0
 33 53  1  0  0  0  0
 35  7  1  0  0  0  0
 39 18  1  0  0  0  0
 40 20  1  0  0  0  0
 41 20  1  0  0  0  0
 43 21  1  0  0  0  0
 44 23  1  0  0  0  0
 46 24  1  0  0  0  0
 49 30  1  0  0  0  0
 51 32  1  0  0  0  0
M  END
>  <Pose>
1

>  <Score>
-8.20

$$$$
