
 OpenBabel03172210433D

 58 61  0  0  0  0  0  0  0  0999 V2000
   52.2580    4.1570   45.7300 B   0  0  0  0  0  0  0  0  0  0  0  0
   51.6250    3.0530   44.2940 C   0  0  0  0  0  0  0  0  0  0  0  0
   52.5170    2.3050   43.5770 C   0  0  0  0  0  0  0  0  0  0  0  0
   52.0570    1.5170   42.5240 C   0  0  0  0  0  0  0  0  0  0  0  0
   50.7060    1.4980   42.2060 C   0  0  0  0  0  0  0  0  0  0  0  0
   49.8080    2.2480   42.9080 C   0  0  0  0  0  0  0  0  0  0  0  0
   50.2930    3.0120   43.9450 C   0  0  0  0  0  0  0  0  0  0  0  0
   48.4020    2.4700   42.5120 C   0  0  0  0  0  0  0  0  0  0  0  0
   47.8700    3.4360   42.1500 N   0  0  0  0  0  0  0  0  0  0  0  0
   47.2510    4.5140   41.7400 N   0  0  0  0  0  0  0  0  0  0  0  0
   46.8240    5.3260   42.9030 C   0  0  0  0  0  0  0  0  0  0  0  0
   45.7400    6.0780   42.9280 N   0  0  0  0  0  4  0  0  0  0  0  0
   45.5150    6.9520   43.9500 C   0  0  0  0  0  0  0  0  0  0  0  0
   46.4650    6.9890   44.9140 N   0  0  0  0  0  0  0  0  0  0  0  0
   47.5880    6.2460   44.9430 C   0  0  0  0  0  0  0  0  0  0  0  0
   47.7460    5.3990   43.9010 N   0  0  0  0  0  0  0  0  0  0  0  0
   48.5850    6.4460   45.8820 N   0  0  0  0  0  0  0  0  0  0  0  0
   49.5260    5.5380   46.4130 C   0  0  0  0  0  0  0  0  0  0  0  0
   49.2510    5.4540   47.9180 C   0  0  0  0  0  0  0  0  0  0  0  0
   49.3050    6.7340   48.4240 O   0  0  0  0  0  0  0  0  0  0  0  0
   48.3800    7.6160   47.9150 C   0  0  0  0  0  0  0  0  0  0  0  0
   48.6830    7.8410   46.4060 C   0  0  0  0  0  0  0  0  0  0  0  0
   44.4110    7.8370   43.9700 N   0  0  0  0  0  0  0  0  0  0  0  0
   43.0720    7.3190   44.2940 C   0  0  0  0  0  0  0  0  0  0  0  0
   42.1390    7.9270   43.2150 C   0  0  0  0  0  0  0  0  0  0  0  0
   42.1240    9.2640   43.4930 O   0  0  0  0  0  0  0  0  0  0  0  0
   43.3030    9.9010   43.2290 C   0  0  0  0  0  0  0  0  0  0  0  0
   44.5550    9.2050   43.6510 C   0  0  0  0  0  0  0  0  0  0  0  0
   53.0100    0.8000   41.8710 O   0  0  0  0  0  0  0  0  0  0  0  0
   53.2740   -0.5580   41.9040 C   0  0  0  0  0  0  0  0  0  0  0  0
   54.3250   -0.9820   40.8890 C   0  0  0  0  0  0  0  0  0  0  0  0
   53.8490    2.3600   43.9270 O   0  0  0  0  0  0  0  0  0  0  0  0
   50.3310    0.8800   41.4150 H   0  0  0  0  0  0  0  0  0  0  0  0
   49.6310    3.5960   44.5520 H   0  0  0  0  0  0  0  0  0  0  0  0
   47.7390    1.5740   42.5680 H   0  0  0  0  0  0  0  0  0  0  0  0
   47.0250    4.8970   40.8430 H   0  0  0  0  0  0  0  0  0  0  0  0
   49.5830    4.5390   45.9830 H   0  0  0  0  0  0  0  0  0  0  0  0
   50.5430    6.0590   46.3220 H   0  0  0  0  0  0  0  0  0  0  0  0
   50.1160    4.9090   48.3720 H   0  0  0  0  0  0  0  0  0  0  0  0
   48.2990    4.9390   48.0670 H   0  0  0  0  0  0  0  0  0  0  0  0
   48.4890    8.5840   48.3790 H   0  0  0  0  0  0  0  0  0  0  0  0
   47.3190    7.2960   48.0390 H   0  0  0  0  0  0  0  0  0  0  0  0
   47.9280    8.4570   45.9750 H   0  0  0  0  0  0  0  0  0  0  0  0
   49.7120    8.1500   46.2800 H   0  0  0  0  0  0  0  0  0  0  0  0
   43.0160    6.2370   44.1650 H   0  0  0  0  0  0  0  0  0  0  0  0
   42.7680    7.5810   45.2900 H   0  0  0  0  0  0  0  0  0  0  0  0
   41.1630    7.4760   43.3150 H   0  0  0  0  0  0  0  0  0  0  0  0
   42.6260    7.6810   42.2360 H   0  0  0  0  0  0  0  0  0  0  0  0
   43.2780   10.9060   43.7530 H   0  0  0  0  0  0  0  0  0  0  0  0
   43.3510   10.1610   42.1520 H   0  0  0  0  0  0  0  0  0  0  0  0
   45.0450    9.7460   44.5000 H   0  0  0  0  0  0  0  0  0  0  0  0
   45.2750    9.2490   42.7720 H   0  0  0  0  0  0  0  0  0  0  0  0
   53.7140   -0.7650   42.9380 H   0  0  0  0  0  0  0  0  0  0  0  0
   52.3910   -1.1700   41.7650 H   0  0  0  0  0  0  0  0  0  0  0  0
   54.5680   -0.1920   40.1730 H   0  0  0  0  0  0  0  0  0  0  0  0
   53.9580   -1.8970   40.3580 H   0  0  0  0  0  0  0  0  0  0  0  0
   55.2590   -1.2820   41.4250 H   0  0  0  0  0  0  0  0  0  0  0  0
   54.2200    1.9910   44.7690 H   0  0  0  0  0  0  0  0  0  0  0  0
  2  1  1  0  0  0  0
  3 32  1  0  0  0  0
  3  2  2  0  0  0  0
  4  3  1  0  0  0  0
  5  4  2  0  0  0  0
  5  6  1  0  0  0  0
  6  7  2  0  0  0  0
  7  2  1  0  0  0  0
  7 34  1  0  0  0  0
  8 35  1  0  0  0  0
  8  6  1  0  0  0  0
  9  8  1  0  0  0  0
 10  9  1  0  0  0  0
 10 11  1  0  0  0  0
 11 12  2  0  0  0  0
 11 16  1  0  0  0  0
 12 13  2  0  0  0  0
 13 23  1  0  0  0  0
 13 14  1  0  0  0  0
 14 15  2  0  0  0  0
 15 17  1  0  0  0  0
 16 15  1  0  0  0  0
 17 22  1  0  0  0  0
 17 18  1  0  0  0  0
 18 19  1  0  0  0  0
 19 40  1  0  0  0  0
 19 39  1  0  0  0  0
 19 20  1  0  0  0  0
 21 42  1  0  0  0  0
 21 41  1  0  0  0  0
 21 20  1  0  0  0  0
 22 21  1  0  0  0  0
 23 24  1  0  0  0  0
 24 46  1  0  0  0  0
 25 47  1  0  0  0  0
 25 26  1  0  0  0  0
 25 24  1  0  0  0  0
 27 26  1  0  0  0  0
 27 28  1  0  0  0  0
 27 49  1  0  0  0  0
 28 23  1  0  0  0  0
 28 51  1  0  0  0  0
 29 30  1  0  0  0  0
 29  4  1  0  0  0  0
 30 53  1  0  0  0  0
 31 57  1  0  0  0  0
 31 30  1  0  0  0  0
 32 58  1  0  0  0  0
 33  5  1  0  0  0  0
 36 10  1  0  0  0  0
 37 18  1  0  0  0  0
 38 18  1  0  0  0  0
 43 22  1  0  0  0  0
 44 22  1  0  0  0  0
 45 24  1  0  0  0  0
 48 25  1  0  0  0  0
 50 27  1  0  0  0  0
 52 28  1  0  0  0  0
 54 30  1  0  0  0  0
 55 31  1  0  0  0  0
 56 31  1  0  0  0  0
M  END
>  <Pose>
1

>  <Score>
-6.00

$$$$
