
 OpenBabel03172210433D

 64 67  0  0  1  0  0  0  0  0999 V2000
   45.6810   14.6170   45.3880 B   0  0  0  0  0  0  0  0  0  0  0  0
   44.9300   13.0310   46.1080 C   0  0  0  0  0  0  0  0  0  0  0  0
   45.2020   12.6980   47.4420 C   0  0  0  0  0  0  0  0  0  0  0  0
   44.6530   11.5360   47.9690 C   0  0  0  0  0  0  0  0  0  0  0  0
   43.8720   10.7670   47.1740 C   0  0  0  0  0  0  0  0  0  0  0  0
   43.6040   11.0970   45.8550 C   0  0  0  0  0  0  0  0  0  0  0  0
   44.1330   12.2390   45.3060 C   0  0  0  0  0  0  0  0  0  0  0  0
   42.7380   10.1520   45.1030 C   0  0  1  0  0  0  0  0  0  0  0  0
   43.1270    8.8130   45.4950 N   0  0  0  0  0  0  0  0  0  0  0  0
   42.1740    8.2250   46.3340 C   0  0  0  0  0  0  0  0  0  0  0  0
   42.2880    7.1420   46.9270 O   0  0  0  0  0  0  0  0  0  0  0  0
   41.0170    9.1210   46.3860 C   0  0  0  0  0  0  0  0  0  0  0  0
   39.9920    8.8650   47.0680 O   0  0  0  0  0  0  0  0  0  0  0  0
   41.3010   10.2670   45.5490 C   0  0  0  0  0  0  0  0  0  0  0  0
   40.4650   11.2340   45.2850 C   0  0  0  0  0  0  0  0  0  0  0  0
   40.8820   12.3110   44.5200 O   0  0  0  0  0  0  0  0  0  0  0  0
   39.1030   11.2190   45.7600 C   0  0  0  0  0  0  0  0  0  0  0  0
   38.8830   11.9510   46.9340 C   0  0  0  0  0  0  0  0  0  0  0  0
   37.6280   12.0550   47.4810 C   0  0  0  0  0  0  0  0  0  0  0  0
   36.5590   11.4350   46.8780 C   0  0  0  0  0  0  0  0  0  0  0  0
   36.8000   10.7180   45.7210 C   0  0  0  0  0  0  0  0  0  0  0  0
   38.0520   10.6040   45.1560 C   0  0  0  0  0  0  0  0  0  0  0  0
   35.4060   11.7050   47.6450 O   0  0  0  0  0  0  0  0  0  0  0  0
   35.8180   12.1630   48.9290 C   0  0  2  0  0  0  0  0  0  0  0  0
   37.1850   12.7730   48.7200 C   0  0  0  0  0  0  0  0  0  0  0  0
   35.9710   11.0230   49.9190 C   0  0  0  0  0  0  0  0  0  0  0  0
   44.3700    8.2260   45.0390 C   0  0  0  0  0  0  0  0  0  0  0  0
   44.2650    6.9910   44.2490 C   0  0  0  0  0  0  0  0  0  0  0  0
   45.4530    6.5520   43.4770 C   0  0  0  0  0  0  0  0  0  0  0  0
   46.2610    5.5610   44.1440 N   0  0  0  0  0  4  0  0  0  0  0  0
   47.6100    6.1070   44.3530 C   0  0  0  0  0  0  0  0  0  0  0  0
   46.3950    4.4350   43.2390 C   0  0  0  0  0  0  0  0  0  0  0  0
   44.9210   11.2000   49.2990 O   0  0  0  0  0  0  0  0  0  0  0  0
   46.1610   10.7110   49.7320 C   0  0  0  0  0  0  0  0  0  0  0  0
   45.9940   13.4870   48.2370 O   0  0  0  0  0  0  0  0  0  0  0  0
   43.4540    9.8550   47.6220 H   0  0  0  0  0  0  0  0  0  0  0  0
   43.9090   12.4810   44.2720 H   0  0  0  0  0  0  0  0  0  0  0  0
   42.8300   10.2770   44.0060 H   0  0  0  0  0  0  0  0  0  0  0  0
   39.7180   12.4630   47.4430 H   0  0  0  0  0  0  0  0  0  0  0  0
   35.9630   10.2120   45.2180 H   0  0  0  0  0  0  0  0  0  0  0  0
   38.2300   10.0600   44.2370 H   0  0  0  0  0  0  0  0  0  0  0  0
   35.1560   12.9330   49.3500 H   0  0  0  0  0  0  0  0  0  0  0  0
   37.8800   12.5440   49.5820 H   0  0  0  0  0  0  0  0  0  0  0  0
   37.1790   13.8600   48.6080 H   0  0  0  0  0  0  0  0  0  0  0  0
   36.0620   10.0620   49.3570 H   0  0  0  0  0  0  0  0  0  0  0  0
   35.1350   11.0120   50.6520 H   0  0  0  0  0  0  0  0  0  0  0  0
   36.9010   11.1550   50.4840 H   0  0  0  0  0  0  0  0  0  0  0  0
   44.9050    8.9940   44.4440 H   0  0  0  0  0  0  0  0  0  0  0  0
   45.0550    8.0760   45.9300 H   0  0  0  0  0  0  0  0  0  0  0  0
   43.4240    7.1240   43.5070 H   0  0  0  0  0  0  0  0  0  0  0  0
   43.9320    6.1500   44.8840 H   0  0  0  0  0  0  0  0  0  0  0  0
   45.2560    6.2040   42.4550 H   0  0  0  0  0  0  0  0  0  0  0  0
   46.1160    7.4540   43.3590 H   0  0  0  0  0  0  0  0  0  0  0  0
   45.8780    5.2060   45.0240 H   0  0  0  0  0  0  0  0  0  0  0  0
   47.5980    6.9000   45.1480 H   0  0  0  0  0  0  0  0  0  0  0  0
   48.3190    5.3240   44.6860 H   0  0  0  0  0  0  0  0  0  0  0  0
   47.9690    6.5300   43.3820 H   0  0  0  0  0  0  0  0  0  0  0  0
   46.1010    3.4820   43.7160 H   0  0  0  0  0  0  0  0  0  0  0  0
   47.4270    4.3680   42.8290 H   0  0  0  0  0  0  0  0  0  0  0  0
   45.7250    4.5490   42.3400 H   0  0  0  0  0  0  0  0  0  0  0  0
   46.4870    9.8050   49.1590 H   0  0  0  0  0  0  0  0  0  0  0  0
   46.9080   11.5490   49.6120 H   0  0  0  0  0  0  0  0  0  0  0  0
   46.0910   10.4740   50.7990 H   0  0  0  0  0  0  0  0  0  0  0  0
   45.9710   13.3930   49.2220 H   0  0  0  0  0  0  0  0  0  0  0  0
  1  2  1  0  0  0  0
  2  3  1  0  0  0  0
  3  4  2  0  0  0  0
  3 35  1  0  0  0  0
  4 33  1  0  0  0  0
  5 36  1  0  0  0  0
  5  4  1  0  0  0  0
  6  5  2  0  0  0  0
  7  6  1  0  0  0  0
  7  2  2  0  0  0  0
  8 38  1  6  0  0  0
  8  9  1  0  0  0  0
  8 14  1  0  0  0  0
  8  6  1  0  0  0  0
  9 10  1  0  0  0  0
 10 12  1  0  0  0  0
 10 11  2  0  0  0  0
 12 13  2  0  0  0  0
 14 12  1  0  0  0  0
 15 14  2  0  0  0  0
 15 17  1  0  0  0  0
 16 15  1  0  0  0  0
 17 18  1  0  0  0  0
 18 39  1  0  0  0  0
 18 19  2  0  0  0  0
 19 25  1  0  0  0  0
 20 19  1  0  0  0  0
 20 23  1  0  0  0  0
 21 20  2  0  0  0  0
 22 21  1  0  0  0  0
 22 17  2  0  0  0  0
 23 24  1  0  0  0  0
 24 42  1  1  0  0  0
 24 26  1  0  0  0  0
 25 24  1  0  0  0  0
 25 43  1  0  0  0  0
 26 47  1  0  0  0  0
 26 46  1  0  0  0  0
 27  9  1  0  0  0  0
 27 49  1  0  0  0  0
 28 51  1  0  0  0  0
 28 27  1  0  0  0  0
 29 30  1  0  0  0  0
 29 28  1  0  0  0  0
 30 31  1  0  0  0  0
 30 54  1  0  0  0  0
 31 56  1  0  0  0  0
 31 55  1  0  0  0  0
 32 58  1  0  0  0  0
 32 30  1  0  0  0  0
 33 34  1  0  0  0  0
 34 63  1  0  0  0  0
 35 64  1  0  0  0  0
 37  7  1  0  0  0  0
 40 21  1  0  0  0  0
 41 22  1  0  0  0  0
 44 25  1  0  0  0  0
 45 26  1  0  0  0  0
 48 27  1  0  0  0  0
 50 28  1  0  0  0  0
 52 29  1  0  0  0  0
 53 29  1  0  0  0  0
 57 31  1  0  0  0  0
 59 32  1  0  0  0  0
 60 32  1  0  0  0  0
 61 34  1  0  0  0  0
 62 34  1  0  0  0  0
M  END
>  <Pose>
1

>  <Score>
-5.99

$$$$
