
 OpenBabel03172210433D

 39 42  0  0  1  0  0  0  0  0999 V2000
   43.6550   13.3710   49.1530 B   0  0  0  0  0  0  0  0  0  0  0  0
   44.0580   13.4300   47.2960 C   0  0  0  0  0  0  0  0  0  0  0  0
   45.1140   14.1850   46.8460 C   0  0  0  0  0  0  0  0  0  0  0  0
   45.3830   14.2090   45.4940 C   0  0  0  0  0  0  0  0  0  0  0  0
   44.6510   13.5160   44.5550 C   0  0  0  0  0  0  0  0  0  0  0  0
   43.5940   12.7590   45.0130 C   0  0  0  0  0  0  0  0  0  0  0  0
   43.3030   12.7180   46.3590 C   0  0  0  0  0  0  0  0  0  0  0  0
   42.7300   11.9610   44.0980 C   0  0  2  0  0  0  0  0  0  0  0  0
   41.3910   12.0800   44.5020 N   0  0  0  0  0  4  0  0  0  0  0  0
   40.5690   10.9310   44.5430 C   0  0  1  0  0  0  0  0  0  0  0  0
   41.0400    9.7680   43.7130 C   0  0  0  0  0  0  0  0  0  0  0  0
   42.4930    9.5230   43.8750 C   0  0  0  0  0  0  0  0  0  0  0  0
   43.2420    8.3770   43.8770 C   0  0  0  0  0  0  0  0  0  0  0  0
   44.5440    8.8010   44.0750 C   0  0  0  0  0  0  0  0  0  0  0  0
   44.5580   10.1560   44.1850 N   0  0  0  0  0  0  0  0  0  0  0  0
   43.3010   10.6030   44.0630 C   0  0  0  0  0  0  0  0  0  0  0  0
   45.5160    7.8240   44.1190 C   0  0  0  0  0  0  0  0  0  0  0  0
   45.2080    6.4880   43.9730 C   0  0  0  0  0  0  0  0  0  0  0  0
   43.9090    6.0670   43.7760 C   0  0  0  0  0  0  0  0  0  0  0  0
   42.9200    7.0360   43.7290 C   0  0  0  0  0  0  0  0  0  0  0  0
   40.3530   10.4260   45.9260 C   0  0  0  0  0  0  0  0  0  0  0  0
   39.1640   10.3680   46.3930 O   0  0  0  0  0  0  0  0  0  0  0  0
   41.4380   10.0280   46.6900 O   0  0  0  0  0  0  0  0  0  0  0  0
   46.8520   15.2650   44.8930 B   0  0  0  0  0  0  0  0  0  0  0  0
   45.9120   14.9240   47.7440 O   0  0  0  0  0  0  0  0  0  0  0  0
   44.8380   13.5170   43.5040 H   0  0  0  0  0  0  0  0  0  0  0  0
   42.4900   12.1450   46.7950 H   0  0  0  0  0  0  0  0  0  0  0  0
   42.8950   12.3970   43.0750 H   0  0  0  0  0  0  0  0  0  0  0  0
   41.3030   12.5790   45.4330 H   0  0  0  0  0  0  0  0  0  0  0  0
   40.9180   12.7830   43.8470 H   0  0  0  0  0  0  0  0  0  0  0  0
   39.5260   11.1600   44.1640 H   0  0  0  0  0  0  0  0  0  0  0  0
   40.8360    9.8880   42.6300 H   0  0  0  0  0  0  0  0  0  0  0  0
   40.5090    8.8510   44.0430 H   0  0  0  0  0  0  0  0  0  0  0  0
   45.4500   10.6750   44.3380 H   0  0  0  0  0  0  0  0  0  0  0  0
   46.5380    8.1260   44.2710 H   0  0  0  0  0  0  0  0  0  0  0  0
   45.9890    5.7130   44.0080 H   0  0  0  0  0  0  0  0  0  0  0  0
   43.7060    5.0110   43.6660 H   0  0  0  0  0  0  0  0  0  0  0  0
   41.8930    6.7330   43.5770 H   0  0  0  0  0  0  0  0  0  0  0  0
   45.8120   15.9290   47.7420 H   0  0  0  0  0  0  0  0  0  0  0  0
  2  1  1  0  0  0  0
  3  2  1  0  0  0  0
  3 25  1  0  0  0  0
  4  3  2  0  0  0  0
  5  6  2  0  0  0  0
  5  4  1  0  0  0  0
  6  7  1  0  0  0  0
  7 27  1  0  0  0  0
  7  2  2  0  0  0  0
  8 28  1  6  0  0  0
  8  9  1  0  0  0  0
  8  6  1  0  0  0  0
  9 10  1  0  0  0  0
  9 29  1  0  0  0  0
 10 31  1  6  0  0  0
 10 21  1  0  0  0  0
 11 12  1  0  0  0  0
 11 33  1  0  0  0  0
 11 10  1  0  0  0  0
 12 13  1  0  0  0  0
 12 16  2  0  0  0  0
 13 14  1  0  0  0  0
 14 17  2  0  0  0  0
 14 15  1  0  0  0  0
 15 34  1  0  0  0  0
 16  8  1  0  0  0  0
 16 15  1  0  0  0  0
 17 35  1  0  0  0  0
 18 36  1  0  0  0  0
 18 17  1  0  0  0  0
 19 18  2  0  0  0  0
 20 19  1  0  0  0  0
 20 13  2  0  0  0  0
 21 22  2  0  0  0  0
 21 23  1  0  0  0  0
 24  4  1  0  0  0  0
 26  5  1  0  0  0  0
 30  9  1  0  0  0  0
 32 11  1  0  0  0  0
 37 19  1  0  0  0  0
 38 20  1  0  0  0  0
 39 25  1  0  0  0  0
M  END
>  <Pose>
1

>  <Score>
-4.62

$$$$
