
 OpenBabel03172210433D

 52 55  0  0  0  0  0  0  0  0999 V2000
   41.7860    6.9310   45.4410 B   0  0  0  0  0  0  0  0  0  0  0  0
   43.3560    7.4040   44.4780 C   0  0  0  0  0  0  0  0  0  0  0  0
   43.5280    8.7320   44.1190 C   0  0  0  0  0  0  0  0  0  0  0  0
   44.6740    9.0500   43.4150 C   0  0  0  0  0  0  0  0  0  0  0  0
   45.5960    8.0900   43.0890 C   0  0  0  0  0  0  0  0  0  0  0  0
   45.4460    6.7490   43.4420 C   0  0  0  0  0  0  0  0  0  0  0  0
   44.2970    6.4500   44.1420 C   0  0  0  0  0  0  0  0  0  0  0  0
   46.4690    5.7880   43.0850 C   0  0  0  0  0  0  0  0  0  0  0  0
   46.3910    5.0670   42.0200 N   0  0  0  0  0  0  0  0  0  0  0  0
   47.3420    4.1350   41.6410 N   0  0  0  0  0  0  0  0  0  0  0  0
   48.2680    3.6210   42.5890 C   0  0  0  0  0  0  0  0  0  0  0  0
   48.3970    4.1940   43.7750 N   0  0  0  0  0  4  0  0  0  0  0  0
   49.2250    3.7580   44.7410 C   0  0  0  0  0  0  0  0  0  0  0  0
   49.9630    2.6630   44.4580 N   0  0  0  0  0  0  0  0  0  0  0  0
   49.8760    2.0320   43.2560 C   0  0  0  0  0  0  0  0  0  0  0  0
   49.0190    2.5290   42.3310 N   0  0  0  0  0  0  0  0  0  0  0  0
   50.6410    0.8810   42.9800 N   0  0  0  0  0  0  0  0  0  0  0  0
   51.6860    0.8950   41.9880 C   0  0  0  0  0  0  0  0  0  0  0  0
   52.9340    0.3610   42.7060 C   0  0  0  0  0  0  0  0  0  0  0  0
   52.6290   -0.8490   43.2940 O   0  0  0  0  0  0  0  0  0  0  0  0
   51.7610   -0.6650   44.3700 C   0  0  0  0  0  0  0  0  0  0  0  0
   50.4030   -0.3380   43.7110 C   0  0  0  0  0  0  0  0  0  0  0  0
   49.3270    4.4120   46.0170 N   0  0  0  0  0  0  0  0  0  0  0  0
   49.6350    3.6760   47.2110 C   0  0  0  0  0  0  0  0  0  0  0  0
   49.9640    4.4700   48.4140 C   0  0  0  0  0  0  0  0  0  0  0  0
   49.5850    5.8040   48.3480 O   0  0  0  0  0  0  0  0  0  0  0  0
   49.9840    6.4020   47.1610 C   0  0  0  0  0  0  0  0  0  0  0  0
   49.1130    5.8280   46.0710 C   0  0  0  0  0  0  0  0  0  0  0  0
   46.7530    8.4190   42.3750 O   0  0  0  0  0  0  0  0  0  0  0  0
   42.5960    9.7150   44.4440 O   0  0  0  0  0  0  0  0  0  0  0  0
   44.7920   10.1030   43.1380 H   0  0  0  0  0  0  0  0  0  0  0  0
   44.1630    5.3950   44.4260 H   0  0  0  0  0  0  0  0  0  0  0  0
   47.3290    5.6650   43.7240 H   0  0  0  0  0  0  0  0  0  0  0  0
   47.3830    3.8090   40.6680 H   0  0  0  0  0  0  0  0  0  0  0  0
   51.4240    0.2110   41.1560 H   0  0  0  0  0  0  0  0  0  0  0  0
   51.8880    1.9330   41.6190 H   0  0  0  0  0  0  0  0  0  0  0  0
   53.7440    0.2850   41.9600 H   0  0  0  0  0  0  0  0  0  0  0  0
   53.1950    1.1320   43.4730 H   0  0  0  0  0  0  0  0  0  0  0  0
   52.0690    0.2880   44.8940 H   0  0  0  0  0  0  0  0  0  0  0  0
   51.7110   -1.5250   45.0330 H   0  0  0  0  0  0  0  0  0  0  0  0
   50.2540   -1.1550   42.9470 H   0  0  0  0  0  0  0  0  0  0  0  0
   49.5910   -0.2830   44.4420 H   0  0  0  0  0  0  0  0  0  0  0  0
   48.7630    2.9910   47.3990 H   0  0  0  0  0  0  0  0  0  0  0  0
   50.5270    3.0220   46.9640 H   0  0  0  0  0  0  0  0  0  0  0  0
   51.0560    4.3950   48.6550 H   0  0  0  0  0  0  0  0  0  0  0  0
   49.4270    4.0250   49.2910 H   0  0  0  0  0  0  0  0  0  0  0  0
   49.8820    7.4840   47.2780 H   0  0  0  0  0  0  0  0  0  0  0  0
   51.0360    6.1330   46.8760 H   0  0  0  0  0  0  0  0  0  0  0  0
   49.4510    6.3360   45.1290 H   0  0  0  0  0  0  0  0  0  0  0  0
   48.0410    6.0860   46.2090 H   0  0  0  0  0  0  0  0  0  0  0  0
   47.1120    9.3660   42.4510 H   0  0  0  0  0  0  0  0  0  0  0  0
   41.6040    9.6210   44.2890 H   0  0  0  0  0  0  0  0  0  0  0  0
  2  1  1  0  0  0  0
  3 30  1  0  0  0  0
  3  2  2  0  0  0  0
  4  3  1  0  0  0  0
  5  4  2  0  0  0  0
  5  6  1  0  0  0  0
  6  7  2  0  0  0  0
  7 32  1  0  0  0  0
  7  2  1  0  0  0  0
  8  6  1  0  0  0  0
  8 33  1  0  0  0  0
  9  8  2  0  0  0  0
 10  9  1  0  0  0  0
 10 11  1  0  0  0  0
 11 12  2  0  0  0  0
 12 13  2  0  0  0  0
 13 23  1  0  0  0  0
 14 13  1  0  0  0  0
 15 14  2  0  0  0  0
 16 11  1  0  0  0  0
 16 15  1  0  0  0  0
 17 15  1  0  0  0  0
 17 22  1  0  0  0  0
 18 19  1  0  0  0  0
 18 17  1  0  0  0  0
 19 20  1  0  0  0  0
 19 38  1  0  0  0  0
 20 21  1  0  0  0  0
 21 39  1  0  0  0  0
 21 40  1  0  0  0  0
 22 21  1  0  0  0  0
 22 42  1  0  0  0  0
 23 28  1  0  0  0  0
 23 24  1  0  0  0  0
 24 43  1  0  0  0  0
 24 25  1  0  0  0  0
 25 45  1  0  0  0  0
 25 46  1  0  0  0  0
 26 25  1  0  0  0  0
 27 47  1  0  0  0  0
 27 26  1  0  0  0  0
 28 50  1  0  0  0  0
 28 27  1  0  0  0  0
 29 51  1  0  0  0  0
 29  5  1  0  0  0  0
 31  4  1  0  0  0  0
 34 10  1  0  0  0  0
 35 18  1  0  0  0  0
 36 18  1  0  0  0  0
 37 19  1  0  0  0  0
 41 22  1  0  0  0  0
 44 24  1  0  0  0  0
 48 27  1  0  0  0  0
 49 28  1  0  0  0  0
 52 30  1  0  0  0  0
M  END
>  <Pose>
1

>  <Score>
-7.38

$$$$
