
 OpenBabel03172210433D

 40 43  0  0  0  0  0  0  0  0999 V2000
   43.3280   10.8020   43.0970 B   0  0  0  0  0  0  0  0  0  0  0  0
   42.7390    8.9960   43.2870 C   0  0  0  0  0  0  0  0  0  0  0  0
   43.4000    7.9290   43.8030 C   0  0  0  0  0  0  0  0  0  0  0  0
   42.5790    6.8270   43.7120 N   0  0  0  0  0  0  0  0  0  0  0  0
   41.4670    7.2320   43.1590 N   0  0  0  0  0  0  0  0  0  0  0  0
   41.4770    8.5280   42.8690 C   0  0  0  0  0  0  0  0  0  0  0  0
   42.8910    5.4900   44.1450 C   0  0  0  0  0  0  0  0  0  0  0  0
   44.7500    7.8700   44.4020 C   0  0  0  0  0  0  0  0  0  0  0  0
   44.8100    7.9810   45.6830 O   0  0  0  0  0  0  0  0  0  0  0  0
   45.9190    7.7050   43.6650 N   0  0  0  0  0  0  0  0  0  0  0  0
   46.8370    6.6350   43.8080 C   0  0  0  0  0  0  0  0  0  0  0  0
   46.9220    5.7170   42.7420 C   0  0  0  0  0  0  0  0  0  0  0  0
   46.2560    5.6710   41.5560 N   0  0  0  0  0  0  0  0  0  0  0  0
   46.6900    4.6290   40.9150 O   0  0  0  0  0  0  0  0  0  0  0  0
   47.5880    4.0050   41.6120 N   0  0  0  0  0  0  0  0  0  0  0  0
   47.7750    4.6450   42.7730 C   0  0  0  0  0  0  0  0  0  0  0  0
   48.6060    4.3930   43.8460 C   0  0  0  0  0  0  0  0  0  0  0  0
   48.5200    5.2950   44.8890 C   0  0  0  0  0  0  0  0  0  0  0  0
   47.6560    6.3890   44.8680 C   0  0  0  0  0  0  0  0  0  0  0  0
   49.4870    3.2970   43.8930 N   0  0  0  0  0  0  0  0  0  0  0  0
   50.2910    3.1040   45.0960 C   0  0  0  0  0  0  0  0  0  0  0  0
   51.2980    2.0010   44.9200 C   0  0  0  0  0  0  0  0  0  0  0  0
   51.9020    1.9340   43.7080 O   0  0  0  0  0  0  0  0  0  0  0  0
   51.2080    2.3460   42.6080 C   0  0  0  0  0  0  0  0  0  0  0  0
   49.7210    2.3000   42.8930 C   0  0  0  0  0  0  0  0  0  0  0  0
   40.7380    9.1560   42.4200 H   0  0  0  0  0  0  0  0  0  0  0  0
   43.2730    5.5030   45.1920 H   0  0  0  0  0  0  0  0  0  0  0  0
   43.6820    5.0660   43.5030 H   0  0  0  0  0  0  0  0  0  0  0  0
   41.9930    4.8630   44.0530 H   0  0  0  0  0  0  0  0  0  0  0  0
   46.1160    8.4690   42.9500 H   0  0  0  0  0  0  0  0  0  0  0  0
   49.1630    5.1170   45.7400 H   0  0  0  0  0  0  0  0  0  0  0  0
   47.6430    7.0470   45.7120 H   0  0  0  0  0  0  0  0  0  0  0  0
   50.8510    4.0260   45.3600 H   0  0  0  0  0  0  0  0  0  0  0  0
   49.6460    2.8380   45.9670 H   0  0  0  0  0  0  0  0  0  0  0  0
   52.0980    2.1760   45.6940 H   0  0  0  0  0  0  0  0  0  0  0  0
   50.8090    1.0420   45.2370 H   0  0  0  0  0  0  0  0  0  0  0  0
   51.4720    3.4190   42.4160 H   0  0  0  0  0  0  0  0  0  0  0  0
   51.4160    1.7530   41.6880 H   0  0  0  0  0  0  0  0  0  0  0  0
   49.5290    1.3070   43.4040 H   0  0  0  0  0  0  0  0  0  0  0  0
   49.1040    2.3000   42.0140 H   0  0  0  0  0  0  0  0  0  0  0  0
  1  2  1  0  0  0  0
  2  3  2  0  0  0  0
  3  8  1  0  0  0  0
  4  3  1  0  0  0  0
  4  7  1  0  0  0  0
  5  4  1  0  0  0  0
  6  5  2  0  0  0  0
  6  2  1  0  0  0  0
  7 27  1  0  0  0  0
  8  9  2  0  0  0  0
 10 11  1  0  0  0  0
 10  8  1  0  0  0  0
 11 19  2  0  0  0  0
 12 16  1  0  0  0  0
 12 11  1  0  0  0  0
 13 12  2  0  0  0  0
 14 13  1  0  0  0  0
 14 15  1  0  0  0  0
 15 16  2  0  0  0  0
 16 17  1  0  0  0  0
 17 20  1  0  0  0  0
 17 18  2  0  0  0  0
 18 31  1  0  0  0  0
 19 18  1  0  0  0  0
 19 32  1  0  0  0  0
 20 21  1  0  0  0  0
 21 33  1  0  0  0  0
 21 34  1  0  0  0  0
 22 21  1  0  0  0  0
 22 36  1  0  0  0  0
 22 35  1  0  0  0  0
 23 22  1  0  0  0  0
 24 25  1  0  0  0  0
 24 23  1  0  0  0  0
 25 39  1  0  0  0  0
 25 20  1  0  0  0  0
 26  6  1  0  0  0  0
 28  7  1  0  0  0  0
 29  7  1  0  0  0  0
 30 10  1  0  0  0  0
 37 24  1  0  0  0  0
 38 24  1  0  0  0  0
 40 25  1  0  0  0  0
M  END
>  <Pose>
1

>  <Score>
-6.90

$$$$
