
 OpenBabel03172210433D

 36 39  0  0  0  0  0  0  0  0999 V2000
   49.1660    3.5540   49.9500 B   0  0  0  0  0  0  0  0  0  0  0  0
   49.5490    3.2150   48.1280 C   0  0  0  0  0  0  0  0  0  0  0  0
   49.1200    4.1220   47.1520 C   0  0  0  0  0  0  0  0  0  0  0  0
   49.4080    3.8600   45.8370 C   0  0  0  0  0  0  0  0  0  0  0  0
   50.1010    2.7350   45.4750 C   0  0  0  0  0  0  0  0  0  0  0  0
   50.5360    1.8230   46.4510 C   0  0  0  0  0  0  0  0  0  0  0  0
   50.2460    2.0860   47.7750 C   0  0  0  0  0  0  0  0  0  0  0  0
   50.3570    2.5260   44.0970 N   0  0  0  0  0  0  0  0  0  0  0  0
   51.5060    2.8060   43.5150 N   0  0  0  0  0  0  0  0  0  0  0  0
   51.4650    2.5120   42.2330 N   0  0  0  0  0  0  0  0  0  0  0  0
   50.2640    2.0280   41.9600 N   0  0  0  0  0  0  0  0  0  0  0  0
   49.5870    2.0400   43.1130 C   0  0  0  0  0  0  0  0  0  0  0  0
   48.9830    4.8040   44.7360 C   0  0  0  0  0  0  0  0  0  0  0  0
   49.8920    5.5870   44.3090 O   0  0  0  0  0  0  0  0  0  0  0  0
   47.6840    4.7500   44.2900 N   0  0  0  0  0  0  0  0  0  0  0  0
   46.3930    4.6960   43.8470 C   0  0  0  0  0  0  0  0  0  0  0  0
   45.8550    6.0270   43.3470 C   0  0  0  0  0  0  0  0  0  0  0  0
   44.6560    6.5530   43.6820 N   0  0  0  0  0  0  0  0  0  0  0  0
   44.4840    7.7340   43.0750 C   0  0  0  0  0  0  0  0  0  0  0  0
   45.5980    7.9400   42.3540 N   0  0  0  0  0  0  0  0  0  0  0  0
   46.4330    6.9030   42.5180 N   0  0  0  0  0  0  0  0  0  0  0  0
   43.3100    8.4740   43.2710 C   0  0  0  0  0  0  0  0  0  0  0  0
   42.3240    7.9950   44.0880 C   0  0  0  0  0  0  0  0  0  0  0  0
   42.5020    6.7770   44.7140 C   0  0  0  0  0  0  0  0  0  0  0  0
   43.6760    6.0710   44.4970 C   0  0  0  0  0  0  0  0  0  0  0  0
   48.5690    5.0120   47.4190 H   0  0  0  0  0  0  0  0  0  0  0  0
   51.0790    0.9530   46.1250 H   0  0  0  0  0  0  0  0  0  0  0  0
   50.5800    1.3790   48.5290 H   0  0  0  0  0  0  0  0  0  0  0  0
   48.5750    1.7050   43.2300 H   0  0  0  0  0  0  0  0  0  0  0  0
   47.2290    5.0550   45.5370 H   0  0  0  0  0  0  0  0  0  0  0  0
   45.6200    4.3220   44.5780 H   0  0  0  0  0  0  0  0  0  0  0  0
   46.2140    4.0180   42.9520 H   0  0  0  0  0  0  0  0  0  0  0  0
   43.2230    9.4160   42.7530 H   0  0  0  0  0  0  0  0  0  0  0  0
   41.3890    8.5460   44.2650 H   0  0  0  0  0  0  0  0  0  0  0  0
   41.7750    6.3490   45.3650 H   0  0  0  0  0  0  0  0  0  0  0  0
   43.8530    5.1160   44.9640 H   0  0  0  0  0  0  0  0  0  0  0  0
  2  1  1  0  0  0  0
  3 26  1  0  0  0  0
  3  2  2  0  0  0  0
  4  3  1  0  0  0  0
  5  4  2  0  0  0  0
  5  6  1  0  0  0  0
  6  7  2  0  0  0  0
  7  2  1  0  0  0  0
  7 28  1  0  0  0  0
  8  5  1  0  0  0  0
  9  8  1  0  0  0  0
 10  9  2  0  0  0  0
 11 10  1  0  0  0  0
 11 12  2  0  0  0  0
 12 29  1  0  0  0  0
 12  8  1  0  0  0  0
 13  4  1  0  0  0  0
 14 13  2  0  0  0  0
 15 13  1  0  0  0  0
 15 30  1  0  0  0  0
 16 15  1  0  0  0  0
 16 31  1  0  0  0  0
 17 18  1  0  0  0  0
 17 16  1  0  0  0  0
 18 25  1  0  0  0  0
 19 22  1  0  0  0  0
 19 18  1  0  0  0  0
 20 21  1  0  0  0  0
 20 19  2  0  0  0  0
 21 17  2  0  0  0  0
 22 23  2  0  0  0  0
 23 34  1  0  0  0  0
 23 24  1  0  0  0  0
 24 35  1  0  0  0  0
 25 24  2  0  0  0  0
 25 36  1  0  0  0  0
 27  6  1  0  0  0  0
 32 16  1  0  0  0  0
 33 22  1  0  0  0  0
M  END
>  <Pose>
1

>  <Score>
-6.61

$$$$
