
 OpenBabel03172210433D

 45 48  0  0  0  0  0  0  0  0999 V2000
   40.8300   16.0530   47.3050 B   0  0  0  0  0  0  0  0  0  0  0  0
   39.8420   14.6210   46.5220 C   0  0  0  0  0  0  0  0  0  0  0  0
   40.4980   13.6490   45.8250 C   0  0  0  0  0  0  0  0  0  0  0  0
   39.9330   12.5710   45.2140 C   0  0  0  0  0  0  0  0  0  0  0  0
   38.5270   12.5290   45.3620 C   0  0  0  0  0  0  0  0  0  0  0  0
   37.8250   13.4860   46.0560 C   0  0  0  0  0  0  0  0  0  0  0  0
   38.4860   14.5510   46.6470 C   0  0  0  0  0  0  0  0  0  0  0  0
   37.8290   11.4820   44.7880 O   0  0  0  0  0  0  0  0  0  0  0  0
   37.5950   10.2550   45.4070 C   0  0  0  0  0  0  0  0  0  0  0  0
   40.5670   11.5100   44.4840 C   0  0  0  0  0  0  0  0  0  0  0  0
   40.9790   10.2760   44.6750 N   0  0  0  0  0  0  0  0  0  0  0  0
   41.5370    9.7730   43.5290 C   0  0  0  0  0  0  0  0  0  0  0  0
   41.4490   10.7520   42.6010 N   0  0  0  0  0  0  0  0  0  0  0  0
   40.8820   11.7760   43.1440 N   0  0  0  0  0  0  0  0  0  0  0  0
   41.9490    8.5210   43.7410 N   0  0  0  0  0  0  0  0  0  0  0  0
   41.6520    8.2200   45.0150 C   0  0  0  0  0  0  0  0  0  0  0  0
   41.0370    9.3080   45.6250 C   0  0  0  0  0  0  0  0  0  0  0  0
   40.6170    9.2810   46.8750 N   0  0  0  0  0  0  0  0  0  0  0  0
   40.8210    8.1180   47.5700 C   0  0  0  0  0  0  0  0  0  0  0  0
   40.4620    7.9840   48.7670 O   0  0  0  0  0  0  0  0  0  0  0  0
   41.4180    7.0440   47.0120 N   0  0  0  0  0  0  0  0  0  0  0  0
   41.8380    7.0660   45.7530 C   0  0  0  0  0  0  0  0  0  0  0  0
   42.4000    6.1000   45.1770 O   0  0  0  0  0  0  0  0  0  0  0  0
   39.9030   10.2830   47.6070 C   0  0  0  0  0  0  0  0  0  0  0  0
   42.5890    7.6420   42.8060 C   0  0  0  0  0  0  0  0  0  0  0  0
   44.0890    7.7030   43.0030 C   0  0  0  0  0  0  0  0  0  0  0  0
   44.6810    6.8590   42.0840 O   0  0  0  0  0  0  0  0  0  0  0  0
   45.8230    6.2350   42.6140 C   0  0  0  0  0  0  0  0  0  0  0  0
   41.5710   13.7140   45.7170 H   0  0  0  0  0  0  0  0  0  0  0  0
   36.7570   13.4730   46.1810 H   0  0  0  0  0  0  0  0  0  0  0  0
   37.9520   15.3070   47.1930 H   0  0  0  0  0  0  0  0  0  0  0  0
   37.3830   10.3400   46.4920 H   0  0  0  0  0  0  0  0  0  0  0  0
   36.7150    9.7160   44.9720 H   0  0  0  0  0  0  0  0  0  0  0  0
   38.4750    9.5950   45.2390 H   0  0  0  0  0  0  0  0  0  0  0  0
   41.5670    6.1670   47.5540 H   0  0  0  0  0  0  0  0  0  0  0  0
   39.0990   10.7580   47.0280 H   0  0  0  0  0  0  0  0  0  0  0  0
   39.4170    9.7670   48.5070 H   0  0  0  0  0  0  0  0  0  0  0  0
   40.5720   11.0170   48.0430 H   0  0  0  0  0  0  0  0  0  0  0  0
   42.2840    7.8160   41.7580 H   0  0  0  0  0  0  0  0  0  0  0  0
   42.2950    6.5900   43.0940 H   0  0  0  0  0  0  0  0  0  0  0  0
   44.3790    7.3300   44.0160 H   0  0  0  0  0  0  0  0  0  0  0  0
   44.3970    8.7590   42.8660 H   0  0  0  0  0  0  0  0  0  0  0  0
   46.5440    7.0340   42.8960 H   0  0  0  0  0  0  0  0  0  0  0  0
   46.3150    5.6300   41.8400 H   0  0  0  0  0  0  0  0  0  0  0  0
   45.5950    5.6190   43.4850 H   0  0  0  0  0  0  0  0  0  0  0  0
  2  7  1  0  0  0  0
  2  1  1  0  0  0  0
  3  2  2  0  0  0  0
  4  5  2  0  0  0  0
  4  3  1  0  0  0  0
  5  6  1  0  0  0  0
  6 30  1  0  0  0  0
  6  7  2  0  0  0  0
  7 31  1  0  0  0  0
  8  5  1  0  0  0  0
  8  9  1  0  0  0  0
  9 32  1  0  0  0  0
 10 11  1  0  0  0  0
 10  4  1  0  0  0  0
 11 17  1  0  0  0  0
 12 15  1  0  0  0  0
 12 11  1  0  0  0  0
 13 14  1  0  0  0  0
 13 12  2  0  0  0  0
 14 10  2  0  0  0  0
 15 16  1  0  0  0  0
 16 17  2  0  0  0  0
 16 22  1  0  0  0  0
 17 18  1  0  0  0  0
 18 19  1  0  0  0  0
 18 24  1  0  0  0  0
 19 20  2  0  0  0  0
 21 35  1  0  0  0  0
 21 19  1  0  0  0  0
 22 21  1  0  0  0  0
 23 22  2  0  0  0  0
 24 38  1  0  0  0  0
 24 37  1  0  0  0  0
 25 26  1  0  0  0  0
 25 40  1  0  0  0  0
 25 15  1  0  0  0  0
 26 41  1  0  0  0  0
 27 28  1  0  0  0  0
 27 26  1  0  0  0  0
 28 43  1  0  0  0  0
 28 45  1  0  0  0  0
 29  3  1  0  0  0  0
 33  9  1  0  0  0  0
 34  9  1  0  0  0  0
 36 24  1  0  0  0  0
 39 25  1  0  0  0  0
 42 26  1  0  0  0  0
 44 28  1  0  0  0  0
M  END
>  <Pose>
1

>  <Score>
-5.52

$$$$
