
 OpenBabel03172210433D

 50 53  0  0  0  0  0  0  0  0999 V2000
   51.5090    3.8440   45.3630 B   0  0  0  0  0  0  0  0  0  0  0  0
   50.1000    3.4220   44.1550 C   0  0  0  0  0  0  0  0  0  0  0  0
   48.8850    4.0950   44.1750 C   0  0  0  0  0  0  0  0  0  0  0  0
   47.8690    3.7930   43.3070 C   0  0  0  0  0  0  0  0  0  0  0  0
   48.0570    2.7900   42.3850 C   0  0  0  0  0  0  0  0  0  0  0  0
   49.2550    2.1220   42.3590 C   0  0  0  0  0  0  0  0  0  0  0  0
   50.2930    2.4170   43.2330 C   0  0  0  0  0  0  0  0  0  0  0  0
   46.6060    4.5220   43.3570 C   0  0  0  0  0  0  0  0  0  0  0  0
   45.6000    4.0670   43.9600 O   0  0  0  0  0  0  0  0  0  0  0  0
   46.5070    5.8200   42.6870 C   0  0  0  0  0  0  0  0  0  0  0  0
   46.0410    6.8630   43.5140 N   0  0  0  0  0  0  0  0  0  0  0  0
   44.6810    6.8100   43.9010 C   0  0  0  0  0  0  0  0  0  0  0  0
   44.1770    7.9680   44.6740 C   0  0  0  0  0  0  0  0  0  0  0  0
   44.4700    9.1980   44.0120 N   0  0  0  0  0  0  0  0  0  0  0  0
   45.5360    9.2220   43.0520 C   0  0  0  0  0  0  0  0  0  0  0  0
   46.5830    8.1550   43.2710 C   0  0  0  0  0  0  0  0  0  0  0  0
   43.7630   10.3980   44.2900 C   0  0  0  0  0  0  0  0  0  0  0  0
   42.5530   10.5490   43.7530 C   0  0  0  0  0  0  0  0  0  0  0  0
   41.7230    9.7680   42.9120 N   0  0  0  0  0  0  0  0  0  0  0  0
   40.5530   10.5390   42.7270 N   0  0  0  0  0  0  0  0  0  0  0  0
   40.6850   11.7530   43.4430 C   0  0  0  0  0  0  0  0  0  0  0  0
   41.8500   11.8110   44.0690 C   0  0  0  0  0  0  0  0  0  0  0  0
   42.4720   12.7810   44.9050 N   0  0  0  0  0  0  0  0  0  0  0  0
   43.6440   12.5860   45.4000 C   0  0  0  0  0  0  0  0  0  0  0  0
   44.3610   11.4030   45.1340 N   0  0  0  0  0  0  0  0  0  0  0  0
   39.6870   12.8520   43.5210 C   0  0  0  0  0  0  0  0  0  0  0  0
   42.0150    8.4650   42.3640 C   0  0  0  0  0  0  0  0  0  0  0  0
   48.8010    4.8710   44.9230 H   0  0  0  0  0  0  0  0  0  0  0  0
   47.2320    2.5700   41.7060 H   0  0  0  0  0  0  0  0  0  0  0  0
   49.4220    1.3310   41.6430 H   0  0  0  0  0  0  0  0  0  0  0  0
   51.2410    1.8600   43.1820 H   0  0  0  0  0  0  0  0  0  0  0  0
   45.8530    5.7310   41.7790 H   0  0  0  0  0  0  0  0  0  0  0  0
   47.5080    6.1300   42.2610 H   0  0  0  0  0  0  0  0  0  0  0  0
   44.0450    6.5610   43.0320 H   0  0  0  0  0  0  0  0  0  0  0  0
   44.5840    5.9030   44.5770 H   0  0  0  0  0  0  0  0  0  0  0  0
   44.7070    7.9780   45.6650 H   0  0  0  0  0  0  0  0  0  0  0  0
   43.1070    7.8450   44.9320 H   0  0  0  0  0  0  0  0  0  0  0  0
   45.2310    9.3100   42.0030 H   0  0  0  0  0  0  0  0  0  0  0  0
   46.0810   10.1980   43.2590 H   0  0  0  0  0  0  0  0  0  0  0  0
   47.2000    8.1140   42.3490 H   0  0  0  0  0  0  0  0  0  0  0  0
   47.2790    8.4040   44.1010 H   0  0  0  0  0  0  0  0  0  0  0  0
   39.7600   10.2020   42.1420 H   0  0  0  0  0  0  0  0  0  0  0  0
   44.0740   13.3790   46.0420 H   0  0  0  0  0  0  0  0  0  0  0  0
   45.3040   11.2010   45.5070 H   0  0  0  0  0  0  0  0  0  0  0  0
   38.9510   12.7360   42.7020 H   0  0  0  0  0  0  0  0  0  0  0  0
   40.1510   13.8390   43.5720 H   0  0  0  0  0  0  0  0  0  0  0  0
   39.1120   12.7020   44.4770 H   0  0  0  0  0  0  0  0  0  0  0  0
   43.0020    8.3560   41.9230 H   0  0  0  0  0  0  0  0  0  0  0  0
   41.7240    7.6830   43.0950 H   0  0  0  0  0  0  0  0  0  0  0  0
   41.3000    8.3540   41.4830 H   0  0  0  0  0  0  0  0  0  0  0  0
  2  3  1  0  0  0  0
  2  1  1  0  0  0  0
  3 28  1  0  0  0  0
  4  8  1  0  0  0  0
  4  3  2  0  0  0  0
  5  4  1  0  0  0  0
  6  5  2  0  0  0  0
  6  7  1  0  0  0  0
  7  2  2  0  0  0  0
  8  9  2  0  0  0  0
 10  8  1  0  0  0  0
 10 11  1  0  0  0  0
 11 12  1  0  0  0  0
 12 35  1  0  0  0  0
 12 13  1  0  0  0  0
 13 37  1  0  0  0  0
 13 36  1  0  0  0  0
 14 17  1  0  0  0  0
 14 13  1  0  0  0  0
 15 39  1  0  0  0  0
 15 16  1  0  0  0  0
 15 14  1  0  0  0  0
 16 11  1  0  0  0  0
 16 41  1  0  0  0  0
 17 25  1  0  0  0  0
 18 22  1  0  0  0  0
 18 17  2  0  0  0  0
 19 18  1  0  0  0  0
 20 19  1  0  0  0  0
 20 21  1  0  0  0  0
 21 26  1  0  0  0  0
 21 22  2  0  0  0  0
 22 23  1  0  0  0  0
 23 24  2  0  0  0  0
 24 43  1  0  0  0  0
 25 24  1  0  0  0  0
 25 44  1  0  0  0  0
 26 46  1  0  0  0  0
 26 47  1  0  0  0  0
 27 19  1  0  0  0  0
 27 49  1  0  0  0  0
 29  5  1  0  0  0  0
 30  6  1  0  0  0  0
 31  7  1  0  0  0  0
 32 10  1  0  0  0  0
 33 10  1  0  0  0  0
 34 12  1  0  0  0  0
 38 15  1  0  0  0  0
 40 16  1  0  0  0  0
 42 20  1  0  0  0  0
 45 26  1  0  0  0  0
 48 27  1  0  0  0  0
 50 27  1  0  0  0  0
M  END
>  <Pose>
1

>  <Score>
-7.63

$$$$
