
 OpenBabel03172210433D

 52 55  0  0  1  0  0  0  0  0999 V2000
   52.9400    0.2500   41.9810 B   0  0  0  0  0  0  0  0  0  0  0  0
   51.9770    1.4720   43.1170 C   0  0  0  0  0  0  0  0  0  0  0  0
   50.7390    1.9250   42.7300 C   0  0  0  0  0  0  0  0  0  0  0  0
   50.0590    2.8080   43.5420 C   0  0  0  0  0  0  0  0  0  0  0  0
   50.5990    3.2260   44.7160 C   0  0  0  0  0  0  0  0  0  0  0  0
   51.8310    2.7610   45.0850 C   0  0  0  0  0  0  0  0  0  0  0  0
   52.5660    1.8690   44.3000 C   0  0  0  0  0  0  0  0  0  0  0  0
   48.6840    3.2400   43.0910 C   0  0  0  0  0  0  0  0  0  0  0  0
   48.4210    3.0480   41.9170 O   0  0  0  0  0  0  0  0  0  0  0  0
   47.9150    3.7900   44.1120 N   0  0  0  0  0  0  0  0  0  0  0  0
   47.4480    5.1280   44.1530 C   0  0  1  0  0  0  0  0  0  0  0  0
   48.3280    6.1350   43.4300 C   0  0  0  0  0  0  0  0  0  0  0  0
   46.0640    5.2930   43.7320 C   0  0  0  0  0  0  0  0  0  0  0  0
   45.5930    4.4030   42.9580 O   0  0  0  0  0  0  0  0  0  0  0  0
   45.2600    6.3960   44.1410 N   0  0  0  0  0  0  0  0  0  0  0  0
   45.3040    7.6760   43.4800 C   0  0  0  0  0  0  0  0  0  0  0  0
   43.8940    7.7890   42.8540 C   0  0  0  0  0  0  0  0  0  0  0  0
   42.9820    8.0700   44.0190 C   0  0  2  0  0  0  0  0  0  0  0  0
   41.6210    7.8180   43.5480 N   0  0  0  0  0  0  0  0  0  0  0  0
   41.2700    8.5860   42.4120 C   0  0  0  0  0  0  0  0  0  0  0  0
   41.2540   10.0800   42.6830 C   0  0  0  0  0  0  0  0  0  0  0  0
   42.2830   10.4700   43.6650 C   0  0  0  0  0  0  0  0  0  0  0  0
   42.6170   11.6940   44.1050 N   0  0  0  0  0  0  0  0  0  0  0  0
   43.6110   11.5400   45.0070 C   0  0  0  0  0  0  0  0  0  0  0  0
   43.8830   10.2150   45.1120 N   0  0  0  0  0  0  0  0  0  0  0  0
   43.0740    9.5230   44.2870 C   0  0  0  0  0  0  0  0  0  0  0  0
   43.2150    7.2340   45.2280 C   0  0  0  0  0  0  0  0  0  0  0  0
   44.3540    6.2720   45.2260 C   0  0  0  0  0  0  0  0  0  0  0  0
   50.2540    1.6080   41.7950 H   0  0  0  0  0  0  0  0  0  0  0  0
   50.0320    3.9270   45.3660 H   0  0  0  0  0  0  0  0  0  0  0  0
   52.2990    3.0750   46.0220 H   0  0  0  0  0  0  0  0  0  0  0  0
   53.5360    1.4840   44.5890 H   0  0  0  0  0  0  0  0  0  0  0  0
   47.6860    3.1990   44.9670 H   0  0  0  0  0  0  0  0  0  0  0  0
   47.5870    5.4470   45.2300 H   0  0  0  0  0  0  0  0  0  0  0  0
   47.6770    6.9890   43.0590 H   0  0  0  0  0  0  0  0  0  0  0  0
   49.0330    6.6620   44.1710 H   0  0  0  0  0  0  0  0  0  0  0  0
   48.8750    5.7480   42.5980 H   0  0  0  0  0  0  0  0  0  0  0  0
   45.9990    7.7790   42.6340 H   0  0  0  0  0  0  0  0  0  0  0  0
   45.3940    8.5440   44.1230 H   0  0  0  0  0  0  0  0  0  0  0  0
   43.9780    8.6850   42.2110 H   0  0  0  0  0  0  0  0  0  0  0  0
   43.6430    6.9380   42.2390 H   0  0  0  0  0  0  0  0  0  0  0  0
   40.9150    7.8900   44.3240 H   0  0  0  0  0  0  0  0  0  0  0  0
   41.8970    8.3200   41.5550 H   0  0  0  0  0  0  0  0  0  0  0  0
   40.2290    8.3270   42.1240 H   0  0  0  0  0  0  0  0  0  0  0  0
   40.2580   10.3960   43.0960 H   0  0  0  0  0  0  0  0  0  0  0  0
   41.4140   10.5890   41.7060 H   0  0  0  0  0  0  0  0  0  0  0  0
   44.1000   12.3580   45.5510 H   0  0  0  0  0  0  0  0  0  0  0  0
   44.6260    9.9040   45.7690 H   0  0  0  0  0  0  0  0  0  0  0  0
   43.3640    7.9140   46.0920 H   0  0  0  0  0  0  0  0  0  0  0  0
   42.2850    6.6460   45.4910 H   0  0  0  0  0  0  0  0  0  0  0  0
   44.0020    5.2310   45.2450 H   0  0  0  0  0  0  0  0  0  0  0  0
   44.9760    6.3880   46.1690 H   0  0  0  0  0  0  0  0  0  0  0  0
  1  2  1  0  0  0  0
  2  7  1  0  0  0  0
  3  2  2  0  0  0  0
  3  4  1  0  0  0  0
  4  5  2  0  0  0  0
  5  6  1  0  0  0  0
  5 30  1  0  0  0  0
  6 31  1  0  0  0  0
  7 32  1  0  0  0  0
  7  6  2  0  0  0  0
  8  4  1  0  0  0  0
  8 10  1  0  0  0  0
  9  8  2  0  0  0  0
 10 11  1  0  0  0  0
 10 33  1  0  0  0  0
 11 34  1  1  0  0  0
 12 11  1  0  0  0  0
 12 36  1  0  0  0  0
 13 15  1  0  0  0  0
 13 11  1  0  0  0  0
 14 13  2  0  0  0  0
 15 28  1  0  0  0  0
 16 39  1  0  0  0  0
 16 15  1  0  0  0  0
 17 16  1  0  0  0  0
 17 18  1  0  0  0  0
 18 26  1  1  0  0  0
 18 27  1  0  0  0  0
 19 18  1  0  0  0  0
 19 42  1  0  0  0  0
 20 21  1  0  0  0  0
 20 19  1  0  0  0  0
 21 45  1  0  0  0  0
 21 22  1  0  0  0  0
 22 23  1  0  0  0  0
 22 26  2  0  0  0  0
 23 24  2  0  0  0  0
 24 25  1  0  0  0  0
 24 47  1  0  0  0  0
 25 48  1  0  0  0  0
 26 25  1  0  0  0  0
 27 50  1  0  0  0  0
 27 49  1  0  0  0  0
 28 27  1  0  0  0  0
 28 51  1  0  0  0  0
 28 52  1  0  0  0  0
 29  3  1  0  0  0  0
 35 12  1  0  0  0  0
 37 12  1  0  0  0  0
 38 16  1  0  0  0  0
 40 17  1  0  0  0  0
 41 17  1  0  0  0  0
 43 20  1  0  0  0  0
 44 20  1  0  0  0  0
 46 21  1  0  0  0  0
M  END
>  <Pose>
1

>  <Score>
-7.26

$$$$
