
 OpenBabel03172210433D

 48 51  0  0  1  0  0  0  0  0999 V2000
   50.3510    5.4880   47.2490 B   0  0  0  0  0  0  0  0  0  0  0  0
   50.4530    4.3420   45.7200 C   0  0  0  0  0  0  0  0  0  0  0  0
   49.3850    4.2260   44.8740 C   0  0  0  0  0  0  0  0  0  0  0  0
   49.4500    3.3960   43.7620 C   0  0  0  0  0  0  0  0  0  0  0  0
   50.6020    2.7070   43.5440 C   0  0  0  0  0  0  0  0  0  0  0  0
   51.6790    2.8310   44.4070 C   0  0  0  0  0  0  0  0  0  0  0  0
   51.6120    3.6520   45.5050 C   0  0  0  0  0  0  0  0  0  0  0  0
   48.3100    3.2730   42.8690 C   0  0  0  0  0  0  0  0  0  0  0  0
   48.5310    3.1880   41.6050 O   0  0  0  0  0  0  0  0  0  0  0  0
   46.9830    3.2440   43.3440 N   0  0  0  0  0  0  0  0  0  0  0  0
   46.4610    4.4580   43.9460 C   0  0  2  0  0  0  0  0  0  0  0  0
   44.9670    4.5910   43.7210 C   0  0  0  0  0  0  0  0  0  0  0  0
   44.7510    6.0210   43.8240 N   0  0  0  0  0  0  0  0  0  0  0  0
   46.0100    6.7340   43.8830 C   0  0  1  0  0  0  0  0  0  0  0  0
   46.9800    5.7040   43.2870 C   0  0  0  0  0  0  0  0  0  0  0  0
   45.9090    7.9300   43.0490 C   0  0  0  0  0  0  0  0  0  0  0  0
   46.7410    8.1760   42.1630 O   0  0  0  0  0  0  0  0  0  0  0  0
   44.8210    8.8110   43.2820 N   0  0  0  0  0  0  0  0  0  0  0  0
   43.5950    8.2930   43.8470 C   0  0  1  0  0  0  0  0  0  0  0  0
   43.5560    6.8140   43.8770 C   0  0  0  0  0  0  0  0  0  0  0  0
   42.4480    6.2210   43.9500 O   0  0  0  0  0  0  0  0  0  0  0  0
   43.2780    8.8980   45.1980 C   0  0  0  0  0  0  0  0  0  0  0  0
   42.0660    9.7330   45.1910 C   0  0  0  0  0  0  0  0  0  0  0  0
   41.0230    9.4390   46.0500 C   0  0  0  0  0  0  0  0  0  0  0  0
   39.8860   10.2140   46.0500 C   0  0  0  0  0  0  0  0  0  0  0  0
   39.7260   11.3020   45.2120 C   0  0  0  0  0  0  0  0  0  0  0  0
   40.7640   11.5980   44.3540 C   0  0  0  0  0  0  0  0  0  0  0  0
   41.9120   10.8300   44.3410 C   0  0  0  0  0  0  0  0  0  0  0  0
   48.4470    4.7670   45.0240 H   0  0  0  0  0  0  0  0  0  0  0  0
   50.6820    2.0440   42.6790 H   0  0  0  0  0  0  0  0  0  0  0  0
   52.5920    2.2850   44.2350 H   0  0  0  0  0  0  0  0  0  0  0  0
   52.4420    3.7690   46.2020 H   0  0  0  0  0  0  0  0  0  0  0  0
   46.4250    2.3850   43.2510 H   0  0  0  0  0  0  0  0  0  0  0  0
   46.6350    4.5100   45.0180 H   0  0  0  0  0  0  0  0  0  0  0  0
   44.6600    4.2490   42.7090 H   0  0  0  0  0  0  0  0  0  0  0  0
   44.3850    4.0350   44.4880 H   0  0  0  0  0  0  0  0  0  0  0  0
   46.3160    6.9850   44.9210 H   0  0  0  0  0  0  0  0  0  0  0  0
   47.9820    6.0060   43.6290 H   0  0  0  0  0  0  0  0  0  0  0  0
   46.8420    5.7230   42.2000 H   0  0  0  0  0  0  0  0  0  0  0  0
   44.8670    9.8310   43.0600 H   0  0  0  0  0  0  0  0  0  0  0  0
   42.7760    8.6690   43.1620 H   0  0  0  0  0  0  0  0  0  0  0  0
   43.1940    8.0760   45.9340 H   0  0  0  0  0  0  0  0  0  0  0  0
   44.1300    9.5410   45.4720 H   0  0  0  0  0  0  0  0  0  0  0  0
   41.0500    8.6070   46.7460 H   0  0  0  0  0  0  0  0  0  0  0  0
   39.0670    9.9890   46.7190 H   0  0  0  0  0  0  0  0  0  0  0  0
   38.8080   11.8930   45.2420 H   0  0  0  0  0  0  0  0  0  0  0  0
   40.6370   12.4570   43.6930 H   0  0  0  0  0  0  0  0  0  0  0  0
   42.7080   11.0910   43.6540 H   0  0  0  0  0  0  0  0  0  0  0  0
  2  1  1  0  0  0  0
  3 29  1  0  0  0  0
  3  2  2  0  0  0  0
  4  3  1  0  0  0  0
  5  4  2  0  0  0  0
  5  6  1  0  0  0  0
  6  7  2  0  0  0  0
  7  2  1  0  0  0  0
  7 32  1  0  0  0  0
  8 10  1  0  0  0  0
  8  4  1  0  0  0  0
  9  8  2  0  0  0  0
 10 11  1  0  0  0  0
 11 34  1  1  0  0  0
 12 13  1  0  0  0  0
 12 11  1  0  0  0  0
 12 36  1  0  0  0  0
 13 20  1  0  0  0  0
 13 14  1  0  0  0  0
 14 37  1  1  0  0  0
 15 38  1  0  0  0  0
 15 14  1  0  0  0  0
 15 11  1  0  0  0  0
 16 18  1  0  0  0  0
 16 14  1  0  0  0  0
 17 16  2  0  0  0  0
 18 19  1  0  0  0  0
 19 41  1  6  0  0  0
 19 20  1  0  0  0  0
 19 22  1  0  0  0  0
 20 21  2  0  0  0  0
 22 43  1  0  0  0  0
 22 42  1  0  0  0  0
 23 22  1  0  0  0  0
 23 24  1  0  0  0  0
 24 44  1  0  0  0  0
 25 24  2  0  0  0  0
 25 45  1  0  0  0  0
 26 46  1  0  0  0  0
 26 25  1  0  0  0  0
 27 26  2  0  0  0  0
 28 27  1  0  0  0  0
 28 23  2  0  0  0  0
 30  5  1  0  0  0  0
 31  6  1  0  0  0  0
 33 10  1  0  0  0  0
 35 12  1  0  0  0  0
 39 15  1  0  0  0  0
 40 18  1  0  0  0  0
 47 27  1  0  0  0  0
 48 28  1  0  0  0  0
M  END
>  <Pose>
1

>  <Score>
-6.84

$$$$
