
 OpenBabel03172210433D

 42 45  0  0  1  0  0  0  0  0999 V2000
   40.9990    9.6860   42.7920 B   0  0  0  0  0  0  0  0  0  0  0  0
   42.1490    8.3420   43.4850 C   0  0  0  0  0  0  0  0  0  0  0  0
   43.3450    8.0160   42.8930 C   0  0  0  0  0  0  0  0  0  0  0  0
   44.1660    7.0300   43.3830 C   0  0  0  0  0  0  0  0  0  0  0  0
   43.7840    6.3400   44.5050 C   0  0  0  0  0  0  0  0  0  0  0  0
   42.5820    6.6380   45.1360 C   0  0  0  0  0  0  0  0  0  0  0  0
   41.7890    7.6250   44.6230 C   0  0  0  0  0  0  0  0  0  0  0  0
   45.4750    6.6940   42.7030 C   0  0  0  0  0  0  0  0  0  0  0  0
   45.5930    7.3260   41.6090 O   0  0  0  0  0  0  0  0  0  0  0  0
   46.3310    5.8040   43.3040 N   0  0  0  0  0  0  0  0  0  0  0  0
   47.1610    4.9420   43.8790 C   0  0  2  0  0  0  0  0  0  0  0  0
   48.4470    5.6220   44.4770 C   0  0  0  0  0  0  0  0  0  0  0  0
   49.3210    4.5250   44.7210 N   0  0  0  0  0  0  0  0  0  0  0  0
   48.9070    3.3930   43.9050 C   0  0  1  0  0  0  0  0  0  0  0  0
   47.9330    3.9550   42.9510 C   0  0  0  0  0  0  0  0  0  0  0  0
   50.0840    2.7090   43.3470 C   0  0  0  0  0  0  0  0  0  0  0  0
   50.0510    2.2900   42.1770 O   0  0  0  0  0  0  0  0  0  0  0  0
   51.2430    2.5270   44.1350 N   0  0  0  0  0  0  0  0  0  0  0  0
   51.5910    3.5140   45.1330 C   0  0  2  0  0  0  0  0  0  0  0  0
   52.2590    2.7410   46.2530 C   0  0  0  0  0  0  0  0  0  0  0  0
   52.3510    1.3420   45.7530 C   0  0  0  0  0  0  0  0  0  0  0  0
   52.2860    1.5100   44.2280 C   0  0  0  0  0  0  0  0  0  0  0  0
   50.4580    4.3300   45.5550 C   0  0  0  0  0  0  0  0  0  0  0  0
   50.4690    4.8930   46.7050 O   0  0  0  0  0  0  0  0  0  0  0  0
   43.6740    8.5460   42.0090 H   0  0  0  0  0  0  0  0  0  0  0  0
   44.3700    5.5580   44.9340 H   0  0  0  0  0  0  0  0  0  0  0  0
   42.3050    6.0690   46.0320 H   0  0  0  0  0  0  0  0  0  0  0  0
   40.8410    7.8760   45.1040 H   0  0  0  0  0  0  0  0  0  0  0  0
   46.3850    5.0920   42.1260 H   0  0  0  0  0  0  0  0  0  0  0  0
   46.8680    4.2770   44.7410 H   0  0  0  0  0  0  0  0  0  0  0  0
   48.7650    6.3310   43.7160 H   0  0  0  0  0  0  0  0  0  0  0  0
   48.1220    6.1650   45.3770 H   0  0  0  0  0  0  0  0  0  0  0  0
   48.3800    2.6370   44.5400 H   0  0  0  0  0  0  0  0  0  0  0  0
   47.2090    3.2350   42.5260 H   0  0  0  0  0  0  0  0  0  0  0  0
   48.3800    4.5880   42.1690 H   0  0  0  0  0  0  0  0  0  0  0  0
   52.4050    4.2020   44.7470 H   0  0  0  0  0  0  0  0  0  0  0  0
   51.6200    2.8080   47.1870 H   0  0  0  0  0  0  0  0  0  0  0  0
   53.2780    3.1010   46.4830 H   0  0  0  0  0  0  0  0  0  0  0  0
   51.4570    0.7800   46.1170 H   0  0  0  0  0  0  0  0  0  0  0  0
   53.2750    0.8090   46.0570 H   0  0  0  0  0  0  0  0  0  0  0  0
   53.2540    1.8450   43.8650 H   0  0  0  0  0  0  0  0  0  0  0  0
   52.0230    0.5460   43.8060 H   0  0  0  0  0  0  0  0  0  0  0  0
  1  2  1  0  0  0  0
  2  7  1  0  0  0  0
  3  4  1  0  0  0  0
  3  2  2  0  0  0  0
  4  5  2  0  0  0  0
  5 26  1  0  0  0  0
  5  6  1  0  0  0  0
  6 27  1  0  0  0  0
  7 28  1  0  0  0  0
  7  6  2  0  0  0  0
  8 10  1  0  0  0  0
  8  4  1  0  0  0  0
  9  8  2  0  0  0  0
 10 11  1  0  0  0  0
 11 12  1  0  0  0  0
 11 30  1  1  0  0  0
 12 13  1  0  0  0  0
 12 32  1  0  0  0  0
 13 23  1  0  0  0  0
 14 33  1  1  0  0  0
 14 13  1  0  0  0  0
 15 11  1  0  0  0  0
 15 14  1  0  0  0  0
 16 14  1  0  0  0  0
 16 18  1  0  0  0  0
 17 16  2  0  0  0  0
 18 22  1  0  0  0  0
 18 19  1  0  0  0  0
 19 36  1  6  0  0  0
 19 23  1  0  0  0  0
 19 20  1  0  0  0  0
 20 38  1  0  0  0  0
 20 37  1  0  0  0  0
 21 40  1  0  0  0  0
 21 39  1  0  0  0  0
 21 20  1  0  0  0  0
 22 21  1  0  0  0  0
 23 24  2  0  0  0  0
 25  3  1  0  0  0  0
 29 10  1  0  0  0  0
 31 12  1  0  0  0  0
 34 15  1  0  0  0  0
 35 15  1  0  0  0  0
 41 22  1  0  0  0  0
 42 22  1  0  0  0  0
M  END
>  <Pose>
1

>  <Score>
-5.81

$$$$
