
 OpenBabel03172210433D

 42 45  0  0  1  0  0  0  0  0999 V2000
   43.8780   12.5410   45.2420 B   0  0  0  0  0  0  0  0  0  0  0  0
   43.1000   11.1580   44.1950 C   0  0  0  0  0  0  0  0  0  0  0  0
   43.6710    9.9170   44.0750 C   0  0  0  0  0  0  0  0  0  0  0  0
   43.1310    8.9020   43.3270 C   0  0  0  0  0  0  0  0  0  0  0  0
   41.9520    9.1710   42.6730 C   0  0  0  0  0  0  0  0  0  0  0  0
   41.3350   10.4270   42.7690 C   0  0  0  0  0  0  0  0  0  0  0  0
   41.9180   11.4220   43.5370 C   0  0  0  0  0  0  0  0  0  0  0  0
   43.7470    7.5920   43.2100 C   0  0  0  0  0  0  0  0  0  0  0  0
   42.9560    6.5960   43.3610 O   0  0  0  0  0  0  0  0  0  0  0  0
   45.1140    7.3540   42.9490 N   0  0  0  0  0  0  0  0  0  0  0  0
   45.7590    6.2180   43.4940 C   0  0  2  0  0  0  0  0  0  0  0  0
   47.0000    6.5000   44.2740 C   0  0  0  0  0  0  0  0  0  0  0  0
   47.6870    5.1960   44.2790 N   0  0  0  0  0  0  0  0  0  0  0  0
   47.0610    4.3230   43.2970 C   0  0  1  0  0  0  0  0  0  0  0  0
   46.3080    5.2720   42.4160 C   0  0  0  0  0  0  0  0  0  0  0  0
   48.1180    3.5790   42.6180 C   0  0  0  0  0  0  0  0  0  0  0  0
   48.0330    3.3010   41.4160 O   0  0  0  0  0  0  0  0  0  0  0  0
   49.2770    3.1630   43.3540 N   0  0  0  0  0  0  0  0  0  0  0  0
   49.1960    3.2890   44.7890 C   0  0  1  0  0  0  0  0  0  0  0  0
   50.4810    2.9240   45.4100 C   0  0  0  0  0  0  0  0  0  0  0  0
   51.1760    2.1650   44.2970 C   0  0  0  0  0  0  0  0  0  0  0  0
   50.5610    2.6270   43.0200 C   0  0  0  0  0  0  0  0  0  0  0  0
   48.7870    4.7130   45.0440 C   0  0  0  0  0  0  0  0  0  0  0  0
   49.3800    5.4300   45.8810 O   0  0  0  0  0  0  0  0  0  0  0  0
   44.6050    9.6990   44.5920 H   0  0  0  0  0  0  0  0  0  0  0  0
   41.4590    8.4310   42.0620 H   0  0  0  0  0  0  0  0  0  0  0  0
   40.4080   10.6380   42.2550 H   0  0  0  0  0  0  0  0  0  0  0  0
   41.4070   12.3740   43.5820 H   0  0  0  0  0  0  0  0  0  0  0  0
   45.6380    8.0230   42.3550 H   0  0  0  0  0  0  0  0  0  0  0  0
   45.0980    5.5900   44.1220 H   0  0  0  0  0  0  0  0  0  0  0  0
   47.6120    7.2220   43.6610 H   0  0  0  0  0  0  0  0  0  0  0  0
   46.8460    6.8900   45.2790 H   0  0  0  0  0  0  0  0  0  0  0  0
   46.3580    3.6560   43.8600 H   0  0  0  0  0  0  0  0  0  0  0  0
   47.0070    5.7850   41.7530 H   0  0  0  0  0  0  0  0  0  0  0  0
   45.4580    4.7850   41.8970 H   0  0  0  0  0  0  0  0  0  0  0  0
   48.3240    2.6850   45.1630 H   0  0  0  0  0  0  0  0  0  0  0  0
   50.2850    2.1900   46.2320 H   0  0  0  0  0  0  0  0  0  0  0  0
   51.0810    3.7490   45.8120 H   0  0  0  0  0  0  0  0  0  0  0  0
   50.9700    1.0610   44.4040 H   0  0  0  0  0  0  0  0  0  0  0  0
   52.2560    2.3410   44.3890 H   0  0  0  0  0  0  0  0  0  0  0  0
   51.2450    3.3810   42.5680 H   0  0  0  0  0  0  0  0  0  0  0  0
   50.4860    1.7510   42.3130 H   0  0  0  0  0  0  0  0  0  0  0  0
  2  1  1  0  0  0  0
  3  2  1  0  0  0  0
  3 25  1  0  0  0  0
  4  3  2  0  0  0  0
  5  6  2  0  0  0  0
  5  4  1  0  0  0  0
  6  7  1  0  0  0  0
  7 28  1  0  0  0  0
  7  2  2  0  0  0  0
  8  4  1  0  0  0  0
  8  9  2  0  0  0  0
 10  8  1  0  0  0  0
 10 11  1  0  0  0  0
 11 30  1  1  0  0  0
 11 12  1  0  0  0  0
 12 13  1  0  0  0  0
 12 32  1  0  0  0  0
 13 23  1  0  0  0  0
 14 33  1  1  0  0  0
 14 13  1  0  0  0  0
 15 14  1  0  0  0  0
 15 11  1  0  0  0  0
 16 14  1  0  0  0  0
 16 18  1  0  0  0  0
 17 16  2  0  0  0  0
 18 19  1  0  0  0  0
 19 23  1  0  0  0  0
 19 36  1  1  0  0  0
 19 20  1  0  0  0  0
 20 38  1  0  0  0  0
 20 37  1  0  0  0  0
 21 40  1  0  0  0  0
 21 39  1  0  0  0  0
 21 20  1  0  0  0  0
 22 18  1  0  0  0  0
 22 21  1  0  0  0  0
 23 24  2  0  0  0  0
 26  5  1  0  0  0  0
 27  6  1  0  0  0  0
 29 10  1  0  0  0  0
 31 12  1  0  0  0  0
 34 15  1  0  0  0  0
 35 15  1  0  0  0  0
 41 22  1  0  0  0  0
 42 22  1  0  0  0  0
M  END
>  <Pose>
1

>  <Score>
-6.19

$$$$
