
 OpenBabel03172210433D

 44 47  0  0  0  0  0  0  0  0999 V2000
   50.0990    2.9830   48.7080 B   0  0  0  0  0  0  0  0  0  0  0  0
   50.9780    3.0630   47.0160 C   0  0  0  0  0  0  0  0  0  0  0  0
   50.2450    2.6920   45.8810 C   0  0  0  0  0  0  0  0  0  0  0  0
   50.8050    2.7380   44.5950 C   0  0  0  0  0  0  0  0  0  0  0  0
   52.1020    3.1520   44.4980 C   0  0  0  0  0  0  0  0  0  0  0  0
   52.8620    3.5320   45.6250 C   0  0  0  0  0  0  0  0  0  0  0  0
   52.2560    3.4750   46.9070 C   0  0  0  0  0  0  0  0  0  0  0  0
   49.9010    2.7210   43.4130 C   0  0  0  0  0  0  0  0  0  0  0  0
   48.9210    3.6250   43.3070 C   0  0  0  0  0  0  0  0  0  0  0  0
   48.6340    4.5850   44.1860 O   0  0  0  0  0  0  0  0  0  0  0  0
   47.5490    5.3650   43.7130 C   0  0  0  0  0  0  0  0  0  0  0  0
   47.1200    4.9160   42.5090 C   0  0  0  0  0  0  0  0  0  0  0  0
   46.1050    5.6250   41.8710 C   0  0  0  0  0  0  0  0  0  0  0  0
   45.5510    6.7190   42.4580 C   0  0  0  0  0  0  0  0  0  0  0  0
   45.9900    7.1320   43.7000 C   0  0  0  0  0  0  0  0  0  0  0  0
   46.9910    6.4870   44.3850 C   0  0  0  0  0  0  0  0  0  0  0  0
   47.2400    6.4840   45.8120 C   0  0  0  0  0  0  0  0  0  0  0  0
   47.9430    7.1250   46.7670 N   0  0  0  0  0  4  0  0  0  0  0  0
   47.5910    7.2950   48.1080 C   0  0  0  0  0  0  0  0  0  0  0  0
   48.2090    6.2420   49.0560 C   0  0  0  0  0  0  0  0  0  0  0  0
   49.5780    6.3220   49.1420 O   0  0  0  0  0  0  0  0  0  0  0  0
   50.1110    6.6050   47.8790 C   0  0  0  0  0  0  0  0  0  0  0  0
   49.2320    6.2540   46.7970 C   0  0  0  0  0  0  0  0  0  0  0  0
   45.3820    8.2550   44.2670 O   0  0  0  0  0  0  0  0  0  0  0  0
   47.9810    3.7540   42.1860 C   0  0  0  0  0  0  0  0  0  0  0  0
   47.9140    3.0350   41.1720 O   0  0  0  0  0  0  0  0  0  0  0  0
   49.2520    2.4170   46.0310 H   0  0  0  0  0  0  0  0  0  0  0  0
   52.6060    3.2250   43.5710 H   0  0  0  0  0  0  0  0  0  0  0  0
   53.8720    3.8760   45.6170 H   0  0  0  0  0  0  0  0  0  0  0  0
   52.8060    3.7760   47.7690 H   0  0  0  0  0  0  0  0  0  0  0  0
   49.9980    1.9770   42.6550 H   0  0  0  0  0  0  0  0  0  0  0  0
   45.7630    5.2910   40.9260 H   0  0  0  0  0  0  0  0  0  0  0  0
   44.7490    7.2940   41.9420 H   0  0  0  0  0  0  0  0  0  0  0  0
   46.0460    6.9210   46.1360 H   0  0  0  0  0  0  0  0  0  0  0  0
   46.8830    5.3870   46.1920 H   0  0  0  0  0  0  0  0  0  0  0  0
   48.3090    8.0720   46.3730 H   0  0  0  0  0  0  0  0  0  0  0  0
   46.5090    7.3270   48.3170 H   0  0  0  0  0  0  0  0  0  0  0  0
   48.0280    8.2980   48.5230 H   0  0  0  0  0  0  0  0  0  0  0  0
   47.8150    5.2430   48.7790 H   0  0  0  0  0  0  0  0  0  0  0  0
   47.8120    6.5290   50.0770 H   0  0  0  0  0  0  0  0  0  0  0  0
   50.5130    7.6150   47.7570 H   0  0  0  0  0  0  0  0  0  0  0  0
   51.0160    5.9110   47.7660 H   0  0  0  0  0  0  0  0  0  0  0  0
   48.7760    5.2020   46.8680 H   0  0  0  0  0  0  0  0  0  0  0  0
   49.6320    6.3860   45.8310 H   0  0  0  0  0  0  0  0  0  0  0  0
  2  1  1  0  0  0  0
  3 27  1  0  0  0  0
  3  2  2  0  0  0  0
  4  3  1  0  0  0  0
  5  4  2  0  0  0  0
  5  6  1  0  0  0  0
  6  7  2  0  0  0  0
  7  2  1  0  0  0  0
  7 30  1  0  0  0  0
  8  4  1  0  0  0  0
  9  8  2  0  0  0  0
  9 10  1  0  0  0  0
 11 10  1  0  0  0  0
 11 16  1  0  0  0  0
 12 11  2  0  0  0  0
 13 14  2  0  0  0  0
 13 12  1  0  0  0  0
 14 15  1  0  0  0  0
 15 24  1  0  0  0  0
 15 16  2  0  0  0  0
 16 17  1  0  0  0  0
 17 34  1  0  0  0  0
 17 35  1  0  0  0  0
 17 18  1  0  0  0  0
 18 23  1  0  0  0  0
 18 19  1  0  0  0  0
 19 37  1  0  0  0  0
 19 38  1  0  0  0  0
 19 20  1  0  0  0  0
 20 21  1  0  0  0  0
 20 40  1  0  0  0  0
 22 21  1  0  0  0  0
 23 43  1  0  0  0  0
 23 22  1  0  0  0  0
 25 12  1  0  0  0  0
 25  9  1  0  0  0  0
 26 25  2  0  0  0  0
 28  5  1  0  0  0  0
 29  6  1  0  0  0  0
 31  8  1  0  0  0  0
 32 13  1  0  0  0  0
 33 14  1  0  0  0  0
 36 18  1  0  0  0  0
 39 20  1  0  0  0  0
 41 22  1  0  0  0  0
 42 22  1  0  0  0  0
 44 23  1  0  0  0  0
M  END
>  <Pose>
1

>  <Score>
-5.33

$$$$
