
 OpenBabel03172210433D

 52 55  0  0  0  0  0  0  0  0999 V2000
   50.6530    1.4350   42.6270 B   0  0  0  0  0  0  0  0  0  0  0  0
   50.4250    2.8210   43.9320 C   0  0  0  0  0  0  0  0  0  0  0  0
   49.2830    3.6200   43.9570 C   0  0  0  0  0  0  0  0  0  0  0  0
   49.1820    4.6270   44.8970 C   0  0  0  0  0  0  0  0  0  0  0  0
   50.2290    4.7930   45.7870 C   0  0  0  0  0  0  0  0  0  0  0  0
   51.3270    3.9860   45.7280 C   0  0  0  0  0  0  0  0  0  0  0  0
   51.4900    2.9800   44.8120 C   0  0  0  0  0  0  0  0  0  0  0  0
   48.1020    5.6310   44.9540 C   0  0  0  0  0  0  0  0  0  0  0  0
   46.9770    5.4920   44.3110 N   0  0  0  0  0  0  0  0  0  0  0  0
   45.9580    6.3220   44.2710 N   0  0  0  0  0  0  0  0  0  0  0  0
   45.1290    7.2330   43.6840 C   0  0  0  0  0  0  0  0  0  0  0  0
   45.3920    8.0430   42.7680 O   0  0  0  0  0  0  0  0  0  0  0  0
   43.7000    7.2350   44.2090 C   0  0  0  0  0  0  0  0  0  0  0  0
   42.8190    6.2980   44.2930 N   0  0  0  0  0  0  0  0  0  0  0  0
   41.7790    6.7150   45.0090 N   0  0  0  0  0  0  0  0  0  0  0  0
   42.0150    7.9900   45.4150 N   0  0  0  0  0  0  0  0  0  0  0  0
   43.1540    8.3660   44.9340 C   0  0  0  0  0  0  0  0  0  0  0  0
   43.9370    9.5970   44.9400 C   0  0  0  0  0  0  0  0  0  0  0  0
   43.8030   10.5960   43.9810 N   0  0  0  0  0  0  0  0  0  0  0  0
   43.5820   10.6450   42.6580 C   0  0  0  0  0  0  0  0  0  0  0  0
   42.1400   11.1710   42.4200 C   0  0  0  0  0  0  0  0  0  0  0  0
   41.3840   10.8700   43.5820 N   0  0  0  0  0  0  0  0  0  0  0  0
   41.7870   11.6900   44.6850 C   0  0  0  0  0  0  0  0  0  0  0  0
   43.3100   11.8610   44.6040 C   0  0  0  0  0  0  0  0  0  0  0  0
   40.0150   10.5950   43.4690 C   0  0  0  0  0  0  0  0  0  0  0  0
   41.2620    8.4580   46.5690 C   0  0  0  0  0  0  0  0  0  0  0  0
   41.8890    8.1430   47.8300 N   0  0  0  0  0  0  0  0  0  0  0  0
   41.2050    8.5580   48.7870 O   0  0  0  0  0  0  0  0  0  0  0  0
   40.1380    9.1380   48.3280 N   0  0  0  0  0  0  0  0  0  0  0  0
   40.1900    9.0690   46.9360 C   0  0  0  0  0  0  0  0  0  0  0  0
   39.1450    9.6350   46.1790 N   0  0  0  0  0  0  0  0  0  0  0  0
   48.5040    3.4570   43.2500 H   0  0  0  0  0  0  0  0  0  0  0  0
   50.1240    5.5850   46.5210 H   0  0  0  0  0  0  0  0  0  0  0  0
   52.1600    4.1140   46.4550 H   0  0  0  0  0  0  0  0  0  0  0  0
   52.3750    2.3770   44.7960 H   0  0  0  0  0  0  0  0  0  0  0  0
   48.2340    6.5700   45.4470 H   0  0  0  0  0  0  0  0  0  0  0  0
   45.4280    6.1300   45.3570 H   0  0  0  0  0  0  0  0  0  0  0  0
   43.5340   10.1030   45.9960 H   0  0  0  0  0  0  0  0  0  0  0  0
   44.9870    9.4870   45.2270 H   0  0  0  0  0  0  0  0  0  0  0  0
   43.7790    9.8120   42.0120 H   0  0  0  0  0  0  0  0  0  0  0  0
   44.2510   11.4910   42.2160 H   0  0  0  0  0  0  0  0  0  0  0  0
   42.1780   12.2320   42.2510 H   0  0  0  0  0  0  0  0  0  0  0  0
   41.7510   10.6060   41.5680 H   0  0  0  0  0  0  0  0  0  0  0  0
   41.5470   11.2560   45.7040 H   0  0  0  0  0  0  0  0  0  0  0  0
   41.2850   12.6620   44.6360 H   0  0  0  0  0  0  0  0  0  0  0  0
   43.7950   12.0460   45.5280 H   0  0  0  0  0  0  0  0  0  0  0  0
   43.5360   12.6440   43.9050 H   0  0  0  0  0  0  0  0  0  0  0  0
   39.7350   10.6770   42.3790 H   0  0  0  0  0  0  0  0  0  0  0  0
   39.8470    9.5120   43.7690 H   0  0  0  0  0  0  0  0  0  0  0  0
   39.3760   11.2570   44.0540 H   0  0  0  0  0  0  0  0  0  0  0  0
   38.6650    8.9170   45.5300 H   0  0  0  0  0  0  0  0  0  0  0  0
   38.7730   10.5640   46.1310 H   0  0  0  0  0  0  0  0  0  0  0  0
  1  2  1  0  0  0  0
  2  3  2  0  0  0  0
  2  7  1  0  0  0  0
  3  4  1  0  0  0  0
  4  8  1  0  0  0  0
  4  5  2  0  0  0  0
  5 33  1  0  0  0  0
  6  5  1  0  0  0  0
  6 34  1  0  0  0  0
  7  6  2  0  0  0  0
  8 36  1  0  0  0  0
  9  8  2  0  0  0  0
 10  9  1  0  0  0  0
 10 37  1  0  0  0  0
 11 13  1  0  0  0  0
 11 10  1  0  0  0  0
 12 11  2  0  0  0  0
 13 14  1  0  0  0  0
 13 17  2  0  0  0  0
 14 15  2  0  0  0  0
 15 16  1  0  0  0  0
 16 26  1  0  0  0  0
 17 18  1  0  0  0  0
 17 16  1  0  0  0  0
 18 39  1  0  0  0  0
 18 38  1  0  0  0  0
 19 24  1  0  0  0  0
 19 18  1  0  0  0  0
 20 19  1  0  0  0  0
 21 20  1  0  0  0  0
 21 22  1  0  0  0  0
 22 23  1  0  0  0  0
 23 44  1  0  0  0  0
 24 23  1  0  0  0  0
 24 46  1  0  0  0  0
 25 22  1  0  0  0  0
 25 49  1  0  0  0  0
 25 50  1  0  0  0  0
 26 30  1  0  0  0  0
 26 27  2  0  0  0  0
 27 28  1  0  0  0  0
 29 28  1  0  0  0  0
 30 29  2  0  0  0  0
 31 30  1  0  0  0  0
 32  3  1  0  0  0  0
 35  7  1  0  0  0  0
 40 20  1  0  0  0  0
 41 20  1  0  0  0  0
 42 21  1  0  0  0  0
 43 21  1  0  0  0  0
 45 23  1  0  0  0  0
 47 24  1  0  0  0  0
 48 25  1  0  0  0  0
 51 31  1  0  0  0  0
 52 31  1  0  0  0  0
M  END
>  <Pose>
1

>  <Score>
-7.09

$$$$
