
 OpenBabel03172210433D

 50 53  0  0  0  0  0  0  0  0999 V2000
   37.5740   11.5570   46.5320 B   0  0  0  0  0  0  0  0  0  0  0  0
   38.7620   10.3430   47.4180 C   0  0  0  0  0  0  0  0  0  0  0  0
   39.7070    9.6320   46.7190 C   0  0  0  0  0  0  0  0  0  0  0  0
   40.5860    8.7440   47.3140 C   0  0  0  0  0  0  0  0  0  0  0  0
   40.4760    8.5940   48.6790 C   0  0  0  0  0  0  0  0  0  0  0  0
   39.5320    9.2970   49.4230 C   0  0  0  0  0  0  0  0  0  0  0  0
   38.6770   10.1700   48.7840 C   0  0  0  0  0  0  0  0  0  0  0  0
   41.5780    8.0050   46.5440 C   0  0  0  0  0  0  0  0  0  0  0  0
   41.4140    6.8030   46.1490 N   0  0  0  0  0  0  0  0  0  0  0  0
   42.3490    6.0710   45.4120 N   0  0  0  0  0  0  0  0  0  0  0  0
   43.3110    6.7140   44.5850 C   0  0  0  0  0  0  0  0  0  0  0  0
   44.4650    6.1040   44.2990 N   0  0  0  0  0  4  0  0  0  0  0  0
   45.4280    6.6650   43.5150 C   0  0  0  0  0  0  0  0  0  0  0  0
   45.1450    7.8950   43.0340 N   0  0  0  0  0  0  0  0  0  0  0  0
   44.0040    8.5590   43.2860 C   0  0  0  0  0  0  0  0  0  0  0  0
   43.1010    7.9270   44.0760 N   0  0  0  0  0  0  0  0  0  0  0  0
   43.7340    9.8390   42.7730 N   0  0  0  0  0  0  0  0  0  0  0  0
   43.7630   10.1180   41.3630 C   0  0  0  0  0  0  0  0  0  0  0  0
   42.6160   11.1060   41.1080 C   0  0  0  0  0  0  0  0  0  0  0  0
   41.6190   10.9460   42.0670 O   0  0  0  0  0  0  0  0  0  0  0  0
   41.9820   11.3480   43.3280 C   0  0  0  0  0  0  0  0  0  0  0  0
   43.4170   10.9180   43.6640 C   0  0  0  0  0  0  0  0  0  0  0  0
   46.6400    6.0000   43.2260 N   0  0  0  0  0  0  0  0  0  0  0  0
   47.7790    6.1410   44.0900 C   0  0  0  0  0  0  0  0  0  0  0  0
   48.2220    4.7330   44.4720 C   0  0  0  0  0  0  0  0  0  0  0  0
   48.5440    4.0900   43.2790 O   0  0  0  0  0  0  0  0  0  0  0  0
   47.4330    3.8600   42.4890 C   0  0  0  0  0  0  0  0  0  0  0  0
   46.7690    5.1660   42.0630 C   0  0  0  0  0  0  0  0  0  0  0  0
   39.7970    9.7480   45.6370 H   0  0  0  0  0  0  0  0  0  0  0  0
   41.1350    7.9120   49.2170 H   0  0  0  0  0  0  0  0  0  0  0  0
   39.4420    9.1820   50.4950 H   0  0  0  0  0  0  0  0  0  0  0  0
   37.9560   10.7030   49.3770 H   0  0  0  0  0  0  0  0  0  0  0  0
   42.5020    8.5070   46.2980 H   0  0  0  0  0  0  0  0  0  0  0  0
   42.3230    5.0330   45.4810 H   0  0  0  0  0  0  0  0  0  0  0  0
   43.6430    9.2120   40.7380 H   0  0  0  0  0  0  0  0  0  0  0  0
   44.6940   10.6680   41.1470 H   0  0  0  0  0  0  0  0  0  0  0  0
   42.1770   10.8220   40.1400 H   0  0  0  0  0  0  0  0  0  0  0  0
   42.9730   12.1420   41.0810 H   0  0  0  0  0  0  0  0  0  0  0  0
   41.8210   12.4050   43.5430 H   0  0  0  0  0  0  0  0  0  0  0  0
   41.3380   10.7720   44.0560 H   0  0  0  0  0  0  0  0  0  0  0  0
   43.4910   10.5690   44.6980 H   0  0  0  0  0  0  0  0  0  0  0  0
   44.0900   11.8090   43.4800 H   0  0  0  0  0  0  0  0  0  0  0  0
   47.5860    6.7630   44.9780 H   0  0  0  0  0  0  0  0  0  0  0  0
   48.6150    6.5550   43.4640 H   0  0  0  0  0  0  0  0  0  0  0  0
   47.3350    4.2270   44.8880 H   0  0  0  0  0  0  0  0  0  0  0  0
   49.0910    4.7320   45.1320 H   0  0  0  0  0  0  0  0  0  0  0  0
   46.7320    3.2330   43.0930 H   0  0  0  0  0  0  0  0  0  0  0  0
   47.7720    3.3040   41.5930 H   0  0  0  0  0  0  0  0  0  0  0  0
   47.4680    5.6500   41.3490 H   0  0  0  0  0  0  0  0  0  0  0  0
   45.8080    4.9290   41.5780 H   0  0  0  0  0  0  0  0  0  0  0  0
  1  2  1  0  0  0  0
  2  7  1  0  0  0  0
  3  4  1  0  0  0  0
  3  2  2  0  0  0  0
  4  5  2  0  0  0  0
  5 30  1  0  0  0  0
  5  6  1  0  0  0  0
  6 31  1  0  0  0  0
  7 32  1  0  0  0  0
  7  6  2  0  0  0  0
  8  4  1  0  0  0  0
  9  8  2  0  0  0  0
 10 34  1  0  0  0  0
 10  9  1  0  0  0  0
 11 10  1  0  0  0  0
 12 11  2  0  0  0  0
 13 12  2  0  0  0  0
 14 15  2  0  0  0  0
 14 13  1  0  0  0  0
 15 16  1  0  0  0  0
 16 11  1  0  0  0  0
 17 15  1  0  0  0  0
 17 22  1  0  0  0  0
 18 17  1  0  0  0  0
 19 18  1  0  0  0  0
 19 20  1  0  0  0  0
 20 21  1  0  0  0  0
 21 39  1  0  0  0  0
 21 22  1  0  0  0  0
 21 40  1  0  0  0  0
 22 41  1  0  0  0  0
 23 13  1  0  0  0  0
 23 24  1  0  0  0  0
 24 25  1  0  0  0  0
 24 43  1  0  0  0  0
 25 45  1  0  0  0  0
 25 46  1  0  0  0  0
 26 25  1  0  0  0  0
 27 47  1  0  0  0  0
 27 26  1  0  0  0  0
 28 27  1  0  0  0  0
 28 23  1  0  0  0  0
 29  3  1  0  0  0  0
 33  8  1  0  0  0  0
 35 18  1  0  0  0  0
 36 18  1  0  0  0  0
 37 19  1  0  0  0  0
 38 19  1  0  0  0  0
 42 22  1  0  0  0  0
 44 24  1  0  0  0  0
 48 27  1  0  0  0  0
 49 28  1  0  0  0  0
 50 28  1  0  0  0  0
M  END
>  <Pose>
1

>  <Score>
-5.89

$$$$
