
 OpenBabel03172210433D

 56 59  0  0  1  0  0  0  0  0999 V2000
   45.1870   14.7070   46.2460 B   0  0  0  0  0  0  0  0  0  0  0  0
   44.5380   12.9280   46.4970 C   0  0  0  0  0  0  0  0  0  0  0  0
   43.9950   12.2050   45.4400 C   0  0  0  0  0  0  0  0  0  0  0  0
   43.5180   10.9190   45.5890 C   0  0  0  0  0  0  0  0  0  0  0  0
   43.6040   10.3730   46.8620 C   0  0  0  0  0  0  0  0  0  0  0  0
   44.1370   11.0730   47.9230 C   0  0  0  0  0  0  0  0  0  0  0  0
   44.6000   12.3490   47.7250 C   0  0  0  0  0  0  0  0  0  0  0  0
   42.9380   10.1460   44.4550 C   0  0  2  0  0  0  0  0  0  0  0  0
   41.6120    9.6740   44.7240 N   0  0  0  0  0  0  0  0  0  0  0  0
   41.7590    8.3920   45.3150 C   0  0  0  0  0  0  0  0  0  0  0  0
   40.8880    7.7910   45.9920 O   0  0  0  0  0  0  0  0  0  0  0  0
   43.1090    7.8640   45.0060 C   0  0  0  0  0  0  0  0  0  0  0  0
   43.5970    6.7740   45.3500 O   0  0  0  0  0  0  0  0  0  0  0  0
   43.7450    8.8970   44.2120 C   0  0  0  0  0  0  0  0  0  0  0  0
   44.7740    8.7780   43.4030 C   0  0  0  0  0  0  0  0  0  0  0  0
   45.2020    9.8660   42.6720 O   0  0  0  0  0  0  0  0  0  0  0  0
   45.4840    7.5330   43.2590 C   0  0  0  0  0  0  0  0  0  0  0  0
   46.1890    6.8810   44.2300 C   0  0  0  0  0  0  0  0  0  0  0  0
   46.7900    5.6660   43.9610 C   0  0  0  0  0  0  0  0  0  0  0  0
   46.7280    5.0410   42.7370 C   0  0  0  0  0  0  0  0  0  0  0  0
   46.0160    5.7010   41.7570 C   0  0  0  0  0  0  0  0  0  0  0  0
   45.4120    6.9090   42.0030 C   0  0  0  0  0  0  0  0  0  0  0  0
   47.3850    3.7300   42.4730 C   0  0  0  0  0  0  0  0  0  0  0  0
   40.3280   10.3530   44.4600 C   0  0  0  0  0  0  0  0  0  0  0  0
   39.9440   11.0840   45.7150 C   0  0  0  0  0  0  0  0  0  0  0  0
   40.0810   12.4940   45.6610 N   0  0  0  0  0  4  0  0  0  0  0  0
   40.7140   13.0220   44.4880 C   0  0  0  0  0  0  0  0  0  0  0  0
   39.7630   13.3750   43.3770 C   0  0  0  0  0  0  0  0  0  0  0  0
   38.6120   13.9950   43.8070 O   0  0  0  0  0  0  0  0  0  0  0  0
   37.9320   13.2480   44.7400 C   0  0  0  0  0  0  0  0  0  0  0  0
   38.8130   13.1140   45.9530 C   0  0  0  0  0  0  0  0  0  0  0  0
   43.9580   12.6780   44.4920 H   0  0  0  0  0  0  0  0  0  0  0  0
   43.2460    9.3740   47.0330 H   0  0  0  0  0  0  0  0  0  0  0  0
   44.1900   10.6170   48.9020 H   0  0  0  0  0  0  0  0  0  0  0  0
   45.0230   12.9050   48.5640 H   0  0  0  0  0  0  0  0  0  0  0  0
   42.9100   10.7910   43.5760 H   0  0  0  0  0  0  0  0  0  0  0  0
   46.2820    7.3640   45.1970 H   0  0  0  0  0  0  0  0  0  0  0  0
   47.3430    5.1700   44.7500 H   0  0  0  0  0  0  0  0  0  0  0  0
   45.9620    5.2120   40.7780 H   0  0  0  0  0  0  0  0  0  0  0  0
   44.8660    7.3750   41.1870 H   0  0  0  0  0  0  0  0  0  0  0  0
   47.4150    3.0910   43.3970 H   0  0  0  0  0  0  0  0  0  0  0  0
   46.7430    3.1400   41.7560 H   0  0  0  0  0  0  0  0  0  0  0  0
   48.3680    3.8240   42.0110 H   0  0  0  0  0  0  0  0  0  0  0  0
   40.4890   11.1190   43.6670 H   0  0  0  0  0  0  0  0  0  0  0  0
   39.6410    9.5570   44.1710 H   0  0  0  0  0  0  0  0  0  0  0  0
   40.5480   10.6120   46.5450 H   0  0  0  0  0  0  0  0  0  0  0  0
   38.8910   10.7890   45.9470 H   0  0  0  0  0  0  0  0  0  0  0  0
   40.7010   12.7670   46.4820 H   0  0  0  0  0  0  0  0  0  0  0  0
   41.4620   12.3230   44.0610 H   0  0  0  0  0  0  0  0  0  0  0  0
   41.2780   13.9500   44.7270 H   0  0  0  0  0  0  0  0  0  0  0  0
   40.2810   14.0930   42.6880 H   0  0  0  0  0  0  0  0  0  0  0  0
   39.4850   12.5160   42.7440 H   0  0  0  0  0  0  0  0  0  0  0  0
   37.5750   12.2730   44.3550 H   0  0  0  0  0  0  0  0  0  0  0  0
   37.0310   13.8160   45.0500 H   0  0  0  0  0  0  0  0  0  0  0  0
   38.3360   12.4980   46.7550 H   0  0  0  0  0  0  0  0  0  0  0  0
   38.9530   14.1270   46.3850 H   0  0  0  0  0  0  0  0  0  0  0  0
  1  2  1  0  0  0  0
  2  7  1  0  0  0  0
  3  4  1  0  0  0  0
  3  2  2  0  0  0  0
  4  5  2  0  0  0  0
  5 33  1  0  0  0  0
  5  6  1  0  0  0  0
  6 34  1  0  0  0  0
  7  6  2  0  0  0  0
  7 35  1  0  0  0  0
  8 36  1  6  0  0  0
  8  9  1  0  0  0  0
  8  4  1  0  0  0  0
  9 10  1  0  0  0  0
 10 11  2  0  0  0  0
 12 10  1  0  0  0  0
 12 13  2  0  0  0  0
 14  8  1  0  0  0  0
 14 12  1  0  0  0  0
 15 14  2  0  0  0  0
 16 15  1  0  0  0  0
 17 15  1  0  0  0  0
 17 18  1  0  0  0  0
 18 37  1  0  0  0  0
 19 18  2  0  0  0  0
 19 38  1  0  0  0  0
 20 19  1  0  0  0  0
 21 22  1  0  0  0  0
 21 20  2  0  0  0  0
 22 17  2  0  0  0  0
 23 20  1  0  0  0  0
 23 41  1  0  0  0  0
 24  9  1  0  0  0  0
 24 25  1  0  0  0  0
 25 47  1  0  0  0  0
 25 46  1  0  0  0  0
 26 25  1  0  0  0  0
 26 31  1  0  0  0  0
 26 48  1  0  0  0  0
 27 50  1  0  0  0  0
 27 26  1  0  0  0  0
 28 29  1  0  0  0  0
 28 27  1  0  0  0  0
 29 30  1  0  0  0  0
 30 54  1  0  0  0  0
 30 31  1  0  0  0  0
 31 56  1  0  0  0  0
 31 55  1  0  0  0  0
 32  3  1  0  0  0  0
 39 21  1  0  0  0  0
 40 22  1  0  0  0  0
 42 23  1  0  0  0  0
 43 23  1  0  0  0  0
 44 24  1  0  0  0  0
 45 24  1  0  0  0  0
 49 27  1  0  0  0  0
 51 28  1  0  0  0  0
 52 28  1  0  0  0  0
 53 30  1  0  0  0  0
M  END
>  <Pose>
1

>  <Score>
-5.12

$$$$
