
 OpenBabel03172210433D

 56 59  0  0  1  0  0  0  0  0999 V2000
   39.8130   13.0570   43.3560 B   0  0  0  0  0  0  0  0  0  0  0  0
   40.6690   11.3850   43.0730 C   0  0  0  0  0  0  0  0  0  0  0  0
   41.6000   10.8600   43.9590 C   0  0  0  0  0  0  0  0  0  0  0  0
   42.2180    9.6490   43.7430 C   0  0  0  0  0  0  0  0  0  0  0  0
   41.8940    8.9570   42.6160 C   0  0  0  0  0  0  0  0  0  0  0  0
   40.9540    9.4760   41.7140 C   0  0  0  0  0  0  0  0  0  0  0  0
   40.3370   10.6870   41.9310 C   0  0  0  0  0  0  0  0  0  0  0  0
   43.2050    9.1310   44.7240 C   0  0  1  0  0  0  0  0  0  0  0  0
   42.5360    8.6480   45.9210 N   0  0  0  0  0  0  0  0  0  0  0  0
   42.2940    7.2390   45.7260 C   0  0  0  0  0  0  0  0  0  0  0  0
   41.4640    6.5590   46.3780 O   0  0  0  0  0  0  0  0  0  0  0  0
   43.1770    6.8000   44.6660 C   0  0  0  0  0  0  0  0  0  0  0  0
   43.2920    5.6350   44.1720 O   0  0  0  0  0  0  0  0  0  0  0  0
   43.9490    7.9560   44.2310 C   0  0  0  0  0  0  0  0  0  0  0  0
   45.0590    7.9100   43.5090 C   0  0  0  0  0  0  0  0  0  0  0  0
   45.5800    9.1770   43.1730 O   0  0  0  0  0  0  0  0  0  0  0  0
   45.7210    6.6890   43.0800 C   0  0  0  0  0  0  0  0  0  0  0  0
   45.7510    6.2100   41.7920 C   0  0  0  0  0  0  0  0  0  0  0  0
   46.4270    5.0590   41.4380 C   0  0  0  0  0  0  0  0  0  0  0  0
   47.1100    4.3300   42.3840 C   0  0  0  0  0  0  0  0  0  0  0  0
   47.0900    4.7950   43.6830 C   0  0  0  0  0  0  0  0  0  0  0  0
   46.4120    5.9480   44.0280 C   0  0  0  0  0  0  0  0  0  0  0  0
   47.9830    2.8540   41.9550 Cl  0  0  0  0  0  0  0  0  0  0  0  0
   42.1100    9.4530   47.0190 C   0  0  0  0  0  0  0  0  0  0  0  0
   43.0490   10.4220   47.6110 C   0  0  0  0  0  0  0  0  0  0  0  0
   43.7010   11.4450   46.7580 C   0  0  0  0  0  0  0  0  0  0  0  0
   45.0240   11.8560   47.0880 N   0  0  0  0  0  4  0  0  0  0  0  0
   45.1340   13.2930   47.0780 C   0  0  0  0  0  0  0  0  0  0  0  0
   44.9010   13.9210   48.4360 C   0  0  0  0  0  0  0  0  0  0  0  0
   45.9130   13.5400   49.3200 O   0  0  0  0  0  0  0  0  0  0  0  0
   46.4760   12.3220   48.9360 C   0  0  0  0  0  0  0  0  0  0  0  0
   45.3480   11.4350   48.4860 C   0  0  0  0  0  0  0  0  0  0  0  0
   41.8410   11.4260   44.8420 H   0  0  0  0  0  0  0  0  0  0  0  0
   42.3480    8.0130   42.4080 H   0  0  0  0  0  0  0  0  0  0  0  0
   40.6940    8.9350   40.8270 H   0  0  0  0  0  0  0  0  0  0  0  0
   39.6040   11.0950   41.2310 H   0  0  0  0  0  0  0  0  0  0  0  0
   43.8670    9.9650   45.0350 H   0  0  0  0  0  0  0  0  0  0  0  0
   45.2130    6.7360   41.0210 H   0  0  0  0  0  0  0  0  0  0  0  0
   46.4490    4.6860   40.4220 H   0  0  0  0  0  0  0  0  0  0  0  0
   47.6330    4.2070   44.4130 H   0  0  0  0  0  0  0  0  0  0  0  0
   46.4030    6.3040   45.0560 H   0  0  0  0  0  0  0  0  0  0  0  0
   41.7990    8.7190   47.8350 H   0  0  0  0  0  0  0  0  0  0  0  0
   41.1500    9.9950   46.6950 H   0  0  0  0  0  0  0  0  0  0  0  0
   43.8620    9.8750   48.2230 H   0  0  0  0  0  0  0  0  0  0  0  0
   42.5080   11.0160   48.4380 H   0  0  0  0  0  0  0  0  0  0  0  0
   43.0810   12.3840   46.7030 H   0  0  0  0  0  0  0  0  0  0  0  0
   43.7280   11.0890   45.6720 H   0  0  0  0  0  0  0  0  0  0  0  0
   45.7370   11.3880   46.5340 H   0  0  0  0  0  0  0  0  0  0  0  0
   44.4010   13.7250   46.3640 H   0  0  0  0  0  0  0  0  0  0  0  0
   46.1410   13.5900   46.7370 H   0  0  0  0  0  0  0  0  0  0  0  0
   43.8920   13.6400   48.7990 H   0  0  0  0  0  0  0  0  0  0  0  0
   44.9280   15.0050   48.3190 H   0  0  0  0  0  0  0  0  0  0  0  0
   47.1860   12.5230   48.1160 H   0  0  0  0  0  0  0  0  0  0  0  0
   47.0220   11.9040   49.8090 H   0  0  0  0  0  0  0  0  0  0  0  0
   44.4370   11.6020   49.0970 H   0  0  0  0  0  0  0  0  0  0  0  0
   45.6720   10.3770   48.4590 H   0  0  0  0  0  0  0  0  0  0  0  0
  2  1  1  0  0  0  0
  2  3  1  0  0  0  0
  3 33  1  0  0  0  0
  4  3  2  0  0  0  0
  4  8  1  0  0  0  0
  5  4  1  0  0  0  0
  6  7  1  0  0  0  0
  6  5  2  0  0  0  0
  7  2  2  0  0  0  0
  8 37  1  1  0  0  0
  8  9  1  0  0  0  0
  9 24  1  0  0  0  0
 10  9  1  0  0  0  0
 10 11  2  0  0  0  0
 12 10  1  0  0  0  0
 13 12  2  0  0  0  0
 14 12  1  0  0  0  0
 14  8  1  0  0  0  0
 15 14  2  0  0  0  0
 16 15  1  0  0  0  0
 17 15  1  0  0  0  0
 17 22  1  0  0  0  0
 18 17  2  0  0  0  0
 19 18  1  0  0  0  0
 19 20  2  0  0  0  0
 20 21  1  0  0  0  0
 21 22  2  0  0  0  0
 21 40  1  0  0  0  0
 22 41  1  0  0  0  0
 23 20  1  0  0  0  0
 24 25  1  0  0  0  0
 24 42  1  0  0  0  0
 25 44  1  0  0  0  0
 25 45  1  0  0  0  0
 26 27  1  0  0  0  0
 26 25  1  0  0  0  0
 27 32  1  0  0  0  0
 28 27  1  0  0  0  0
 28 29  1  0  0  0  0
 29 51  1  0  0  0  0
 29 30  1  0  0  0  0
 31 30  1  0  0  0  0
 31 54  1  0  0  0  0
 32 31  1  0  0  0  0
 32 55  1  0  0  0  0
 34  5  1  0  0  0  0
 35  6  1  0  0  0  0
 36  7  1  0  0  0  0
 38 18  1  0  0  0  0
 39 19  1  0  0  0  0
 43 24  1  0  0  0  0
 46 26  1  0  0  0  0
 47 26  1  0  0  0  0
 48 27  1  0  0  0  0
 49 28  1  0  0  0  0
 50 28  1  0  0  0  0
 52 29  1  0  0  0  0
 53 31  1  0  0  0  0
 56 32  1  0  0  0  0
M  END
>  <Pose>
1

>  <Score>
-5.84

$$$$
