
 OpenBabel03172210433D

 62 66  0  0  1  0  0  0  0  0999 V2000
   46.0230   15.2170   45.7010 B   0  0  0  0  0  0  0  0  0  0  0  0
   44.5280   14.1110   46.1590 C   0  0  0  0  0  0  0  0  0  0  0  0
   43.8870   13.3640   45.2050 C   0  0  0  0  0  0  0  0  0  0  0  0
   42.7830   12.5350   45.4870 C   0  0  0  0  0  0  0  0  0  0  0  0
   42.4150   12.5500   46.8140 C   0  0  0  0  0  0  0  0  0  0  0  0
   43.0440   13.2940   47.7900 C   0  0  0  0  0  0  0  0  0  0  0  0
   44.1190   14.0890   47.4650 C   0  0  0  0  0  0  0  0  0  0  0  0
   42.1850   11.7800   44.4270 C   0  0  2  0  0  0  0  0  0  0  0  0
   40.7740   11.7490   44.2550 N   0  0  0  0  0  0  0  0  0  0  0  0
   40.5880   10.7960   43.1570 C   0  0  0  0  0  0  0  0  0  0  0  0
   39.6450   10.7810   42.3500 O   0  0  0  0  0  0  0  0  0  0  0  0
   41.7370    9.8760   43.2130 C   0  0  0  0  0  0  0  0  0  0  0  0
   41.9840    8.9020   42.4670 O   0  0  0  0  0  0  0  0  0  0  0  0
   42.5460   10.3340   44.3400 C   0  0  0  0  0  0  0  0  0  0  0  0
   43.3390    9.6080   45.0850 C   0  0  0  0  0  0  0  0  0  0  0  0
   43.9750   10.2560   46.1660 O   0  0  0  0  0  0  0  0  0  0  0  0
   43.5860    8.1950   44.8390 C   0  0  0  0  0  0  0  0  0  0  0  0
   44.5560    7.5610   44.1640 N   0  0  0  0  0  0  0  0  0  0  0  0
   44.3290    6.2450   44.1800 C   0  0  0  0  0  0  0  0  0  0  0  0
   43.1850    6.0420   44.8860 N   0  0  0  0  0  0  0  0  0  0  0  0
   42.6970    7.2150   45.3090 C   0  0  0  0  0  0  0  0  0  0  0  0
   41.4620    7.4370   46.1130 C   0  0  0  0  0  0  0  0  0  0  0  0
   45.1940    5.3450   43.5630 C   0  0  0  0  0  0  0  0  0  0  0  0
   46.3050    5.8700   42.9330 C   0  0  0  0  0  0  0  0  0  0  0  0
   46.5110    7.2370   42.9350 C   0  0  0  0  0  0  0  0  0  0  0  0
   45.6430    8.1060   43.5490 C   0  0  0  0  0  0  0  0  0  0  0  0
   44.8910    3.8930   43.6120 C   0  0  0  0  0  0  0  0  0  0  0  0
   39.6570   12.4470   44.8670 C   0  0  0  0  0  0  0  0  0  0  0  0
   38.5430   11.5750   45.3350 C   0  0  0  0  0  0  0  0  0  0  0  0
   37.2540   11.9710   44.8030 N   0  0  0  0  0  4  0  0  0  0  0  0
   36.1890   11.1460   45.3280 C   0  0  0  0  0  0  0  0  0  0  0  0
   35.9300   11.5100   46.7930 C   0  0  0  0  0  0  0  0  0  0  0  0
   35.4430   12.8210   46.7780 O   0  0  0  0  0  0  0  0  0  0  0  0
   36.5460   13.6320   46.4400 C   0  0  0  0  0  0  0  0  0  0  0  0
   36.9980   13.3810   45.0200 C   0  0  0  0  0  0  0  0  0  0  0  0
   44.2640   13.4260   44.1790 H   0  0  0  0  0  0  0  0  0  0  0  0
   41.6030   11.9430   47.1200 H   0  0  0  0  0  0  0  0  0  0  0  0
   42.7250   13.2800   48.8210 H   0  0  0  0  0  0  0  0  0  0  0  0
   44.6460   14.6890   48.1870 H   0  0  0  0  0  0  0  0  0  0  0  0
   42.5840   12.1960   43.4390 H   0  0  0  0  0  0  0  0  0  0  0  0
   40.6200    7.6150   45.4140 H   0  0  0  0  0  0  0  0  0  0  0  0
   41.6160    8.3400   46.7160 H   0  0  0  0  0  0  0  0  0  0  0  0
   41.2610    6.5420   46.7540 H   0  0  0  0  0  0  0  0  0  0  0  0
   47.0050    5.1880   42.4390 H   0  0  0  0  0  0  0  0  0  0  0  0
   47.3780    7.6560   42.4440 H   0  0  0  0  0  0  0  0  0  0  0  0
   45.7900    9.1720   43.5600 H   0  0  0  0  0  0  0  0  0  0  0  0
   45.6040    3.3460   42.9610 H   0  0  0  0  0  0  0  0  0  0  0  0
   43.8480    3.7230   43.2390 H   0  0  0  0  0  0  0  0  0  0  0  0
   44.9750    3.4660   44.6150 H   0  0  0  0  0  0  0  0  0  0  0  0
   40.0550   12.9840   45.7580 H   0  0  0  0  0  0  0  0  0  0  0  0
   39.3010   13.2640   44.1860 H   0  0  0  0  0  0  0  0  0  0  0  0
   38.7680   10.5480   44.8990 H   0  0  0  0  0  0  0  0  0  0  0  0
   38.4250   11.4150   46.3910 H   0  0  0  0  0  0  0  0  0  0  0  0
   37.2570   11.8260   43.7640 H   0  0  0  0  0  0  0  0  0  0  0  0
   36.5650   10.1050   45.3390 H   0  0  0  0  0  0  0  0  0  0  0  0
   35.2830   11.1770   44.7230 H   0  0  0  0  0  0  0  0  0  0  0  0
   35.2420   10.7950   47.2530 H   0  0  0  0  0  0  0  0  0  0  0  0
   36.9050   11.5480   47.3060 H   0  0  0  0  0  0  0  0  0  0  0  0
   37.3810   13.3010   47.1030 H   0  0  0  0  0  0  0  0  0  0  0  0
   36.3320   14.6930   46.5700 H   0  0  0  0  0  0  0  0  0  0  0  0
   37.9680   13.9080   44.8970 H   0  0  0  0  0  0  0  0  0  0  0  0
   36.3050   13.8020   44.2660 H   0  0  0  0  0  0  0  0  0  0  0  0
  1  2  1  0  0  0  0
  2  7  1  0  0  0  0
  3  4  1  0  0  0  0
  3  2  2  0  0  0  0
  4  5  2  0  0  0  0
  5 37  1  0  0  0  0
  5  6  1  0  0  0  0
  6 38  1  0  0  0  0
  7  6  2  0  0  0  0
  7 39  1  0  0  0  0
  8 40  1  6  0  0  0
  8  4  1  0  0  0  0
  9  8  1  0  0  0  0
  9 28  1  0  0  0  0
 10 12  1  0  0  0  0
 10  9  1  0  0  0  0
 11 10  2  0  0  0  0
 12 14  1  0  0  0  0
 13 12  2  0  0  0  0
 14  8  1  0  0  0  0
 14 15  2  0  0  0  0
 15 16  1  0  0  0  0
 17 15  1  0  0  0  0
 17 21  2  0  0  0  0
 18 19  1  0  0  0  0
 18 17  1  0  0  0  0
 19 20  2  0  0  0  0
 20 21  1  0  0  0  0
 21 22  1  0  0  0  0
 22 42  1  0  0  0  0
 22 43  1  0  0  0  0
 23 27  1  0  0  0  0
 23 19  1  0  0  0  0
 24 25  1  0  0  0  0
 24 23  2  0  0  0  0
 25 26  2  0  0  0  0
 26 46  1  0  0  0  0
 26 18  1  0  0  0  0
 27 49  1  0  0  0  0
 28 29  1  0  0  0  0
 28 50  1  0  0  0  0
 29 53  1  0  0  0  0
 30 35  1  0  0  0  0
 30 31  1  0  0  0  0
 30 29  1  0  0  0  0
 31 55  1  0  0  0  0
 31 32  1  0  0  0  0
 32 57  1  0  0  0  0
 32 58  1  0  0  0  0
 33 32  1  0  0  0  0
 34 60  1  0  0  0  0
 34 33  1  0  0  0  0
 34 59  1  0  0  0  0
 35 34  1  0  0  0  0
 36  3  1  0  0  0  0
 41 22  1  0  0  0  0
 44 24  1  0  0  0  0
 45 25  1  0  0  0  0
 47 27  1  0  0  0  0
 48 27  1  0  0  0  0
 51 28  1  0  0  0  0
 52 29  1  0  0  0  0
 54 30  1  0  0  0  0
 56 31  1  0  0  0  0
 61 35  1  0  0  0  0
 62 35  1  0  0  0  0
M  END
>  <Pose>
1

>  <Score>
-5.70

$$$$
