
 OpenBabel03172210433D

 57 60  0  0  1  0  0  0  0  0999 V2000
   42.4500   11.6230   49.5290 B   0  0  0  0  0  0  0  0  0  0  0  0
   42.7670   12.2070   47.7500 C   0  0  0  0  0  0  0  0  0  0  0  0
   42.1610   11.5320   46.6900 C   0  0  0  0  0  0  0  0  0  0  0  0
   42.3680   11.9270   45.4110 C   0  0  0  0  0  0  0  0  0  0  0  0
   43.2050   13.0260   45.1890 C   0  0  0  0  0  0  0  0  0  0  0  0
   43.7950   13.6830   46.2270 C   0  0  0  0  0  0  0  0  0  0  0  0
   43.5970   13.2980   47.5350 C   0  0  0  0  0  0  0  0  0  0  0  0
   41.7660   11.2810   44.2390 C   0  0  2  0  0  0  0  0  0  0  0  0
   40.3320   11.0830   44.3220 N   0  0  0  0  0  0  0  0  0  0  0  0
   40.0410   10.0550   43.3660 C   0  0  0  0  0  0  0  0  0  0  0  0
   38.9640    9.8480   42.7790 O   0  0  0  0  0  0  0  0  0  0  0  0
   41.2600    9.2730   43.1990 C   0  0  0  0  0  0  0  0  0  0  0  0
   41.4990    8.2680   42.4660 O   0  0  0  0  0  0  0  0  0  0  0  0
   42.2510    9.8740   44.0790 C   0  0  0  0  0  0  0  0  0  0  0  0
   43.3280    9.2790   44.5530 C   0  0  0  0  0  0  0  0  0  0  0  0
   44.1780   10.0760   45.3330 O   0  0  0  0  0  0  0  0  0  0  0  0
   43.6820    7.8850   44.3330 C   0  0  0  0  0  0  0  0  0  0  0  0
   44.8200    7.4020   43.8140 N   0  0  0  0  0  0  0  0  0  0  0  0
   44.8090    6.0440   43.8040 C   0  0  0  0  0  0  0  0  0  0  0  0
   43.6060    5.6980   44.3410 N   0  0  0  0  0  0  0  0  0  0  0  0
   42.9020    6.7680   44.6710 C   0  0  0  0  0  0  0  0  0  0  0  0
   41.5590    6.9060   45.2760 C   0  0  0  0  0  0  0  0  0  0  0  0
   45.8580    5.2860   43.3080 C   0  0  0  0  0  0  0  0  0  0  0  0
   46.9740    5.9140   42.7950 C   0  0  0  0  0  0  0  0  0  0  0  0
   46.9770    7.3040   42.8070 C   0  0  0  0  0  0  0  0  0  0  0  0
   45.9290    8.0160   43.3030 C   0  0  0  0  0  0  0  0  0  0  0  0
   39.3650   11.7790   45.1730 C   0  0  0  0  0  0  0  0  0  0  0  0
   39.0850   13.1720   44.7410 C   0  0  0  0  0  0  0  0  0  0  0  0
   37.6830   13.6140   44.6550 C   0  0  0  0  0  0  0  0  0  0  0  0
   36.7060   12.6040   44.4400 N   0  0  0  0  0  4  0  0  0  0  0  0
   35.4840   13.1920   43.9480 C   0  0  0  0  0  0  0  0  0  0  0  0
   36.3590   11.9810   45.7310 C   0  0  0  0  0  0  0  0  0  0  0  0
   41.5400   10.7000   46.9270 H   0  0  0  0  0  0  0  0  0  0  0  0
   43.3780   13.3490   44.1720 H   0  0  0  0  0  0  0  0  0  0  0  0
   44.4520   14.5450   46.0590 H   0  0  0  0  0  0  0  0  0  0  0  0
   44.0710   13.8250   48.3760 H   0  0  0  0  0  0  0  0  0  0  0  0
   41.9690   11.8190   43.3140 H   0  0  0  0  0  0  0  0  0  0  0  0
   41.0500    5.9240   45.1480 H   0  0  0  0  0  0  0  0  0  0  0  0
   40.9400    7.6340   44.7000 H   0  0  0  0  0  0  0  0  0  0  0  0
   41.5810    7.1530   46.3490 H   0  0  0  0  0  0  0  0  0  0  0  0
   45.7980    4.2070   43.3240 H   0  0  0  0  0  0  0  0  0  0  0  0
   47.8260    5.3810   42.3930 H   0  0  0  0  0  0  0  0  0  0  0  0
   47.8520    7.8260   42.4060 H   0  0  0  0  0  0  0  0  0  0  0  0
   45.9060    9.1140   43.3140 H   0  0  0  0  0  0  0  0  0  0  0  0
   38.4560   11.1530   45.3040 H   0  0  0  0  0  0  0  0  0  0  0  0
   39.8150   11.8430   46.1830 H   0  0  0  0  0  0  0  0  0  0  0  0
   39.6820   13.9220   45.3200 H   0  0  0  0  0  0  0  0  0  0  0  0
   39.5180   13.2650   43.6980 H   0  0  0  0  0  0  0  0  0  0  0  0
   37.4360   14.1160   45.6310 H   0  0  0  0  0  0  0  0  0  0  0  0
   37.5850   14.4490   43.9000 H   0  0  0  0  0  0  0  0  0  0  0  0
   37.0340   11.8030   43.8570 H   0  0  0  0  0  0  0  0  0  0  0  0
   34.6150   13.0320   44.6210 H   0  0  0  0  0  0  0  0  0  0  0  0
   35.6380   14.2870   43.8760 H   0  0  0  0  0  0  0  0  0  0  0  0
   35.2190   12.8530   42.9300 H   0  0  0  0  0  0  0  0  0  0  0  0
   37.2450   11.4590   46.1580 H   0  0  0  0  0  0  0  0  0  0  0  0
   35.9570   12.7620   46.4220 H   0  0  0  0  0  0  0  0  0  0  0  0
   35.5790   11.2090   45.6050 H   0  0  0  0  0  0  0  0  0  0  0  0
  2  1  1  0  0  0  0
  3 33  1  0  0  0  0
  3  2  2  0  0  0  0
  4  3  1  0  0  0  0
  5  4  2  0  0  0  0
  5  6  1  0  0  0  0
  6  7  2  0  0  0  0
  7  2  1  0  0  0  0
  7 36  1  0  0  0  0
  8 37  1  6  0  0  0
  8  9  1  0  0  0  0
  8  4  1  0  0  0  0
  9 27  1  0  0  0  0
 10  9  1  0  0  0  0
 11 10  2  0  0  0  0
 12 10  1  0  0  0  0
 12 14  1  0  0  0  0
 13 12  2  0  0  0  0
 14  8  1  0  0  0  0
 14 15  2  0  0  0  0
 15 16  1  0  0  0  0
 17 15  1  0  0  0  0
 17 21  2  0  0  0  0
 18 17  1  0  0  0  0
 19 18  1  0  0  0  0
 19 20  2  0  0  0  0
 20 21  1  0  0  0  0
 21 22  1  0  0  0  0
 22 40  1  0  0  0  0
 23 41  1  0  0  0  0
 23 19  1  0  0  0  0
 24 25  1  0  0  0  0
 24 23  2  0  0  0  0
 25 26  2  0  0  0  0
 26 44  1  0  0  0  0
 26 18  1  0  0  0  0
 27 45  1  0  0  0  0
 27 46  1  0  0  0  0
 28 27  1  0  0  0  0
 28 47  1  0  0  0  0
 29 28  1  0  0  0  0
 29 49  1  0  0  0  0
 30 29  1  0  0  0  0
 30 32  1  0  0  0  0
 31 30  1  0  0  0  0
 31 52  1  0  0  0  0
 32 55  1  0  0  0  0
 32 56  1  0  0  0  0
 34  5  1  0  0  0  0
 35  6  1  0  0  0  0
 38 22  1  0  0  0  0
 39 22  1  0  0  0  0
 42 24  1  0  0  0  0
 43 25  1  0  0  0  0
 48 28  1  0  0  0  0
 50 29  1  0  0  0  0
 51 30  1  0  0  0  0
 53 31  1  0  0  0  0
 54 31  1  0  0  0  0
 57 32  1  0  0  0  0
M  END
>  <Pose>
1

>  <Score>
-5.33

$$$$
