
 OpenBabel03172210433D

 58 61  0  0  1  0  0  0  0  0999 V2000
   44.5060   13.1320   46.8080 B   0  0  0  0  0  0  0  0  0  0  0  0
   44.0420   11.2810   46.5560 C   0  0  0  0  0  0  0  0  0  0  0  0
   43.9850   10.7490   45.3000 C   0  0  0  0  0  0  0  0  0  0  0  0
   43.6540    9.4160   45.0460 C   0  0  0  0  0  0  0  0  0  0  0  0
   43.3820    8.6570   46.1630 C   0  0  0  0  0  0  0  0  0  0  0  0
   43.4370    9.1890   47.4490 C   0  0  0  0  0  0  0  0  0  0  0  0
   43.7660   10.5010   47.6390 C   0  0  0  0  0  0  0  0  0  0  0  0
   43.6090    8.8800   43.6620 C   0  0  2  0  0  0  0  0  0  0  0  0
   42.3120    8.3540   43.2900 N   0  0  0  0  0  0  0  0  0  0  0  0
   42.2850    6.9970   43.7830 C   0  0  0  0  0  0  0  0  0  0  0  0
   41.2500    6.3320   44.0290 O   0  0  0  0  0  0  0  0  0  0  0  0
   43.6820    6.5760   43.9290 C   0  0  0  0  0  0  0  0  0  0  0  0
   44.1270    5.4690   44.3290 O   0  0  0  0  0  0  0  0  0  0  0  0
   44.5290    7.6900   43.5210 C   0  0  0  0  0  0  0  0  0  0  0  0
   45.7940    7.6480   43.1390 C   0  0  0  0  0  0  0  0  0  0  0  0
   46.4350    8.8150   42.8080 O   0  0  0  0  0  0  0  0  0  0  0  0
   46.5300    6.3720   43.0590 C   0  0  0  0  0  0  0  0  0  0  0  0
   47.4620    5.9810   43.8840 O   0  0  0  0  0  0  0  0  0  0  0  0
   47.9540    4.8220   43.5990 C   0  0  0  0  0  0  0  0  0  0  0  0
   47.2990    4.3800   42.4750 C   0  0  0  0  0  0  0  0  0  0  0  0
   46.3960    5.3640   42.1340 C   0  0  0  0  0  0  0  0  0  0  0  0
   47.6470    3.1500   41.9600 C   0  0  0  0  0  0  0  0  0  0  0  0
   48.6250    2.3690   42.5420 C   0  0  0  0  0  0  0  0  0  0  0  0
   49.2650    2.8590   43.6850 C   0  0  0  0  0  0  0  0  0  0  0  0
   48.9450    4.0780   44.2260 C   0  0  0  0  0  0  0  0  0  0  0  0
   49.5960    4.5210   45.3490 O   0  0  0  0  0  0  0  0  0  0  0  0
   49.5460    3.9570   46.6200 C   0  0  0  0  0  0  0  0  0  0  0  0
   41.2370    9.0190   42.5950 C   0  0  0  0  0  0  0  0  0  0  0  0
   40.5140    9.9920   43.4930 C   0  0  0  0  0  0  0  0  0  0  0  0
   40.7190   11.4270   43.1660 C   0  0  0  0  0  0  0  0  0  0  0  0
   39.7800   12.3250   43.7620 N   0  0  0  0  0  4  0  0  0  0  0  0
   39.7400   13.5940   43.0300 C   0  0  0  0  0  0  0  0  0  0  0  0
   40.0520   12.5790   45.1430 C   0  0  0  0  0  0  0  0  0  0  0  0
   44.2000   11.3480   44.4260 H   0  0  0  0  0  0  0  0  0  0  0  0
   43.1210    7.6350   46.0950 H   0  0  0  0  0  0  0  0  0  0  0  0
   43.2220    8.5940   48.3270 H   0  0  0  0  0  0  0  0  0  0  0  0
   43.8230   10.9700   48.6200 H   0  0  0  0  0  0  0  0  0  0  0  0
   43.9130    9.7180   43.0020 H   0  0  0  0  0  0  0  0  0  0  0  0
   45.7150    5.3490   41.3020 H   0  0  0  0  0  0  0  0  0  0  0  0
   47.1280    2.8110   41.0770 H   0  0  0  0  0  0  0  0  0  0  0  0
   48.8840    1.4080   42.1230 H   0  0  0  0  0  0  0  0  0  0  0  0
   50.0340    2.1950   44.1050 H   0  0  0  0  0  0  0  0  0  0  0  0
   48.5680    3.5160   46.8950 H   0  0  0  0  0  0  0  0  0  0  0  0
   49.8640    4.6640   47.4230 H   0  0  0  0  0  0  0  0  0  0  0  0
   50.2700    3.1110   46.6470 H   0  0  0  0  0  0  0  0  0  0  0  0
   41.6440    9.5690   41.7230 H   0  0  0  0  0  0  0  0  0  0  0  0
   40.5050    8.2390   42.2930 H   0  0  0  0  0  0  0  0  0  0  0  0
   39.4030    9.7700   43.4620 H   0  0  0  0  0  0  0  0  0  0  0  0
   40.7780    9.7650   44.5670 H   0  0  0  0  0  0  0  0  0  0  0  0
   40.6980   11.5090   42.0510 H   0  0  0  0  0  0  0  0  0  0  0  0
   41.7500   11.7210   43.4910 H   0  0  0  0  0  0  0  0  0  0  0  0
   38.7840   11.9650   43.7020 H   0  0  0  0  0  0  0  0  0  0  0  0
   38.7960   14.1080   43.2850 H   0  0  0  0  0  0  0  0  0  0  0  0
   40.6370   14.2070   43.2130 H   0  0  0  0  0  0  0  0  0  0  0  0
   39.7470   13.3820   41.9240 H   0  0  0  0  0  0  0  0  0  0  0  0
   39.9890   11.6290   45.7090 H   0  0  0  0  0  0  0  0  0  0  0  0
   41.0620   13.0110   45.2860 H   0  0  0  0  0  0  0  0  0  0  0  0
   39.3020   13.3240   45.5200 H   0  0  0  0  0  0  0  0  0  0  0  0
  2  1  1  0  0  0  0
  2  7  1  0  0  0  0
  3  2  2  0  0  0  0
  4  3  1  0  0  0  0
  4  5  2  0  0  0  0
  5  6  1  0  0  0  0
  6  7  2  0  0  0  0
  6 36  1  0  0  0  0
  7 37  1  0  0  0  0
  8 38  1  6  0  0  0
  8  4  1  0  0  0  0
  9  8  1  0  0  0  0
  9 10  1  0  0  0  0
 10 12  1  0  0  0  0
 10 11  2  0  0  0  0
 12 13  2  0  0  0  0
 14  8  1  0  0  0  0
 14 12  1  0  0  0  0
 15 14  2  0  0  0  0
 16 15  1  0  0  0  0
 17 15  1  0  0  0  0
 17 18  1  0  0  0  0
 19 18  1  0  0  0  0
 19 25  1  0  0  0  0
 20 19  2  0  0  0  0
 21 20  1  0  0  0  0
 21 17  2  0  0  0  0
 22 20  1  0  0  0  0
 22 23  2  0  0  0  0
 23 24  1  0  0  0  0
 24 42  1  0  0  0  0
 24 25  2  0  0  0  0
 25 26  1  0  0  0  0
 26 27  1  0  0  0  0
 27 45  1  0  0  0  0
 27 43  1  0  0  0  0
 27 44  1  0  0  0  0
 28  9  1  0  0  0  0
 28 29  1  0  0  0  0
 29 49  1  0  0  0  0
 30 51  1  0  0  0  0
 30 29  1  0  0  0  0
 30 31  1  0  0  0  0
 31 33  1  0  0  0  0
 32 54  1  0  0  0  0
 32 53  1  0  0  0  0
 32 31  1  0  0  0  0
 33 57  1  0  0  0  0
 33 58  1  0  0  0  0
 33 56  1  0  0  0  0
 34  3  1  0  0  0  0
 35  5  1  0  0  0  0
 39 21  1  0  0  0  0
 40 22  1  0  0  0  0
 41 23  1  0  0  0  0
 46 28  1  0  0  0  0
 47 28  1  0  0  0  0
 48 29  1  0  0  0  0
 50 30  1  0  0  0  0
 52 31  1  0  0  0  0
 55 32  1  0  0  0  0
M  END
>  <Pose>
1

>  <Score>
-7.29

$$$$
