
 OpenBabel03172210433D

 38 41  0  0  0  0  0  0  0  0999 V2000
   41.6130   12.6390   46.0260 B   0  0  0  0  0  0  0  0  0  0  0  0
   41.5280   11.1600   44.8260 C   0  0  0  0  0  0  0  0  0  0  0  0
   42.4240   10.0920   44.9390 C   0  0  0  0  0  0  0  0  0  0  0  0
   42.3600    9.0270   44.0730 C   0  0  0  0  0  0  0  0  0  0  0  0
   41.3890    9.0450   43.0960 C   0  0  0  0  0  0  0  0  0  0  0  0
   40.4870   10.1070   42.9730 C   0  0  0  0  0  0  0  0  0  0  0  0
   40.5600   11.1690   43.8460 C   0  0  0  0  0  0  0  0  0  0  0  0
   43.2560    7.9090   44.1460 N   0  0  0  0  0  0  0  0  0  0  0  0
   43.0370    6.6990   44.5890 N   0  0  0  0  0  0  0  0  0  0  0  0
   44.1290    5.9590   44.4840 N   0  0  0  0  0  0  0  0  0  0  0  0
   45.1090    6.7240   43.9450 C   0  0  0  0  0  0  0  0  0  0  0  0
   44.5340    7.9570   43.7370 C   0  0  0  0  0  0  0  0  0  0  0  0
   46.4820    6.3370   43.6420 C   0  0  0  0  0  0  0  0  0  0  0  0
   47.0870    6.9570   42.7330 O   0  0  0  0  0  0  0  0  0  0  0  0
   47.1540    5.3030   44.3250 N   0  0  0  0  0  0  0  0  0  0  0  0
   48.5630    5.0130   44.1870 C   0  0  0  0  0  0  0  0  0  0  0  0
   48.7830    3.7730   43.3640 C   0  0  0  0  0  0  0  0  0  0  0  0
   49.7560    2.8400   43.4980 N   0  0  0  0  0  0  0  0  0  0  0  0
   49.5970    1.8920   42.5680 C   0  0  0  0  0  0  0  0  0  0  0  0
   48.5050    2.2540   41.8520 N   0  0  0  0  0  0  0  0  0  0  0  0
   48.0170    3.3820   42.3300 N   0  0  0  0  0  0  0  0  0  0  0  0
   50.6640    0.8340   42.6830 C   0  0  0  0  0  0  0  0  0  0  0  0
   51.6980    1.5610   43.5180 C   0  0  0  0  0  0  0  0  0  0  0  0
   50.9110    2.5670   44.3360 C   0  0  0  0  0  0  0  0  0  0  0  0
   43.1830   10.0790   45.7050 H   0  0  0  0  0  0  0  0  0  0  0  0
   41.3340    8.2130   42.4130 H   0  0  0  0  0  0  0  0  0  0  0  0
   39.7200   10.1120   42.1940 H   0  0  0  0  0  0  0  0  0  0  0  0
   39.8640   11.9940   43.7560 H   0  0  0  0  0  0  0  0  0  0  0  0
   45.0430    8.8160   43.3130 H   0  0  0  0  0  0  0  0  0  0  0  0
   46.5960    4.7050   44.9750 H   0  0  0  0  0  0  0  0  0  0  0  0
   49.1030    5.8730   43.7510 H   0  0  0  0  0  0  0  0  0  0  0  0
   48.9850    4.7680   45.2060 H   0  0  0  0  0  0  0  0  0  0  0  0
   51.0270    0.5450   41.6940 H   0  0  0  0  0  0  0  0  0  0  0  0
   50.2760   -0.0250   43.2880 H   0  0  0  0  0  0  0  0  0  0  0  0
   52.2020    0.8940   44.2440 H   0  0  0  0  0  0  0  0  0  0  0  0
   52.3990    2.0480   42.8100 H   0  0  0  0  0  0  0  0  0  0  0  0
   50.6560    2.1800   45.3350 H   0  0  0  0  0  0  0  0  0  0  0  0
   51.5590    3.4550   44.4760 H   0  0  0  0  0  0  0  0  0  0  0  0
  2  3  1  0  0  0  0
  2  1  1  0  0  0  0
  3 25  1  0  0  0  0
  4  8  1  0  0  0  0
  4  3  2  0  0  0  0
  5  4  1  0  0  0  0
  6  5  2  0  0  0  0
  6  7  1  0  0  0  0
  7  2  2  0  0  0  0
  8  9  1  0  0  0  0
 10  9  2  0  0  0  0
 11 10  1  0  0  0  0
 12 11  2  0  0  0  0
 12  8  1  0  0  0  0
 13 11  1  0  0  0  0
 13 15  1  0  0  0  0
 14 13  2  0  0  0  0
 15 30  1  0  0  0  0
 16 15  1  0  0  0  0
 16 32  1  0  0  0  0
 17 18  1  0  0  0  0
 17 16  1  0  0  0  0
 18 24  1  0  0  0  0
 19 22  1  0  0  0  0
 19 18  1  0  0  0  0
 20 21  1  0  0  0  0
 20 19  2  0  0  0  0
 21 17  2  0  0  0  0
 22 34  1  0  0  0  0
 22 23  1  0  0  0  0
 23 35  1  0  0  0  0
 23 24  1  0  0  0  0
 24 38  1  0  0  0  0
 24 37  1  0  0  0  0
 26  5  1  0  0  0  0
 27  6  1  0  0  0  0
 28  7  1  0  0  0  0
 29 12  1  0  0  0  0
 31 16  1  0  0  0  0
 33 22  1  0  0  0  0
 36 23  1  0  0  0  0
M  END
>  <Pose>
1

>  <Score>
-6.76

$$$$
