
 OpenBabel03172210433D

 37 40  0  0  1  0  0  0  0  0999 V2000
   50.7820    2.8330   45.5080 B   0  0  0  0  0  0  0  0  0  0  0  0
   49.4660    3.0810   44.1510 C   0  0  0  0  0  0  0  0  0  0  0  0
   48.6000    4.1440   44.1430 C   0  0  0  0  0  0  0  0  0  0  0  0
   47.6320    4.3510   43.1630 C   0  0  0  0  0  0  0  0  0  0  0  0
   47.5870    3.3930   42.1620 C   0  0  0  0  0  0  0  0  0  0  0  0
   48.4490    2.3230   42.1600 C   0  0  0  0  0  0  0  0  0  0  0  0
   49.4110    2.1340   43.1480 C   0  0  0  0  0  0  0  0  0  0  0  0
   46.7590    5.4610   43.1960 N   0  0  0  0  0  0  0  0  0  0  0  0
   46.9930    6.8210   42.7760 C   0  0  0  0  0  0  0  0  0  0  0  0
   48.1430    7.3310   42.6640 O   0  0  0  0  0  0  0  0  0  0  0  0
   45.7100    7.4700   42.5140 C   0  0  2  0  0  0  0  0  0  0  0  0
   45.5810    8.7930   42.8320 O   0  0  0  0  0  0  0  0  0  0  0  0
   44.2490    8.8700   43.2330 N   0  0  0  0  0  0  0  0  0  0  0  0
   43.9470    7.7110   43.9720 C   0  0  0  0  0  0  0  0  0  0  0  0
   44.8440    6.8050   43.5590 C   0  0  0  0  0  0  0  0  0  0  0  0
   45.4060    5.4650   43.6840 C   0  0  0  0  0  0  0  0  0  0  0  0
   44.8050    4.4730   44.1470 O   0  0  0  0  0  0  0  0  0  0  0  0
   42.8800    7.4830   44.9340 C   0  0  0  0  0  0  0  0  0  0  0  0
   42.5120    8.3820   45.9400 C   0  0  0  0  0  0  0  0  0  0  0  0
   41.4960    7.8680   46.6050 N   0  0  0  0  0  0  0  0  0  0  0  0
   41.2000    6.6850   46.0730 N   0  0  0  0  0  0  0  0  0  0  0  0
   42.0190    6.4300   45.0670 C   0  0  0  0  0  0  0  0  0  0  0  0
   40.8000    8.4690   47.7420 C   0  0  0  0  0  0  0  0  0  0  0  0
   43.1650    9.6790   46.2340 C   0  0  0  0  0  0  0  0  0  0  0  0
   48.6320    4.8910   44.9290 H   0  0  0  0  0  0  0  0  0  0  0  0
   46.8470    3.5120   41.3760 H   0  0  0  0  0  0  0  0  0  0  0  0
   48.4350    1.5490   41.3810 H   0  0  0  0  0  0  0  0  0  0  0  0
   50.0800    1.2910   43.1360 H   0  0  0  0  0  0  0  0  0  0  0  0
   45.3270    7.2350   41.4950 H   0  0  0  0  0  0  0  0  0  0  0  0
   43.6010    9.6400   43.0270 H   0  0  0  0  0  0  0  0  0  0  0  0
   42.0170    5.5500   44.4510 H   0  0  0  0  0  0  0  0  0  0  0  0
   39.6990    8.4970   47.5330 H   0  0  0  0  0  0  0  0  0  0  0  0
   40.9990    7.9440   48.6920 H   0  0  0  0  0  0  0  0  0  0  0  0
   41.1460    9.5260   47.8470 H   0  0  0  0  0  0  0  0  0  0  0  0
   44.1250    9.7830   45.6730 H   0  0  0  0  0  0  0  0  0  0  0  0
   42.4360   10.4770   46.0090 H   0  0  0  0  0  0  0  0  0  0  0  0
   43.3730    9.6810   47.3180 H   0  0  0  0  0  0  0  0  0  0  0  0
  2  1  1  0  0  0  0
  3  2  1  0  0  0  0
  3 25  1  0  0  0  0
  4  8  1  0  0  0  0
  4  3  2  0  0  0  0
  5  4  1  0  0  0  0
  6  5  2  0  0  0  0
  6  7  1  0  0  0  0
  7  2  2  0  0  0  0
  8 16  1  0  0  0  0
  9  8  1  0  0  0  0
 10  9  2  0  0  0  0
 11 29  1  6  0  0  0
 11  9  1  0  0  0  0
 11 12  1  0  0  0  0
 11 15  1  0  0  0  0
 12 13  1  0  0  0  0
 13 14  1  0  0  0  0
 14 18  1  0  0  0  0
 15 16  1  0  0  0  0
 15 14  2  0  0  0  0
 16 17  2  0  0  0  0
 18 22  1  0  0  0  0
 18 19  2  0  0  0  0
 19 24  1  0  0  0  0
 19 20  1  0  0  0  0
 20 23  1  0  0  0  0
 21 20  1  0  0  0  0
 22 21  2  0  0  0  0
 23 34  1  0  0  0  0
 23 33  1  0  0  0  0
 24 37  1  0  0  0  0
 26  5  1  0  0  0  0
 27  6  1  0  0  0  0
 28  7  1  0  0  0  0
 30 13  1  0  0  0  0
 31 22  1  0  0  0  0
 32 23  1  0  0  0  0
 35 24  1  0  0  0  0
 36 24  1  0  0  0  0
M  END
>  <Pose>
1

>  <Score>
-5.95

$$$$
