
 OpenBabel03172210433D

 37 40  0  0  1  0  0  0  0  0999 V2000
   52.5830    0.6330   42.3160 B   0  0  0  0  0  0  0  0  0  0  0  0
   51.5360    1.6600   43.5280 C   0  0  0  0  0  0  0  0  0  0  0  0
   50.4500    2.4110   43.0660 C   0  0  0  0  0  0  0  0  0  0  0  0
   49.6800    3.1600   43.9260 C   0  0  0  0  0  0  0  0  0  0  0  0
   50.0160    3.1450   45.2570 C   0  0  0  0  0  0  0  0  0  0  0  0
   51.1040    2.3930   45.7240 C   0  0  0  0  0  0  0  0  0  0  0  0
   51.8740    1.6440   44.8610 C   0  0  0  0  0  0  0  0  0  0  0  0
   48.5840    3.9060   43.4330 N   0  0  0  0  0  0  0  0  0  0  0  0
   47.9200    3.7030   42.1670 C   0  0  0  0  0  0  0  0  0  0  0  0
   47.8720    2.6710   41.4870 O   0  0  0  0  0  0  0  0  0  0  0  0
   47.2700    4.9910   41.7900 C   0  0  1  0  0  0  0  0  0  0  0  0
   46.0570    4.8490   41.1410 O   0  0  0  0  0  0  0  0  0  0  0  0
   45.3930    5.9830   41.5430 N   0  0  0  0  0  0  0  0  0  0  0  0
   45.6570    6.0690   42.9550 C   0  0  0  0  0  0  0  0  0  0  0  0
   46.8060    5.4680   43.1520 C   0  0  0  0  0  0  0  0  0  0  0  0
   47.8810    5.0120   44.0410 C   0  0  0  0  0  0  0  0  0  0  0  0
   48.1050    5.5350   45.1380 O   0  0  0  0  0  0  0  0  0  0  0  0
   44.8520    6.6700   43.9840 C   0  0  0  0  0  0  0  0  0  0  0  0
   43.5120    6.3390   44.1750 C   0  0  0  0  0  0  0  0  0  0  0  0
   43.0190    7.0410   45.2110 N   0  0  0  0  0  0  0  0  0  0  0  0
   44.0200    7.7850   45.6490 N   0  0  0  0  0  0  0  0  0  0  0  0
   45.1400    7.6030   44.9530 C   0  0  0  0  0  0  0  0  0  0  0  0
   46.4770    8.2580   45.1560 C   0  0  0  0  0  0  0  0  0  0  0  0
   41.6450    6.9840   45.7350 C   0  0  0  0  0  0  0  0  0  0  0  0
   50.2310    2.3930   42.0240 H   0  0  0  0  0  0  0  0  0  0  0  0
   49.4360    3.7170   45.9470 H   0  0  0  0  0  0  0  0  0  0  0  0
   51.3450    2.4020   46.7870 H   0  0  0  0  0  0  0  0  0  0  0  0
   52.7150    1.0640   45.2420 H   0  0  0  0  0  0  0  0  0  0  0  0
   47.9710    5.6930   41.3250 H   0  0  0  0  0  0  0  0  0  0  0  0
   44.8300    6.6370   40.9890 H   0  0  0  0  0  0  0  0  0  0  0  0
   42.9380    5.6260   43.5870 H   0  0  0  0  0  0  0  0  0  0  0  0
   46.4830    9.2890   44.7990 H   0  0  0  0  0  0  0  0  0  0  0  0
   47.2650    7.6200   44.7600 H   0  0  0  0  0  0  0  0  0  0  0  0
   46.6070    8.3030   46.2690 H   0  0  0  0  0  0  0  0  0  0  0  0
   41.6870    6.1720   46.5150 H   0  0  0  0  0  0  0  0  0  0  0  0
   40.9380    6.7290   44.9400 H   0  0  0  0  0  0  0  0  0  0  0  0
   41.4520    7.9130   46.2640 H   0  0  0  0  0  0  0  0  0  0  0  0
  1  2  1  0  0  0  0
  2  7  1  0  0  0  0
  3  2  2  0  0  0  0
  3  4  1  0  0  0  0
  4  5  2  0  0  0  0
  5  6  1  0  0  0  0
  5 26  1  0  0  0  0
  6 27  1  0  0  0  0
  7 28  1  0  0  0  0
  7  6  2  0  0  0  0
  8  4  1  0  0  0  0
  8 16  1  0  0  0  0
  9  8  1  0  0  0  0
 10  9  2  0  0  0  0
 11 29  1  6  0  0  0
 11  9  1  0  0  0  0
 11 15  1  0  0  0  0
 12 13  1  0  0  0  0
 12 11  1  0  0  0  0
 13 14  1  0  0  0  0
 14 15  2  0  0  0  0
 14 18  1  0  0  0  0
 15 16  1  0  0  0  0
 16 17  2  0  0  0  0
 18 19  2  0  0  0  0
 18 22  1  0  0  0  0
 19 20  1  0  0  0  0
 20 21  1  0  0  0  0
 20 24  1  0  0  0  0
 22 23  1  0  0  0  0
 22 21  2  0  0  0  0
 23 34  1  0  0  0  0
 24 37  1  0  0  0  0
 24 35  1  0  0  0  0
 25  3  1  0  0  0  0
 30 13  1  0  0  0  0
 31 19  1  0  0  0  0
 32 23  1  0  0  0  0
 33 23  1  0  0  0  0
 36 24  1  0  0  0  0
M  END
>  <Pose>
1

>  <Score>
-5.64

$$$$
