
 OpenBabel03172210433D

 52 55  0  0  1  0  0  0  0  0999 V2000
   51.2300    1.3500   42.6600 B   0  0  0  0  0  0  0  0  0  0  0  0
   50.2700    2.6100   43.6890 C   0  0  0  0  0  0  0  0  0  0  0  0
   49.1340    3.2030   43.1510 C   0  0  0  0  0  0  0  0  0  0  0  0
   48.3800    4.1330   43.8430 C   0  0  0  0  0  0  0  0  0  0  0  0
   48.8240    4.4410   45.1110 C   0  0  0  0  0  0  0  0  0  0  0  0
   49.9400    3.8910   45.7060 C   0  0  0  0  0  0  0  0  0  0  0  0
   50.6610    2.9690   44.9790 C   0  0  0  0  0  0  0  0  0  0  0  0
   47.2310    4.6950   43.2430 N   0  0  0  0  0  0  0  0  0  0  0  0
   45.9760    4.9520   43.9340 C   0  0  0  0  0  0  0  0  0  0  0  0
   45.7710    6.3900   43.4120 C   0  0  1  0  0  0  0  0  0  0  0  0
   45.7860    6.0510   41.9180 C   0  0  0  0  0  0  0  0  0  0  0  0
   46.9690    5.1460   41.9180 C   0  0  0  0  0  0  0  0  0  0  0  0
   47.6340    4.8280   40.9060 O   0  0  0  0  0  0  0  0  0  0  0  0
   44.5260    6.9720   43.8740 C   0  0  0  0  0  0  0  0  0  0  0  0
   43.9720    6.4680   44.8830 O   0  0  0  0  0  0  0  0  0  0  0  0
   43.9700    8.0750   43.1930 N   0  0  0  0  0  0  0  0  0  0  0  0
   44.5070    9.4260   43.2860 C   0  0  0  0  0  0  0  0  0  0  0  0
   43.3760   10.4200   43.0550 C   0  0  0  0  0  0  0  0  0  0  0  0
   42.0790    9.8930   43.4290 N   0  0  0  0  0  0  0  0  0  0  0  0
   41.7190    8.8530   42.5300 C   0  0  0  0  0  0  0  0  0  0  0  0
   42.7890    7.8300   42.3550 C   0  0  0  0  0  0  0  0  0  0  0  0
   41.9860    9.6130   44.8180 C   0  0  0  0  0  0  0  0  0  0  0  0
   43.2770    9.8040   45.5720 C   0  0  0  0  0  0  0  0  0  0  0  0
   43.4740   11.1360   46.0670 N   0  0  0  0  0  0  0  0  0  0  0  0
   44.5840   11.6800   46.5700 C   0  0  0  0  0  0  0  0  0  0  0  0
   44.3380   12.9590   46.9260 N   0  0  0  0  0  0  0  0  0  0  0  0
   43.0580   13.2310   46.6480 C   0  0  0  0  0  0  0  0  0  0  0  0
   42.5260   12.0820   46.1100 C   0  0  0  0  0  0  0  0  0  0  0  0
   48.8150    2.9400   42.1570 H   0  0  0  0  0  0  0  0  0  0  0  0
   48.2630    5.1630   45.6820 H   0  0  0  0  0  0  0  0  0  0  0  0
   50.2760    4.1420   46.7030 H   0  0  0  0  0  0  0  0  0  0  0  0
   51.5490    2.5030   45.4000 H   0  0  0  0  0  0  0  0  0  0  0  0
   46.0880    4.9550   45.0330 H   0  0  0  0  0  0  0  0  0  0  0  0
   45.1980    4.2820   43.5530 H   0  0  0  0  0  0  0  0  0  0  0  0
   46.6920    6.9160   43.6710 H   0  0  0  0  0  0  0  0  0  0  0  0
   44.8480    5.5380   41.6400 H   0  0  0  0  0  0  0  0  0  0  0  0
   45.9580    6.9560   41.3110 H   0  0  0  0  0  0  0  0  0  0  0  0
   45.2840    9.5160   42.5010 H   0  0  0  0  0  0  0  0  0  0  0  0
   44.9610    9.6710   44.2440 H   0  0  0  0  0  0  0  0  0  0  0  0
   43.3590   10.6640   41.9930 H   0  0  0  0  0  0  0  0  0  0  0  0
   43.5430   11.3700   43.6080 H   0  0  0  0  0  0  0  0  0  0  0  0
   40.7660    8.3720   42.8580 H   0  0  0  0  0  0  0  0  0  0  0  0
   41.5030    9.3490   41.5410 H   0  0  0  0  0  0  0  0  0  0  0  0
   42.3710    6.8210   42.5620 H   0  0  0  0  0  0  0  0  0  0  0  0
   43.1290    7.8460   41.2770 H   0  0  0  0  0  0  0  0  0  0  0  0
   41.2350   10.2600   45.3380 H   0  0  0  0  0  0  0  0  0  0  0  0
   41.6390    8.5510   44.9870 H   0  0  0  0  0  0  0  0  0  0  0  0
   43.3540    9.0360   46.3870 H   0  0  0  0  0  0  0  0  0  0  0  0
   44.1010    9.5190   44.8540 H   0  0  0  0  0  0  0  0  0  0  0  0
   45.5440   11.2150   46.6880 H   0  0  0  0  0  0  0  0  0  0  0  0
   42.5610   14.1920   46.8270 H   0  0  0  0  0  0  0  0  0  0  0  0
   41.4850   12.0180   45.7890 H   0  0  0  0  0  0  0  0  0  0  0  0
  1  2  1  0  0  0  0
  2  7  1  0  0  0  0
  3  2  2  0  0  0  0
  3  4  1  0  0  0  0
  4  5  2  0  0  0  0
  5 30  1  0  0  0  0
  5  6  1  0  0  0  0
  6 31  1  0  0  0  0
  7 32  1  0  0  0  0
  7  6  2  0  0  0  0
  8  4  1  0  0  0  0
  8  9  1  0  0  0  0
  9 33  1  0  0  0  0
 10 35  1  1  0  0  0
 10 14  1  0  0  0  0
 10  9  1  0  0  0  0
 11 12  1  0  0  0  0
 11 10  1  0  0  0  0
 12  8  1  0  0  0  0
 13 12  2  0  0  0  0
 14 15  2  0  0  0  0
 16 17  1  0  0  0  0
 16 14  1  0  0  0  0
 17 39  1  0  0  0  0
 18 17  1  0  0  0  0
 18 19  1  0  0  0  0
 18 41  1  0  0  0  0
 19 22  1  0  0  0  0
 20 42  1  0  0  0  0
 20 19  1  0  0  0  0
 21 20  1  0  0  0  0
 21 44  1  0  0  0  0
 21 16  1  0  0  0  0
 22 47  1  0  0  0  0
 22 46  1  0  0  0  0
 22 23  1  0  0  0  0
 23 24  1  0  0  0  0
 23 48  1  0  0  0  0
 24 28  1  0  0  0  0
 24 25  1  0  0  0  0
 25 50  1  0  0  0  0
 25 26  2  0  0  0  0
 27 51  1  0  0  0  0
 27 26  1  0  0  0  0
 28 27  2  0  0  0  0
 29  3  1  0  0  0  0
 34  9  1  0  0  0  0
 36 11  1  0  0  0  0
 37 11  1  0  0  0  0
 38 17  1  0  0  0  0
 40 18  1  0  0  0  0
 43 20  1  0  0  0  0
 45 21  1  0  0  0  0
 49 23  1  0  0  0  0
 52 28  1  0  0  0  0
M  END
>  <Pose>
1

>  <Score>
-6.04

$$$$
