
 OpenBabel03172210433D

 45 48  0  0  1  0  0  0  0  0999 V2000
   52.0320    0.8360   42.5080 B   0  0  0  0  0  0  0  0  0  0  0  0
   51.1290    1.9030   43.8090 C   0  0  0  0  0  0  0  0  0  0  0  0
   50.1620    2.8060   43.4620 C   0  0  0  0  0  0  0  0  0  0  0  0
   49.4810    3.6040   44.3990 C   0  0  0  0  0  0  0  0  0  0  0  0
   49.8730    3.4040   45.7380 C   0  0  0  0  0  0  0  0  0  0  0  0
   50.8440    2.4990   46.0890 C   0  0  0  0  0  0  0  0  0  0  0  0
   51.4770    1.7440   45.1230 C   0  0  0  0  0  0  0  0  0  0  0  0
   48.5830    4.4310   44.0080 O   0  0  0  0  0  0  0  0  0  0  0  0
   47.7480    5.3170   43.5730 C   0  0  0  0  0  0  0  0  0  0  0  0
   47.2630    6.2490   44.6950 C   0  0  0  0  0  0  0  0  0  0  0  0
   46.5090    7.3370   44.1510 N   0  0  0  0  0  0  0  0  0  0  0  0
   45.3590    7.1440   43.3360 C   0  0  0  0  0  0  0  0  0  0  0  0
   45.6010    6.9740   42.0910 O   0  0  0  0  0  0  0  0  0  0  0  0
   43.9650    7.1320   43.8260 C   0  0  0  0  0  0  0  0  0  0  0  0
   43.3500    8.4280   43.9220 N   0  0  0  0  0  0  0  0  0  0  0  0
   43.3760    9.1950   45.1370 C   0  0  0  0  0  0  0  0  0  0  0  0
   43.6300    8.7890   46.2990 O   0  0  0  0  0  0  0  0  0  0  0  0
   43.0470   10.5790   44.7940 C   0  0  1  0  0  0  0  0  0  0  0  0
   42.8190   10.6210   43.2700 C   0  0  2  0  0  0  0  0  0  0  0  0
   41.5210   11.3190   43.0640 C   0  0  2  0  0  0  0  0  0  0  0  0
   41.4820   12.2280   44.3100 C   0  0  0  0  0  0  0  0  0  0  0  0
   41.7040   11.0500   45.2800 C   0  0  1  0  0  0  0  0  0  0  0  0
   40.6570   10.1170   44.7410 C   0  0  0  0  0  0  0  0  0  0  0  0
   40.4430   10.3780   43.4560 C   0  0  0  0  0  0  0  0  0  0  0  0
   42.6550    9.1850   42.9220 C   0  0  0  0  0  0  0  0  0  0  0  0
   42.0390    8.6990   41.9580 O   0  0  0  0  0  0  0  0  0  0  0  0
   49.8820    2.9350   42.4130 H   0  0  0  0  0  0  0  0  0  0  0  0
   49.3620    4.0080   46.4610 H   0  0  0  0  0  0  0  0  0  0  0  0
   51.1380    2.3530   47.1160 H   0  0  0  0  0  0  0  0  0  0  0  0
   52.2370    1.0380   45.4140 H   0  0  0  0  0  0  0  0  0  0  0  0
   48.2580    6.0290   42.8330 H   0  0  0  0  0  0  0  0  0  0  0  0
   46.8280    4.9500   43.0110 H   0  0  0  0  0  0  0  0  0  0  0  0
   46.7180    5.6770   45.4670 H   0  0  0  0  0  0  0  0  0  0  0  0
   48.2180    6.5950   45.1900 H   0  0  0  0  0  0  0  0  0  0  0  0
   46.8100    8.3130   44.3570 H   0  0  0  0  0  0  0  0  0  0  0  0
   44.0090    6.7010   44.8710 H   0  0  0  0  0  0  0  0  0  0  0  0
   43.3320    6.4200   43.2150 H   0  0  0  0  0  0  0  0  0  0  0  0
   43.8320   11.3160   45.0880 H   0  0  0  0  0  0  0  0  0  0  0  0
   43.6800   11.0810   42.7570 H   0  0  0  0  0  0  0  0  0  0  0  0
   41.3790   11.8430   42.1470 H   0  0  0  0  0  0  0  0  0  0  0  0
   42.3070   12.9380   44.3270 H   0  0  0  0  0  0  0  0  0  0  0  0
   40.4840   12.6600   44.4560 H   0  0  0  0  0  0  0  0  0  0  0  0
   41.6170   11.3090   46.3070 H   0  0  0  0  0  0  0  0  0  0  0  0
   40.1260    9.3370   45.2720 H   0  0  0  0  0  0  0  0  0  0  0  0
   39.6860   10.0370   42.7660 H   0  0  0  0  0  0  0  0  0  0  0  0
  1  2  1  0  0  0  0
  2  7  1  0  0  0  0
  3  2  2  0  0  0  0
  3  4  1  0  0  0  0
  4  5  2  0  0  0  0
  5  6  1  0  0  0  0
  5 28  1  0  0  0  0
  6 29  1  0  0  0  0
  7 30  1  0  0  0  0
  7  6  2  0  0  0  0
  8  4  1  0  0  0  0
  9  8  1  0  0  0  0
  9 10  1  0  0  0  0
 10 34  1  0  0  0  0
 10 33  1  0  0  0  0
 11 35  1  0  0  0  0
 11 10  1  0  0  0  0
 12 14  1  0  0  0  0
 12 11  1  0  0  0  0
 13 12  2  0  0  0  0
 14 15  1  0  0  0  0
 14 36  1  0  0  0  0
 15 16  1  0  0  0  0
 16 17  2  0  0  0  0
 18 38  1  1  0  0  0
 18 16  1  0  0  0  0
 18 22  1  0  0  0  0
 19 39  1  6  0  0  0
 19 18  1  0  0  0  0
 20 40  1  6  0  0  0
 20 19  1  0  0  0  0
 20 24  1  0  0  0  0
 20 21  1  0  0  0  0
 21 41  1  0  0  0  0
 21 42  1  0  0  0  0
 21 22  1  0  0  0  0
 22 43  1  1  0  0  0
 23 44  1  0  0  0  0
 23 22  1  0  0  0  0
 24 23  2  0  0  0  0
 25 19  1  0  0  0  0
 25 15  1  0  0  0  0
 26 25  2  0  0  0  0
 27  3  1  0  0  0  0
 31  9  1  0  0  0  0
 32  9  1  0  0  0  0
 37 14  1  0  0  0  0
 45 24  1  0  0  0  0
M  END
>  <Pose>
1

>  <Score>
-6.24

$$$$
