
 OpenBabel03172210433D

 41 44  0  0  1  0  0  0  0  0999 V2000
   46.2190    5.8270   42.5640 B   0  0  0  0  0  0  0  0  0  0  0  0
   44.8140    6.8220   43.3900 C   0  0  0  0  0  0  0  0  0  0  0  0
   44.6640    8.1720   43.1590 C   0  0  0  0  0  0  0  0  0  0  0  0
   43.6680    8.9310   43.7310 C   0  0  0  0  0  0  0  0  0  0  0  0
   42.7620    8.3470   44.5780 C   0  0  0  0  0  0  0  0  0  0  0  0
   42.9020    6.9900   44.8170 C   0  0  0  0  0  0  0  0  0  0  0  0
   43.9010    6.2390   44.2410 C   0  0  0  0  0  0  0  0  0  0  0  0
   41.6980    9.0930   45.2110 C   0  0  0  0  0  0  0  0  0  0  0  0
   41.5580    8.9860   46.4730 O   0  0  0  0  0  0  0  0  0  0  0  0
   40.7470    9.9760   44.5210 C   0  0  1  0  0  0  0  0  0  0  0  0
   39.6920   10.4240   45.4160 N   0  0  0  0  0  0  0  0  0  0  0  0
   39.2780   10.1560   46.7050 N   0  0  0  0  0  0  0  0  0  0  0  0
   38.3440   10.8080   47.3030 C   0  0  0  0  0  0  0  0  0  0  0  0
   37.6640   11.8790   46.6120 C   0  0  0  0  0  0  0  0  0  0  0  0
   37.9830   12.1760   45.3730 C   0  0  0  0  0  0  0  0  0  0  0  0
   39.0060   11.4540   44.6400 C   0  0  1  0  0  0  0  0  0  0  0  0
   40.1560   12.2580   44.1460 C   0  0  2  0  0  0  0  0  0  0  0  0
   41.3560   11.3040   44.1270 C   0  0  1  0  0  0  0  0  0  0  0  0
   42.2540   11.8460   45.1440 C   0  0  0  0  0  0  0  0  0  0  0  0
   43.2370   11.2400   45.6530 O   0  0  0  0  0  0  0  0  0  0  0  0
   41.8400   13.1590   45.4680 N   0  0  0  0  0  0  0  0  0  0  0  0
   40.5110   13.3850   45.0160 C   0  0  0  0  0  0  0  0  0  0  0  0
   39.7740   14.3600   45.3010 O   0  0  0  0  0  0  0  0  0  0  0  0
   42.6350   14.1490   46.1560 C   0  0  0  0  0  0  0  0  0  0  0  0
   41.9900   14.6740   47.4030 C   0  0  0  0  0  0  0  0  0  0  0  0
   45.3670    8.6800   42.4880 H   0  0  0  0  0  0  0  0  0  0  0  0
   43.5720   10.0040   43.5250 H   0  0  0  0  0  0  0  0  0  0  0  0
   42.1890    6.4930   45.4930 H   0  0  0  0  0  0  0  0  0  0  0  0
   43.9760    5.1860   44.4540 H   0  0  0  0  0  0  0  0  0  0  0  0
   40.3730    9.4810   43.6280 H   0  0  0  0  0  0  0  0  0  0  0  0
   38.0350   10.5820   48.3350 H   0  0  0  0  0  0  0  0  0  0  0  0
   36.8840   12.4300   47.1430 H   0  0  0  0  0  0  0  0  0  0  0  0
   37.4670   12.9900   44.8760 H   0  0  0  0  0  0  0  0  0  0  0  0
   38.5020   10.8910   43.8010 H   0  0  0  0  0  0  0  0  0  0  0  0
   39.9510   12.6750   43.1350 H   0  0  0  0  0  0  0  0  0  0  0  0
   41.7480   11.3430   43.1060 H   0  0  0  0  0  0  0  0  0  0  0  0
   42.8810   15.0190   45.5060 H   0  0  0  0  0  0  0  0  0  0  0  0
   43.6300   13.7240   46.4620 H   0  0  0  0  0  0  0  0  0  0  0  0
   40.8790   14.6330   47.3610 H   0  0  0  0  0  0  0  0  0  0  0  0
   42.3840   14.1460   48.3060 H   0  0  0  0  0  0  0  0  0  0  0  0
   42.2610   15.7520   47.5530 H   0  0  0  0  0  0  0  0  0  0  0  0
  1  2  1  0  0  0  0
  2  7  1  0  0  0  0
  3  2  2  0  0  0  0
  3  4  1  0  0  0  0
  4  5  2  0  0  0  0
  5  6  1  0  0  0  0
  5  8  1  0  0  0  0
  6 28  1  0  0  0  0
  7 29  1  0  0  0  0
  7  6  2  0  0  0  0
  8  9  2  0  0  0  0
 10 30  1  6  0  0  0
 10  8  1  0  0  0  0
 10 11  1  0  0  0  0
 11 12  1  0  0  0  0
 12 13  2  0  0  0  0
 13 31  1  0  0  0  0
 14 32  1  0  0  0  0
 14 13  1  0  0  0  0
 15 14  2  0  0  0  0
 16 34  1  6  0  0  0
 16 15  1  0  0  0  0
 16 11  1  0  0  0  0
 17 35  1  6  0  0  0
 17 16  1  0  0  0  0
 17 22  1  0  0  0  0
 18 36  1  6  0  0  0
 18 17  1  0  0  0  0
 18 10  1  0  0  0  0
 18 19  1  0  0  0  0
 19 21  1  0  0  0  0
 19 20  2  0  0  0  0
 21 24  1  0  0  0  0
 22 23  2  0  0  0  0
 22 21  1  0  0  0  0
 24 38  1  0  0  0  0
 24 25  1  0  0  0  0
 25 41  1  0  0  0  0
 25 40  1  0  0  0  0
 26  3  1  0  0  0  0
 27  4  1  0  0  0  0
 33 15  1  0  0  0  0
 37 24  1  0  0  0  0
 39 25  1  0  0  0  0
M  END
>  <Pose>
1

>  <Score>
-4.57

$$$$
