
 OpenBabel03172210433D

 35 38  0  0  1  0  0  0  0  0999 V2000
   44.1780    8.9450   43.7280 B   0  0  0  0  0  0  0  0  0  0  0  0
   45.2920    7.4270   43.3920 C   0  0  0  0  0  0  0  0  0  0  0  0
   46.1940    7.0280   44.3340 C   0  0  0  0  0  0  0  0  0  0  0  0
   47.0040    5.9330   44.1090 C   0  0  0  0  0  0  0  0  0  0  0  0
   46.9220    5.2120   42.9220 C   0  0  0  0  0  0  0  0  0  0  0  0
   46.0060    5.6290   41.9840 C   0  0  0  0  0  0  0  0  0  0  0  0
   45.1970    6.7150   42.1960 C   0  0  0  0  0  0  0  0  0  0  0  0
   47.7810    4.0670   42.7390 C   0  0  0  0  0  0  0  0  0  0  0  0
   47.9620    3.6490   41.5500 O   0  0  0  0  0  0  0  0  0  0  0  0
   48.3910    3.4420   43.8470 N   0  0  0  0  0  0  0  0  0  0  0  0
   49.7990    3.4640   44.0260 N   0  0  0  0  0  0  0  0  0  0  0  0
   50.5660    4.1430   45.0150 C   0  0  0  0  0  0  0  0  0  0  0  0
   50.0310    4.9880   45.8100 O   0  0  0  0  0  0  0  0  0  0  0  0
   51.9890    3.7200   44.9540 C   0  0  2  0  0  0  0  0  0  0  0  0
   51.9390    2.5990   43.9330 C   0  0  1  0  0  0  0  0  0  0  0  0
   51.9150    1.3900   44.8440 C   0  0  1  0  0  0  0  0  0  0  0  0
   53.1180    1.7860   45.7260 C   0  0  0  0  0  0  0  0  0  0  0  0
   52.4180    3.0610   46.2340 C   0  0  2  0  0  0  0  0  0  0  0  0
   51.1840    2.4030   46.7930 C   0  0  0  0  0  0  0  0  0  0  0  0
   50.8430    1.5110   45.8710 C   0  0  0  0  0  0  0  0  0  0  0  0
   50.6830    2.7590   43.1790 C   0  0  0  0  0  0  0  0  0  0  0  0
   50.4700    2.3430   42.0200 O   0  0  0  0  0  0  0  0  0  0  0  0
   46.2840    7.5570   45.2550 H   0  0  0  0  0  0  0  0  0  0  0  0
   47.7110    5.6560   44.8840 H   0  0  0  0  0  0  0  0  0  0  0  0
   45.9260    5.0730   41.0410 H   0  0  0  0  0  0  0  0  0  0  0  0
   44.4710    7.0610   41.4710 H   0  0  0  0  0  0  0  0  0  0  0  0
   47.8110    2.9470   44.5480 H   0  0  0  0  0  0  0  0  0  0  0  0
   52.6510    4.5510   44.6490 H   0  0  0  0  0  0  0  0  0  0  0  0
   52.8410    2.5990   43.3280 H   0  0  0  0  0  0  0  0  0  0  0  0
   52.0270    0.4430   44.3720 H   0  0  0  0  0  0  0  0  0  0  0  0
   53.2690    1.0520   46.5240 H   0  0  0  0  0  0  0  0  0  0  0  0
   53.9880    2.0040   45.1140 H   0  0  0  0  0  0  0  0  0  0  0  0
   52.9910    3.6280   46.9220 H   0  0  0  0  0  0  0  0  0  0  0  0
   50.7580    2.6700   47.7390 H   0  0  0  0  0  0  0  0  0  0  0  0
   49.9150    0.9620   45.8790 H   0  0  0  0  0  0  0  0  0  0  0  0
  2  1  1  0  0  0  0
  2  3  1  0  0  0  0
  3 23  1  0  0  0  0
  4  3  2  0  0  0  0
  4 24  1  0  0  0  0
  5  4  1  0  0  0  0
  6  7  1  0  0  0  0
  6  5  2  0  0  0  0
  7  2  2  0  0  0  0
  8  5  1  0  0  0  0
  8 10  1  0  0  0  0
  9  8  2  0  0  0  0
 10 11  1  0  0  0  0
 10 27  1  0  0  0  0
 11 12  1  0  0  0  0
 12 13  2  0  0  0  0
 14 28  1  6  0  0  0
 14 12  1  0  0  0  0
 14 18  1  0  0  0  0
 15 29  1  6  0  0  0
 15 16  1  0  0  0  0
 15 14  1  0  0  0  0
 16 30  1  6  0  0  0
 16 17  1  0  0  0  0
 16 20  1  0  0  0  0
 17 18  1  0  0  0  0
 17 31  1  0  0  0  0
 18 19  1  0  0  0  0
 18 33  1  1  0  0  0
 19 34  1  0  0  0  0
 20 35  1  0  0  0  0
 20 19  2  0  0  0  0
 21 15  1  0  0  0  0
 21 11  1  0  0  0  0
 22 21  2  0  0  0  0
 25  6  1  0  0  0  0
 26  7  1  0  0  0  0
 32 17  1  0  0  0  0
M  END
>  <Pose>
1

>  <Score>
-6.38

$$$$
