
 OpenBabel03172210433D

 49 52  0  0  1  0  0  0  0  0999 V2000
   34.5570   11.1880   45.1220 B   0  0  0  0  0  0  0  0  0  0  0  0
   36.4530   11.3840   45.1250 C   0  0  0  0  0  0  0  0  0  0  0  0
   37.0860   12.5980   44.9690 C   0  0  0  0  0  0  0  0  0  0  0  0
   38.4580   12.7210   44.9740 C   0  0  0  0  0  0  0  0  0  0  0  0
   39.2790   11.5980   45.1390 C   0  0  0  0  0  0  0  0  0  0  0  0
   38.6300   10.3910   45.2940 C   0  0  0  0  0  0  0  0  0  0  0  0
   37.2420   10.2650   45.2890 C   0  0  0  0  0  0  0  0  0  0  0  0
   40.7210   11.7640   45.1710 C   0  0  0  0  0  0  0  0  0  0  0  0
   41.4790   11.0770   44.3550 C   0  0  0  0  0  0  0  0  0  0  0  0
   42.9720   11.0950   44.2300 C   0  0  2  0  0  0  0  0  0  0  0  0
   43.2430    9.6810   43.9960 N   0  0  0  0  0  0  0  0  0  0  0  0
   42.1840    9.2560   43.1150 C   0  0  0  0  0  0  0  0  0  0  0  0
   42.2680    8.3000   42.3270 O   0  0  0  0  0  0  0  0  0  0  0  0
   41.0330   10.1470   43.3290 C   0  0  0  0  0  0  0  0  0  0  0  0
   39.9130   10.1170   42.7550 O   0  0  0  0  0  0  0  0  0  0  0  0
   44.3300    8.9080   44.5220 C   0  0  0  0  0  0  0  0  0  0  0  0
   44.5260    7.6060   43.7620 C   0  0  0  0  0  0  0  0  0  0  0  0
   46.0290    7.3450   43.6710 C   0  0  0  0  0  0  0  0  0  0  0  0
   46.3250    6.2270   42.7960 N   0  0  0  0  0  0  0  0  0  0  0  0
   45.8180    5.9890   41.5640 C   0  0  0  0  0  0  0  0  0  0  0  0
   46.3480    4.8490   41.0880 N   0  0  0  0  0  0  0  0  0  0  0  0
   47.1950    4.3350   41.9910 C   0  0  0  0  0  0  0  0  0  0  0  0
   47.1670    5.2140   43.0550 C   0  0  0  0  0  0  0  0  0  0  0  0
   43.5980   11.6080   45.4740 C   0  0  0  0  0  0  0  0  0  0  0  0
   44.3770   12.6970   45.3820 N   0  0  0  0  0  0  0  0  0  0  0  0
   44.9840   13.2540   46.4330 C   0  0  0  0  0  0  0  0  0  0  0  0
   44.7970   12.6780   47.6680 C   0  0  0  0  0  0  0  0  0  0  0  0
   44.0070   11.5620   47.8080 C   0  0  0  0  0  0  0  0  0  0  0  0
   43.4070   11.0290   46.6970 C   0  0  0  0  0  0  0  0  0  0  0  0
   41.3350   12.6580   46.0700 O   0  0  0  0  0  0  0  0  0  0  0  0
   36.4480   13.4670   44.8420 H   0  0  0  0  0  0  0  0  0  0  0  0
   38.9530   13.6800   44.8510 H   0  0  0  0  0  0  0  0  0  0  0  0
   39.2200    9.4970   45.4440 H   0  0  0  0  0  0  0  0  0  0  0  0
   36.7830    9.2760   45.4170 H   0  0  0  0  0  0  0  0  0  0  0  0
   43.2910   11.7130   43.3760 H   0  0  0  0  0  0  0  0  0  0  0  0
   44.0490    8.5890   45.5610 H   0  0  0  0  0  0  0  0  0  0  0  0
   45.2930    9.4110   44.5810 H   0  0  0  0  0  0  0  0  0  0  0  0
   44.0860    6.7420   44.2720 H   0  0  0  0  0  0  0  0  0  0  0  0
   44.1670    7.7010   42.7220 H   0  0  0  0  0  0  0  0  0  0  0  0
   46.4930    8.2830   43.2900 H   0  0  0  0  0  0  0  0  0  0  0  0
   46.4550    7.1850   44.6990 H   0  0  0  0  0  0  0  0  0  0  0  0
   45.1050    6.5980   41.0270 H   0  0  0  0  0  0  0  0  0  0  0  0
   46.1430    4.4070   40.1480 H   0  0  0  0  0  0  0  0  0  0  0  0
   47.7900    3.4350   41.9370 H   0  0  0  0  0  0  0  0  0  0  0  0
   47.7410    5.1110   43.9790 H   0  0  0  0  0  0  0  0  0  0  0  0
   45.6180   14.1440   46.3470 H   0  0  0  0  0  0  0  0  0  0  0  0
   45.2900   13.1260   48.5380 H   0  0  0  0  0  0  0  0  0  0  0  0
   43.8540   11.1020   48.7750 H   0  0  0  0  0  0  0  0  0  0  0  0
   42.7630   10.1500   46.7440 H   0  0  0  0  0  0  0  0  0  0  0  0
  1  2  1  0  0  0  0
  2  7  1  0  0  0  0
  3  4  1  0  0  0  0
  3  2  2  0  0  0  0
  4  5  2  0  0  0  0
  5  8  1  0  0  0  0
  5  6  1  0  0  0  0
  6 33  1  0  0  0  0
  7  6  2  0  0  0  0
  7 34  1  0  0  0  0
  8 30  1  0  0  0  0
  9  8  2  0  0  0  0
 10 35  1  6  0  0  0
 10  9  1  0  0  0  0
 10 24  1  0  0  0  0
 11 10  1  0  0  0  0
 11 16  1  0  0  0  0
 12 14  1  0  0  0  0
 12 11  1  0  0  0  0
 13 12  2  0  0  0  0
 14  9  1  0  0  0  0
 15 14  2  0  0  0  0
 16 37  1  0  0  0  0
 16 36  1  0  0  0  0
 17 38  1  0  0  0  0
 17 16  1  0  0  0  0
 18 17  1  0  0  0  0
 18 41  1  0  0  0  0
 19 23  1  0  0  0  0
 19 18  1  0  0  0  0
 20 19  1  0  0  0  0
 21 20  1  0  0  0  0
 21 22  1  0  0  0  0
 22 23  2  0  0  0  0
 23 45  1  0  0  0  0
 24 29  1  0  0  0  0
 25 24  2  0  0  0  0
 25 26  1  0  0  0  0
 26 27  2  0  0  0  0
 27 28  1  0  0  0  0
 27 47  1  0  0  0  0
 28 48  1  0  0  0  0
 29 49  1  0  0  0  0
 29 28  2  0  0  0  0
 31  3  1  0  0  0  0
 32  4  1  0  0  0  0
 39 17  1  0  0  0  0
 40 18  1  0  0  0  0
 42 20  1  0  0  0  0
 43 21  1  0  0  0  0
 44 22  1  0  0  0  0
 46 26  1  0  0  0  0
M  END
>  <Pose>
1

>  <Score>
-5.83

$$$$
