
 OpenBabel03172210433D

 55 58  0  0  1  0  0  0  0  0999 V2000
   35.1050   13.2740   44.6340 B   0  0  0  0  0  0  0  0  0  0  0  0
   36.8710   12.6000   44.9860 C   0  0  0  0  0  0  0  0  0  0  0  0
   36.9900   11.2810   45.3610 C   0  0  0  0  0  0  0  0  0  0  0  0
   38.2350   10.7790   45.6160 C   0  0  0  0  0  0  0  0  0  0  0  0
   39.3670   11.5830   45.4990 C   0  0  0  0  0  0  0  0  0  0  0  0
   39.2380   12.8810   45.1280 C   0  0  0  0  0  0  0  0  0  0  0  0
   37.9870   13.4010   44.8680 C   0  0  0  0  0  0  0  0  0  0  0  0
   40.6290   10.9490   45.8440 C   0  0  0  0  0  0  0  0  0  0  0  0
   41.3730   10.3810   44.9330 C   0  0  0  0  0  0  0  0  0  0  0  0
   42.6990    9.6950   45.1370 C   0  0  2  0  0  0  0  0  0  0  0  0
   42.6960    8.6740   44.1470 N   0  0  0  0  0  0  0  0  0  0  0  0
   41.8970    9.1570   43.0400 C   0  0  0  0  0  0  0  0  0  0  0  0
   41.9050    8.7420   41.8560 O   0  0  0  0  0  0  0  0  0  0  0  0
   41.0530   10.2410   43.5300 C   0  0  0  0  0  0  0  0  0  0  0  0
   40.2150   10.9000   42.8270 O   0  0  0  0  0  0  0  0  0  0  0  0
   43.3370    7.3760   44.0470 C   0  0  0  0  0  0  0  0  0  0  0  0
   44.3140    7.0550   45.1320 C   0  0  0  0  0  0  0  0  0  0  0  0
   45.4230    6.2370   44.6700 N   0  0  0  0  0  4  0  0  0  0  0  0
   46.6780    6.9960   44.7040 C   0  0  0  0  0  0  0  0  0  0  0  0
   47.7660    5.9730   44.3500 C   0  0  0  0  0  0  0  0  0  0  0  0
   47.5790    5.4200   43.1070 O   0  0  0  0  0  0  0  0  0  0  0  0
   46.3150    4.8860   42.9070 C   0  0  0  0  0  0  0  0  0  0  0  0
   45.2230    5.8520   43.2950 C   0  0  0  0  0  0  0  0  0  0  0  0
   42.8860    9.3010   46.5280 C   0  0  0  0  0  0  0  0  0  0  0  0
   42.1350    8.3840   47.2120 C   0  0  0  0  0  0  0  0  0  0  0  0
   42.3830    8.0610   48.5200 C   0  0  0  0  0  0  0  0  0  0  0  0
   43.4150    8.6710   49.1810 C   0  0  0  0  0  0  0  0  0  0  0  0
   44.2140    9.6120   48.5390 C   0  0  0  0  0  0  0  0  0  0  0  0
   43.9390    9.9110   47.2300 C   0  0  0  0  0  0  0  0  0  0  0  0
   41.5690    7.1070   49.1620 N   0  0  0  0  0  0  0  0  0  0  0  0
   41.9310    5.9130   49.3220 O   0  0  0  0  0  0  0  0  0  0  0  0
   40.3360    7.5030   49.6280 O   0  0  0  0  0  0  0  0  0  0  0  0
   41.0840   10.9300   47.1820 O   0  0  0  0  0  0  0  0  0  0  0  0
   36.1250   10.6190   45.4640 H   0  0  0  0  0  0  0  0  0  0  0  0
   38.3390    9.7210   45.9180 H   0  0  0  0  0  0  0  0  0  0  0  0
   40.1270   13.5240   45.0640 H   0  0  0  0  0  0  0  0  0  0  0  0
   37.8850   14.4470   44.5690 H   0  0  0  0  0  0  0  0  0  0  0  0
   43.4810   10.4380   44.8310 H   0  0  0  0  0  0  0  0  0  0  0  0
   43.8980    7.3710   43.0850 H   0  0  0  0  0  0  0  0  0  0  0  0
   42.5890    6.5560   44.0080 H   0  0  0  0  0  0  0  0  0  0  0  0
   43.9250    6.6490   46.0540 H   0  0  0  0  0  0  0  0  0  0  0  0
   44.7470    8.0760   45.4310 H   0  0  0  0  0  0  0  0  0  0  0  0
   45.5920    5.3980   45.2300 H   0  0  0  0  0  0  0  0  0  0  0  0
   46.9130    7.3520   45.7250 H   0  0  0  0  0  0  0  0  0  0  0  0
   46.7210    7.7730   43.9370 H   0  0  0  0  0  0  0  0  0  0  0  0
   48.7620    6.4150   44.3950 H   0  0  0  0  0  0  0  0  0  0  0  0
   47.7020    5.1920   45.1560 H   0  0  0  0  0  0  0  0  0  0  0  0
   46.2190    4.7400   41.7920 H   0  0  0  0  0  0  0  0  0  0  0  0
   46.1630    3.9060   43.3790 H   0  0  0  0  0  0  0  0  0  0  0  0
   44.2500    5.3360   43.2220 H   0  0  0  0  0  0  0  0  0  0  0  0
   45.2510    6.7470   42.6310 H   0  0  0  0  0  0  0  0  0  0  0  0
   41.3190    7.9070   46.7020 H   0  0  0  0  0  0  0  0  0  0  0  0
   43.6640    8.4610   50.2120 H   0  0  0  0  0  0  0  0  0  0  0  0
   45.0380   10.0980   49.0680 H   0  0  0  0  0  0  0  0  0  0  0  0
   44.5720   10.6560   46.7240 H   0  0  0  0  0  0  0  0  0  0  0  0
  1  2  1  0  0  0  0
  2  3  1  0  0  0  0
  3 34  1  0  0  0  0
  3  4  2  0  0  0  0
  4 35  1  0  0  0  0
  5  4  1  0  0  0  0
  5  8  1  0  0  0  0
  6  5  2  0  0  0  0
  7  2  2  0  0  0  0
  7  6  1  0  0  0  0
  8 33  1  0  0  0  0
  9 10  1  0  0  0  0
  9  8  2  0  0  0  0
 10 38  1  6  0  0  0
 10 24  1  0  0  0  0
 11 10  1  0  0  0  0
 12 14  1  0  0  0  0
 12 11  1  0  0  0  0
 13 12  2  0  0  0  0
 14  9  1  0  0  0  0
 15 14  2  0  0  0  0
 16 11  1  0  0  0  0
 16 17  1  0  0  0  0
 17 42  1  0  0  0  0
 17 41  1  0  0  0  0
 18 19  1  0  0  0  0
 18 17  1  0  0  0  0
 18 43  1  0  0  0  0
 19 44  1  0  0  0  0
 20 46  1  0  0  0  0
 20 19  1  0  0  0  0
 20 47  1  0  0  0  0
 21 20  1  0  0  0  0
 22 21  1  0  0  0  0
 22 23  1  0  0  0  0
 22 49  1  0  0  0  0
 23 18  1  0  0  0  0
 24 25  2  0  0  0  0
 24 29  1  0  0  0  0
 25 26  1  0  0  0  0
 26 30  1  0  0  0  0
 26 27  2  0  0  0  0
 27 53  1  0  0  0  0
 28 54  1  0  0  0  0
 28 27  1  0  0  0  0
 29 28  2  0  0  0  0
 30 31  2  0  0  0  0
 30 32  2  0  0  0  0
 36  6  1  0  0  0  0
 37  7  1  0  0  0  0
 39 16  1  0  0  0  0
 40 16  1  0  0  0  0
 45 19  1  0  0  0  0
 48 22  1  0  0  0  0
 50 23  1  0  0  0  0
 51 23  1  0  0  0  0
 52 25  1  0  0  0  0
 55 29  1  0  0  0  0
M  END
>  <Pose>
1

>  <Score>
-5.75

$$$$
