
 OpenBabel03172210433D

 59 62  0  0  1  0  0  0  0  0999 V2000
   46.8440   14.7470   50.7540 B   0  0  0  0  0  0  0  0  0  0  0  0
   45.7320   14.0940   49.3410 C   0  0  0  0  0  0  0  0  0  0  0  0
   45.8080   12.7700   48.9680 C   0  0  0  0  0  0  0  0  0  0  0  0
   45.0130   12.2810   47.9540 C   0  0  0  0  0  0  0  0  0  0  0  0
   44.0980   13.0780   47.2540 C   0  0  0  0  0  0  0  0  0  0  0  0
   44.0360   14.3960   47.6400 C   0  0  0  0  0  0  0  0  0  0  0  0
   44.8420   14.8980   48.6700 C   0  0  0  0  0  0  0  0  0  0  0  0
   43.3130   12.5110   46.1680 C   0  0  0  0  0  0  0  0  0  0  0  0
   42.1660   11.8910   46.3400 C   0  0  0  0  0  0  0  0  0  0  0  0
   41.3130   11.2920   45.2510 C   0  0  2  0  0  0  0  0  0  0  0  0
   40.1390   10.8080   45.8910 N   0  0  0  0  0  0  0  0  0  0  0  0
   40.2410   10.9290   47.3250 C   0  0  0  0  0  0  0  0  0  0  0  0
   39.4410   10.5510   48.1920 O   0  0  0  0  0  0  0  0  0  0  0  0
   41.5240   11.6120   47.6040 C   0  0  0  0  0  0  0  0  0  0  0  0
   41.9620   11.8910   48.7660 O   0  0  0  0  0  0  0  0  0  0  0  0
   38.9650   10.2470   45.2790 C   0  0  0  0  0  0  0  0  0  0  0  0
   37.6690   10.8090   45.7530 C   0  0  0  0  0  0  0  0  0  0  0  0
   36.9700   11.6260   44.8070 N   0  0  0  0  0  4  0  0  0  0  0  0
   37.2340   13.0430   44.9430 C   0  0  0  0  0  0  0  0  0  0  0  0
   36.5840   13.7330   43.7610 C   0  0  0  0  0  0  0  0  0  0  0  0
   35.1890   13.5890   43.9530 O   0  0  0  0  0  0  0  0  0  0  0  0
   34.9210   12.2300   43.7650 C   0  0  0  0  0  0  0  0  0  0  0  0
   35.5080   11.4780   44.9490 C   0  0  0  0  0  0  0  0  0  0  0  0
   42.1400   10.1750   44.7010 C   0  0  0  0  0  0  0  0  0  0  0  0
   42.0310    9.8850   43.3770 C   0  0  0  0  0  0  0  0  0  0  0  0
   42.7670    8.8610   42.8180 C   0  0  0  0  0  0  0  0  0  0  0  0
   43.6180    8.1270   43.5980 C   0  0  0  0  0  0  0  0  0  0  0  0
   43.7280    8.4210   44.9320 C   0  0  0  0  0  0  0  0  0  0  0  0
   42.9910    9.4480   45.5000 C   0  0  0  0  0  0  0  0  0  0  0  0
   44.4030    7.0350   43.0170 C   0  0  0  0  0  0  0  0  0  0  0  0
   44.6060    7.0120   41.7760 O   0  0  0  0  0  0  0  0  0  0  0  0
   44.9350    6.0180   43.7610 O   0  0  0  0  0  0  0  0  0  0  0  0
   46.0090    5.2210   43.3160 C   0  0  0  0  0  0  0  0  0  0  0  0
   43.7630   12.6030   44.8310 O   0  0  0  0  0  0  0  0  0  0  0  0
   46.5170   12.1270   49.5020 H   0  0  0  0  0  0  0  0  0  0  0  0
   45.0890   11.2470   47.6780 H   0  0  0  0  0  0  0  0  0  0  0  0
   43.3570   15.0750   47.1130 H   0  0  0  0  0  0  0  0  0  0  0  0
   44.7710   15.9380   48.9510 H   0  0  0  0  0  0  0  0  0  0  0  0
   41.1730   12.0980   44.5160 H   0  0  0  0  0  0  0  0  0  0  0  0
   39.0090   10.3310   44.1540 H   0  0  0  0  0  0  0  0  0  0  0  0
   38.9130    9.1350   45.4600 H   0  0  0  0  0  0  0  0  0  0  0  0
   37.9080   11.4840   46.6270 H   0  0  0  0  0  0  0  0  0  0  0  0
   36.9900   10.0450   46.1820 H   0  0  0  0  0  0  0  0  0  0  0  0
   37.1400   11.3130   43.8140 H   0  0  0  0  0  0  0  0  0  0  0  0
   38.3120   13.2860   45.0240 H   0  0  0  0  0  0  0  0  0  0  0  0
   36.7000   13.4100   45.8540 H   0  0  0  0  0  0  0  0  0  0  0  0
   36.8350   14.8170   43.7690 H   0  0  0  0  0  0  0  0  0  0  0  0
   36.8850   13.2400   42.7960 H   0  0  0  0  0  0  0  0  0  0  0  0
   35.5190   11.9030   42.8700 H   0  0  0  0  0  0  0  0  0  0  0  0
   33.8380   12.0370   43.6530 H   0  0  0  0  0  0  0  0  0  0  0  0
   35.2400   11.9660   45.9200 H   0  0  0  0  0  0  0  0  0  0  0  0
   35.2120   10.4100   44.9450 H   0  0  0  0  0  0  0  0  0  0  0  0
   41.3790   10.4320   42.7330 H   0  0  0  0  0  0  0  0  0  0  0  0
   42.6700    8.6440   41.7780 H   0  0  0  0  0  0  0  0  0  0  0  0
   44.4180    7.8170   45.5350 H   0  0  0  0  0  0  0  0  0  0  0  0
   43.0780    9.6750   46.5350 H   0  0  0  0  0  0  0  0  0  0  0  0
   45.6970    4.2460   42.9370 H   0  0  0  0  0  0  0  0  0  0  0  0
   46.5920    5.7480   42.5200 H   0  0  0  0  0  0  0  0  0  0  0  0
   46.7270    5.0320   44.1640 H   0  0  0  0  0  0  0  0  0  0  0  0
  2  1  1  0  0  0  0
  3  2  1  0  0  0  0
  3 35  1  0  0  0  0
  4  3  2  0  0  0  0
  5  6  2  0  0  0  0
  5  4  1  0  0  0  0
  6  7  1  0  0  0  0
  7 38  1  0  0  0  0
  7  2  2  0  0  0  0
  8  9  2  0  0  0  0
  8  5  1  0  0  0  0
  9 14  1  0  0  0  0
 10 39  1  6  0  0  0
 10 11  1  0  0  0  0
 10  9  1  0  0  0  0
 11 12  1  0  0  0  0
 12 14  1  0  0  0  0
 12 13  2  0  0  0  0
 14 15  2  0  0  0  0
 16 41  1  0  0  0  0
 16 17  1  0  0  0  0
 16 11  1  0  0  0  0
 17 43  1  0  0  0  0
 17 42  1  0  0  0  0
 18 19  1  0  0  0  0
 18 23  1  0  0  0  0
 18 17  1  0  0  0  0
 19 45  1  0  0  0  0
 19 46  1  0  0  0  0
 20 47  1  0  0  0  0
 20 21  1  0  0  0  0
 20 19  1  0  0  0  0
 22 21  1  0  0  0  0
 22 23  1  0  0  0  0
 23 51  1  0  0  0  0
 24 10  1  0  0  0  0
 24 29  1  0  0  0  0
 25 24  2  0  0  0  0
 26 25  1  0  0  0  0
 26 27  2  0  0  0  0
 27 28  1  0  0  0  0
 28 29  2  0  0  0  0
 28 55  1  0  0  0  0
 29 56  1  0  0  0  0
 30 27  1  0  0  0  0
 30 32  1  0  0  0  0
 31 30  2  0  0  0  0
 33 32  1  0  0  0  0
 33 59  1  0  0  0  0
 34  8  1  0  0  0  0
 36  4  1  0  0  0  0
 37  6  1  0  0  0  0
 40 16  1  0  0  0  0
 44 18  1  0  0  0  0
 48 20  1  0  0  0  0
 49 22  1  0  0  0  0
 50 22  1  0  0  0  0
 52 23  1  0  0  0  0
 53 25  1  0  0  0  0
 54 26  1  0  0  0  0
 57 33  1  0  0  0  0
 58 33  1  0  0  0  0
M  END
>  <Pose>
1

>  <Score>
-4.83

$$$$
