
 OpenBabel03172210433D

 48 51  0  0  1  0  0  0  0  0999 V2000
   41.1870   10.6860   42.6030 B   0  0  0  0  0  0  0  0  0  0  0  0
   42.4720    9.3720   43.1370 C   0  0  0  0  0  0  0  0  0  0  0  0
   43.7750    9.7560   43.3590 C   0  0  0  0  0  0  0  0  0  0  0  0
   44.6900    8.8110   43.7410 C   0  0  0  0  0  0  0  0  0  0  0  0
   44.3070    7.5020   43.8990 C   0  0  0  0  0  0  0  0  0  0  0  0
   42.9980    7.1560   43.6680 C   0  0  0  0  0  0  0  0  0  0  0  0
   42.0360    8.0760   43.2800 C   0  0  0  0  0  0  0  0  0  0  0  0
   45.3190    6.4610   44.3170 C   0  0  1  0  0  0  0  0  0  0  0  0
   44.7910    5.2280   43.9840 O   0  0  0  0  0  0  0  0  0  0  0  0
   46.6550    6.7440   43.7010 C   0  0  0  0  0  0  0  0  0  0  0  0
   47.6810    5.8340   44.1190 N   0  0  0  0  0  0  0  0  0  0  0  0
   47.9370    4.6840   43.4500 C   0  0  0  0  0  0  0  0  0  0  0  0
   48.9730    4.0640   44.1300 C   0  0  0  0  0  0  0  0  0  0  0  0
   49.4500    2.8570   43.6550 C   0  0  0  0  0  0  0  0  0  0  0  0
   48.9150    2.2480   42.5130 C   0  0  0  0  0  0  0  0  0  0  0  0
   47.8780    2.9070   41.8670 C   0  0  0  0  0  0  0  0  0  0  0  0
   47.3860    4.1070   42.3160 C   0  0  0  0  0  0  0  0  0  0  0  0
   49.3460    4.8230   45.2030 N   0  0  0  0  0  0  0  0  0  0  0  0
   48.5280    5.9080   45.1630 C   0  0  2  0  0  0  0  0  0  0  0  0
   48.5810    6.8660   46.0270 N   0  0  0  0  0  0  0  0  0  0  0  0
   50.3810    4.4590   46.1230 C   0  0  0  0  0  0  0  0  0  0  0  0
   49.9030    3.5920   47.2550 C   0  0  0  0  0  0  0  0  0  0  0  0
   49.0290    4.1260   48.1850 C   0  0  0  0  0  0  0  0  0  0  0  0
   48.5440    3.3930   49.2510 C   0  0  0  0  0  0  0  0  0  0  0  0
   48.9610    2.0900   49.3660 C   0  0  0  0  0  0  0  0  0  0  0  0
   49.8260    1.5370   48.4590 C   0  0  0  0  0  0  0  0  0  0  0  0
   50.2890    2.2900   47.4140 C   0  0  0  0  0  0  0  0  0  0  0  0
   44.0730   10.8170   43.2290 H   0  0  0  0  0  0  0  0  0  0  0  0
   45.7190    9.0990   43.9200 H   0  0  0  0  0  0  0  0  0  0  0  0
   42.6740    6.1070   43.7870 H   0  0  0  0  0  0  0  0  0  0  0  0
   40.9960    7.7860   43.0990 H   0  0  0  0  0  0  0  0  0  0  0  0
   45.3570    6.4910   45.4370 H   0  0  0  0  0  0  0  0  0  0  0  0
   45.2430    4.4780   44.4170 H   0  0  0  0  0  0  0  0  0  0  0  0
   46.5250    6.5780   42.5910 H   0  0  0  0  0  0  0  0  0  0  0  0
   46.9690    7.7910   43.7980 H   0  0  0  0  0  0  0  0  0  0  0  0
   50.2650    2.3860   44.1850 H   0  0  0  0  0  0  0  0  0  0  0  0
   49.3160    1.3150   42.1850 H   0  0  0  0  0  0  0  0  0  0  0  0
   47.4530    2.4490   40.9800 H   0  0  0  0  0  0  0  0  0  0  0  0
   46.5800    4.5890   41.7880 H   0  0  0  0  0  0  0  0  0  0  0  0
   47.9060    7.6830   45.9300 H   0  0  0  0  0  0  0  0  0  0  0  0
   49.2230    6.9380   46.8200 H   0  0  0  0  0  0  0  0  0  0  0  0
   50.8470    5.3580   46.5910 H   0  0  0  0  0  0  0  0  0  0  0  0
   51.1590    3.8840   45.5800 H   0  0  0  0  0  0  0  0  0  0  0  0
   48.6780    5.1700   48.1270 H   0  0  0  0  0  0  0  0  0  0  0  0
   47.8490    3.8320   49.9800 H   0  0  0  0  0  0  0  0  0  0  0  0
   48.6070    1.4700   50.1880 H   0  0  0  0  0  0  0  0  0  0  0  0
   50.1330    0.4840   48.5930 H   0  0  0  0  0  0  0  0  0  0  0  0
   50.9620    1.8430   46.7230 H   0  0  0  0  0  0  0  0  0  0  0  0
  1  2  1  0  0  0  0
  2  7  2  0  0  0  0
  2  3  1  0  0  0  0
  3  4  2  0  0  0  0
  4  5  1  0  0  0  0
  4 29  1  0  0  0  0
  5  8  1  0  0  0  0
  6 30  1  0  0  0  0
  6  5  2  0  0  0  0
  7  6  1  0  0  0  0
  8 32  1  1  0  0  0
  9  8  1  0  0  0  0
  9 33  1  0  0  0  0
 10 35  1  0  0  0  0
 10 11  1  0  0  0  0
 10  8  1  0  0  0  0
 11 19  1  0  0  0  0
 12 11  1  0  0  0  0
 12 13  1  0  0  0  0
 13 18  1  0  0  0  0
 14 13  2  0  0  0  0
 14 36  1  0  0  0  0
 15 14  1  0  0  0  0
 16 17  1  0  0  0  0
 16 15  2  0  0  0  0
 17 12  2  0  0  0  0
 18 21  1  0  0  0  0
 19 18  1  0  0  0  0
 19 20  1  1  0  0  0
 20 41  1  0  0  0  0
 21 42  1  0  0  0  0
 21 22  1  0  0  0  0
 22 27  2  0  0  0  0
 22 23  1  0  0  0  0
 23 24  2  0  0  0  0
 24 25  1  0  0  0  0
 24 45  1  0  0  0  0
 25 46  1  0  0  0  0
 26 47  1  0  0  0  0
 26 25  2  0  0  0  0
 27 26  1  0  0  0  0
 28  3  1  0  0  0  0
 31  7  1  0  0  0  0
 34 10  1  0  0  0  0
 37 15  1  0  0  0  0
 38 16  1  0  0  0  0
 39 17  1  0  0  0  0
 40 20  1  0  0  0  0
 43 21  1  0  0  0  0
 44 23  1  0  0  0  0
 48 27  1  0  0  0  0
M  END
>  <Pose>
1

>  <Score>
-6.24

$$$$
