
 OpenBabel03172210433D

 42 45  0  0  0  0  0  0  0  0999 V2000
   54.5180    0.4270   43.9090 B   0  0  0  0  0  0  0  0  0  0  0  0
   52.7630    1.1030   43.5830 C   0  0  0  0  0  0  0  0  0  0  0  0
   52.3400    2.2950   44.1520 C   0  0  0  0  0  0  0  0  0  0  0  0
   51.0720    2.8030   43.9300 C   0  0  0  0  0  0  0  0  0  0  0  0
   50.1780    2.1290   43.1250 C   0  0  0  0  0  0  0  0  0  0  0  0
   50.6070    0.9450   42.5650 C   0  0  0  0  0  0  0  0  0  0  0  0
   51.8690    0.4290   42.7780 C   0  0  0  0  0  0  0  0  0  0  0  0
   48.8360    2.6450   42.8770 C   0  0  0  0  0  0  0  0  0  0  0  0
   48.5290    3.3370   41.8500 N   0  0  0  0  0  0  0  0  0  0  0  0
   47.2810    3.8460   41.5680 N   0  0  0  0  0  0  0  0  0  0  0  0
   46.6580    4.7190   42.4940 C   0  0  0  0  0  0  0  0  0  0  0  0
   45.7030    4.2960   43.1830 O   0  0  0  0  0  0  0  0  0  0  0  0
   47.1240    6.1210   42.6550 C   0  0  0  0  0  0  0  0  0  0  0  0
   47.0400    6.5490   44.0380 N   0  0  0  0  0  0  0  0  0  0  0  0
   48.1180    6.3840   44.8630 N   0  0  0  0  0  0  0  0  0  0  0  0
   47.7980    6.8320   46.0850 C   0  0  0  0  0  0  0  0  0  0  0  0
   46.5410    7.2600   45.9930 N   0  0  0  0  0  0  0  0  0  0  0  0
   46.0550    7.0860   44.7070 C   0  0  0  0  0  0  0  0  0  0  0  0
   44.7100    7.4700   44.3280 C   0  0  0  0  0  0  0  0  0  0  0  0
   43.6280    6.6080   44.4840 N   0  0  0  0  0  0  0  0  0  0  0  0
   42.5600    7.1850   44.0950 O   0  0  0  0  0  0  0  0  0  0  0  0
   42.8220    8.3640   43.6900 N   0  0  0  0  0  0  0  0  0  0  0  0
   44.1660    8.5790   43.8210 C   0  0  0  0  0  0  0  0  0  0  0  0
   44.7280    9.8090   43.4580 N   0  0  0  0  0  0  0  0  0  0  0  0
   48.6430    6.8500   47.2730 C   0  0  0  0  0  0  0  0  0  0  0  0
   49.4390    5.8710   47.7130 N   0  0  0  0  0  0  0  0  0  0  0  0
   50.0420    6.2660   48.8210 O   0  0  0  0  0  0  0  0  0  0  0  0
   49.6720    7.4770   49.1310 N   0  0  0  0  0  0  0  0  0  0  0  0
   48.7850    7.8780   48.1700 C   0  0  0  0  0  0  0  0  0  0  0  0
   48.1560    9.1500   48.1610 N   0  0  0  0  0  0  0  0  0  0  0  0
   53.0200    2.8300   44.7780 H   0  0  0  0  0  0  0  0  0  0  0  0
   50.7480    3.7470   44.3850 H   0  0  0  0  0  0  0  0  0  0  0  0
   49.8800    0.4250   41.9280 H   0  0  0  0  0  0  0  0  0  0  0  0
   52.1690   -0.5210   42.3100 H   0  0  0  0  0  0  0  0  0  0  0  0
   48.0650    2.4280   43.6000 H   0  0  0  0  0  0  0  0  0  0  0  0
   46.7990    3.5800   40.6560 H   0  0  0  0  0  0  0  0  0  0  0  0
   47.9930    6.4230   42.1010 H   0  0  0  0  0  0  0  0  0  0  0  0
   46.2940    6.7450   42.1200 H   0  0  0  0  0  0  0  0  0  0  0  0
   44.4690   10.2390   42.5400 H   0  0  0  0  0  0  0  0  0  0  0  0
   45.3950   10.3480   44.0490 H   0  0  0  0  0  0  0  0  0  0  0  0
   48.4960    9.9080   48.8160 H   0  0  0  0  0  0  0  0  0  0  0  0
   47.3620    9.3980   47.5400 H   0  0  0  0  0  0  0  0  0  0  0  0
  2  1  1  0  0  0  0
  2  3  1  0  0  0  0
  3 31  1  0  0  0  0
  4  3  2  0  0  0  0
  4 32  1  0  0  0  0
  5  4  1  0  0  0  0
  6  7  1  0  0  0  0
  6  5  2  0  0  0  0
  7  2  2  0  0  0  0
  8  5  1  0  0  0  0
  8 35  1  0  0  0  0
  9  8  2  0  0  0  0
 10  9  1  0  0  0  0
 10 11  1  0  0  0  0
 11 13  1  0  0  0  0
 11 12  2  0  0  0  0
 13 14  1  0  0  0  0
 14 18  1  0  0  0  0
 14 15  1  0  0  0  0
 15 16  2  0  0  0  0
 16 25  1  0  0  0  0
 17 16  1  0  0  0  0
 18 17  2  0  0  0  0
 19 20  2  0  0  0  0
 19 18  1  0  0  0  0
 21 20  1  0  0  0  0
 22 23  2  0  0  0  0
 22 21  1  0  0  0  0
 23 19  1  0  0  0  0
 24 23  1  0  0  0  0
 24 40  1  0  0  0  0
 25 26  2  0  0  0  0
 25 29  1  0  0  0  0
 26 27  1  0  0  0  0
 27 28  1  0  0  0  0
 29 28  2  0  0  0  0
 30 29  1  0  0  0  0
 30 41  1  0  0  0  0
 33  6  1  0  0  0  0
 34  7  1  0  0  0  0
 36 10  1  0  0  0  0
 37 13  1  0  0  0  0
 38 13  1  0  0  0  0
 39 24  1  0  0  0  0
 42 30  1  0  0  0  0
M  END
>  <Pose>
1

>  <Score>
-8.46

$$$$
