
 OpenBabel03172210433D

 50 54  0  0  1  0  0  0  0  0999 V2000
   40.7890   10.8390   42.9860 B   0  0  0  0  0  0  0  0  0  0  0  0
   42.2580    9.6610   43.2220 C   0  0  0  0  0  0  0  0  0  0  0  0
   42.0890    8.2970   43.0760 C   0  0  0  0  0  0  0  0  0  0  0  0
   43.1690    7.4350   43.2490 C   0  0  0  0  0  0  0  0  0  0  0  0
   44.4250    7.9000   43.5670 C   0  0  0  0  0  0  0  0  0  0  0  0
   44.5840    9.2600   43.7100 C   0  0  0  0  0  0  0  0  0  0  0  0
   43.5120   10.1400   43.5410 C   0  0  0  0  0  0  0  0  0  0  0  0
   45.5570    6.9970   43.7490 C   0  0  0  0  0  0  0  0  0  0  0  0
   46.5280    7.0980   44.6790 N   0  0  0  0  0  0  0  0  0  0  0  0
   47.4110    6.0770   44.5440 C   0  0  1  0  0  0  0  0  0  0  0  0
   47.0100    5.3080   43.5170 N   0  0  0  0  0  0  0  0  0  0  0  0
   45.8780    5.8650   43.0280 C   0  0  0  0  0  0  0  0  0  0  0  0
   47.9140    4.3140   43.4230 C   0  0  0  0  0  0  0  0  0  0  0  0
   48.8840    4.4610   44.3920 C   0  0  0  0  0  0  0  0  0  0  0  0
   49.9420    3.5680   44.5210 C   0  0  0  0  0  0  0  0  0  0  0  0
   50.0380    2.4990   43.6600 C   0  0  0  0  0  0  0  0  0  0  0  0
   49.0640    2.3610   42.6940 C   0  0  0  0  0  0  0  0  0  0  0  0
   48.0050    3.2300   42.5440 C   0  0  0  0  0  0  0  0  0  0  0  0
   48.5370    5.5800   45.0800 N   0  0  0  0  0  0  0  0  0  0  0  0
   49.3150    6.0790   46.1950 C   0  0  0  0  0  0  0  0  0  0  0  0
   48.8290    5.5180   47.5130 C   0  0  0  0  0  0  0  0  0  0  0  0
   48.7100    6.5640   48.4880 N   0  0  0  0  0  4  0  0  0  0  0  0
   47.7960    6.1720   49.5400 C   0  0  0  0  0  0  0  0  0  0  0  0
   46.8240    7.2670   49.9050 C   0  0  0  0  0  0  0  0  0  0  0  0
   47.5390    8.4400   50.1540 O   0  0  0  0  0  0  0  0  0  0  0  0
   48.2860    8.8380   49.0650 C   0  0  0  0  0  0  0  0  0  0  0  0
   48.2630    7.8170   47.9580 C   0  0  0  0  0  0  0  0  0  0  0  0
   41.1010    7.9210   42.8240 H   0  0  0  0  0  0  0  0  0  0  0  0
   42.9970    6.3860   43.1280 H   0  0  0  0  0  0  0  0  0  0  0  0
   45.5440    9.6840   43.9580 H   0  0  0  0  0  0  0  0  0  0  0  0
   43.6550   11.2160   43.6570 H   0  0  0  0  0  0  0  0  0  0  0  0
   46.6090    7.8390   45.4050 H   0  0  0  0  0  0  0  0  0  0  0  0
   45.3010    5.4890   42.1960 H   0  0  0  0  0  0  0  0  0  0  0  0
   50.6630    3.7390   45.2960 H   0  0  0  0  0  0  0  0  0  0  0  0
   50.8620    1.7720   43.7320 H   0  0  0  0  0  0  0  0  0  0  0  0
   49.1310    1.5280   42.0170 H   0  0  0  0  0  0  0  0  0  0  0  0
   47.2450    3.1390   41.8050 H   0  0  0  0  0  0  0  0  0  0  0  0
   50.3820    5.7750   46.0710 H   0  0  0  0  0  0  0  0  0  0  0  0
   49.2870    7.1860   46.1920 H   0  0  0  0  0  0  0  0  0  0  0  0
   49.5120    4.7600   47.8980 H   0  0  0  0  0  0  0  0  0  0  0  0
   47.8300    5.0750   47.3340 H   0  0  0  0  0  0  0  0  0  0  0  0
   49.6370    6.7370   48.9540 H   0  0  0  0  0  0  0  0  0  0  0  0
   47.2090    5.2610   49.2330 H   0  0  0  0  0  0  0  0  0  0  0  0
   48.3290    5.8850   50.4730 H   0  0  0  0  0  0  0  0  0  0  0  0
   46.3270    6.9530   50.8460 H   0  0  0  0  0  0  0  0  0  0  0  0
   46.0610    7.3850   49.1170 H   0  0  0  0  0  0  0  0  0  0  0  0
   47.8080    9.7810   48.6780 H   0  0  0  0  0  0  0  0  0  0  0  0
   49.3430    9.0680   49.3260 H   0  0  0  0  0  0  0  0  0  0  0  0
   49.0290    8.1580   47.2050 H   0  0  0  0  0  0  0  0  0  0  0  0
   47.2580    7.7860   47.5150 H   0  0  0  0  0  0  0  0  0  0  0  0
  1  2  1  0  0  0  0
  2  7  1  0  0  0  0
  3  2  2  0  0  0  0
  3  4  1  0  0  0  0
  4  5  2  0  0  0  0
  5  6  1  0  0  0  0
  5  8  1  0  0  0  0
  6 30  1  0  0  0  0
  7 31  1  0  0  0  0
  7  6  2  0  0  0  0
  8  9  1  0  0  0  0
  9 32  1  0  0  0  0
 10 11  1  6  0  0  0
 10  9  1  0  0  0  0
 10 19  1  0  0  0  0
 12 11  1  0  0  0  0
 12  8  2  0  0  0  0
 13 11  1  0  0  0  0
 13 14  1  0  0  0  0
 14 15  2  0  0  0  0
 14 19  1  0  0  0  0
 15 34  1  0  0  0  0
 16 35  1  0  0  0  0
 16 15  1  0  0  0  0
 17 16  2  0  0  0  0
 18 17  1  0  0  0  0
 18 13  2  0  0  0  0
 19 20  1  0  0  0  0
 20 21  1  0  0  0  0
 21 40  1  0  0  0  0
 21 22  1  0  0  0  0
 22 42  1  0  0  0  0
 22 23  1  0  0  0  0
 23 24  1  0  0  0  0
 23 44  1  0  0  0  0
 24 25  1  0  0  0  0
 24 45  1  0  0  0  0
 26 48  1  0  0  0  0
 26 25  1  0  0  0  0
 27 22  1  0  0  0  0
 27 26  1  0  0  0  0
 28  3  1  0  0  0  0
 29  4  1  0  0  0  0
 33 12  1  0  0  0  0
 36 17  1  0  0  0  0
 37 18  1  0  0  0  0
 38 20  1  0  0  0  0
 39 20  1  0  0  0  0
 41 21  1  0  0  0  0
 43 23  1  0  0  0  0
 46 24  1  0  0  0  0
 47 26  1  0  0  0  0
 49 27  1  0  0  0  0
 50 27  1  0  0  0  0
M  END
>  <Pose>
1

>  <Score>
-6.61

$$$$
