
 OpenBabel03172210433D

 57 60  0  0  0  0  0  0  0  0999 V2000
   52.0920    3.6310   51.9290 B   0  0  0  0  0  0  0  0  0  0  0  0
   51.1780    4.0570   50.3040 C   0  0  0  0  0  0  0  0  0  0  0  0
   51.7520    4.9490   49.4470 C   0  0  0  0  0  0  0  0  0  0  0  0
   51.1020    5.2670   48.2740 C   0  0  0  0  0  0  0  0  0  0  0  0
   49.8740    4.7220   47.9080 C   0  0  0  0  0  0  0  0  0  0  0  0
   49.3190    3.8280   48.7860 C   0  0  0  0  0  0  0  0  0  0  0  0
   49.9620    3.4880   49.9880 C   0  0  0  0  0  0  0  0  0  0  0  0
   49.1910    5.0660   46.6900 C   0  0  0  0  0  0  0  0  0  0  0  0
   48.6530    6.3190   46.5160 C   0  0  0  0  0  0  0  0  0  0  0  0
   47.9960    6.6710   45.4280 O   0  0  0  0  0  0  0  0  0  0  0  0
   47.8120    5.8370   44.4370 C   0  0  0  0  0  0  0  0  0  0  0  0
   48.3170    4.5900   44.5470 C   0  0  0  0  0  0  0  0  0  0  0  0
   48.1380    3.6880   43.5220 C   0  0  0  0  0  0  0  0  0  0  0  0
   47.4430    4.0920   42.4100 C   0  0  0  0  0  0  0  0  0  0  0  0
   46.9210    5.3950   42.3060 C   0  0  0  0  0  0  0  0  0  0  0  0
   47.0860    6.3050   43.3070 C   0  0  0  0  0  0  0  0  0  0  0  0
   46.6310    7.6730   43.3370 C   0  0  0  0  0  0  0  0  0  0  0  0
   45.4280    8.0770   43.9410 N   0  0  0  0  0  4  0  0  0  0  0  0
   44.6790    6.9820   44.4460 C   0  0  0  0  0  0  0  0  0  0  0  0
   43.2090    7.0970   44.5420 C   0  0  0  0  0  0  0  0  0  0  0  0
   42.6680    8.1080   43.7410 N   0  0  0  0  0  0  0  0  0  0  0  0
   43.3000    9.3540   43.7160 C   0  0  0  0  0  0  0  0  0  0  0  0
   44.7590    9.2140   43.4200 C   0  0  0  0  0  0  0  0  0  0  0  0
   41.5200    7.8710   42.9720 C   0  0  0  0  0  0  0  0  0  0  0  0
   46.2500    5.6200   41.1150 O   0  0  0  0  0  0  0  0  0  0  0  0
   49.0170    4.1480   45.6530 C   0  0  0  0  0  0  0  0  0  0  0  0
   49.4790    3.0060   45.7510 O   0  0  0  0  0  0  0  0  0  0  0  0
   48.8260    7.3030   47.5960 C   0  0  0  0  0  0  0  0  0  0  0  0
   47.8580    7.5010   48.3720 O   0  0  0  0  0  0  0  0  0  0  0  0
   49.9720    8.0070   47.7990 O   0  0  0  0  0  0  0  0  0  0  0  0
   50.0520    8.9640   48.8280 C   0  0  0  0  0  0  0  0  0  0  0  0
   51.4770    9.4300   48.9560 C   0  0  0  0  0  0  0  0  0  0  0  0
   52.7180    5.3910   49.7170 H   0  0  0  0  0  0  0  0  0  0  0  0
   51.5510    5.9610   47.6090 H   0  0  0  0  0  0  0  0  0  0  0  0
   48.3720    3.3450   48.6050 H   0  0  0  0  0  0  0  0  0  0  0  0
   49.5220    2.7880   50.6750 H   0  0  0  0  0  0  0  0  0  0  0  0
   48.5530    2.6870   43.6240 H   0  0  0  0  0  0  0  0  0  0  0  0
   47.2990    3.3970   41.6010 H   0  0  0  0  0  0  0  0  0  0  0  0
   46.6150    8.1020   42.2580 H   0  0  0  0  0  0  0  0  0  0  0  0
   47.4550    8.3280   43.7820 H   0  0  0  0  0  0  0  0  0  0  0  0
   45.8260    8.5120   44.9140 H   0  0  0  0  0  0  0  0  0  0  0  0
   44.9290    6.0620   43.8450 H   0  0  0  0  0  0  0  0  0  0  0  0
   45.0620    6.6610   45.4830 H   0  0  0  0  0  0  0  0  0  0  0  0
   42.8600    7.2250   45.6200 H   0  0  0  0  0  0  0  0  0  0  0  0
   42.6910    6.1260   44.2550 H   0  0  0  0  0  0  0  0  0  0  0  0
   43.1780    9.9540   44.6610 H   0  0  0  0  0  0  0  0  0  0  0  0
   42.8200    9.9930   42.9300 H   0  0  0  0  0  0  0  0  0  0  0  0
   44.9430    9.3140   42.3320 H   0  0  0  0  0  0  0  0  0  0  0  0
   45.2220   10.1860   43.8190 H   0  0  0  0  0  0  0  0  0  0  0  0
   41.6440    8.3300   41.9680 H   0  0  0  0  0  0  0  0  0  0  0  0
   41.4410    6.7650   42.7600 H   0  0  0  0  0  0  0  0  0  0  0  0
   40.5480    8.1340   43.4350 H   0  0  0  0  0  0  0  0  0  0  0  0
   49.3510    9.8200   48.6530 H   0  0  0  0  0  0  0  0  0  0  0  0
   49.6910    8.5240   49.8040 H   0  0  0  0  0  0  0  0  0  0  0  0
   51.7950    9.4860   50.0310 H   0  0  0  0  0  0  0  0  0  0  0  0
   52.1240    8.7790   48.3420 H   0  0  0  0  0  0  0  0  0  0  0  0
   51.5080   10.4540   48.4990 H   0  0  0  0  0  0  0  0  0  0  0  0
  2  1  1  0  0  0  0
  3 33  1  0  0  0  0
  3  2  2  0  0  0  0
  4  3  1  0  0  0  0
  5  4  2  0  0  0  0
  5  6  1  0  0  0  0
  6  7  2  0  0  0  0
  7  2  1  0  0  0  0
  7 36  1  0  0  0  0
  8  5  1  0  0  0  0
  9  8  2  0  0  0  0
  9 28  1  0  0  0  0
 10  9  1  0  0  0  0
 11 12  1  0  0  0  0
 11 10  1  0  0  0  0
 12 26  1  0  0  0  0
 13 37  1  0  0  0  0
 13 12  2  0  0  0  0
 14 13  1  0  0  0  0
 15 14  2  0  0  0  0
 15 16  1  0  0  0  0
 16 17  1  0  0  0  0
 16 11  2  0  0  0  0
 17 40  1  0  0  0  0
 17 18  1  0  0  0  0
 18 19  1  0  0  0  0
 18 41  1  0  0  0  0
 19 20  1  0  0  0  0
 19 43  1  0  0  0  0
 20 44  1  0  0  0  0
 21 20  1  0  0  0  0
 22 21  1  0  0  0  0
 22 46  1  0  0  0  0
 23 22  1  0  0  0  0
 23 49  1  0  0  0  0
 23 18  1  0  0  0  0
 24 52  1  0  0  0  0
 24 21  1  0  0  0  0
 25 15  1  0  0  0  0
 26 27  2  0  0  0  0
 26  8  1  0  0  0  0
 28 30  1  0  0  0  0
 28 29  2  0  0  0  0
 30 31  1  0  0  0  0
 31 32  1  0  0  0  0
 31 54  1  0  0  0  0
 32 55  1  0  0  0  0
 34  4  1  0  0  0  0
 35  6  1  0  0  0  0
 38 14  1  0  0  0  0
 39 17  1  0  0  0  0
 42 19  1  0  0  0  0
 45 20  1  0  0  0  0
 47 22  1  0  0  0  0
 48 23  1  0  0  0  0
 50 24  1  0  0  0  0
 51 24  1  0  0  0  0
 53 31  1  0  0  0  0
 56 32  1  0  0  0  0
 57 32  1  0  0  0  0
M  END
>  <Pose>
1

>  <Score>
-5.60

$$$$
