
 OpenBabel03172210433D

 61 65  0  0  1  0  0  0  0  0999 V2000
   39.6150   13.0580   43.3780 B   0  0  0  0  0  0  0  0  0  0  0  0
   40.9550   11.6890   43.4810 C   0  0  0  0  0  0  0  0  0  0  0  0
   40.8300   10.5260   42.7660 C   0  0  0  0  0  0  0  0  0  0  0  0
   41.8120    9.5240   42.8420 C   0  0  0  0  0  0  0  0  0  0  0  0
   42.9240    9.6380   43.6130 C   0  0  0  0  0  0  0  0  0  0  0  0
   43.0310   10.8300   44.3310 C   0  0  0  0  0  0  0  0  0  0  0  0
   42.0680   11.8240   44.2620 C   0  0  0  0  0  0  0  0  0  0  0  0
   43.9650    8.6250   43.7810 C   0  0  0  0  0  0  0  0  0  0  0  0
   44.3320    7.7130   42.7740 C   0  0  0  0  0  0  0  0  0  0  0  0
   45.3320    6.9260   43.1860 N   0  0  0  0  0  0  0  0  0  0  0  0
   46.1500    5.9090   42.8210 C   0  0  0  0  0  0  0  0  0  0  0  0
   46.9650    5.6670   43.8990 C   0  0  0  0  0  0  0  0  0  0  0  0
   46.6240    6.5400   44.8880 N   0  0  0  0  0  0  0  0  0  0  0  0
   45.6160    7.3060   44.4280 C   0  0  1  0  0  0  0  0  0  0  0  0
   44.7840    8.3440   44.7970 N   0  0  0  0  0  0  0  0  0  0  0  0
   44.8660    8.9900   46.0900 C   0  0  0  0  0  0  0  0  0  0  0  0
   43.5420    9.0950   46.8090 C   0  0  0  0  0  0  0  0  0  0  0  0
   43.6140   10.0830   47.9460 C   0  0  0  0  0  0  0  0  0  0  0  0
   44.1690    9.5620   49.1650 N   0  0  0  0  0  0  0  0  0  0  0  0
   44.2690   10.6950   50.0720 C   0  0  0  0  0  0  0  0  0  0  0  0
   45.5570   10.7970   50.7990 C   0  0  0  0  0  0  0  0  0  0  0  0
   46.7440   10.5940   50.0140 N   0  0  0  0  0  4  0  0  0  0  0  0
   46.5090    9.8530   48.7920 C   0  0  0  0  0  0  0  0  0  0  0  0
   45.4000    8.8540   49.0460 C   0  0  0  0  0  0  0  0  0  0  0  0
   47.4950   11.7980   49.8510 C   0  0  0  0  0  0  0  0  0  0  0  0
   48.6520   11.9780   50.7740 C   0  0  0  0  0  0  0  0  0  0  0  0
   49.3770   13.1450   50.5420 O   0  0  0  0  0  0  0  0  0  0  0  0
   47.9050    4.6640   43.7900 C   0  0  0  0  0  0  0  0  0  0  0  0
   48.0390    3.9100   42.6310 C   0  0  0  0  0  0  0  0  0  0  0  0
   47.2230    4.1530   41.5540 C   0  0  0  0  0  0  0  0  0  0  0  0
   46.2700    5.1710   41.6670 C   0  0  0  0  0  0  0  0  0  0  0  0
   39.9640   10.3810   42.1360 H   0  0  0  0  0  0  0  0  0  0  0  0
   41.6280    8.6710   42.2360 H   0  0  0  0  0  0  0  0  0  0  0  0
   43.8980   10.9560   44.9570 H   0  0  0  0  0  0  0  0  0  0  0  0
   42.1940   12.7250   44.8350 H   0  0  0  0  0  0  0  0  0  0  0  0
   43.8510    7.6630   41.7910 H   0  0  0  0  0  0  0  0  0  0  0  0
   47.0830    6.5810   45.8240 H   0  0  0  0  0  0  0  0  0  0  0  0
   45.4940    8.3070   46.7810 H   0  0  0  0  0  0  0  0  0  0  0  0
   45.4010    9.9190   46.1120 H   0  0  0  0  0  0  0  0  0  0  0  0
   42.8440    9.5670   46.0560 H   0  0  0  0  0  0  0  0  0  0  0  0
   43.0840    8.1520   47.0860 H   0  0  0  0  0  0  0  0  0  0  0  0
   42.6040   10.4690   48.1940 H   0  0  0  0  0  0  0  0  0  0  0  0
   44.1810   10.9930   47.5900 H   0  0  0  0  0  0  0  0  0  0  0  0
   43.9960   11.6590   49.6100 H   0  0  0  0  0  0  0  0  0  0  0  0
   43.4680   10.5120   50.8470 H   0  0  0  0  0  0  0  0  0  0  0  0
   45.5190   10.1310   51.7110 H   0  0  0  0  0  0  0  0  0  0  0  0
   45.5940   11.8360   51.2410 H   0  0  0  0  0  0  0  0  0  0  0  0
   47.3660    9.9500   50.5960 H   0  0  0  0  0  0  0  0  0  0  0  0
   47.4240    9.2660   48.5370 H   0  0  0  0  0  0  0  0  0  0  0  0
   46.2350   10.4560   47.9320 H   0  0  0  0  0  0  0  0  0  0  0  0
   45.5850    8.2850   49.9960 H   0  0  0  0  0  0  0  0  0  0  0  0
   45.4070    8.1190   48.2460 H   0  0  0  0  0  0  0  0  0  0  0  0
   46.8670   12.7310   49.9400 H   0  0  0  0  0  0  0  0  0  0  0  0
   47.8940   11.8430   48.8000 H   0  0  0  0  0  0  0  0  0  0  0  0
   48.2090   12.1110   51.8060 H   0  0  0  0  0  0  0  0  0  0  0  0
   49.3030   11.0890   50.8580 H   0  0  0  0  0  0  0  0  0  0  0  0
   50.2170   12.9300   50.1010 H   0  0  0  0  0  0  0  0  0  0  0  0
   48.5650    4.4430   44.6140 H   0  0  0  0  0  0  0  0  0  0  0  0
   48.7680    3.1280   42.5390 H   0  0  0  0  0  0  0  0  0  0  0  0
   47.3230    3.5690   40.6500 H   0  0  0  0  0  0  0  0  0  0  0  0
   45.6190    5.3770   40.8320 H   0  0  0  0  0  0  0  0  0  0  0  0
  1  2  1  0  0  0  0
  2  7  1  0  0  0  0
  3  4  1  0  0  0  0
  3  2  2  0  0  0  0
  4  5  2  0  0  0  0
  5  8  1  0  0  0  0
  5  6  1  0  0  0  0
  6 34  1  0  0  0  0
  7  6  2  0  0  0  0
  7 35  1  0  0  0  0
  8 15  1  0  0  0  0
  9 10  1  0  0  0  0
  9  8  2  0  0  0  0
 11 10  1  0  0  0  0
 11 12  1  0  0  0  0
 12 13  1  0  0  0  0
 13 37  1  0  0  0  0
 14 10  1  6  0  0  0
 14 15  1  0  0  0  0
 14 13  1  0  0  0  0
 15 16  1  0  0  0  0
 16 39  1  0  0  0  0
 16 38  1  0  0  0  0
 16 17  1  0  0  0  0
 17 41  1  0  0  0  0
 17 18  1  0  0  0  0
 18 42  1  0  0  0  0
 18 19  1  0  0  0  0
 19 20  1  0  0  0  0
 20 21  1  0  0  0  0
 20 45  1  0  0  0  0
 21 47  1  0  0  0  0
 21 46  1  0  0  0  0
 22 48  1  0  0  0  0
 22 21  1  0  0  0  0
 23 24  1  0  0  0  0
 23 22  1  0  0  0  0
 24 19  1  0  0  0  0
 24 51  1  0  0  0  0
 25 53  1  0  0  0  0
 25 22  1  0  0  0  0
 25 26  1  0  0  0  0
 26 56  1  0  0  0  0
 26 55  1  0  0  0  0
 27 26  1  0  0  0  0
 28 12  2  0  0  0  0
 28 58  1  0  0  0  0
 29 28  1  0  0  0  0
 30 31  1  0  0  0  0
 30 29  2  0  0  0  0
 31 11  2  0  0  0  0
 32  3  1  0  0  0  0
 33  4  1  0  0  0  0
 36  9  1  0  0  0  0
 40 17  1  0  0  0  0
 43 18  1  0  0  0  0
 44 20  1  0  0  0  0
 49 23  1  0  0  0  0
 50 23  1  0  0  0  0
 52 24  1  0  0  0  0
 54 25  1  0  0  0  0
 57 27  1  0  0  0  0
 59 29  1  0  0  0  0
 60 30  1  0  0  0  0
 61 31  1  0  0  0  0
M  END
>  <Pose>
1

>  <Score>
-5.59

$$$$
