
 OpenBabel03172210433D

 63 66  0  0  1  0  0  0  0  0999 V2000
   39.7620    7.9500   50.3210 B   0  0  0  0  0  0  0  0  0  0  0  0
   40.5480    8.5670   48.6800 C   0  0  0  0  0  0  0  0  0  0  0  0
   40.9900    7.6510   47.7520 C   0  0  0  0  0  0  0  0  0  0  0  0
   41.5640    8.0740   46.5490 C   0  0  0  0  0  0  0  0  0  0  0  0
   41.7020    9.4150   46.2610 C   0  0  0  0  0  0  0  0  0  0  0  0
   41.2480   10.2980   47.2140 C   0  0  0  0  0  0  0  0  0  0  0  0
   40.6820    9.8990   48.4020 C   0  0  0  0  0  0  0  0  0  0  0  0
   42.3020    9.8550   44.9980 C   0  0  2  0  0  0  0  0  0  0  0  0
   41.3310   10.1690   43.9860 N   0  0  0  0  0  0  0  0  0  0  0  0
   41.5670    9.4250   42.8060 C   0  0  0  0  0  0  0  0  0  0  0  0
   40.9250    9.4640   41.7110 O   0  0  0  0  0  0  0  0  0  0  0  0
   42.7300    8.5360   43.0220 C   0  0  0  0  0  0  0  0  0  0  0  0
   43.2030    7.7470   42.1730 O   0  0  0  0  0  0  0  0  0  0  0  0
   43.1620    8.7930   44.3790 C   0  0  0  0  0  0  0  0  0  0  0  0
   44.1960    8.1920   44.9250 C   0  0  0  0  0  0  0  0  0  0  0  0
   44.5610    8.5750   46.2330 O   0  0  0  0  0  0  0  0  0  0  0  0
   45.0010    7.1630   44.3170 C   0  0  0  0  0  0  0  0  0  0  0  0
   44.7530    5.8350   44.3190 C   0  0  0  0  0  0  0  0  0  0  0  0
   45.5920    4.9570   43.6650 C   0  0  0  0  0  0  0  0  0  0  0  0
   46.7170    5.3590   42.9780 C   0  0  0  0  0  0  0  0  0  0  0  0
   46.9480    6.7200   42.9920 C   0  0  0  0  0  0  0  0  0  0  0  0
   46.1370    7.6170   43.6310 C   0  0  0  0  0  0  0  0  0  0  0  0
   47.5580    4.4690   42.3220 O   0  0  0  0  0  0  0  0  0  0  0  0
   48.3130    3.5230   43.0660 C   0  0  0  0  0  0  0  0  0  0  0  0
   45.2720    3.4920   43.6960 C   0  0  0  0  0  0  0  0  0  0  0  0
   40.2630   11.1340   44.1720 C   0  0  0  0  0  0  0  0  0  0  0  0
   39.0400   10.5520   44.8240 C   0  0  0  0  0  0  0  0  0  0  0  0
   38.2400   11.5980   45.5390 C   0  0  0  0  0  0  0  0  0  0  0  0
   36.9500   11.8230   44.9550 N   0  0  0  0  0  4  0  0  0  0  0  0
   36.5230   13.2060   45.0190 C   0  0  0  0  0  0  0  0  0  0  0  0
   35.2670   13.3200   44.1490 C   0  0  0  0  0  0  0  0  0  0  0  0
   34.8000   12.0630   43.7930 O   0  0  0  0  0  0  0  0  0  0  0  0
   34.6280   11.2620   44.9440 C   0  0  0  0  0  0  0  0  0  0  0  0
   35.9910   10.9310   45.5420 C   0  0  0  0  0  0  0  0  0  0  0  0
   40.8870    6.5960   47.9640 H   0  0  0  0  0  0  0  0  0  0  0  0
   41.9120    7.3600   45.8190 H   0  0  0  0  0  0  0  0  0  0  0  0
   41.3640   11.3670   46.9720 H   0  0  0  0  0  0  0  0  0  0  0  0
   40.3440   10.6280   49.1100 H   0  0  0  0  0  0  0  0  0  0  0  0
   42.8800   10.7810   45.1880 H   0  0  0  0  0  0  0  0  0  0  0  0
   43.8800    5.4760   44.8740 H   0  0  0  0  0  0  0  0  0  0  0  0
   47.8500    7.0370   42.4420 H   0  0  0  0  0  0  0  0  0  0  0  0
   46.3840    8.6740   43.5970 H   0  0  0  0  0  0  0  0  0  0  0  0
   47.5860    2.9030   43.6540 H   0  0  0  0  0  0  0  0  0  0  0  0
   48.8810    2.8430   42.4310 H   0  0  0  0  0  0  0  0  0  0  0  0
   48.9390    4.0520   43.8390 H   0  0  0  0  0  0  0  0  0  0  0  0
   44.7680    3.2040   44.6400 H   0  0  0  0  0  0  0  0  0  0  0  0
   46.2200    2.9470   43.5360 H   0  0  0  0  0  0  0  0  0  0  0  0
   44.6380    3.3060   42.7960 H   0  0  0  0  0  0  0  0  0  0  0  0
   39.9600   11.5330   43.1730 H   0  0  0  0  0  0  0  0  0  0  0  0
   40.5930   11.9970   44.7870 H   0  0  0  0  0  0  0  0  0  0  0  0
   39.3690    9.7460   45.5210 H   0  0  0  0  0  0  0  0  0  0  0  0
   38.4130   10.1330   44.0140 H   0  0  0  0  0  0  0  0  0  0  0  0
   38.0600   11.3310   46.6000 H   0  0  0  0  0  0  0  0  0  0  0  0
   38.8170   12.5450   45.5440 H   0  0  0  0  0  0  0  0  0  0  0  0
   37.0040   11.5830   43.9200 H   0  0  0  0  0  0  0  0  0  0  0  0
   37.2860   13.8380   44.5620 H   0  0  0  0  0  0  0  0  0  0  0  0
   36.2310   13.4860   46.0380 H   0  0  0  0  0  0  0  0  0  0  0  0
   34.4840   13.9110   44.6440 H   0  0  0  0  0  0  0  0  0  0  0  0
   35.5050   13.8410   43.1810 H   0  0  0  0  0  0  0  0  0  0  0  0
   34.1660   10.3180   44.5620 H   0  0  0  0  0  0  0  0  0  0  0  0
   33.9390   11.7070   45.6650 H   0  0  0  0  0  0  0  0  0  0  0  0
   35.9960   11.1010   46.6420 H   0  0  0  0  0  0  0  0  0  0  0  0
   36.2870    9.8950   45.2620 H   0  0  0  0  0  0  0  0  0  0  0  0
  2  1  1  0  0  0  0
  3 35  1  0  0  0  0
  3  2  2  0  0  0  0
  4  3  1  0  0  0  0
  5  4  2  0  0  0  0
  5  6  1  0  0  0  0
  6  7  2  0  0  0  0
  7  2  1  0  0  0  0
  7 38  1  0  0  0  0
  8 39  1  1  0  0  0
  8  5  1  0  0  0  0
  9 26  1  0  0  0  0
  9  8  1  0  0  0  0
 10 12  1  0  0  0  0
 10  9  1  0  0  0  0
 11 10  2  0  0  0  0
 12 14  1  0  0  0  0
 13 12  2  0  0  0  0
 14 15  2  0  0  0  0
 14  8  1  0  0  0  0
 15 16  1  0  0  0  0
 17 18  1  0  0  0  0
 17 15  1  0  0  0  0
 18 40  1  0  0  0  0
 19 25  1  0  0  0  0
 19 18  2  0  0  0  0
 20 21  2  0  0  0  0
 20 19  1  0  0  0  0
 21 22  1  0  0  0  0
 22 17  2  0  0  0  0
 23 20  1  0  0  0  0
 23 24  1  0  0  0  0
 24 43  1  0  0  0  0
 24 45  1  0  0  0  0
 25 46  1  0  0  0  0
 26 50  1  0  0  0  0
 26 27  1  0  0  0  0
 27 51  1  0  0  0  0
 27 28  1  0  0  0  0
 28 54  1  0  0  0  0
 28 53  1  0  0  0  0
 29 30  1  0  0  0  0
 29 28  1  0  0  0  0
 29 34  1  0  0  0  0
 30 57  1  0  0  0  0
 31 58  1  0  0  0  0
 31 30  1  0  0  0  0
 32 31  1  0  0  0  0
 32 33  1  0  0  0  0
 33 34  1  0  0  0  0
 33 61  1  0  0  0  0
 34 62  1  0  0  0  0
 36  4  1  0  0  0  0
 37  6  1  0  0  0  0
 41 21  1  0  0  0  0
 42 22  1  0  0  0  0
 44 24  1  0  0  0  0
 47 25  1  0  0  0  0
 48 25  1  0  0  0  0
 49 26  1  0  0  0  0
 52 27  1  0  0  0  0
 55 29  1  0  0  0  0
 56 30  1  0  0  0  0
 59 31  1  0  0  0  0
 60 33  1  0  0  0  0
 63 34  1  0  0  0  0
M  END
>  <Pose>
1

>  <Score>
-5.47

$$$$
