
 OpenBabel03172210433D

 55 58  0  0  1  0  0  0  0  0999 V2000
   46.0090   12.9430   48.9990 B   0  0  0  0  0  0  0  0  0  0  0  0
   44.9410   12.3010   47.5520 C   0  0  0  0  0  0  0  0  0  0  0  0
   44.3180   11.0730   47.5880 C   0  0  0  0  0  0  0  0  0  0  0  0
   43.5480   10.6220   46.5320 C   0  0  0  0  0  0  0  0  0  0  0  0
   43.3620   11.3520   45.4070 C   0  0  0  0  0  0  0  0  0  0  0  0
   44.0020   12.6020   45.3830 C   0  0  0  0  0  0  0  0  0  0  0  0
   44.7720   13.0710   46.4220 C   0  0  0  0  0  0  0  0  0  0  0  0
   42.6000   10.9760   44.2320 C   0  0  1  0  0  0  0  0  0  0  0  0
   42.9460    9.7680   43.5540 N   0  0  0  0  0  0  0  0  0  0  0  0
   41.7700    9.4030   42.7860 C   0  0  0  0  0  0  0  0  0  0  0  0
   41.7780    8.6290   41.7930 O   0  0  0  0  0  0  0  0  0  0  0  0
   40.6290   10.0810   43.3700 C   0  0  0  0  0  0  0  0  0  0  0  0
   39.4180   10.0240   42.9960 O   0  0  0  0  0  0  0  0  0  0  0  0
   41.1400   10.8520   44.4840 C   0  0  0  0  0  0  0  0  0  0  0  0
   40.4320   11.3020   45.5050 C   0  0  0  0  0  0  0  0  0  0  0  0
   41.1550   11.9940   46.5070 O   0  0  0  0  0  0  0  0  0  0  0  0
   38.9990   11.1380   45.6470 C   0  0  0  0  0  0  0  0  0  0  0  0
   38.3060   12.2260   46.1920 C   0  0  0  0  0  0  0  0  0  0  0  0
   36.9350   12.2230   46.3440 C   0  0  0  0  0  0  0  0  0  0  0  0
   36.2270   11.1450   45.9610 N   0  0  0  0  0  0  0  0  0  0  0  0
   36.8690   10.0830   45.4330 C   0  0  0  0  0  0  0  0  0  0  0  0
   38.2540   10.0740   45.2730 C   0  0  0  0  0  0  0  0  0  0  0  0
   44.1930    9.0040   43.4840 C   0  0  0  0  0  0  0  0  0  0  0  0
   44.5300    8.2280   44.7120 C   0  0  0  0  0  0  0  0  0  0  0  0
   44.3480    6.7320   44.5070 C   0  0  0  0  0  0  0  0  0  0  0  0
   45.6160    6.0410   44.5270 N   0  0  0  0  0  4  0  0  0  0  0  0
   45.6210    4.8660   43.6850 C   0  0  0  0  0  0  0  0  0  0  0  0
   47.0890    4.4950   43.4600 C   0  0  0  0  0  0  0  0  0  0  0  0
   47.6330    5.3890   42.5390 O   0  0  0  0  0  0  0  0  0  0  0  0
   47.1850    6.6910   42.7610 C   0  0  0  0  0  0  0  0  0  0  0  0
   46.7230    6.8830   44.1900 C   0  0  0  0  0  0  0  0  0  0  0  0
   44.4560   10.4770   48.4780 H   0  0  0  0  0  0  0  0  0  0  0  0
   43.0550    9.6430   46.6090 H   0  0  0  0  0  0  0  0  0  0  0  0
   43.9060   13.2510   44.5220 H   0  0  0  0  0  0  0  0  0  0  0  0
   45.2550   14.0550   46.3600 H   0  0  0  0  0  0  0  0  0  0  0  0
   42.6710   11.7860   43.4540 H   0  0  0  0  0  0  0  0  0  0  0  0
   38.8310   13.1140   46.5140 H   0  0  0  0  0  0  0  0  0  0  0  0
   36.3920   13.0580   46.7630 H   0  0  0  0  0  0  0  0  0  0  0  0
   36.3000    9.2080   45.1210 H   0  0  0  0  0  0  0  0  0  0  0  0
   38.7080    9.2110   44.8180 H   0  0  0  0  0  0  0  0  0  0  0  0
   45.0030    9.7290   43.2930 H   0  0  0  0  0  0  0  0  0  0  0  0
   44.1910    8.3010   42.6270 H   0  0  0  0  0  0  0  0  0  0  0  0
   45.6070    8.4180   45.0270 H   0  0  0  0  0  0  0  0  0  0  0  0
   43.9070    8.5240   45.5590 H   0  0  0  0  0  0  0  0  0  0  0  0
   43.7460    6.3460   45.3310 H   0  0  0  0  0  0  0  0  0  0  0  0
   43.9030    6.5940   43.5090 H   0  0  0  0  0  0  0  0  0  0  0  0
   45.7570    5.7090   45.5110 H   0  0  0  0  0  0  0  0  0  0  0  0
   45.1490    3.9880   44.1480 H   0  0  0  0  0  0  0  0  0  0  0  0
   45.1530    5.0630   42.7110 H   0  0  0  0  0  0  0  0  0  0  0  0
   47.1960    3.4540   43.1620 H   0  0  0  0  0  0  0  0  0  0  0  0
   47.5980    4.6600   44.4290 H   0  0  0  0  0  0  0  0  0  0  0  0
   48.0060    7.4160   42.5940 H   0  0  0  0  0  0  0  0  0  0  0  0
   46.3370    6.9160   42.0750 H   0  0  0  0  0  0  0  0  0  0  0  0
   46.4450    7.9270   44.3210 H   0  0  0  0  0  0  0  0  0  0  0  0
   47.6190    6.6910   44.8340 H   0  0  0  0  0  0  0  0  0  0  0  0
  2  3  1  0  0  0  0
  2  1  1  0  0  0  0
  3 32  1  0  0  0  0
  4 33  1  0  0  0  0
  4  3  2  0  0  0  0
  5  4  1  0  0  0  0
  6  5  2  0  0  0  0
  6  7  1  0  0  0  0
  7  2  2  0  0  0  0
  8 36  1  6  0  0  0
  8 14  1  0  0  0  0
  8  5  1  0  0  0  0
  9  8  1  0  0  0  0
 10 12  1  0  0  0  0
 10  9  1  0  0  0  0
 11 10  2  0  0  0  0
 12 14  1  0  0  0  0
 13 12  2  0  0  0  0
 14 15  2  0  0  0  0
 15 17  1  0  0  0  0
 15 16  1  0  0  0  0
 17 18  1  0  0  0  0
 18 19  2  0  0  0  0
 18 37  1  0  0  0  0
 19 38  1  0  0  0  0
 20 19  1  0  0  0  0
 21 20  2  0  0  0  0
 22 21  1  0  0  0  0
 22 17  2  0  0  0  0
 23  9  1  0  0  0  0
 23 24  1  0  0  0  0
 24 43  1  0  0  0  0
 24 44  1  0  0  0  0
 25 26  1  0  0  0  0
 25 24  1  0  0  0  0
 25 45  1  0  0  0  0
 26 47  1  0  0  0  0
 27 48  1  0  0  0  0
 27 26  1  0  0  0  0
 28 27  1  0  0  0  0
 28 51  1  0  0  0  0
 29 30  1  0  0  0  0
 29 28  1  0  0  0  0
 30 31  1  0  0  0  0
 31 54  1  0  0  0  0
 31 26  1  0  0  0  0
 31 55  1  0  0  0  0
 34  6  1  0  0  0  0
 35  7  1  0  0  0  0
 39 21  1  0  0  0  0
 40 22  1  0  0  0  0
 41 23  1  0  0  0  0
 42 23  1  0  0  0  0
 46 25  1  0  0  0  0
 49 27  1  0  0  0  0
 50 28  1  0  0  0  0
 52 30  1  0  0  0  0
 53 30  1  0  0  0  0
M  END
>  <Pose>
1

>  <Score>
-5.38

$$$$
