
 OpenBabel03172210433D

 57 60  0  0  1  0  0  0  0  0999 V2000
   37.2910   11.3650   47.9490 B   0  0  0  0  0  0  0  0  0  0  0  0
   38.9320   11.3620   46.9490 C   0  0  0  0  0  0  0  0  0  0  0  0
   39.5760   12.5480   46.6430 C   0  0  0  0  0  0  0  0  0  0  0  0
   40.7650   12.5290   45.9170 C   0  0  0  0  0  0  0  0  0  0  0  0
   41.3410   11.3590   45.4830 C   0  0  0  0  0  0  0  0  0  0  0  0
   40.6840   10.1900   45.7980 C   0  0  0  0  0  0  0  0  0  0  0  0
   39.5090   10.1960   46.5140 C   0  0  0  0  0  0  0  0  0  0  0  0
   42.5970   11.3620   44.7010 C   0  0  1  0  0  0  0  0  0  0  0  0
   43.6460   12.1270   45.4010 N   0  0  0  0  0  0  0  0  0  0  0  0
   44.0520   11.2770   46.4690 C   0  0  0  0  0  0  0  0  0  0  0  0
   44.5770   11.6880   47.5440 O   0  0  0  0  0  0  0  0  0  0  0  0
   43.7630    9.8940   46.1060 C   0  0  0  0  0  0  0  0  0  0  0  0
   43.9870    8.8750   46.7910 O   0  0  0  0  0  0  0  0  0  0  0  0
   43.1670    9.9670   44.7850 C   0  0  0  0  0  0  0  0  0  0  0  0
   43.1540    9.0510   43.8500 C   0  0  0  0  0  0  0  0  0  0  0  0
   42.5800    9.3010   42.6110 O   0  0  0  0  0  0  0  0  0  0  0  0
   43.7310    7.7370   44.0600 C   0  0  0  0  0  0  0  0  0  0  0  0
   44.9380    7.2270   43.7390 N   0  0  0  0  0  0  0  0  0  0  0  0
   45.0230    5.9380   44.1000 C   0  0  0  0  0  0  0  0  0  0  0  0
   43.8340    5.6290   44.6620 N   0  0  0  0  0  0  0  0  0  0  0  0
   43.0270    6.6720   44.6630 C   0  0  0  0  0  0  0  0  0  0  0  0
   41.6270    6.7960   45.1810 C   0  0  0  0  0  0  0  0  0  0  0  0
   46.1680    5.1670   43.9030 C   0  0  0  0  0  0  0  0  0  0  0  0
   47.2810    5.7250   43.3170 C   0  0  0  0  0  0  0  0  0  0  0  0
   47.1770    7.0490   42.9560 C   0  0  0  0  0  0  0  0  0  0  0  0
   46.0340    7.7840   43.1620 C   0  0  0  0  0  0  0  0  0  0  0  0
   44.1140   13.4440   45.0600 C   0  0  0  0  0  0  0  0  0  0  0  0
   44.5760   14.3510   46.1310 C   0  0  0  0  0  0  0  0  0  0  0  0
   45.9670   14.8480   46.1510 C   0  0  0  0  0  0  0  0  0  0  0  0
   46.3550   15.8040   45.1600 N   0  0  0  0  0  4  0  0  0  0  0  0
   46.9810   16.9440   45.8900 C   0  0  0  0  0  0  0  0  0  0  0  0
   47.4330   15.2690   44.3530 C   0  0  0  0  0  0  0  0  0  0  0  0
   39.1320   13.4920   46.9820 H   0  0  0  0  0  0  0  0  0  0  0  0
   41.2460   13.4660   45.6940 H   0  0  0  0  0  0  0  0  0  0  0  0
   41.1240    9.2670   45.4510 H   0  0  0  0  0  0  0  0  0  0  0  0
   39.0300    9.2650   46.7380 H   0  0  0  0  0  0  0  0  0  0  0  0
   42.4710   11.6870   43.6660 H   0  0  0  0  0  0  0  0  0  0  0  0
   41.0130    7.4360   44.5370 H   0  0  0  0  0  0  0  0  0  0  0  0
   41.6430    7.1980   46.2380 H   0  0  0  0  0  0  0  0  0  0  0  0
   41.1570    5.7920   45.2360 H   0  0  0  0  0  0  0  0  0  0  0  0
   46.1990    4.1290   44.2060 H   0  0  0  0  0  0  0  0  0  0  0  0
   48.1850    5.1430   43.1540 H   0  0  0  0  0  0  0  0  0  0  0  0
   48.0620    7.4900   42.4920 H   0  0  0  0  0  0  0  0  0  0  0  0
   45.9620    8.8150   42.8750 H   0  0  0  0  0  0  0  0  0  0  0  0
   43.3600   13.9800   44.4120 H   0  0  0  0  0  0  0  0  0  0  0  0
   45.0120   13.2730   44.3730 H   0  0  0  0  0  0  0  0  0  0  0  0
   44.2480   13.9910   47.1530 H   0  0  0  0  0  0  0  0  0  0  0  0
   43.9250   15.2970   46.0120 H   0  0  0  0  0  0  0  0  0  0  0  0
   46.7130   13.9930   46.1750 H   0  0  0  0  0  0  0  0  0  0  0  0
   46.1490   15.3240   47.1680 H   0  0  0  0  0  0  0  0  0  0  0  0
   45.6180   16.1740   44.5600 H   0  0  0  0  0  0  0  0  0  0  0  0
   47.3160   17.7150   45.1840 H   0  0  0  0  0  0  0  0  0  0  0  0
   46.2560   17.3440   46.6270 H   0  0  0  0  0  0  0  0  0  0  0  0
   47.8830   16.5030   46.3620 H   0  0  0  0  0  0  0  0  0  0  0  0
   47.4060   14.1560   44.3210 H   0  0  0  0  0  0  0  0  0  0  0  0
   47.2770   15.6140   43.3110 H   0  0  0  0  0  0  0  0  0  0  0  0
   48.4290   15.6430   44.6520 H   0  0  0  0  0  0  0  0  0  0  0  0
  2  1  1  0  0  0  0
  3  2  1  0  0  0  0
  3 33  1  0  0  0  0
  4  3  2  0  0  0  0
  5  6  2  0  0  0  0
  5  4  1  0  0  0  0
  6  7  1  0  0  0  0
  7 36  1  0  0  0  0
  7  2  2  0  0  0  0
  8 37  1  6  0  0  0
  8 14  1  0  0  0  0
  8  9  1  0  0  0  0
  8  5  1  0  0  0  0
  9 10  1  0  0  0  0
 10 11  2  0  0  0  0
 12 10  1  0  0  0  0
 12 13  2  0  0  0  0
 14 12  1  0  0  0  0
 15 17  1  0  0  0  0
 15 14  2  0  0  0  0
 16 15  1  0  0  0  0
 17 21  2  0  0  0  0
 18 17  1  0  0  0  0
 18 19  1  0  0  0  0
 19 20  2  0  0  0  0
 20 21  1  0  0  0  0
 21 22  1  0  0  0  0
 22 40  1  0  0  0  0
 22 39  1  0  0  0  0
 23 19  1  0  0  0  0
 23 41  1  0  0  0  0
 24 23  2  0  0  0  0
 25 26  2  0  0  0  0
 25 24  1  0  0  0  0
 26 18  1  0  0  0  0
 27  9  1  0  0  0  0
 27 28  1  0  0  0  0
 28 29  1  0  0  0  0
 28 47  1  0  0  0  0
 29 49  1  0  0  0  0
 29 50  1  0  0  0  0
 30 31  1  0  0  0  0
 30 29  1  0  0  0  0
 31 54  1  0  0  0  0
 31 53  1  0  0  0  0
 32 57  1  0  0  0  0
 32 30  1  0  0  0  0
 34  4  1  0  0  0  0
 35  6  1  0  0  0  0
 38 22  1  0  0  0  0
 42 24  1  0  0  0  0
 43 25  1  0  0  0  0
 44 26  1  0  0  0  0
 45 27  1  0  0  0  0
 46 27  1  0  0  0  0
 48 28  1  0  0  0  0
 51 30  1  0  0  0  0
 52 31  1  0  0  0  0
 55 32  1  0  0  0  0
 56 32  1  0  0  0  0
M  END
>  <Pose>
1

>  <Score>
-5.67

$$$$
