
 OpenBabel03172210433D

 62 66  0  0  1  0  0  0  0  0999 V2000
   41.0510   16.2810   47.4210 B   0  0  0  0  0  0  0  0  0  0  0  0
   41.1860   14.3840   47.5740 C   0  0  0  0  0  0  0  0  0  0  0  0
   40.0760   13.5610   47.5160 C   0  0  0  0  0  0  0  0  0  0  0  0
   40.1730   12.1900   47.6270 C   0  0  0  0  0  0  0  0  0  0  0  0
   41.3920   11.5990   47.8000 C   0  0  0  0  0  0  0  0  0  0  0  0
   42.4910   12.4080   47.8580 C   0  0  0  0  0  0  0  0  0  0  0  0
   42.4150   13.7780   47.7490 C   0  0  0  0  0  0  0  0  0  0  0  0
   41.5560   10.1830   47.9030 C   0  0  2  0  0  0  0  0  0  0  0  0
   42.3420    9.5680   48.8890 N   0  0  0  0  0  0  0  0  0  0  0  0
   42.2750    8.1640   48.5220 C   0  0  0  0  0  0  0  0  0  0  0  0
   42.4070    7.1440   49.2810 O   0  0  0  0  0  0  0  0  0  0  0  0
   42.0240    8.0960   47.0860 C   0  0  0  0  0  0  0  0  0  0  0  0
   41.8840    7.0950   46.3120 O   0  0  0  0  0  0  0  0  0  0  0  0
   41.9520    9.4890   46.6510 C   0  0  0  0  0  0  0  0  0  0  0  0
   42.1470    9.9830   45.4430 C   0  0  0  0  0  0  0  0  0  0  0  0
   41.9790   11.3410   45.2130 O   0  0  0  0  0  0  0  0  0  0  0  0
   42.5440    9.1590   44.3110 C   0  0  0  0  0  0  0  0  0  0  0  0
   43.6060    8.3410   44.2160 N   0  0  0  0  0  0  0  0  0  0  0  0
   43.6070    7.7190   43.0140 C   0  0  0  0  0  0  0  0  0  0  0  0
   42.5240    8.1640   42.3580 N   0  0  0  0  0  0  0  0  0  0  0  0
   41.8520    9.0370   43.1050 C   0  0  0  0  0  0  0  0  0  0  0  0
   40.6020    9.7850   42.8030 C   0  0  0  0  0  0  0  0  0  0  0  0
   44.5920    6.8290   42.6430 C   0  0  0  0  0  0  0  0  0  0  0  0
   45.6330    6.5320   43.4910 C   0  0  0  0  0  0  0  0  0  0  0  0
   45.6480    7.1580   44.7180 C   0  0  0  0  0  0  0  0  0  0  0  0
   44.6520    8.0280   45.0360 C   0  0  0  0  0  0  0  0  0  0  0  0
   43.0870    9.9090   50.0570 C   0  0  0  0  0  0  0  0  0  0  0  0
   44.4540   10.3800   50.0200 C   0  0  0  0  0  0  0  0  0  0  0  0
   45.5180    9.4260   49.5310 C   0  0  0  0  0  0  0  0  0  0  0  0
   46.4810   10.1000   48.6660 N   0  0  0  0  0  4  0  0  0  0  0  0
   47.8270    9.6320   48.8150 C   0  0  0  0  0  0  0  0  0  0  0  0
   48.6180   10.3240   49.8870 C   0  0  0  0  0  0  0  0  0  0  0  0
   47.8520   11.0650   50.7460 O   0  0  0  0  0  0  0  0  0  0  0  0
   47.0040   11.9640   50.1540 C   0  0  0  0  0  0  0  0  0  0  0  0
   46.4600   11.5210   48.8360 C   0  0  0  0  0  0  0  0  0  0  0  0
   39.0960   14.0210   47.3780 H   0  0  0  0  0  0  0  0  0  0  0  0
   39.2280   11.6000   47.5690 H   0  0  0  0  0  0  0  0  0  0  0  0
   43.5120   12.0010   47.9870 H   0  0  0  0  0  0  0  0  0  0  0  0
   43.3030   14.4240   47.7970 H   0  0  0  0  0  0  0  0  0  0  0  0
   40.5040    9.7740   48.0840 H   0  0  0  0  0  0  0  0  0  0  0  0
   39.9560    9.7610   43.7020 H   0  0  0  0  0  0  0  0  0  0  0  0
   40.0950    9.2630   41.9810 H   0  0  0  0  0  0  0  0  0  0  0  0
   40.8880   10.8120   42.5150 H   0  0  0  0  0  0  0  0  0  0  0  0
   44.5620    6.3510   41.6790 H   0  0  0  0  0  0  0  0  0  0  0  0
   46.4160    5.8500   43.2480 H   0  0  0  0  0  0  0  0  0  0  0  0
   46.4540    6.9360   45.3950 H   0  0  0  0  0  0  0  0  0  0  0  0
   44.6660    8.5370   46.0130 H   0  0  0  0  0  0  0  0  0  0  0  0
   43.0080    9.0850   50.8380 H   0  0  0  0  0  0  0  0  0  0  0  0
   42.4770   10.7300   50.5540 H   0  0  0  0  0  0  0  0  0  0  0  0
   44.6340   11.4350   49.6770 H   0  0  0  0  0  0  0  0  0  0  0  0
   44.7500   10.5200   51.1210 H   0  0  0  0  0  0  0  0  0  0  0  0
   45.0890    8.6190   48.8950 H   0  0  0  0  0  0  0  0  0  0  0  0
   46.0800    9.0530   50.4030 H   0  0  0  0  0  0  0  0  0  0  0  0
   46.1900    9.8800   47.6810 H   0  0  0  0  0  0  0  0  0  0  0  0
   47.9340    8.5290   48.8740 H   0  0  0  0  0  0  0  0  0  0  0  0
   48.3460    9.9030   47.8450 H   0  0  0  0  0  0  0  0  0  0  0  0
   49.4920   10.9100   49.4860 H   0  0  0  0  0  0  0  0  0  0  0  0
   49.1100    9.5170   50.5040 H   0  0  0  0  0  0  0  0  0  0  0  0
   47.4560   12.9930   50.0890 H   0  0  0  0  0  0  0  0  0  0  0  0
   46.1240   12.0990   50.8480 H   0  0  0  0  0  0  0  0  0  0  0  0
   47.1120   11.9560   48.0410 H   0  0  0  0  0  0  0  0  0  0  0  0
   45.4370   11.8930   48.6240 H   0  0  0  0  0  0  0  0  0  0  0  0
  1  2  1  0  0  0  0
  2  7  1  0  0  0  0
  3  2  2  0  0  0  0
  3  4  1  0  0  0  0
  4  5  2  0  0  0  0
  5  6  1  0  0  0  0
  5  8  1  0  0  0  0
  6 38  1  0  0  0  0
  7 39  1  0  0  0  0
  7  6  2  0  0  0  0
  8 40  1  1  0  0  0
  8  9  1  0  0  0  0
  9 27  1  0  0  0  0
 10  9  1  0  0  0  0
 10 11  2  0  0  0  0
 12 10  1  0  0  0  0
 13 12  2  0  0  0  0
 14 12  1  0  0  0  0
 14  8  1  0  0  0  0
 15 14  2  0  0  0  0
 16 15  1  0  0  0  0
 17 15  1  0  0  0  0
 18 17  1  0  0  0  0
 18 26  1  0  0  0  0
 19 18  1  0  0  0  0
 20 19  2  0  0  0  0
 20 21  1  0  0  0  0
 21 17  2  0  0  0  0
 22 21  1  0  0  0  0
 22 41  1  0  0  0  0
 23 19  1  0  0  0  0
 23 24  2  0  0  0  0
 24 25  1  0  0  0  0
 25 26  2  0  0  0  0
 25 46  1  0  0  0  0
 26 47  1  0  0  0  0
 27 49  1  0  0  0  0
 27 48  1  0  0  0  0
 28 27  1  0  0  0  0
 28 51  1  0  0  0  0
 29 28  1  0  0  0  0
 29 53  1  0  0  0  0
 30 31  1  0  0  0  0
 30 35  1  0  0  0  0
 30 29  1  0  0  0  0
 31 55  1  0  0  0  0
 31 32  1  0  0  0  0
 32 58  1  0  0  0  0
 32 33  1  0  0  0  0
 34 33  1  0  0  0  0
 34 60  1  0  0  0  0
 35 34  1  0  0  0  0
 36  3  1  0  0  0  0
 37  4  1  0  0  0  0
 42 22  1  0  0  0  0
 43 22  1  0  0  0  0
 44 23  1  0  0  0  0
 45 24  1  0  0  0  0
 50 28  1  0  0  0  0
 52 29  1  0  0  0  0
 54 30  1  0  0  0  0
 56 31  1  0  0  0  0
 57 32  1  0  0  0  0
 59 34  1  0  0  0  0
 61 35  1  0  0  0  0
 62 35  1  0  0  0  0
M  END
>  <Pose>
1

>  <Score>
-4.93

$$$$
