
 OpenBabel03172210433D

 44 47  0  0  0  0  0  0  0  0999 V2000
   50.4880    1.6620   42.7720 B   0  0  0  0  0  0  0  0  0  0  0  0
   49.2580    3.0520   43.2270 C   0  0  0  0  0  0  0  0  0  0  0  0
   49.4110    3.8130   44.3560 C   0  0  0  0  0  0  0  0  0  0  0  0
   48.5010    4.8280   44.6810 C   0  0  0  0  0  0  0  0  0  0  0  0
   47.4100    5.1280   43.9040 C   0  0  0  0  0  0  0  0  0  0  0  0
   47.2840    4.3290   42.7510 C   0  0  0  0  0  0  0  0  0  0  0  0
   48.1680    3.3360   42.4290 C   0  0  0  0  0  0  0  0  0  0  0  0
   46.4350    6.0980   44.1530 N   0  0  0  0  0  0  0  0  0  0  0  0
   46.1970    7.2380   43.3770 C   0  0  0  0  0  0  0  0  0  0  0  0
   47.1870    8.0260   43.1030 O   0  0  0  0  0  0  0  0  0  0  0  0
   44.9290    7.6870   42.8030 C   0  0  0  0  0  0  0  0  0  0  0  0
   43.9730    8.0410   43.8650 N   0  0  0  0  0  0  0  0  0  0  0  0
   44.0170    9.2070   44.5030 N   0  0  0  0  0  0  0  0  0  0  0  0
   43.1440    9.5090   45.5060 C   0  0  0  0  0  0  0  0  0  0  0  0
   42.2140    8.6090   45.8600 N   0  0  0  0  0  0  0  0  0  0  0  0
   41.3800    9.1330   46.9190 C   0  0  0  0  0  0  0  0  0  0  0  0
   41.8880   10.5090   47.2350 C   0  0  0  0  0  0  0  0  0  0  0  0
   43.0250   10.6520   46.3450 N   0  0  0  0  0  0  0  0  0  0  0  0
   43.8640   11.7910   46.3530 C   0  0  0  0  0  0  0  0  0  0  0  0
   43.9410   12.6890   45.3220 C   0  0  0  0  0  0  0  0  0  0  0  0
   44.7840   13.7850   45.3540 C   0  0  0  0  0  0  0  0  0  0  0  0
   45.5850   13.9980   46.4600 C   0  0  0  0  0  0  0  0  0  0  0  0
   45.5230   13.1190   47.4950 C   0  0  0  0  0  0  0  0  0  0  0  0
   44.6810   12.0290   47.4550 C   0  0  0  0  0  0  0  0  0  0  0  0
   42.1200    7.4180   45.2550 C   0  0  0  0  0  0  0  0  0  0  0  0
   41.2490    6.5790   45.5870 O   0  0  0  0  0  0  0  0  0  0  0  0
   43.0280    7.1630   44.2470 C   0  0  0  0  0  0  0  0  0  0  0  0
   42.9790    6.0590   43.6490 O   0  0  0  0  0  0  0  0  0  0  0  0
   50.2540    3.6190   45.0050 H   0  0  0  0  0  0  0  0  0  0  0  0
   48.6680    5.4160   45.5800 H   0  0  0  0  0  0  0  0  0  0  0  0
   46.4380    4.5280   42.1060 H   0  0  0  0  0  0  0  0  0  0  0  0
   48.0560    2.7200   41.5330 H   0  0  0  0  0  0  0  0  0  0  0  0
   45.8170    5.9710   45.0050 H   0  0  0  0  0  0  0  0  0  0  0  0
   44.4180    6.8930   42.2060 H   0  0  0  0  0  0  0  0  0  0  0  0
   45.0770    8.5840   42.1770 H   0  0  0  0  0  0  0  0  0  0  0  0
   40.3620    9.2670   46.4820 H   0  0  0  0  0  0  0  0  0  0  0  0
   41.3460    8.4650   47.8110 H   0  0  0  0  0  0  0  0  0  0  0  0
   42.2580   10.4640   48.2940 H   0  0  0  0  0  0  0  0  0  0  0  0
   41.1430   11.3190   47.0980 H   0  0  0  0  0  0  0  0  0  0  0  0
   43.3250   12.5260   44.4700 H   0  0  0  0  0  0  0  0  0  0  0  0
   44.8270   14.4770   44.5210 H   0  0  0  0  0  0  0  0  0  0  0  0
   46.2530   14.8690   46.4780 H   0  0  0  0  0  0  0  0  0  0  0  0
   46.1360   13.2610   48.3660 H   0  0  0  0  0  0  0  0  0  0  0  0
   44.6430   11.3480   48.2680 H   0  0  0  0  0  0  0  0  0  0  0  0
  1  2  1  0  0  0  0
  2  3  1  0  0  0  0
  3  4  2  0  0  0  0
  3 29  1  0  0  0  0
  4 30  1  0  0  0  0
  5  8  1  0  0  0  0
  5  4  1  0  0  0  0
  6  5  2  0  0  0  0
  7  6  1  0  0  0  0
  7  2  2  0  0  0  0
  8 33  1  0  0  0  0
  9  8  1  0  0  0  0
 10  9  2  0  0  0  0
 11  9  1  0  0  0  0
 11 12  1  0  0  0  0
 12 27  1  0  0  0  0
 12 13  1  0  0  0  0
 13 14  2  0  0  0  0
 14 15  1  0  0  0  0
 14 18  1  0  0  0  0
 15 16  1  0  0  0  0
 16 17  1  0  0  0  0
 16 37  1  0  0  0  0
 17 38  1  0  0  0  0
 18 19  1  0  0  0  0
 18 17  1  0  0  0  0
 19 24  1  0  0  0  0
 20 21  1  0  0  0  0
 20 19  2  0  0  0  0
 21 22  2  0  0  0  0
 22 42  1  0  0  0  0
 22 23  1  0  0  0  0
 23 43  1  0  0  0  0
 24 23  2  0  0  0  0
 24 44  1  0  0  0  0
 25 26  2  0  0  0  0
 25 15  1  0  0  0  0
 27 25  1  0  0  0  0
 28 27  2  0  0  0  0
 31  6  1  0  0  0  0
 32  7  1  0  0  0  0
 34 11  1  0  0  0  0
 35 11  1  0  0  0  0
 36 16  1  0  0  0  0
 39 17  1  0  0  0  0
 40 20  1  0  0  0  0
 41 21  1  0  0  0  0
M  END
>  <Pose>
1

>  <Score>
-6.61

$$$$
