
 OpenBabel03172210433D

 44 47  0  0  0  0  0  0  0  0999 V2000
   40.2310   12.3730   43.5640 B   0  0  0  0  0  0  0  0  0  0  0  0
   41.5240   11.0070   43.8380 C   0  0  0  0  0  0  0  0  0  0  0  0
   41.9470   10.1760   42.8320 C   0  0  0  0  0  0  0  0  0  0  0  0
   42.8930    9.1920   43.0840 C   0  0  0  0  0  0  0  0  0  0  0  0
   43.4560    8.9880   44.3260 C   0  0  0  0  0  0  0  0  0  0  0  0
   42.9990    9.8590   45.3330 C   0  0  0  0  0  0  0  0  0  0  0  0
   42.0730   10.8220   45.0880 C   0  0  0  0  0  0  0  0  0  0  0  0
   44.4030    7.9870   44.6420 N   0  0  0  0  0  0  0  0  0  0  0  0
   44.7690    6.9100   43.8230 C   0  0  0  0  0  0  0  0  0  0  0  0
   44.5060    5.7340   44.1490 O   0  0  0  0  0  0  0  0  0  0  0  0
   45.5010    7.1670   42.5160 C   0  0  0  0  0  0  0  0  0  0  0  0
   46.2290    5.9670   42.1530 N   0  0  0  0  0  0  0  0  0  0  0  0
   46.0560    5.2950   41.0150 N   0  0  0  0  0  0  0  0  0  0  0  0
   46.8650    4.2610   40.9900 N   0  0  0  0  0  0  0  0  0  0  0  0
   47.5850    4.2530   42.1380 C   0  0  0  0  0  0  0  0  0  0  0  0
   47.1790    5.3140   42.8460 C   0  0  0  0  0  0  0  0  0  0  0  0
   47.9320    5.2710   44.0000 C   0  0  0  0  0  0  0  0  0  0  0  0
   47.8180    6.1330   44.9210 O   0  0  0  0  0  0  0  0  0  0  0  0
   48.7730    4.2260   44.0140 N   0  0  0  0  0  0  0  0  0  0  0  0
   48.5580    3.5760   42.8350 C   0  0  0  0  0  0  0  0  0  0  0  0
   49.1860    2.5330   42.5050 O   0  0  0  0  0  0  0  0  0  0  0  0
   49.7110    3.8370   45.0290 C   0  0  0  0  0  0  0  0  0  0  0  0
   49.3080    3.6550   46.3340 C   0  0  0  0  0  0  0  0  0  0  0  0
   50.2020    3.2710   47.3140 C   0  0  0  0  0  0  0  0  0  0  0  0
   51.5400    3.0520   47.0400 C   0  0  0  0  0  0  0  0  0  0  0  0
   51.9460    3.2340   45.7350 C   0  0  0  0  0  0  0  0  0  0  0  0
   51.0450    3.6180   44.7560 C   0  0  0  0  0  0  0  0  0  0  0  0
   52.4760    2.6340   48.1190 C   0  0  0  0  0  0  0  0  0  0  0  0
   41.5340   10.3020   41.8480 H   0  0  0  0  0  0  0  0  0  0  0  0
   43.2240    8.5440   42.2570 H   0  0  0  0  0  0  0  0  0  0  0  0
   43.4450    9.7040   46.3300 H   0  0  0  0  0  0  0  0  0  0  0  0
   41.7450   11.4750   45.9000 H   0  0  0  0  0  0  0  0  0  0  0  0
   44.8710    8.0800   45.5980 H   0  0  0  0  0  0  0  0  0  0  0  0
   46.2120    7.9880   42.6470 H   0  0  0  0  0  0  0  0  0  0  0  0
   44.7230    7.3680   41.7390 H   0  0  0  0  0  0  0  0  0  0  0  0
   45.3710    5.5810   40.2850 H   0  0  0  0  0  0  0  0  0  0  0  0
   46.9770    3.5350   40.2400 H   0  0  0  0  0  0  0  0  0  0  0  0
   48.2620    3.8230   46.5640 H   0  0  0  0  0  0  0  0  0  0  0  0
   49.8920    3.1210   48.3540 H   0  0  0  0  0  0  0  0  0  0  0  0
   53.0010    3.0660   45.4930 H   0  0  0  0  0  0  0  0  0  0  0  0
   51.3620    3.7630   43.7270 H   0  0  0  0  0  0  0  0  0  0  0  0
   52.5070    3.3660   48.9580 H   0  0  0  0  0  0  0  0  0  0  0  0
   53.5030    2.6420   47.6790 H   0  0  0  0  0  0  0  0  0  0  0  0
   52.2780    1.6120   48.4780 H   0  0  0  0  0  0  0  0  0  0  0  0
  1  2  1  0  0  0  0
  2  7  1  0  0  0  0
  3  4  1  0  0  0  0
  3  2  2  0  0  0  0
  4  5  2  0  0  0  0
  5  8  1  0  0  0  0
  5  6  1  0  0  0  0
  6 31  1  0  0  0  0
  7  6  2  0  0  0  0
  7 32  1  0  0  0  0
  8 33  1  0  0  0  0
  9 10  2  0  0  0  0
  9  8  1  0  0  0  0
 11 34  1  0  0  0  0
 11  9  1  0  0  0  0
 12 11  1  0  0  0  0
 12 16  1  0  0  0  0
 13 12  1  0  0  0  0
 14 13  1  0  0  0  0
 14 15  1  0  0  0  0
 15 20  1  0  0  0  0
 15 16  2  0  0  0  0
 16 17  1  0  0  0  0
 17 19  1  0  0  0  0
 17 18  2  0  0  0  0
 19 22  1  0  0  0  0
 20 19  1  0  0  0  0
 21 20  2  0  0  0  0
 22 23  1  0  0  0  0
 23 38  1  0  0  0  0
 23 24  2  0  0  0  0
 24 39  1  0  0  0  0
 25 24  1  0  0  0  0
 25 28  1  0  0  0  0
 26 25  2  0  0  0  0
 27 22  2  0  0  0  0
 27 26  1  0  0  0  0
 28 44  1  0  0  0  0
 28 42  1  0  0  0  0
 29  3  1  0  0  0  0
 30  4  1  0  0  0  0
 35 11  1  0  0  0  0
 36 13  1  0  0  0  0
 37 14  1  0  0  0  0
 40 26  1  0  0  0  0
 41 27  1  0  0  0  0
 43 28  1  0  0  0  0
M  END
>  <Pose>
1

>  <Score>
-7.53

$$$$
