
 OpenBabel03172210433D

 47 50  0  0  1  0  0  0  0  0999 V2000
   34.8510   13.0760   46.2220 B   0  0  0  0  0  0  0  0  0  0  0  0
   36.4520   12.2200   45.5990 C   0  0  0  0  0  0  0  0  0  0  0  0
   36.5380   10.8530   45.5180 C   0  0  0  0  0  0  0  0  0  0  0  0
   37.6580   10.2410   45.0860 C   0  0  0  0  0  0  0  0  0  0  0  0
   38.8150   10.9850   44.6920 C   0  0  0  0  0  0  0  0  0  0  0  0
   38.6870   12.3530   44.7880 C   0  0  0  0  0  0  0  0  0  0  0  0
   37.5440   12.9740   45.2270 C   0  0  0  0  0  0  0  0  0  0  0  0
   39.9220   10.2510   44.3440 N   0  0  0  0  0  0  0  0  0  0  0  0
   40.9870    9.5430   44.0070 C   0  0  0  0  0  0  0  0  0  0  0  0
   41.2990    8.9630   42.8920 O   0  0  0  0  0  0  0  0  0  0  0  0
   42.1070    9.3040   45.0430 C   0  0  2  0  0  0  0  0  0  0  0  0
   42.6020   10.6720   45.4090 C   0  0  0  0  0  0  0  0  0  0  0  0
   43.7610   11.1290   44.6320 C   0  0  0  0  0  0  0  0  0  0  0  0
   43.8810   12.3680   44.4250 O   0  0  0  0  0  0  0  0  0  0  0  0
   44.7030   10.1940   44.1380 N   0  0  0  0  0  0  0  0  0  0  0  0
   44.3780    8.8210   44.0930 C   0  0  0  0  0  0  0  0  0  0  0  0
   45.3100    7.9330   43.6240 N   0  0  0  0  0  0  0  0  0  0  0  0
   45.0750    6.6210   43.5670 C   0  0  0  0  0  0  0  0  0  0  0  0
   43.8810    6.1840   43.9880 N   0  0  0  0  0  0  0  0  0  0  0  0
   42.9170    7.0260   44.4630 C   0  0  0  0  0  0  0  0  0  0  0  0
   43.1350    8.3870   44.5330 C   0  0  0  0  0  0  0  0  0  0  0  0
   41.6590    6.5130   44.8880 N   0  0  0  0  0  0  0  0  0  0  0  0
   46.0730    5.7030   43.0650 N   0  0  0  0  0  0  0  0  0  0  0  0
   47.0160    5.1960   44.0000 C   0  0  0  0  0  0  0  0  0  0  0  0
   47.7200    3.9470   43.5540 C   0  0  0  0  0  0  0  0  0  0  0  0
   47.2410    3.4730   42.3380 O   0  0  0  0  0  0  0  0  0  0  0  0
   47.2170    4.4660   41.3680 C   0  0  0  0  0  0  0  0  0  0  0  0
   46.0410    5.3620   41.6580 C   0  0  0  0  0  0  0  0  0  0  0  0
   35.6660   10.2580   45.8190 H   0  0  0  0  0  0  0  0  0  0  0  0
   37.7340    9.1520   45.0250 H   0  0  0  0  0  0  0  0  0  0  0  0
   39.5450   12.9930   44.5110 H   0  0  0  0  0  0  0  0  0  0  0  0
   37.4750   14.0670   45.2880 H   0  0  0  0  0  0  0  0  0  0  0  0
   39.1130    9.3020   43.7960 H   0  0  0  0  0  0  0  0  0  0  0  0
   41.5880    8.8830   45.9620 H   0  0  0  0  0  0  0  0  0  0  0  0
   42.8580   10.6590   46.5040 H   0  0  0  0  0  0  0  0  0  0  0  0
   41.7590   11.3970   45.2640 H   0  0  0  0  0  0  0  0  0  0  0  0
   45.6600   10.4960   43.7940 H   0  0  0  0  0  0  0  0  0  0  0  0
   40.7810    7.0350   44.8010 H   0  0  0  0  0  0  0  0  0  0  0  0
   41.6280    5.5540   45.3180 H   0  0  0  0  0  0  0  0  0  0  0  0
   47.7900    6.0060   44.1360 H   0  0  0  0  0  0  0  0  0  0  0  0
   46.5130    5.0950   44.9970 H   0  0  0  0  0  0  0  0  0  0  0  0
   48.8250    4.0990   43.4730 H   0  0  0  0  0  0  0  0  0  0  0  0
   47.5580    3.1580   44.3070 H   0  0  0  0  0  0  0  0  0  0  0  0
   47.0780    3.9250   40.3870 H   0  0  0  0  0  0  0  0  0  0  0  0
   48.1750    5.0190   41.3420 H   0  0  0  0  0  0  0  0  0  0  0  0
   46.0420    6.2750   41.0210 H   0  0  0  0  0  0  0  0  0  0  0  0
   45.1080    4.7990   41.3890 H   0  0  0  0  0  0  0  0  0  0  0  0
  2  1  1  0  0  0  0
  3  2  1  0  0  0  0
  3 29  1  0  0  0  0
  4  3  2  0  0  0  0
  5  6  2  0  0  0  0
  5  4  1  0  0  0  0
  6  7  1  0  0  0  0
  7 32  1  0  0  0  0
  7  2  2  0  0  0  0
  8  5  1  0  0  0  0
  9  8  1  0  0  0  0
  9 11  1  0  0  0  0
 10  9  2  0  0  0  0
 11 12  1  0  0  0  0
 11 34  1  1  0  0  0
 12 35  1  0  0  0  0
 13 12  1  0  0  0  0
 14 13  2  0  0  0  0
 15 13  1  0  0  0  0
 16 15  1  0  0  0  0
 16 21  2  0  0  0  0
 17 16  1  0  0  0  0
 18 17  2  0  0  0  0
 18 19  1  0  0  0  0
 19 20  2  0  0  0  0
 20 21  1  0  0  0  0
 20 22  1  0  0  0  0
 21 11  1  0  0  0  0
 22 39  1  0  0  0  0
 23 18  1  0  0  0  0
 23 24  1  0  0  0  0
 24 40  1  0  0  0  0
 24 41  1  0  0  0  0
 25 24  1  0  0  0  0
 25 43  1  0  0  0  0
 26 25  1  0  0  0  0
 27 28  1  0  0  0  0
 27 26  1  0  0  0  0
 28 23  1  0  0  0  0
 30  4  1  0  0  0  0
 31  6  1  0  0  0  0
 33  8  1  0  0  0  0
 36 12  1  0  0  0  0
 37 15  1  0  0  0  0
 38 22  1  0  0  0  0
 42 25  1  0  0  0  0
 44 27  1  0  0  0  0
 45 27  1  0  0  0  0
 46 28  1  0  0  0  0
 47 28  1  0  0  0  0
M  END
>  <Pose>
1

>  <Score>
-8.06

$$$$
