
 OpenBabel03172210433D

 52 55  0  0  1  0  0  0  0  0999 V2000
   34.8170   15.6460   46.7300 B   0  0  0  0  0  0  0  0  0  0  0  0
   36.3150   14.6800   46.0930 C   0  0  0  0  0  0  0  0  0  0  0  0
   36.3010   14.1560   44.8120 C   0  0  0  0  0  0  0  0  0  0  0  0
   37.3320   13.4540   44.2830 C   0  0  0  0  0  0  0  0  0  0  0  0
   38.4890   13.2530   45.1040 C   0  0  0  0  0  0  0  0  0  0  0  0
   38.4710   13.7870   46.3700 C   0  0  0  0  0  0  0  0  0  0  0  0
   37.4110   14.4980   46.8870 C   0  0  0  0  0  0  0  0  0  0  0  0
   39.5170   12.5960   44.4750 N   0  0  0  0  0  0  0  0  0  0  0  0
   40.5240   11.9500   43.8570 C   0  0  0  0  0  0  0  0  0  0  0  0
   40.7210   11.8050   42.5740 O   0  0  0  0  0  0  0  0  0  0  0  0
   41.6200   11.2800   44.6080 C   0  0  2  0  0  0  0  0  0  0  0  0
   42.6040   12.2370   45.2540 C   0  0  0  0  0  0  0  0  0  0  0  0
   43.4030   11.4650   46.2530 C   0  0  0  0  0  0  0  0  0  0  0  0
   43.5550   11.8820   47.3870 O   0  0  0  0  0  0  0  0  0  0  0  0
   43.9580   10.2560   45.8100 N   0  0  0  0  0  0  0  0  0  0  0  0
   43.4230    9.5820   44.6880 C   0  0  0  0  0  0  0  0  0  0  0  0
   44.0060    8.4720   44.1920 N   0  0  0  0  0  0  0  0  0  0  0  0
   43.6250    7.8270   43.0890 C   0  0  0  0  0  0  0  0  0  0  0  0
   42.5590    8.3700   42.4450 N   0  0  0  0  0  0  0  0  0  0  0  0
   41.9210    9.4840   42.8880 C   0  0  0  0  0  0  0  0  0  0  0  0
   42.3080   10.1380   44.0170 C   0  0  0  0  0  0  0  0  0  0  0  0
   40.8380    9.9760   42.1650 O   0  0  0  0  0  0  0  0  0  0  0  0
   44.2230    6.6350   42.6170 N   0  0  0  0  0  0  0  0  0  0  0  0
   45.1130    6.5070   41.4930 C   0  0  0  0  0  0  0  0  0  0  0  0
   46.1900    5.4860   41.8490 C   0  0  0  0  0  0  0  0  0  0  0  0
   46.4730    5.4510   43.3220 C   0  0  2  0  0  0  0  0  0  0  0  0
   45.2580    5.0960   44.1050 C   0  0  0  0  0  0  0  0  0  0  0  0
   43.9530    5.3790   43.3270 C   0  0  0  0  0  0  0  0  0  0  0  0
   47.1220    6.6970   43.7930 C   0  0  0  0  0  0  0  0  0  0  0  0
   47.4760    7.5280   42.9310 O   0  0  0  0  0  0  0  0  0  0  0  0
   47.3660    6.9930   45.1520 N   0  0  0  0  0  0  0  0  0  0  0  0
   35.4040   14.3120   44.1820 H   0  0  0  0  0  0  0  0  0  0  0  0
   37.3110   13.0410   43.2740 H   0  0  0  0  0  0  0  0  0  0  0  0
   39.3430   13.6650   47.0150 H   0  0  0  0  0  0  0  0  0  0  0  0
   37.4210   14.9100   47.8900 H   0  0  0  0  0  0  0  0  0  0  0  0
   38.6670   12.2240   43.4980 H   0  0  0  0  0  0  0  0  0  0  0  0
   41.0380   10.9040   45.5530 H   0  0  0  0  0  0  0  0  0  0  0  0
   42.0960   13.0490   45.8090 H   0  0  0  0  0  0  0  0  0  0  0  0
   43.2830   12.6830   44.5230 H   0  0  0  0  0  0  0  0  0  0  0  0
   44.7870    9.8000   46.2770 H   0  0  0  0  0  0  0  0  0  0  0  0
   40.6100    9.6430   41.2300 H   0  0  0  0  0  0  0  0  0  0  0  0
   45.6160    7.4610   41.2580 H   0  0  0  0  0  0  0  0  0  0  0  0
   44.6460    6.1600   40.5560 H   0  0  0  0  0  0  0  0  0  0  0  0
   45.9410    4.5040   41.4170 H   0  0  0  0  0  0  0  0  0  0  0  0
   47.1260    5.7990   41.3260 H   0  0  0  0  0  0  0  0  0  0  0  0
   47.2220    4.6300   43.4970 H   0  0  0  0  0  0  0  0  0  0  0  0
   45.2100    5.7140   45.0470 H   0  0  0  0  0  0  0  0  0  0  0  0
   45.2280    4.0450   44.4410 H   0  0  0  0  0  0  0  0  0  0  0  0
   43.7710    4.5550   42.6380 H   0  0  0  0  0  0  0  0  0  0  0  0
   43.1730    5.5200   44.0980 H   0  0  0  0  0  0  0  0  0  0  0  0
   47.5290    7.9570   45.4950 H   0  0  0  0  0  0  0  0  0  0  0  0
   47.3810    6.2100   45.8380 H   0  0  0  0  0  0  0  0  0  0  0  0
  2  1  1  0  0  0  0
  2  7  1  0  0  0  0
  3  2  2  0  0  0  0
  4  3  1  0  0  0  0
  4  5  2  0  0  0  0
  5  6  1  0  0  0  0
  6  7  2  0  0  0  0
  6 34  1  0  0  0  0
  7 35  1  0  0  0  0
  8  5  1  0  0  0  0
  9  8  1  0  0  0  0
  9 11  1  0  0  0  0
 10  9  2  0  0  0  0
 11 12  1  0  0  0  0
 11 37  1  1  0  0  0
 12 38  1  0  0  0  0
 12 13  1  0  0  0  0
 13 14  2  0  0  0  0
 15 13  1  0  0  0  0
 15 40  1  0  0  0  0
 16 15  1  0  0  0  0
 17 16  1  0  0  0  0
 18 17  2  0  0  0  0
 19 20  2  0  0  0  0
 19 18  1  0  0  0  0
 20 21  1  0  0  0  0
 21 11  1  0  0  0  0
 21 16  2  0  0  0  0
 22 20  1  0  0  0  0
 23 18  1  0  0  0  0
 23 28  1  0  0  0  0
 24 25  1  0  0  0  0
 24 23  1  0  0  0  0
 25 26  1  0  0  0  0
 26 46  1  1  0  0  0
 26 29  1  0  0  0  0
 26 27  1  0  0  0  0
 27 48  1  0  0  0  0
 27 47  1  0  0  0  0
 28 50  1  0  0  0  0
 28 27  1  0  0  0  0
 29 31  1  0  0  0  0
 30 29  2  0  0  0  0
 31 51  1  0  0  0  0
 31 52  1  0  0  0  0
 32  3  1  0  0  0  0
 33  4  1  0  0  0  0
 36  8  1  0  0  0  0
 39 12  1  0  0  0  0
 41 22  1  0  0  0  0
 42 24  1  0  0  0  0
 43 24  1  0  0  0  0
 44 25  1  0  0  0  0
 45 25  1  0  0  0  0
 49 28  1  0  0  0  0
M  END
>  <Pose>
1

>  <Score>
-6.36

$$$$
