
 OpenBabel03172210433D

 47 50  0  0  1  0  0  0  0  0999 V2000
   52.9660    1.9660   48.1840 B   0  0  0  0  0  0  0  0  0  0  0  0
   51.7810    2.3480   46.7300 C   0  0  0  0  0  0  0  0  0  0  0  0
   52.1780    2.1780   45.4200 C   0  0  0  0  0  0  0  0  0  0  0  0
   51.3330    2.4500   44.3540 C   0  0  0  0  0  0  0  0  0  0  0  0
   50.0510    2.9060   44.5750 C   0  0  0  0  0  0  0  0  0  0  0  0
   49.6600    3.0740   45.8880 C   0  0  0  0  0  0  0  0  0  0  0  0
   50.4980    2.8040   46.9500 C   0  0  0  0  0  0  0  0  0  0  0  0
   49.1860    3.1850   43.4710 N   0  0  0  0  0  0  0  0  0  0  0  0
   49.0400    2.4950   42.3530 N   0  0  0  0  0  0  0  0  0  0  0  0
   48.1450    3.0530   41.5540 N   0  0  0  0  0  0  0  0  0  0  0  0
   47.6620    4.1720   42.1580 C   0  0  0  0  0  0  0  0  0  0  0  0
   48.3390    4.2240   43.3630 C   0  0  0  0  0  0  0  0  0  0  0  0
   48.0520    5.2470   44.1770 N   0  0  0  0  0  0  0  0  0  0  0  0
   47.1450    6.1740   43.8250 C   0  0  0  0  0  0  0  0  0  0  0  0
   46.4790    6.1300   42.6490 N   0  0  0  0  0  0  0  0  0  0  0  0
   46.7350    5.1230   41.8050 C   0  0  0  0  0  0  0  0  0  0  0  0
   46.1210    5.0790   40.7160 O   0  0  0  0  0  0  0  0  0  0  0  0
   45.5170    7.1770   42.3590 C   0  0  0  0  0  0  0  0  0  0  0  0
   44.4160    7.1700   43.3890 C   0  0  0  0  0  0  0  0  0  0  0  0
   44.1410    6.1190   44.0270 O   0  0  0  0  0  0  0  0  0  0  0  0
   43.6690    8.3410   43.6600 N   0  0  0  0  0  0  0  0  0  0  0  0
   42.2260    8.3280   43.6590 C   0  0  0  0  0  0  0  0  0  0  0  0
   41.7740    9.5580   42.8920 C   0  0  2  0  0  0  0  0  0  0  0  0
   42.2920   10.7300   43.3800 O   0  0  0  0  0  0  0  0  0  0  0  0
   43.2700   10.5790   44.3310 C   0  0  1  0  0  0  0  0  0  0  0  0
   44.3460    9.5850   43.9430 C   0  0  0  0  0  0  0  0  0  0  0  0
   43.9050   11.8730   44.7480 C   0  0  0  0  0  0  0  0  0  0  0  0
   40.2530    9.6320   43.0660 C   0  0  0  0  0  0  0  0  0  0  0  0
   53.1760    1.8230   45.2400 H   0  0  0  0  0  0  0  0  0  0  0  0
   51.6530    2.3140   43.3330 H   0  0  0  0  0  0  0  0  0  0  0  0
   48.6640    3.4300   46.0920 H   0  0  0  0  0  0  0  0  0  0  0  0
   50.1870    2.9380   47.9880 H   0  0  0  0  0  0  0  0  0  0  0  0
   46.9310    7.0010   44.5150 H   0  0  0  0  0  0  0  0  0  0  0  0
   45.9850    8.1790   42.3870 H   0  0  0  0  0  0  0  0  0  0  0  0
   45.0130    6.9870   41.3890 H   0  0  0  0  0  0  0  0  0  0  0  0
   41.8070    8.3230   44.6870 H   0  0  0  0  0  0  0  0  0  0  0  0
   41.9030    7.4140   43.1350 H   0  0  0  0  0  0  0  0  0  0  0  0
   41.9930    9.3790   41.8140 H   0  0  0  0  0  0  0  0  0  0  0  0
   42.7800   10.1450   45.2510 H   0  0  0  0  0  0  0  0  0  0  0  0
   45.0410    9.5040   44.7980 H   0  0  0  0  0  0  0  0  0  0  0  0
   44.8940    9.8860   43.0350 H   0  0  0  0  0  0  0  0  0  0  0  0
   44.1790   11.8270   45.8230 H   0  0  0  0  0  0  0  0  0  0  0  0
   44.8500   12.0830   44.1890 H   0  0  0  0  0  0  0  0  0  0  0  0
   43.1860   12.7250   44.6470 H   0  0  0  0  0  0  0  0  0  0  0  0
   39.8920    8.5880   43.0780 H   0  0  0  0  0  0  0  0  0  0  0  0
   39.9740   10.1070   44.0110 H   0  0  0  0  0  0  0  0  0  0  0  0
   39.7910   10.1340   42.1760 H   0  0  0  0  0  0  0  0  0  0  0  0
  2  7  1  0  0  0  0
  2  1  1  0  0  0  0
  3  2  2  0  0  0  0
  4  5  2  0  0  0  0
  4  3  1  0  0  0  0
  5  6  1  0  0  0  0
  6 31  1  0  0  0  0
  6  7  2  0  0  0  0
  7 32  1  0  0  0  0
  8  5  1  0  0  0  0
  9  8  1  0  0  0  0
 10 11  1  0  0  0  0
 10  9  2  0  0  0  0
 11 12  2  0  0  0  0
 12  8  1  0  0  0  0
 12 13  1  0  0  0  0
 14 13  2  0  0  0  0
 14 33  1  0  0  0  0
 15 14  1  0  0  0  0
 16 11  1  0  0  0  0
 16 15  1  0  0  0  0
 17 16  2  0  0  0  0
 18 34  1  0  0  0  0
 18 15  1  0  0  0  0
 18 19  1  0  0  0  0
 19 21  1  0  0  0  0
 19 20  2  0  0  0  0
 21 26  1  0  0  0  0
 22 21  1  0  0  0  0
 22 36  1  0  0  0  0
 23 38  1  6  0  0  0
 23 28  1  0  0  0  0
 23 24  1  0  0  0  0
 23 22  1  0  0  0  0
 24 25  1  0  0  0  0
 25 27  1  0  0  0  0
 25 39  1  1  0  0  0
 26 25  1  0  0  0  0
 26 40  1  0  0  0  0
 27 42  1  0  0  0  0
 28 45  1  0  0  0  0
 28 46  1  0  0  0  0
 29  3  1  0  0  0  0
 30  4  1  0  0  0  0
 35 18  1  0  0  0  0
 37 22  1  0  0  0  0
 41 26  1  0  0  0  0
 43 27  1  0  0  0  0
 44 27  1  0  0  0  0
 47 28  1  0  0  0  0
M  END
>  <Pose>
1

>  <Score>
-6.79

$$$$
