
 OpenBabel03172210433D

 47 50  0  0  1  0  0  0  0  0999 V2000
   51.0040    0.3530   43.3280 B   0  0  0  0  0  0  0  0  0  0  0  0
   49.8740    1.8990   43.3380 C   0  0  0  0  0  0  0  0  0  0  0  0
   48.9240    2.1010   42.3750 C   0  0  0  0  0  0  0  0  0  0  0  0
   48.1030    3.2330   42.3880 C   0  0  0  0  0  0  0  0  0  0  0  0
   48.2130    4.1820   43.3630 C   0  0  0  0  0  0  0  0  0  0  0  0
   49.1600    3.9850   44.3260 C   0  0  0  0  0  0  0  0  0  0  0  0
   49.9900    2.8540   44.3220 C   0  0  0  0  0  0  0  0  0  0  0  0
   47.3750    5.3390   43.3810 N   0  0  0  0  0  0  0  0  0  0  0  0
   46.3090    5.6890   42.5040 C   0  0  0  0  0  0  0  0  0  0  0  0
   45.9970    5.0610   41.4700 O   0  0  0  0  0  0  0  0  0  0  0  0
   45.6120    6.8980   42.9680 C   0  0  2  0  0  0  0  0  0  0  0  0
   46.6790    7.5740   43.8200 C   0  0  0  0  0  0  0  0  0  0  0  0
   47.4600    6.4080   44.3440 C   0  0  0  0  0  0  0  0  0  0  0  0
   48.0450    6.4670   45.4410 O   0  0  0  0  0  0  0  0  0  0  0  0
   44.4210    6.6590   43.7510 N   0  0  0  0  0  4  0  0  0  0  0  0
   44.4860    7.2750   45.0540 C   0  0  0  0  0  0  0  0  0  0  0  0
   43.7820    8.6100   45.1500 C   0  0  0  0  0  0  0  0  0  0  0  0
   42.5310    8.5970   44.4350 N   0  0  0  0  0  0  0  0  0  0  0  0
   42.1060    7.2870   44.0000 C   0  0  0  0  0  0  0  0  0  0  0  0
   43.2130    6.8380   43.0280 C   0  0  0  0  0  0  0  0  0  0  0  0
   41.7800    9.7430   44.1530 C   0  0  0  0  0  0  0  0  0  0  0  0
   40.8230   10.2970   44.9790 C   0  0  0  0  0  0  0  0  0  0  0  0
   40.0900   11.4220   44.6390 C   0  0  0  0  0  0  0  0  0  0  0  0
   40.2970   12.0380   43.4350 C   0  0  0  0  0  0  0  0  0  0  0  0
   41.2420   11.5260   42.5690 C   0  0  0  0  0  0  0  0  0  0  0  0
   41.9620   10.4020   42.9310 C   0  0  0  0  0  0  0  0  0  0  0  0
   39.5930   13.1740   43.0320 O   0  0  0  0  0  0  0  0  0  0  0  0
   48.8210    1.3720   41.6020 H   0  0  0  0  0  0  0  0  0  0  0  0
   47.3960    3.3020   41.6000 H   0  0  0  0  0  0  0  0  0  0  0  0
   49.3370    4.6540   45.1310 H   0  0  0  0  0  0  0  0  0  0  0  0
   50.7350    2.7040   45.0880 H   0  0  0  0  0  0  0  0  0  0  0  0
   45.4090    7.6200   42.1420 H   0  0  0  0  0  0  0  0  0  0  0  0
   47.3060    8.2510   43.2180 H   0  0  0  0  0  0  0  0  0  0  0  0
   46.1780    8.1170   44.6410 H   0  0  0  0  0  0  0  0  0  0  0  0
   44.4730    5.6070   43.9700 H   0  0  0  0  0  0  0  0  0  0  0  0
   45.5560    7.4440   45.3020 H   0  0  0  0  0  0  0  0  0  0  0  0
   44.0790    6.6130   45.8520 H   0  0  0  0  0  0  0  0  0  0  0  0
   43.5300    8.7520   46.2420 H   0  0  0  0  0  0  0  0  0  0  0  0
   44.4920    9.3780   44.8790 H   0  0  0  0  0  0  0  0  0  0  0  0
   42.1360    6.6000   44.8700 H   0  0  0  0  0  0  0  0  0  0  0  0
   41.1410    7.2230   43.5270 H   0  0  0  0  0  0  0  0  0  0  0  0
   43.3700    7.6340   42.2590 H   0  0  0  0  0  0  0  0  0  0  0  0
   42.9270    5.9080   42.5200 H   0  0  0  0  0  0  0  0  0  0  0  0
   40.6510    9.8130   45.9560 H   0  0  0  0  0  0  0  0  0  0  0  0
   39.3710   11.7910   45.3260 H   0  0  0  0  0  0  0  0  0  0  0  0
   41.4290   11.9900   41.6060 H   0  0  0  0  0  0  0  0  0  0  0  0
   42.7130    9.9770   42.2650 H   0  0  0  0  0  0  0  0  0  0  0  0
  1  2  1  0  0  0  0
  2  7  1  0  0  0  0
  3  4  1  0  0  0  0
  3  2  2  0  0  0  0
  4  5  2  0  0  0  0
  5  8  1  0  0  0  0
  5  6  1  0  0  0  0
  6 30  1  0  0  0  0
  7  6  2  0  0  0  0
  7 31  1  0  0  0  0
  8 13  1  0  0  0  0
  9 11  1  0  0  0  0
  9  8  1  0  0  0  0
 10  9  2  0  0  0  0
 11 32  1  6  0  0  0
 11 15  1  0  0  0  0
 11 12  1  0  0  0  0
 12 13  1  0  0  0  0
 12 34  1  0  0  0  0
 13 14  2  0  0  0  0
 15 35  1  0  0  0  0
 15 16  1  0  0  0  0
 16 17  1  0  0  0  0
 16 36  1  0  0  0  0
 16 37  1  0  0  0  0
 17 38  1  0  0  0  0
 18 17  1  0  0  0  0
 19 18  1  0  0  0  0
 19 40  1  0  0  0  0
 20 15  1  0  0  0  0
 20 19  1  0  0  0  0
 21 18  1  0  0  0  0
 21 22  1  0  0  0  0
 22 44  1  0  0  0  0
 23 22  2  0  0  0  0
 23 45  1  0  0  0  0
 24 23  1  0  0  0  0
 25 26  1  0  0  0  0
 25 24  2  0  0  0  0
 26 21  2  0  0  0  0
 27 24  1  0  0  0  0
 28  3  1  0  0  0  0
 29  4  1  0  0  0  0
 33 12  1  0  0  0  0
 39 17  1  0  0  0  0
 41 19  1  0  0  0  0
 42 20  1  0  0  0  0
 43 20  1  0  0  0  0
 46 25  1  0  0  0  0
 47 26  1  0  0  0  0
M  END
>  <Pose>
1

>  <Score>
-5.83

$$$$
