
 OpenBabel03172210433D

 56 59  0  0  1  0  0  0  0  0999 V2000
   51.3970    4.3000   47.5340 B   0  0  0  0  0  0  0  0  0  0  0  0
   49.9830    4.9260   46.4090 C   0  0  0  0  0  0  0  0  0  0  0  0
   49.3670    6.1380   46.6150 C   0  0  0  0  0  0  0  0  0  0  0  0
   48.3310    6.5890   45.7870 C   0  0  0  0  0  0  0  0  0  0  0  0
   47.8950    5.8300   44.7340 C   0  0  0  0  0  0  0  0  0  0  0  0
   48.5190    4.6170   44.5370 C   0  0  0  0  0  0  0  0  0  0  0  0
   49.5450    4.1610   45.3500 C   0  0  0  0  0  0  0  0  0  0  0  0
   46.8360    6.3060   43.9000 N   0  0  0  0  0  0  0  0  0  0  0  0
   45.5610    5.6880   43.6950 C   0  0  0  0  0  0  0  0  0  0  0  0
   45.2730    4.4710   43.8050 O   0  0  0  0  0  0  0  0  0  0  0  0
   44.5980    6.7540   43.3200 C   0  0  2  0  0  0  0  0  0  0  0  0
   45.4170    7.9840   42.9970 C   0  0  0  0  0  0  0  0  0  0  0  0
   46.8120    7.4800   43.0980 C   0  0  0  0  0  0  0  0  0  0  0  0
   47.8470    8.0070   42.5550 O   0  0  0  0  0  0  0  0  0  0  0  0
   43.6660    6.9380   44.3580 N   0  0  2  0  0  0  0  0  0  0  0  0
   42.3700    7.3910   44.0510 C   0  0  0  0  0  0  0  0  0  0  0  0
   41.6140    7.6360   45.3640 C   0  0  0  0  0  0  0  0  0  0  0  0
   42.2080    8.7980   46.1270 C   0  0  1  0  0  0  0  0  0  0  0  0
   43.6800    8.7410   46.0500 C   0  0  0  0  0  0  0  0  0  0  0  0
   44.1720    7.3890   45.5990 C   0  0  0  0  0  0  0  0  0  0  0  0
   41.5940    9.9810   45.6840 N   0  0  0  0  0  0  0  0  0  0  0  0
   40.2020   10.1040   45.7920 C   0  0  0  0  0  0  0  0  0  0  0  0
   39.6740   10.4340   44.3850 C   0  0  0  0  0  0  0  0  0  0  0  0
   40.2320   11.8020   44.0490 C   0  0  0  0  0  0  0  0  0  0  0  0
   41.3730   12.2100   44.9210 C   0  0  0  0  0  0  0  0  0  0  0  0
   42.3360   11.0520   45.2230 C   0  0  0  0  0  0  0  0  0  0  0  0
   41.8010    8.5820   47.5610 C   0  0  0  0  0  0  0  0  0  0  0  0
   42.3030    7.6230   48.2220 O   0  0  0  0  0  0  0  0  0  0  0  0
   40.8680    9.4110   48.2290 N   0  0  0  0  0  0  0  0  0  0  0  0
   49.7140    6.7250   47.4410 H   0  0  0  0  0  0  0  0  0  0  0  0
   47.8940    7.5550   46.0140 H   0  0  0  0  0  0  0  0  0  0  0  0
   48.1970    3.9970   43.7200 H   0  0  0  0  0  0  0  0  0  0  0  0
   50.0240    3.1960   45.1750 H   0  0  0  0  0  0  0  0  0  0  0  0
   44.1340    6.4190   42.3530 H   0  0  0  0  0  0  0  0  0  0  0  0
   45.3180    8.7860   43.7590 H   0  0  0  0  0  0  0  0  0  0  0  0
   45.2630    8.3290   41.9680 H   0  0  0  0  0  0  0  0  0  0  0  0
   42.4260    8.3660   43.5050 H   0  0  0  0  0  0  0  0  0  0  0  0
   41.7270    6.6600   43.4960 H   0  0  0  0  0  0  0  0  0  0  0  0
   41.8330    6.7230   45.9800 H   0  0  0  0  0  0  0  0  0  0  0  0
   40.5430    7.7190   45.1880 H   0  0  0  0  0  0  0  0  0  0  0  0
   44.0950    8.8600   47.0980 H   0  0  0  0  0  0  0  0  0  0  0  0
   44.1560    9.5750   45.5010 H   0  0  0  0  0  0  0  0  0  0  0  0
   45.2990    7.3400   45.6610 H   0  0  0  0  0  0  0  0  0  0  0  0
   43.8600    6.6150   46.3680 H   0  0  0  0  0  0  0  0  0  0  0  0
   39.7420    9.1720   46.1270 H   0  0  0  0  0  0  0  0  0  0  0  0
   39.9570   10.9720   46.4400 H   0  0  0  0  0  0  0  0  0  0  0  0
   40.0860    9.7040   43.6420 H   0  0  0  0  0  0  0  0  0  0  0  0
   38.5730   10.4070   44.3940 H   0  0  0  0  0  0  0  0  0  0  0  0
   40.4490   11.9050   42.9660 H   0  0  0  0  0  0  0  0  0  0  0  0
   39.3850   12.5210   44.2360 H   0  0  0  0  0  0  0  0  0  0  0  0
   41.9790   12.9720   44.3590 H   0  0  0  0  0  0  0  0  0  0  0  0
   41.0550   12.6890   45.8810 H   0  0  0  0  0  0  0  0  0  0  0  0
   43.1140   11.4710   45.8730 H   0  0  0  0  0  0  0  0  0  0  0  0
   42.8350   10.8090   44.2570 H   0  0  0  0  0  0  0  0  0  0  0  0
   41.2010   10.2060   48.7870 H   0  0  0  0  0  0  0  0  0  0  0  0
   39.8480    9.2280   48.1620 H   0  0  0  0  0  0  0  0  0  0  0  0
  2  3  1  0  0  0  0
  2  1  1  0  0  0  0
  3 30  1  0  0  0  0
  4 31  1  0  0  0  0
  4  3  2  0  0  0  0
  5  4  1  0  0  0  0
  6  5  2  0  0  0  0
  6  7  1  0  0  0  0
  7  2  2  0  0  0  0
  8  5  1  0  0  0  0
  9 10  2  0  0  0  0
  9  8  1  0  0  0  0
 11 34  1  6  0  0  0
 11  9  1  0  0  0  0
 11 15  1  0  0  0  0
 12 13  1  0  0  0  0
 12 11  1  0  0  0  0
 12 35  1  0  0  0  0
 13  8  1  0  0  0  0
 14 13  2  0  0  0  0
 15 16  1  6  0  0  0
 15 20  1  0  0  0  0
 16 17  1  0  0  0  0
 17 39  1  0  0  0  0
 17 18  1  0  0  0  0
 18 27  1  1  0  0  0
 19 18  1  0  0  0  0
 19 41  1  0  0  0  0
 20 43  1  0  0  0  0
 20 19  1  0  0  0  0
 20 44  1  0  0  0  0
 21 22  1  0  0  0  0
 21 18  1  0  0  0  0
 22 45  1  0  0  0  0
 22 46  1  0  0  0  0
 23 48  1  0  0  0  0
 23 22  1  0  0  0  0
 24 50  1  0  0  0  0
 24 23  1  0  0  0  0
 24 25  1  0  0  0  0
 25 26  1  0  0  0  0
 25 52  1  0  0  0  0
 26 21  1  0  0  0  0
 26 53  1  0  0  0  0
 27 28  2  0  0  0  0
 27 29  1  0  0  0  0
 29 55  1  0  0  0  0
 32  6  1  0  0  0  0
 33  7  1  0  0  0  0
 36 12  1  0  0  0  0
 37 16  1  0  0  0  0
 38 16  1  0  0  0  0
 40 17  1  0  0  0  0
 42 19  1  0  0  0  0
 47 23  1  0  0  0  0
 49 24  1  0  0  0  0
 51 25  1  0  0  0  0
 54 26  1  0  0  0  0
 56 29  1  0  0  0  0
M  END
>  <Pose>
1

>  <Score>
-4.89

$$$$
