
 OpenBabel03172210433D

 50 53  0  0  0  0  0  0  0  0999 V2000
   49.7990    1.7030   42.6410 B   0  0  0  0  0  0  0  0  0  0  0  0
   48.6280    3.1920   42.8070 C   0  0  0  0  0  0  0  0  0  0  0  0
   47.7660    3.5890   41.8060 C   0  0  0  0  0  0  0  0  0  0  0  0
   46.9410    4.6600   41.9550 C   0  0  0  0  0  0  0  0  0  0  0  0
   46.9310    5.4000   43.1270 C   0  0  0  0  0  0  0  0  0  0  0  0
   47.7830    5.0160   44.1300 C   0  0  0  0  0  0  0  0  0  0  0  0
   48.6090    3.9370   43.9650 C   0  0  0  0  0  0  0  0  0  0  0  0
   46.0520    6.5160   43.2470 N   0  0  0  0  0  0  0  0  0  0  0  0
   44.7890    6.4290   43.7360 C   0  0  0  0  0  0  0  0  0  0  0  0
   44.2170    5.3730   44.1490 O   0  0  0  0  0  0  0  0  0  0  0  0
   44.1990    7.6810   43.7210 C   0  0  0  0  0  0  0  0  0  0  0  0
   45.1180    8.5030   43.2220 C   0  0  0  0  0  0  0  0  0  0  0  0
   44.5640    9.7390   43.1960 N   0  0  0  0  0  0  0  0  0  0  0  0
   43.3300    9.6320   43.6800 N   0  0  0  0  0  0  0  0  0  0  0  0
   43.0700    8.3820   44.0110 N   0  0  0  0  0  0  0  0  0  0  0  0
   41.8540    7.8100   44.5760 C   0  0  0  0  0  0  0  0  0  0  0  0
   41.9590    7.8180   46.0820 C   0  0  0  0  0  0  0  0  0  0  0  0
   42.3250    6.7090   46.5450 O   0  0  0  0  0  0  0  0  0  0  0  0
   41.6600    8.9780   46.7940 N   0  0  0  0  0  0  0  0  0  0  0  0
   40.9770   10.1250   46.3180 C   0  0  0  0  0  0  0  0  0  0  0  0
   41.3640   11.4250   46.5380 C   0  0  0  0  0  0  0  0  0  0  0  0
   40.6320   12.5090   46.0320 C   0  0  0  0  0  0  0  0  0  0  0  0
   39.4910   12.3170   45.2900 C   0  0  0  0  0  0  0  0  0  0  0  0
   39.0960   11.0210   45.0640 C   0  0  0  0  0  0  0  0  0  0  0  0
   39.8190    9.9550   45.5630 C   0  0  0  0  0  0  0  0  0  0  0  0
   38.7620   13.4750   44.7840 C   0  0  0  0  0  0  0  0  0  0  0  0
   39.3010   14.1680   43.8850 O   0  0  0  0  0  0  0  0  0  0  0  0
   37.5260   13.8610   45.2210 O   0  0  0  0  0  0  0  0  0  0  0  0
   36.2960   13.4440   44.7020 C   0  0  0  0  0  0  0  0  0  0  0  0
   36.1590   14.1040   43.3230 C   0  0  0  0  0  0  0  0  0  0  0  0
   46.2620    7.8000   42.9260 C   0  0  0  0  0  0  0  0  0  0  0  0
   47.3230    8.2530   42.4430 O   0  0  0  0  0  0  0  0  0  0  0  0
   47.7740    3.0100   40.8900 H   0  0  0  0  0  0  0  0  0  0  0  0
   46.2670    4.9440   41.1310 H   0  0  0  0  0  0  0  0  0  0  0  0
   47.8010    5.5720   45.0580 H   0  0  0  0  0  0  0  0  0  0  0  0
   49.2950    3.6180   44.7600 H   0  0  0  0  0  0  0  0  0  0  0  0
   45.0320   10.6050   42.8580 H   0  0  0  0  0  0  0  0  0  0  0  0
   42.6700   10.4240   43.7770 H   0  0  0  0  0  0  0  0  0  0  0  0
   40.9510    8.3480   44.2340 H   0  0  0  0  0  0  0  0  0  0  0  0
   41.7850    6.7720   44.1870 H   0  0  0  0  0  0  0  0  0  0  0  0
   41.9890    8.9920   47.8110 H   0  0  0  0  0  0  0  0  0  0  0  0
   42.2480   11.6050   47.1120 H   0  0  0  0  0  0  0  0  0  0  0  0
   40.9720   13.5280   46.2280 H   0  0  0  0  0  0  0  0  0  0  0  0
   38.1900   10.8800   44.4730 H   0  0  0  0  0  0  0  0  0  0  0  0
   39.4720    8.9310   45.3620 H   0  0  0  0  0  0  0  0  0  0  0  0
   36.2250   12.3520   44.5350 H   0  0  0  0  0  0  0  0  0  0  0  0
   35.4210   13.7430   45.3100 H   0  0  0  0  0  0  0  0  0  0  0  0
   36.8890   13.6000   42.6250 H   0  0  0  0  0  0  0  0  0  0  0  0
   36.4500   15.1670   43.3580 H   0  0  0  0  0  0  0  0  0  0  0  0
   35.1440   14.0340   42.9290 H   0  0  0  0  0  0  0  0  0  0  0  0
  1  2  1  0  0  0  0
  2  7  1  0  0  0  0
  3  4  1  0  0  0  0
  3  2  2  0  0  0  0
  4  5  2  0  0  0  0
  5  8  1  0  0  0  0
  5  6  1  0  0  0  0
  6 35  1  0  0  0  0
  7  6  2  0  0  0  0
  7 36  1  0  0  0  0
  8  9  1  0  0  0  0
  9 10  2  0  0  0  0
 11  9  1  0  0  0  0
 11 15  1  0  0  0  0
 12 11  2  0  0  0  0
 13 12  1  0  0  0  0
 13 14  1  0  0  0  0
 14 38  1  0  0  0  0
 14 15  1  0  0  0  0
 15 16  1  0  0  0  0
 16 17  1  0  0  0  0
 17 18  2  0  0  0  0
 17 19  1  0  0  0  0
 19 41  1  0  0  0  0
 20 21  1  0  0  0  0
 20 19  1  0  0  0  0
 21 42  1  0  0  0  0
 22 43  1  0  0  0  0
 22 21  2  0  0  0  0
 23 22  1  0  0  0  0
 24 23  2  0  0  0  0
 24 25  1  0  0  0  0
 25 20  2  0  0  0  0
 26 28  1  0  0  0  0
 26 23  1  0  0  0  0
 27 26  2  0  0  0  0
 29 28  1  0  0  0  0
 29 47  1  0  0  0  0
 30 49  1  0  0  0  0
 30 29  1  0  0  0  0
 31 12  1  0  0  0  0
 31  8  1  0  0  0  0
 32 31  2  0  0  0  0
 33  3  1  0  0  0  0
 34  4  1  0  0  0  0
 37 13  1  0  0  0  0
 39 16  1  0  0  0  0
 40 16  1  0  0  0  0
 44 24  1  0  0  0  0
 45 25  1  0  0  0  0
 46 29  1  0  0  0  0
 48 30  1  0  0  0  0
 50 30  1  0  0  0  0
M  END
>  <Pose>
1

>  <Score>
-7.74

$$$$
