
 OpenBabel03172210433D

 36 39  0  0  0  0  0  0  0  0999 V2000
   52.4290    1.7810   48.0160 B   0  0  0  0  0  0  0  0  0  0  0  0
   51.1940    2.4750   46.7280 C   0  0  0  0  0  0  0  0  0  0  0  0
   49.9490    2.9420   47.0970 C   0  0  0  0  0  0  0  0  0  0  0  0
   49.0610    3.4430   46.1500 C   0  0  0  0  0  0  0  0  0  0  0  0
   49.3960    3.4910   44.8130 C   0  0  0  0  0  0  0  0  0  0  0  0
   50.6440    3.0200   44.4590 C   0  0  0  0  0  0  0  0  0  0  0  0
   51.5330    2.5200   45.3920 C   0  0  0  0  0  0  0  0  0  0  0  0
   48.5050    4.0010   43.8130 N   0  0  0  0  0  0  0  0  0  0  0  0
   47.7120    5.0890   43.9360 C   0  0  0  0  0  0  0  0  0  0  0  0
   47.6020    5.8580   44.9430 O   0  0  0  0  0  0  0  0  0  0  0  0
   46.9820    5.2970   42.7810 C   0  0  0  0  0  0  0  0  0  0  0  0
   47.3490    4.3140   41.9560 C   0  0  0  0  0  0  0  0  0  0  0  0
   46.6350    4.5160   40.8220 N   0  0  0  0  0  0  0  0  0  0  0  0
   45.8760    5.5870   40.9880 N   0  0  0  0  0  0  0  0  0  0  0  0
   46.0700    6.0930   42.1950 N   0  0  0  0  0  0  0  0  0  0  0  0
   45.4350    7.2510   42.7520 C   0  0  0  0  0  0  0  0  0  0  0  0
   44.0730    7.2800   42.9720 C   0  0  0  0  0  0  0  0  0  0  0  0
   43.4300    8.3860   43.5110 C   0  0  0  0  0  0  0  0  0  0  0  0
   44.1550    9.5100   43.8470 C   0  0  0  0  0  0  0  0  0  0  0  0
   45.5150    9.4840   43.6280 C   0  0  0  0  0  0  0  0  0  0  0  0
   46.1550    8.3780   43.0910 C   0  0  0  0  0  0  0  0  0  0  0  0
   43.5230   10.6610   44.4010 N   0  0  0  0  0  0  0  0  0  0  0  0
   42.4990   10.5810   45.1050 O   0  0  0  0  0  0  0  0  0  0  0  0
   44.0500   11.8890   44.1580 O   0  0  0  0  0  0  0  0  0  0  0  0
   48.2820    3.5140   42.5800 C   0  0  0  0  0  0  0  0  0  0  0  0
   48.8600    2.4950   42.1260 O   0  0  0  0  0  0  0  0  0  0  0  0
   49.6950    2.9000   48.1540 H   0  0  0  0  0  0  0  0  0  0  0  0
   48.1000    3.8050   46.4320 H   0  0  0  0  0  0  0  0  0  0  0  0
   50.9240    3.0520   43.4050 H   0  0  0  0  0  0  0  0  0  0  0  0
   52.5200    2.1510   45.0960 H   0  0  0  0  0  0  0  0  0  0  0  0
   46.6940    3.9050   39.9660 H   0  0  0  0  0  0  0  0  0  0  0  0
   45.2050    6.0090   40.2950 H   0  0  0  0  0  0  0  0  0  0  0  0
   43.4890    6.4120   42.7160 H   0  0  0  0  0  0  0  0  0  0  0  0
   42.3460    8.3920   43.6790 H   0  0  0  0  0  0  0  0  0  0  0  0
   46.0670   10.3730   43.8980 H   0  0  0  0  0  0  0  0  0  0  0  0
   47.2210    8.3680   42.9230 H   0  0  0  0  0  0  0  0  0  0  0  0
  2  3  1  0  0  0  0
  2  1  1  0  0  0  0
  3 27  1  0  0  0  0
  4 28  1  0  0  0  0
  4  3  2  0  0  0  0
  5  4  1  0  0  0  0
  6  5  2  0  0  0  0
  6  7  1  0  0  0  0
  7  2  2  0  0  0  0
  8  9  1  0  0  0  0
  8  5  1  0  0  0  0
  9 10  2  0  0  0  0
 11  9  1  0  0  0  0
 12 25  1  0  0  0  0
 12 11  2  0  0  0  0
 13 14  1  0  0  0  0
 13 12  1  0  0  0  0
 14 15  1  0  0  0  0
 15 16  1  0  0  0  0
 15 11  1  0  0  0  0
 16 17  2  0  0  0  0
 16 21  1  0  0  0  0
 17 18  1  0  0  0  0
 18 34  1  0  0  0  0
 18 19  2  0  0  0  0
 19 22  1  0  0  0  0
 20 19  1  0  0  0  0
 20 35  1  0  0  0  0
 21 20  2  0  0  0  0
 22 23  2  0  0  0  0
 24 22  2  0  0  0  0
 25  8  1  0  0  0  0
 26 25  2  0  0  0  0
 29  6  1  0  0  0  0
 30  7  1  0  0  0  0
 31 13  1  0  0  0  0
 32 14  1  0  0  0  0
 33 17  1  0  0  0  0
 36 21  1  0  0  0  0
M  END
>  <Pose>
1

>  <Score>
-6.13

$$$$
