
 OpenBabel03172210433D

 41 44  0  0  1  0  0  0  0  0999 V2000
   40.8480   11.0010   42.9950 B   0  0  0  0  0  0  0  0  0  0  0  0
   42.3110    9.7600   43.1830 C   0  0  0  0  0  0  0  0  0  0  0  0
   43.5640   10.2310   43.4790 C   0  0  0  0  0  0  0  0  0  0  0  0
   44.5830    9.3420   43.6070 C   0  0  0  0  0  0  0  0  0  0  0  0
   44.4380    7.9580   43.4530 C   0  0  0  0  0  0  0  0  0  0  0  0
   43.1780    7.5130   43.1580 C   0  0  0  0  0  0  0  0  0  0  0  0
   42.1260    8.4000   43.0230 C   0  0  0  0  0  0  0  0  0  0  0  0
   45.5540    7.1050   43.6050 N   0  0  0  0  0  0  0  0  0  0  0  0
   46.4390    6.9780   44.7340 C   0  0  0  0  0  0  0  0  0  0  0  0
   46.1620    7.2590   45.9350 O   0  0  0  0  0  0  0  0  0  0  0  0
   47.7240    6.4570   44.2150 C   0  0  1  0  0  0  0  0  0  0  0  0
   48.4250    5.5730   45.1260 N   0  0  0  0  0  0  0  0  0  0  0  0
   48.9670    4.6620   44.1670 N   0  0  0  0  0  0  0  0  0  0  0  0
   47.9740    4.4030   43.1750 C   0  0  0  0  0  0  0  0  0  0  0  0
   47.2010    5.4830   43.1840 C   0  0  0  0  0  0  0  0  0  0  0  0
   46.0360    6.1660   42.6360 C   0  0  0  0  0  0  0  0  0  0  0  0
   45.5970    5.9020   41.4830 O   0  0  0  0  0  0  0  0  0  0  0  0
   47.8300    3.2240   42.3270 C   0  0  0  0  0  0  0  0  0  0  0  0
   47.0390    3.2040   41.3550 O   0  0  0  0  0  0  0  0  0  0  0  0
   48.5560    2.0630   42.5470 O   0  0  0  0  0  0  0  0  0  0  0  0
   49.9770    2.0660   42.5780 C   0  0  0  0  0  0  0  0  0  0  0  0
   50.4480    1.2350   43.7360 C   0  0  0  0  0  0  0  0  0  0  0  0
   50.9310   -0.0560   43.5260 C   0  0  0  0  0  0  0  0  0  0  0  0
   51.3740   -0.8450   44.5530 C   0  0  0  0  0  0  0  0  0  0  0  0
   51.3410   -0.3430   45.8520 C   0  0  0  0  0  0  0  0  0  0  0  0
   50.8620    0.9330   46.0540 C   0  0  0  0  0  0  0  0  0  0  0  0
   50.4140    1.7300   44.9990 C   0  0  0  0  0  0  0  0  0  0  0  0
   43.7140   11.3030   43.6070 H   0  0  0  0  0  0  0  0  0  0  0  0
   45.5720    9.7100   43.8420 H   0  0  0  0  0  0  0  0  0  0  0  0
   42.9850    6.4560   43.0250 H   0  0  0  0  0  0  0  0  0  0  0  0
   41.1280    8.0570   42.7910 H   0  0  0  0  0  0  0  0  0  0  0  0
   48.3700    7.2180   43.7730 H   0  0  0  0  0  0  0  0  0  0  0  0
   47.6630    5.0220   45.6130 H   0  0  0  0  0  0  0  0  0  0  0  0
   49.9210    4.2510   44.1810 H   0  0  0  0  0  0  0  0  0  0  0  0
   50.4250    1.7360   41.6410 H   0  0  0  0  0  0  0  0  0  0  0  0
   50.3090    3.1020   42.7810 H   0  0  0  0  0  0  0  0  0  0  0  0
   50.9620   -0.4500   42.5340 H   0  0  0  0  0  0  0  0  0  0  0  0
   51.7480   -1.8450   44.3990 H   0  0  0  0  0  0  0  0  0  0  0  0
   51.6850   -0.9440   46.6920 H   0  0  0  0  0  0  0  0  0  0  0  0
   50.8130    1.3740   47.0290 H   0  0  0  0  0  0  0  0  0  0  0  0
   50.0460    2.7240   45.1920 H   0  0  0  0  0  0  0  0  0  0  0  0
  1  2  1  0  0  0  0
  2  3  1  0  0  0  0
  3 28  1  0  0  0  0
  3  4  2  0  0  0  0
  4 29  1  0  0  0  0
  5  8  1  0  0  0  0
  5  4  1  0  0  0  0
  6  5  2  0  0  0  0
  7  6  1  0  0  0  0
  7  2  2  0  0  0  0
  8  9  1  0  0  0  0
  9 10  2  0  0  0  0
 11 32  1  6  0  0  0
 11  9  1  0  0  0  0
 11 12  1  0  0  0  0
 12 33  1  0  0  0  0
 13 34  1  0  0  0  0
 13 12  1  0  0  0  0
 14 15  2  0  0  0  0
 14 13  1  0  0  0  0
 15 11  1  0  0  0  0
 16 15  1  0  0  0  0
 16  8  1  0  0  0  0
 17 16  2  0  0  0  0
 18 20  1  0  0  0  0
 18 14  1  0  0  0  0
 19 18  2  0  0  0  0
 20 21  1  0  0  0  0
 21 36  1  0  0  0  0
 21 22  1  0  0  0  0
 22 27  1  0  0  0  0
 23 22  2  0  0  0  0
 23 24  1  0  0  0  0
 24 25  2  0  0  0  0
 25 26  1  0  0  0  0
 25 39  1  0  0  0  0
 26 40  1  0  0  0  0
 27 41  1  0  0  0  0
 27 26  2  0  0  0  0
 30  6  1  0  0  0  0
 31  7  1  0  0  0  0
 35 21  1  0  0  0  0
 37 23  1  0  0  0  0
 38 24  1  0  0  0  0
M  END
>  <Pose>
1

>  <Score>
-7.08

$$$$
