
 OpenBabel03172210433D

 45 48  0  0  1  0  0  0  0  0999 V2000
   43.7880    8.7380   43.7500 B   0  0  0  0  0  0  0  0  0  0  0  0
   45.0770    7.3340   43.6710 C   0  0  0  0  0  0  0  0  0  0  0  0
   46.3570    7.6270   43.2830 C   0  0  0  0  0  0  0  0  0  0  0  0
   47.3020    6.6090   43.2220 C   0  0  0  0  0  0  0  0  0  0  0  0
   46.9880    5.3080   43.5430 C   0  0  0  0  0  0  0  0  0  0  0  0
   45.6950    5.0360   43.9310 C   0  0  0  0  0  0  0  0  0  0  0  0
   44.7360    6.0330   43.9990 C   0  0  0  0  0  0  0  0  0  0  0  0
   48.0190    4.3350   43.4550 N   0  0  0  0  0  0  0  0  0  0  0  0
   48.3400    3.7260   42.1910 C   0  0  0  0  0  0  0  0  0  0  0  0
   47.6980    4.0640   41.1580 O   0  0  0  0  0  0  0  0  0  0  0  0
   49.3760    2.7700   42.1820 N   0  0  0  0  0  0  0  0  0  0  0  0
   50.0340    2.4170   43.2060 C   0  0  0  0  0  0  0  0  0  0  0  0
   49.8460    2.9310   44.5850 C   0  0  1  0  0  0  0  0  0  0  0  0
   49.6100    1.7690   45.4870 C   0  0  0  0  0  0  0  0  0  0  0  0
   50.0040    1.9120   46.8420 N   0  0  0  0  0  4  0  0  0  0  0  0
   50.3490    3.2160   47.2500 C   0  0  0  0  0  0  0  0  0  0  0  0
   50.9530    4.1050   46.3510 C   0  0  0  0  0  0  0  0  0  0  0  0
   51.2800    5.3650   46.7660 C   0  0  0  0  0  0  0  0  0  0  0  0
   51.0500    5.8340   48.0390 C   0  0  0  0  0  0  0  0  0  0  0  0
   50.4550    4.9560   48.9200 C   0  0  0  0  0  0  0  0  0  0  0  0
   50.1110    3.6680   48.5290 C   0  0  0  0  0  0  0  0  0  0  0  0
   51.4180    7.2090   48.4510 C   0  0  0  0  0  0  0  0  0  0  0  0
   51.1830    3.5590   44.9880 C   0  0  0  0  0  0  0  0  0  0  0  0
   51.0630    0.9600   47.2190 C   0  0  0  0  0  0  0  0  0  0  0  0
   48.7600    3.9340   44.6030 C   0  0  0  0  0  0  0  0  0  0  0  0
   48.4240    4.5100   45.6910 O   0  0  0  0  0  0  0  0  0  0  0  0
   51.0480    1.4460   43.0530 O   0  0  0  0  0  0  0  0  0  0  0  0
   46.5940    8.6530   43.0330 H   0  0  0  0  0  0  0  0  0  0  0  0
   48.2970    6.9080   42.9080 H   0  0  0  0  0  0  0  0  0  0  0  0
   45.4130    4.0220   44.1920 H   0  0  0  0  0  0  0  0  0  0  0  0
   43.7160    5.8520   44.3000 H   0  0  0  0  0  0  0  0  0  0  0  0
   48.5430    1.4650   45.3750 H   0  0  0  0  0  0  0  0  0  0  0  0
   50.1920    0.8980   45.0600 H   0  0  0  0  0  0  0  0  0  0  0  0
   49.1780    1.6230   47.4460 H   0  0  0  0  0  0  0  0  0  0  0  0
   51.7490    6.0270   46.0380 H   0  0  0  0  0  0  0  0  0  0  0  0
   50.2580    5.2860   49.9350 H   0  0  0  0  0  0  0  0  0  0  0  0
   49.6470    3.0000   49.2370 H   0  0  0  0  0  0  0  0  0  0  0  0
   51.5390    7.3270   49.5240 H   0  0  0  0  0  0  0  0  0  0  0  0
   52.2940    7.5230   47.8510 H   0  0  0  0  0  0  0  0  0  0  0  0
   50.5630    7.8650   48.1170 H   0  0  0  0  0  0  0  0  0  0  0  0
   51.4970    4.3310   44.2730 H   0  0  0  0  0  0  0  0  0  0  0  0
   51.8980    2.7200   45.0710 H   0  0  0  0  0  0  0  0  0  0  0  0
   52.0680    1.3850   47.0570 H   0  0  0  0  0  0  0  0  0  0  0  0
   50.9030    0.0170   46.6660 H   0  0  0  0  0  0  0  0  0  0  0  0
   50.9690    0.7510   48.3040 H   0  0  0  0  0  0  0  0  0  0  0  0
  2  1  1  0  0  0  0
  2  7  1  0  0  0  0
  3  2  2  0  0  0  0
  4  3  1  0  0  0  0
  4  5  2  0  0  0  0
  5  6  1  0  0  0  0
  6  7  2  0  0  0  0
  6 30  1  0  0  0  0
  7 31  1  0  0  0  0
  8  5  1  0  0  0  0
  8 25  1  0  0  0  0
  9  8  1  0  0  0  0
 10  9  2  0  0  0  0
 11  9  1  0  0  0  0
 11 12  1  0  0  0  0
 13 12  1  6  0  0  0
 13 25  1  0  0  0  0
 13 23  1  0  0  0  0
 13 14  1  0  0  0  0
 14 15  1  0  0  0  0
 15 24  1  0  0  0  0
 15 16  1  0  0  0  0
 15 34  1  0  0  0  0
 16 21  1  0  0  0  0
 17 18  1  0  0  0  0
 17 16  2  0  0  0  0
 18 19  2  0  0  0  0
 19 22  1  0  0  0  0
 19 20  1  0  0  0  0
 20 36  1  0  0  0  0
 21 20  2  0  0  0  0
 21 37  1  0  0  0  0
 22 38  1  0  0  0  0
 23 42  1  0  0  0  0
 23 17  1  0  0  0  0
 24 45  1  0  0  0  0
 25 26  2  0  0  0  0
 27 12  2  0  0  0  0
 28  3  1  0  0  0  0
 29  4  1  0  0  0  0
 32 14  1  0  0  0  0
 33 14  1  0  0  0  0
 35 18  1  0  0  0  0
 39 22  1  0  0  0  0
 40 22  1  0  0  0  0
 41 23  1  0  0  0  0
 43 24  1  0  0  0  0
 44 24  1  0  0  0  0
M  END
>  <Pose>
1

>  <Score>
-6.12

$$$$
