
 OpenBabel03172210433D

 44 47  0  0  0  0  0  0  0  0999 V2000
   42.3280   14.8250   46.6400 B   0  0  0  0  0  0  0  0  0  0  0  0
   42.5490   13.0960   45.9190 C   0  0  0  0  0  0  0  0  0  0  0  0
   43.7640   12.6430   45.4510 C   0  0  0  0  0  0  0  0  0  0  0  0
   43.9030   11.3590   44.9220 C   0  0  0  0  0  0  0  0  0  0  0  0
   42.8120   10.5210   44.8620 C   0  0  0  0  0  0  0  0  0  0  0  0
   41.6160   11.0070   45.3380 C   0  0  0  0  0  0  0  0  0  0  0  0
   41.4510   12.2610   45.8620 C   0  0  0  0  0  0  0  0  0  0  0  0
   42.8510    9.2070   44.3440 N   0  0  0  0  0  0  0  0  0  0  0  0
   41.6070    8.5020   44.1100 C   0  0  0  0  0  0  0  0  0  0  0  0
   41.8130    7.0880   43.6190 C   0  0  0  0  0  0  0  0  0  0  0  0
   42.9210    6.4730   44.4890 C   0  0  0  0  0  0  0  0  0  0  0  0
   44.1260    7.1540   44.0910 N   0  0  0  0  0  0  0  0  0  0  0  0
   44.0550    8.5180   44.0290 C   0  0  0  0  0  0  0  0  0  0  0  0
   45.2530    8.9880   43.6440 N   0  0  0  0  0  0  0  0  0  0  0  0
   46.0550    7.9080   43.4720 C   0  0  0  0  0  0  0  0  0  0  0  0
   45.3520    6.7460   43.7530 C   0  0  0  0  0  0  0  0  0  0  0  0
   45.9620    5.5110   43.6470 C   0  0  0  0  0  0  0  0  0  0  0  0
   45.2800    4.4650   43.9140 O   0  0  0  0  0  0  0  0  0  0  0  0
   47.2500    5.4420   43.2680 N   0  0  0  0  0  0  0  0  0  0  0  0
   47.9080    6.5840   43.0030 C   0  0  0  0  0  0  0  0  0  0  0  0
   49.1140    6.4740   42.6520 O   0  0  0  0  0  0  0  0  0  0  0  0
   47.3410    7.7860   43.0980 N   0  0  0  0  0  0  0  0  0  0  0  0
   48.0840    9.0030   42.8020 C   0  0  0  0  0  0  0  0  0  0  0  0
   47.9000    4.1480   43.1550 C   0  0  0  0  0  0  0  0  0  0  0  0
   47.7070    3.6380   41.7580 C   0  0  0  0  0  0  0  0  0  0  0  0
   47.6540    4.4330   40.7910 O   0  0  0  0  0  0  0  0  0  0  0  0
   47.5800    2.2560   41.4900 N   0  0  0  0  0  0  0  0  0  0  0  0
   44.6380   13.2860   45.4880 H   0  0  0  0  0  0  0  0  0  0  0  0
   44.8740   11.0450   44.5690 H   0  0  0  0  0  0  0  0  0  0  0  0
   40.7150   10.3760   45.3130 H   0  0  0  0  0  0  0  0  0  0  0  0
   40.4860   12.5850   46.2210 H   0  0  0  0  0  0  0  0  0  0  0  0
   41.0530    8.4100   45.0890 H   0  0  0  0  0  0  0  0  0  0  0  0
   40.9320    9.0700   43.4290 H   0  0  0  0  0  0  0  0  0  0  0  0
   42.1540    7.1030   42.5480 H   0  0  0  0  0  0  0  0  0  0  0  0
   40.9020    6.5100   43.7500 H   0  0  0  0  0  0  0  0  0  0  0  0
   42.9720    5.3890   44.3820 H   0  0  0  0  0  0  0  0  0  0  0  0
   42.6770    6.8060   45.5370 H   0  0  0  0  0  0  0  0  0  0  0  0
   47.4150    9.8470   42.6450 H   0  0  0  0  0  0  0  0  0  0  0  0
   48.8710    9.1610   43.5580 H   0  0  0  0  0  0  0  0  0  0  0  0
   48.6210    8.7920   41.8340 H   0  0  0  0  0  0  0  0  0  0  0  0
   47.4790    3.4400   43.8850 H   0  0  0  0  0  0  0  0  0  0  0  0
   48.9780    4.2810   43.3250 H   0  0  0  0  0  0  0  0  0  0  0  0
   47.4750    1.5410   42.2460 H   0  0  0  0  0  0  0  0  0  0  0  0
   47.5850    1.8870   40.5070 H   0  0  0  0  0  0  0  0  0  0  0  0
  2  1  1  0  0  0  0
  3 28  1  0  0  0  0
  3  2  2  0  0  0  0
  4  3  1  0  0  0  0
  5  4  2  0  0  0  0
  5  6  1  0  0  0  0
  6  7  2  0  0  0  0
  7  2  1  0  0  0  0
  7 31  1  0  0  0  0
  8  5  1  0  0  0  0
  9  8  1  0  0  0  0
  9 32  1  0  0  0  0
 10 35  1  0  0  0  0
 10  9  1  0  0  0  0
 10 11  1  0  0  0  0
 11 37  1  0  0  0  0
 12 11  1  0  0  0  0
 13 12  1  0  0  0  0
 13  8  1  0  0  0  0
 14 13  2  0  0  0  0
 15 14  1  0  0  0  0
 15 16  2  0  0  0  0
 16 12  1  0  0  0  0
 17 16  1  0  0  0  0
 17 18  2  0  0  0  0
 19 17  1  0  0  0  0
 20 22  1  0  0  0  0
 20 19  1  0  0  0  0
 21 20  2  0  0  0  0
 22 15  1  0  0  0  0
 23 22  1  0  0  0  0
 23 39  1  0  0  0  0
 24 19  1  0  0  0  0
 24 42  1  0  0  0  0
 24 41  1  0  0  0  0
 25 24  1  0  0  0  0
 26 25  2  0  0  0  0
 27 25  1  0  0  0  0
 27 43  1  0  0  0  0
 29  4  1  0  0  0  0
 30  6  1  0  0  0  0
 33  9  1  0  0  0  0
 34 10  1  0  0  0  0
 36 11  1  0  0  0  0
 38 23  1  0  0  0  0
 40 23  1  0  0  0  0
 44 27  1  0  0  0  0
M  END
>  <Pose>
1

>  <Score>
-5.89

$$$$
