
 OpenBabel03172210433D

 49 52  0  0  1  0  0  0  0  0999 V2000
   39.8890   13.1890   43.8810 B   0  0  0  0  0  0  0  0  0  0  0  0
   40.8530   11.5690   43.5170 C   0  0  0  0  0  0  0  0  0  0  0  0
   42.2300   11.5690   43.5640 C   0  0  0  0  0  0  0  0  0  0  0  0
   42.9310   10.3900   43.2990 C   0  0  0  0  0  0  0  0  0  0  0  0
   42.2670    9.2250   42.9930 C   0  0  0  0  0  0  0  0  0  0  0  0
   40.8950    9.2450   42.9520 C   0  0  0  0  0  0  0  0  0  0  0  0
   40.1910   10.3980   43.2100 C   0  0  0  0  0  0  0  0  0  0  0  0
   42.9680    8.0680   42.7340 O   0  0  0  0  0  0  0  0  0  0  0  0
   43.2210    7.1660   43.7720 C   0  0  0  0  0  0  0  0  0  0  0  0
   44.2990    7.6070   44.6750 C   0  0  0  0  0  0  0  0  0  0  0  0
   44.0320    7.9580   45.8380 O   0  0  0  0  0  0  0  0  0  0  0  0
   45.6310    7.6280   44.2150 N   0  0  0  0  0  0  0  0  0  0  0  0
   46.2230    6.5340   43.5170 C   0  0  0  0  0  0  0  0  0  0  0  0
   47.1200    5.7270   44.1150 N   0  0  0  0  0  0  0  0  0  0  0  0
   47.6450    4.7190   43.4380 C   0  0  0  0  0  0  0  0  0  0  0  0
   48.5400    3.7940   43.8080 N   0  0  0  0  0  0  0  0  0  0  0  0
   48.7180    3.0050   42.7240 C   0  0  0  0  0  0  0  0  0  0  0  0
   47.9550    3.4310   41.7140 N   0  0  0  0  0  0  0  0  0  0  0  0
   47.2640    4.5020   42.1090 C   0  0  0  0  0  0  0  0  0  0  0  0
   46.3430    5.3260   41.4890 C   0  0  0  0  0  0  0  0  0  0  0  0
   45.8470    6.3270   42.2210 N   0  0  0  0  0  0  0  0  0  0  0  0
   46.0020    5.0640   40.1700 O   0  0  0  0  0  0  0  0  0  0  0  0
   49.2170    3.5880   45.0300 C   0  0  2  0  0  0  0  0  0  0  0  0
   50.4380    4.2750   45.0750 O   0  0  0  0  0  0  0  0  0  0  0  0
   51.3580    3.2840   44.7430 C   0  0  2  0  0  0  0  0  0  0  0  0
   50.9470    2.1940   45.7220 C   0  0  1  0  0  0  0  0  0  0  0  0
   49.4420    2.2010   45.4640 C   0  0  1  0  0  0  0  0  0  0  0  0
   48.7500    1.8980   46.6580 O   0  0  0  0  0  0  0  0  0  0  0  0
   51.5360    0.9860   45.4770 O   0  0  0  0  0  0  0  0  0  0  0  0
   52.7780    3.7250   44.9490 C   0  0  0  0  0  0  0  0  0  0  0  0
   53.1260    4.8310   44.2230 O   0  0  0  0  0  0  0  0  0  0  0  0
   42.7400   12.4840   43.8050 H   0  0  0  0  0  0  0  0  0  0  0  0
   44.0030   10.4670   43.3540 H   0  0  0  0  0  0  0  0  0  0  0  0
   40.2970    8.3600   42.7160 H   0  0  0  0  0  0  0  0  0  0  0  0
   39.1070   10.4390   43.1840 H   0  0  0  0  0  0  0  0  0  0  0  0
   43.5730    6.2070   43.3020 H   0  0  0  0  0  0  0  0  0  0  0  0
   42.3060    6.8880   44.3340 H   0  0  0  0  0  0  0  0  0  0  0  0
   46.2430    8.4780   44.3810 H   0  0  0  0  0  0  0  0  0  0  0  0
   49.3850    2.1340   42.6490 H   0  0  0  0  0  0  0  0  0  0  0  0
   46.2150    4.1180   39.8360 H   0  0  0  0  0  0  0  0  0  0  0  0
   48.6120    4.0940   45.8460 H   0  0  0  0  0  0  0  0  0  0  0  0
   51.1880    2.8640   43.7330 H   0  0  0  0  0  0  0  0  0  0  0  0
   51.1030    2.5410   46.7650 H   0  0  0  0  0  0  0  0  0  0  0  0
   49.2190    1.4060   44.7740 H   0  0  0  0  0  0  0  0  0  0  0  0
   47.9850    2.5260   46.6850 H   0  0  0  0  0  0  0  0  0  0  0  0
   50.9170    0.2020   45.6320 H   0  0  0  0  0  0  0  0  0  0  0  0
   53.4230    2.8410   44.7790 H   0  0  0  0  0  0  0  0  0  0  0  0
   52.8840    3.9690   46.0360 H   0  0  0  0  0  0  0  0  0  0  0  0
   53.2670    4.5570   43.2790 H   0  0  0  0  0  0  0  0  0  0  0  0
  2  3  1  0  0  0  0
  2  1  1  0  0  0  0
  3 32  1  0  0  0  0
  4 33  1  0  0  0  0
  4  3  2  0  0  0  0
  5  4  1  0  0  0  0
  6  5  2  0  0  0  0
  6  7  1  0  0  0  0
  7  2  2  0  0  0  0
  8  5  1  0  0  0  0
  8  9  1  0  0  0  0
  9 37  1  0  0  0  0
  9 10  1  0  0  0  0
 10 11  2  0  0  0  0
 12 38  1  0  0  0  0
 12 10  1  0  0  0  0
 13 14  2  0  0  0  0
 13 12  1  0  0  0  0
 15 16  1  0  0  0  0
 15 14  1  0  0  0  0
 16 23  1  0  0  0  0
 17 16  1  0  0  0  0
 18 19  1  0  0  0  0
 18 17  2  0  0  0  0
 19 15  2  0  0  0  0
 20 19  1  0  0  0  0
 20 21  2  0  0  0  0
 21 13  1  0  0  0  0
 22 20  1  0  0  0  0
 23 24  1  0  0  0  0
 23 27  1  0  0  0  0
 23 41  1  1  0  0  0
 25 42  1  6  0  0  0
 25 30  1  0  0  0  0
 25 24  1  0  0  0  0
 25 26  1  0  0  0  0
 26 43  1  1  0  0  0
 27 44  1  6  0  0  0
 27 26  1  0  0  0  0
 27 28  1  0  0  0  0
 28 45  1  0  0  0  0
 29 46  1  0  0  0  0
 29 26  1  0  0  0  0
 30 48  1  0  0  0  0
 31 30  1  0  0  0  0
 34  6  1  0  0  0  0
 35  7  1  0  0  0  0
 36  9  1  0  0  0  0
 39 17  1  0  0  0  0
 40 22  1  0  0  0  0
 47 30  1  0  0  0  0
 49 31  1  0  0  0  0
M  END
>  <Pose>
1

>  <Score>
-8.82

$$$$
