
 OpenBabel03172210433D

 49 52  0  0  0  0  0  0  0  0999 V2000
   47.9140    2.7530   42.1010 B   0  0  0  0  0  0  0  0  0  0  0  0
   48.2920    3.9650   43.5280 C   0  0  0  0  0  0  0  0  0  0  0  0
   49.2810    3.6800   44.4410 C   0  0  0  0  0  0  0  0  0  0  0  0
   49.5660    4.5420   45.4710 C   0  0  0  0  0  0  0  0  0  0  0  0
   48.8360    5.6930   45.5630 C   0  0  0  0  0  0  0  0  0  0  0  0
   47.8340    5.9780   44.6360 C   0  0  0  0  0  0  0  0  0  0  0  0
   47.5290    5.1300   43.5920 C   0  0  0  0  0  0  0  0  0  0  0  0
   46.4850    5.4200   42.5790 C   0  0  0  0  0  0  0  0  0  0  0  0
   45.6060    6.4750   43.0450 N   0  0  0  0  0  0  0  0  0  0  0  0
   45.5730    6.4670   44.5310 C   0  0  0  0  0  0  0  0  0  0  0  0
   44.4570    7.4530   44.8580 C   0  0  0  0  0  0  0  0  0  0  0  0
   44.0240    8.2200   43.7490 N   0  0  0  0  0  0  0  0  0  0  0  0
   45.1110    8.8100   43.0110 C   0  0  0  0  0  0  0  0  0  0  0  0
   46.1810    7.7900   42.7560 C   0  0  0  0  0  0  0  0  0  0  0  0
   42.9490    7.7250   42.9760 C   0  0  0  0  0  0  0  0  0  0  0  0
   41.8450    8.6380   42.7430 C   0  0  0  0  0  0  0  0  0  0  0  0
   41.5870    9.0590   41.5960 O   0  0  0  0  0  0  0  0  0  0  0  0
   41.0270    9.0780   43.8090 N   0  0  0  0  0  0  0  0  0  0  0  0
   41.1090   10.4280   44.3540 C   0  0  0  0  0  0  0  0  0  0  0  0
   39.9040   11.2670   44.4590 C   0  0  0  0  0  0  0  0  0  0  0  0
   40.8630   11.5410   43.3390 C   0  0  0  0  0  0  0  0  0  0  0  0
   49.1070    6.5760   46.5960 O   0  0  0  0  0  0  0  0  0  0  0  0
   49.9010    6.2520   47.7080 C   0  0  0  0  0  0  0  0  0  0  0  0
   50.9570    5.2540   47.3530 C   0  0  0  0  0  0  0  0  0  0  0  0
   50.5560    4.2910   46.4110 O   0  0  0  0  0  0  0  0  0  0  0  0
   49.8770    2.7670   44.3850 H   0  0  0  0  0  0  0  0  0  0  0  0
   47.3260    6.8990   44.7780 H   0  0  0  0  0  0  0  0  0  0  0  0
   45.9150    4.5310   42.2840 H   0  0  0  0  0  0  0  0  0  0  0  0
   47.0090    5.8110   41.6720 H   0  0  0  0  0  0  0  0  0  0  0  0
   45.4050    5.4700   44.9320 H   0  0  0  0  0  0  0  0  0  0  0  0
   46.5630    6.8470   44.8560 H   0  0  0  0  0  0  0  0  0  0  0  0
   44.9030    8.1690   45.6120 H   0  0  0  0  0  0  0  0  0  0  0  0
   43.6330    6.9570   45.4090 H   0  0  0  0  0  0  0  0  0  0  0  0
   45.4980    9.7010   43.5640 H   0  0  0  0  0  0  0  0  0  0  0  0
   44.7250    9.2460   42.0440 H   0  0  0  0  0  0  0  0  0  0  0  0
   46.7060    7.8630   41.8110 H   0  0  0  0  0  0  0  0  0  0  0  0
   46.9810    7.9940   43.5380 H   0  0  0  0  0  0  0  0  0  0  0  0
   43.3150    7.3320   41.9980 H   0  0  0  0  0  0  0  0  0  0  0  0
   42.5320    6.8120   43.4900 H   0  0  0  0  0  0  0  0  0  0  0  0
   40.3090    8.4500   44.2720 H   0  0  0  0  0  0  0  0  0  0  0  0
   41.9210   10.5530   45.0750 H   0  0  0  0  0  0  0  0  0  0  0  0
   38.8940   10.9120   44.1430 H   0  0  0  0  0  0  0  0  0  0  0  0
   39.8650   12.0330   45.2580 H   0  0  0  0  0  0  0  0  0  0  0  0
   40.5500   11.2340   42.3230 H   0  0  0  0  0  0  0  0  0  0  0  0
   41.5810   12.3790   43.4380 H   0  0  0  0  0  0  0  0  0  0  0  0
   49.2410    5.9260   48.5270 H   0  0  0  0  0  0  0  0  0  0  0  0
   50.4340    7.2000   48.0020 H   0  0  0  0  0  0  0  0  0  0  0  0
   51.8560    5.7990   46.9500 H   0  0  0  0  0  0  0  0  0  0  0  0
   51.2230    4.6980   48.2830 H   0  0  0  0  0  0  0  0  0  0  0  0
  1  2  1  0  0  0  0
  2  7  2  0  0  0  0
  2  3  1  0  0  0  0
  3  4  2  0  0  0  0
  4  5  1  0  0  0  0
  4 25  1  0  0  0  0
  5 22  1  0  0  0  0
  6 27  1  0  0  0  0
  6  5  2  0  0  0  0
  7  6  1  0  0  0  0
  8  9  1  0  0  0  0
  8  7  1  0  0  0  0
  9 10  1  0  0  0  0
 10 31  1  0  0  0  0
 10 11  1  0  0  0  0
 10 30  1  0  0  0  0
 11 33  1  0  0  0  0
 11 32  1  0  0  0  0
 12 11  1  0  0  0  0
 13 34  1  0  0  0  0
 13 12  1  0  0  0  0
 14 13  1  0  0  0  0
 14  9  1  0  0  0  0
 14 37  1  0  0  0  0
 15 39  1  0  0  0  0
 15 12  1  0  0  0  0
 16 15  1  0  0  0  0
 16 18  1  0  0  0  0
 17 16  2  0  0  0  0
 18 40  1  0  0  0  0
 18 19  1  0  0  0  0
 19 20  1  0  0  0  0
 19 41  1  0  0  0  0
 20 43  1  0  0  0  0
 21 45  1  0  0  0  0
 21 19  1  0  0  0  0
 21 20  1  0  0  0  0
 22 23  1  0  0  0  0
 23 47  1  0  0  0  0
 23 46  1  0  0  0  0
 24 23  1  0  0  0  0
 24 49  1  0  0  0  0
 25 24  1  0  0  0  0
 26  3  1  0  0  0  0
 28  8  1  0  0  0  0
 29  8  1  0  0  0  0
 35 13  1  0  0  0  0
 36 14  1  0  0  0  0
 38 15  1  0  0  0  0
 42 20  1  0  0  0  0
 44 21  1  0  0  0  0
 48 24  1  0  0  0  0
M  END
>  <Pose>
1

>  <Score>
-5.56

$$$$
