
 OpenBabel03172210433D

 41 44  0  0  0  0  0  0  0  0999 V2000
   41.4750   10.6000   42.3730 B   0  0  0  0  0  0  0  0  0  0  0  0
   41.2830    9.8030   44.1040 C   0  0  0  0  0  0  0  0  0  0  0  0
   40.5200   10.3860   45.0850 C   0  0  0  0  0  0  0  0  0  0  0  0
   40.3930    9.7970   46.3260 C   0  0  0  0  0  0  0  0  0  0  0  0
   41.0440    8.6080   46.5740 C   0  0  0  0  0  0  0  0  0  0  0  0
   41.8170    8.0220   45.5730 C   0  0  0  0  0  0  0  0  0  0  0  0
   41.9560    8.5950   44.3290 C   0  0  0  0  0  0  0  0  0  0  0  0
   42.7370    7.9660   43.2500 C   0  0  0  0  0  0  0  0  0  0  0  0
   44.1200    8.0850   43.4010 O   0  0  0  0  0  0  0  0  0  0  0  0
   45.0130    7.0480   43.1960 C   0  0  0  0  0  0  0  0  0  0  0  0
   45.6940    6.4720   44.2770 C   0  0  0  0  0  0  0  0  0  0  0  0
   46.5890    5.4370   44.1300 C   0  0  0  0  0  0  0  0  0  0  0  0
   46.8550    4.9130   42.8840 C   0  0  0  0  0  0  0  0  0  0  0  0
   46.1920    5.4670   41.8090 C   0  0  0  0  0  0  0  0  0  0  0  0
   45.2850    6.5170   41.9550 C   0  0  0  0  0  0  0  0  0  0  0  0
   47.8050    3.8110   42.7120 C   0  0  0  0  0  0  0  0  0  0  0  0
   48.8560    3.4790   43.4790 N   0  0  0  0  0  0  0  0  0  0  0  0
   49.4480    2.4020   42.9520 N   0  0  0  0  0  0  0  0  0  0  0  0
   48.7830    2.0520   41.8610 N   0  0  0  0  0  0  0  0  0  0  0  0
   47.7860    2.9090   41.7170 N   0  0  0  0  0  0  0  0  0  0  0  0
   50.6140    1.6940   43.4370 C   0  0  0  0  0  0  0  0  0  0  0  0
   51.8460    2.3100   42.8990 C   0  0  0  0  0  0  0  0  0  0  0  0
   52.2170    2.0350   41.7460 O   0  0  0  0  0  0  0  0  0  0  0  0
   52.5830    3.2010   43.7080 N   0  0  0  0  0  0  0  0  0  0  0  0
   40.7480    8.2510   47.8750 O   0  0  0  0  0  0  0  0  0  0  0  0
   39.6760    9.0320   48.3700 C   0  0  0  0  0  0  0  0  0  0  0  0
   39.7080   10.1380   47.4940 O   0  0  0  0  0  0  0  0  0  0  0  0
   39.9940   11.3360   44.8980 H   0  0  0  0  0  0  0  0  0  0  0  0
   42.2870    7.0790   45.8330 H   0  0  0  0  0  0  0  0  0  0  0  0
   42.4450    6.9090   43.0710 H   0  0  0  0  0  0  0  0  0  0  0  0
   42.4650    8.5070   42.3120 H   0  0  0  0  0  0  0  0  0  0  0  0
   45.4610    6.9100   45.2470 H   0  0  0  0  0  0  0  0  0  0  0  0
   47.0990    5.0140   44.9850 H   0  0  0  0  0  0  0  0  0  0  0  0
   46.4040    5.0540   40.8380 H   0  0  0  0  0  0  0  0  0  0  0  0
   44.7840    6.9130   41.0750 H   0  0  0  0  0  0  0  0  0  0  0  0
   50.6300    1.7400   44.5440 H   0  0  0  0  0  0  0  0  0  0  0  0
   50.5150    0.6320   43.1270 H   0  0  0  0  0  0  0  0  0  0  0  0
   53.2040    3.9570   43.3060 H   0  0  0  0  0  0  0  0  0  0  0  0
   52.5260    3.1300   44.7460 H   0  0  0  0  0  0  0  0  0  0  0  0
   38.7470    8.4390   48.2700 H   0  0  0  0  0  0  0  0  0  0  0  0
   39.8560    9.2980   49.4250 H   0  0  0  0  0  0  0  0  0  0  0  0
  1  2  1  0  0  0  0
  2  7  2  0  0  0  0
  2  3  1  0  0  0  0
  3  4  2  0  0  0  0
  4  5  1  0  0  0  0
  4 27  1  0  0  0  0
  5 25  1  0  0  0  0
  6 29  1  0  0  0  0
  6  5  2  0  0  0  0
  7  6  1  0  0  0  0
  8  9  1  0  0  0  0
  8  7  1  0  0  0  0
 10  9  1  0  0  0  0
 10 11  1  0  0  0  0
 11 32  1  0  0  0  0
 12 11  2  0  0  0  0
 12 33  1  0  0  0  0
 13 12  1  0  0  0  0
 14 15  1  0  0  0  0
 14 13  2  0  0  0  0
 15 10  2  0  0  0  0
 16 13  1  0  0  0  0
 16 17  2  0  0  0  0
 18 21  1  0  0  0  0
 18 17  1  0  0  0  0
 19 18  1  0  0  0  0
 20 19  2  0  0  0  0
 20 16  1  0  0  0  0
 21 36  1  0  0  0  0
 22 21  1  0  0  0  0
 22 24  1  0  0  0  0
 23 22  2  0  0  0  0
 24 39  1  0  0  0  0
 25 26  1  0  0  0  0
 26 41  1  0  0  0  0
 27 26  1  0  0  0  0
 28  3  1  0  0  0  0
 30  8  1  0  0  0  0
 31  8  1  0  0  0  0
 34 14  1  0  0  0  0
 35 15  1  0  0  0  0
 37 21  1  0  0  0  0
 38 24  1  0  0  0  0
 40 26  1  0  0  0  0
M  END
>  <Pose>
1

>  <Score>
-7.68

$$$$
