
 OpenBabel03172210433D

 53 57  0  0  1  0  0  0  0  0999 V2000
   50.0670    2.0770   43.5270 B   0  0  0  0  0  0  0  0  0  0  0  0
   50.3290    3.4900   44.7660 C   0  0  0  0  0  0  0  0  0  0  0  0
   51.5870    3.9200   45.1180 C   0  0  0  0  0  0  0  0  0  0  0  0
   51.7860    4.9310   46.0050 C   0  0  0  0  0  0  0  0  0  0  0  0
   50.6980    5.5540   46.5770 C   0  0  0  0  0  0  0  0  0  0  0  0
   49.4090    5.1340   46.2340 C   0  0  0  0  0  0  0  0  0  0  0  0
   49.2020    4.1040   45.3320 C   0  0  0  0  0  0  0  0  0  0  0  0
   47.9250    3.6300   44.9450 N   0  0  0  0  0  0  0  0  0  0  0  0
   47.1790    4.1010   43.8450 C   0  0  0  0  0  0  0  0  0  0  0  0
   46.3040    3.4650   43.2350 O   0  0  0  0  0  0  0  0  0  0  0  0
   47.4650    5.5040   43.3570 C   0  0  0  0  0  0  0  0  0  0  0  0
   46.2470    6.2570   43.1660 N   0  0  0  0  0  0  0  0  0  0  0  0
   45.7760    6.3360   41.8660 C   0  0  0  0  0  0  0  0  0  0  0  0
   45.0090    7.5170   41.4110 C   0  0  0  0  0  0  0  0  0  0  0  0
   44.5120    8.2200   42.5590 N   0  0  0  0  0  0  0  0  0  0  0  0
   45.5300    8.5890   43.5090 C   0  0  0  0  0  0  0  0  0  0  0  0
   46.0580    7.3040   44.0930 C   0  0  0  0  0  0  0  0  0  0  0  0
   43.1740    8.5590   42.8180 C   0  0  1  0  0  0  0  0  0  0  0  0
   42.1490    7.6710   42.7850 N   0  0  0  0  0  0  0  0  0  0  0  0
   40.8760    8.0260   43.0390 C   0  0  0  0  0  0  0  0  0  0  0  0
   40.5580    9.2960   43.3430 N   0  0  0  0  0  0  0  0  0  0  0  0
   41.5120   10.2470   43.3990 C   0  0  0  0  0  0  0  0  0  0  0  0
   41.4830   11.5770   43.6730 N   0  0  0  0  0  0  0  0  0  0  0  0
   42.7310   11.9990   43.5800 N   0  0  0  0  0  0  0  0  0  0  0  0
   43.5670   11.0100   43.2580 C   0  0  0  0  0  0  0  0  0  0  0  0
   42.8050    9.8700   43.1370 C   0  0  0  0  0  0  0  0  0  0  0  0
   40.2890   12.3570   44.0020 C   0  0  0  0  0  0  0  0  0  0  0  0
   50.9240    6.5720   47.4680 O   0  0  0  0  0  0  0  0  0  0  0  0
   52.1080    6.7250   48.2110 C   0  0  0  0  0  0  0  0  0  0  0  0
   53.2220    5.8480   47.7370 C   0  0  0  0  0  0  0  0  0  0  0  0
   53.0370    5.3960   46.3890 O   0  0  0  0  0  0  0  0  0  0  0  0
   52.4480    3.4370   44.6730 H   0  0  0  0  0  0  0  0  0  0  0  0
   48.5900    5.6390   46.6960 H   0  0  0  0  0  0  0  0  0  0  0  0
   47.4910    2.8520   45.5330 H   0  0  0  0  0  0  0  0  0  0  0  0
   48.0630    5.9750   44.1590 H   0  0  0  0  0  0  0  0  0  0  0  0
   48.0880    5.4460   42.4440 H   0  0  0  0  0  0  0  0  0  0  0  0
   46.6470    6.2110   41.1530 H   0  0  0  0  0  0  0  0  0  0  0  0
   45.1580    5.4140   41.6430 H   0  0  0  0  0  0  0  0  0  0  0  0
   45.6330    8.2220   40.8070 H   0  0  0  0  0  0  0  0  0  0  0  0
   44.2070    7.1950   40.7160 H   0  0  0  0  0  0  0  0  0  0  0  0
   45.1640    9.2590   44.2900 H   0  0  0  0  0  0  0  0  0  0  0  0
   46.3980    9.0770   42.9910 H   0  0  0  0  0  0  0  0  0  0  0  0
   45.3980    6.9580   44.9160 H   0  0  0  0  0  0  0  0  0  0  0  0
   47.0370    7.5440   44.5620 H   0  0  0  0  0  0  0  0  0  0  0  0
   40.1390    7.2290   42.9830 H   0  0  0  0  0  0  0  0  0  0  0  0
   44.6380   11.0130   43.1060 H   0  0  0  0  0  0  0  0  0  0  0  0
   40.4530   13.0300   44.8640 H   0  0  0  0  0  0  0  0  0  0  0  0
   39.9750   13.0020   43.1500 H   0  0  0  0  0  0  0  0  0  0  0  0
   39.4550   11.6450   44.1800 H   0  0  0  0  0  0  0  0  0  0  0  0
   52.3970    7.8110   48.2070 H   0  0  0  0  0  0  0  0  0  0  0  0
   51.8740    6.4580   49.2820 H   0  0  0  0  0  0  0  0  0  0  0  0
   53.2350    4.9130   48.3650 H   0  0  0  0  0  0  0  0  0  0  0  0
   54.2100    6.3090   47.8590 H   0  0  0  0  0  0  0  0  0  0  0  0
  1  2  1  0  0  0  0
  2  3  2  0  0  0  0
  2  7  1  0  0  0  0
  3  4  1  0  0  0  0
  4 31  1  0  0  0  0
  4  5  2  0  0  0  0
  5 28  1  0  0  0  0
  6  5  1  0  0  0  0
  6 33  1  0  0  0  0
  7  6  2  0  0  0  0
  8  7  1  0  0  0  0
  8 34  1  0  0  0  0
  9  8  1  0  0  0  0
 10  9  2  0  0  0  0
 11  9  1  0  0  0  0
 11 35  1  0  0  0  0
 12 11  1  0  0  0  0
 12 17  1  0  0  0  0
 13 12  1  0  0  0  0
 14 13  1  0  0  0  0
 14 15  1  0  0  0  0
 15 16  1  0  0  0  0
 16 17  1  0  0  0  0
 16 41  1  0  0  0  0
 17 44  1  0  0  0  0
 17 43  1  0  0  0  0
 18 15  1  1  0  0  0
 18 26  1  0  0  0  0
 19 18  1  0  0  0  0
 19 20  2  0  0  0  0
 20 21  1  0  0  0  0
 21 22  1  0  0  0  0
 22 23  1  0  0  0  0
 23 27  1  0  0  0  0
 24 23  1  0  0  0  0
 25 24  2  0  0  0  0
 26 25  1  0  0  0  0
 26 22  2  0  0  0  0
 27 49  1  0  0  0  0
 27 47  1  0  0  0  0
 28 29  1  0  0  0  0
 29 51  1  0  0  0  0
 30 53  1  0  0  0  0
 30 29  1  0  0  0  0
 30 52  1  0  0  0  0
 31 30  1  0  0  0  0
 32  3  1  0  0  0  0
 36 11  1  0  0  0  0
 37 13  1  0  0  0  0
 38 13  1  0  0  0  0
 39 14  1  0  0  0  0
 40 14  1  0  0  0  0
 42 16  1  0  0  0  0
 45 20  1  0  0  0  0
 46 25  1  0  0  0  0
 48 27  1  0  0  0  0
 50 29  1  0  0  0  0
M  END
>  <Pose>
1

>  <Score>
-6.78

$$$$
