
 OpenBabel03172210433D

 44 47  0  0  0  0  0  0  0  0999 V2000
   44.2400   13.3470   45.5050 B   0  0  0  0  0  0  0  0  0  0  0  0
   42.4920   12.7000   45.8820 C   0  0  0  0  0  0  0  0  0  0  0  0
   41.8030   11.8760   44.9850 C   0  0  0  0  0  0  0  0  0  0  0  0
   40.5350   11.4040   45.2530 C   0  0  0  0  0  0  0  0  0  0  0  0
   39.9170   11.7590   46.4580 C   0  0  0  0  0  0  0  0  0  0  0  0
   40.6110   12.5760   47.3390 C   0  0  0  0  0  0  0  0  0  0  0  0
   41.8740   13.0370   47.0540 C   0  0  0  0  0  0  0  0  0  0  0  0
   38.6220   11.1750   46.5440 N   0  0  0  0  0  0  0  0  0  0  0  0
   38.4260   10.4300   45.3520 C   0  0  0  0  0  0  0  0  0  0  0  0
   37.4340    9.7440   44.9820 O   0  0  0  0  0  0  0  0  0  0  0  0
   39.6280   10.5510   44.4990 C   0  0  0  0  0  0  0  0  0  0  0  0
   39.8170   10.0140   43.3430 N   0  0  0  0  0  0  0  0  0  0  0  0
   40.9980   10.1970   42.6200 N   0  0  0  0  0  0  0  0  0  0  0  0
   42.0790    9.2830   42.6830 C   0  0  0  0  0  0  0  0  0  0  0  0
   41.8700    8.0730   42.4370 O   0  0  0  0  0  0  0  0  0  0  0  0
   43.4140    9.7480   43.0310 C   0  0  0  0  0  0  0  0  0  0  0  0
   44.2870    8.6830   43.4860 N   0  0  0  0  0  0  0  0  0  0  0  0
   44.6430    8.4190   44.7320 N   0  0  0  0  0  0  0  0  0  0  0  0
   45.4500    7.3710   44.7680 N   0  0  0  0  0  0  0  0  0  0  0  0
   45.6260    6.9400   43.5070 C   0  0  0  0  0  0  0  0  0  0  0  0
   44.8970    7.7680   42.7470 N   0  0  0  0  0  0  0  0  0  0  0  0
   46.4490    5.8030   43.1080 C   0  0  0  0  0  0  0  0  0  0  0  0
   47.2620    5.1810   44.0300 C   0  0  0  0  0  0  0  0  0  0  0  0
   48.0510    4.0920   43.6520 C   0  0  0  0  0  0  0  0  0  0  0  0
   48.0440    3.6090   42.3630 C   0  0  0  0  0  0  0  0  0  0  0  0
   47.2270    4.2310   41.4350 C   0  0  0  0  0  0  0  0  0  0  0  0
   46.4470    5.3130   41.8200 C   0  0  0  0  0  0  0  0  0  0  0  0
   37.6340   11.2680   47.6000 C   0  0  0  0  0  0  0  0  0  0  0  0
   36.3850   11.8020   47.0820 C   0  0  0  0  0  0  0  0  0  0  0  0
   35.3470   12.2280   46.6470 C   0  0  0  0  0  0  0  0  0  0  0  0
   42.3130   11.6220   44.0630 H   0  0  0  0  0  0  0  0  0  0  0  0
   40.1740   12.8750   48.2800 H   0  0  0  0  0  0  0  0  0  0  0  0
   42.4240   13.6830   47.7490 H   0  0  0  0  0  0  0  0  0  0  0  0
   41.0830   11.0430   42.0220 H   0  0  0  0  0  0  0  0  0  0  0  0
   43.3660   10.5400   43.8020 H   0  0  0  0  0  0  0  0  0  0  0  0
   43.8590   10.2320   42.1270 H   0  0  0  0  0  0  0  0  0  0  0  0
   47.2860    5.5450   45.0570 H   0  0  0  0  0  0  0  0  0  0  0  0
   48.6950    3.5990   44.3790 H   0  0  0  0  0  0  0  0  0  0  0  0
   48.6710    2.7530   42.0900 H   0  0  0  0  0  0  0  0  0  0  0  0
   47.2160    3.8550   40.4170 H   0  0  0  0  0  0  0  0  0  0  0  0
   45.8000    5.8120   41.1030 H   0  0  0  0  0  0  0  0  0  0  0  0
   37.4220   10.2710   48.0600 H   0  0  0  0  0  0  0  0  0  0  0  0
   38.0640   11.8920   48.4210 H   0  0  0  0  0  0  0  0  0  0  0  0
   34.4220   12.6070   46.2450 H   0  0  0  0  0  0  0  0  0  0  0  0
  1  2  1  0  0  0  0
  2  7  1  0  0  0  0
  3  4  1  0  0  0  0
  3  2  2  0  0  0  0
  4  5  2  0  0  0  0
  5  8  1  0  0  0  0
  5  6  1  0  0  0  0
  6 32  1  0  0  0  0
  7  6  2  0  0  0  0
  7 33  1  0  0  0  0
  8 28  1  0  0  0  0
  9  8  1  0  0  0  0
 10  9  2  0  0  0  0
 11  4  1  0  0  0  0
 11  9  1  0  0  0  0
 12 11  2  0  0  0  0
 13 14  1  0  0  0  0
 13 12  1  0  0  0  0
 14 16  1  0  0  0  0
 15 14  2  0  0  0  0
 16 17  1  0  0  0  0
 16 35  1  0  0  0  0
 17 18  1  0  0  0  0
 18 19  1  0  0  0  0
 20 19  2  0  0  0  0
 21 17  1  0  0  0  0
 21 20  1  0  0  0  0
 22 20  1  0  0  0  0
 22 23  1  0  0  0  0
 23 37  1  0  0  0  0
 24 23  2  0  0  0  0
 24 38  1  0  0  0  0
 25 24  1  0  0  0  0
 26 27  1  0  0  0  0
 26 25  2  0  0  0  0
 27 22  2  0  0  0  0
 28 42  1  0  0  0  0
 28 43  1  0  0  0  0
 29 28  1  0  0  0  0
 30 29  3  0  0  0  0
 31  3  1  0  0  0  0
 34 13  1  0  0  0  0
 36 16  1  0  0  0  0
 39 25  1  0  0  0  0
 40 26  1  0  0  0  0
 41 27  1  0  0  0  0
 44 30  1  0  0  0  0
M  END
>  <Pose>
1

>  <Score>
-6.27

$$$$
