
 OpenBabel03172210433D

 58 61  0  0  0  0  0  0  0  0999 V2000
   49.3550    6.8230   47.2820 B   0  0  0  0  0  0  0  0  0  0  0  0
   49.3690    5.3910   46.0190 C   0  0  0  0  0  0  0  0  0  0  0  0
   48.3880    5.2820   45.0220 C   0  0  0  0  0  0  0  0  0  0  0  0
   48.5030    4.2230   44.1680 C   0  0  0  0  0  0  0  0  0  0  0  0
   49.5060    3.2780   44.2360 C   0  0  0  0  0  0  0  0  0  0  0  0
   50.4640    3.3850   45.2180 C   0  0  0  0  0  0  0  0  0  0  0  0
   50.3840    4.4630   46.1120 C   0  0  0  0  0  0  0  0  0  0  0  0
   49.3750    2.2910   43.2210 N   0  0  0  0  0  0  0  0  0  0  0  0
   48.1880    2.6470   42.4660 C   0  0  0  0  0  0  0  0  0  0  0  0
   47.7510    2.0220   41.4770 O   0  0  0  0  0  0  0  0  0  0  0  0
   47.6550    3.8420   43.0820 C   0  0  0  0  0  0  0  0  0  0  0  0
   46.5400    4.4220   42.8580 N   0  0  0  0  0  0  0  0  0  0  0  0
   45.7770    5.2430   43.1820 N   0  0  0  0  0  0  0  0  0  0  0  0
   44.8550    6.2470   43.5550 C   0  0  0  0  0  0  0  0  0  0  0  0
   43.6450    6.2720   43.6010 O   0  0  0  0  0  0  0  0  0  0  0  0
   45.6280    7.5250   43.9520 C   0  0  0  0  0  0  0  0  0  0  0  0
   45.1170    8.5330   43.0530 O   0  0  0  0  0  0  0  0  0  0  0  0
   44.0640    9.3250   43.5950 N   0  0  0  0  0  0  0  0  0  0  0  0
   43.8270   10.5020   43.1640 C   0  0  0  0  0  0  0  0  0  0  0  0
   42.7640   11.2920   43.7410 C   0  0  0  0  0  0  0  0  0  0  0  0
   42.8550   12.0230   44.8770 C   0  0  0  0  0  0  0  0  0  0  0  0
   41.6680   12.6660   45.3130 C   0  0  0  0  0  0  0  0  0  0  0  0
   40.4770   12.6380   44.7170 C   0  0  0  0  0  0  0  0  0  0  0  0
   40.4390   11.8980   43.5850 C   0  0  0  0  0  0  0  0  0  0  0  0
   41.4470   11.2110   43.0230 C   0  0  0  0  0  0  0  0  0  0  0  0
   39.3870   13.3300   45.2570 O   0  0  0  0  0  0  0  0  0  0  0  0
   38.1170   13.2960   44.6170 C   0  0  0  0  0  0  0  0  0  0  0  0
   50.2020    1.1520   42.8550 C   0  0  0  0  0  0  0  0  0  0  0  0
   51.5380    1.3770   43.1150 N   0  0  0  0  0  0  0  0  0  0  0  0
   51.9610    0.7910   44.3220 C   0  0  0  0  0  0  0  0  0  0  0  0
   53.3050    0.0890   44.1080 C   0  0  0  0  0  0  0  0  0  0  0  0
   53.0590   -0.7410   42.9810 O   0  0  0  0  0  0  0  0  0  0  0  0
   53.0580    0.0490   41.8230 C   0  0  0  0  0  0  0  0  0  0  0  0
   52.4150    1.3870   42.0140 C   0  0  0  0  0  0  0  0  0  0  0  0
   47.6850    6.0320   45.0090 H   0  0  0  0  0  0  0  0  0  0  0  0
   51.2880    2.6860   45.3300 H   0  0  0  0  0  0  0  0  0  0  0  0
   51.1130    4.5310   46.8880 H   0  0  0  0  0  0  0  0  0  0  0  0
   45.8730    5.9070   41.9660 H   0  0  0  0  0  0  0  0  0  0  0  0
   44.9740    7.7720   44.9020 H   0  0  0  0  0  0  0  0  0  0  0  0
   46.5990    7.4510   44.1920 H   0  0  0  0  0  0  0  0  0  0  0  0
   44.4040   10.9310   42.3470 H   0  0  0  0  0  0  0  0  0  0  0  0
   43.7630   12.1170   45.4220 H   0  0  0  0  0  0  0  0  0  0  0  0
   41.7900   13.2580   46.2400 H   0  0  0  0  0  0  0  0  0  0  0  0
   39.4300   11.8730   43.0900 H   0  0  0  0  0  0  0  0  0  0  0  0
   41.4720   10.6360   42.1460 H   0  0  0  0  0  0  0  0  0  0  0  0
   37.5980   12.3240   44.8330 H   0  0  0  0  0  0  0  0  0  0  0  0
   37.4800   14.0870   45.1270 H   0  0  0  0  0  0  0  0  0  0  0  0
   38.1480   13.5300   43.5390 H   0  0  0  0  0  0  0  0  0  0  0  0
   49.9420    0.9510   41.7950 H   0  0  0  0  0  0  0  0  0  0  0  0
   49.7590    0.2680   43.4020 H   0  0  0  0  0  0  0  0  0  0  0  0
   52.0310    1.5220   45.1620 H   0  0  0  0  0  0  0  0  0  0  0  0
   51.2240    0.0410   44.6480 H   0  0  0  0  0  0  0  0  0  0  0  0
   53.4730   -0.5460   44.9690 H   0  0  0  0  0  0  0  0  0  0  0  0
   54.1170    0.7820   43.9130 H   0  0  0  0  0  0  0  0  0  0  0  0
   52.5740   -0.4870   40.9980 H   0  0  0  0  0  0  0  0  0  0  0  0
   54.1310    0.2100   41.5570 H   0  0  0  0  0  0  0  0  0  0  0  0
   53.2440    2.1870   42.1740 H   0  0  0  0  0  0  0  0  0  0  0  0
   51.9140    1.7090   41.0960 H   0  0  0  0  0  0  0  0  0  0  0  0
  2  7  1  0  0  0  0
  2  1  1  0  0  0  0
  3  2  2  0  0  0  0
  4  5  2  0  0  0  0
  4  3  1  0  0  0  0
  5  6  1  0  0  0  0
  6 36  1  0  0  0  0
  6  7  2  0  0  0  0
  7 37  1  0  0  0  0
  8  5  1  0  0  0  0
  9 11  1  0  0  0  0
  9  8  1  0  0  0  0
 10  9  2  0  0  0  0
 11  4  1  0  0  0  0
 12 11  2  0  0  0  0
 12 13  1  0  0  0  0
 13 14  1  0  0  0  0
 14 15  2  0  0  0  0
 14 16  1  0  0  0  0
 16 40  1  0  0  0  0
 16 39  1  0  0  0  0
 17 18  1  0  0  0  0
 17 16  1  0  0  0  0
 19 18  2  0  0  0  0
 19 20  1  0  0  0  0
 20 21  1  0  0  0  0
 21 22  2  0  0  0  0
 21 42  1  0  0  0  0
 22 43  1  0  0  0  0
 23 26  1  0  0  0  0
 23 22  1  0  0  0  0
 24 23  2  0  0  0  0
 25 24  1  0  0  0  0
 25 20  2  0  0  0  0
 27 46  1  0  0  0  0
 27 47  1  0  0  0  0
 27 26  1  0  0  0  0
 28 29  1  0  0  0  0
 28  8  1  0  0  0  0
 28 50  1  0  0  0  0
 29 30  1  0  0  0  0
 30 52  1  0  0  0  0
 30 51  1  0  0  0  0
 31 30  1  0  0  0  0
 31 53  1  0  0  0  0
 32 31  1  0  0  0  0
 33 34  1  0  0  0  0
 33 32  1  0  0  0  0
 34 57  1  0  0  0  0
 34 29  1  0  0  0  0
 35  3  1  0  0  0  0
 38 13  1  0  0  0  0
 41 19  1  0  0  0  0
 44 24  1  0  0  0  0
 45 25  1  0  0  0  0
 48 27  1  0  0  0  0
 49 28  1  0  0  0  0
 54 31  1  0  0  0  0
 55 33  1  0  0  0  0
 56 33  1  0  0  0  0
 58 34  1  0  0  0  0
M  END
>  <Pose>
1

>  <Score>
-7.05

$$$$
