
 OpenBabel03172210433D

 36 39  0  0  1  0  0  0  0  0999 V2000
   36.0390   10.9150   45.8790 B   0  0  0  0  0  0  0  0  0  0  0  0
   37.9410   11.2180   45.9450 C   0  0  0  0  0  0  0  0  0  0  0  0
   38.8260   10.2350   45.5890 C   0  0  0  0  0  0  0  0  0  0  0  0
   40.1830   10.4750   45.6440 C   0  0  0  0  0  0  0  0  0  0  0  0
   40.5930   11.7120   46.0610 C   0  0  0  0  0  0  0  0  0  0  0  0
   39.6810   12.7230   46.4260 C   0  0  0  0  0  0  0  0  0  0  0  0
   38.3380   12.4670   46.3650 C   0  0  0  0  0  0  0  0  0  0  0  0
   42.0150   11.8070   46.0640 N   0  0  0  0  0  0  0  0  0  0  0  0
   42.5290   10.5780   45.6320 C   0  0  0  0  0  0  0  0  0  0  0  0
   43.7620   10.3030   45.5130 O   0  0  0  0  0  0  0  0  0  0  0  0
   41.3790    9.6520   45.3370 C   0  0  2  0  0  0  0  0  0  0  0  0
   41.4930    9.3120   43.9230 C   0  0  0  0  0  0  0  0  0  0  0  0
   41.7200    8.0320   43.5220 C   0  0  0  0  0  0  0  0  0  0  0  0
   41.7710    8.0550   42.1570 N   0  0  0  0  0  0  0  0  0  0  0  0
   41.5880    9.2820   41.7160 N   0  0  0  0  0  0  0  0  0  0  0  0
   41.4130   10.0860   42.7620 C   0  0  0  0  0  0  0  0  0  0  0  0
   41.1700   11.5620   42.7920 C   0  0  0  0  0  0  0  0  0  0  0  0
   41.8570    6.9690   44.4200 O   0  0  0  0  0  0  0  0  0  0  0  0
   41.7480    7.2970   45.7680 C   0  0  0  0  0  0  0  0  0  0  0  0
   41.5310    8.5070   46.2150 C   0  0  0  0  0  0  0  0  0  0  0  0
   41.4440    8.6700   47.6760 C   0  0  0  0  0  0  0  0  0  0  0  0
   41.3650    8.8200   48.8320 N   0  0  0  0  0  0  0  0  0  0  0  0
   41.8820    6.2320   46.7510 N   0  0  0  0  0  0  0  0  0  0  0  0
   42.8130   12.9790   46.4520 C   0  0  0  0  0  0  0  0  0  0  0  0
   38.4860    9.2650   45.2620 H   0  0  0  0  0  0  0  0  0  0  0  0
   40.0090   13.7000   46.7550 H   0  0  0  0  0  0  0  0  0  0  0  0
   37.6030   13.2370   46.6450 H   0  0  0  0  0  0  0  0  0  0  0  0
   41.5720    9.6240   40.7200 H   0  0  0  0  0  0  0  0  0  0  0  0
   41.1590   11.8940   41.7210 H   0  0  0  0  0  0  0  0  0  0  0  0
   40.1470   11.8000   43.1750 H   0  0  0  0  0  0  0  0  0  0  0  0
   41.9690   12.1170   43.2820 H   0  0  0  0  0  0  0  0  0  0  0  0
   42.5560    5.4850   46.4910 H   0  0  0  0  0  0  0  0  0  0  0  0
   41.3630    6.2070   47.6260 H   0  0  0  0  0  0  0  0  0  0  0  0
   43.4490   12.6770   47.3060 H   0  0  0  0  0  0  0  0  0  0  0  0
   43.4980   13.1550   45.5890 H   0  0  0  0  0  0  0  0  0  0  0  0
   42.1840   13.8480   46.6460 H   0  0  0  0  0  0  0  0  0  0  0  0
  1  2  1  0  0  0  0
  2  7  1  0  0  0  0
  3  4  1  0  0  0  0
  3  2  2  0  0  0  0
  4  5  2  0  0  0  0
  5  8  1  0  0  0  0
  5  6  1  0  0  0  0
  6 26  1  0  0  0  0
  7  6  2  0  0  0  0
  7 27  1  0  0  0  0
  8 24  1  0  0  0  0
  9  8  1  0  0  0  0
 10  9  2  0  0  0  0
 11 12  1  6  0  0  0
 11  9  1  0  0  0  0
 11  4  1  0  0  0  0
 11 20  1  0  0  0  0
 13 12  1  0  0  0  0
 13 18  1  0  0  0  0
 14 13  2  0  0  0  0
 15 14  1  0  0  0  0
 15 16  1  0  0  0  0
 16 17  1  0  0  0  0
 16 12  2  0  0  0  0
 17 30  1  0  0  0  0
 17 31  1  0  0  0  0
 18 19  1  0  0  0  0
 19 20  2  0  0  0  0
 19 23  1  0  0  0  0
 20 21  1  0  0  0  0
 21 22  3  0  0  0  0
 23 33  1  0  0  0  0
 24 36  1  0  0  0  0
 24 34  1  0  0  0  0
 25  3  1  0  0  0  0
 28 15  1  0  0  0  0
 29 17  1  0  0  0  0
 32 23  1  0  0  0  0
 35 24  1  0  0  0  0
M  END
>  <Pose>
1

>  <Score>
-4.92

$$$$
