
 OpenBabel03172210433D

 39 42  0  0  1  0  0  0  0  0999 V2000
   39.8580    8.9210   49.3290 B   0  0  0  0  0  0  0  0  0  0  0  0
   41.2940    9.9210   48.5820 C   0  0  0  0  0  0  0  0  0  0  0  0
   41.3460   10.1350   47.2220 C   0  0  0  0  0  0  0  0  0  0  0  0
   42.3910   10.8670   46.6490 C   0  0  0  0  0  0  0  0  0  0  0  0
   43.3470   11.3570   47.4790 C   0  0  0  0  0  0  0  0  0  0  0  0
   43.2930   11.1370   48.8710 C   0  0  0  0  0  0  0  0  0  0  0  0
   42.2610   10.4160   49.4270 C   0  0  0  0  0  0  0  0  0  0  0  0
   44.3090   12.0630   46.7070 N   0  0  0  0  0  0  0  0  0  0  0  0
   43.9520   12.0190   45.3470 C   0  0  0  0  0  0  0  0  0  0  0  0
   44.5630   12.5320   44.3760 O   0  0  0  0  0  0  0  0  0  0  0  0
   42.6850   11.2390   45.2330 C   0  0  1  0  0  0  0  0  0  0  0  0
   42.8760   10.0460   44.4000 C   0  0  0  0  0  0  0  0  0  0  0  0
   42.0940    9.7980   43.3200 C   0  0  0  0  0  0  0  0  0  0  0  0
   41.0740   10.6890   42.9700 O   0  0  0  0  0  0  0  0  0  0  0  0
   40.8530   11.8270   43.7200 C   0  0  0  0  0  0  0  0  0  0  0  0
   41.5870   12.0870   44.7590 C   0  0  0  0  0  0  0  0  0  0  0  0
   41.2820   13.3200   45.4980 C   0  0  0  0  0  0  0  0  0  0  0  0
   41.0430   14.2710   46.0780 N   0  0  0  0  0  0  0  0  0  0  0  0
   39.7870   12.6950   43.3000 N   0  0  0  0  0  0  0  0  0  0  0  0
   42.3120    8.6480   42.5560 C   0  0  0  0  0  0  0  0  0  0  0  0
   41.5860    8.4330   41.5640 O   0  0  0  0  0  0  0  0  0  0  0  0
   43.3190    7.7830   42.9120 C   0  0  0  0  0  0  0  0  0  0  0  0
   44.0820    8.0850   44.0200 C   0  0  0  0  0  0  0  0  0  0  0  0
   43.8340    9.1610   44.6870 O   0  0  0  0  0  0  0  0  0  0  0  0
   45.1970    7.1470   44.4330 C   0  0  0  0  0  0  0  0  0  0  0  0
   45.5700    7.4330   45.7460 O   0  0  0  0  0  0  0  0  0  0  0  0
   45.4880   12.7250   47.2990 C   0  0  0  0  0  0  0  0  0  0  0  0
   40.6010    9.7590   46.5300 H   0  0  0  0  0  0  0  0  0  0  0  0
   44.0640   11.5350   49.5290 H   0  0  0  0  0  0  0  0  0  0  0  0
   42.2200   10.2470   50.5060 H   0  0  0  0  0  0  0  0  0  0  0  0
   38.9270   12.2780   42.9500 H   0  0  0  0  0  0  0  0  0  0  0  0
   39.9290   13.7020   43.3660 H   0  0  0  0  0  0  0  0  0  0  0  0
   43.5420    6.8780   42.3680 H   0  0  0  0  0  0  0  0  0  0  0  0
   44.8900    6.1040   44.3530 H   0  0  0  0  0  0  0  0  0  0  0  0
   46.1110    7.3570   43.8100 H   0  0  0  0  0  0  0  0  0  0  0  0
   45.9140    8.3750   45.7910 H   0  0  0  0  0  0  0  0  0  0  0  0
   45.3420   12.8610   48.3870 H   0  0  0  0  0  0  0  0  0  0  0  0
   46.3630   12.0770   47.1220 H   0  0  0  0  0  0  0  0  0  0  0  0
   45.6020   13.7430   46.8460 H   0  0  0  0  0  0  0  0  0  0  0  0
  2  1  1  0  0  0  0
  2  7  1  0  0  0  0
  3  2  2  0  0  0  0
  4  3  1  0  0  0  0
  4  5  2  0  0  0  0
  5  6  1  0  0  0  0
  6  7  2  0  0  0  0
  6 29  1  0  0  0  0
  7 30  1  0  0  0  0
  8 27  1  0  0  0  0
  8  5  1  0  0  0  0
  9  8  1  0  0  0  0
 10  9  2  0  0  0  0
 11 12  1  6  0  0  0
 11  9  1  0  0  0  0
 11  4  1  0  0  0  0
 12 24  1  0  0  0  0
 13 12  2  0  0  0  0
 14 13  1  0  0  0  0
 14 15  1  0  0  0  0
 15 16  2  0  0  0  0
 16 11  1  0  0  0  0
 16 17  1  0  0  0  0
 17 18  3  0  0  0  0
 19 32  1  0  0  0  0
 19 15  1  0  0  0  0
 20 22  1  0  0  0  0
 20 13  1  0  0  0  0
 21 20  2  0  0  0  0
 22 23  2  0  0  0  0
 23 25  1  0  0  0  0
 23 24  1  0  0  0  0
 25 26  1  0  0  0  0
 26 36  1  0  0  0  0
 27 37  1  0  0  0  0
 28  3  1  0  0  0  0
 31 19  1  0  0  0  0
 33 22  1  0  0  0  0
 34 25  1  0  0  0  0
 35 25  1  0  0  0  0
 38 27  1  0  0  0  0
 39 27  1  0  0  0  0
M  END
>  <Pose>
1

>  <Score>
-4.67

$$$$
