
 OpenBabel03172210433D

 41 44  0  0  0  0  0  0  0  0999 V2000
   50.1720    4.0420   46.7190 B   0  0  0  0  0  0  0  0  0  0  0  0
   49.3700    3.9280   45.0030 C   0  0  0  0  0  0  0  0  0  0  0  0
   48.5490    4.9070   44.5200 C   0  0  0  0  0  0  0  0  0  0  0  0
   47.9700    4.8110   43.2740 C   0  0  0  0  0  0  0  0  0  0  0  0
   48.1790    3.7460   42.4550 C   0  0  0  0  0  0  0  0  0  0  0  0
   49.0180    2.7390   42.9410 C   0  0  0  0  0  0  0  0  0  0  0  0
   49.5980    2.8300   44.1820 C   0  0  0  0  0  0  0  0  0  0  0  0
   47.4790    3.8760   41.2360 N   0  0  0  0  0  0  0  0  0  0  0  0
   46.7520    5.1070   41.2440 C   0  0  0  0  0  0  0  0  0  0  0  0
   46.0150    5.6160   40.3970 O   0  0  0  0  0  0  0  0  0  0  0  0
   47.0630    5.7250   42.5680 C   0  0  0  0  0  0  0  0  0  0  0  0
   46.6060    6.7840   42.8670 N   0  0  0  0  0  0  0  0  0  0  0  0
   45.7950    7.7610   42.4130 N   0  0  0  0  0  0  0  0  0  0  0  0
   44.4510    7.8220   42.8260 C   0  0  0  0  0  0  0  0  0  0  0  0
   43.8550    6.7230   43.1080 O   0  0  0  0  0  0  0  0  0  0  0  0
   43.6220    9.0200   42.9900 C   0  0  0  0  0  0  0  0  0  0  0  0
   44.2850   10.1890   43.4950 N   0  0  0  0  0  0  0  0  0  0  0  0
   43.5860   11.1830   44.2350 C   0  0  0  0  0  0  0  0  0  0  0  0
   44.2890   12.2020   44.6060 O   0  0  0  0  0  0  0  0  0  0  0  0
   42.2030   11.1550   44.6010 C   0  0  0  0  0  0  0  0  0  0  0  0
   41.6080   10.2110   45.4250 C   0  0  0  0  0  0  0  0  0  0  0  0
   40.2920   10.2470   45.7390 C   0  0  0  0  0  0  0  0  0  0  0  0
   39.4680   11.2390   45.2470 C   0  0  0  0  0  0  0  0  0  0  0  0
   40.0070   12.1840   44.4320 C   0  0  0  0  0  0  0  0  0  0  0  0
   41.3700   12.1650   44.0980 C   0  0  0  0  0  0  0  0  0  0  0  0
   38.1710   11.0280   45.7430 O   0  0  0  0  0  0  0  0  0  0  0  0
   38.4360   10.4210   47.0310 C   0  0  0  0  0  0  0  0  0  0  0  0
   39.4200    9.4340   46.5540 O   0  0  0  0  0  0  0  0  0  0  0  0
   48.3480    5.7670   45.1160 H   0  0  0  0  0  0  0  0  0  0  0  0
   49.1940    1.9000   42.3240 H   0  0  0  0  0  0  0  0  0  0  0  0
   50.2550    2.0810   44.5950 H   0  0  0  0  0  0  0  0  0  0  0  0
   47.4630    3.2020   40.4340 H   0  0  0  0  0  0  0  0  0  0  0  0
   46.1580    8.4910   41.7410 H   0  0  0  0  0  0  0  0  0  0  0  0
   43.2360    9.2920   41.9700 H   0  0  0  0  0  0  0  0  0  0  0  0
   42.7380    8.7850   43.6230 H   0  0  0  0  0  0  0  0  0  0  0  0
   45.2870   10.3660   43.3290 H   0  0  0  0  0  0  0  0  0  0  0  0
   42.2330    9.3960   45.8330 H   0  0  0  0  0  0  0  0  0  0  0  0
   39.3550   12.9800   44.0290 H   0  0  0  0  0  0  0  0  0  0  0  0
   41.7950   12.8840   43.4730 H   0  0  0  0  0  0  0  0  0  0  0  0
   37.6030    9.9740   47.5120 H   0  0  0  0  0  0  0  0  0  0  0  0
   38.9570   11.1440   47.6620 H   0  0  0  0  0  0  0  0  0  0  0  0
  2  1  1  0  0  0  0
  3  2  1  0  0  0  0
  3 29  1  0  0  0  0
  4  3  2  0  0  0  0
  5  6  2  0  0  0  0
  5  4  1  0  0  0  0
  6  7  1  0  0  0  0
  7 31  1  0  0  0  0
  7  2  2  0  0  0  0
  8  9  1  0  0  0  0
  8  5  1  0  0  0  0
  9 11  1  0  0  0  0
 10  9  2  0  0  0  0
 11 12  2  0  0  0  0
 11  4  1  0  0  0  0
 13 14  1  0  0  0  0
 13 12  1  0  0  0  0
 14 16  1  0  0  0  0
 14 15  2  0  0  0  0
 16 17  1  0  0  0  0
 16 35  1  0  0  0  0
 17 18  1  0  0  0  0
 18 20  1  0  0  0  0
 18 19  2  0  0  0  0
 20 21  1  0  0  0  0
 21 22  2  0  0  0  0
 21 37  1  0  0  0  0
 22 28  1  0  0  0  0
 23 22  1  0  0  0  0
 23 26  1  0  0  0  0
 24 23  2  0  0  0  0
 25 24  1  0  0  0  0
 25 20  2  0  0  0  0
 26 27  1  0  0  0  0
 27 40  1  0  0  0  0
 27 41  1  0  0  0  0
 28 27  1  0  0  0  0
 30  6  1  0  0  0  0
 32  8  1  0  0  0  0
 33 13  1  0  0  0  0
 34 16  1  0  0  0  0
 36 17  1  0  0  0  0
 38 24  1  0  0  0  0
 39 25  1  0  0  0  0
M  END
>  <Pose>
1

>  <Score>
-7.90

$$$$
