
 OpenBabel03172210433D

 51 56  0  0  1  0  0  0  0  0999 V2000
   43.0870   10.7640   50.1260 B   0  0  0  0  0  0  0  0  0  0  0  0
   42.5880    9.4170   48.8710 C   0  0  0  0  0  0  0  0  0  0  0  0
   42.6870    9.6120   47.4990 C   0  0  0  0  0  0  0  0  0  0  0  0
   42.3270    8.6410   46.6040 C   0  0  0  0  0  0  0  0  0  0  0  0
   41.8560    7.4440   47.1210 C   0  0  0  0  0  0  0  0  0  0  0  0
   41.7550    7.2430   48.4820 C   0  0  0  0  0  0  0  0  0  0  0  0
   42.1190    8.2260   49.3720 C   0  0  0  0  0  0  0  0  0  0  0  0
   41.5310    6.5430   46.0600 N   0  0  0  0  0  0  0  0  0  0  0  0
   41.8000    7.1790   44.8290 C   0  0  0  0  0  0  0  0  0  0  0  0
   41.6260    6.6550   43.7190 O   0  0  0  0  0  0  0  0  0  0  0  0
   42.3060    8.5310   45.1470 C   0  0  1  0  0  0  0  0  0  0  0  0
   41.4730    9.4690   44.4560 N   0  0  2  0  0  0  0  0  0  0  0  0
   41.9160    9.3800   43.0660 C   0  0  2  0  0  0  0  0  0  0  0  0
   43.3770    9.0750   43.1090 C   0  0  1  0  0  0  0  0  0  0  0  0
   43.6630    8.7960   44.5440 C   0  0  2  0  0  0  0  0  0  0  0  0
   44.5370    7.6270   44.5340 C   0  0  0  0  0  0  0  0  0  0  0  0
   45.1340    7.1400   45.5200 O   0  0  0  0  0  0  0  0  0  0  0  0
   44.6130    7.1120   43.2280 N   0  0  0  0  0  0  0  0  0  0  0  0
   43.7220    7.8260   42.3570 C   0  0  0  0  0  0  0  0  0  0  0  0
   43.3040    7.5040   41.2170 O   0  0  0  0  0  0  0  0  0  0  0  0
   45.4460    6.0340   42.7960 C   0  0  0  0  0  0  0  0  0  0  0  0
   46.4560    5.5760   43.7830 C   0  0  2  0  0  0  0  0  0  0  0  0
   47.6440    6.2970   43.7480 O   0  0  0  0  0  0  0  0  0  0  0  0
   48.4980    5.5600   44.5570 C   0  0  0  0  0  0  0  0  0  0  0  0
   48.2030    4.1080   44.3480 C   0  0  0  0  0  0  0  0  0  0  0  0
   46.8100    4.1300   43.7190 C   0  0  0  0  0  0  0  0  0  0  0  0
   41.7380   10.7780   42.4930 C   0  0  0  0  0  0  0  0  0  0  0  0
   41.1460   11.6140   43.6090 C   0  0  0  0  0  0  0  0  0  0  0  0
   41.6770   10.8520   44.8310 C   0  0  0  0  0  0  0  0  0  0  0  0
   43.0690   10.5880   47.1940 H   0  0  0  0  0  0  0  0  0  0  0  0
   41.3830    6.3010   48.9120 H   0  0  0  0  0  0  0  0  0  0  0  0
   42.0350    8.0560   50.4610 H   0  0  0  0  0  0  0  0  0  0  0  0
   41.1490    5.5610   46.1990 H   0  0  0  0  0  0  0  0  0  0  0  0
   41.3220    8.6410   42.5080 H   0  0  0  0  0  0  0  0  0  0  0  0
   43.9910    9.9230   42.7010 H   0  0  0  0  0  0  0  0  0  0  0  0
   44.0960    9.6670   45.0740 H   0  0  0  0  0  0  0  0  0  0  0  0
   44.7840    5.1720   42.5600 H   0  0  0  0  0  0  0  0  0  0  0  0
   45.9850    6.2570   41.8420 H   0  0  0  0  0  0  0  0  0  0  0  0
   46.0230    5.7630   44.8060 H   0  0  0  0  0  0  0  0  0  0  0  0
   49.5410    5.7420   44.1690 H   0  0  0  0  0  0  0  0  0  0  0  0
   48.4680    5.8770   45.6180 H   0  0  0  0  0  0  0  0  0  0  0  0
   48.1870    3.5240   45.2910 H   0  0  0  0  0  0  0  0  0  0  0  0
   48.8820    3.6600   43.5930 H   0  0  0  0  0  0  0  0  0  0  0  0
   46.7990    3.6800   42.7280 H   0  0  0  0  0  0  0  0  0  0  0  0
   46.1080    3.5170   44.3570 H   0  0  0  0  0  0  0  0  0  0  0  0
   41.1380   10.7860   41.5770 H   0  0  0  0  0  0  0  0  0  0  0  0
   42.7220   11.2420   42.2300 H   0  0  0  0  0  0  0  0  0  0  0  0
   40.0550   11.6350   43.6120 H   0  0  0  0  0  0  0  0  0  0  0  0
   41.5350   12.6310   43.6490 H   0  0  0  0  0  0  0  0  0  0  0  0
   41.1120   11.1600   45.7110 H   0  0  0  0  0  0  0  0  0  0  0  0
   42.7280   11.1530   44.9140 H   0  0  0  0  0  0  0  0  0  0  0  0
  2  7  1  0  0  0  0
  2  1  1  0  0  0  0
  3  2  2  0  0  0  0
  4  5  2  0  0  0  0
  4  3  1  0  0  0  0
  5  6  1  0  0  0  0
  6 31  1  0  0  0  0
  6  7  2  0  0  0  0
  7 32  1  0  0  0  0
  8 33  1  0  0  0  0
  8  5  1  0  0  0  0
  9  8  1  0  0  0  0
 10  9  2  0  0  0  0
 11  9  1  6  0  0  0
 11  4  1  0  0  0  0
 12 29  1  1  0  0  0
 12 11  1  0  0  0  0
 13 34  1  6  0  0  0
 13 14  1  0  0  0  0
 13 12  1  0  0  0  0
 14 35  1  6  0  0  0
 14 15  1  0  0  0  0
 15 36  1  1  0  0  0
 15 11  1  0  0  0  0
 16 15  1  0  0  0  0
 16 17  2  0  0  0  0
 18 16  1  0  0  0  0
 19 14  1  0  0  0  0
 19 18  1  0  0  0  0
 20 19  2  0  0  0  0
 21 18  1  0  0  0  0
 21 22  1  0  0  0  0
 22 39  1  1  0  0  0
 23 22  1  0  0  0  0
 23 24  1  0  0  0  0
 24 41  1  0  0  0  0
 25 24  1  0  0  0  0
 25 42  1  0  0  0  0
 26 22  1  0  0  0  0
 26 25  1  0  0  0  0
 26 45  1  0  0  0  0
 27 13  1  0  0  0  0
 27 28  1  0  0  0  0
 28 48  1  0  0  0  0
 28 49  1  0  0  0  0
 28 29  1  0  0  0  0
 29 51  1  0  0  0  0
 29 50  1  0  0  0  0
 30  3  1  0  0  0  0
 37 21  1  0  0  0  0
 38 21  1  0  0  0  0
 40 24  1  0  0  0  0
 43 25  1  0  0  0  0
 44 26  1  0  0  0  0
 46 27  1  0  0  0  0
 47 27  1  0  0  0  0
M  END
>  <Pose>
1

>  <Score>
-5.01

$$$$
