
 OpenBabel03172210433D

 41 44  0  0  1  0  0  0  0  0999 V2000
   39.7310    8.6840   49.4400 B   0  0  0  0  0  0  0  0  0  0  0  0
   41.1690    9.4450   48.4440 C   0  0  0  0  0  0  0  0  0  0  0  0
   40.9530    9.6740   47.1070 C   0  0  0  0  0  0  0  0  0  0  0  0
   41.9770   10.2320   46.3340 C   0  0  0  0  0  0  0  0  0  0  0  0
   43.1620   10.5320   46.9220 C   0  0  0  0  0  0  0  0  0  0  0  0
   43.4040   10.3050   48.2900 C   0  0  0  0  0  0  0  0  0  0  0  0
   42.3800    9.7570   49.0250 C   0  0  0  0  0  0  0  0  0  0  0  0
   44.0660   11.0780   45.9780 N   0  0  0  0  0  0  0  0  0  0  0  0
   43.4130   11.1180   44.7450 C   0  0  0  0  0  0  0  0  0  0  0  0
   43.8940   11.5390   43.6220 O   0  0  0  0  0  0  0  0  0  0  0  0
   42.0300   10.5830   44.9240 C   0  0  2  0  0  0  0  0  0  0  0  0
   41.1410   11.6220   44.4740 C   0  0  0  0  0  0  0  0  0  0  0  0
   40.3910   11.4720   43.3690 C   0  0  0  0  0  0  0  0  0  0  0  0
   39.6640   12.6290   43.2200 N   0  0  0  0  0  0  0  0  0  0  0  0
   39.9700   13.4440   44.2060 N   0  0  0  0  0  0  0  0  0  0  0  0
   40.8730   12.8940   45.0190 C   0  0  0  0  0  0  0  0  0  0  0  0
   41.4910   13.4690   46.2490 C   0  0  0  0  0  0  0  0  0  0  0  0
   40.4090   10.3130   42.5720 O   0  0  0  0  0  0  0  0  0  0  0  0
   41.2620    9.2980   42.9890 C   0  0  0  0  0  0  0  0  0  0  0  0
   42.0090    9.3870   44.0470 C   0  0  0  0  0  0  0  0  0  0  0  0
   42.8900    8.2380   44.4070 C   0  0  0  0  0  0  0  0  0  0  0  0
   42.3750    7.2770   45.0050 O   0  0  0  0  0  0  0  0  0  0  0  0
   44.2240    8.1950   44.1100 O   0  0  0  0  0  0  0  0  0  0  0  0
   44.7990    7.3860   43.1110 C   0  0  0  0  0  0  0  0  0  0  0  0
   46.2850    7.7520   43.0320 C   0  0  0  0  0  0  0  0  0  0  0  0
   41.3370    8.0750   42.2220 N   0  0  0  0  0  0  0  0  0  0  0  0
   39.9950    9.4320   46.6300 H   0  0  0  0  0  0  0  0  0  0  0  0
   44.3440   10.5460   48.7490 H   0  0  0  0  0  0  0  0  0  0  0  0
   42.5120    9.5620   50.0810 H   0  0  0  0  0  0  0  0  0  0  0  0
   45.0600   11.4060   46.1400 H   0  0  0  0  0  0  0  0  0  0  0  0
   38.9840   12.8250   42.4510 H   0  0  0  0  0  0  0  0  0  0  0  0
   40.9980   14.4270   46.5100 H   0  0  0  0  0  0  0  0  0  0  0  0
   42.5430   13.7090   45.9940 H   0  0  0  0  0  0  0  0  0  0  0  0
   41.3840   12.8120   47.1270 H   0  0  0  0  0  0  0  0  0  0  0  0
   44.3090    7.4910   42.1390 H   0  0  0  0  0  0  0  0  0  0  0  0
   44.7600    6.3260   43.4430 H   0  0  0  0  0  0  0  0  0  0  0  0
   46.6700    8.0420   44.0300 H   0  0  0  0  0  0  0  0  0  0  0  0
   46.8920    6.9030   42.6650 H   0  0  0  0  0  0  0  0  0  0  0  0
   46.4070    8.5770   42.2910 H   0  0  0  0  0  0  0  0  0  0  0  0
   40.8990    8.0590   41.2980 H   0  0  0  0  0  0  0  0  0  0  0  0
   41.8200    7.2680   42.6170 H   0  0  0  0  0  0  0  0  0  0  0  0
  2  7  1  0  0  0  0
  2  1  1  0  0  0  0
  3  2  2  0  0  0  0
  4  5  2  0  0  0  0
  4  3  1  0  0  0  0
  5  6  1  0  0  0  0
  6 28  1  0  0  0  0
  6  7  2  0  0  0  0
  7 29  1  0  0  0  0
  8 30  1  0  0  0  0
  8  5  1  0  0  0  0
  9 11  1  0  0  0  0
  9  8  1  0  0  0  0
 10  9  2  0  0  0  0
 11 20  1  6  0  0  0
 11  4  1  0  0  0  0
 12 11  1  0  0  0  0
 12 16  1  0  0  0  0
 13 12  2  0  0  0  0
 14 13  1  0  0  0  0
 14 15  1  0  0  0  0
 15 16  2  0  0  0  0
 16 17  1  0  0  0  0
 17 32  1  0  0  0  0
 17 34  1  0  0  0  0
 18 19  1  0  0  0  0
 18 13  1  0  0  0  0
 19 20  2  0  0  0  0
 20 21  1  0  0  0  0
 21 22  2  0  0  0  0
 23 21  1  0  0  0  0
 24 36  1  0  0  0  0
 24 23  1  0  0  0  0
 25 24  1  0  0  0  0
 25 37  1  0  0  0  0
 26 41  1  0  0  0  0
 26 19  1  0  0  0  0
 27  3  1  0  0  0  0
 31 14  1  0  0  0  0
 33 17  1  0  0  0  0
 35 24  1  0  0  0  0
 38 25  1  0  0  0  0
 39 25  1  0  0  0  0
 40 26  1  0  0  0  0
M  END
>  <Pose>
1

>  <Score>
-5.85

$$$$
