
 OpenBabel03172210433D

 38 41  0  0  1  0  0  0  0  0999 V2000
   46.7160    7.7730   42.9640 B   0  0  0  0  0  0  0  0  0  0  0  0
   45.0780    7.4130   43.8550 C   0  0  0  0  0  0  0  0  0  0  0  0
   44.3660    8.4080   44.5320 C   0  0  0  0  0  0  0  0  0  0  0  0
   43.1850    8.1400   45.1720 C   0  0  0  0  0  0  0  0  0  0  0  0
   42.6880    6.8700   45.1520 C   0  0  0  0  0  0  0  0  0  0  0  0
   43.3650    5.8370   44.4870 C   0  0  0  0  0  0  0  0  0  0  0  0
   44.5470    6.1370   43.8530 C   0  0  0  0  0  0  0  0  0  0  0  0
   41.4660    6.7940   45.8660 N   0  0  0  0  0  0  0  0  0  0  0  0
   41.1860    8.0820   46.3570 C   0  0  0  0  0  0  0  0  0  0  0  0
   40.1960    8.4510   47.0430 O   0  0  0  0  0  0  0  0  0  0  0  0
   42.2670    9.0010   45.9390 C   0  0  1  0  0  0  0  0  0  0  0  0
   42.9480    9.5560   47.1540 C   0  0  0  0  0  0  0  0  0  0  0  0
   43.0910   10.8250   47.4280 C   0  0  0  0  0  0  0  0  0  0  0  0
   42.5680   11.7710   46.5150 N   0  0  0  0  0  0  0  0  0  0  0  0
   41.9060   11.3390   45.3370 C   0  0  0  0  0  0  0  0  0  0  0  0
   41.7610   10.0670   45.0580 C   0  0  0  0  0  0  0  0  0  0  0  0
   41.0650    9.7050   43.8200 C   0  0  0  0  0  0  0  0  0  0  0  0
   40.5290    9.4300   42.8320 N   0  0  0  0  0  0  0  0  0  0  0  0
   41.3760   12.3290   44.4130 N   0  0  0  0  0  0  0  0  0  0  0  0
   43.8170   10.9500   48.7160 C   0  0  0  0  0  0  0  0  0  0  0  0
   44.0830    9.6460   49.1670 O   0  0  0  0  0  0  0  0  0  0  0  0
   43.5650    8.7680   48.2350 C   0  0  0  0  0  0  0  0  0  0  0  0
   43.6220    7.4930   48.3150 O   0  0  0  0  0  0  0  0  0  0  0  0
   42.9280   11.5980   49.7800 C   0  0  0  0  0  0  0  0  0  0  0  0
   45.0970   11.7560   48.5480 C   0  0  0  0  0  0  0  0  0  0  0  0
   44.8050    9.3980   44.5180 H   0  0  0  0  0  0  0  0  0  0  0  0
   43.0040    4.8270   44.4490 H   0  0  0  0  0  0  0  0  0  0  0  0
   45.0740    5.3370   43.3360 H   0  0  0  0  0  0  0  0  0  0  0  0
   40.8800    5.9110   45.9950 H   0  0  0  0  0  0  0  0  0  0  0  0
   42.6540   12.8060   46.6840 H   0  0  0  0  0  0  0  0  0  0  0  0
   41.9620   13.0390   43.9440 H   0  0  0  0  0  0  0  0  0  0  0  0
   40.3610   12.3120   44.2230 H   0  0  0  0  0  0  0  0  0  0  0  0
   43.3560   11.2850   50.7560 H   0  0  0  0  0  0  0  0  0  0  0  0
   42.9780   12.6900   49.7390 H   0  0  0  0  0  0  0  0  0  0  0  0
   41.9180   11.1820   49.7140 H   0  0  0  0  0  0  0  0  0  0  0  0
   45.0330   12.7240   49.0970 H   0  0  0  0  0  0  0  0  0  0  0  0
   45.9260   11.1320   48.9760 H   0  0  0  0  0  0  0  0  0  0  0  0
   45.3080   11.9030   47.4780 H   0  0  0  0  0  0  0  0  0  0  0  0
  1  2  1  0  0  0  0
  2  3  1  0  0  0  0
  3  4  2  0  0  0  0
  4 11  1  0  0  0  0
  5  4  1  0  0  0  0
  5  8  1  0  0  0  0
  6  5  2  0  0  0  0
  7  2  2  0  0  0  0
  7  6  1  0  0  0  0
  8 29  1  0  0  0  0
  8  9  1  0  0  0  0
  9 10  2  0  0  0  0
 11 16  1  6  0  0  0
 11  9  1  0  0  0  0
 11 12  1  0  0  0  0
 12 13  2  0  0  0  0
 12 22  1  0  0  0  0
 13 20  1  0  0  0  0
 14 30  1  0  0  0  0
 14 13  1  0  0  0  0
 15 14  1  0  0  0  0
 16 15  2  0  0  0  0
 17 16  1  0  0  0  0
 18 17  3  0  0  0  0
 19 15  1  0  0  0  0
 20 21  1  0  0  0  0
 20 24  1  0  0  0  0
 22 23  2  0  0  0  0
 22 21  1  0  0  0  0
 24 33  1  0  0  0  0
 25 20  1  0  0  0  0
 25 37  1  0  0  0  0
 25 36  1  0  0  0  0
 26  3  1  0  0  0  0
 27  6  1  0  0  0  0
 28  7  1  0  0  0  0
 31 19  1  0  0  0  0
 32 19  1  0  0  0  0
 34 24  1  0  0  0  0
 35 24  1  0  0  0  0
 38 25  1  0  0  0  0
M  END
>  <Pose>
1

>  <Score>
-4.50

$$$$
