
 OpenBabel03172210433D

 49 52  0  0  1  0  0  0  0  0999 V2000
   41.0940   14.5960   46.5260 B   0  0  0  0  0  0  0  0  0  0  0  0
   40.8240   13.2270   45.2240 C   0  0  0  0  0  0  0  0  0  0  0  0
   41.4140   11.9970   45.3670 C   0  0  0  0  0  0  0  0  0  0  0  0
   41.2230   10.9810   44.4130 C   0  0  0  0  0  0  0  0  0  0  0  0
   40.4420   11.1840   43.3100 C   0  0  0  0  0  0  0  0  0  0  0  0
   39.8380   12.4420   43.1640 C   0  0  0  0  0  0  0  0  0  0  0  0
   40.0390   13.4210   44.1090 C   0  0  0  0  0  0  0  0  0  0  0  0
   40.3990   10.0200   42.4960 N   0  0  0  0  0  0  0  0  0  0  0  0
   41.1960    9.0370   43.1260 C   0  0  0  0  0  0  0  0  0  0  0  0
   41.3540    7.8730   42.6290 O   0  0  0  0  0  0  0  0  0  0  0  0
   41.7440    9.5980   44.3480 C   0  0  2  0  0  0  0  0  0  0  0  0
   41.4120    8.8360   45.5360 N   0  0  0  0  0  0  0  0  0  0  0  0
   42.4710    7.8540   45.6830 C   0  0  1  0  0  0  0  0  0  0  0  0
   43.6930    8.6610   45.3490 C   0  0  2  0  0  0  0  0  0  0  0  0
   43.2570    9.5930   44.2700 C   0  0  1  0  0  0  0  0  0  0  0  0
   43.7650    9.0170   43.0150 C   0  0  0  0  0  0  0  0  0  0  0  0
   43.4230    9.2880   41.8170 O   0  0  0  0  0  0  0  0  0  0  0  0
   44.7610    8.0460   43.3070 N   0  0  0  0  0  0  0  0  0  0  0  0
   44.7510    7.8520   44.7070 C   0  0  0  0  0  0  0  0  0  0  0  0
   45.5270    7.0950   45.3660 O   0  0  0  0  0  0  0  0  0  0  0  0
   45.6270    7.3760   42.3570 C   0  0  0  0  0  0  0  0  0  0  0  0
   45.6910    5.9000   42.5820 C   0  0  0  0  0  0  0  0  0  0  0  0
   47.1340    5.5760   42.9870 C   0  0  0  0  0  0  0  0  0  0  0  0
   47.5080    4.1920   42.5330 C   0  0  0  0  0  0  0  0  0  0  0  0
   42.4690    7.3320   47.0850 C   0  0  2  0  0  0  0  0  0  0  0  0
   41.9450    6.0340   47.0570 O   0  0  0  0  0  0  0  0  0  0  0  0
   41.5510    8.1630   47.9480 C   0  0  0  0  0  0  0  0  0  0  0  0
   42.0530   11.7700   46.2290 H   0  0  0  0  0  0  0  0  0  0  0  0
   39.2130   12.6080   42.2850 H   0  0  0  0  0  0  0  0  0  0  0  0
   39.5760   14.3990   44.0060 H   0  0  0  0  0  0  0  0  0  0  0  0
   39.8540    9.9590   41.5980 H   0  0  0  0  0  0  0  0  0  0  0  0
   40.4680    8.4100   45.4900 H   0  0  0  0  0  0  0  0  0  0  0  0
   42.3950    7.0380   44.9470 H   0  0  0  0  0  0  0  0  0  0  0  0
   44.0840    9.2260   46.2200 H   0  0  0  0  0  0  0  0  0  0  0  0
   43.6800   10.6120   44.4510 H   0  0  0  0  0  0  0  0  0  0  0  0
   45.3180    7.5500   41.3090 H   0  0  0  0  0  0  0  0  0  0  0  0
   46.6530    7.8000   42.4610 H   0  0  0  0  0  0  0  0  0  0  0  0
   45.5350    5.3560   41.6160 H   0  0  0  0  0  0  0  0  0  0  0  0
   44.9730    5.5020   43.2960 H   0  0  0  0  0  0  0  0  0  0  0  0
   47.7630    6.3150   42.4260 H   0  0  0  0  0  0  0  0  0  0  0  0
   47.2940    5.7440   44.0620 H   0  0  0  0  0  0  0  0  0  0  0  0
   46.6660    3.4840   42.5400 H   0  0  0  0  0  0  0  0  0  0  0  0
   47.8970    4.2120   41.4790 H   0  0  0  0  0  0  0  0  0  0  0  0
   48.3540    3.8350   43.1520 H   0  0  0  0  0  0  0  0  0  0  0  0
   43.4950    7.3480   47.5070 H   0  0  0  0  0  0  0  0  0  0  0  0
   41.1070    6.0010   46.5280 H   0  0  0  0  0  0  0  0  0  0  0  0
   42.0910    9.0630   48.3010 H   0  0  0  0  0  0  0  0  0  0  0  0
   40.6600    8.4090   47.3550 H   0  0  0  0  0  0  0  0  0  0  0  0
   41.3170    7.5510   48.8580 H   0  0  0  0  0  0  0  0  0  0  0  0
  2  3  1  0  0  0  0
  2  1  1  0  0  0  0
  3 28  1  0  0  0  0
  4  3  2  0  0  0  0
  5  4  1  0  0  0  0
  6  5  2  0  0  0  0
  6  7  1  0  0  0  0
  7  2  2  0  0  0  0
  8  9  1  0  0  0  0
  8  5  1  0  0  0  0
 10  9  2  0  0  0  0
 11  9  1  6  0  0  0
 11  4  1  0  0  0  0
 11 12  1  0  0  0  0
 12 13  1  0  0  0  0
 13 33  1  6  0  0  0
 13 25  1  0  0  0  0
 14 13  1  0  0  0  0
 14 34  1  1  0  0  0
 15 11  1  0  0  0  0
 15 35  1  1  0  0  0
 15 14  1  0  0  0  0
 16 18  1  0  0  0  0
 16 15  1  0  0  0  0
 17 16  2  0  0  0  0
 18 19  1  0  0  0  0
 19 14  1  0  0  0  0
 19 20  2  0  0  0  0
 21 37  1  0  0  0  0
 21 22  1  0  0  0  0
 21 18  1  0  0  0  0
 22 23  1  0  0  0  0
 22 39  1  0  0  0  0
 23 41  1  0  0  0  0
 24 42  1  0  0  0  0
 24 23  1  0  0  0  0
 24 44  1  0  0  0  0
 25 45  1  1  0  0  0
 25 27  1  0  0  0  0
 26 25  1  0  0  0  0
 27 47  1  0  0  0  0
 27 49  1  0  0  0  0
 29  6  1  0  0  0  0
 30  7  1  0  0  0  0
 31  8  1  0  0  0  0
 32 12  1  0  0  0  0
 36 21  1  0  0  0  0
 38 22  1  0  0  0  0
 40 23  1  0  0  0  0
 43 24  1  0  0  0  0
 46 26  1  0  0  0  0
 48 27  1  0  0  0  0
M  END
>  <Pose>
1

>  <Score>
-5.55

$$$$
