
 OpenBabel03172210433D

 53 57  0  0  1  0  0  0  0  0999 V2000
   45.3190    7.0180   43.9350 B   0  0  0  0  0  0  0  0  0  0  0  0
   43.6810    7.9650   43.6760 C   0  0  0  0  0  0  0  0  0  0  0  0
   43.0100    8.5810   44.7080 C   0  0  0  0  0  0  0  0  0  0  0  0
   41.8030    9.2700   44.5130 C   0  0  0  0  0  0  0  0  0  0  0  0
   41.3020    9.3130   43.2340 C   0  0  0  0  0  0  0  0  0  0  0  0
   41.9740    8.6950   42.1890 C   0  0  0  0  0  0  0  0  0  0  0  0
   43.1570    8.0210   42.3930 C   0  0  0  0  0  0  0  0  0  0  0  0
   40.0800   10.0250   43.1930 N   0  0  0  0  0  0  0  0  0  0  0  0
   39.7940   10.4510   44.5060 C   0  0  0  0  0  0  0  0  0  0  0  0
   38.7590   11.1160   44.7950 O   0  0  0  0  0  0  0  0  0  0  0  0
   40.8800    9.9870   45.3940 C   0  0  1  0  0  0  0  0  0  0  0  0
   40.3490    9.0970   46.4310 N   0  0  0  0  0  0  0  0  0  0  0  0
   41.1740    9.3230   47.5960 C   0  0  1  0  0  0  0  0  0  0  0  0
   41.7360   10.6870   47.5050 C   0  0  2  0  0  0  0  0  0  0  0  0
   41.4200   11.1720   46.1020 C   0  0  1  0  0  0  0  0  0  0  0  0
   42.6570   11.7620   45.6040 C   0  0  0  0  0  0  0  0  0  0  0  0
   42.8720   12.1720   44.4370 O   0  0  0  0  0  0  0  0  0  0  0  0
   43.6420   11.8170   46.6590 N   0  0  0  0  0  0  0  0  0  0  0  0
   43.2060   10.7970   47.5820 C   0  0  0  0  0  0  0  0  0  0  0  0
   43.9600   10.1350   48.3110 O   0  0  0  0  0  0  0  0  0  0  0  0
   44.7680   12.6830   46.8020 C   0  0  0  0  0  0  0  0  0  0  0  0
   44.4740   14.1550   46.7900 C   0  0  0  0  0  0  0  0  0  0  0  0
   45.4760   14.9830   46.0960 C   0  0  0  0  0  0  0  0  0  0  0  0
   46.1080   14.4820   44.9650 C   0  0  0  0  0  0  0  0  0  0  0  0
   47.0120   15.2440   44.3030 C   0  0  0  0  0  0  0  0  0  0  0  0
   47.3390   16.5080   44.6980 C   0  0  0  0  0  0  0  0  0  0  0  0
   46.7010   16.9990   45.8280 C   0  0  0  0  0  0  0  0  0  0  0  0
   45.7880   16.2500   46.5130 C   0  0  0  0  0  0  0  0  0  0  0  0
   40.3800    9.0720   48.8560 C   0  0  1  0  0  0  0  0  0  0  0  0
   39.4210    8.1050   48.6240 O   0  0  0  0  0  0  0  0  0  0  0  0
   41.2620    8.7410   50.0350 C   0  0  0  0  0  0  0  0  0  0  0  0
   43.4400    8.5230   45.6950 H   0  0  0  0  0  0  0  0  0  0  0  0
   41.5860    8.7240   41.1710 H   0  0  0  0  0  0  0  0  0  0  0  0
   43.7000    7.5300   41.5840 H   0  0  0  0  0  0  0  0  0  0  0  0
   39.4920   10.2030   42.3320 H   0  0  0  0  0  0  0  0  0  0  0  0
   40.3810    8.0970   46.1290 H   0  0  0  0  0  0  0  0  0  0  0  0
   41.9900    8.5780   47.5820 H   0  0  0  0  0  0  0  0  0  0  0  0
   41.3340   11.3970   48.2640 H   0  0  0  0  0  0  0  0  0  0  0  0
   40.6780   12.0020   46.2010 H   0  0  0  0  0  0  0  0  0  0  0  0
   45.2690   12.3990   47.7780 H   0  0  0  0  0  0  0  0  0  0  0  0
   45.5120   12.4920   45.9840 H   0  0  0  0  0  0  0  0  0  0  0  0
   44.3600   14.5420   47.8360 H   0  0  0  0  0  0  0  0  0  0  0  0
   43.4480   14.3100   46.3450 H   0  0  0  0  0  0  0  0  0  0  0  0
   45.8750   13.4740   44.6160 H   0  0  0  0  0  0  0  0  0  0  0  0
   47.4850   14.7990   43.4130 H   0  0  0  0  0  0  0  0  0  0  0  0
   48.0550   17.1210   44.1780 H   0  0  0  0  0  0  0  0  0  0  0  0
   46.9590   18.0110   46.1430 H   0  0  0  0  0  0  0  0  0  0  0  0
   45.2930   16.6270   47.3870 H   0  0  0  0  0  0  0  0  0  0  0  0
   39.8570   10.0250   49.1000 H   0  0  0  0  0  0  0  0  0  0  0  0
   39.7790    7.1990   48.6900 H   0  0  0  0  0  0  0  0  0  0  0  0
   41.6950    9.6310   50.5110 H   0  0  0  0  0  0  0  0  0  0  0  0
   42.0520    8.0200   49.7950 H   0  0  0  0  0  0  0  0  0  0  0  0
   40.6090    8.2570   50.8030 H   0  0  0  0  0  0  0  0  0  0  0  0
  2  1  1  0  0  0  0
  2  3  1  0  0  0  0
  3 32  1  0  0  0  0
  4  3  2  0  0  0  0
  4 11  1  0  0  0  0
  5  4  1  0  0  0  0
  6  7  1  0  0  0  0
  6  5  2  0  0  0  0
  7  2  2  0  0  0  0
  8  5  1  0  0  0  0
  8  9  1  0  0  0  0
  9 10  2  0  0  0  0
 11  9  1  6  0  0  0
 11 15  1  0  0  0  0
 11 12  1  0  0  0  0
 12 13  1  0  0  0  0
 13 37  1  6  0  0  0
 13 29  1  0  0  0  0
 14 19  1  0  0  0  0
 14 13  1  0  0  0  0
 14 38  1  1  0  0  0
 15 39  1  1  0  0  0
 15 14  1  0  0  0  0
 16 15  1  0  0  0  0
 16 18  1  0  0  0  0
 17 16  2  0  0  0  0
 18 21  1  0  0  0  0
 18 19  1  0  0  0  0
 19 20  2  0  0  0  0
 21 40  1  0  0  0  0
 22 21  1  0  0  0  0
 22 42  1  0  0  0  0
 23 28  1  0  0  0  0
 23 22  1  0  0  0  0
 24 23  2  0  0  0  0
 25 26  2  0  0  0  0
 25 24  1  0  0  0  0
 26 27  1  0  0  0  0
 27 47  1  0  0  0  0
 27 28  2  0  0  0  0
 28 48  1  0  0  0  0
 29 49  1  1  0  0  0
 29 31  1  0  0  0  0
 30 50  1  0  0  0  0
 30 29  1  0  0  0  0
 31 51  1  0  0  0  0
 31 53  1  0  0  0  0
 33  6  1  0  0  0  0
 34  7  1  0  0  0  0
 35  8  1  0  0  0  0
 36 12  1  0  0  0  0
 41 21  1  0  0  0  0
 43 22  1  0  0  0  0
 44 24  1  0  0  0  0
 45 25  1  0  0  0  0
 46 26  1  0  0  0  0
 52 31  1  0  0  0  0
M  END
>  <Pose>
1

>  <Score>
-6.23

$$$$
