
 OpenBabel03172210433D

 39 42  0  0  1  0  0  0  0  0999 V2000
   51.2790    2.9210   46.7540 B   0  0  0  0  0  0  0  0  0  0  0  0
   50.0550    3.5490   45.4360 C   0  0  0  0  0  0  0  0  0  0  0  0
   49.3790    4.7090   45.6810 C   0  0  0  0  0  0  0  0  0  0  0  0
   48.4820    5.1890   44.7410 C   0  0  0  0  0  0  0  0  0  0  0  0
   48.2710    4.4960   43.5550 C   0  0  0  0  0  0  0  0  0  0  0  0
   48.9470    3.3210   43.2930 C   0  0  0  0  0  0  0  0  0  0  0  0
   49.8280    2.8820   44.2560 C   0  0  0  0  0  0  0  0  0  0  0  0
   47.3850    4.8880   42.5270 N   0  0  0  0  0  0  0  0  0  0  0  0
   47.5490    4.4540   41.2710 N   0  0  0  0  0  0  0  0  0  0  0  0
   46.5820    4.9890   40.5770 N   0  0  0  0  0  0  0  0  0  0  0  0
   45.8180    5.7420   41.3530 N   0  0  0  0  0  0  0  0  0  0  0  0
   46.3310    5.6810   42.6160 C   0  0  0  0  0  0  0  0  0  0  0  0
   45.7020    6.4270   43.7600 C   0  0  2  0  0  0  0  0  0  0  0  0
   46.7260    7.0440   44.6000 N   0  0  0  0  0  0  0  0  0  0  0  0
   47.8680    6.4410   45.1990 C   0  0  0  0  0  0  0  0  0  0  0  0
   48.3920    7.0180   46.1920 O   0  0  0  0  0  0  0  0  0  0  0  0
   45.0300    5.3870   44.6150 C   0  0  0  0  0  0  0  0  0  0  0  0
   43.9870    6.0320   45.4680 C   0  0  0  0  0  0  0  0  0  0  0  0
   43.0420    6.5570   44.6270 O   0  0  0  0  0  0  0  0  0  0  0  0
   43.4620    7.5920   43.8370 C   0  0  0  0  0  0  0  0  0  0  0  0
   44.7920    7.4720   43.2270 C   0  0  0  0  0  0  0  0  0  0  0  0
   43.2860    4.9570   46.3090 C   0  0  0  0  0  0  0  0  0  0  0  0
   44.5450    7.0320   46.4450 C   0  0  0  0  0  0  0  0  0  0  0  0
   49.5000    5.2950   46.5850 H   0  0  0  0  0  0  0  0  0  0  0  0
   48.7560    2.8100   42.3610 H   0  0  0  0  0  0  0  0  0  0  0  0
   50.3620    1.9680   44.0650 H   0  0  0  0  0  0  0  0  0  0  0  0
   46.6220    8.0840   44.8030 H   0  0  0  0  0  0  0  0  0  0  0  0
   45.8040    4.9300   45.2730 H   0  0  0  0  0  0  0  0  0  0  0  0
   44.5280    4.6140   43.9960 H   0  0  0  0  0  0  0  0  0  0  0  0
   43.3760    8.5290   44.4650 H   0  0  0  0  0  0  0  0  0  0  0  0
   42.6610    7.7380   43.0510 H   0  0  0  0  0  0  0  0  0  0  0  0
   44.6700    7.3470   42.1090 H   0  0  0  0  0  0  0  0  0  0  0  0
   45.3120    8.4720   43.3100 H   0  0  0  0  0  0  0  0  0  0  0  0
   43.1990    4.0070   45.7590 H   0  0  0  0  0  0  0  0  0  0  0  0
   42.3590    5.3290   46.7470 H   0  0  0  0  0  0  0  0  0  0  0  0
   43.9920    4.7600   47.1660 H   0  0  0  0  0  0  0  0  0  0  0  0
   43.8400    7.0810   47.3260 H   0  0  0  0  0  0  0  0  0  0  0  0
   44.5720    8.0660   46.0500 H   0  0  0  0  0  0  0  0  0  0  0  0
   45.5070    6.7060   46.8620 H   0  0  0  0  0  0  0  0  0  0  0  0
  2  3  1  0  0  0  0
  2  1  1  0  0  0  0
  3 24  1  0  0  0  0
  4 15  1  0  0  0  0
  4  3  2  0  0  0  0
  5  4  1  0  0  0  0
  6  5  2  0  0  0  0
  6  7  1  0  0  0  0
  7  2  2  0  0  0  0
  8 12  1  0  0  0  0
  8  5  1  0  0  0  0
  9  8  1  0  0  0  0
 10  9  2  0  0  0  0
 10 11  1  0  0  0  0
 11 12  2  0  0  0  0
 13 12  1  6  0  0  0
 13 14  1  0  0  0  0
 13 17  1  0  0  0  0
 14 27  1  0  0  0  0
 14 15  1  0  0  0  0
 15 16  2  0  0  0  0
 17 28  1  0  0  0  0
 17 18  1  0  0  0  0
 18 22  1  0  0  0  0
 18 23  1  0  0  0  0
 19 18  1  0  0  0  0
 20 30  1  0  0  0  0
 20 19  1  0  0  0  0
 21 33  1  0  0  0  0
 21 13  1  0  0  0  0
 21 20  1  0  0  0  0
 22 35  1  0  0  0  0
 22 36  1  0  0  0  0
 23 39  1  0  0  0  0
 23 37  1  0  0  0  0
 25  6  1  0  0  0  0
 26  7  1  0  0  0  0
 29 17  1  0  0  0  0
 31 20  1  0  0  0  0
 32 21  1  0  0  0  0
 34 22  1  0  0  0  0
 38 23  1  0  0  0  0
M  END
>  <Pose>
1

>  <Score>
-4.46

$$$$
