
 OpenBabel03172210433D

 44 47  0  0  0  0  0  0  0  0999 V2000
   51.3770    1.9640   45.2930 B   0  0  0  0  0  0  0  0  0  0  0  0
   50.0120    2.5980   44.1420 C   0  0  0  0  0  0  0  0  0  0  0  0
   49.3600    3.7940   44.3830 C   0  0  0  0  0  0  0  0  0  0  0  0
   48.3670    4.3000   43.5650 C   0  0  0  0  0  0  0  0  0  0  0  0
   48.0180    3.5640   42.4510 C   0  0  0  0  0  0  0  0  0  0  0  0
   48.6360    2.3580   42.1570 C   0  0  0  0  0  0  0  0  0  0  0  0
   49.6180    1.8880   42.9980 C   0  0  0  0  0  0  0  0  0  0  0  0
   47.0630    4.0300   41.6450 O   0  0  0  0  0  0  0  0  0  0  0  0
   46.4440    5.1380   41.8530 C   0  0  0  0  0  0  0  0  0  0  0  0
   45.5350    5.5900   41.0890 O   0  0  0  0  0  0  0  0  0  0  0  0
   46.7440    5.9200   42.9480 C   0  0  0  0  0  0  0  0  0  0  0  0
   47.7220    5.4860   43.8140 C   0  0  0  0  0  0  0  0  0  0  0  0
   46.0180    7.1620   43.2050 C   0  0  0  0  0  0  0  0  0  0  0  0
   46.5350    8.3860   42.8100 C   0  0  0  0  0  0  0  0  0  0  0  0
   45.8120    9.5440   43.0080 C   0  0  0  0  0  0  0  0  0  0  0  0
   46.3510   10.6270   42.6170 O   0  0  0  0  0  0  0  0  0  0  0  0
   44.6420    9.5090   43.5670 O   0  0  0  0  0  0  0  0  0  0  0  0
   44.1090    8.4140   43.9540 C   0  0  0  0  0  0  0  0  0  0  0  0
   44.7770    7.1850   43.7900 C   0  0  0  0  0  0  0  0  0  0  0  0
   44.1880    6.0340   44.2250 C   0  0  0  0  0  0  0  0  0  0  0  0
   42.9250    6.1290   44.8190 C   0  0  0  0  0  0  0  0  0  0  0  0
   42.2950    7.3490   44.9610 C   0  0  0  0  0  0  0  0  0  0  0  0
   42.8600    8.5300   44.5360 C   0  0  0  0  0  0  0  0  0  0  0  0
   42.1000    9.7470   44.6280 C   0  0  0  0  0  0  0  0  0  0  0  0
   40.8250    9.9260   44.0630 N   0  0  0  0  0  4  0  0  0  0  0  0
   39.9500   10.8820   44.6850 C   0  0  0  0  0  0  0  0  0  0  0  0
   40.8790   10.0790   42.5860 C   0  0  0  0  0  0  0  0  0  0  0  0
   41.0200    7.3320   45.5680 O   0  0  0  0  0  0  0  0  0  0  0  0
   49.6290    4.4050   45.2580 H   0  0  0  0  0  0  0  0  0  0  0  0
   48.3070    1.8310   41.2760 H   0  0  0  0  0  0  0  0  0  0  0  0
   50.1420    0.9550   42.8320 H   0  0  0  0  0  0  0  0  0  0  0  0
   48.0000    6.0540   44.7280 H   0  0  0  0  0  0  0  0  0  0  0  0
   47.5230    8.3980   42.3560 H   0  0  0  0  0  0  0  0  0  0  0  0
   44.6910    5.0780   44.1410 H   0  0  0  0  0  0  0  0  0  0  0  0
   42.4820    5.1980   45.1430 H   0  0  0  0  0  0  0  0  0  0  0  0
   42.7610   10.5630   44.1430 H   0  0  0  0  0  0  0  0  0  0  0  0
   42.0770   10.1190   45.6920 H   0  0  0  0  0  0  0  0  0  0  0  0
   40.3050    9.0090   44.1820 H   0  0  0  0  0  0  0  0  0  0  0  0
   39.9250   11.8780   44.1700 H   0  0  0  0  0  0  0  0  0  0  0  0
   40.1010   11.0020   45.7820 H   0  0  0  0  0  0  0  0  0  0  0  0
   38.8510   10.5710   44.6190 H   0  0  0  0  0  0  0  0  0  0  0  0
   41.9420   10.0840   42.2290 H   0  0  0  0  0  0  0  0  0  0  0  0
   40.4640    9.1820   42.0550 H   0  0  0  0  0  0  0  0  0  0  0  0
   40.2740   10.9290   42.2620 H   0  0  0  0  0  0  0  0  0  0  0  0
  2  3  1  0  0  0  0
  2  1  1  0  0  0  0
  3 29  1  0  0  0  0
  4 12  1  0  0  0  0
  4  3  2  0  0  0  0
  5  4  1  0  0  0  0
  6  5  2  0  0  0  0
  6  7  1  0  0  0  0
  7  2  2  0  0  0  0
  8  9  1  0  0  0  0
  8  5  1  0  0  0  0
  9 11  1  0  0  0  0
 10  9  2  0  0  0  0
 11 13  1  0  0  0  0
 11 12  2  0  0  0  0
 12 32  1  0  0  0  0
 13 19  1  0  0  0  0
 14 15  1  0  0  0  0
 14 13  2  0  0  0  0
 15 17  1  0  0  0  0
 16 15  2  0  0  0  0
 17 18  1  0  0  0  0
 18 23  1  0  0  0  0
 19 18  2  0  0  0  0
 19 20  1  0  0  0  0
 20 21  2  0  0  0  0
 21 22  1  0  0  0  0
 21 35  1  0  0  0  0
 22 28  1  0  0  0  0
 23 24  1  0  0  0  0
 23 22  2  0  0  0  0
 24 37  1  0  0  0  0
 25 38  1  0  0  0  0
 25 24  1  0  0  0  0
 25 26  1  0  0  0  0
 26 40  1  0  0  0  0
 27 25  1  0  0  0  0
 30  6  1  0  0  0  0
 31  7  1  0  0  0  0
 33 14  1  0  0  0  0
 34 20  1  0  0  0  0
 36 24  1  0  0  0  0
 39 26  1  0  0  0  0
 41 26  1  0  0  0  0
 42 27  1  0  0  0  0
 43 27  1  0  0  0  0
 44 27  1  0  0  0  0
M  END
>  <Pose>
1

>  <Score>
-5.48

$$$$
