
 OpenBabel03172210433D

 50 53  0  0  0  0  0  0  0  0999 V2000
   47.2180    3.7850   42.9150 B   0  0  0  0  0  0  0  0  0  0  0  0
   46.5620    5.5790   43.0980 C   0  0  0  0  0  0  0  0  0  0  0  0
   45.2310    5.8800   42.9670 C   0  0  0  0  0  0  0  0  0  0  0  0
   44.7610    7.1890   43.1010 C   0  0  0  0  0  0  0  0  0  0  0  0
   45.6400    8.2020   43.3690 C   0  0  0  0  0  0  0  0  0  0  0  0
   44.9370    9.3740   43.4500 N   0  0  0  0  0  0  0  0  0  0  0  0
   43.6330    9.1690   43.2470 C   0  0  0  0  0  0  0  0  0  0  0  0
   43.5280    7.7720   43.0250 C   0  0  0  0  0  0  0  0  0  0  0  0
   42.4990   10.0720   43.2210 C   0  0  0  0  0  0  0  0  0  0  0  0
   41.9460   10.3300   42.0850 O   0  0  0  0  0  0  0  0  0  0  0  0
   41.9330   10.7060   44.3270 N   0  0  0  0  0  0  0  0  0  0  0  0
   42.3860   11.9260   44.9380 C   0  0  0  0  0  0  0  0  0  0  0  0
   41.4850   12.3620   46.1010 C   0  0  0  0  0  0  0  0  0  0  0  0
   40.1000   12.2960   45.6610 N   0  0  0  0  0  0  0  0  0  0  0  0
   39.6360   11.1450   44.8860 C   0  0  0  0  0  0  0  0  0  0  0  0
   40.7470   10.0950   44.9860 C   0  0  0  0  0  0  0  0  0  0  0  0
   39.1860   13.3280   45.9670 C   0  0  0  0  0  0  0  0  0  0  0  0
   39.6210   14.5040   45.9410 O   0  0  0  0  0  0  0  0  0  0  0  0
   37.8080   12.9910   46.2880 C   0  0  0  0  0  0  0  0  0  0  0  0
   36.9160   12.9140   45.1520 N   0  0  0  0  0  0  0  0  0  0  0  0
   35.8730   13.9320   45.2970 C   0  0  0  0  0  0  0  0  0  0  0  0
   34.6350   13.3520   45.8860 C   0  0  0  0  0  0  0  0  0  0  0  0
   34.9470   12.3700   46.8230 O   0  0  0  0  0  0  0  0  0  0  0  0
   35.4780   11.2340   46.2080 C   0  0  0  0  0  0  0  0  0  0  0  0
   36.3070   11.6040   45.0000 C   0  0  0  0  0  0  0  0  0  0  0  0
   46.9840    7.9070   43.5020 C   0  0  0  0  0  0  0  0  0  0  0  0
   47.4410    6.6040   43.3670 C   0  0  0  0  0  0  0  0  0  0  0  0
   44.5130    5.0990   42.7570 H   0  0  0  0  0  0  0  0  0  0  0  0
   45.4140   10.2640   43.6510 H   0  0  0  0  0  0  0  0  0  0  0  0
   42.6120    7.2560   42.8280 H   0  0  0  0  0  0  0  0  0  0  0  0
   42.3440   12.7200   44.1430 H   0  0  0  0  0  0  0  0  0  0  0  0
   43.3840   11.7930   45.3840 H   0  0  0  0  0  0  0  0  0  0  0  0
   41.6160   11.6960   46.9720 H   0  0  0  0  0  0  0  0  0  0  0  0
   41.7590   13.3800   46.3680 H   0  0  0  0  0  0  0  0  0  0  0  0
   38.7090   10.7130   45.3230 H   0  0  0  0  0  0  0  0  0  0  0  0
   39.4890   11.3700   43.8240 H   0  0  0  0  0  0  0  0  0  0  0  0
   40.9810    9.8540   46.0310 H   0  0  0  0  0  0  0  0  0  0  0  0
   40.4560    9.1870   44.4590 H   0  0  0  0  0  0  0  0  0  0  0  0
   37.4030   13.8170   46.9360 H   0  0  0  0  0  0  0  0  0  0  0  0
   37.7000   12.0620   46.8860 H   0  0  0  0  0  0  0  0  0  0  0  0
   36.2490   14.7330   45.9790 H   0  0  0  0  0  0  0  0  0  0  0  0
   35.6980   14.3830   44.3000 H   0  0  0  0  0  0  0  0  0  0  0  0
   34.1070   14.1660   46.4350 H   0  0  0  0  0  0  0  0  0  0  0  0
   33.9470   12.9130   45.1230 H   0  0  0  0  0  0  0  0  0  0  0  0
   36.0060   10.6440   46.9590 H   0  0  0  0  0  0  0  0  0  0  0  0
   34.6200   10.6310   45.8490 H   0  0  0  0  0  0  0  0  0  0  0  0
   37.0360   10.8330   44.8010 H   0  0  0  0  0  0  0  0  0  0  0  0
   35.6160   11.6850   44.1350 H   0  0  0  0  0  0  0  0  0  0  0  0
   47.6850    8.7180   43.7150 H   0  0  0  0  0  0  0  0  0  0  0  0
   48.5060    6.3660   43.4730 H   0  0  0  0  0  0  0  0  0  0  0  0
  1  2  1  0  0  0  0
  2 27  1  0  0  0  0
  3  2  2  0  0  0  0
  3  4  1  0  0  0  0
  4  5  2  0  0  0  0
  5  6  1  0  0  0  0
  5 26  1  0  0  0  0
  6 29  1  0  0  0  0
  7  6  1  0  0  0  0
  8  4  1  0  0  0  0
  8  7  2  0  0  0  0
  9  7  1  0  0  0  0
  9 11  1  0  0  0  0
 10  9  2  0  0  0  0
 11 12  1  0  0  0  0
 11 16  1  0  0  0  0
 12 32  1  0  0  0  0
 12 13  1  0  0  0  0
 13 34  1  0  0  0  0
 13 33  1  0  0  0  0
 14 17  1  0  0  0  0
 14 13  1  0  0  0  0
 15 16  1  0  0  0  0
 15 35  1  0  0  0  0
 15 14  1  0  0  0  0
 16 37  1  0  0  0  0
 17 19  1  0  0  0  0
 18 17  2  0  0  0  0
 19 40  1  0  0  0  0
 19 39  1  0  0  0  0
 20 21  1  0  0  0  0
 20 19  1  0  0  0  0
 21 22  1  0  0  0  0
 21 41  1  0  0  0  0
 22 43  1  0  0  0  0
 22 23  1  0  0  0  0
 24 23  1  0  0  0  0
 24 45  1  0  0  0  0
 25 20  1  0  0  0  0
 25 24  1  0  0  0  0
 26 49  1  0  0  0  0
 27 50  1  0  0  0  0
 27 26  2  0  0  0  0
 28  3  1  0  0  0  0
 30  8  1  0  0  0  0
 31 12  1  0  0  0  0
 36 15  1  0  0  0  0
 38 16  1  0  0  0  0
 42 21  1  0  0  0  0
 44 22  1  0  0  0  0
 46 24  1  0  0  0  0
 47 25  1  0  0  0  0
 48 25  1  0  0  0  0
M  END
>  <Pose>
1

>  <Score>
-5.81

$$$$
