
 OpenBabel03172210433D

 41 44  0  0  0  0  0  0  0  0999 V2000
   51.6130    1.6390   45.6950 B   0  0  0  0  0  0  0  0  0  0  0  0
   50.3130    2.2760   44.4610 C   0  0  0  0  0  0  0  0  0  0  0  0
   49.6610    3.4760   44.6600 C   0  0  0  0  0  0  0  0  0  0  0  0
   48.7150    3.9520   43.7740 C   0  0  0  0  0  0  0  0  0  0  0  0
   48.4250    3.1880   42.6600 C   0  0  0  0  0  0  0  0  0  0  0  0
   47.4880    3.8780   41.9850 N   0  0  0  0  0  0  0  0  0  0  0  0
   47.1790    5.0340   42.6240 C   0  0  0  0  0  0  0  0  0  0  0  0
   47.9510    5.0990   43.7650 C   0  0  0  0  0  0  0  0  0  0  0  0
   47.8160    6.1700   44.5700 N   0  0  0  0  0  0  0  0  0  0  0  0
   46.9570    7.1700   44.2920 C   0  0  0  0  0  0  0  0  0  0  0  0
   46.1960    7.1340   43.1900 N   0  0  0  0  0  0  0  0  0  0  0  0
   46.3140    6.0750   42.3750 C   0  0  0  0  0  0  0  0  0  0  0  0
   45.6080    6.0240   41.3380 O   0  0  0  0  0  0  0  0  0  0  0  0
   45.2530    8.2230   42.8810 C   0  0  0  0  0  0  0  0  0  0  0  0
   43.9210    7.9330   43.4570 C   0  0  0  0  0  0  0  0  0  0  0  0
   43.3880    8.8930   44.3530 N   0  0  0  0  0  0  0  0  0  0  0  0
   43.5140    8.5790   45.7330 C   0  0  0  0  0  0  0  0  0  0  0  0
   42.2870    7.9410   46.3190 C   0  0  0  0  0  0  0  0  0  0  0  0
   41.0620    8.4910   45.7760 N   0  0  0  0  0  0  0  0  0  0  0  0
   41.3020    9.7670   45.1240 C   0  0  0  0  0  0  0  0  0  0  0  0
   42.1670    9.4770   43.9220 C   0  0  0  0  0  0  0  0  0  0  0  0
   49.0860    1.9880   42.4730 C   0  0  0  0  0  0  0  0  0  0  0  0
   50.0320    1.5040   43.3530 C   0  0  0  0  0  0  0  0  0  0  0  0
   49.8800    4.0820   45.5310 H   0  0  0  0  0  0  0  0  0  0  0  0
   47.0440    3.5870   41.0940 H   0  0  0  0  0  0  0  0  0  0  0  0
   46.8620    8.0290   44.9540 H   0  0  0  0  0  0  0  0  0  0  0  0
   45.2170    8.2540   41.7690 H   0  0  0  0  0  0  0  0  0  0  0  0
   45.7330    9.1370   43.2150 H   0  0  0  0  0  0  0  0  0  0  0  0
   43.1890    7.7500   42.6450 H   0  0  0  0  0  0  0  0  0  0  0  0
   43.9920    6.9560   44.0190 H   0  0  0  0  0  0  0  0  0  0  0  0
   44.3960    7.9370   45.9240 H   0  0  0  0  0  0  0  0  0  0  0  0
   43.6770    9.5260   46.2910 H   0  0  0  0  0  0  0  0  0  0  0  0
   42.2430    8.0330   47.4220 H   0  0  0  0  0  0  0  0  0  0  0  0
   42.2900    6.8580   46.0840 H   0  0  0  0  0  0  0  0  0  0  0  0
   40.5810    7.8260   45.1290 H   0  0  0  0  0  0  0  0  0  0  0  0
   41.8550   10.4070   45.8250 H   0  0  0  0  0  0  0  0  0  0  0  0
   40.3030   10.1600   44.8470 H   0  0  0  0  0  0  0  0  0  0  0  0
   42.4300   10.4550   43.4310 H   0  0  0  0  0  0  0  0  0  0  0  0
   41.6010    8.8620   43.1940 H   0  0  0  0  0  0  0  0  0  0  0  0
   48.8560    1.3870   41.5940 H   0  0  0  0  0  0  0  0  0  0  0  0
   50.5530    0.5550   43.2020 H   0  0  0  0  0  0  0  0  0  0  0  0
  2  3  1  0  0  0  0
  2  1  1  0  0  0  0
  3 24  1  0  0  0  0
  4  3  2  0  0  0  0
  5  4  1  0  0  0  0
  6  7  1  0  0  0  0
  6  5  1  0  0  0  0
  7  8  2  0  0  0  0
  8  4  1  0  0  0  0
  8  9  1  0  0  0  0
 10  9  2  0  0  0  0
 10 26  1  0  0  0  0
 11 10  1  0  0  0  0
 12  7  1  0  0  0  0
 12 11  1  0  0  0  0
 13 12  2  0  0  0  0
 14 11  1  0  0  0  0
 14 28  1  0  0  0  0
 14 15  1  0  0  0  0
 15 30  1  0  0  0  0
 15 16  1  0  0  0  0
 16 17  1  0  0  0  0
 17 31  1  0  0  0  0
 17 32  1  0  0  0  0
 17 18  1  0  0  0  0
 18 33  1  0  0  0  0
 19 18  1  0  0  0  0
 20 19  1  0  0  0  0
 20 36  1  0  0  0  0
 21 16  1  0  0  0  0
 21 20  1  0  0  0  0
 22  5  2  0  0  0  0
 22 23  1  0  0  0  0
 23  2  2  0  0  0  0
 25  6  1  0  0  0  0
 27 14  1  0  0  0  0
 29 15  1  0  0  0  0
 34 18  1  0  0  0  0
 35 19  1  0  0  0  0
 37 20  1  0  0  0  0
 38 21  1  0  0  0  0
 39 21  1  0  0  0  0
 40 22  1  0  0  0  0
 41 23  1  0  0  0  0
M  END
>  <Pose>
1

>  <Score>
-6.83

$$$$
