
 OpenBabel03172210433D

 37 40  0  0  0  0  0  0  0  0999 V2000
   41.7890    7.2250   45.2300 B   0  0  0  0  0  0  0  0  0  0  0  0
   43.4980    7.1900   44.3900 C   0  0  0  0  0  0  0  0  0  0  0  0
   43.9860    8.3480   43.8230 C   0  0  0  0  0  0  0  0  0  0  0  0
   45.2390    8.3550   43.1980 C   0  0  0  0  0  0  0  0  0  0  0  0
   45.9480    7.1970   43.1690 C   0  0  0  0  0  0  0  0  0  0  0  0
   45.5020    6.0160   43.7210 C   0  0  0  0  0  0  0  0  0  0  0  0
   44.2730    6.0340   44.3270 C   0  0  0  0  0  0  0  0  0  0  0  0
   46.3200    4.9220   43.6190 C   0  0  0  0  0  0  0  0  0  0  0  0
   45.9300    3.8510   44.1120 O   0  0  0  0  0  0  0  0  0  0  0  0
   47.5560    4.9670   42.9920 C   0  0  0  0  0  0  0  0  0  0  0  0
   47.9430    6.1790   42.4620 C   0  0  0  0  0  0  0  0  0  0  0  0
   47.1310    7.2800   42.5570 N   0  0  0  0  0  0  0  0  0  0  0  0
   47.2840    8.6430   42.1010 C   0  0  0  0  0  0  0  0  0  0  0  0
   46.0400    9.3830   42.5120 C   0  0  0  0  0  0  0  0  0  0  0  0
   48.4160    3.7920   42.8930 C   0  0  0  0  0  0  0  0  0  0  0  0
   48.2550    2.9960   41.9400 O   0  0  0  0  0  0  0  0  0  0  0  0
   49.4340    3.5440   43.8720 N   0  0  0  0  0  0  0  0  0  0  0  0
   50.4520    2.5330   43.6770 C   0  0  0  0  0  0  0  0  0  0  0  0
   50.3960    1.6300   44.9160 C   0  0  0  0  0  0  0  0  0  0  0  0
   50.4990    2.4040   46.0470 O   0  0  0  0  0  0  0  0  0  0  0  0
   49.4430    3.2700   46.2370 C   0  0  0  0  0  0  0  0  0  0  0  0
   49.4850    4.3010   45.1070 C   0  0  0  0  0  0  0  0  0  0  0  0
   43.4380    9.2790   43.8360 H   0  0  0  0  0  0  0  0  0  0  0  0
   43.9060    5.1270   44.7630 H   0  0  0  0  0  0  0  0  0  0  0  0
   48.8840    6.3120   41.9560 H   0  0  0  0  0  0  0  0  0  0  0  0
   47.3670    8.6540   40.9760 H   0  0  0  0  0  0  0  0  0  0  0  0
   48.2010    9.1160   42.5100 H   0  0  0  0  0  0  0  0  0  0  0  0
   46.2910   10.2420   43.1780 H   0  0  0  0  0  0  0  0  0  0  0  0
   45.4650    9.7500   41.6150 H   0  0  0  0  0  0  0  0  0  0  0  0
   51.4610    3.0350   43.7450 H   0  0  0  0  0  0  0  0  0  0  0  0
   50.3280    1.9560   42.7540 H   0  0  0  0  0  0  0  0  0  0  0  0
   51.2060    0.8930   44.9050 H   0  0  0  0  0  0  0  0  0  0  0  0
   49.4440    1.0870   44.9340 H   0  0  0  0  0  0  0  0  0  0  0  0
   49.6320    3.8300   47.1750 H   0  0  0  0  0  0  0  0  0  0  0  0
   48.4470    2.7590   46.2390 H   0  0  0  0  0  0  0  0  0  0  0  0
   50.5280    4.7300   45.1590 H   0  0  0  0  0  0  0  0  0  0  0  0
   48.7060    5.0540   45.1990 H   0  0  0  0  0  0  0  0  0  0  0  0
  2  1  1  0  0  0  0
  3 23  1  0  0  0  0
  3  2  2  0  0  0  0
  4  3  1  0  0  0  0
  5  4  2  0  0  0  0
  5  6  1  0  0  0  0
  6  7  2  0  0  0  0
  7  2  1  0  0  0  0
  7 24  1  0  0  0  0
  8  6  1  0  0  0  0
  8  9  2  0  0  0  0
 10  8  1  0  0  0  0
 11 12  1  0  0  0  0
 11 10  2  0  0  0  0
 12  5  1  0  0  0  0
 13 27  1  0  0  0  0
 13 14  1  0  0  0  0
 13 12  1  0  0  0  0
 14 28  1  0  0  0  0
 14  4  1  0  0  0  0
 15 10  1  0  0  0  0
 15 17  1  0  0  0  0
 16 15  2  0  0  0  0
 17 22  1  0  0  0  0
 18 30  1  0  0  0  0
 18 17  1  0  0  0  0
 18 19  1  0  0  0  0
 19 33  1  0  0  0  0
 19 20  1  0  0  0  0
 20 21  1  0  0  0  0
 21 35  1  0  0  0  0
 21 34  1  0  0  0  0
 22 36  1  0  0  0  0
 22 37  1  0  0  0  0
 22 21  1  0  0  0  0
 25 11  1  0  0  0  0
 26 13  1  0  0  0  0
 29 14  1  0  0  0  0
 31 18  1  0  0  0  0
 32 19  1  0  0  0  0
M  END
>  <Pose>
1

>  <Score>
-4.62

$$$$
