
 OpenBabel03172210433D

 43 46  0  0  1  0  0  0  0  0999 V2000
   52.9600    0.4760   43.2770 B   0  0  0  0  0  0  0  0  0  0  0  0
   51.5820    1.7210   43.7440 C   0  0  0  0  0  0  0  0  0  0  0  0
   51.4760    2.2190   45.0410 C   0  0  0  0  0  0  0  0  0  0  0  0
   50.4590    3.1090   45.2980 C   0  0  0  0  0  0  0  0  0  0  0  0
   50.0780    3.7650   46.4090 N   0  0  0  0  0  0  0  0  0  0  0  0
   49.0170    4.5200   46.1400 N   0  0  0  0  0  0  0  0  0  0  0  0
   48.6530    4.4020   44.8550 C   0  0  0  0  0  0  0  0  0  0  0  0
   49.5850    3.4920   44.3180 C   0  0  0  0  0  0  0  0  0  0  0  0
   49.6790    3.0100   43.0420 C   0  0  0  0  0  0  0  0  0  0  0  0
   50.6860    2.1200   42.7620 C   0  0  0  0  0  0  0  0  0  0  0  0
   47.5990    5.0050   44.1450 N   0  0  0  0  0  0  0  0  0  0  0  0
   47.5060    6.4740   43.9960 C   0  0  0  0  0  0  0  0  0  0  0  0
   46.0150    6.7360   44.1290 C   0  0  2  0  0  0  0  0  0  0  0  0
   45.4010    5.4940   43.5170 C   0  0  0  0  0  0  0  0  0  0  0  0
   46.4630    4.4560   43.4810 C   0  0  0  0  0  0  0  0  0  0  0  0
   46.3950    3.3270   42.9770 O   0  0  0  0  0  0  0  0  0  0  0  0
   45.7650    7.9750   43.3750 C   0  0  0  0  0  0  0  0  0  0  0  0
   46.3170    8.1860   42.2700 O   0  0  0  0  0  0  0  0  0  0  0  0
   44.8760    8.9320   43.9360 N   0  0  0  0  0  0  0  0  0  0  0  0
   43.7330    9.4290   43.2020 C   0  0  0  0  0  0  0  0  0  0  0  0
   42.5700    9.7830   44.1050 C   0  0  0  0  0  0  0  0  0  0  0  0
   42.1160    8.6020   44.8630 C   0  0  0  0  0  0  0  0  0  0  0  0
   42.3400    7.3350   44.4780 N   0  0  0  0  0  0  0  0  0  0  0  0
   41.8160    6.4880   45.3650 C   0  0  0  0  0  0  0  0  0  0  0  0
   41.2370    7.2270   46.3490 N   0  0  0  0  0  0  0  0  0  0  0  0
   41.4270    8.5120   46.0330 C   0  0  0  0  0  0  0  0  0  0  0  0
   52.1980    1.8730   45.7580 H   0  0  0  0  0  0  0  0  0  0  0  0
   48.5570    5.1130   46.8580 H   0  0  0  0  0  0  0  0  0  0  0  0
   48.9630    3.3440   42.2930 H   0  0  0  0  0  0  0  0  0  0  0  0
   50.7890    1.7220   41.7650 H   0  0  0  0  0  0  0  0  0  0  0  0
   48.0730    6.9550   44.7860 H   0  0  0  0  0  0  0  0  0  0  0  0
   47.9130    6.7300   43.0120 H   0  0  0  0  0  0  0  0  0  0  0  0
   45.7160    6.8800   45.1720 H   0  0  0  0  0  0  0  0  0  0  0  0
   44.6580    5.1110   44.2810 H   0  0  0  0  0  0  0  0  0  0  0  0
   44.8680    5.6460   42.5860 H   0  0  0  0  0  0  0  0  0  0  0  0
   45.0690    9.2750   44.8970 H   0  0  0  0  0  0  0  0  0  0  0  0
   44.0230   10.3390   42.6600 H   0  0  0  0  0  0  0  0  0  0  0  0
   43.3900    8.6850   42.4510 H   0  0  0  0  0  0  0  0  0  0  0  0
   42.9450   10.5320   44.8300 H   0  0  0  0  0  0  0  0  0  0  0  0
   41.7490   10.3020   43.5580 H   0  0  0  0  0  0  0  0  0  0  0  0
   41.8480    5.4130   45.3100 H   0  0  0  0  0  0  0  0  0  0  0  0
   40.7530    6.7910   47.1660 H   0  0  0  0  0  0  0  0  0  0  0  0
   41.0760    9.3300   46.6370 H   0  0  0  0  0  0  0  0  0  0  0  0
  1  2  1  0  0  0  0
  2  3  2  0  0  0  0
  3  4  1  0  0  0  0
  3 27  1  0  0  0  0
  4  5  2  0  0  0  0
  6  5  1  0  0  0  0
  6 28  1  0  0  0  0
  7  6  1  0  0  0  0
  8  7  2  0  0  0  0
  8  4  1  0  0  0  0
  9  8  1  0  0  0  0
 10  9  2  0  0  0  0
 10  2  1  0  0  0  0
 11  7  1  0  0  0  0
 12 13  1  0  0  0  0
 12 11  1  0  0  0  0
 12 31  1  0  0  0  0
 13 33  1  1  0  0  0
 14 13  1  0  0  0  0
 14 34  1  0  0  0  0
 15 14  1  0  0  0  0
 15 11  1  0  0  0  0
 16 15  2  0  0  0  0
 17 19  1  0  0  0  0
 17 13  1  0  0  0  0
 18 17  2  0  0  0  0
 19 36  1  0  0  0  0
 20 19  1  0  0  0  0
 20 21  1  0  0  0  0
 21 39  1  0  0  0  0
 21 22  1  0  0  0  0
 22 26  2  0  0  0  0
 23 22  1  0  0  0  0
 23 24  2  0  0  0  0
 24 25  1  0  0  0  0
 25 42  1  0  0  0  0
 26 25  1  0  0  0  0
 26 43  1  0  0  0  0
 29  9  1  0  0  0  0
 30 10  1  0  0  0  0
 32 12  1  0  0  0  0
 35 14  1  0  0  0  0
 37 20  1  0  0  0  0
 38 20  1  0  0  0  0
 40 21  1  0  0  0  0
 41 24  1  0  0  0  0
M  END
>  <Pose>
1

>  <Score>
-7.92

$$$$
