
 OpenBabel03172210433D

 58 61  0  0  0  0  0  0  0  0999 V2000
   49.0140    4.3350   46.3140 B   0  0  0  0  0  0  0  0  0  0  0  0
   49.3060    3.5130   44.6000 C   0  0  0  0  0  0  0  0  0  0  0  0
   50.3960    2.7840   44.2090 C   0  0  0  0  0  0  0  0  0  0  0  0
   50.1830    2.4040   42.9450 N   0  0  0  0  0  0  0  0  0  0  0  0
   49.0250    2.8630   42.5510 N   0  0  0  0  0  0  0  0  0  0  0  0
   48.4010    3.5760   43.5350 C   0  0  0  0  0  0  0  0  0  0  0  0
   47.1230    4.2400   43.5040 C   0  0  0  0  0  0  0  0  0  0  0  0
   46.1770    3.6490   44.1400 O   0  0  0  0  0  0  0  0  0  0  0  0
   46.8250    5.4180   42.8740 N   0  0  0  0  0  0  0  0  0  0  0  0
   45.9860    5.5650   41.7250 C   0  0  0  0  0  0  0  0  0  0  0  0
   44.7060    6.2100   42.1430 C   0  0  0  0  0  0  0  0  0  0  0  0
   44.8890    7.0440   43.3220 N   0  0  0  0  0  0  0  0  0  0  0  0
   46.1490    7.5780   43.7180 C   0  0  0  0  0  0  0  0  0  0  0  0
   47.3520    6.7110   43.3570 C   0  0  0  0  0  0  0  0  0  0  0  0
   43.6870    7.2280   44.0860 C   0  0  0  0  0  0  0  0  0  0  0  0
   43.0990    6.1500   44.5180 O   0  0  0  0  0  0  0  0  0  0  0  0
   43.1050    8.4860   44.4000 C   0  0  0  0  0  0  0  0  0  0  0  0
   42.2690    9.1730   43.5300 N   0  0  0  0  0  0  0  0  0  0  0  0
   41.9380   10.3110   44.0470 N   0  0  0  0  0  0  0  0  0  0  0  0
   42.4940   10.4790   45.2430 C   0  0  0  0  0  0  0  0  0  0  0  0
   43.2420    9.3060   45.4650 C   0  0  0  0  0  0  0  0  0  0  0  0
   42.3740   11.5880   46.1730 C   0  0  0  0  0  0  0  0  0  0  0  0
   41.6240   11.3950   47.1950 O   0  0  0  0  0  0  0  0  0  0  0  0
   42.9960   12.8200   46.0420 N   0  0  0  0  0  0  0  0  0  0  0  0
   44.3730   12.8470   45.5380 C   0  0  0  0  0  0  0  0  0  0  0  0
   45.1680   13.6400   46.5540 C   0  0  0  0  0  0  0  0  0  0  0  0
   44.6680   14.9530   46.4750 O   0  0  0  0  0  0  0  0  0  0  0  0
   43.4180   15.0110   47.0260 C   0  0  0  0  0  0  0  0  0  0  0  0
   42.4020   14.0750   46.3840 C   0  0  0  0  0  0  0  0  0  0  0  0
   41.8260    8.6970   42.2410 C   0  0  0  0  0  0  0  0  0  0  0  0
   51.1570    1.6090   42.2060 C   0  0  0  0  0  0  0  0  0  0  0  0
   51.3690    0.2420   42.7990 C   0  0  0  0  0  0  0  0  0  0  0  0
   51.2650    2.5690   44.8300 H   0  0  0  0  0  0  0  0  0  0  0  0
   46.4850    6.3000   41.0200 H   0  0  0  0  0  0  0  0  0  0  0  0
   45.7380    4.6360   41.1860 H   0  0  0  0  0  0  0  0  0  0  0  0
   43.9280    5.4430   42.4200 H   0  0  0  0  0  0  0  0  0  0  0  0
   44.3470    6.8220   41.2800 H   0  0  0  0  0  0  0  0  0  0  0  0
   46.1500    7.4990   44.8580 H   0  0  0  0  0  0  0  0  0  0  0  0
   46.3550    8.6130   43.4610 H   0  0  0  0  0  0  0  0  0  0  0  0
   48.0570    6.5570   44.1630 H   0  0  0  0  0  0  0  0  0  0  0  0
   47.8440    7.1820   42.4950 H   0  0  0  0  0  0  0  0  0  0  0  0
   43.8290    9.1710   46.3490 H   0  0  0  0  0  0  0  0  0  0  0  0
   44.3220   13.3780   44.5640 H   0  0  0  0  0  0  0  0  0  0  0  0
   44.7990   11.8490   45.4190 H   0  0  0  0  0  0  0  0  0  0  0  0
   44.9600   13.2460   47.5590 H   0  0  0  0  0  0  0  0  0  0  0  0
   46.2480   13.6360   46.2880 H   0  0  0  0  0  0  0  0  0  0  0  0
   43.4810   14.7450   48.1030 H   0  0  0  0  0  0  0  0  0  0  0  0
   43.0480   16.0500   46.9890 H   0  0  0  0  0  0  0  0  0  0  0  0
   41.6160   13.9160   47.1460 H   0  0  0  0  0  0  0  0  0  0  0  0
   41.9950   14.5600   45.4880 H   0  0  0  0  0  0  0  0  0  0  0  0
   42.6010    8.7720   41.4770 H   0  0  0  0  0  0  0  0  0  0  0  0
   41.4320    7.6570   42.3240 H   0  0  0  0  0  0  0  0  0  0  0  0
   40.9660    9.3090   41.9060 H   0  0  0  0  0  0  0  0  0  0  0  0
   50.8560    1.4990   41.1400 H   0  0  0  0  0  0  0  0  0  0  0  0
   52.1430    2.1310   42.1920 H   0  0  0  0  0  0  0  0  0  0  0  0
   50.4070   -0.1730   43.1750 H   0  0  0  0  0  0  0  0  0  0  0  0
   51.7120   -0.4310   41.9850 H   0  0  0  0  0  0  0  0  0  0  0  0
   52.1630    0.2840   43.5670 H   0  0  0  0  0  0  0  0  0  0  0  0
  2  1  1  0  0  0  0
  3  2  2  0  0  0  0
  3 33  1  0  0  0  0
  4  3  1  0  0  0  0
  5  4  1  0  0  0  0
  5  6  2  0  0  0  0
  6  2  1  0  0  0  0
  7  6  1  0  0  0  0
  7  8  2  0  0  0  0
  9 14  1  0  0  0  0
  9  7  1  0  0  0  0
 10 11  1  0  0  0  0
 10  9  1  0  0  0  0
 11 36  1  0  0  0  0
 11 12  1  0  0  0  0
 12 13  1  0  0  0  0
 12 15  1  0  0  0  0
 13 38  1  0  0  0  0
 14 13  1  0  0  0  0
 14 40  1  0  0  0  0
 15 17  1  0  0  0  0
 15 16  2  0  0  0  0
 17 21  2  0  0  0  0
 18 19  1  0  0  0  0
 18 17  1  0  0  0  0
 19 20  2  0  0  0  0
 20 21  1  0  0  0  0
 20 22  1  0  0  0  0
 21 42  1  0  0  0  0
 22 23  2  0  0  0  0
 24 22  1  0  0  0  0
 24 29  1  0  0  0  0
 25 24  1  0  0  0  0
 25 26  1  0  0  0  0
 26 45  1  0  0  0  0
 27 26  1  0  0  0  0
 27 28  1  0  0  0  0
 28 47  1  0  0  0  0
 29 28  1  0  0  0  0
 29 49  1  0  0  0  0
 30 52  1  0  0  0  0
 30 18  1  0  0  0  0
 31 32  1  0  0  0  0
 31  4  1  0  0  0  0
 32 56  1  0  0  0  0
 32 58  1  0  0  0  0
 34 10  1  0  0  0  0
 35 10  1  0  0  0  0
 37 11  1  0  0  0  0
 39 13  1  0  0  0  0
 41 14  1  0  0  0  0
 43 25  1  0  0  0  0
 44 25  1  0  0  0  0
 46 26  1  0  0  0  0
 48 28  1  0  0  0  0
 50 29  1  0  0  0  0
 51 30  1  0  0  0  0
 53 30  1  0  0  0  0
 54 31  1  0  0  0  0
 55 31  1  0  0  0  0
 57 32  1  0  0  0  0
M  END
>  <Pose>
1

>  <Score>
-6.62

$$$$
