
 OpenBabel03172210433D

 42 45  0  0  0  0  0  0  0  0999 V2000
   51.9810    1.5180   44.9300 B   0  0  0  0  0  0  0  0  0  0  0  0
   50.5480    2.3450   43.9440 C   0  0  0  0  0  0  0  0  0  0  0  0
   49.7460    3.3880   44.3510 C   0  0  0  0  0  0  0  0  0  0  0  0
   48.8620    3.6770   43.3790 N   0  0  0  0  0  0  0  0  0  0  0  0
   49.1040    2.8410   42.3920 N   0  0  0  0  0  0  0  0  0  0  0  0
   50.1090    2.0170   42.6800 C   0  0  0  0  0  0  0  0  0  0  0  0
   47.8520    4.6740   43.3680 C   0  0  0  0  0  0  0  0  0  0  0  0
   46.8310    4.6290   42.4500 C   0  0  0  0  0  0  0  0  0  0  0  0
   45.8440    5.5770   42.4170 C   0  0  0  0  0  0  0  0  0  0  0  0
   45.7990    6.6630   43.3160 C   0  0  0  0  0  0  0  0  0  0  0  0
   46.8260    6.6970   44.2290 C   0  0  0  0  0  0  0  0  0  0  0  0
   47.8320    5.7180   44.2530 C   0  0  0  0  0  0  0  0  0  0  0  0
   44.7450    7.6440   43.1870 C   0  0  0  0  0  0  0  0  0  0  0  0
   45.1640    8.8480   42.9600 O   0  0  0  0  0  0  0  0  0  0  0  0
   43.3720    7.4920   43.2690 N   0  0  0  0  0  0  0  0  0  0  0  0
   42.5620    6.4330   43.8090 C   0  0  0  0  0  0  0  0  0  0  0  0
   42.0970    6.8830   45.1800 C   0  0  0  0  0  0  0  0  0  0  0  0
   41.7870    8.3660   45.1720 C   0  0  0  0  0  0  0  0  0  0  0  0
   40.6120    8.5610   45.9950 N   0  0  0  0  0  0  0  0  0  0  0  0
   41.0390    8.6760   47.3440 C   0  0  0  0  0  0  0  0  0  0  0  0
   40.3500    8.5070   48.4020 O   0  0  0  0  0  0  0  0  0  0  0  0
   42.4310    9.0280   47.3060 N   0  0  0  0  0  0  0  0  0  0  0  0
   42.8140    9.1180   45.9170 C   0  0  0  0  0  0  0  0  0  0  0  0
   43.8240    9.7270   45.5040 O   0  0  0  0  0  0  0  0  0  0  0  0
   41.5060    8.9090   43.8090 C   0  0  0  0  0  0  0  0  0  0  0  0
   42.5310    8.6220   42.7640 C   0  0  0  0  0  0  0  0  0  0  0  0
   49.8170    3.8920   45.3060 H   0  0  0  0  0  0  0  0  0  0  0  0
   50.5510    1.2140   42.0750 H   0  0  0  0  0  0  0  0  0  0  0  0
   46.8590    3.7890   41.7490 H   0  0  0  0  0  0  0  0  0  0  0  0
   45.0620    5.5050   41.6830 H   0  0  0  0  0  0  0  0  0  0  0  0
   46.8810    7.5080   44.9340 H   0  0  0  0  0  0  0  0  0  0  0  0
   48.6240    5.7820   44.9900 H   0  0  0  0  0  0  0  0  0  0  0  0
   41.5670    6.4480   43.2050 H   0  0  0  0  0  0  0  0  0  0  0  0
   42.9090    5.4260   43.7200 H   0  0  0  0  0  0  0  0  0  0  0  0
   41.2310    6.3060   45.5040 H   0  0  0  0  0  0  0  0  0  0  0  0
   42.9250    6.7160   45.8870 H   0  0  0  0  0  0  0  0  0  0  0  0
   39.6190    8.6140   45.6960 H   0  0  0  0  0  0  0  0  0  0  0  0
   43.0880    9.1980   48.0980 H   0  0  0  0  0  0  0  0  0  0  0  0
   41.4700   10.0330   43.9250 H   0  0  0  0  0  0  0  0  0  0  0  0
   40.4790    8.6400   43.4660 H   0  0  0  0  0  0  0  0  0  0  0  0
   42.0340    8.2050   41.8640 H   0  0  0  0  0  0  0  0  0  0  0  0
   43.1530    9.4650   42.4620 H   0  0  0  0  0  0  0  0  0  0  0  0
  2  3  2  0  0  0  0
  2  1  1  0  0  0  0
  3 27  1  0  0  0  0
  4  3  1  0  0  0  0
  5  6  2  0  0  0  0
  5  4  1  0  0  0  0
  6  2  1  0  0  0  0
  7  4  1  0  0  0  0
  7 12  1  0  0  0  0
  8  7  2  0  0  0  0
  9  8  1  0  0  0  0
  9 10  2  0  0  0  0
 10 11  1  0  0  0  0
 11 12  2  0  0  0  0
 11 31  1  0  0  0  0
 12 32  1  0  0  0  0
 13 15  1  0  0  0  0
 13 10  1  0  0  0  0
 14 13  2  0  0  0  0
 15 16  1  0  0  0  0
 16 17  1  0  0  0  0
 17 35  1  0  0  0  0
 17 36  1  0  0  0  0
 18 17  1  0  0  0  0
 18 23  1  0  0  0  0
 18 19  1  0  0  0  0
 19 20  1  0  0  0  0
 20 21  2  0  0  0  0
 22 20  1  0  0  0  0
 22 38  1  0  0  0  0
 23 22  1  0  0  0  0
 24 23  2  0  0  0  0
 25 39  1  0  0  0  0
 25 18  1  0  0  0  0
 26 15  1  0  0  0  0
 26 25  1  0  0  0  0
 28  6  1  0  0  0  0
 29  8  1  0  0  0  0
 30  9  1  0  0  0  0
 33 16  1  0  0  0  0
 34 16  1  0  0  0  0
 37 19  1  0  0  0  0
 40 25  1  0  0  0  0
 41 26  1  0  0  0  0
 42 26  1  0  0  0  0
M  END
>  <Pose>
1

>  <Score>
-6.55

$$$$
