
 OpenBabel03172210433D

 38 41  0  0  0  0  0  0  0  0999 V2000
   41.5370   11.2940   43.4210 B   0  0  0  0  0  0  0  0  0  0  0  0
   42.6090    9.7130   43.3140 C   0  0  0  0  0  0  0  0  0  0  0  0
   43.9800    9.8020   43.2390 C   0  0  0  0  0  0  0  0  0  0  0  0
   44.7040    8.6930   43.1660 N   0  0  0  0  0  0  0  0  0  0  0  0
   44.2020    7.4400   43.1580 C   0  0  0  0  0  0  0  0  0  0  0  0
   42.8410    7.3590   43.2320 N   0  0  0  0  0  0  0  0  0  0  0  0
   42.0580    8.4500   43.3080 C   0  0  0  0  0  0  0  0  0  0  0  0
   44.9860    6.2840   43.0800 N   0  0  0  0  0  0  0  0  0  0  0  0
   45.9390    5.7400   42.1550 C   0  0  0  0  0  0  0  0  0  0  0  0
   46.6520    5.2110   43.3840 C   0  0  0  0  0  0  0  0  0  0  0  0
   45.2100    5.1060   43.8690 C   0  0  0  0  0  0  0  0  0  0  0  0
   47.3600    3.9040   43.2140 C   0  0  0  0  0  0  0  0  0  0  0  0
   48.5380    3.9270   44.0410 N   0  0  0  0  0  0  0  0  0  0  0  0
   48.5170    4.5680   45.2800 N   0  0  0  0  0  0  0  0  0  0  0  0
   49.6540    4.6170   46.1310 C   0  0  0  0  0  0  0  0  0  0  0  0
   49.5810    5.2370   47.2930 C   0  0  0  0  0  0  0  0  0  0  0  0
   48.9320    6.0080   48.3710 C   0  0  0  0  0  0  0  0  0  0  0  0
   50.3240    5.6290   48.5540 C   0  0  0  0  0  0  0  0  0  0  0  0
   50.8970    3.9890   45.7270 C   0  0  0  0  0  0  0  0  0  0  0  0
   50.9400    3.3750   44.5550 C   0  0  0  0  0  0  0  0  0  0  0  0
   49.7630    3.3180   43.6640 C   0  0  0  0  0  0  0  0  0  0  0  0
   49.8300    2.7270   42.5540 O   0  0  0  0  0  0  0  0  0  0  0  0
   44.4000   10.8030   43.2450 H   0  0  0  0  0  0  0  0  0  0  0  0
   40.9770    8.3970   43.3680 H   0  0  0  0  0  0  0  0  0  0  0  0
   45.5680    4.8540   41.5670 H   0  0  0  0  0  0  0  0  0  0  0  0
   46.5160    6.4630   41.5560 H   0  0  0  0  0  0  0  0  0  0  0  0
   47.2040    6.0120   43.8850 H   0  0  0  0  0  0  0  0  0  0  0  0
   44.7370    4.1760   43.4850 H   0  0  0  0  0  0  0  0  0  0  0  0
   45.0780    5.2120   44.9590 H   0  0  0  0  0  0  0  0  0  0  0  0
   47.6510    3.7590   42.1500 H   0  0  0  0  0  0  0  0  0  0  0  0
   46.7470    3.0550   43.5140 H   0  0  0  0  0  0  0  0  0  0  0  0
   47.6030    5.0260   45.5680 H   0  0  0  0  0  0  0  0  0  0  0  0
   48.7240    7.0910   48.1940 H   0  0  0  0  0  0  0  0  0  0  0  0
   48.1680    5.5330   49.0080 H   0  0  0  0  0  0  0  0  0  0  0  0
   51.1140    6.4120   48.4320 H   0  0  0  0  0  0  0  0  0  0  0  0
   50.6100    4.7700   49.2040 H   0  0  0  0  0  0  0  0  0  0  0  0
   51.7930    4.0170   46.3770 H   0  0  0  0  0  0  0  0  0  0  0  0
   51.8710    2.9120   44.2690 H   0  0  0  0  0  0  0  0  0  0  0  0
  2  1  1  0  0  0  0
  3 23  1  0  0  0  0
  3  2  2  0  0  0  0
  4  3  1  0  0  0  0
  5  4  2  0  0  0  0
  5  6  1  0  0  0  0
  6  7  2  0  0  0  0
  7  2  1  0  0  0  0
  7 24  1  0  0  0  0
  8  5  1  0  0  0  0
  8 11  1  0  0  0  0
  9  8  1  0  0  0  0
  9 10  1  0  0  0  0
 10 11  1  0  0  0  0
 10 27  1  0  0  0  0
 11 29  1  0  0  0  0
 12 10  1  0  0  0  0
 12 31  1  0  0  0  0
 12 13  1  0  0  0  0
 13 14  1  0  0  0  0
 14 32  1  0  0  0  0
 14 15  1  0  0  0  0
 15 16  2  0  0  0  0
 16 17  1  0  0  0  0
 16 18  1  0  0  0  0
 17 18  1  0  0  0  0
 17 34  1  0  0  0  0
 18 36  1  0  0  0  0
 19 15  1  0  0  0  0
 19 37  1  0  0  0  0
 20 19  2  0  0  0  0
 21 13  1  0  0  0  0
 21 20  1  0  0  0  0
 22 21  2  0  0  0  0
 25  9  1  0  0  0  0
 26  9  1  0  0  0  0
 28 11  1  0  0  0  0
 30 12  1  0  0  0  0
 33 17  1  0  0  0  0
 35 18  1  0  0  0  0
 38 20  1  0  0  0  0
M  END
>  <Pose>
1

>  <Score>
-6.45

$$$$
