
 OpenBabel03172210433D

 37 40  0  0  1  0  0  0  0  0999 V2000
   43.8170   12.2810   45.2220 B   0  0  0  0  0  0  0  0  0  0  0  0
   42.8590   11.0300   44.1210 C   0  0  0  0  0  0  0  0  0  0  0  0
   41.9210   11.5160   43.2390 C   0  0  0  0  0  0  0  0  0  0  0  0
   41.2680   10.6270   42.4840 N   0  0  0  0  0  0  0  0  0  0  0  0
   41.5040    9.2850   42.5660 C   0  0  0  0  0  0  0  0  0  0  0  0
   42.4250    8.7400   43.4250 C   0  0  0  0  0  0  0  0  0  0  0  0
   43.1070    9.6840   44.2150 C   0  0  0  0  0  0  0  0  0  0  0  0
   42.7300    7.3400   43.5830 C   0  0  0  0  0  0  0  0  0  0  0  0
   41.7810    6.5540   43.8900 O   0  0  0  0  0  0  0  0  0  0  0  0
   44.0140    6.8070   43.4160 N   0  0  0  0  0  0  0  0  0  0  0  0
   45.2100    7.0010   42.6390 C   0  0  0  0  0  0  0  0  0  0  0  0
   45.8320    5.7130   43.1570 C   0  0  0  0  0  0  0  0  0  0  0  0
   44.6810    5.6920   44.1160 C   0  0  0  0  0  0  0  0  0  0  0  0
   47.1030    5.8080   43.7200 O   0  0  0  0  0  0  0  0  0  0  0  0
   48.0360    4.7950   43.7980 C   0  0  2  0  0  0  0  0  0  0  0  0
   48.8670    4.7400   44.8350 C   0  0  0  0  0  0  0  0  0  0  0  0
   49.8740    3.6950   44.9750 C   0  0  0  0  0  0  0  0  0  0  0  0
   50.6820    3.6710   46.0190 C   0  0  0  0  0  0  0  0  0  0  0  0
   49.9480    2.7150   43.9490 N   0  0  0  0  0  0  0  0  0  0  0  0
   49.0390    2.8000   42.8410 C   0  0  0  0  0  0  0  0  0  0  0  0
   48.1350    3.7870   42.7710 N   0  0  0  0  0  0  0  0  0  0  0  0
   47.4230    3.6400   41.6490 N   0  0  0  0  0  0  0  0  0  0  0  0
   47.8940    2.5540   41.0250 C   0  0  0  0  0  0  0  0  0  0  0  0
   48.8870    2.0360   41.7540 N   0  0  0  0  0  0  0  0  0  0  0  0
   41.7140   12.5940   43.1560 H   0  0  0  0  0  0  0  0  0  0  0  0
   40.9520    8.6010   41.9250 H   0  0  0  0  0  0  0  0  0  0  0  0
   43.8470    9.3190   44.9120 H   0  0  0  0  0  0  0  0  0  0  0  0
   45.0610    6.9120   41.5310 H   0  0  0  0  0  0  0  0  0  0  0  0
   45.7290    7.9160   42.9490 H   0  0  0  0  0  0  0  0  0  0  0  0
   45.8070    4.8970   42.3890 H   0  0  0  0  0  0  0  0  0  0  0  0
   44.9090    6.0210   45.1280 H   0  0  0  0  0  0  0  0  0  0  0  0
   44.1050    4.7590   44.0940 H   0  0  0  0  0  0  0  0  0  0  0  0
   48.7780    5.5270   45.6010 H   0  0  0  0  0  0  0  0  0  0  0  0
   51.4090    2.8890   46.0890 H   0  0  0  0  0  0  0  0  0  0  0  0
   50.6230    4.4060   46.7830 H   0  0  0  0  0  0  0  0  0  0  0  0
   50.6580    1.9680   44.0380 H   0  0  0  0  0  0  0  0  0  0  0  0
   47.5510    2.1280   40.0730 H   0  0  0  0  0  0  0  0  0  0  0  0
  2  7  1  0  0  0  0
  2  1  1  0  0  0  0
  3  2  2  0  0  0  0
  4  5  2  0  0  0  0
  4  3  1  0  0  0  0
  5  6  1  0  0  0  0
  6  8  1  0  0  0  0
  6  7  2  0  0  0  0
  7 27  1  0  0  0  0
  8  9  2  0  0  0  0
 10  8  1  0  0  0  0
 10 13  1  0  0  0  0
 11 29  1  0  0  0  0
 11 12  1  0  0  0  0
 11 10  1  0  0  0  0
 12 14  1  0  0  0  0
 12 13  1  0  0  0  0
 13 31  1  0  0  0  0
 15 14  1  6  0  0  0
 15 16  1  0  0  0  0
 16 17  2  0  0  0  0
 16 33  1  0  0  0  0
 17 18  1  0  0  0  0
 18 34  1  0  0  0  0
 18 35  1  0  0  0  0
 19 36  1  0  0  0  0
 19 17  1  0  0  0  0
 20 19  1  0  0  0  0
 21 20  1  0  0  0  0
 21 15  1  0  0  0  0
 22 21  1  0  0  0  0
 23 22  2  0  0  0  0
 23 24  1  0  0  0  0
 24 20  2  0  0  0  0
 25  3  1  0  0  0  0
 26  5  1  0  0  0  0
 28 11  1  0  0  0  0
 30 12  1  0  0  0  0
 32 13  1  0  0  0  0
 37 23  1  0  0  0  0
M  END
>  <Pose>
1

>  <Score>
-6.74

$$$$
