
 OpenBabel03172210433D

 45 41  0  0  1  0  0  0  0  0999 V2000
   46.1120    7.2510   43.0790 B   0  0  0  0  0  0  0  0  0  0  0  0
   47.1850    5.7340   43.5000 C   0  0  0  0  0  0  0  0  0  0  0  0
   48.0140    5.7050   44.6010 C   0  0  0  0  0  0  0  0  0  0  0  0
   48.7740    4.6380   44.9040 N   0  0  0  0  0  0  0  0  0  0  0  0
   48.7230    3.5630   44.1040 C   0  0  0  0  0  0  0  0  0  0  0  0
   47.9210    3.5120   42.9860 C   0  0  0  0  0  0  0  0  0  0  0  0
   47.1570    4.6130   42.7000 C   0  0  0  0  0  0  0  0  0  0  0  0
   47.8760    2.3350   42.1270 C   0  0  0  0  0  0  0  0  0  0  0  0
   47.0640    2.2970   41.1700 O   0  0  0  0  0  0  0  0  0  0  0  0
   48.7440    1.2880   42.3990 O   0  0  0  0  0  0  0  0  0  0  0  0
   50.3950    2.8850   44.0070 N   0  0  0  0  0  0  0  0  0  0  0  0
   50.2140    2.4880   45.4160 C   0  0  0  0  0  0  0  0  0  0  0  0
   50.6680    3.6110   46.2890 C   0  0  0  0  0  0  0  0  0  0  0  0
   49.8270    4.8280   46.0120 C   0  0  0  0  0  0  0  0  0  0  0  0
   49.0510    4.7640   44.7620 C   0  0  0  0  0  0  0  0  0  0  0  0
   49.3250    3.8270   43.7910 C   0  0  2  0  0  0  0  0  0  0  0  0
   48.5860    3.8250   42.6830 N   0  0  0  0  0  0  0  0  0  0  0  0
   47.5770    4.6930   42.4560 C   0  0  0  0  0  0  0  0  0  0  0  0
   47.2760    5.6450   43.4070 C   0  0  0  0  0  0  0  0  0  0  0  0
   48.0130    5.6850   44.5690 C   0  0  0  0  0  0  0  0  0  0  0  0
   47.6990    6.6690   45.5480 N   0  0  0  0  0  0  0  0  0  0  0  0
   46.2330    6.5450   43.1750 C   0  0  2  0  0  0  0  0  0  0  0  0
   45.4830    6.5210   42.0200 C   0  0  0  0  0  0  0  0  0  0  0  0
   45.7900    5.5670   41.0710 C   0  0  0  0  0  0  0  0  0  0  0  0
   46.8250    4.6730   41.3010 C   0  0  0  0  0  0  0  0  0  0  0  0
   50.2030    1.6790   43.2270 C   0  0  0  0  0  0  0  0  0  0  0  0
   48.0270    6.6040   45.2290 H   0  0  0  0  0  0  0  0  0  0  0  0
   49.3370    2.7100   44.3550 H   0  0  0  0  0  0  0  0  0  0  0  0
   46.4990    4.6550   41.8390 H   0  0  0  0  0  0  0  0  0  0  0  0
   51.3250    3.3120   43.8650 H   0  0  0  0  0  0  0  0  0  0  0  0
   50.8050    1.5870   45.6540 H   0  0  0  0  0  0  0  0  0  0  0  0
   49.1190    2.3210   45.5380 H   0  0  0  0  0  0  0  0  0  0  0  0
   50.6160    3.2990   47.3550 H   0  0  0  0  0  0  0  0  0  0  0  0
   51.7540    3.8000   46.0410 H   0  0  0  0  0  0  0  0  0  0  0  0
   49.1730    4.9720   46.9070 H   0  0  0  0  0  0  0  0  0  0  0  0
   50.5240    5.7050   46.0270 H   0  0  0  0  0  0  0  0  0  0  0  0
   47.1520    6.3510   46.3780 H   0  0  0  0  0  0  0  0  0  0  0  0
   47.9700    7.6610   45.4960 H   0  0  0  0  0  0  0  0  0  0  0  0
   45.9960    7.2870   43.9130 H   0  0  0  0  0  0  0  0  0  0  0  0
   44.6800    7.2410   41.8790 H   0  0  0  0  0  0  0  0  0  0  0  0
   45.1920    5.5620   40.1700 H   0  0  0  0  0  0  0  0  0  0  0  0
   47.0400    3.9360   40.5350 H   0  0  0  0  0  0  0  0  0  0  0  0
   49.1320    1.3970   43.2910 H   0  0  0  0  0  0  0  0  0  0  0  0
   50.5210    1.8680   42.1680 H   0  0  0  0  0  0  0  0  0  0  0  0
   50.8220    0.8920   43.7020 H   0  0  0  0  0  0  0  0  0  0  0  0
  1 22  1  0  0  0  0
  1 39  1  0  0  0  0
  2 20  2  0  0  0  0
  5 28  1  0  0  0  0
  5  4  1  0  0  0  0
  7 19  1  0  0  0  0
  8 10  1  0  0  0  0
  8 17  1  0  0  0  0
  9  8  2  0  0  0  0
 10 43  1  0  0  0  0
 12 32  1  0  0  0  0
 12 31  1  0  0  0  0
 12 13  1  0  0  0  0
 13 33  1  0  0  0  0
 14 36  1  0  0  0  0
 14 13  1  0  0  0  0
 14 35  1  0  0  0  0
 15 14  1  0  0  0  0
 16  5  1  0  0  0  0
 16 15  1  1  0  0  0
 17  6  1  0  0  0  0
 17 16  1  0  0  0  0
 18  7  1  0  0  0  0
 18  6  1  0  0  0  0
 20  4  1  0  0  0  0
 21 37  1  0  0  0  0
 22  2  1  6  0  0  0
 23 22  1  0  0  0  0
 24 25  1  0  0  0  0
 24 23  2  0  0  0  0
 25 29  1  0  0  0  0
 26 45  1  0  0  0  0
 26 11  1  0  0  0  0
 27 21  1  0  0  0  0
 30 11  1  0  0  0  0
 34 13  1  0  0  0  0
 38 21  1  0  0  0  0
 40 23  1  0  0  0  0
 41 24  1  0  0  0  0
 42 25  1  0  0  0  0
 44 26  1  0  0  0  0
M  END
>  <Pose>
1

>  <Score>
-6.99

$$$$
