
 OpenBabel03172210433D

 57 60  0  0  0  0  0  0  0  0999 V2000
   46.6710    5.4040   42.2380 B   0  0  0  0  0  0  0  0  0  0  0  0
   46.5860    6.2460   43.9390 C   0  0  0  0  0  0  0  0  0  0  0  0
   45.4340    6.9130   44.3110 C   0  0  0  0  0  0  0  0  0  0  0  0
   45.3070    7.5570   45.5510 C   0  0  0  0  0  0  0  0  0  0  0  0
   46.3610    7.5270   46.4300 C   0  0  0  0  0  0  0  0  0  0  0  0
   47.5150    6.8620   46.0640 C   0  0  0  0  0  0  0  0  0  0  0  0
   47.6410    6.2290   44.8460 C   0  0  0  0  0  0  0  0  0  0  0  0
   48.9950    6.7990   47.2590 B   0  0  0  0  0  0  0  0  0  0  0  0
   44.0760    8.2600   45.8920 C   0  0  0  0  0  0  0  0  0  0  0  0
   44.1810    9.1550   46.7740 O   0  0  0  0  0  0  0  0  0  0  0  0
   42.7980    7.9540   45.2590 C   0  0  0  0  0  0  0  0  0  0  0  0
   43.0440    6.9380   44.1130 C   0  0  0  0  0  0  0  0  0  0  0  0
   44.2940    7.0280   43.5340 O   0  0  0  0  0  0  0  0  0  0  0  0
   41.7670    7.3210   46.0760 C   0  0  0  0  0  0  0  0  0  0  0  0
   41.1780    7.8390   47.2210 N   0  0  0  0  0  4  0  0  0  0  0  0
   40.4720    9.0820   47.1860 C   0  0  0  0  0  0  0  0  0  0  0  0
   39.4700    9.0390   48.3680 C   0  0  0  0  0  0  0  0  0  0  0  0
   40.3180    9.2170   49.6100 C   0  0  0  0  0  0  0  0  0  0  0  0
   41.7790    8.9380   49.3380 C   0  0  0  0  0  0  0  0  0  0  0  0
   41.9650    7.7320   48.4410 C   0  0  0  0  0  0  0  0  0  0  0  0
   42.2590    9.2410   44.6540 C   0  0  0  0  0  0  0  0  0  0  0  0
   41.0450    9.0430   43.9010 N   0  0  0  0  0  4  0  0  0  0  0  0
   41.3940    9.0370   42.4870 C   0  0  0  0  0  0  0  0  0  0  0  0
   42.1530   10.2820   42.1670 C   0  0  0  0  0  0  0  0  0  0  0  0
   41.4860   11.5480   42.5630 C   0  0  0  0  0  0  0  0  0  0  0  0
   40.6920   11.4890   43.8220 C   0  0  0  0  0  0  0  0  0  0  0  0
   40.0820   10.1210   44.0280 C   0  0  0  0  0  0  0  0  0  0  0  0
   46.2830    8.0240   47.4070 H   0  0  0  0  0  0  0  0  0  0  0  0
   48.5430    5.7070   44.5550 H   0  0  0  0  0  0  0  0  0  0  0  0
   42.2000    7.0000   43.3870 H   0  0  0  0  0  0  0  0  0  0  0  0
   42.9240    5.9380   44.5770 H   0  0  0  0  0  0  0  0  0  0  0  0
   42.1190    6.2740   46.3630 H   0  0  0  0  0  0  0  0  0  0  0  0
   40.9270    7.0500   45.3470 H   0  0  0  0  0  0  0  0  0  0  0  0
   40.3710    7.1410   47.4240 H   0  0  0  0  0  0  0  0  0  0  0  0
   39.8750    9.2010   46.2750 H   0  0  0  0  0  0  0  0  0  0  0  0
   41.0740    9.9750   47.4670 H   0  0  0  0  0  0  0  0  0  0  0  0
   38.9370    8.0710   48.3750 H   0  0  0  0  0  0  0  0  0  0  0  0
   38.7630    9.8810   48.2280 H   0  0  0  0  0  0  0  0  0  0  0  0
   40.2590   10.3110   49.8700 H   0  0  0  0  0  0  0  0  0  0  0  0
   39.9250    8.6730   50.4810 H   0  0  0  0  0  0  0  0  0  0  0  0
   42.2110    8.6340   50.3380 H   0  0  0  0  0  0  0  0  0  0  0  0
   42.3570    9.8130   49.0340 H   0  0  0  0  0  0  0  0  0  0  0  0
   41.6540    6.8510   49.0800 H   0  0  0  0  0  0  0  0  0  0  0  0
   43.0310    7.5730   48.2810 H   0  0  0  0  0  0  0  0  0  0  0  0
   42.1800   10.0310   45.4050 H   0  0  0  0  0  0  0  0  0  0  0  0
   43.0290    9.5420   43.9180 H   0  0  0  0  0  0  0  0  0  0  0  0
   40.5550    8.1760   44.1850 H   0  0  0  0  0  0  0  0  0  0  0  0
   41.9800    8.1600   42.2010 H   0  0  0  0  0  0  0  0  0  0  0  0
   40.4280    9.0890   41.9190 H   0  0  0  0  0  0  0  0  0  0  0  0
   42.2840   10.2950   41.0440 H   0  0  0  0  0  0  0  0  0  0  0  0
   43.1880   10.2960   42.5610 H   0  0  0  0  0  0  0  0  0  0  0  0
   42.2690   12.3510   42.7060 H   0  0  0  0  0  0  0  0  0  0  0  0
   40.8770   11.9280   41.6940 H   0  0  0  0  0  0  0  0  0  0  0  0
   39.8090   12.1830   43.6750 H   0  0  0  0  0  0  0  0  0  0  0  0
   41.2030   11.8820   44.7160 H   0  0  0  0  0  0  0  0  0  0  0  0
   39.4470   10.0790   44.9070 H   0  0  0  0  0  0  0  0  0  0  0  0
   39.3780    9.9840   43.1510 H   0  0  0  0  0  0  0  0  0  0  0  0
  1  2  1  0  0  0  0
  2  3  2  0  0  0  0
  2  7  1  0  0  0  0
  3  4  1  0  0  0  0
  4  9  1  0  0  0  0
  4  5  2  0  0  0  0
  5 28  1  0  0  0  0
  6  5  1  0  0  0  0
  6  8  1  0  0  0  0
  7  6  2  0  0  0  0
  9 10  2  0  0  0  0
 11  9  1  0  0  0  0
 11 14  1  0  0  0  0
 12 31  1  0  0  0  0
 12 11  1  0  0  0  0
 13 12  1  0  0  0  0
 13  3  1  0  0  0  0
 14 32  1  0  0  0  0
 14 15  1  0  0  0  0
 15 34  1  0  0  0  0
 15 20  1  0  0  0  0
 16 15  1  0  0  0  0
 16 36  1  0  0  0  0
 16 17  1  0  0  0  0
 17 37  1  0  0  0  0
 17 18  1  0  0  0  0
 18 39  1  0  0  0  0
 18 40  1  0  0  0  0
 19 18  1  0  0  0  0
 19 41  1  0  0  0  0
 20 43  1  0  0  0  0
 20 19  1  0  0  0  0
 21 11  1  0  0  0  0
 21 45  1  0  0  0  0
 22 27  1  0  0  0  0
 22 47  1  0  0  0  0
 22 21  1  0  0  0  0
 23 22  1  0  0  0  0
 24 23  1  0  0  0  0
 24 51  1  0  0  0  0
 24 25  1  0  0  0  0
 25 52  1  0  0  0  0
 25 26  1  0  0  0  0
 26 27  1  0  0  0  0
 26 55  1  0  0  0  0
 27 56  1  0  0  0  0
 29  7  1  0  0  0  0
 30 12  1  0  0  0  0
 33 14  1  0  0  0  0
 35 16  1  0  0  0  0
 38 17  1  0  0  0  0
 42 19  1  0  0  0  0
 44 20  1  0  0  0  0
 46 21  1  0  0  0  0
 48 23  1  0  0  0  0
 49 23  1  0  0  0  0
 50 24  1  0  0  0  0
 53 25  1  0  0  0  0
 54 26  1  0  0  0  0
 57 27  1  0  0  0  0
M  END
>  <Pose>
1

>  <Score>
-4.80

$$$$
