
 OpenBabel03172210433D

 31 34  0  0  0  0  0  0  0  0999 V2000
   42.8090   11.6080   46.9280 B   0  0  0  0  0  0  0  0  0  0  0  0
   42.8980   10.4270   45.4150 C   0  0  0  0  0  0  0  0  0  0  0  0
   42.2650   10.8280   44.2570 C   0  0  0  0  0  0  0  0  0  0  0  0
   42.3290    9.9850   43.1750 C   0  0  0  0  0  0  0  0  0  0  0  0
   43.0120    8.7710   43.2630 C   0  0  0  0  0  0  0  0  0  0  0  0
   43.6470    8.3620   44.4130 C   0  0  0  0  0  0  0  0  0  0  0  0
   43.5760    9.2280   45.5080 C   0  0  0  0  0  0  0  0  0  0  0  0
   44.3830    7.0780   44.5350 C   0  0  0  0  0  0  0  0  0  0  0  0
   45.8010    7.3400   44.5670 N   0  0  0  0  0  0  0  0  0  0  0  0
   46.6980    6.3110   44.1060 C   0  0  0  0  0  0  0  0  0  0  0  0
   47.6850    5.8540   44.8880 N   0  0  0  0  0  0  0  0  0  0  0  0
   48.5180    4.8930   44.4490 C   0  0  0  0  0  0  0  0  0  0  0  0
   48.3830    4.3440   43.1780 C   0  0  0  0  0  0  0  0  0  0  0  0
   47.3980    4.8040   42.4070 N   0  0  0  0  0  0  0  0  0  0  0  0
   46.5560    5.7740   42.8460 C   0  0  0  0  0  0  0  0  0  0  0  0
   45.6780    6.0290   41.8620 N   0  0  0  0  0  0  0  0  0  0  0  0
   45.9350    5.2560   40.8210 N   0  0  0  0  0  0  0  0  0  0  0  0
   46.9890    4.5080   41.1600 C   0  0  0  0  0  0  0  0  0  0  0  0
   41.6210   10.6120   42.1480 O   0  0  0  0  0  0  0  0  0  0  0  0
   40.7190   11.5440   42.7630 C   0  0  0  0  0  0  0  0  0  0  0  0
   41.5250   11.9540   43.8770 O   0  0  0  0  0  0  0  0  0  0  0  0
   43.0330    8.1440   42.3970 H   0  0  0  0  0  0  0  0  0  0  0  0
   44.0520    8.9660   46.4380 H   0  0  0  0  0  0  0  0  0  0  0  0
   44.1860    6.4710   43.6090 H   0  0  0  0  0  0  0  0  0  0  0  0
   44.0450    6.4880   45.4120 H   0  0  0  0  0  0  0  0  0  0  0  0
   46.1860    8.2370   44.9080 H   0  0  0  0  0  0  0  0  0  0  0  0
   49.3190    4.5080   45.0560 H   0  0  0  0  0  0  0  0  0  0  0  0
   49.0490    3.5780   42.8330 H   0  0  0  0  0  0  0  0  0  0  0  0
   47.4300    3.7710   40.4900 H   0  0  0  0  0  0  0  0  0  0  0  0
   40.4590   12.3710   42.1050 H   0  0  0  0  0  0  0  0  0  0  0  0
   39.8560   10.9850   43.1740 H   0  0  0  0  0  0  0  0  0  0  0  0
  2  7  1  0  0  0  0
  2  1  1  0  0  0  0
  3  2  2  0  0  0  0
  4  5  2  0  0  0  0
  4  3  1  0  0  0  0
  5  6  1  0  0  0  0
  6  8  1  0  0  0  0
  6  7  2  0  0  0  0
  7 23  1  0  0  0  0
  8  9  1  0  0  0  0
  8 25  1  0  0  0  0
  9 26  1  0  0  0  0
 10  9  1  0  0  0  0
 10 11  2  0  0  0  0
 12 11  1  0  0  0  0
 12 27  1  0  0  0  0
 13 12  2  0  0  0  0
 14 15  1  0  0  0  0
 14 13  1  0  0  0  0
 15 10  1  0  0  0  0
 16 15  2  0  0  0  0
 17 18  2  0  0  0  0
 17 16  1  0  0  0  0
 18 14  1  0  0  0  0
 19 20  1  0  0  0  0
 19  4  1  0  0  0  0
 20 31  1  0  0  0  0
 20 21  1  0  0  0  0
 21  3  1  0  0  0  0
 22  5  1  0  0  0  0
 24  8  1  0  0  0  0
 28 13  1  0  0  0  0
 29 18  1  0  0  0  0
 30 20  1  0  0  0  0
M  END
>  <Pose>
1

>  <Score>
-5.84

$$$$
