
 OpenBabel03172210433D

 56 59  0  0  1  0  0  0  0  0999 V2000
   41.5950    6.8790   46.1230 B   0  0  0  0  0  0  0  0  0  0  0  0
   42.6790    7.7800   44.8520 C   0  0  0  0  0  0  0  0  0  0  0  0
   43.8130    7.1340   44.3400 C   0  0  0  0  0  0  0  0  0  0  0  0
   44.6230    7.7270   43.4200 C   0  0  0  0  0  0  0  0  0  0  0  0
   44.3100    9.0040   42.9880 C   0  0  0  0  0  0  0  0  0  0  0  0
   43.1870    9.6520   43.4910 C   0  0  0  0  0  0  0  0  0  0  0  0
   42.3700    9.0500   44.4190 C   0  0  0  0  0  0  0  0  0  0  0  0
   42.8160   11.0270   43.0510 C   0  0  0  0  0  0  0  0  0  0  0  0
   45.7980    7.0050   42.8600 C   0  0  1  0  0  0  0  0  0  0  0  0
   46.4630    6.0190   43.7510 C   0  0  0  0  0  0  0  0  0  0  0  0
   45.5900    5.7130   44.9920 C   0  0  0  0  0  0  0  0  0  0  0  0
   44.2070    5.8580   44.7180 O   0  0  0  0  0  0  0  0  0  0  0  0
   47.7430    6.5500   44.3700 C   0  0  0  0  0  0  0  0  0  0  0  0
   47.7970    6.4600   45.8130 N   0  0  0  0  0  4  0  0  0  0  0  0
   46.9100    7.4650   46.3990 C   0  0  0  0  0  0  0  0  0  0  0  0
   47.3960    7.7530   47.7710 C   0  0  0  0  0  0  0  0  0  0  0  0
   48.7100    7.0510   47.8460 C   0  0  0  0  0  0  0  0  0  0  0  0
   49.0660    6.9100   46.3600 C   0  0  0  0  0  0  0  0  0  0  0  0
   46.6330    4.6950   43.1100 C   0  0  0  0  0  0  0  0  0  0  0  0
   47.4250    3.6360   43.4710 N   0  0  0  0  0  4  0  0  0  0  0  0
   48.0300    3.0180   42.2700 C   0  0  0  0  0  0  0  0  0  0  0  0
   49.3720    2.5410   42.6710 C   0  0  0  0  0  0  0  0  0  0  0  0
   49.7800    3.3540   43.8390 C   0  0  0  0  0  0  0  0  0  0  0  0
   48.4470    3.8280   44.4150 C   0  0  0  0  0  0  0  0  0  0  0  0
   45.2610    6.4270   41.6750 O   0  0  0  0  0  0  0  0  0  0  0  0
   44.9000    9.5310   42.2700 H   0  0  0  0  0  0  0  0  0  0  0  0
   41.4930    9.5200   44.8300 H   0  0  0  0  0  0  0  0  0  0  0  0
   43.6910   11.5850   42.6730 H   0  0  0  0  0  0  0  0  0  0  0  0
   42.0150   10.9280   42.2700 H   0  0  0  0  0  0  0  0  0  0  0  0
   42.3160   11.5770   43.8970 H   0  0  0  0  0  0  0  0  0  0  0  0
   46.5130    7.7820   42.4610 H   0  0  0  0  0  0  0  0  0  0  0  0
   45.9330    6.2400   45.8810 H   0  0  0  0  0  0  0  0  0  0  0  0
   45.7330    4.6230   45.2290 H   0  0  0  0  0  0  0  0  0  0  0  0
   48.5920    5.8790   44.0170 H   0  0  0  0  0  0  0  0  0  0  0  0
   48.0590    7.5350   44.0800 H   0  0  0  0  0  0  0  0  0  0  0  0
   47.6210    5.5250   46.2070 H   0  0  0  0  0  0  0  0  0  0  0  0
   45.8660    7.1720   46.4070 H   0  0  0  0  0  0  0  0  0  0  0  0
   47.0030    8.3650   45.7400 H   0  0  0  0  0  0  0  0  0  0  0  0
   46.6680    7.4520   48.5380 H   0  0  0  0  0  0  0  0  0  0  0  0
   47.5400    8.8640   47.9070 H   0  0  0  0  0  0  0  0  0  0  0  0
   48.5420    6.0190   48.2560 H   0  0  0  0  0  0  0  0  0  0  0  0
   49.4950    7.5930   48.3880 H   0  0  0  0  0  0  0  0  0  0  0  0
   49.3260    7.9230   45.9800 H   0  0  0  0  0  0  0  0  0  0  0  0
   49.8930    6.2180   46.2430 H   0  0  0  0  0  0  0  0  0  0  0  0
   45.5620    4.2320   42.9480 H   0  0  0  0  0  0  0  0  0  0  0  0
   46.8510    4.8620   41.9740 H   0  0  0  0  0  0  0  0  0  0  0  0
   46.8100    2.7690   43.8020 H   0  0  0  0  0  0  0  0  0  0  0  0
   47.4530    2.1160   41.9350 H   0  0  0  0  0  0  0  0  0  0  0  0
   48.0430    3.6810   41.4070 H   0  0  0  0  0  0  0  0  0  0  0  0
   49.3710    1.4650   42.9610 H   0  0  0  0  0  0  0  0  0  0  0  0
   50.1310    2.6870   41.8580 H   0  0  0  0  0  0  0  0  0  0  0  0
   50.2930    2.7680   44.6200 H   0  0  0  0  0  0  0  0  0  0  0  0
   50.4400    4.2160   43.5810 H   0  0  0  0  0  0  0  0  0  0  0  0
   48.6470    4.8330   44.7710 H   0  0  0  0  0  0  0  0  0  0  0  0
   48.2490    3.2260   45.3690 H   0  0  0  0  0  0  0  0  0  0  0  0
   44.3690    6.7660   41.4890 H   0  0  0  0  0  0  0  0  0  0  0  0
  2  1  1  0  0  0  0
  3 12  1  0  0  0  0
  3  2  2  0  0  0  0
  4  3  1  0  0  0  0
  5  4  2  0  0  0  0
  5  6  1  0  0  0  0
  6  7  2  0  0  0  0
  7 27  1  0  0  0  0
  7  2  1  0  0  0  0
  8  6  1  0  0  0  0
  8 30  1  0  0  0  0
  9 31  1  6  0  0  0
  9  4  1  0  0  0  0
  9 10  1  0  0  0  0
 10 13  1  0  0  0  0
 10 11  1  0  0  0  0
 11 33  1  0  0  0  0
 11 32  1  0  0  0  0
 12 11  1  0  0  0  0
 13 14  1  0  0  0  0
 14 36  1  0  0  0  0
 14 18  1  0  0  0  0
 14 15  1  0  0  0  0
 15 37  1  0  0  0  0
 15 16  1  0  0  0  0
 16 17  1  0  0  0  0
 16 40  1  0  0  0  0
 16 39  1  0  0  0  0
 17 41  1  0  0  0  0
 17 42  1  0  0  0  0
 18 17  1  0  0  0  0
 19 20  1  0  0  0  0
 19 10  1  0  0  0  0
 20 47  1  0  0  0  0
 20 24  1  0  0  0  0
 21 22  1  0  0  0  0
 21 20  1  0  0  0  0
 22 50  1  0  0  0  0
 22 23  1  0  0  0  0
 23 24  1  0  0  0  0
 23 52  1  0  0  0  0
 24 54  1  0  0  0  0
 24 55  1  0  0  0  0
 25  9  1  0  0  0  0
 26  5  1  0  0  0  0
 28  8  1  0  0  0  0
 29  8  1  0  0  0  0
 34 13  1  0  0  0  0
 35 13  1  0  0  0  0
 38 15  1  0  0  0  0
 43 18  1  0  0  0  0
 44 18  1  0  0  0  0
 45 19  1  0  0  0  0
 46 19  1  0  0  0  0
 48 21  1  0  0  0  0
 49 21  1  0  0  0  0
 51 22  1  0  0  0  0
 53 23  1  0  0  0  0
 56 25  1  0  0  0  0
M  END
>  <Pose>
1

>  <Score>
-5.48

$$$$
