
 OpenBabel03172210433D

 56 59  0  0  1  0  0  0  0  0999 V2000
   49.2160    4.8540   46.0990 B   0  0  0  0  0  0  0  0  0  0  0  0
   48.9480    3.8880   44.4820 C   0  0  0  0  0  0  0  0  0  0  0  0
   49.9490    3.0590   44.0150 C   0  0  0  0  0  0  0  0  0  0  0  0
   49.7810    2.3470   42.8460 C   0  0  0  0  0  0  0  0  0  0  0  0
   48.5820    2.5020   42.1810 C   0  0  0  0  0  0  0  0  0  0  0  0
   47.5860    3.3320   42.6550 C   0  0  0  0  0  0  0  0  0  0  0  0
   47.7440    4.0500   43.8240 C   0  0  0  0  0  0  0  0  0  0  0  0
   46.7470    4.8910   44.3120 O   0  0  0  0  0  0  0  0  0  0  0  0
   46.9260    6.2850   44.1500 C   0  0  0  0  0  0  0  0  0  0  0  0
   45.6120    7.0190   44.0570 C   0  0  2  0  0  0  0  0  0  0  0  0
   44.5310    6.1800   43.9710 O   0  0  0  0  0  0  0  0  0  0  0  0
   45.6410    8.0220   42.9570 C   0  0  0  0  0  0  0  0  0  0  0  0
   44.7810    9.1620   43.1800 N   0  0  0  0  0  4  0  0  0  0  0  0
   44.8280    9.4540   44.6020 C   0  0  0  0  0  0  0  0  0  0  0  0
   43.7640   10.4810   45.0140 C   0  0  0  0  0  0  0  0  0  0  0  0
   42.4850    9.9870   44.6480 N   0  0  0  0  0  0  0  0  0  0  0  0
   42.5020    8.6940   43.9330 C   0  0  0  0  0  0  0  0  0  0  0  0
   43.4290    8.8110   42.7690 C   0  0  0  0  0  0  0  0  0  0  0  0
   41.2670   10.6220   44.9120 C   0  0  0  0  0  0  0  0  0  0  0  0
   40.2200    9.8290   44.7520 O   0  0  0  0  0  0  0  0  0  0  0  0
   40.9440   11.9520   45.3170 C   0  0  0  0  0  0  0  0  0  0  0  0
   41.3380   12.5770   46.4650 C   0  0  0  0  0  0  0  0  0  0  0  0
   40.9860   13.8780   46.8000 C   0  0  0  0  0  0  0  0  0  0  0  0
   40.2060   14.6090   45.9630 C   0  0  0  0  0  0  0  0  0  0  0  0
   39.7910   14.0060   44.7930 C   0  0  0  0  0  0  0  0  0  0  0  0
   40.1370   12.7200   44.4630 C   0  0  0  0  0  0  0  0  0  0  0  0
   50.7860    1.5160   42.3770 C   0  0  0  0  0  0  0  0  0  0  0  0
   51.9850    1.3590   43.0420 C   0  0  0  0  0  0  0  0  0  0  0  0
   52.1540    2.0730   44.2120 C   0  0  0  0  0  0  0  0  0  0  0  0
   51.1520    2.9010   44.6790 C   0  0  0  0  0  0  0  0  0  0  0  0
   48.4430    1.9460   41.2620 H   0  0  0  0  0  0  0  0  0  0  0  0
   46.6410    3.4530   42.1270 H   0  0  0  0  0  0  0  0  0  0  0  0
   47.4800    6.6490   45.0390 H   0  0  0  0  0  0  0  0  0  0  0  0
   47.5450    6.4370   43.2400 H   0  0  0  0  0  0  0  0  0  0  0  0
   45.5200    7.6040   45.0180 H   0  0  0  0  0  0  0  0  0  0  0  0
   44.3740    5.6250   44.7570 H   0  0  0  0  0  0  0  0  0  0  0  0
   45.2630    7.5230   42.0240 H   0  0  0  0  0  0  0  0  0  0  0  0
   46.6620    8.4100   42.7990 H   0  0  0  0  0  0  0  0  0  0  0  0
   45.0800   10.0210   42.6720 H   0  0  0  0  0  0  0  0  0  0  0  0
   44.7740    8.5270   45.1950 H   0  0  0  0  0  0  0  0  0  0  0  0
   45.8070    9.9410   44.7980 H   0  0  0  0  0  0  0  0  0  0  0  0
   43.8370   10.5350   46.1160 H   0  0  0  0  0  0  0  0  0  0  0  0
   44.0540   11.4540   44.5760 H   0  0  0  0  0  0  0  0  0  0  0  0
   42.9100    7.9600   44.6510 H   0  0  0  0  0  0  0  0  0  0  0  0
   41.5050    8.4230   43.5960 H   0  0  0  0  0  0  0  0  0  0  0  0
   43.0190    9.5480   42.0510 H   0  0  0  0  0  0  0  0  0  0  0  0
   43.4240    7.8250   42.2400 H   0  0  0  0  0  0  0  0  0  0  0  0
   41.9490   12.0830   47.1780 H   0  0  0  0  0  0  0  0  0  0  0  0
   41.3340   14.3170   47.7320 H   0  0  0  0  0  0  0  0  0  0  0  0
   39.9130   15.6230   46.1910 H   0  0  0  0  0  0  0  0  0  0  0  0
   39.1680   14.5910   44.1290 H   0  0  0  0  0  0  0  0  0  0  0  0
   39.7560   12.3500   43.5240 H   0  0  0  0  0  0  0  0  0  0  0  0
   50.6560    0.9560   41.4610 H   0  0  0  0  0  0  0  0  0  0  0  0
   52.7520    0.7010   42.6490 H   0  0  0  0  0  0  0  0  0  0  0  0
   53.1010    1.9440   44.7300 H   0  0  0  0  0  0  0  0  0  0  0  0
   51.2860    3.4600   45.5980 H   0  0  0  0  0  0  0  0  0  0  0  0
  2  1  1  0  0  0  0
  3  2  1  0  0  0  0
  3 30  1  0  0  0  0
  4  3  2  0  0  0  0
  5  6  2  0  0  0  0
  5  4  1  0  0  0  0
  6  7  1  0  0  0  0
  7  8  1  0  0  0  0
  7  2  2  0  0  0  0
  9  8  1  0  0  0  0
  9 33  1  0  0  0  0
 10  9  1  0  0  0  0
 10 35  1  1  0  0  0
 11 10  1  0  0  0  0
 11 36  1  0  0  0  0
 12 13  1  0  0  0  0
 12 10  1  0  0  0  0
 13 14  1  0  0  0  0
 14 41  1  0  0  0  0
 14 15  1  0  0  0  0
 14 40  1  0  0  0  0
 15 42  1  0  0  0  0
 16 19  1  0  0  0  0
 16 15  1  0  0  0  0
 17 16  1  0  0  0  0
 17 44  1  0  0  0  0
 18 13  1  0  0  0  0
 18 17  1  0  0  0  0
 19 21  1  0  0  0  0
 20 19  2  0  0  0  0
 21 22  1  0  0  0  0
 22 23  2  0  0  0  0
 22 48  1  0  0  0  0
 23 49  1  0  0  0  0
 24 50  1  0  0  0  0
 24 23  1  0  0  0  0
 25 24  2  0  0  0  0
 26 25  1  0  0  0  0
 26 21  2  0  0  0  0
 27  4  1  0  0  0  0
 27 28  2  0  0  0  0
 28 29  1  0  0  0  0
 29 30  2  0  0  0  0
 29 55  1  0  0  0  0
 30 56  1  0  0  0  0
 31  5  1  0  0  0  0
 32  6  1  0  0  0  0
 34  9  1  0  0  0  0
 37 12  1  0  0  0  0
 38 12  1  0  0  0  0
 39 13  1  0  0  0  0
 43 15  1  0  0  0  0
 45 17  1  0  0  0  0
 46 18  1  0  0  0  0
 47 18  1  0  0  0  0
 51 25  1  0  0  0  0
 52 26  1  0  0  0  0
 53 27  1  0  0  0  0
 54 28  1  0  0  0  0
M  END
>  <Pose>
1

>  <Score>
-5.54

$$$$
