
 OpenBabel03172210433D

 46 49  0  0  0  0  0  0  0  0999 V2000
   41.8110   11.8700   47.3330 B   0  0  0  0  0  0  0  0  0  0  0  0
   43.2140   13.0810   46.8000 C   0  0  0  0  0  0  0  0  0  0  0  0
   43.8990   13.0700   45.6420 N   0  0  0  0  0  0  0  0  0  0  0  0
   44.7930   14.0720   45.6420 C   0  0  0  0  0  0  0  0  0  0  0  0
   44.6640   14.7370   46.8450 C   0  0  0  0  0  0  0  0  0  0  0  0
   43.6950   14.1070   47.5240 N   0  0  0  0  0  0  0  0  0  0  0  0
   45.4600   15.7980   47.0880 N   0  0  0  0  0  0  0  0  0  0  0  0
   46.3790   16.2400   46.2020 C   0  0  0  0  0  0  0  0  0  0  0  0
   47.1080   17.2420   46.4690 O   0  0  0  0  0  0  0  0  0  0  0  0
   46.5310   15.6160   45.0190 N   0  0  0  0  0  0  0  0  0  0  0  0
   45.7430   14.5570   44.7670 C   0  0  0  0  0  0  0  0  0  0  0  0
   45.8740   13.9730   43.6730 O   0  0  0  0  0  0  0  0  0  0  0  0
   47.5240   16.1100   44.0850 C   0  0  0  0  0  0  0  0  0  0  0  0
   45.3180   16.4890   48.3530 C   0  0  0  0  0  0  0  0  0  0  0  0
   43.6600   12.1210   44.6070 C   0  0  0  0  0  0  0  0  0  0  0  0
   43.9270   10.6930   44.9180 C   0  0  0  0  0  0  0  0  0  0  0  0
   43.5940    9.7310   43.9230 N   0  0  0  0  0  0  0  0  0  0  0  0
   44.3740    8.6870   43.5440 C   0  0  0  0  0  0  0  0  0  0  0  0
   43.7350    7.9770   42.5570 C   0  0  0  0  0  0  0  0  0  0  0  0
   42.5700    8.6160   42.3630 N   0  0  0  0  0  0  0  0  0  0  0  0
   42.4830    9.6720   43.1830 C   0  0  0  0  0  0  0  0  0  0  0  0
   41.0300   10.9330   43.3170 B   0  0  0  0  0  0  0  0  0  0  0  0
   44.2680    6.8710   41.9730 N   0  0  0  0  0  0  0  0  0  0  0  0
   45.4800    6.4820   42.4060 C   0  0  0  0  0  0  0  0  0  0  0  0
   45.9850    5.4570   41.8720 O   0  0  0  0  0  0  0  0  0  0  0  0
   46.1520    7.1380   43.3690 N   0  0  0  0  0  0  0  0  0  0  0  0
   45.6220    8.2210   43.9350 C   0  0  0  0  0  0  0  0  0  0  0  0
   46.1980    8.8810   44.8410 O   0  0  0  0  0  0  0  0  0  0  0  0
   47.4550    6.6780   43.7990 C   0  0  0  0  0  0  0  0  0  0  0  0
   43.5610    6.1410   40.9290 C   0  0  0  0  0  0  0  0  0  0  0  0
   47.7900   15.3270   43.3500 H   0  0  0  0  0  0  0  0  0  0  0  0
   47.1590   16.9880   43.5030 H   0  0  0  0  0  0  0  0  0  0  0  0
   48.4140   16.4110   44.6770 H   0  0  0  0  0  0  0  0  0  0  0  0
   46.3460   16.7890   48.6900 H   0  0  0  0  0  0  0  0  0  0  0  0
   44.8960   15.8230   49.1110 H   0  0  0  0  0  0  0  0  0  0  0  0
   44.7260   17.4190   48.2030 H   0  0  0  0  0  0  0  0  0  0  0  0
   42.5970   12.1580   44.2230 H   0  0  0  0  0  0  0  0  0  0  0  0
   44.2560   12.4670   43.7120 H   0  0  0  0  0  0  0  0  0  0  0  0
   43.3920   10.4650   45.8780 H   0  0  0  0  0  0  0  0  0  0  0  0
   45.0140   10.5370   45.2040 H   0  0  0  0  0  0  0  0  0  0  0  0
   48.0370    7.4810   44.2950 H   0  0  0  0  0  0  0  0  0  0  0  0
   47.3770    5.8470   44.5560 H   0  0  0  0  0  0  0  0  0  0  0  0
   48.0830    6.3510   42.9310 H   0  0  0  0  0  0  0  0  0  0  0  0
   42.4730    6.0690   41.1350 H   0  0  0  0  0  0  0  0  0  0  0  0
   43.7680    6.5750   39.9260 H   0  0  0  0  0  0  0  0  0  0  0  0
   43.9430    5.0980   40.9540 H   0  0  0  0  0  0  0  0  0  0  0  0
  2  1  1  0  0  0  0
  2  6  2  0  0  0  0
  3  4  1  0  0  0  0
  3  2  1  0  0  0  0
  4  5  2  0  0  0  0
  5  7  1  0  0  0  0
  5  6  1  0  0  0  0
  7 14  1  0  0  0  0
  8  9  2  0  0  0  0
  8  7  1  0  0  0  0
 10  8  1  0  0  0  0
 11 10  1  0  0  0  0
 11  4  1  0  0  0  0
 12 11  2  0  0  0  0
 13 33  1  0  0  0  0
 13 10  1  0  0  0  0
 14 34  1  0  0  0  0
 14 35  1  0  0  0  0
 15 16  1  0  0  0  0
 15  3  1  0  0  0  0
 16 40  1  0  0  0  0
 16 39  1  0  0  0  0
 17 16  1  0  0  0  0
 18 17  1  0  0  0  0
 18 27  1  0  0  0  0
 19 18  2  0  0  0  0
 20 19  1  0  0  0  0
 20 21  2  0  0  0  0
 21 22  1  0  0  0  0
 21 17  1  0  0  0  0
 23 24  1  0  0  0  0
 23 19  1  0  0  0  0
 24 26  1  0  0  0  0
 25 24  2  0  0  0  0
 26 29  1  0  0  0  0
 26 27  1  0  0  0  0
 27 28  2  0  0  0  0
 29 41  1  0  0  0  0
 29 42  1  0  0  0  0
 30 46  1  0  0  0  0
 30 44  1  0  0  0  0
 30 23  1  0  0  0  0
 31 13  1  0  0  0  0
 32 13  1  0  0  0  0
 36 14  1  0  0  0  0
 37 15  1  0  0  0  0
 38 15  1  0  0  0  0
 43 29  1  0  0  0  0
 45 30  1  0  0  0  0
M  END
>  <Pose>
1

>  <Score>
-5.48

$$$$
