
 OpenBabel03172210433D

 43 46  0  0  0  0  0  0  0  0999 V2000
   41.6550    7.2900   41.3620 B   0  0  0  0  0  0  0  0  0  0  0  0
   41.7560    8.7310   42.6030 C   0  0  0  0  0  0  0  0  0  0  0  0
   42.5210    8.6820   43.7360 N   0  0  0  0  0  0  0  0  0  0  0  0
   42.3240    9.8740   44.3340 C   0  0  0  0  0  0  0  0  0  0  0  0
   41.4520   10.6590   43.5960 C   0  0  0  0  0  0  0  0  0  0  0  0
   41.1200    9.9090   42.5230 N   0  0  0  0  0  0  0  0  0  0  0  0
   41.0740   11.9010   43.9440 N   0  0  0  0  0  0  0  0  0  0  0  0
   41.5920   12.3890   45.0850 C   0  0  0  0  0  0  0  0  0  0  0  0
   41.2620   13.5650   45.4590 O   0  0  0  0  0  0  0  0  0  0  0  0
   42.4430   11.6620   45.8320 N   0  0  0  0  0  0  0  0  0  0  0  0
   42.8280   10.4030   45.4820 C   0  0  0  0  0  0  0  0  0  0  0  0
   43.6200    9.7420   46.1850 O   0  0  0  0  0  0  0  0  0  0  0  0
   40.1610   12.7130   43.1670 C   0  0  0  0  0  0  0  0  0  0  0  0
   43.3510    7.5610   44.1260 C   0  0  0  0  0  0  0  0  0  0  0  0
   44.2170    7.0330   43.0200 C   0  0  0  0  0  0  0  0  0  0  0  0
   45.5940    7.6310   42.9630 C   0  0  0  0  0  0  0  0  0  0  0  0
   46.5670    6.6960   43.5100 N   0  0  0  0  0  0  0  0  0  0  0  0
   47.0750    5.5810   42.9370 C   0  0  0  0  0  0  0  0  0  0  0  0
   47.9710    4.9750   43.7860 C   0  0  0  0  0  0  0  0  0  0  0  0
   47.9990    5.7430   44.8910 N   0  0  0  0  0  0  0  0  0  0  0  0
   47.1500    6.7780   44.7170 C   0  0  0  0  0  0  0  0  0  0  0  0
   46.7890    8.1820   45.9600 B   0  0  0  0  0  0  0  0  0  0  0  0
   48.6360    3.8440   43.4850 N   0  0  0  0  0  0  0  0  0  0  0  0
   48.3840    3.2990   42.2700 C   0  0  0  0  0  0  0  0  0  0  0  0
   49.0100    2.2330   41.9820 O   0  0  0  0  0  0  0  0  0  0  0  0
   47.5130    3.8620   41.4060 N   0  0  0  0  0  0  0  0  0  0  0  0
   46.8520    4.9960   41.7190 C   0  0  0  0  0  0  0  0  0  0  0  0
   46.0360    5.5440   40.9390 O   0  0  0  0  0  0  0  0  0  0  0  0
   49.5790    3.2340   44.4200 C   0  0  0  0  0  0  0  0  0  0  0  0
   42.8520   12.0250   46.7180 H   0  0  0  0  0  0  0  0  0  0  0  0
   39.6020   12.1030   42.4270 H   0  0  0  0  0  0  0  0  0  0  0  0
   39.3720   13.1080   43.8680 H   0  0  0  0  0  0  0  0  0  0  0  0
   40.6720   13.5300   42.6200 H   0  0  0  0  0  0  0  0  0  0  0  0
   42.7260    6.7680   44.5920 H   0  0  0  0  0  0  0  0  0  0  0  0
   44.0620    7.9530   44.9100 H   0  0  0  0  0  0  0  0  0  0  0  0
   43.7080    7.0870   42.0320 H   0  0  0  0  0  0  0  0  0  0  0  0
   44.3670    5.9260   43.2020 H   0  0  0  0  0  0  0  0  0  0  0  0
   45.8870    7.7480   41.8770 H   0  0  0  0  0  0  0  0  0  0  0  0
   45.6530    8.5890   43.4770 H   0  0  0  0  0  0  0  0  0  0  0  0
   47.3600    3.4000   40.4880 H   0  0  0  0  0  0  0  0  0  0  0  0
   50.4600    3.8910   44.5830 H   0  0  0  0  0  0  0  0  0  0  0  0
   49.1110    3.0510   45.4060 H   0  0  0  0  0  0  0  0  0  0  0  0
   49.9410    2.3070   43.9510 H   0  0  0  0  0  0  0  0  0  0  0  0
  1  2  1  0  0  0  0
  2  3  1  0  0  0  0
  3 14  1  0  0  0  0
  3  4  1  0  0  0  0
  4 11  1  0  0  0  0
  5  7  1  0  0  0  0
  5  4  2  0  0  0  0
  6  2  2  0  0  0  0
  6  5  1  0  0  0  0
  7  8  1  0  0  0  0
  8  9  2  0  0  0  0
  8 10  1  0  0  0  0
 10 30  1  0  0  0  0
 11 10  1  0  0  0  0
 11 12  2  0  0  0  0
 13 32  1  0  0  0  0
 13  7  1  0  0  0  0
 14 34  1  0  0  0  0
 14 35  1  0  0  0  0
 15 37  1  0  0  0  0
 15 14  1  0  0  0  0
 16 15  1  0  0  0  0
 16 39  1  0  0  0  0
 16 17  1  0  0  0  0
 17 21  1  0  0  0  0
 18 17  1  0  0  0  0
 18 19  2  0  0  0  0
 19 20  1  0  0  0  0
 21 20  2  0  0  0  0
 21 22  1  0  0  0  0
 23 19  1  0  0  0  0
 23 29  1  0  0  0  0
 24 23  1  0  0  0  0
 25 24  2  0  0  0  0
 26 27  1  0  0  0  0
 26 24  1  0  0  0  0
 27 18  1  0  0  0  0
 28 27  2  0  0  0  0
 29 41  1  0  0  0  0
 29 42  1  0  0  0  0
 31 13  1  0  0  0  0
 33 13  1  0  0  0  0
 36 15  1  0  0  0  0
 38 16  1  0  0  0  0
 40 26  1  0  0  0  0
 43 29  1  0  0  0  0
M  END
>  <Pose>
1

>  <Score>
-6.84

$$$$
