
 OpenBabel03162216043D

 43 46  0  0  0  0  0  0  0  0999 V2000
   46.4070    8.2730   45.7810 B   0  0  0  0  0  0  0  0  0  0  0  0
   46.8690    6.8400   44.6150 C   0  0  0  0  0  0  0  0  0  0  0  0
   46.3440    6.7080   43.3580 N   0  0  0  0  0  0  0  0  0  0  0  0
   46.9140    5.5890   42.8670 C   0  0  0  0  0  0  0  0  0  0  0  0
   47.7780    5.0260   43.7920 C   0  0  0  0  0  0  0  0  0  0  0  0
   47.7220    5.8380   44.8700 N   0  0  0  0  0  0  0  0  0  0  0  0
   48.4910    3.9080   43.5770 N   0  0  0  0  0  0  0  0  0  0  0  0
   48.3390    3.3190   42.3770 C   0  0  0  0  0  0  0  0  0  0  0  0
   48.9940    2.2520   42.1250 O   0  0  0  0  0  0  0  0  0  0  0  0
   47.5110    3.8320   41.4490 N   0  0  0  0  0  0  0  0  0  0  0  0
   46.7860    4.9650   41.6640 C   0  0  0  0  0  0  0  0  0  0  0  0
   46.0240    5.4300   40.7910 O   0  0  0  0  0  0  0  0  0  0  0  0
   49.3910    3.3260   44.5500 C   0  0  0  0  0  0  0  0  0  0  0  0
   45.4010    7.6260   42.7550 C   0  0  0  0  0  0  0  0  0  0  0  0
   44.0120    7.0750   42.6270 C   0  0  0  0  0  0  0  0  0  0  0  0
   43.1010    7.3990   43.7760 C   0  0  0  0  0  0  0  0  0  0  0  0
   42.2690    8.5470   43.4440 N   0  0  0  0  0  0  0  0  0  0  0  0
   42.1870    9.7370   44.0820 C   0  0  0  0  0  0  0  0  0  0  0  0
   41.2800   10.5560   43.4500 C   0  0  0  0  0  0  0  0  0  0  0  0
   40.8100    9.8400   42.4110 N   0  0  0  0  0  0  0  0  0  0  0  0
   41.4100    8.6300   42.4150 C   0  0  0  0  0  0  0  0  0  0  0  0
   41.1270    7.2090   41.1720 B   0  0  0  0  0  0  0  0  0  0  0  0
   40.9890   11.8040   43.8600 N   0  0  0  0  0  0  0  0  0  0  0  0
   41.6430   12.2460   44.9620 C   0  0  0  0  0  0  0  0  0  0  0  0
   41.3720   13.4230   45.3520 O   0  0  0  0  0  0  0  0  0  0  0  0
   42.5400   11.4760   45.6120 N   0  0  0  0  0  0  0  0  0  0  0  0
   42.8250   10.2260   45.1920 C   0  0  0  0  0  0  0  0  0  0  0  0
   43.6530    9.4850   45.7740 O   0  0  0  0  0  0  0  0  0  0  0  0
   40.0170   12.6370   43.1560 C   0  0  0  0  0  0  0  0  0  0  0  0
   47.3810    3.3880   40.5150 H   0  0  0  0  0  0  0  0  0  0  0  0
   49.2110    3.7330   45.5660 H   0  0  0  0  0  0  0  0  0  0  0  0
   49.1440    2.2290   44.6330 H   0  0  0  0  0  0  0  0  0  0  0  0
   50.4580    3.4900   44.3000 H   0  0  0  0  0  0  0  0  0  0  0  0
   45.8010    8.0010   41.7870 H   0  0  0  0  0  0  0  0  0  0  0  0
   45.3180    8.5020   43.4620 H   0  0  0  0  0  0  0  0  0  0  0  0
   44.0180    5.9840   42.4060 H   0  0  0  0  0  0  0  0  0  0  0  0
   43.5400    7.5470   41.7130 H   0  0  0  0  0  0  0  0  0  0  0  0
   42.3720    6.5440   43.9050 H   0  0  0  0  0  0  0  0  0  0  0  0
   43.6460    7.5750   44.7020 H   0  0  0  0  0  0  0  0  0  0  0  0
   43.0110   11.8690   46.4510 H   0  0  0  0  0  0  0  0  0  0  0  0
   40.3740   12.8920   42.1360 H   0  0  0  0  0  0  0  0  0  0  0  0
   39.0420   12.1230   43.0510 H   0  0  0  0  0  0  0  0  0  0  0  0
   39.9340   13.5790   43.7210 H   0  0  0  0  0  0  0  0  0  0  0  0
  2  6  2  0  0  0  0
  2  1  1  0  0  0  0
  3  2  1  0  0  0  0
  4  3  1  0  0  0  0
  4  5  2  0  0  0  0
  5  6  1  0  0  0  0
  7  5  1  0  0  0  0
  7 13  1  0  0  0  0
  8  7  1  0  0  0  0
  9  8  2  0  0  0  0
 10 11  1  0  0  0  0
 10  8  1  0  0  0  0
 11  4  1  0  0  0  0
 12 11  2  0  0  0  0
 13 32  1  0  0  0  0
 13 31  1  0  0  0  0
 14  3  1  0  0  0  0
 14 35  1  0  0  0  0
 15 14  1  0  0  0  0
 15 16  1  0  0  0  0
 16 38  1  0  0  0  0
 16 39  1  0  0  0  0
 17 16  1  0  0  0  0
 17 18  1  0  0  0  0
 18 27  1  0  0  0  0
 19 23  1  0  0  0  0
 19 18  2  0  0  0  0
 20 21  2  0  0  0  0
 20 19  1  0  0  0  0
 21 17  1  0  0  0  0
 22 21  1  0  0  0  0
 23 24  1  0  0  0  0
 24 25  2  0  0  0  0
 24 26  1  0  0  0  0
 26 40  1  0  0  0  0
 27 26  1  0  0  0  0
 27 28  2  0  0  0  0
 29 43  1  0  0  0  0
 29 23  1  0  0  0  0
 30 10  1  0  0  0  0
 33 13  1  0  0  0  0
 34 14  1  0  0  0  0
 36 15  1  0  0  0  0
 37 15  1  0  0  0  0
 41 29  1  0  0  0  0
 42 29  1  0  0  0  0
M  END
>  <Pose>
1

>  <Score>
-6.83

$$$$
