
 OpenBabel03162215123D

 43 46  0  0  0  0  0  0  0  0999 V2000
   44.0370    7.1850   39.4030 B   0  0  0  0  0  0  0  0  0  0  0  0
   45.2110    6.3310   40.6350 C   0  0  0  0  0  0  0  0  0  0  0  0
   45.2680    6.6660   41.9600 N   0  0  0  0  0  0  0  0  0  0  0  0
   46.2040    5.8470   42.4800 C   0  0  0  0  0  0  0  0  0  0  0  0
   46.7290    5.0150   41.5040 C   0  0  0  0  0  0  0  0  0  0  0  0
   46.0830    5.3480   40.3660 N   0  0  0  0  0  0  0  0  0  0  0  0
   47.6770    4.0890   41.7310 N   0  0  0  0  0  0  0  0  0  0  0  0
   48.1250    3.9850   42.9950 C   0  0  0  0  0  0  0  0  0  0  0  0
   49.0270    3.1210   43.2610 O   0  0  0  0  0  0  0  0  0  0  0  0
   47.6420    4.7720   43.9730 N   0  0  0  0  0  0  0  0  0  0  0  0
   46.6810    5.7110   43.7470 C   0  0  0  0  0  0  0  0  0  0  0  0
   46.2420    6.4320   44.6660 O   0  0  0  0  0  0  0  0  0  0  0  0
   48.2220    3.2250   40.7060 C   0  0  0  0  0  0  0  0  0  0  0  0
   44.4480    7.6790   42.5930 C   0  0  0  0  0  0  0  0  0  0  0  0
   43.1760    7.1480   43.1870 C   0  0  0  0  0  0  0  0  0  0  0  0
   42.0920    8.1720   43.3620 C   0  0  0  0  0  0  0  0  0  0  0  0
   42.3050    8.9180   44.5940 N   0  0  0  0  0  0  0  0  0  0  0  0
   42.0570    8.5290   45.8660 C   0  0  0  0  0  0  0  0  0  0  0  0
   42.4000    9.5290   46.7460 C   0  0  0  0  0  0  0  0  0  0  0  0
   42.8620   10.5380   45.9850 N   0  0  0  0  0  0  0  0  0  0  0  0
   42.8010   10.1620   44.6890 C   0  0  0  0  0  0  0  0  0  0  0  0
   43.3290   11.1970   43.1730 B   0  0  0  0  0  0  0  0  0  0  0  0
   42.2630    9.4270   48.0810 N   0  0  0  0  0  0  0  0  0  0  0  0
   41.7570    8.2600   48.5500 C   0  0  0  0  0  0  0  0  0  0  0  0
   41.6270    8.1590   49.8080 O   0  0  0  0  0  0  0  0  0  0  0  0
   41.4080    7.2540   47.7210 N   0  0  0  0  0  0  0  0  0  0  0  0
   41.5500    7.3670   46.3840 C   0  0  0  0  0  0  0  0  0  0  0  0
   41.2360    6.4500   45.5870 O   0  0  0  0  0  0  0  0  0  0  0  0
   42.6400   10.5170   48.9780 C   0  0  0  0  0  0  0  0  0  0  0  0
   47.9790    4.7040   44.9570 H   0  0  0  0  0  0  0  0  0  0  0  0
   47.9830    3.5990   39.6880 H   0  0  0  0  0  0  0  0  0  0  0  0
   49.3460    3.2770   40.7740 H   0  0  0  0  0  0  0  0  0  0  0  0
   47.8520    2.1830   40.7810 H   0  0  0  0  0  0  0  0  0  0  0  0
   44.2700    8.5200   41.8870 H   0  0  0  0  0  0  0  0  0  0  0  0
   45.0510    8.0720   43.4630 H   0  0  0  0  0  0  0  0  0  0  0  0
   43.3620    6.5850   44.1290 H   0  0  0  0  0  0  0  0  0  0  0  0
   42.7620    6.3750   42.4710 H   0  0  0  0  0  0  0  0  0  0  0  0
   42.1920    8.9410   42.5400 H   0  0  0  0  0  0  0  0  0  0  0  0
   41.0970    7.7310   43.3490 H   0  0  0  0  0  0  0  0  0  0  0  0
   41.0260    6.3810   48.1370 H   0  0  0  0  0  0  0  0  0  0  0  0
   43.7350   10.6970   48.9500 H   0  0  0  0  0  0  0  0  0  0  0  0
   42.1380   11.4630   48.6990 H   0  0  0  0  0  0  0  0  0  0  0  0
   42.3840   10.1940   49.9990 H   0  0  0  0  0  0  0  0  0  0  0  0
  1  2  1  0  0  0  0
  2  3  1  0  0  0  0
  3  4  1  0  0  0  0
  3 14  1  0  0  0  0
  4 11  1  0  0  0  0
  5  7  1  0  0  0  0
  5  4  2  0  0  0  0
  6  2  2  0  0  0  0
  6  5  1  0  0  0  0
  7  8  1  0  0  0  0
  8  9  2  0  0  0  0
  8 10  1  0  0  0  0
 10 30  1  0  0  0  0
 11 10  1  0  0  0  0
 11 12  2  0  0  0  0
 13 32  1  0  0  0  0
 13 33  1  0  0  0  0
 13  7  1  0  0  0  0
 14 15  1  0  0  0  0
 14 35  1  0  0  0  0
 15 16  1  0  0  0  0
 15 36  1  0  0  0  0
 16 17  1  0  0  0  0
 17 21  1  0  0  0  0
 17 18  1  0  0  0  0
 18 27  1  0  0  0  0
 18 19  2  0  0  0  0
 19 23  1  0  0  0  0
 20 19  1  0  0  0  0
 21 20  2  0  0  0  0
 22 21  1  0  0  0  0
 23 24  1  0  0  0  0
 23 29  1  0  0  0  0
 24 25  2  0  0  0  0
 26 40  1  0  0  0  0
 26 24  1  0  0  0  0
 27 26  1  0  0  0  0
 28 27  2  0  0  0  0
 29 43  1  0  0  0  0
 31 13  1  0  0  0  0
 34 14  1  0  0  0  0
 37 15  1  0  0  0  0
 38 16  1  0  0  0  0
 39 16  1  0  0  0  0
 41 29  1  0  0  0  0
 42 29  1  0  0  0  0
M  END
>  <Pose>
1

>  <Score>
-6.19

$$$$
