
 OpenBabel03172210433D

 40 43  0  0  0  0  0  0  0  0999 V2000
   40.3780   12.3290   44.0100 B   0  0  0  0  0  0  0  0  0  0  0  0
   41.9210   12.1600   45.1230 C   0  0  0  0  0  0  0  0  0  0  0  0
   42.2280   11.0230   45.7900 N   0  0  0  0  0  0  0  0  0  0  0  0
   43.3740   11.2800   46.4620 C   0  0  0  0  0  0  0  0  0  0  0  0
   43.7890   12.5860   46.2160 C   0  0  0  0  0  0  0  0  0  0  0  0
   42.8540   13.0900   45.3790 N   0  0  0  0  0  0  0  0  0  0  0  0
   44.9130   13.0740   46.7710 N   0  0  0  0  0  0  0  0  0  0  0  0
   45.6650   12.3070   47.5800 C   0  0  0  0  0  0  0  0  0  0  0  0
   46.7290   12.7610   48.1100 O   0  0  0  0  0  0  0  0  0  0  0  0
   45.3130   11.0380   47.8520 N   0  0  0  0  0  0  0  0  0  0  0  0
   44.1790   10.5400   47.2940 C   0  0  0  0  0  0  0  0  0  0  0  0
   43.8170    9.3490   47.5240 O   0  0  0  0  0  0  0  0  0  0  0  0
   45.3490   14.4280   46.5200 C   0  0  0  0  0  0  0  0  0  0  0  0
   41.4720    9.8170   45.7480 C   0  0  0  0  0  0  0  0  0  0  0  0
   41.5010    9.0440   44.4780 C   0  0  0  0  0  0  0  0  0  0  0  0
   42.3600    7.9160   44.3940 N   0  0  0  0  0  0  0  0  0  0  0  0
   43.6160    7.8730   43.9210 C   0  0  0  0  0  0  0  0  0  0  0  0
   44.0860    6.5790   44.0120 C   0  0  0  0  0  0  0  0  0  0  0  0
   43.0670    5.8800   44.5520 N   0  0  0  0  0  0  0  0  0  0  0  0
   42.0170    6.6560   44.7930 C   0  0  0  0  0  0  0  0  0  0  0  0
   40.3250    6.1380   45.5550 B   0  0  0  0  0  0  0  0  0  0  0  0
   45.3210    6.2830   43.6070 N   0  0  0  0  0  0  0  0  0  0  0  0
   46.1170    7.2330   43.1090 C   0  0  0  0  0  0  0  0  0  0  0  0
   47.3030    6.9800   42.7110 O   0  0  0  0  0  0  0  0  0  0  0  0
   45.7330    8.5160   42.9880 N   0  0  0  0  0  0  0  0  0  0  0  0
   44.4920    8.8100   43.3970 C   0  0  0  0  0  0  0  0  0  0  0  0
   44.1270   10.0020   43.2910 O   0  0  0  0  0  0  0  0  0  0  0  0
   45.8250    4.9330   43.6950 C   0  0  0  0  0  0  0  0  0  0  0  0
   45.8820   10.4260   48.4760 H   0  0  0  0  0  0  0  0  0  0  0  0
   46.3400   14.3900   45.9990 H   0  0  0  0  0  0  0  0  0  0  0  0
   45.4050   14.9440   47.4900 H   0  0  0  0  0  0  0  0  0  0  0  0
   44.5880   14.9520   45.8900 H   0  0  0  0  0  0  0  0  0  0  0  0
   40.4320    9.9770   46.1210 H   0  0  0  0  0  0  0  0  0  0  0  0
   41.9040    9.1170   46.5340 H   0  0  0  0  0  0  0  0  0  0  0  0
   41.6530    9.7730   43.6360 H   0  0  0  0  0  0  0  0  0  0  0  0
   40.4430    8.6610   44.3260 H   0  0  0  0  0  0  0  0  0  0  0  0
   46.3860    9.2390   42.5910 H   0  0  0  0  0  0  0  0  0  0  0  0
   45.2860    4.4400   44.5260 H   0  0  0  0  0  0  0  0  0  0  0  0
   45.7160    4.3550   42.7750 H   0  0  0  0  0  0  0  0  0  0  0  0
   46.9060    4.9180   43.9860 H   0  0  0  0  0  0  0  0  0  0  0  0
  1  2  1  0  0  0  0
  2  6  2  0  0  0  0
  2  3  1  0  0  0  0
  3  4  1  0  0  0  0
  4 11  1  0  0  0  0
  5  4  2  0  0  0  0
  5  7  1  0  0  0  0
  6  5  1  0  0  0  0
  7  8  1  0  0  0  0
  8 10  1  0  0  0  0
  8  9  2  0  0  0  0
 10 29  1  0  0  0  0
 11 12  2  0  0  0  0
 11 10  1  0  0  0  0
 13  7  1  0  0  0  0
 13 31  1  0  0  0  0
 14  3  1  0  0  0  0
 14 33  1  0  0  0  0
 14 34  1  0  0  0  0
 15 14  1  0  0  0  0
 16 15  1  0  0  0  0
 16 20  1  0  0  0  0
 17 18  2  0  0  0  0
 17 16  1  0  0  0  0
 18 19  1  0  0  0  0
 19 20  2  0  0  0  0
 20 21  1  0  0  0  0
 22 28  1  0  0  0  0
 22 18  1  0  0  0  0
 23 22  1  0  0  0  0
 24 23  2  0  0  0  0
 25 23  1  0  0  0  0
 25 26  1  0  0  0  0
 26 17  1  0  0  0  0
 27 26  2  0  0  0  0
 28 40  1  0  0  0  0
 28 38  1  0  0  0  0
 30 13  1  0  0  0  0
 32 13  1  0  0  0  0
 35 15  1  0  0  0  0
 36 15  1  0  0  0  0
 37 25  1  0  0  0  0
 39 28  1  0  0  0  0
M  END
>  <Pose>
1

>  <Score>
-6.27

$$$$
