
 OpenBabel03172210433D

 50 54  0  0  1  0  0  0  0  0999 V2000
   44.5900   13.6840   47.4710 B   0  0  0  0  0  0  0  0  0  0  0  0
   44.2190   11.8290   47.1540 C   0  0  0  0  0  0  0  0  0  0  0  0
   43.9730   11.2300   45.9750 N   0  0  0  0  0  0  0  0  0  0  0  0
   43.7590    9.9310   46.1450 N   0  0  0  0  0  0  0  0  0  0  0  0
   43.8760    9.7180   47.4690 C   0  0  0  0  0  0  0  0  0  0  0  0
   44.1570   10.8670   48.1020 N   0  0  0  0  0  0  0  0  0  0  0  0
   43.4590    8.9370   45.1160 C   0  0  2  0  0  0  0  0  0  0  0  0
   44.6370    8.0000   44.9690 C   0  0  0  0  0  0  0  0  0  0  0  0
   44.2550    6.8550   44.0770 C   0  0  2  0  0  0  0  0  0  0  0  0
   44.0210    7.4580   42.6850 C   0  0  0  0  0  0  0  0  0  0  0  0
   42.9250    8.4890   42.7840 C   0  0  2  0  0  0  0  0  0  0  0  0
   43.2390    9.5870   43.7670 C   0  0  0  0  0  0  0  0  0  0  0  0
   41.6550    7.8000   43.1670 C   0  0  0  0  0  0  0  0  0  0  0  0
   41.8470    7.1560   44.5220 C   0  0  2  0  0  0  0  0  0  0  0  0
   42.1990    8.2260   45.5000 C   0  0  0  0  0  0  0  0  0  0  0  0
   42.9900    6.1660   44.4650 C   0  0  0  0  0  0  0  0  0  0  0  0
   45.3400    5.8550   43.9840 C   0  0  0  0  0  0  0  0  0  0  0  0
   45.0210    4.6400   43.9380 O   0  0  0  0  0  0  0  0  0  0  0  0
   46.7060    6.2560   43.9470 N   0  0  0  0  0  0  0  0  0  0  0  0
   47.8100    5.4140   44.2430 C   0  0  0  0  0  0  0  0  0  0  0  0
   48.1180    4.2730   43.5570 C   0  0  0  0  0  0  0  0  0  0  0  0
   49.2280    3.7500   44.1310 N   0  0  0  0  0  0  0  0  0  0  0  0
   49.5950    4.5250   45.1280 N   0  0  0  0  0  0  0  0  0  0  0  0
   48.7550    5.5600   45.2380 C   0  0  0  0  0  0  0  0  0  0  0  0
   49.9370    2.5400   43.7520 C   0  0  0  0  0  0  0  0  0  0  0  0
   47.4740    3.6380   42.4250 C   0  0  0  0  0  0  0  0  0  0  0  0
   46.7970    2.5890   42.5640 O   0  0  0  0  0  0  0  0  0  0  0  0
   47.5540    4.1390   41.0970 N   0  0  0  0  0  0  0  0  0  0  0  0
   43.7600    8.7610   47.9540 H   0  0  0  0  0  0  0  0  0  0  0  0
   45.4230    8.5880   44.4100 H   0  0  0  0  0  0  0  0  0  0  0  0
   45.0900    7.7060   45.9150 H   0  0  0  0  0  0  0  0  0  0  0  0
   43.7080    6.6930   41.9690 H   0  0  0  0  0  0  0  0  0  0  0  0
   44.9180    7.9570   42.2980 H   0  0  0  0  0  0  0  0  0  0  0  0
   42.7910    8.9560   41.7910 H   0  0  0  0  0  0  0  0  0  0  0  0
   44.0950   10.2040   43.4430 H   0  0  0  0  0  0  0  0  0  0  0  0
   42.3580   10.2450   43.8200 H   0  0  0  0  0  0  0  0  0  0  0  0
   41.3720    7.0490   42.3910 H   0  0  0  0  0  0  0  0  0  0  0  0
   40.8190    8.5190   43.2210 H   0  0  0  0  0  0  0  0  0  0  0  0
   40.9490    6.6250   44.8700 H   0  0  0  0  0  0  0  0  0  0  0  0
   41.3860    8.9640   45.5410 H   0  0  0  0  0  0  0  0  0  0  0  0
   42.3130    7.7540   46.4970 H   0  0  0  0  0  0  0  0  0  0  0  0
   43.1240    5.7130   45.4700 H   0  0  0  0  0  0  0  0  0  0  0  0
   42.7410    5.4330   43.6810 H   0  0  0  0  0  0  0  0  0  0  0  0
   46.8890    7.2430   43.6830 H   0  0  0  0  0  0  0  0  0  0  0  0
   48.7950    6.3760   45.9670 H   0  0  0  0  0  0  0  0  0  0  0  0
   50.9340    2.5470   44.2330 H   0  0  0  0  0  0  0  0  0  0  0  0
   50.1590    2.6400   42.6530 H   0  0  0  0  0  0  0  0  0  0  0  0
   49.3680    1.6190   43.9920 H   0  0  0  0  0  0  0  0  0  0  0  0
   48.2570    4.9100   40.9020 H   0  0  0  0  0  0  0  0  0  0  0  0
   46.9770    3.8100   40.3000 H   0  0  0  0  0  0  0  0  0  0  0  0
  2  1  1  0  0  0  0
  2  6  1  0  0  0  0
  3  4  1  0  0  0  0
  3  2  2  0  0  0  0
  4  5  1  0  0  0  0
  5 29  1  0  0  0  0
  5  6  2  0  0  0  0
  7 15  1  0  0  0  0
  7  4  1  1  0  0  0
  8  7  1  0  0  0  0
  8 31  1  0  0  0  0
  9 17  1  6  0  0  0
  9 16  1  0  0  0  0
  9  8  1  0  0  0  0
 10 11  1  0  0  0  0
 10  9  1  0  0  0  0
 11 34  1  6  0  0  0
 11 13  1  0  0  0  0
 11 12  1  0  0  0  0
 12 36  1  0  0  0  0
 12  7  1  0  0  0  0
 13 38  1  0  0  0  0
 13 14  1  0  0  0  0
 14 39  1  1  0  0  0
 14 15  1  0  0  0  0
 15 40  1  0  0  0  0
 15 41  1  0  0  0  0
 16 14  1  0  0  0  0
 16 42  1  0  0  0  0
 18 17  2  0  0  0  0
 19 17  1  0  0  0  0
 19 20  1  0  0  0  0
 20 24  1  0  0  0  0
 21 22  1  0  0  0  0
 21 20  2  0  0  0  0
 22 23  1  0  0  0  0
 23 24  2  0  0  0  0
 24 45  1  0  0  0  0
 25 48  1  0  0  0  0
 25 22  1  0  0  0  0
 25 46  1  0  0  0  0
 26 27  2  0  0  0  0
 26 21  1  0  0  0  0
 28 26  1  0  0  0  0
 30  8  1  0  0  0  0
 32 10  1  0  0  0  0
 33 10  1  0  0  0  0
 35 12  1  0  0  0  0
 37 13  1  0  0  0  0
 43 16  1  0  0  0  0
 44 19  1  0  0  0  0
 47 25  1  0  0  0  0
 49 28  1  0  0  0  0
 50 28  1  0  0  0  0
M  END
>  <Pose>
1

>  <Score>
-6.40

$$$$
