
 OpenBabel03172210433D

 37 40  0  0  1  0  0  0  0  0999 V2000
   43.9090   11.5530   43.9580 B   0  0  0  0  0  0  0  0  0  0  0  0
   44.0800    9.6730   43.7190 C   0  0  0  0  0  0  0  0  0  0  0  0
   45.0690    9.0160   43.0720 N   0  0  0  0  0  0  0  0  0  0  0  0
   44.8940    7.7160   43.1200 N   0  0  0  0  0  0  0  0  0  0  0  0
   43.7600    7.5160   43.8160 C   0  0  0  0  0  0  0  0  0  0  0  0
   43.1240    6.3970   44.1770 N   0  0  0  0  0  0  0  0  0  0  0  0
   41.9910    6.4350   44.9010 C   0  0  0  0  0  0  0  0  0  0  0  0
   41.4610    7.6100   45.2840 N   0  0  0  0  0  0  0  0  0  0  0  0
   42.0540    8.7970   44.9510 C   0  0  0  0  0  0  0  0  0  0  0  0
   43.2050    8.7380   44.2170 C   0  0  0  0  0  0  0  0  0  0  0  0
   41.4110   10.0210   45.3370 N   0  0  0  0  0  0  0  0  0  0  0  0
   41.5000   10.5370   46.6670 C   0  0  1  0  0  0  0  0  0  0  0  0
   40.3050   11.3060   47.0810 C   0  0  0  0  0  0  0  0  0  0  0  0
   39.3820   11.6010   46.1150 O   0  0  0  0  0  0  0  0  0  0  0  0
   39.9570   11.8840   44.8810 C   0  0  0  0  0  0  0  0  0  0  0  0
   40.6900   10.7120   44.3120 C   0  0  0  0  0  0  0  0  0  0  0  0
   41.8950    9.4900   47.6350 C   0  0  0  0  0  0  0  0  0  0  0  0
   41.0940    8.5580   48.1530 N   0  0  0  0  0  0  0  0  0  0  0  0
   41.8670    7.8100   48.9910 C   0  0  0  0  0  0  0  0  0  0  0  0
   43.1060    8.3320   48.9370 N   0  0  0  0  0  0  0  0  0  0  0  0
   43.0960    9.3410   48.1150 O   0  0  0  0  0  0  0  0  0  0  0  0
   41.4420    6.6490   49.8060 C   0  0  0  0  0  0  0  0  0  0  0  0
   45.7620    6.7130   42.5330 C   0  0  0  0  0  0  0  0  0  0  0  0
   41.5310    5.4740   45.1580 H   0  0  0  0  0  0  0  0  0  0  0  0
   42.3480   11.3220   46.6140 H   0  0  0  0  0  0  0  0  0  0  0  0
   40.5740   12.2340   47.6750 H   0  0  0  0  0  0  0  0  0  0  0  0
   39.7640   10.6810   47.8550 H   0  0  0  0  0  0  0  0  0  0  0  0
   39.1220   12.1330   44.1900 H   0  0  0  0  0  0  0  0  0  0  0  0
   40.5910   12.8050   44.9230 H   0  0  0  0  0  0  0  0  0  0  0  0
   40.0250   10.0360   43.7220 H   0  0  0  0  0  0  0  0  0  0  0  0
   41.4710   11.0490   43.5630 H   0  0  0  0  0  0  0  0  0  0  0  0
   40.3640    6.8000   50.1000 H   0  0  0  0  0  0  0  0  0  0  0  0
   42.0190    6.5600   50.7440 H   0  0  0  0  0  0  0  0  0  0  0  0
   41.4980    5.6900   49.2350 H   0  0  0  0  0  0  0  0  0  0  0  0
   46.4150    7.1920   41.7770 H   0  0  0  0  0  0  0  0  0  0  0  0
   45.1340    5.9400   42.0240 H   0  0  0  0  0  0  0  0  0  0  0  0
   46.4450    6.2560   43.2930 H   0  0  0  0  0  0  0  0  0  0  0  0
  2  1  1  0  0  0  0
  2 10  1  0  0  0  0
  3  4  1  0  0  0  0
  3  2  2  0  0  0  0
  4  5  1  0  0  0  0
  5  6  1  0  0  0  0
  5 10  2  0  0  0  0
  6  7  2  0  0  0  0
  7 24  1  0  0  0  0
  7  8  1  0  0  0  0
  9  8  2  0  0  0  0
  9 11  1  0  0  0  0
 10  9  1  0  0  0  0
 11 12  1  0  0  0  0
 12 25  1  6  0  0  0
 12 13  1  0  0  0  0
 12 17  1  0  0  0  0
 13 26  1  0  0  0  0
 13 27  1  0  0  0  0
 14 13  1  0  0  0  0
 15 29  1  0  0  0  0
 15 14  1  0  0  0  0
 16 15  1  0  0  0  0
 16 11  1  0  0  0  0
 17 21  1  0  0  0  0
 17 18  2  0  0  0  0
 18 19  1  0  0  0  0
 19 22  1  0  0  0  0
 20 19  2  0  0  0  0
 21 20  1  0  0  0  0
 22 32  1  0  0  0  0
 22 33  1  0  0  0  0
 23  4  1  0  0  0  0
 23 37  1  0  0  0  0
 28 15  1  0  0  0  0
 30 16  1  0  0  0  0
 31 16  1  0  0  0  0
 34 22  1  0  0  0  0
 35 23  1  0  0  0  0
 36 23  1  0  0  0  0
M  END
>  <Pose>
1

>  <Score>
-4.49

$$$$
