
 OpenBabel03172210433D

 32 35  0  0  1  0  0  0  0  0999 V2000
   43.3320   10.4600   43.7150 B   0  0  0  0  0  0  0  0  0  0  0  0
   43.5500    8.5830   44.0390 C   0  0  0  0  0  0  0  0  0  0  0  0
   44.5290    7.7760   43.6110 N   0  0  0  0  0  0  0  0  0  0  0  0
   44.3130    6.5400   44.0560 C   0  0  0  0  0  0  0  0  0  0  0  0
   43.1670    6.5720   44.7850 N   0  0  0  0  0  0  0  0  0  0  0  0
   42.6760    7.8250   44.7900 C   0  0  0  0  0  0  0  0  0  0  0  0
   45.2590    5.4340   43.7210 C   0  0  0  0  0  0  0  0  0  0  0  0
   46.5960    5.9500   43.5570 N   0  0  2  0  0  0  0  0  0  0  0  0
   46.8940    7.3130   43.1840 C   0  0  0  0  0  0  0  0  0  0  0  0
   45.6790    8.0990   42.7900 C   0  0  0  0  0  0  0  0  0  0  0  0
   47.6730    5.0690   43.7720 C   0  0  2  0  0  0  0  0  0  0  0  0
   48.4420    5.2360   44.8240 C   0  0  0  0  0  0  0  0  0  0  0  0
   49.5810    4.3470   45.0990 C   0  0  0  0  0  0  0  0  0  0  0  0
   50.3620    4.5030   46.1540 C   0  0  0  0  0  0  0  0  0  0  0  0
   49.7840    3.3100   44.1520 N   0  0  0  0  0  0  0  0  0  0  0  0
   48.9340    3.1440   43.0090 C   0  0  0  0  0  0  0  0  0  0  0  0
   47.9090    4.0230   42.8510 N   0  0  0  0  0  0  0  0  0  0  0  0
   47.2850    3.6500   41.7280 N   0  0  0  0  0  0  0  0  0  0  0  0
   47.8760    2.5790   41.1790 C   0  0  0  0  0  0  0  0  0  0  0  0
   48.9040    2.2710   41.9870 N   0  0  0  0  0  0  0  0  0  0  0  0
   41.7640    8.1780   45.2890 H   0  0  0  0  0  0  0  0  0  0  0  0
   45.1950    4.6510   44.5010 H   0  0  0  0  0  0  0  0  0  0  0  0
   44.9650    4.9760   42.7390 H   0  0  0  0  0  0  0  0  0  0  0  0
   47.5690    7.2640   42.2880 H   0  0  0  0  0  0  0  0  0  0  0  0
   47.4650    7.7770   43.9920 H   0  0  0  0  0  0  0  0  0  0  0  0
   45.9390    9.1750   42.8780 H   0  0  0  0  0  0  0  0  0  0  0  0
   45.3840    7.9410   41.7330 H   0  0  0  0  0  0  0  0  0  0  0  0
   48.2810    6.0380   45.5510 H   0  0  0  0  0  0  0  0  0  0  0  0
   50.2140    5.2930   46.8800 H   0  0  0  0  0  0  0  0  0  0  0  0
   51.1990    3.8500   46.3530 H   0  0  0  0  0  0  0  0  0  0  0  0
   50.5750    2.6460   44.2910 H   0  0  0  0  0  0  0  0  0  0  0  0
   47.5740    2.0620   40.2550 H   0  0  0  0  0  0  0  0  0  0  0  0
  1  2  1  0  0  0  0
  2  6  2  0  0  0  0
  3  2  1  0  0  0  0
  3  4  1  0  0  0  0
  4  5  2  0  0  0  0
  5  6  1  0  0  0  0
  6 21  1  0  0  0  0
  7  4  1  0  0  0  0
  7 22  1  0  0  0  0
  8  9  1  6  0  0  0
  8  7  1  0  0  0  0
  8 11  1  0  0  0  0
  9 25  1  0  0  0  0
 10 26  1  0  0  0  0
 10  9  1  0  0  0  0
 10  3  1  0  0  0  0
 11 12  1  6  0  0  0
 12 13  2  0  0  0  0
 12 28  1  0  0  0  0
 13 14  1  0  0  0  0
 14 30  1  0  0  0  0
 14 29  1  0  0  0  0
 15 31  1  0  0  0  0
 15 13  1  0  0  0  0
 16 15  1  0  0  0  0
 17 16  1  0  0  0  0
 17 11  1  0  0  0  0
 18 17  1  0  0  0  0
 19 18  2  0  0  0  0
 19 20  1  0  0  0  0
 20 16  2  0  0  0  0
 23  7  1  0  0  0  0
 24  9  1  0  0  0  0
 27 10  1  0  0  0  0
 32 19  1  0  0  0  0
M  END
>  <Pose>
1

>  <Score>
-5.72

$$$$
