
 OpenBabel03172210433D

 49 52  0  0  0  0  0  0  0  0999 V2000
   52.4310    0.4300   42.1750 B   0  0  0  0  0  0  0  0  0  0  0  0
   51.1720    1.6690   42.9390 C   0  0  0  0  0  0  0  0  0  0  0  0
   50.1530    2.2470   42.3770 O   0  0  0  0  0  0  0  0  0  0  0  0
   49.5180    3.0260   43.1880 C   0  0  0  0  0  0  0  0  0  0  0  0
   50.1640    2.9770   44.4280 C   0  0  0  0  0  0  0  0  0  0  0  0
   51.2160    2.1060   44.2430 C   0  0  0  0  0  0  0  0  0  0  0  0
   48.3480    3.8140   42.8900 C   0  0  0  0  0  0  0  0  0  0  0  0
   48.1050    4.1120   41.6830 O   0  0  0  0  0  0  0  0  0  0  0  0
   47.4430    4.2810   43.8810 N   0  0  0  0  0  0  0  0  0  0  0  0
   47.4470    5.6320   44.3500 C   0  0  0  0  0  0  0  0  0  0  0  0
   47.3000    6.6450   43.2570 C   0  0  0  0  0  0  0  0  0  0  0  0
   45.9390    6.7010   42.7000 C   0  0  0  0  0  0  0  0  0  0  0  0
   45.8120    6.3850   41.4700 O   0  0  0  0  0  0  0  0  0  0  0  0
   44.8040    7.0840   43.4630 N   0  0  0  0  0  0  0  0  0  0  0  0
   44.8810    7.0900   44.8980 C   0  0  0  0  0  0  0  0  0  0  0  0
   44.0520    8.1540   45.5500 C   0  0  0  0  0  0  0  0  0  0  0  0
   42.8980    8.6150   44.7100 C   0  0  0  0  0  0  0  0  0  0  0  0
   41.8160    9.0620   45.5350 N   0  0  0  0  0  0  0  0  0  0  0  0
   40.6600    9.4780   44.8160 C   0  0  0  0  0  0  0  0  0  0  0  0
   40.9220   10.3320   43.6200 C   0  0  0  0  0  0  0  0  0  0  0  0
   42.3660   10.5910   43.3920 C   0  0  0  0  0  0  0  0  0  0  0  0
   42.9980   11.5540   42.7190 N   0  0  0  0  0  0  0  0  0  0  0  0
   44.3210   11.3580   42.8040 C   0  0  0  0  0  0  0  0  0  0  0  0
   44.5500   10.2610   43.5380 N   0  0  0  0  0  0  0  0  0  0  0  0
   43.3530    9.7840   43.9030 C   0  0  0  0  0  0  0  0  0  0  0  0
   42.4900    7.5220   43.7350 C   0  0  0  0  0  0  0  0  0  0  0  0
   43.6060    7.4550   42.7150 C   0  0  0  0  0  0  0  0  0  0  0  0
   49.9010    3.5010   45.3200 H   0  0  0  0  0  0  0  0  0  0  0  0
   51.9670    1.7980   44.9850 H   0  0  0  0  0  0  0  0  0  0  0  0
   46.7590    3.6060   44.2710 H   0  0  0  0  0  0  0  0  0  0  0  0
   46.7000    5.8060   45.1480 H   0  0  0  0  0  0  0  0  0  0  0  0
   48.4460    5.7930   44.8540 H   0  0  0  0  0  0  0  0  0  0  0  0
   47.5050    7.6520   43.7160 H   0  0  0  0  0  0  0  0  0  0  0  0
   48.0910    6.4960   42.4950 H   0  0  0  0  0  0  0  0  0  0  0  0
   45.9500    7.1680   45.1840 H   0  0  0  0  0  0  0  0  0  0  0  0
   44.5230    6.1020   45.2570 H   0  0  0  0  0  0  0  0  0  0  0  0
   44.7060    9.0290   45.7390 H   0  0  0  0  0  0  0  0  0  0  0  0
   43.6640    7.8440   46.5450 H   0  0  0  0  0  0  0  0  0  0  0  0
   41.5510    8.2800   46.1740 H   0  0  0  0  0  0  0  0  0  0  0  0
   40.0350   10.0960   45.5260 H   0  0  0  0  0  0  0  0  0  0  0  0
   40.0010    8.6170   44.5480 H   0  0  0  0  0  0  0  0  0  0  0  0
   40.5090    9.8260   42.7050 H   0  0  0  0  0  0  0  0  0  0  0  0
   40.4120   11.3170   43.6600 H   0  0  0  0  0  0  0  0  0  0  0  0
   45.1290   11.9520   42.3730 H   0  0  0  0  0  0  0  0  0  0  0  0
   45.5040    9.8420   43.7860 H   0  0  0  0  0  0  0  0  0  0  0  0
   41.5080    7.7190   43.2760 H   0  0  0  0  0  0  0  0  0  0  0  0
   42.4910    6.5170   44.2480 H   0  0  0  0  0  0  0  0  0  0  0  0
   43.8050    8.4220   42.2290 H   0  0  0  0  0  0  0  0  0  0  0  0
   43.3240    6.6580   41.9990 H   0  0  0  0  0  0  0  0  0  0  0  0
  1  2  1  0  0  0  0
  2  6  2  0  0  0  0
  3  2  1  0  0  0  0
  3  4  1  0  0  0  0
  4  5  2  0  0  0  0
  5 28  1  0  0  0  0
  6  5  1  0  0  0  0
  6 29  1  0  0  0  0
  7  4  1  0  0  0  0
  7  9  1  0  0  0  0
  8  7  2  0  0  0  0
  9 30  1  0  0  0  0
  9 10  1  0  0  0  0
 10 32  1  0  0  0  0
 10 31  1  0  0  0  0
 11 33  1  0  0  0  0
 11 10  1  0  0  0  0
 12 11  1  0  0  0  0
 12 14  1  0  0  0  0
 13 12  2  0  0  0  0
 14 15  1  0  0  0  0
 15 35  1  0  0  0  0
 15 36  1  0  0  0  0
 15 16  1  0  0  0  0
 16 37  1  0  0  0  0
 16 38  1  0  0  0  0
 17 18  1  0  0  0  0
 17 16  1  0  0  0  0
 18 39  1  0  0  0  0
 19 40  1  0  0  0  0
 19 18  1  0  0  0  0
 20 43  1  0  0  0  0
 20 19  1  0  0  0  0
 21 20  1  0  0  0  0
 21 25  2  0  0  0  0
 22 23  2  0  0  0  0
 22 21  1  0  0  0  0
 23 24  1  0  0  0  0
 24 45  1  0  0  0  0
 24 25  1  0  0  0  0
 25 17  1  0  0  0  0
 26 47  1  0  0  0  0
 26 17  1  0  0  0  0
 27 14  1  0  0  0  0
 27 26  1  0  0  0  0
 34 11  1  0  0  0  0
 41 19  1  0  0  0  0
 42 20  1  0  0  0  0
 44 23  1  0  0  0  0
 46 26  1  0  0  0  0
 48 27  1  0  0  0  0
 49 27  1  0  0  0  0
M  END
>  <Pose>
1

>  <Score>
-7.24

$$$$
