
 OpenBabel03172210433D

 49 52  0  0  1  0  0  0  0  0999 V2000
   50.7390    1.9020   42.8490 B   0  0  0  0  0  0  0  0  0  0  0  0
   49.5550    3.1940   43.6460 C   0  0  0  0  0  0  0  0  0  0  0  0
   48.3300    3.4450   43.2630 O   0  0  0  0  0  0  0  0  0  0  0  0
   47.7870    4.3950   44.0250 C   0  0  0  0  0  0  0  0  0  0  0  0
   48.7440    4.7580   44.9450 C   0  0  0  0  0  0  0  0  0  0  0  0
   49.8720    4.0090   44.7220 C   0  0  0  0  0  0  0  0  0  0  0  0
   46.4370    4.9130   43.8720 C   0  0  0  0  0  0  0  0  0  0  0  0
   45.6170    4.3020   43.1560 O   0  0  0  0  0  0  0  0  0  0  0  0
   46.0430    6.0960   44.5230 N   0  0  0  0  0  0  0  0  0  0  0  0
   45.7520    7.3320   43.8250 C   0  0  1  0  0  0  0  0  0  0  0  0
   46.9770    7.7820   43.1140 C   0  0  0  0  0  0  0  0  0  0  0  0
   44.5410    7.2300   42.9930 C   0  0  0  0  0  0  0  0  0  0  0  0
   44.6920    6.6680   41.8530 O   0  0  0  0  0  0  0  0  0  0  0  0
   43.2540    7.6780   43.3150 N   0  0  0  0  0  0  0  0  0  0  0  0
   42.3740    6.9600   44.2130 C   0  0  0  0  0  0  0  0  0  0  0  0
   42.0920    7.8460   45.3870 C   0  0  0  0  0  0  0  0  0  0  0  0
   41.6080    9.1980   44.9710 C   0  0  1  0  0  0  0  0  0  0  0  0
   40.3210    9.4390   45.5990 N   0  0  0  0  0  0  0  0  0  0  0  0
   40.5310    9.5090   47.0340 C   0  0  0  0  0  0  0  0  0  0  0  0
   41.0270   10.9310   47.3220 C   0  0  0  0  0  0  0  0  0  0  0  0
   42.2480   11.1040   46.4990 C   0  0  0  0  0  0  0  0  0  0  0  0
   43.2510   11.9940   46.6300 N   0  0  0  0  0  0  0  0  0  0  0  0
   44.1290   11.7530   45.6440 C   0  0  0  0  0  0  0  0  0  0  0  0
   43.6660   10.7220   44.9140 N   0  0  0  0  0  0  0  0  0  0  0  0
   42.4970   10.2940   45.4190 C   0  0  0  0  0  0  0  0  0  0  0  0
   41.4250    9.2350   43.4540 C   0  0  0  0  0  0  0  0  0  0  0  0
   42.7040    8.9010   42.7590 C   0  0  0  0  0  0  0  0  0  0  0  0
   48.6000    5.5070   45.7000 H   0  0  0  0  0  0  0  0  0  0  0  0
   50.8180    4.0350   45.2620 H   0  0  0  0  0  0  0  0  0  0  0  0
   45.9540    6.0950   45.5600 H   0  0  0  0  0  0  0  0  0  0  0  0
   45.5310    8.1040   44.6200 H   0  0  0  0  0  0  0  0  0  0  0  0
   47.7930    7.0560   43.3120 H   0  0  0  0  0  0  0  0  0  0  0  0
   47.3860    8.7580   43.4480 H   0  0  0  0  0  0  0  0  0  0  0  0
   46.8600    7.7700   42.0050 H   0  0  0  0  0  0  0  0  0  0  0  0
   42.7460    5.9680   44.4800 H   0  0  0  0  0  0  0  0  0  0  0  0
   41.3950    6.7600   43.6840 H   0  0  0  0  0  0  0  0  0  0  0  0
   41.2880    7.3290   45.9880 H   0  0  0  0  0  0  0  0  0  0  0  0
   42.9850    7.8890   46.0430 H   0  0  0  0  0  0  0  0  0  0  0  0
   39.6610    8.6280   45.4410 H   0  0  0  0  0  0  0  0  0  0  0  0
   39.6450    9.2520   47.6190 H   0  0  0  0  0  0  0  0  0  0  0  0
   41.3830    8.8450   47.3480 H   0  0  0  0  0  0  0  0  0  0  0  0
   40.2600   11.6320   46.9060 H   0  0  0  0  0  0  0  0  0  0  0  0
   41.2010   11.0850   48.3910 H   0  0  0  0  0  0  0  0  0  0  0  0
   43.3760   12.7540   47.3460 H   0  0  0  0  0  0  0  0  0  0  0  0
   45.0460   12.2750   45.4480 H   0  0  0  0  0  0  0  0  0  0  0  0
   41.1150   10.2770   43.2080 H   0  0  0  0  0  0  0  0  0  0  0  0
   40.5930    8.5640   43.2140 H   0  0  0  0  0  0  0  0  0  0  0  0
   42.4340    8.6400   41.6930 H   0  0  0  0  0  0  0  0  0  0  0  0
   43.4300    9.7200   42.7360 H   0  0  0  0  0  0  0  0  0  0  0  0
  1  2  1  0  0  0  0
  2  6  2  0  0  0  0
  3  2  1  0  0  0  0
  3  4  1  0  0  0  0
  4  5  2  0  0  0  0
  5 28  1  0  0  0  0
  6  5  1  0  0  0  0
  6 29  1  0  0  0  0
  7  4  1  0  0  0  0
  7  9  1  0  0  0  0
  8  7  2  0  0  0  0
  9 30  1  0  0  0  0
 10  9  1  0  0  0  0
 10 31  1  1  0  0  0
 11 32  1  0  0  0  0
 11 33  1  0  0  0  0
 11 10  1  0  0  0  0
 12 14  1  0  0  0  0
 12 10  1  0  0  0  0
 13 12  2  0  0  0  0
 14 15  1  0  0  0  0
 15 35  1  0  0  0  0
 15 16  1  0  0  0  0
 16 37  1  0  0  0  0
 16 38  1  0  0  0  0
 17 16  1  0  0  0  0
 17 25  1  1  0  0  0
 17 18  1  0  0  0  0
 18 19  1  0  0  0  0
 19 20  1  0  0  0  0
 19 41  1  0  0  0  0
 19 40  1  0  0  0  0
 20 43  1  0  0  0  0
 21 22  1  0  0  0  0
 21 20  1  0  0  0  0
 22 44  1  0  0  0  0
 23 22  1  0  0  0  0
 24 25  1  0  0  0  0
 24 23  2  0  0  0  0
 25 21  2  0  0  0  0
 26 17  1  0  0  0  0
 27 14  1  0  0  0  0
 27 26  1  0  0  0  0
 34 11  1  0  0  0  0
 36 15  1  0  0  0  0
 39 18  1  0  0  0  0
 42 20  1  0  0  0  0
 45 23  1  0  0  0  0
 46 26  1  0  0  0  0
 47 26  1  0  0  0  0
 48 27  1  0  0  0  0
 49 27  1  0  0  0  0
M  END
>  <Pose>
1

>  <Score>
-6.85

$$$$
