
 OpenBabel03172210433D

 53 56  0  0  0  0  0  0  0  0999 V2000
   47.6860    3.5410   42.4590 B   0  0  0  0  0  0  0  0  0  0  0  0
   46.7450    5.1000   43.0400 C   0  0  0  0  0  0  0  0  0  0  0  0
   45.4470    5.2090   43.1670 O   0  0  0  0  0  0  0  0  0  0  0  0
   45.0860    6.3970   43.5850 C   0  0  0  0  0  0  0  0  0  0  0  0
   46.2450    7.1180   43.7430 C   0  0  0  0  0  0  0  0  0  0  0  0
   47.2980    6.3090   43.4020 C   0  0  0  0  0  0  0  0  0  0  0  0
   43.7040    6.8660   43.8370 C   0  0  0  0  0  0  0  0  0  0  0  0
   42.9400    6.1800   44.5310 O   0  0  0  0  0  0  0  0  0  0  0  0
   43.2750    8.0990   43.2770 N   0  0  0  0  0  0  0  0  0  0  0  0
   44.0990    9.2990   43.4010 C   0  0  0  0  0  0  0  0  0  0  0  0
   43.3790   10.4910   42.7750 C   0  0  0  0  0  0  0  0  0  0  0  0
   42.0360   10.5170   43.3190 N   0  0  0  0  0  0  0  0  0  0  0  0
   41.2020    9.3580   43.1510 C   0  0  0  0  0  0  0  0  0  0  0  0
   42.0200    8.2350   42.5660 C   0  0  0  0  0  0  0  0  0  0  0  0
   41.5320   11.6660   44.0120 C   0  0  0  0  0  0  0  0  0  0  0  0
   40.2710   12.0890   43.8490 N   0  0  0  0  0  0  0  0  0  0  0  0
   39.8290   13.1660   44.5090 C   0  0  0  0  0  0  0  0  0  0  0  0
   40.6230   13.8580   45.3500 N   0  0  0  0  0  0  0  0  0  0  0  0
   41.8990   13.4860   45.5580 C   0  0  0  0  0  0  0  0  0  0  0  0
   42.3340   12.3740   44.8690 C   0  0  0  0  0  0  0  0  0  0  0  0
   42.7720   14.1800   46.4320 N   0  0  0  0  0  0  0  0  0  0  0  0
   44.2070   14.0560   46.2840 C   0  0  0  0  0  0  0  0  0  0  0  0
   44.8420   15.1340   47.1360 C   0  0  0  0  0  0  0  0  0  0  0  0
   44.4800   14.9110   48.5100 N   0  0  0  0  0  0  0  0  0  0  0  0
   43.0910   14.6650   48.7360 C   0  0  0  0  0  0  0  0  0  0  0  0
   42.2960   15.0360   47.5020 C   0  0  0  0  0  0  0  0  0  0  0  0
   45.3650   13.9400   49.1020 C   0  0  0  0  0  0  0  0  0  0  0  0
   38.4310   13.6260   44.3220 C   0  0  0  0  0  0  0  0  0  0  0  0
   46.3280    8.1400   44.0760 H   0  0  0  0  0  0  0  0  0  0  0  0
   48.3740    6.5520   43.4080 H   0  0  0  0  0  0  0  0  0  0  0  0
   45.0830    9.1540   42.9280 H   0  0  0  0  0  0  0  0  0  0  0  0
   44.2700    9.5020   44.4800 H   0  0  0  0  0  0  0  0  0  0  0  0
   43.9030   11.4180   43.0150 H   0  0  0  0  0  0  0  0  0  0  0  0
   43.3390   10.2980   41.6800 H   0  0  0  0  0  0  0  0  0  0  0  0
   40.7430    9.0640   44.1260 H   0  0  0  0  0  0  0  0  0  0  0  0
   40.3950    9.6030   42.4050 H   0  0  0  0  0  0  0  0  0  0  0  0
   41.4500    7.2980   42.5350 H   0  0  0  0  0  0  0  0  0  0  0  0
   42.2740    8.5260   41.5170 H   0  0  0  0  0  0  0  0  0  0  0  0
   43.3520   12.0360   45.0040 H   0  0  0  0  0  0  0  0  0  0  0  0
   44.5320   13.0640   46.6270 H   0  0  0  0  0  0  0  0  0  0  0  0
   44.4420   14.1890   45.2070 H   0  0  0  0  0  0  0  0  0  0  0  0
   45.9360   15.0260   47.0240 H   0  0  0  0  0  0  0  0  0  0  0  0
   44.5340   16.1270   46.7700 H   0  0  0  0  0  0  0  0  0  0  0  0
   42.7170   15.2620   49.5920 H   0  0  0  0  0  0  0  0  0  0  0  0
   42.8980   13.6040   48.9610 H   0  0  0  0  0  0  0  0  0  0  0  0
   42.5440   16.0900   47.2210 H   0  0  0  0  0  0  0  0  0  0  0  0
   41.2080   14.8950   47.6500 H   0  0  0  0  0  0  0  0  0  0  0  0
   46.2220   13.7120   48.4630 H   0  0  0  0  0  0  0  0  0  0  0  0
   45.7470   14.3680   50.0660 H   0  0  0  0  0  0  0  0  0  0  0  0
   44.8000   13.0120   49.3290 H   0  0  0  0  0  0  0  0  0  0  0  0
   38.0510   14.0080   45.2920 H   0  0  0  0  0  0  0  0  0  0  0  0
   38.3960   14.4320   43.5610 H   0  0  0  0  0  0  0  0  0  0  0  0
   37.7890   12.7700   44.0510 H   0  0  0  0  0  0  0  0  0  0  0  0
  1  2  1  0  0  0  0
  2  3  1  0  0  0  0
  2  6  2  0  0  0  0
  3  4  1  0  0  0  0
  4  5  2  0  0  0  0
  4  7  1  0  0  0  0
  5 29  1  0  0  0  0
  6 30  1  0  0  0  0
  6  5  1  0  0  0  0
  7  8  2  0  0  0  0
  9 10  1  0  0  0  0
  9  7  1  0  0  0  0
 10 32  1  0  0  0  0
 11 33  1  0  0  0  0
 11 12  1  0  0  0  0
 11 10  1  0  0  0  0
 12 15  1  0  0  0  0
 13 12  1  0  0  0  0
 13 35  1  0  0  0  0
 14 13  1  0  0  0  0
 14  9  1  0  0  0  0
 15 20  2  0  0  0  0
 16 15  1  0  0  0  0
 16 17  2  0  0  0  0
 17 18  1  0  0  0  0
 18 19  2  0  0  0  0
 19 21  1  0  0  0  0
 20 39  1  0  0  0  0
 20 19  1  0  0  0  0
 21 26  1  0  0  0  0
 22 21  1  0  0  0  0
 22 40  1  0  0  0  0
 22 23  1  0  0  0  0
 23 24  1  0  0  0  0
 24 25  1  0  0  0  0
 24 27  1  0  0  0  0
 25 45  1  0  0  0  0
 25 44  1  0  0  0  0
 26 47  1  0  0  0  0
 26 25  1  0  0  0  0
 27 50  1  0  0  0  0
 27 49  1  0  0  0  0
 28 17  1  0  0  0  0
 28 51  1  0  0  0  0
 31 10  1  0  0  0  0
 34 11  1  0  0  0  0
 36 13  1  0  0  0  0
 37 14  1  0  0  0  0
 38 14  1  0  0  0  0
 41 22  1  0  0  0  0
 42 23  1  0  0  0  0
 43 23  1  0  0  0  0
 46 26  1  0  0  0  0
 48 27  1  0  0  0  0
 52 28  1  0  0  0  0
 53 28  1  0  0  0  0
M  END
>  <Pose>
1

>  <Score>
-5.76

$$$$
