
 OpenBabel03172210433D

 43 46  0  0  0  0  0  0  0  0999 V2000
   52.8120   -2.0390   43.1750 B   0  0  0  0  0  0  0  0  0  0  0  0
   52.0250   -0.3450   42.8410 C   0  0  0  0  0  0  0  0  0  0  0  0
   50.7690   -0.0150   42.8410 O   0  0  0  0  0  0  0  0  0  0  0  0
   50.5870    1.2520   42.5670 C   0  0  0  0  0  0  0  0  0  0  0  0
   51.8430    1.7960   42.3700 C   0  0  0  0  0  0  0  0  0  0  0  0
   52.7810    0.7890   42.5410 C   0  0  0  0  0  0  0  0  0  0  0  0
   49.3240    1.9740   42.4790 C   0  0  0  0  0  0  0  0  0  0  0  0
   48.1080    1.4790   42.1530 N   0  0  0  0  0  0  0  0  0  0  0  0
   47.2250    2.4360   42.1840 O   0  0  0  0  0  0  0  0  0  0  0  0
   47.7930    3.5670   42.5190 C   0  0  0  0  0  0  0  0  0  0  0  0
   49.0880    3.2790   42.7000 N   0  0  0  0  0  0  0  0  0  0  0  0
   47.0730    4.8280   42.6420 C   0  0  0  0  0  0  0  0  0  0  0  0
   46.9840    5.6100   41.6360 O   0  0  0  0  0  0  0  0  0  0  0  0
   46.4550    5.2280   43.8590 N   0  0  0  0  0  0  0  0  0  0  0  0
   45.2670    6.0120   43.8770 C   0  0  0  0  0  0  0  0  0  0  0  0
   45.4040    7.3080   43.1060 C   0  0  0  0  0  0  0  0  0  0  0  0
   44.9210    8.4400   43.8840 N   0  0  0  0  0  0  0  0  0  0  0  0
   43.6690    8.9980   43.5720 C   0  0  0  0  0  0  0  0  0  0  0  0
   42.9770    8.3430   42.7120 O   0  0  0  0  0  0  0  0  0  0  0  0
   43.0780   10.2020   44.0970 C   0  0  0  0  0  0  0  0  0  0  0  0
   41.7400   10.4680   43.8110 C   0  0  0  0  0  0  0  0  0  0  0  0
   41.1490   11.6030   44.3070 C   0  0  0  0  0  0  0  0  0  0  0  0
   41.8640   12.4690   45.0750 C   0  0  0  0  0  0  0  0  0  0  0  0
   41.2590   13.6230   45.5780 C   0  0  0  0  0  0  0  0  0  0  0  0
   39.9420   13.9190   45.3190 C   0  0  0  0  0  0  0  0  0  0  0  0
   39.2270   13.0420   44.5440 C   0  0  0  0  0  0  0  0  0  0  0  0
   39.8090   11.9000   44.0410 C   0  0  0  0  0  0  0  0  0  0  0  0
   43.1120   12.1930   45.3250 O   0  0  0  0  0  0  0  0  0  0  0  0
   43.7440   11.1140   44.8770 C   0  0  0  0  0  0  0  0  0  0  0  0
   44.9490   10.9680   45.1910 O   0  0  0  0  0  0  0  0  0  0  0  0
   52.0090    2.8170   42.1310 H   0  0  0  0  0  0  0  0  0  0  0  0
   53.8610    0.8780   42.4580 H   0  0  0  0  0  0  0  0  0  0  0  0
   46.8890    4.9370   44.7550 H   0  0  0  0  0  0  0  0  0  0  0  0
   45.0730    6.3040   44.9460 H   0  0  0  0  0  0  0  0  0  0  0  0
   44.3790    5.4350   43.5570 H   0  0  0  0  0  0  0  0  0  0  0  0
   46.4890    7.4770   42.9460 H   0  0  0  0  0  0  0  0  0  0  0  0
   44.9230    7.2410   42.1130 H   0  0  0  0  0  0  0  0  0  0  0  0
   45.4740    8.8410   44.6620 H   0  0  0  0  0  0  0  0  0  0  0  0
   41.1490    9.7840   43.1960 H   0  0  0  0  0  0  0  0  0  0  0  0
   41.8530   14.2870   46.1830 H   0  0  0  0  0  0  0  0  0  0  0  0
   39.5140   14.8200   45.7270 H   0  0  0  0  0  0  0  0  0  0  0  0
   38.1940   13.2650   44.3350 H   0  0  0  0  0  0  0  0  0  0  0  0
   39.2550   11.2050   43.4310 H   0  0  0  0  0  0  0  0  0  0  0  0
  2  1  1  0  0  0  0
  3  2  1  0  0  0  0
  4  3  1  0  0  0  0
  5  6  1  0  0  0  0
  5  4  2  0  0  0  0
  6  2  2  0  0  0  0
  7  4  1  0  0  0  0
  7 11  1  0  0  0  0
  8  9  1  0  0  0  0
  8  7  2  0  0  0  0
  9 10  1  0  0  0  0
 10 12  1  0  0  0  0
 10 11  2  0  0  0  0
 12 14  1  0  0  0  0
 13 12  2  0  0  0  0
 14 15  1  0  0  0  0
 14 33  1  0  0  0  0
 15 34  1  0  0  0  0
 16 15  1  0  0  0  0
 16 17  1  0  0  0  0
 17 38  1  0  0  0  0
 18 17  1  0  0  0  0
 18 20  1  0  0  0  0
 19 18  2  0  0  0  0
 20 29  1  0  0  0  0
 21 20  2  0  0  0  0
 21 22  1  0  0  0  0
 22 23  1  0  0  0  0
 23 28  1  0  0  0  0
 23 24  2  0  0  0  0
 24 40  1  0  0  0  0
 25 24  1  0  0  0  0
 25 41  1  0  0  0  0
 26 25  2  0  0  0  0
 27 22  2  0  0  0  0
 27 26  1  0  0  0  0
 29 30  2  0  0  0  0
 29 28  1  0  0  0  0
 31  5  1  0  0  0  0
 32  6  1  0  0  0  0
 35 15  1  0  0  0  0
 36 16  1  0  0  0  0
 37 16  1  0  0  0  0
 39 21  1  0  0  0  0
 42 26  1  0  0  0  0
 43 27  1  0  0  0  0
M  END
>  <Pose>
1

>  <Score>
-7.44

$$$$
