
 OpenBabel03172210433D

 64 67  0  0  1  0  0  0  0  0999 V2000
   49.6680    3.0800   45.0920 B   0  0  0  0  0  0  0  0  0  0  0  0
   48.5860    3.6710   43.6550 C   0  0  0  0  0  0  0  0  0  0  0  0
   47.5730    4.5940   43.9150 C   0  0  0  0  0  0  0  0  0  0  0  0
   46.7710    5.0580   42.9540 N   0  0  0  0  0  0  0  0  0  0  0  0
   46.9960    4.5780   41.6930 C   0  0  0  0  0  0  0  0  0  0  0  0
   46.2660    4.9860   40.7500 O   0  0  0  0  0  0  0  0  0  0  0  0
   47.9650    3.6900   41.4120 N   0  0  0  0  0  0  0  0  0  0  0  0
   48.7800    3.2140   42.3700 C   0  0  0  0  0  0  0  0  0  0  0  0
   49.6990    2.3720   42.1050 O   0  0  0  0  0  0  0  0  0  0  0  0
   45.7280    5.9850   43.1320 C   0  0  1  0  0  0  0  0  0  0  0  0
   46.1540    7.2110   43.9560 C   0  0  1  0  0  0  0  0  0  0  0  0
   44.8280    7.7820   44.4790 C   0  0  0  0  0  0  0  0  0  0  0  0
   43.8590    7.9900   43.3490 C   0  0  2  0  0  0  0  0  0  0  0  0
   44.5050    7.7840   42.1540 O   0  0  0  0  0  0  0  0  0  0  0  0
   44.9870    6.4910   41.9640 C   0  0  0  0  0  0  0  0  0  0  0  0
   43.4700    9.4620   43.3890 C   0  0  0  0  0  0  0  0  0  0  0  0
   42.3430    9.6640   44.3700 C   0  0  0  0  0  0  0  0  0  0  0  0
   42.3100    8.5610   45.3460 N   0  0  0  0  0  0  0  0  0  0  0  0
   41.9430    7.2830   44.8120 C   0  0  0  0  0  0  0  0  0  0  0  0
   42.6090    7.1890   43.4420 C   0  0  0  0  0  0  0  0  0  0  0  0
   42.6480    8.7390   46.6870 C   0  0  0  0  0  0  0  0  0  0  0  0
   43.8600    9.0220   47.0340 O   0  0  0  0  0  0  0  0  0  0  0  0
   41.6890    8.6210   47.7740 C   0  0  1  0  0  0  0  0  0  0  0  0
   41.5180    7.2430   48.1670 N   0  0  0  0  0  0  0  0  0  0  0  0
   41.8060    6.6450   49.3880 C   0  0  0  0  0  0  0  0  0  0  0  0
   42.1800    5.4650   49.5480 O   0  0  0  0  0  0  0  0  0  0  0  0
   41.6790    7.4280   50.6820 C   0  0  0  0  0  0  0  0  0  0  0  0
   42.1330    9.4450   49.0240 C   0  0  0  0  0  0  0  0  0  0  0  0
   41.9240   10.8830   48.7760 C   0  0  0  0  0  0  0  0  0  0  0  0
   41.2470   11.7750   49.4810 N   0  0  0  0  0  0  0  0  0  0  0  0
   41.3000   13.0090   48.9070 C   0  0  0  0  0  0  0  0  0  0  0  0
   42.0450   12.8720   47.7940 N   0  0  0  0  0  0  0  0  0  0  0  0
   42.4350   11.5830   47.6960 C   0  0  0  0  0  0  0  0  0  0  0  0
   46.9390    6.8650   45.0340 O   0  0  0  0  0  0  0  0  0  0  0  0
   46.9000    8.2000   43.1170 C   0  0  0  0  0  0  0  0  0  0  0  0
   47.4000    4.9650   44.9180 H   0  0  0  0  0  0  0  0  0  0  0  0
   48.0720    3.3710   40.4130 H   0  0  0  0  0  0  0  0  0  0  0  0
   44.9560    5.4860   43.7990 H   0  0  0  0  0  0  0  0  0  0  0  0
   45.0690    8.7080   45.0380 H   0  0  0  0  0  0  0  0  0  0  0  0
   44.4620    7.0340   45.2060 H   0  0  0  0  0  0  0  0  0  0  0  0
   44.0750    5.8530   41.7580 H   0  0  0  0  0  0  0  0  0  0  0  0
   45.5140    6.5140   40.9950 H   0  0  0  0  0  0  0  0  0  0  0  0
   44.2940   10.1170   43.6810 H   0  0  0  0  0  0  0  0  0  0  0  0
   43.1750    9.7430   42.3560 H   0  0  0  0  0  0  0  0  0  0  0  0
   41.3410    9.6520   43.8890 H   0  0  0  0  0  0  0  0  0  0  0  0
   42.4550   10.5970   44.9380 H   0  0  0  0  0  0  0  0  0  0  0  0
   42.2540    6.4130   45.4390 H   0  0  0  0  0  0  0  0  0  0  0  0
   40.8430    7.2350   44.7150 H   0  0  0  0  0  0  0  0  0  0  0  0
   42.7080    6.1210   43.2320 H   0  0  0  0  0  0  0  0  0  0  0  0
   41.8780    7.6060   42.7180 H   0  0  0  0  0  0  0  0  0  0  0  0
   40.6740    9.0500   47.6000 H   0  0  0  0  0  0  0  0  0  0  0  0
   41.1180    6.6160   47.4030 H   0  0  0  0  0  0  0  0  0  0  0  0
   41.3700    6.7810   51.5040 H   0  0  0  0  0  0  0  0  0  0  0  0
   42.6630    7.8820   50.9250 H   0  0  0  0  0  0  0  0  0  0  0  0
   40.9590    8.2480   50.5400 H   0  0  0  0  0  0  0  0  0  0  0  0
   41.5830    9.1380   49.9050 H   0  0  0  0  0  0  0  0  0  0  0  0
   43.2220    9.2360   49.1900 H   0  0  0  0  0  0  0  0  0  0  0  0
   40.8260   13.9110   49.2890 H   0  0  0  0  0  0  0  0  0  0  0  0
   42.2580   13.6670   47.1440 H   0  0  0  0  0  0  0  0  0  0  0  0
   43.0460   11.2080   46.8880 H   0  0  0  0  0  0  0  0  0  0  0  0
   47.3920    7.6760   45.3800 H   0  0  0  0  0  0  0  0  0  0  0  0
   47.9640    8.3340   43.4580 H   0  0  0  0  0  0  0  0  0  0  0  0
   46.9740    7.8980   42.0430 H   0  0  0  0  0  0  0  0  0  0  0  0
   46.4380    9.1880   43.1380 H   0  0  0  0  0  0  0  0  0  0  0  0
  2  3  2  0  0  0  0
  2  1  1  0  0  0  0
  3 36  1  0  0  0  0
  4 10  1  0  0  0  0
  4  3  1  0  0  0  0
  5  4  1  0  0  0  0
  6  5  2  0  0  0  0
  7  5  1  0  0  0  0
  7  8  1  0  0  0  0
  8  2  1  0  0  0  0
  9  8  2  0  0  0  0
 10 38  1  1  0  0  0
 10 11  1  0  0  0  0
 11 12  1  0  0  0  0
 11 34  1  1  0  0  0
 12 39  1  0  0  0  0
 12 40  1  0  0  0  0
 13 14  1  6  0  0  0
 13 16  1  0  0  0  0
 13 20  1  0  0  0  0
 13 12  1  0  0  0  0
 15 14  1  0  0  0  0
 15 10  1  0  0  0  0
 16 43  1  0  0  0  0
 16 17  1  0  0  0  0
 17 46  1  0  0  0  0
 17 18  1  0  0  0  0
 18 21  1  0  0  0  0
 19 18  1  0  0  0  0
 19 47  1  0  0  0  0
 20 19  1  0  0  0  0
 21 22  2  0  0  0  0
 21 23  1  0  0  0  0
 23 51  1  6  0  0  0
 23 24  1  0  0  0  0
 23 28  1  0  0  0  0
 24 25  1  0  0  0  0
 25 26  2  0  0  0  0
 25 27  1  0  0  0  0
 27 54  1  0  0  0  0
 27 53  1  0  0  0  0
 28 57  1  0  0  0  0
 28 56  1  0  0  0  0
 29 28  1  0  0  0  0
 29 30  1  0  0  0  0
 31 58  1  0  0  0  0
 31 30  2  0  0  0  0
 32 31  1  0  0  0  0
 33 32  1  0  0  0  0
 33 29  2  0  0  0  0
 34 61  1  0  0  0  0
 35 64  1  0  0  0  0
 35 62  1  0  0  0  0
 35 11  1  0  0  0  0
 37  7  1  0  0  0  0
 41 15  1  0  0  0  0
 42 15  1  0  0  0  0
 44 16  1  0  0  0  0
 45 17  1  0  0  0  0
 48 19  1  0  0  0  0
 49 20  1  0  0  0  0
 50 20  1  0  0  0  0
 52 24  1  0  0  0  0
 55 27  1  0  0  0  0
 59 32  1  0  0  0  0
 60 33  1  0  0  0  0
 63 35  1  0  0  0  0
M  END
>  <Pose>
1

>  <Score>
-7.02

$$$$
