
 OpenBabel03172210433D

 41 44  0  0  1  0  0  0  0  0999 V2000
   50.3210    3.0350   44.7280 B   0  0  0  0  0  0  0  0  0  0  0  0
   48.8960    3.9130   43.7970 C   0  0  0  0  0  0  0  0  0  0  0  0
   48.2640    5.0250   44.3080 C   0  0  0  0  0  0  0  0  0  0  0  0
   47.2500    5.6530   43.6480 N   0  0  0  0  0  0  0  0  0  0  0  0
   46.8570    5.1650   42.4570 C   0  0  0  0  0  0  0  0  0  0  0  0
   45.8560    5.9330   41.9930 N   0  0  0  0  0  0  0  0  0  0  0  0
   45.5980    6.9150   42.8760 C   0  0  0  0  0  0  0  0  0  0  0  0
   46.4850    6.7270   43.9150 C   0  0  0  0  0  0  0  0  0  0  0  0
   44.5730    7.9850   42.7690 C   0  0  0  0  0  0  0  0  0  0  0  0
   45.0160    9.2000   43.4160 N   0  0  0  0  0  0  0  0  0  0  0  0
   44.0830   10.0160   44.0750 C   0  0  0  0  0  0  0  0  0  0  0  0
   43.6840   11.0690   43.5360 O   0  0  0  0  0  0  0  0  0  0  0  0
   43.5640    9.6390   45.4030 C   0  0  1  0  0  0  0  0  0  0  0  0
   42.5730   10.6640   45.8940 C   0  0  0  0  0  0  0  0  0  0  0  0
   41.4880   10.6990   44.9310 N   0  0  0  0  0  0  0  0  0  0  0  0
   41.0840    9.5670   44.3320 C   0  0  0  0  0  0  0  0  0  0  0  0
   40.0770    9.9030   43.5010 N   0  0  0  0  0  0  0  0  0  0  0  0
   39.8600   11.1830   43.5770 N   0  0  0  0  0  0  0  0  0  0  0  0
   40.7290   11.6890   44.4610 C   0  0  0  0  0  0  0  0  0  0  0  0
   40.7740   13.1430   44.8060 C   0  0  0  0  0  0  0  0  0  0  0  0
   41.6650    8.2370   44.5730 C   0  0  0  0  0  0  0  0  0  0  0  0
   42.9440    8.2680   45.3320 C   0  0  0  0  0  0  0  0  0  0  0  0
   47.4750    4.0430   41.9140 C   0  0  0  0  0  0  0  0  0  0  0  0
   48.4960    3.4100   42.5780 C   0  0  0  0  0  0  0  0  0  0  0  0
   48.5820    5.4050   45.2540 H   0  0  0  0  0  0  0  0  0  0  0  0
   46.6080    7.2980   44.8250 H   0  0  0  0  0  0  0  0  0  0  0  0
   44.3280    8.1470   41.6910 H   0  0  0  0  0  0  0  0  0  0  0  0
   43.6190    7.6350   43.2500 H   0  0  0  0  0  0  0  0  0  0  0  0
   46.0150    9.4800   43.4020 H   0  0  0  0  0  0  0  0  0  0  0  0
   44.4320    9.5580   46.0980 H   0  0  0  0  0  0  0  0  0  0  0  0
   42.1810   10.3330   46.8850 H   0  0  0  0  0  0  0  0  0  0  0  0
   43.0900   11.6400   45.9890 H   0  0  0  0  0  0  0  0  0  0  0  0
   41.7400   13.3920   45.2560 H   0  0  0  0  0  0  0  0  0  0  0  0
   40.6600   13.7650   43.8770 H   0  0  0  0  0  0  0  0  0  0  0  0
   39.9140   13.3740   45.4660 H   0  0  0  0  0  0  0  0  0  0  0  0
   40.9390    7.6080   45.1590 H   0  0  0  0  0  0  0  0  0  0  0  0
   41.7700    7.7260   43.5930 H   0  0  0  0  0  0  0  0  0  0  0  0
   43.6880    7.5940   44.8270 H   0  0  0  0  0  0  0  0  0  0  0  0
   42.8300    7.8840   46.3690 H   0  0  0  0  0  0  0  0  0  0  0  0
   47.1130    3.7020   40.9530 H   0  0  0  0  0  0  0  0  0  0  0  0
   48.9480    2.5380   42.1140 H   0  0  0  0  0  0  0  0  0  0  0  0
  2  3  2  0  0  0  0
  2  1  1  0  0  0  0
  3 25  1  0  0  0  0
  4  8  1  0  0  0  0
  4  3  1  0  0  0  0
  5  4  1  0  0  0  0
  6  5  2  0  0  0  0
  6  7  1  0  0  0  0
  7  8  2  0  0  0  0
  8 26  1  0  0  0  0
  9  7  1  0  0  0  0
  9 28  1  0  0  0  0
  9 10  1  0  0  0  0
 10 11  1  0  0  0  0
 11 13  1  0  0  0  0
 12 11  2  0  0  0  0
 13 14  1  0  0  0  0
 13 30  1  1  0  0  0
 14 32  1  0  0  0  0
 14 31  1  0  0  0  0
 15 14  1  0  0  0  0
 16 21  1  0  0  0  0
 16 15  1  0  0  0  0
 17 18  1  0  0  0  0
 17 16  2  0  0  0  0
 18 19  2  0  0  0  0
 19 20  1  0  0  0  0
 19 15  1  0  0  0  0
 20 33  1  0  0  0  0
 20 35  1  0  0  0  0
 21 36  1  0  0  0  0
 21 22  1  0  0  0  0
 22 13  1  0  0  0  0
 22 39  1  0  0  0  0
 23  5  1  0  0  0  0
 23 24  2  0  0  0  0
 24  2  1  0  0  0  0
 27  9  1  0  0  0  0
 29 10  1  0  0  0  0
 34 20  1  0  0  0  0
 37 21  1  0  0  0  0
 38 22  1  0  0  0  0
 40 23  1  0  0  0  0
 41 24  1  0  0  0  0
M  END
>  <Pose>
1

>  <Score>
-6.16

$$$$
