
 OpenBabel03172210433D

 39 42  0  0  0  0  0  0  0  0999 V2000
   52.7720    0.4360   42.5470 B   0  0  0  0  0  0  0  0  0  0  0  0
   51.3250    1.5420   43.1020 C   0  0  0  0  0  0  0  0  0  0  0  0
   51.1530    1.8590   44.4130 C   0  0  0  0  0  0  0  0  0  0  0  0
   50.1460    2.6300   44.8060 N   0  0  0  0  0  0  0  0  0  0  0  0
   49.7820    3.0670   46.0120 N   0  0  0  0  0  0  0  0  0  0  0  0
   48.6820    3.8240   45.8670 C   0  0  0  0  0  0  0  0  0  0  0  0
   48.3340    3.8710   44.5370 C   0  0  0  0  0  0  0  0  0  0  0  0
   49.2880    3.0980   43.8830 C   0  0  0  0  0  0  0  0  0  0  0  0
   49.4440    2.7950   42.5850 N   0  0  0  0  0  0  0  0  0  0  0  0
   50.4490    2.0220   42.1670 C   0  0  0  0  0  0  0  0  0  0  0  0
   47.2330    4.5550   43.9070 C   0  0  0  0  0  0  0  0  0  0  0  0
   46.3180    3.8530   43.3880 O   0  0  0  0  0  0  0  0  0  0  0  0
   47.1750    5.9720   43.8700 N   0  0  0  0  0  0  0  0  0  0  0  0
   46.9570    6.6060   42.5600 C   0  0  0  0  0  0  0  0  0  0  0  0
   46.3020    7.9440   42.9030 C   0  0  0  0  0  0  0  0  0  0  0  0
   45.4120    7.6760   43.9940 N   0  0  0  0  0  0  0  0  0  0  0  0
   46.1130    7.6880   45.3110 C   0  0  0  0  0  0  0  0  0  0  0  0
   47.3230    6.7810   45.0710 C   0  0  0  0  0  0  0  0  0  0  0  0
   44.0600    7.3800   43.9530 C   0  0  0  0  0  0  0  0  0  0  0  0
   43.7180    6.1460   44.1830 O   0  0  0  0  0  0  0  0  0  0  0  0
   42.9250    8.2480   43.6860 C   0  0  0  0  0  0  0  0  0  0  0  0
   42.1670    8.1890   42.5820 O   0  0  0  0  0  0  0  0  0  0  0  0
   41.2280    9.0720   42.5920 C   0  0  0  0  0  0  0  0  0  0  0  0
   41.3030    9.8050   43.7500 C   0  0  0  0  0  0  0  0  0  0  0  0
   42.3840    9.2680   44.4300 C   0  0  0  0  0  0  0  0  0  0  0  0
   51.8530    1.4760   45.1620 H   0  0  0  0  0  0  0  0  0  0  0  0
   48.1700    4.3080   46.6910 H   0  0  0  0  0  0  0  0  0  0  0  0
   50.6020    1.7600   41.1300 H   0  0  0  0  0  0  0  0  0  0  0  0
   46.2210    6.0260   41.9980 H   0  0  0  0  0  0  0  0  0  0  0  0
   47.9170    6.7710   42.0680 H   0  0  0  0  0  0  0  0  0  0  0  0
   45.9320    8.5070   42.0670 H   0  0  0  0  0  0  0  0  0  0  0  0
   47.1690    8.5980   43.2940 H   0  0  0  0  0  0  0  0  0  0  0  0
   45.4590    7.3180   46.1050 H   0  0  0  0  0  0  0  0  0  0  0  0
   46.4200    8.7440   45.4470 H   0  0  0  0  0  0  0  0  0  0  0  0
   48.2550    7.3650   45.0110 H   0  0  0  0  0  0  0  0  0  0  0  0
   47.3720    6.0850   45.9280 H   0  0  0  0  0  0  0  0  0  0  0  0
   40.4680    9.2420   41.8140 H   0  0  0  0  0  0  0  0  0  0  0  0
   40.6650   10.6280   44.0800 H   0  0  0  0  0  0  0  0  0  0  0  0
   42.7090    9.6500   45.3880 H   0  0  0  0  0  0  0  0  0  0  0  0
  1  2  1  0  0  0  0
  2  3  2  0  0  0  0
  3  4  1  0  0  0  0
  3 26  1  0  0  0  0
  4  5  1  0  0  0  0
  6  5  2  0  0  0  0
  6 27  1  0  0  0  0
  7  6  1  0  0  0  0
  8  7  2  0  0  0  0
  8  4  1  0  0  0  0
  9  8  1  0  0  0  0
 10  9  2  0  0  0  0
 10  2  1  0  0  0  0
 11  7  1  0  0  0  0
 12 11  2  0  0  0  0
 13 11  1  0  0  0  0
 13 18  1  0  0  0  0
 14 15  1  0  0  0  0
 14 13  1  0  0  0  0
 15 32  1  0  0  0  0
 15 16  1  0  0  0  0
 16 17  1  0  0  0  0
 17 34  1  0  0  0  0
 17 33  1  0  0  0  0
 18 17  1  0  0  0  0
 18 36  1  0  0  0  0
 19 16  1  0  0  0  0
 19 20  2  0  0  0  0
 21 19  1  0  0  0  0
 21 25  2  0  0  0  0
 22 23  1  0  0  0  0
 22 21  1  0  0  0  0
 23 24  2  0  0  0  0
 24 38  1  0  0  0  0
 24 25  1  0  0  0  0
 25 39  1  0  0  0  0
 28 10  1  0  0  0  0
 29 14  1  0  0  0  0
 30 14  1  0  0  0  0
 31 15  1  0  0  0  0
 35 18  1  0  0  0  0
 37 23  1  0  0  0  0
M  END
>  <Pose>
1

>  <Score>
-5.90

$$$$
