
 OpenBabel03172210433D

 40 43  0  0  0  0  0  0  0  0999 V2000
   38.7870   13.7020   44.6620 B   0  0  0  0  0  0  0  0  0  0  0  0
   39.6820   12.0230   44.9020 C   0  0  0  0  0  0  0  0  0  0  0  0
   40.3120   11.3830   43.8570 C   0  0  0  0  0  0  0  0  0  0  0  0
   40.9510   10.2010   43.9860 N   0  0  0  0  0  0  0  0  0  0  0  0
   41.0140    9.5620   45.1680 C   0  0  0  0  0  0  0  0  0  0  0  0
   41.6460    8.3850   45.3150 N   0  0  0  0  0  0  0  0  0  0  0  0
   42.2670    7.7520   44.2910 C   0  0  0  0  0  0  0  0  0  0  0  0
   42.2150    8.3880   43.0690 C   0  0  0  0  0  0  0  0  0  0  0  0
   41.5560    9.6070   42.9360 C   0  0  0  0  0  0  0  0  0  0  0  0
   41.5030   10.1890   41.8410 O   0  0  0  0  0  0  0  0  0  0  0  0
   42.9620    6.4520   44.4830 C   0  0  0  0  0  0  0  0  0  0  0  0
   44.3550    6.5300   44.3280 O   0  0  0  0  0  0  0  0  0  0  0  0
   45.0230    6.6280   43.1250 C   0  0  0  0  0  0  0  0  0  0  0  0
   44.3970    6.4680   42.0580 O   0  0  0  0  0  0  0  0  0  0  0  0
   46.4730    6.9250   43.1400 C   0  0  0  0  0  0  0  0  0  0  0  0
   47.2470    5.7170   43.1540 N   0  0  0  0  0  0  0  0  0  0  0  0
   47.2440    4.7150   42.1620 C   0  0  0  0  0  0  0  0  0  0  0  0
   46.5900    4.6560   41.0880 O   0  0  0  0  0  0  0  0  0  0  0  0
   48.1840    3.6510   42.5770 C   0  0  0  0  0  0  0  0  0  0  0  0
   48.7230    4.0220   43.7790 C   0  0  0  0  0  0  0  0  0  0  0  0
   49.6360    3.2400   44.4270 C   0  0  0  0  0  0  0  0  0  0  0  0
   50.0120    2.0530   43.8460 C   0  0  0  0  0  0  0  0  0  0  0  0
   49.4690    1.6790   42.6320 C   0  0  0  0  0  0  0  0  0  0  0  0
   48.5480    2.4610   41.9710 C   0  0  0  0  0  0  0  0  0  0  0  0
   48.1490    5.3150   44.1590 C   0  0  0  0  0  0  0  0  0  0  0  0
   48.4390    5.9410   45.2240 O   0  0  0  0  0  0  0  0  0  0  0  0
   40.3850   10.1870   46.2470 C   0  0  0  0  0  0  0  0  0  0  0  0
   39.7290   11.3930   46.1270 C   0  0  0  0  0  0  0  0  0  0  0  0
   40.2760   11.8800   42.8850 H   0  0  0  0  0  0  0  0  0  0  0  0
   42.6980    7.9350   42.1970 H   0  0  0  0  0  0  0  0  0  0  0  0
   42.7520    6.0290   45.4850 H   0  0  0  0  0  0  0  0  0  0  0  0
   42.5910    5.6850   43.7470 H   0  0  0  0  0  0  0  0  0  0  0  0
   46.6580    7.4510   44.1200 H   0  0  0  0  0  0  0  0  0  0  0  0
   46.7640    7.6110   42.3140 H   0  0  0  0  0  0  0  0  0  0  0  0
   50.0520    3.5420   45.3710 H   0  0  0  0  0  0  0  0  0  0  0  0
   50.7340    1.4520   44.3750 H   0  0  0  0  0  0  0  0  0  0  0  0
   49.8040    0.7340   42.2250 H   0  0  0  0  0  0  0  0  0  0  0  0
   48.1200    2.1750   41.0250 H   0  0  0  0  0  0  0  0  0  0  0  0
   40.4400    9.6690   47.1890 H   0  0  0  0  0  0  0  0  0  0  0  0
   39.2430   11.8720   46.9660 H   0  0  0  0  0  0  0  0  0  0  0  0
  1  2  1  0  0  0  0
  2 28  2  0  0  0  0
  3  4  1  0  0  0  0
  3  2  1  0  0  0  0
  4  5  1  0  0  0  0
  5  6  1  0  0  0  0
  5 27  2  0  0  0  0
  7 11  1  0  0  0  0
  7  6  2  0  0  0  0
  8  7  1  0  0  0  0
  9  8  1  0  0  0  0
  9  4  1  0  0  0  0
 10  9  2  0  0  0  0
 11 31  1  0  0  0  0
 12 11  1  0  0  0  0
 13 15  1  0  0  0  0
 13 12  1  0  0  0  0
 14 13  2  0  0  0  0
 15 16  1  0  0  0  0
 15 33  1  0  0  0  0
 16 25  1  0  0  0  0
 17 19  1  0  0  0  0
 17 16  1  0  0  0  0
 18 17  2  0  0  0  0
 19 20  1  0  0  0  0
 20 25  1  0  0  0  0
 20 21  2  0  0  0  0
 21 35  1  0  0  0  0
 22 36  1  0  0  0  0
 22 21  1  0  0  0  0
 23 22  2  0  0  0  0
 24 19  2  0  0  0  0
 24 23  1  0  0  0  0
 25 26  2  0  0  0  0
 27 39  1  0  0  0  0
 28 27  1  0  0  0  0
 28 40  1  0  0  0  0
 29  3  1  0  0  0  0
 30  8  1  0  0  0  0
 32 11  1  0  0  0  0
 34 15  1  0  0  0  0
 37 23  1  0  0  0  0
 38 24  1  0  0  0  0
M  END
>  <Pose>
1

>  <Score>
-6.31

$$$$
