
 OpenBabel03172210433D

 45 48  0  0  0  0  0  0  0  0999 V2000
   51.4700    0.7010   43.2570 B   0  0  0  0  0  0  0  0  0  0  0  0
   50.3210    2.1480   43.7450 C   0  0  0  0  0  0  0  0  0  0  0  0
   49.3930    2.6010   42.8330 C   0  0  0  0  0  0  0  0  0  0  0  0
   48.5840    3.6180   43.1720 N   0  0  0  0  0  0  0  0  0  0  0  0
   48.6540    4.2070   44.3840 C   0  0  0  0  0  0  0  0  0  0  0  0
   47.8280    5.2320   44.7060 N   0  0  0  0  0  0  0  0  0  0  0  0
   46.9090    5.7070   43.8470 C   0  0  0  0  0  0  0  0  0  0  0  0
   46.8220    5.1180   42.6070 C   0  0  0  0  0  0  0  0  0  0  0  0
   47.6750    4.0600   42.2750 C   0  0  0  0  0  0  0  0  0  0  0  0
   47.6040    3.5220   41.1580 O   0  0  0  0  0  0  0  0  0  0  0  0
   46.0090    6.8300   44.2120 C   0  0  0  0  0  0  0  0  0  0  0  0
   44.7060    6.5360   43.7450 O   0  0  0  0  0  0  0  0  0  0  0  0
   43.5790    6.7220   44.5090 C   0  0  0  0  0  0  0  0  0  0  0  0
   43.7150    6.8370   45.7540 O   0  0  0  0  0  0  0  0  0  0  0  0
   42.1970    6.7980   43.9660 C   0  0  0  0  0  0  0  0  0  0  0  0
   41.8560    8.1140   43.5130 N   0  0  0  0  0  0  0  0  0  0  0  0
   41.6050    8.5090   42.1650 C   0  0  0  0  0  0  0  0  0  0  0  0
   41.6480    7.7380   41.1630 O   0  0  0  0  0  0  0  0  0  0  0  0
   41.3030    9.9000   42.1620 N   0  0  0  0  0  0  0  0  0  0  0  0
   41.5190   10.4260   43.4860 C   0  0  0  0  0  0  0  0  0  0  0  0
   42.7330   11.3120   43.5740 C   0  0  0  0  0  0  0  0  0  0  0  0
   42.4910   12.1020   44.8210 C   0  0  0  0  0  0  0  0  0  0  0  0
   41.0440   11.9550   45.1890 C   0  0  0  0  0  0  0  0  0  0  0  0
   40.4210   11.3110   43.9700 C   0  0  0  0  0  0  0  0  0  0  0  0
   41.7110    9.2630   44.3500 C   0  0  0  0  0  0  0  0  0  0  0  0
   41.7490    9.2190   45.6020 O   0  0  0  0  0  0  0  0  0  0  0  0
   49.5820    3.7580   45.3020 C   0  0  0  0  0  0  0  0  0  0  0  0
   50.4350    2.7190   45.0030 C   0  0  0  0  0  0  0  0  0  0  0  0
   49.2990    2.1590   41.8480 H   0  0  0  0  0  0  0  0  0  0  0  0
   46.0900    5.4810   41.8970 H   0  0  0  0  0  0  0  0  0  0  0  0
   45.9770    6.9290   45.3130 H   0  0  0  0  0  0  0  0  0  0  0  0
   46.3880    7.7740   43.7590 H   0  0  0  0  0  0  0  0  0  0  0  0
   42.0590    6.0300   43.1720 H   0  0  0  0  0  0  0  0  0  0  0  0
   41.5220    6.4880   44.8070 H   0  0  0  0  0  0  0  0  0  0  0  0
   40.9820   10.4180   41.3260 H   0  0  0  0  0  0  0  0  0  0  0  0
   43.6210   10.6340   43.7290 H   0  0  0  0  0  0  0  0  0  0  0  0
   42.8990   11.9300   42.6890 H   0  0  0  0  0  0  0  0  0  0  0  0
   42.6740   13.1900   44.5920 H   0  0  0  0  0  0  0  0  0  0  0  0
   43.1790   11.7750   45.6340 H   0  0  0  0  0  0  0  0  0  0  0  0
   40.5680   12.9380   45.4030 H   0  0  0  0  0  0  0  0  0  0  0  0
   40.8840   11.3280   46.1020 H   0  0  0  0  0  0  0  0  0  0  0  0
   39.4830   10.7790   44.2230 H   0  0  0  0  0  0  0  0  0  0  0  0
   40.2120   12.1180   43.2290 H   0  0  0  0  0  0  0  0  0  0  0  0
   49.6160    4.2480   46.2620 H   0  0  0  0  0  0  0  0  0  0  0  0
   51.1670    2.3530   45.7080 H   0  0  0  0  0  0  0  0  0  0  0  0
  1  2  1  0  0  0  0
  2 28  2  0  0  0  0
  3  4  1  0  0  0  0
  3  2  1  0  0  0  0
  4  5  1  0  0  0  0
  5  6  1  0  0  0  0
  5 27  2  0  0  0  0
  7 11  1  0  0  0  0
  7  6  2  0  0  0  0
  8  7  1  0  0  0  0
  9  8  1  0  0  0  0
  9  4  1  0  0  0  0
 10  9  2  0  0  0  0
 11 31  1  0  0  0  0
 12 11  1  0  0  0  0
 12 13  1  0  0  0  0
 13 14  2  0  0  0  0
 15 13  1  0  0  0  0
 15 34  1  0  0  0  0
 16 15  1  0  0  0  0
 16 25  1  0  0  0  0
 17 16  1  0  0  0  0
 18 17  2  0  0  0  0
 19 17  1  0  0  0  0
 19 20  1  0  0  0  0
 20 21  1  0  0  0  0
 20 24  1  0  0  0  0
 20 25  1  0  0  0  0
 21 36  1  0  0  0  0
 21 22  1  0  0  0  0
 22 23  1  0  0  0  0
 22 39  1  0  0  0  0
 23 40  1  0  0  0  0
 23 41  1  0  0  0  0
 24 42  1  0  0  0  0
 24 23  1  0  0  0  0
 25 26  2  0  0  0  0
 27 44  1  0  0  0  0
 28 27  1  0  0  0  0
 28 45  1  0  0  0  0
 29  3  1  0  0  0  0
 30  8  1  0  0  0  0
 32 11  1  0  0  0  0
 33 15  1  0  0  0  0
 35 19  1  0  0  0  0
 37 21  1  0  0  0  0
 38 22  1  0  0  0  0
 43 24  1  0  0  0  0
M  END
>  <Pose>
1

>  <Score>
-6.07

$$$$
