
 OpenBabel03172210433D

 47 50  0  0  0  0  0  0  0  0999 V2000
   44.0690    6.8990   41.3920 B   0  0  0  0  0  0  0  0  0  0  0  0
   45.4340    6.5470   42.6650 C   0  0  0  0  0  0  0  0  0  0  0  0
   46.3010    5.5160   42.5610 C   0  0  0  0  0  0  0  0  0  0  0  0
   47.3170    5.3130   43.4060 N   0  0  0  0  0  0  0  0  0  0  0  0
   47.4870    6.1740   44.4090 C   0  0  0  0  0  0  0  0  0  0  0  0
   48.5110    5.9830   45.2870 N   0  0  0  0  0  0  0  0  0  0  0  0
   49.3620    4.9700   45.1990 C   0  0  0  0  0  0  0  0  0  0  0  0
   49.2070    4.0670   44.1710 C   0  0  0  0  0  0  0  0  0  0  0  0
   50.0570    2.9880   44.0310 C   0  0  0  0  0  0  0  0  0  0  0  0
   51.1110    2.7520   44.9130 C   0  0  0  0  0  0  0  0  0  0  0  0
   51.2560    3.6610   45.9380 C   0  0  0  0  0  0  0  0  0  0  0  0
   50.4070    4.7450   46.0830 C   0  0  0  0  0  0  0  0  0  0  0  0
   48.1580    4.2800   43.2850 C   0  0  0  0  0  0  0  0  0  0  0  0
   48.0060    3.4670   42.3470 O   0  0  0  0  0  0  0  0  0  0  0  0
   46.6310    7.2140   44.5360 N   0  0  0  0  0  0  0  0  0  0  0  0
   45.6030    7.4800   43.7420 C   0  0  0  0  0  0  0  0  0  0  0  0
   44.6460    8.4370   43.8680 N   0  0  0  0  0  0  0  0  0  0  0  0
   43.7030    9.3800   43.9930 C   0  0  0  0  0  0  0  0  0  0  0  0
   42.5450    9.1040   44.7310 C   0  0  0  0  0  0  0  0  0  0  0  0
   41.4760    9.9380   44.6820 C   0  0  0  0  0  0  0  0  0  0  0  0
   41.5130   11.0730   43.9090 C   0  0  0  0  0  0  0  0  0  0  0  0
   42.6240   11.4040   43.1650 C   0  0  0  0  0  0  0  0  0  0  0  0
   43.6930   10.5420   43.2300 C   0  0  0  0  0  0  0  0  0  0  0  0
   42.4870    7.9990   45.6960 C   0  0  0  0  0  0  0  0  0  0  0  0
   42.3330    6.8370   45.2420 O   0  0  0  0  0  0  0  0  0  0  0  0
   42.5810    8.1230   47.0510 O   0  0  0  0  0  0  0  0  0  0  0  0
   41.5010    7.8500   47.9240 C   0  0  0  0  0  0  0  0  0  0  0  0
   41.9730    7.8930   49.3800 C   0  0  0  0  0  0  0  0  0  0  0  0
   41.8030    6.5200   49.9840 C   0  0  0  0  0  0  0  0  0  0  0  0
   46.1810    4.8000   41.7490 H   0  0  0  0  0  0  0  0  0  0  0  0
   49.8840    2.3250   43.2100 H   0  0  0  0  0  0  0  0  0  0  0  0
   51.7680    1.8960   44.7840 H   0  0  0  0  0  0  0  0  0  0  0  0
   52.0680    3.5080   46.6460 H   0  0  0  0  0  0  0  0  0  0  0  0
   50.5080    5.4630   46.8810 H   0  0  0  0  0  0  0  0  0  0  0  0
   46.8770    7.8290   45.3790 H   0  0  0  0  0  0  0  0  0  0  0  0
   45.5040    9.2760   44.5220 H   0  0  0  0  0  0  0  0  0  0  0  0
   40.5480    9.7530   45.2460 H   0  0  0  0  0  0  0  0  0  0  0  0
   40.6420   11.7120   43.8870 H   0  0  0  0  0  0  0  0  0  0  0  0
   42.5910   12.3090   42.5800 H   0  0  0  0  0  0  0  0  0  0  0  0
   44.5530   10.8210   42.6340 H   0  0  0  0  0  0  0  0  0  0  0  0
   40.6710    8.5740   47.8560 H   0  0  0  0  0  0  0  0  0  0  0  0
   41.0800    6.8350   47.7520 H   0  0  0  0  0  0  0  0  0  0  0  0
   43.0420    8.1730   49.4430 H   0  0  0  0  0  0  0  0  0  0  0  0
   41.3430    8.6020   49.9680 H   0  0  0  0  0  0  0  0  0  0  0  0
   40.8620    6.4730   50.5610 H   0  0  0  0  0  0  0  0  0  0  0  0
   41.7610    5.7330   49.1840 H   0  0  0  0  0  0  0  0  0  0  0  0
   42.6300    6.2960   50.6890 H   0  0  0  0  0  0  0  0  0  0  0  0
  1  2  1  0  0  0  0
  2 16  2  0  0  0  0
  3  2  1  0  0  0  0
  3  4  1  0  0  0  0
  4  5  1  0  0  0  0
  5 15  1  0  0  0  0
  5  6  2  0  0  0  0
  7  6  1  0  0  0  0
  7 12  1  0  0  0  0
  8  7  2  0  0  0  0
  9  8  1  0  0  0  0
  9 10  2  0  0  0  0
 10 11  1  0  0  0  0
 11 12  2  0  0  0  0
 11 33  1  0  0  0  0
 12 34  1  0  0  0  0
 13  4  1  0  0  0  0
 13  8  1  0  0  0  0
 14 13  2  0  0  0  0
 15 35  1  0  0  0  0
 16 17  1  0  0  0  0
 16 15  1  0  0  0  0
 17 18  1  0  0  0  0
 17 36  1  0  0  0  0
 18 19  1  0  0  0  0
 19 24  1  0  0  0  0
 20 19  2  0  0  0  0
 20 37  1  0  0  0  0
 21 20  1  0  0  0  0
 22 23  1  0  0  0  0
 22 21  2  0  0  0  0
 23 18  2  0  0  0  0
 24 26  1  0  0  0  0
 25 24  2  0  0  0  0
 26 27  1  0  0  0  0
 27 28  1  0  0  0  0
 28 43  1  0  0  0  0
 28 44  1  0  0  0  0
 28 29  1  0  0  0  0
 29 45  1  0  0  0  0
 29 47  1  0  0  0  0
 30  3  1  0  0  0  0
 31  9  1  0  0  0  0
 32 10  1  0  0  0  0
 38 21  1  0  0  0  0
 39 22  1  0  0  0  0
 40 23  1  0  0  0  0
 41 27  1  0  0  0  0
 42 27  1  0  0  0  0
 46 29  1  0  0  0  0
M  END
>  <Pose>
1

>  <Score>
-6.55

$$$$
