
 OpenBabel03172210433D

 53 56  0  0  1  0  0  0  0  0999 V2000
   44.3900   14.9630   46.9360 B   0  0  0  0  0  0  0  0  0  0  0  0
   43.4520   13.6190   45.9860 C   0  0  0  0  0  0  0  0  0  0  0  0
   42.0700   13.6280   45.9840 C   0  0  0  0  0  0  0  0  0  0  0  0
   41.3690   12.6620   45.2930 C   0  0  0  0  0  0  0  0  0  0  0  0
   42.0300   11.6780   44.5970 C   0  0  0  0  0  0  0  0  0  0  0  0
   43.3920   11.6720   44.6010 C   0  0  0  0  0  0  0  0  0  0  0  0
   44.1250   12.6430   45.2960 C   0  0  0  0  0  0  0  0  0  0  0  0
   41.3160   10.6090   43.8420 C   0  0  2  0  0  0  0  0  0  0  0  0
   41.0680    9.4500   44.6970 N   0  0  0  0  0  4  0  0  0  0  0  0
   42.0180    8.4870   44.4590 C   0  0  0  0  0  0  0  0  0  0  0  0
   42.0070    7.2090   44.7450 C   0  0  0  0  0  0  0  0  0  0  0  0
   42.9700    6.0880   44.5440 C   0  0  0  0  0  0  0  0  0  0  0  0
   44.1530    6.4400   43.6970 C   0  0  0  0  0  0  0  0  0  0  0  0
   44.9180    7.6110   44.2680 C   0  0  0  0  0  0  0  0  0  0  0  0
   44.4770    8.8950   43.5940 C   0  0  0  0  0  0  0  0  0  0  0  0
   43.0680    9.1060   43.6800 N   0  0  0  0  0  0  0  0  0  0  0  0
   42.4120   10.1190   42.8420 C   0  0  0  0  0  0  0  0  0  0  0  0
   40.5030    9.7100   45.9170 C   0  0  0  0  0  0  0  0  0  0  0  0
   40.9050    9.1840   47.1080 C   0  0  0  0  0  0  0  0  0  0  0  0
   40.1810    9.3480   48.3010 C   0  0  0  0  0  0  0  0  0  0  0  0
   39.0120   10.0620   48.3180 C   0  0  0  0  0  0  0  0  0  0  0  0
   38.5960   10.6040   47.1100 C   0  0  0  0  0  0  0  0  0  0  0  0
   39.3090   10.4390   45.9420 C   0  0  0  0  0  0  0  0  0  0  0  0
   38.2780   10.2260   49.4810 O   0  0  0  0  0  0  0  0  0  0  0  0
   36.8750   10.2440   49.5600 C   0  0  0  0  0  0  0  0  0  0  0  0
   36.5220    9.4290   50.8200 C   0  0  0  0  0  0  0  0  0  0  0  0
   40.2510   10.9820   43.1170 O   0  0  0  0  0  0  0  0  0  0  0  0
   41.4960   14.3750   46.5070 H   0  0  0  0  0  0  0  0  0  0  0  0
   40.2770   12.7210   45.3220 H   0  0  0  0  0  0  0  0  0  0  0  0
   43.9190   10.9080   44.0640 H   0  0  0  0  0  0  0  0  0  0  0  0
   45.2080   12.6520   45.3020 H   0  0  0  0  0  0  0  0  0  0  0  0
   40.1790    9.0200   44.1270 H   0  0  0  0  0  0  0  0  0  0  0  0
   41.0920    6.8320   45.1950 H   0  0  0  0  0  0  0  0  0  0  0  0
   42.4430    5.2420   44.0700 H   0  0  0  0  0  0  0  0  0  0  0  0
   43.3740    5.8130   45.5550 H   0  0  0  0  0  0  0  0  0  0  0  0
   43.9270    6.5330   42.6420 H   0  0  0  0  0  0  0  0  0  0  0  0
   44.8550    5.5580   43.7840 H   0  0  0  0  0  0  0  0  0  0  0  0
   44.8250    7.6420   45.3470 H   0  0  0  0  0  0  0  0  0  0  0  0
   46.0140    7.4890   44.0110 H   0  0  0  0  0  0  0  0  0  0  0  0
   45.1180    9.7410   43.8840 H   0  0  0  0  0  0  0  0  0  0  0  0
   44.6990    8.7200   42.4960 H   0  0  0  0  0  0  0  0  0  0  0  0
   41.9770    9.6520   41.9630 H   0  0  0  0  0  0  0  0  0  0  0  0
   43.1210   10.9120   42.6340 H   0  0  0  0  0  0  0  0  0  0  0  0
   41.8210    8.6370   47.2110 H   0  0  0  0  0  0  0  0  0  0  0  0
   40.5570    8.8950   49.1980 H   0  0  0  0  0  0  0  0  0  0  0  0
   37.6730   11.1970   47.0420 H   0  0  0  0  0  0  0  0  0  0  0  0
   38.8940   10.8840   45.0250 H   0  0  0  0  0  0  0  0  0  0  0  0
   36.4200    9.7100   48.6610 H   0  0  0  0  0  0  0  0  0  0  0  0
   36.4620   11.2560   49.5690 H   0  0  0  0  0  0  0  0  0  0  0  0
   36.1790   10.1950   51.5390 H   0  0  0  0  0  0  0  0  0  0  0  0
   37.4200    8.9430   51.2390 H   0  0  0  0  0  0  0  0  0  0  0  0
   35.7850    8.6390   50.6150 H   0  0  0  0  0  0  0  0  0  0  0  0
   39.3670   10.6430   43.3220 H   0  0  0  0  0  0  0  0  0  0  0  0
  2  1  1  0  0  0  0
  3  2  1  0  0  0  0
  3 28  1  0  0  0  0
  4 29  1  0  0  0  0
  4  3  2  0  0  0  0
  5  6  2  0  0  0  0
  5  4  1  0  0  0  0
  6  7  1  0  0  0  0
  7 31  1  0  0  0  0
  7  2  2  0  0  0  0
  8 27  1  6  0  0  0
  8  5  1  0  0  0  0
  8  9  1  0  0  0  0
  9 18  1  0  0  0  0
 10  9  1  0  0  0  0
 10 11  2  0  0  0  0
 11 33  1  0  0  0  0
 12 11  1  0  0  0  0
 12 35  1  0  0  0  0
 13 37  1  0  0  0  0
 13 14  1  0  0  0  0
 13 12  1  0  0  0  0
 14 38  1  0  0  0  0
 15 16  1  0  0  0  0
 15 40  1  0  0  0  0
 15 14  1  0  0  0  0
 16 10  1  0  0  0  0
 17 16  1  0  0  0  0
 17  8  1  0  0  0  0
 18 23  2  0  0  0  0
 18 19  1  0  0  0  0
 19 44  1  0  0  0  0
 19 20  2  0  0  0  0
 20 21  1  0  0  0  0
 20 45  1  0  0  0  0
 21 24  1  0  0  0  0
 22 21  2  0  0  0  0
 23 22  1  0  0  0  0
 24 25  1  0  0  0  0
 25 49  1  0  0  0  0
 25 26  1  0  0  0  0
 26 51  1  0  0  0  0
 26 50  1  0  0  0  0
 27 53  1  0  0  0  0
 30  6  1  0  0  0  0
 32  9  1  0  0  0  0
 34 12  1  0  0  0  0
 36 13  1  0  0  0  0
 39 14  1  0  0  0  0
 41 15  1  0  0  0  0
 42 17  1  0  0  0  0
 43 17  1  0  0  0  0
 46 22  1  0  0  0  0
 47 23  1  0  0  0  0
 48 25  1  0  0  0  0
 52 26  1  0  0  0  0
M  END
>  <Pose>
1

>  <Score>
-4.91

$$$$
