
 OpenBabel03172210433D

 50 53  0  0  1  0  0  0  0  0999 V2000
   40.7730   10.5020   52.3170 B   0  0  0  0  0  0  0  0  0  0  0  0
   41.3720   10.1440   50.5360 C   0  0  0  0  0  0  0  0  0  0  0  0
   41.4360   11.1460   49.5910 C   0  0  0  0  0  0  0  0  0  0  0  0
   41.8700   10.8640   48.3020 C   0  0  0  0  0  0  0  0  0  0  0  0
   42.2450    9.6190   47.9210 C   0  0  0  0  0  0  0  0  0  0  0  0
   42.1820    8.5900   48.8840 C   0  0  0  0  0  0  0  0  0  0  0  0
   41.7520    8.8790   50.1530 C   0  0  0  0  0  0  0  0  0  0  0  0
   42.7170    9.1800   46.6090 C   0  0  2  0  0  0  0  0  0  0  0  0
   42.6810   10.1210   45.5360 N   0  0  0  0  0  0  0  0  0  0  0  0
   43.3470   11.3840   45.4500 C   0  0  0  0  0  0  0  0  0  0  0  0
   42.5570   12.5400   44.9730 C   0  0  0  0  0  0  0  0  0  0  0  0
   41.1480   12.2850   44.5750 C   0  0  0  0  0  0  0  0  0  0  0  0
   41.0500   11.5300   43.2490 C   0  0  0  0  0  0  0  0  0  0  0  0
   41.1450   10.0740   43.5800 C   0  0  0  0  0  0  0  0  0  0  0  0
   41.8320    9.4840   44.5430 C   0  0  0  0  0  0  0  0  0  0  0  0
   41.8350    8.0810   44.7760 N   0  0  0  0  0  4  0  0  0  0  0  0
   41.7570    8.0560   46.2060 C   0  0  0  0  0  0  0  0  0  0  0  0
   43.0220    7.5320   44.2670 C   0  0  0  0  0  0  0  0  0  0  0  0
   43.8890    8.3030   43.4700 C   0  0  0  0  0  0  0  0  0  0  0  0
   45.0510    7.7960   42.9560 C   0  0  0  0  0  0  0  0  0  0  0  0
   45.4250    6.4910   43.2020 C   0  0  0  0  0  0  0  0  0  0  0  0
   44.5960    5.7200   43.9760 C   0  0  0  0  0  0  0  0  0  0  0  0
   43.4240    6.2320   44.4930 C   0  0  0  0  0  0  0  0  0  0  0  0
   46.6220    5.9790   42.6680 O   0  0  0  0  0  0  0  0  0  0  0  0
   46.9790    4.6420   42.9020 C   0  0  0  0  0  0  0  0  0  0  0  0
   44.0070    8.6570   46.8200 O   0  0  0  0  0  0  0  0  0  0  0  0
   41.1530   12.1520   49.8200 H   0  0  0  0  0  0  0  0  0  0  0  0
   41.9130   11.6470   47.5620 H   0  0  0  0  0  0  0  0  0  0  0  0
   42.4700    7.5660   48.6410 H   0  0  0  0  0  0  0  0  0  0  0  0
   41.6970    8.1030   50.9050 H   0  0  0  0  0  0  0  0  0  0  0  0
   43.8320   11.5740   46.4530 H   0  0  0  0  0  0  0  0  0  0  0  0
   44.2590   11.3340   44.7690 H   0  0  0  0  0  0  0  0  0  0  0  0
   43.0380   13.1220   44.1470 H   0  0  0  0  0  0  0  0  0  0  0  0
   42.5060   13.2910   45.8200 H   0  0  0  0  0  0  0  0  0  0  0  0
   40.5550   11.7700   45.3630 H   0  0  0  0  0  0  0  0  0  0  0  0
   40.6530   13.2650   44.4010 H   0  0  0  0  0  0  0  0  0  0  0  0
   39.9980   11.7150   42.8840 H   0  0  0  0  0  0  0  0  0  0  0  0
   41.8190   11.8690   42.5620 H   0  0  0  0  0  0  0  0  0  0  0  0
   40.5700    9.4190   42.9360 H   0  0  0  0  0  0  0  0  0  0  0  0
   40.9780    7.6790   44.3180 H   0  0  0  0  0  0  0  0  0  0  0  0
   41.9570    7.1090   46.6860 H   0  0  0  0  0  0  0  0  0  0  0  0
   40.7240    8.3830   46.4900 H   0  0  0  0  0  0  0  0  0  0  0  0
   43.5670    9.3070   43.3010 H   0  0  0  0  0  0  0  0  0  0  0  0
   45.7090    8.4000   42.3450 H   0  0  0  0  0  0  0  0  0  0  0  0
   44.8940    4.6790   44.1760 H   0  0  0  0  0  0  0  0  0  0  0  0
   42.8000    5.5740   45.1090 H   0  0  0  0  0  0  0  0  0  0  0  0
   46.1490    3.9300   42.7230 H   0  0  0  0  0  0  0  0  0  0  0  0
   47.3540    4.5550   43.9470 H   0  0  0  0  0  0  0  0  0  0  0  0
   47.8020    4.3440   42.2300 H   0  0  0  0  0  0  0  0  0  0  0  0
   44.6070    9.2290   46.2760 H   0  0  0  0  0  0  0  0  0  0  0  0
  2  1  1  0  0  0  0
  3 27  1  0  0  0  0
  3  2  2  0  0  0  0
  4  3  1  0  0  0  0
  5  4  2  0  0  0  0
  5  6  1  0  0  0  0
  6  7  2  0  0  0  0
  7  2  1  0  0  0  0
  7 30  1  0  0  0  0
  8 26  1  1  0  0  0
  8  5  1  0  0  0  0
  9  8  1  0  0  0  0
 10  9  1  0  0  0  0
 10 31  1  0  0  0  0
 11 10  1  0  0  0  0
 11 34  1  0  0  0  0
 12 11  1  0  0  0  0
 12 35  1  0  0  0  0
 13 14  1  0  0  0  0
 13 12  1  0  0  0  0
 14 15  2  0  0  0  0
 15 16  1  0  0  0  0
 15  9  1  0  0  0  0
 16 17  1  0  0  0  0
 17 42  1  0  0  0  0
 17  8  1  0  0  0  0
 17 41  1  0  0  0  0
 18 23  1  0  0  0  0
 18 16  1  0  0  0  0
 19 18  2  0  0  0  0
 20 21  2  0  0  0  0
 20 19  1  0  0  0  0
 21 22  1  0  0  0  0
 22 45  1  0  0  0  0
 22 23  2  0  0  0  0
 23 46  1  0  0  0  0
 24 25  1  0  0  0  0
 24 21  1  0  0  0  0
 25 48  1  0  0  0  0
 28  4  1  0  0  0  0
 29  6  1  0  0  0  0
 32 10  1  0  0  0  0
 33 11  1  0  0  0  0
 36 12  1  0  0  0  0
 37 13  1  0  0  0  0
 38 13  1  0  0  0  0
 39 14  1  0  0  0  0
 40 16  1  0  0  0  0
 43 19  1  0  0  0  0
 44 20  1  0  0  0  0
 47 25  1  0  0  0  0
 49 25  1  0  0  0  0
 50 26  1  0  0  0  0
M  END
>  <Pose>
1

>  <Score>
-4.64

$$$$
