
 OpenBabel03172210433D

 47 50  0  0  1  0  0  0  0  0999 V2000
   40.6540    9.3310   51.7900 B   0  0  0  0  0  0  0  0  0  0  0  0
   41.3410    9.0270   50.0220 C   0  0  0  0  0  0  0  0  0  0  0  0
   40.5010    8.5330   49.0500 C   0  0  0  0  0  0  0  0  0  0  0  0
   41.0090    8.3220   47.7690 C   0  0  0  0  0  0  0  0  0  0  0  0
   42.3190    8.5880   47.4350 C   0  0  0  0  0  0  0  0  0  0  0  0
   43.1420    9.0840   48.4290 C   0  0  0  0  0  0  0  0  0  0  0  0
   42.6540    9.2990   49.7040 C   0  0  0  0  0  0  0  0  0  0  0  0
   42.7980    8.3320   46.0550 C   0  0  2  0  0  0  0  0  0  0  0  0
   42.0550    9.0600   45.0500 N   0  0  0  0  0  0  0  0  0  0  0  0
   41.3130   10.2990   44.9540 C   0  0  0  0  0  0  0  0  0  0  0  0
   41.4580   10.9500   43.5940 C   0  0  0  0  0  0  0  0  0  0  0  0
   40.9880    9.9840   42.5600 C   0  0  0  0  0  0  0  0  0  0  0  0
   41.6300    8.6620   42.7170 C   0  0  0  0  0  0  0  0  0  0  0  0
   42.1250    8.2410   43.8840 C   0  0  0  0  0  0  0  0  0  0  0  0
   42.7340    7.0020   44.1690 N   0  0  0  0  0  4  0  0  0  0  0  0
   42.5850    6.9060   45.6360 C   0  0  0  0  0  0  0  0  0  0  0  0
   44.0620    6.8430   43.7870 C   0  0  0  0  0  0  0  0  0  0  0  0
   44.7880    7.8110   43.1380 C   0  0  0  0  0  0  0  0  0  0  0  0
   46.1140    7.5770   42.7670 C   0  0  0  0  0  0  0  0  0  0  0  0
   46.7210    6.3780   43.0420 C   0  0  0  0  0  0  0  0  0  0  0  0
   46.0010    5.4020   43.6950 C   0  0  0  0  0  0  0  0  0  0  0  0
   44.6980    5.6380   44.0580 C   0  0  0  0  0  0  0  0  0  0  0  0
   44.2580    9.0460   42.8240 O   0  0  0  0  0  0  0  0  0  0  0  0
   44.9290    9.9270   41.9850 C   0  0  0  0  0  0  0  0  0  0  0  0
   44.1640    8.5940   46.0110 O   0  0  0  0  0  0  0  0  0  0  0  0
   39.4410    8.3020   49.2350 H   0  0  0  0  0  0  0  0  0  0  0  0
   40.3640    7.9280   46.9700 H   0  0  0  0  0  0  0  0  0  0  0  0
   44.1880    9.2940   48.1620 H   0  0  0  0  0  0  0  0  0  0  0  0
   43.3070    9.6890   50.4760 H   0  0  0  0  0  0  0  0  0  0  0  0
   40.2190   10.0420   45.0470 H   0  0  0  0  0  0  0  0  0  0  0  0
   41.5910   11.0000   45.7700 H   0  0  0  0  0  0  0  0  0  0  0  0
   42.4610   11.3740   43.4320 H   0  0  0  0  0  0  0  0  0  0  0  0
   40.7450   11.8170   43.5890 H   0  0  0  0  0  0  0  0  0  0  0  0
   41.0740   10.3790   41.5270 H   0  0  0  0  0  0  0  0  0  0  0  0
   39.8920    9.8100   42.7690 H   0  0  0  0  0  0  0  0  0  0  0  0
   41.6840    8.0380   41.8220 H   0  0  0  0  0  0  0  0  0  0  0  0
   42.1240    6.1880   43.8290 H   0  0  0  0  0  0  0  0  0  0  0  0
   41.5710    6.5990   45.8880 H   0  0  0  0  0  0  0  0  0  0  0  0
   43.3630    6.2250   46.0230 H   0  0  0  0  0  0  0  0  0  0  0  0
   46.7220    8.3070   42.2520 H   0  0  0  0  0  0  0  0  0  0  0  0
   47.7650    6.1500   42.7720 H   0  0  0  0  0  0  0  0  0  0  0  0
   46.4940    4.4640   43.9100 H   0  0  0  0  0  0  0  0  0  0  0  0
   44.1450    4.8780   44.5610 H   0  0  0  0  0  0  0  0  0  0  0  0
   46.0180   10.0580   42.1980 H   0  0  0  0  0  0  0  0  0  0  0  0
   44.5130   10.9860   42.0450 H   0  0  0  0  0  0  0  0  0  0  0  0
   44.8190    9.6130   40.9150 H   0  0  0  0  0  0  0  0  0  0  0  0
   44.2600    9.5560   45.8110 H   0  0  0  0  0  0  0  0  0  0  0  0
  2  1  1  0  0  0  0
  3 26  1  0  0  0  0
  3  2  2  0  0  0  0
  4  3  1  0  0  0  0
  5  4  2  0  0  0  0
  5  6  1  0  0  0  0
  6  7  2  0  0  0  0
  7  2  1  0  0  0  0
  7 29  1  0  0  0  0
  8 25  1  6  0  0  0
  8  5  1  0  0  0  0
  9  8  1  0  0  0  0
 10 30  1  0  0  0  0
 10  9  1  0  0  0  0
 10 31  1  0  0  0  0
 11 10  1  0  0  0  0
 12 13  1  0  0  0  0
 12 35  1  0  0  0  0
 12 11  1  0  0  0  0
 13 14  2  0  0  0  0
 14 15  1  0  0  0  0
 14  9  1  0  0  0  0
 15 16  1  0  0  0  0
 16 38  1  0  0  0  0
 16 39  1  0  0  0  0
 16  8  1  0  0  0  0
 17 22  1  0  0  0  0
 17 15  1  0  0  0  0
 18 17  2  0  0  0  0
 19 20  2  0  0  0  0
 19 18  1  0  0  0  0
 20 21  1  0  0  0  0
 21 42  1  0  0  0  0
 21 22  2  0  0  0  0
 22 43  1  0  0  0  0
 23 18  1  0  0  0  0
 24 45  1  0  0  0  0
 24 44  1  0  0  0  0
 24 23  1  0  0  0  0
 27  4  1  0  0  0  0
 28  6  1  0  0  0  0
 32 11  1  0  0  0  0
 33 11  1  0  0  0  0
 34 12  1  0  0  0  0
 36 13  1  0  0  0  0
 37 15  1  0  0  0  0
 40 19  1  0  0  0  0
 41 20  1  0  0  0  0
 46 24  1  0  0  0  0
 47 25  1  0  0  0  0
M  END
>  <Pose>
1

>  <Score>
-4.23

$$$$
