
 OpenBabel03172210433D

 56 59  0  0  1  0  0  0  0  0999 V2000
   50.9650    1.0790   43.4310 B   0  0  0  0  0  0  0  0  0  0  0  0
   49.8640    2.5980   43.7360 C   0  0  0  0  0  0  0  0  0  0  0  0
   50.1300    3.4530   44.8000 C   0  0  0  0  0  0  0  0  0  0  0  0
   49.3350    4.5460   45.0210 C   0  0  0  0  0  0  0  0  0  0  0  0
   48.2670    4.8060   44.1910 C   0  0  0  0  0  0  0  0  0  0  0  0
   48.0170    3.9470   43.1410 C   0  0  0  0  0  0  0  0  0  0  0  0
   48.7950    2.8410   42.8910 C   0  0  0  0  0  0  0  0  0  0  0  0
   47.4300    5.9460   44.4200 N   0  0  0  0  0  0  0  0  0  0  0  0
   47.2090    6.9690   43.4180 C   0  0  0  0  0  0  0  0  0  0  0  0
   45.8230    7.5350   43.4680 C   0  0  0  0  0  0  0  0  0  0  0  0
   44.6650    6.9440   43.8060 N   0  0  0  0  0  0  0  0  0  0  0  0
   43.6840    7.8600   43.7000 C   0  0  1  0  0  0  0  0  0  0  0  0
   44.2460    9.0440   43.2870 N   0  0  0  0  0  0  0  0  0  0  0  0
   45.5400    8.8060   43.1580 N   0  0  0  0  0  0  0  0  0  0  0  0
   43.6150   10.2680   42.9930 C   0  0  0  0  0  0  0  0  0  0  0  0
   42.9490   10.9720   44.0570 C   0  0  2  0  0  0  0  0  0  0  0  0
   43.8010   11.6310   44.8440 O   0  0  0  0  0  0  0  0  0  0  0  0
   41.5800   11.1250   44.4620 C   0  0  0  0  0  0  0  0  0  0  0  0
   40.9820   10.1880   45.3320 C   0  0  0  0  0  0  0  0  0  0  0  0
   39.6790   10.2820   45.7450 C   0  0  0  0  0  0  0  0  0  0  0  0
   38.8800   11.3130   45.3210 C   0  0  0  0  0  0  0  0  0  0  0  0
   39.4200   12.2440   44.4770 C   0  0  0  0  0  0  0  0  0  0  0  0
   40.7600   12.1340   44.0610 C   0  0  0  0  0  0  0  0  0  0  0  0
   37.5540   11.4080   45.7430 O   0  0  0  0  0  0  0  0  0  0  0  0
   36.5230   10.6420   45.1700 C   0  0  0  0  0  0  0  0  0  0  0  0
   42.2370    7.7970   43.9290 C   0  0  0  0  0  0  0  0  0  0  0  0
   41.8090    6.8650   45.0310 C   0  0  0  0  0  0  0  0  0  0  0  0
   42.1760    5.4380   44.7880 C   0  0  0  0  0  0  0  0  0  0  0  0
   43.5970    5.2560   45.2700 C   0  0  0  0  0  0  0  0  0  0  0  0
   44.6020    5.5730   44.1910 C   0  0  0  0  0  0  0  0  0  0  0  0
   50.9870    3.2080   45.4330 H   0  0  0  0  0  0  0  0  0  0  0  0
   49.5480    5.2000   45.8390 H   0  0  0  0  0  0  0  0  0  0  0  0
   47.1870    4.1470   42.4930 H   0  0  0  0  0  0  0  0  0  0  0  0
   48.6220    2.1530   42.0740 H   0  0  0  0  0  0  0  0  0  0  0  0
   46.9790    6.0070   45.3600 H   0  0  0  0  0  0  0  0  0  0  0  0
   47.9690    7.7940   43.5050 H   0  0  0  0  0  0  0  0  0  0  0  0
   47.3930    6.5210   42.4190 H   0  0  0  0  0  0  0  0  0  0  0  0
   42.9300   10.1630   42.0750 H   0  0  0  0  0  0  0  0  0  0  0  0
   44.3750   11.0260   42.5570 H   0  0  0  0  0  0  0  0  0  0  0  0
   41.6070    9.3720   45.6690 H   0  0  0  0  0  0  0  0  0  0  0  0
   39.2800    9.5260   46.4180 H   0  0  0  0  0  0  0  0  0  0  0  0
   38.8000   13.0650   44.1330 H   0  0  0  0  0  0  0  0  0  0  0  0
   41.0750   12.8960   43.4100 H   0  0  0  0  0  0  0  0  0  0  0  0
   36.5630   10.7450   44.0600 H   0  0  0  0  0  0  0  0  0  0  0  0
   35.5540   11.0680   45.5010 H   0  0  0  0  0  0  0  0  0  0  0  0
   36.5730    9.5770   45.4700 H   0  0  0  0  0  0  0  0  0  0  0  0
   41.6960    7.4930   43.0100 H   0  0  0  0  0  0  0  0  0  0  0  0
   41.8830    8.8050   44.2270 H   0  0  0  0  0  0  0  0  0  0  0  0
   40.6970    6.9210   45.0760 H   0  0  0  0  0  0  0  0  0  0  0  0
   42.1710    7.1880   46.0270 H   0  0  0  0  0  0  0  0  0  0  0  0
   41.5220    4.7810   45.4170 H   0  0  0  0  0  0  0  0  0  0  0  0
   42.1300    5.1540   43.7340 H   0  0  0  0  0  0  0  0  0  0  0  0
   43.7210    4.1820   45.5180 H   0  0  0  0  0  0  0  0  0  0  0  0
   43.8020    5.8200   46.2120 H   0  0  0  0  0  0  0  0  0  0  0  0
   44.3190    4.9620   43.3090 H   0  0  0  0  0  0  0  0  0  0  0  0
   45.5890    5.2800   44.6060 H   0  0  0  0  0  0  0  0  0  0  0  0
  1  2  1  0  0  0  0
  2  3  1  0  0  0  0
  3  4  2  0  0  0  0
  3 31  1  0  0  0  0
  4 32  1  0  0  0  0
  5  8  1  0  0  0  0
  5  4  1  0  0  0  0
  6  5  2  0  0  0  0
  7  6  1  0  0  0  0
  7  2  2  0  0  0  0
  8 35  1  0  0  0  0
  9 10  1  0  0  0  0
  9 36  1  0  0  0  0
  9  8  1  0  0  0  0
 10 11  1  0  0  0  0
 11 30  1  0  0  0  0
 12 13  1  6  0  0  0
 12 11  1  0  0  0  0
 12 26  1  0  0  0  0
 14 13  1  0  0  0  0
 14 10  2  0  0  0  0
 15 13  1  0  0  0  0
 15 16  1  0  0  0  0
 16 18  1  0  0  0  0
 16 17  1  1  0  0  0
 18 19  1  0  0  0  0
 19 40  1  0  0  0  0
 19 20  2  0  0  0  0
 20 41  1  0  0  0  0
 21 24  1  0  0  0  0
 21 20  1  0  0  0  0
 22 21  2  0  0  0  0
 23 18  2  0  0  0  0
 23 22  1  0  0  0  0
 25 46  1  0  0  0  0
 25 45  1  0  0  0  0
 25 24  1  0  0  0  0
 26 48  1  0  0  0  0
 26 27  1  0  0  0  0
 27 49  1  0  0  0  0
 27 50  1  0  0  0  0
 28 27  1  0  0  0  0
 28 29  1  0  0  0  0
 28 51  1  0  0  0  0
 29 53  1  0  0  0  0
 29 54  1  0  0  0  0
 30 56  1  0  0  0  0
 30 29  1  0  0  0  0
 33  6  1  0  0  0  0
 34  7  1  0  0  0  0
 37  9  1  0  0  0  0
 38 15  1  0  0  0  0
 39 15  1  0  0  0  0
 42 22  1  0  0  0  0
 43 23  1  0  0  0  0
 44 25  1  0  0  0  0
 47 26  1  0  0  0  0
 52 28  1  0  0  0  0
 55 30  1  0  0  0  0
M  END
>  <Pose>
1

>  <Score>
-5.77

$$$$
