
 OpenBabel03172210433D

 55 58  0  0  1  0  0  0  0  0999 V2000
   45.8510   13.1450   49.2700 B   0  0  0  0  0  0  0  0  0  0  0  0
   44.6040   13.0280   47.8210 C   0  0  0  0  0  0  0  0  0  0  0  0
   43.8620   11.8850   47.5960 C   0  0  0  0  0  0  0  0  0  0  0  0
   42.9670   11.8050   46.5530 C   0  0  0  0  0  0  0  0  0  0  0  0
   42.8510   12.9180   45.7460 C   0  0  0  0  0  0  0  0  0  0  0  0
   43.5910   14.0630   45.9650 C   0  0  0  0  0  0  0  0  0  0  0  0
   44.4850   14.1380   47.0110 C   0  0  0  0  0  0  0  0  0  0  0  0
   45.2790   15.3800   47.2400 C   0  0  0  0  0  0  0  0  0  0  0  0
   41.9400   12.8130   44.6970 O   0  0  0  0  0  0  0  0  0  0  0  0
   41.4050   11.6140   44.2460 C   0  0  0  0  0  0  0  0  0  0  0  0
   41.2120   10.5630   45.2870 C   0  0  2  0  0  0  0  0  0  0  0  0
   42.2180   10.5560   46.3830 C   0  0  2  0  0  0  0  0  0  0  0  0
   41.6050   10.2770   47.6290 O   0  0  0  0  0  0  0  0  0  0  0  0
   41.3520    9.2840   44.5810 N   0  0  0  0  0  4  0  0  0  0  0  0
   42.0560    8.3010   45.3290 C   0  0  0  0  0  0  0  0  0  0  0  0
   41.7860    6.9580   44.6320 C   0  0  0  0  0  0  0  0  0  0  0  0
   42.3560    7.0520   43.3740 O   0  0  0  0  0  0  0  0  0  0  0  0
   41.8100    8.0670   42.5970 C   0  0  0  0  0  0  0  0  0  0  0  0
   41.9580    9.4280   43.2920 C   0  0  0  0  0  0  0  0  0  0  0  0
   39.8170   10.5730   45.8780 C   0  0  0  0  0  0  0  0  0  0  0  0
   38.7850   10.8250   44.9200 N   0  0  0  0  0  4  0  0  0  0  0  0
   37.5810   10.0550   45.1760 C   0  0  0  0  0  0  0  0  0  0  0  0
   36.3270   10.9040   45.0370 C   0  0  0  0  0  0  0  0  0  0  0  0
   36.2770   11.9280   45.9680 O   0  0  0  0  0  0  0  0  0  0  0  0
   37.5480   12.4270   46.2410 C   0  0  0  0  0  0  0  0  0  0  0  0
   38.3720   12.2370   44.9840 C   0  0  0  0  0  0  0  0  0  0  0  0
   43.9910   11.0280   48.2650 H   0  0  0  0  0  0  0  0  0  0  0  0
   43.4810   14.9220   45.3190 H   0  0  0  0  0  0  0  0  0  0  0  0
   46.1760   15.3980   46.5830 H   0  0  0  0  0  0  0  0  0  0  0  0
   44.6930   16.2880   47.0240 H   0  0  0  0  0  0  0  0  0  0  0  0
   45.6500   15.3650   48.2860 H   0  0  0  0  0  0  0  0  0  0  0  0
   40.4440   11.8360   43.7320 H   0  0  0  0  0  0  0  0  0  0  0  0
   42.0840   11.2430   43.4210 H   0  0  0  0  0  0  0  0  0  0  0  0
   42.9760    9.7250   46.2690 H   0  0  0  0  0  0  0  0  0  0  0  0
   41.3800    9.3290   47.7270 H   0  0  0  0  0  0  0  0  0  0  0  0
   40.3740    8.9450   44.4330 H   0  0  0  0  0  0  0  0  0  0  0  0
   41.7510    8.1750   46.3650 H   0  0  0  0  0  0  0  0  0  0  0  0
   43.1690    8.4470   45.2210 H   0  0  0  0  0  0  0  0  0  0  0  0
   42.2990    6.1840   45.1990 H   0  0  0  0  0  0  0  0  0  0  0  0
   40.6870    6.8550   44.6040 H   0  0  0  0  0  0  0  0  0  0  0  0
   42.3180    8.0500   41.6230 H   0  0  0  0  0  0  0  0  0  0  0  0
   40.7180    7.8750   42.5410 H   0  0  0  0  0  0  0  0  0  0  0  0
   43.0500    9.6130   43.3270 H   0  0  0  0  0  0  0  0  0  0  0  0
   41.4600   10.1670   42.6370 H   0  0  0  0  0  0  0  0  0  0  0  0
   39.5730    9.6520   46.4290 H   0  0  0  0  0  0  0  0  0  0  0  0
   39.7980   11.4040   46.6410 H   0  0  0  0  0  0  0  0  0  0  0  0
   39.0430   10.6600   43.9350 H   0  0  0  0  0  0  0  0  0  0  0  0
   37.6030    9.7150   46.2360 H   0  0  0  0  0  0  0  0  0  0  0  0
   37.4550    9.2080   44.4700 H   0  0  0  0  0  0  0  0  0  0  0  0
   36.1440   11.2280   44.0020 H   0  0  0  0  0  0  0  0  0  0  0  0
   35.4770   10.2130   45.2920 H   0  0  0  0  0  0  0  0  0  0  0  0
   37.9520   11.8300   47.0860 H   0  0  0  0  0  0  0  0  0  0  0  0
   37.4400   13.4920   46.5010 H   0  0  0  0  0  0  0  0  0  0  0  0
   37.7640   12.4650   44.0840 H   0  0  0  0  0  0  0  0  0  0  0  0
   39.2540   12.9110   44.9500 H   0  0  0  0  0  0  0  0  0  0  0  0
  2  1  1  0  0  0  0
  3  2  1  0  0  0  0
  3 27  1  0  0  0  0
  4  3  2  0  0  0  0
  5  6  2  0  0  0  0
  5  4  1  0  0  0  0
  6  7  1  0  0  0  0
  7  8  1  0  0  0  0
  7  2  2  0  0  0  0
  8 31  1  0  0  0  0
  9  5  1  0  0  0  0
 10  9  1  0  0  0  0
 10 11  1  0  0  0  0
 11 20  1  1  0  0  0
 11 12  1  0  0  0  0
 12 34  1  6  0  0  0
 12  4  1  0  0  0  0
 12 13  1  0  0  0  0
 13 35  1  0  0  0  0
 14 11  1  0  0  0  0
 14 15  1  0  0  0  0
 15 37  1  0  0  0  0
 16 39  1  0  0  0  0
 16 15  1  0  0  0  0
 17 16  1  0  0  0  0
 18 19  1  0  0  0  0
 18 17  1  0  0  0  0
 19 43  1  0  0  0  0
 19 14  1  0  0  0  0
 20 45  1  0  0  0  0
 20 46  1  0  0  0  0
 21 26  1  0  0  0  0
 21 22  1  0  0  0  0
 21 20  1  0  0  0  0
 22 48  1  0  0  0  0
 23 22  1  0  0  0  0
 23 51  1  0  0  0  0
 23 24  1  0  0  0  0
 24 25  1  0  0  0  0
 25 53  1  0  0  0  0
 25 52  1  0  0  0  0
 26 25  1  0  0  0  0
 28  6  1  0  0  0  0
 29  8  1  0  0  0  0
 30  8  1  0  0  0  0
 32 10  1  0  0  0  0
 33 10  1  0  0  0  0
 36 14  1  0  0  0  0
 38 15  1  0  0  0  0
 40 16  1  0  0  0  0
 41 18  1  0  0  0  0
 42 18  1  0  0  0  0
 44 19  1  0  0  0  0
 47 21  1  0  0  0  0
 49 22  1  0  0  0  0
 50 23  1  0  0  0  0
 54 26  1  0  0  0  0
 55 26  1  0  0  0  0
M  END
>  <Pose>
1

>  <Score>
-3.98

$$$$
