
 OpenBabel03172210433D

 60 63  0  0  0  0  0  0  0  0999 V2000
   45.4300   14.0430   46.4290 B   0  0  0  0  0  0  0  0  0  0  0  0
   43.5530   14.1710   46.2790 C   0  0  0  0  0  0  0  0  0  0  0  0
   42.8930   13.1780   45.5980 C   0  0  0  0  0  0  0  0  0  0  0  0
   41.4980   13.1650   45.4210 C   0  0  0  0  0  0  0  0  0  0  0  0
   40.7460   14.2140   45.9650 C   0  0  0  0  0  0  0  0  0  0  0  0
   41.4210   15.2020   46.6450 C   0  0  0  0  0  0  0  0  0  0  0  0
   42.7950   15.1960   46.8070 C   0  0  0  0  0  0  0  0  0  0  0  0
   43.5030   16.2910   47.5540 C   0  0  0  0  0  0  0  0  0  0  0  0
   40.3960   16.6280   47.3860 B   0  0  0  0  0  0  0  0  0  0  0  0
   40.8560   12.0930   44.6850 C   0  0  0  0  0  0  0  0  0  0  0  0
   39.8170   12.3980   44.0480 O   0  0  0  0  0  0  0  0  0  0  0  0
   41.4800   10.7580   44.7540 C   0  0  0  0  0  0  0  0  0  0  0  0
   42.9440   11.1210   44.2370 C   0  0  0  0  0  0  0  0  0  0  0  0
   43.5320   12.0970   45.0190 O   0  0  0  0  0  0  0  0  0  0  0  0
   40.9860    9.7480   43.8390 C   0  0  0  0  0  0  0  0  0  0  0  0
   41.3890    8.4300   43.6970 N   0  0  0  0  0  4  0  0  0  0  0  0
   41.9070    7.6650   44.7630 C   0  0  0  0  0  0  0  0  0  0  0  0
   42.8700    6.5710   44.3210 C   0  0  0  0  0  0  0  0  0  0  0  0
   44.1200    7.1350   43.7270 C   0  0  0  0  0  0  0  0  0  0  0  0
   43.7670    8.3960   43.0000 C   0  0  0  0  0  0  0  0  0  0  0  0
   42.3390    8.3360   42.5670 C   0  0  0  0  0  0  0  0  0  0  0  0
   41.6110   10.3320   46.1670 C   0  0  0  0  0  0  0  0  0  0  0  0
   40.5450    9.7150   46.8370 N   0  0  0  0  0  4  0  0  0  0  0  0
   41.0910    8.9650   47.9760 C   0  0  0  0  0  0  0  0  0  0  0  0
   40.0670    8.0300   48.5870 C   0  0  0  0  0  0  0  0  0  0  0  0
   38.9750    8.9400   49.1720 C   0  0  0  0  0  0  0  0  0  0  0  0
   38.4300    9.6850   47.9750 C   0  0  0  0  0  0  0  0  0  0  0  0
   39.5540   10.5900   47.4410 C   0  0  0  0  0  0  0  0  0  0  0  0
   39.6840   14.2000   45.8260 H   0  0  0  0  0  0  0  0  0  0  0  0
   43.2340   16.1380   48.6310 H   0  0  0  0  0  0  0  0  0  0  0  0
   44.5760   16.2290   47.3720 H   0  0  0  0  0  0  0  0  0  0  0  0
   43.0390   17.2450   47.2360 H   0  0  0  0  0  0  0  0  0  0  0  0
   42.7450   11.5370   43.2290 H   0  0  0  0  0  0  0  0  0  0  0  0
   43.5070   10.2030   44.1340 H   0  0  0  0  0  0  0  0  0  0  0  0
   40.9770   10.1880   42.7760 H   0  0  0  0  0  0  0  0  0  0  0  0
   39.8380    9.7110   44.0090 H   0  0  0  0  0  0  0  0  0  0  0  0
   40.5750    7.8110   43.2790 H   0  0  0  0  0  0  0  0  0  0  0  0
   41.0680    7.1670   45.3110 H   0  0  0  0  0  0  0  0  0  0  0  0
   42.4680    8.2150   45.5230 H   0  0  0  0  0  0  0  0  0  0  0  0
   42.3540    5.9650   43.5600 H   0  0  0  0  0  0  0  0  0  0  0  0
   43.1440    5.9170   45.1540 H   0  0  0  0  0  0  0  0  0  0  0  0
   44.6610    6.4460   43.0660 H   0  0  0  0  0  0  0  0  0  0  0  0
   44.7850    7.3910   44.6060 H   0  0  0  0  0  0  0  0  0  0  0  0
   44.3760    8.4300   42.0710 H   0  0  0  0  0  0  0  0  0  0  0  0
   44.0270    9.3200   43.5500 H   0  0  0  0  0  0  0  0  0  0  0  0
   42.0700    9.0970   41.7840 H   0  0  0  0  0  0  0  0  0  0  0  0
   42.1870    7.3480   42.1020 H   0  0  0  0  0  0  0  0  0  0  0  0
   42.0160   11.1650   46.8000 H   0  0  0  0  0  0  0  0  0  0  0  0
   42.5010    9.5830   46.2590 H   0  0  0  0  0  0  0  0  0  0  0  0
   39.9830    9.0030   46.3260 H   0  0  0  0  0  0  0  0  0  0  0  0
   41.3010    9.7350   48.7750 H   0  0  0  0  0  0  0  0  0  0  0  0
   42.0220    8.4590   47.7800 H   0  0  0  0  0  0  0  0  0  0  0  0
   39.6500    7.3660   47.8110 H   0  0  0  0  0  0  0  0  0  0  0  0
   40.5480    7.5080   49.4100 H   0  0  0  0  0  0  0  0  0  0  0  0
   38.2190    8.3610   49.7010 H   0  0  0  0  0  0  0  0  0  0  0  0
   39.4990    9.6920   49.8000 H   0  0  0  0  0  0  0  0  0  0  0  0
   38.2500    8.9440   47.1450 H   0  0  0  0  0  0  0  0  0  0  0  0
   37.5140   10.2460   48.1600 H   0  0  0  0  0  0  0  0  0  0  0  0
   39.0240   11.2480   46.7390 H   0  0  0  0  0  0  0  0  0  0  0  0
   39.9610   11.1180   48.3190 H   0  0  0  0  0  0  0  0  0  0  0  0
  2  1  1  0  0  0  0
  2  7  1  0  0  0  0
  3  2  2  0  0  0  0
  4  3  1  0  0  0  0
  4  5  2  0  0  0  0
  5  6  1  0  0  0  0
  6  7  2  0  0  0  0
  6  9  1  0  0  0  0
  7  8  1  0  0  0  0
  8 30  1  0  0  0  0
 10 12  1  0  0  0  0
 10  4  1  0  0  0  0
 11 10  2  0  0  0  0
 12 22  1  0  0  0  0
 13 12  1  0  0  0  0
 13 14  1  0  0  0  0
 14  3  1  0  0  0  0
 15 36  1  0  0  0  0
 15 12  1  0  0  0  0
 16 15  1  0  0  0  0
 16 17  1  0  0  0  0
 17 38  1  0  0  0  0
 17 39  1  0  0  0  0
 18 17  1  0  0  0  0
 18 41  1  0  0  0  0
 19 18  1  0  0  0  0
 19 43  1  0  0  0  0
 20 45  1  0  0  0  0
 20 19  1  0  0  0  0
 21 20  1  0  0  0  0
 21 16  1  0  0  0  0
 22 49  1  0  0  0  0
 22 48  1  0  0  0  0
 22 23  1  0  0  0  0
 23 28  1  0  0  0  0
 23 24  1  0  0  0  0
 24 25  1  0  0  0  0
 24 51  1  0  0  0  0
 25 26  1  0  0  0  0
 25 54  1  0  0  0  0
 26 55  1  0  0  0  0
 26 56  1  0  0  0  0
 27 58  1  0  0  0  0
 27 26  1  0  0  0  0
 28 27  1  0  0  0  0
 28 60  1  0  0  0  0
 29  5  1  0  0  0  0
 31  8  1  0  0  0  0
 32  8  1  0  0  0  0
 33 13  1  0  0  0  0
 34 13  1  0  0  0  0
 35 15  1  0  0  0  0
 37 16  1  0  0  0  0
 40 18  1  0  0  0  0
 42 19  1  0  0  0  0
 44 20  1  0  0  0  0
 46 21  1  0  0  0  0
 47 21  1  0  0  0  0
 50 23  1  0  0  0  0
 52 24  1  0  0  0  0
 53 25  1  0  0  0  0
 57 27  1  0  0  0  0
 59 28  1  0  0  0  0
M  END
>  <Pose>
1

>  <Score>
-5.01

$$$$
