
 OpenBabel03172210433D

 41 44  0  0  0  0  0  0  0  0999 V2000
   40.4790    9.6890   43.6530 F   0  0  0  0  0  0  0  0  0  0  0  0
   41.1070   10.2970   44.6980 C   0  0  0  0  0  0  0  0  0  0  0  0
   41.3770    9.5190   45.8360 C   0  0  0  0  0  0  0  0  0  0  0  0
   42.0030   10.1230   46.8820 C   0  0  0  0  0  0  0  0  0  0  0  0
   42.3880   11.4800   46.8680 C   0  0  0  0  0  0  0  0  0  0  0  0
   42.1060   12.2080   45.7340 C   0  0  0  0  0  0  0  0  0  0  0  0
   41.4710   11.6180   44.6610 C   0  0  0  0  0  0  0  0  0  0  0  0
   42.4490   13.5150   45.6580 F   0  0  0  0  0  0  0  0  0  0  0  0
   40.9870    8.1710   45.8320 N   0  0  0  0  0  0  0  0  0  0  0  0
   41.8020    7.1030   45.4670 C   0  0  0  0  0  0  0  0  0  0  0  0
   42.3470    6.3410   46.2720 O   0  0  0  0  0  0  0  0  0  0  0  0
   42.0570    6.8330   43.9970 C   0  0  0  0  0  0  0  0  0  0  0  0
   43.3040    7.4570   43.6130 N   0  0  0  0  0  0  0  0  0  0  0  0
   43.3990    8.7220   43.2460 N   0  0  0  0  0  0  0  0  0  0  0  0
   44.6760    8.9230   42.9680 N   0  0  0  0  0  0  0  0  0  0  0  0
   45.3970    7.7990   43.1540 C   0  0  0  0  0  0  0  0  0  0  0  0
   44.5140    6.8740   43.5640 C   0  0  0  0  0  0  0  0  0  0  0  0
   45.2640    5.7360   43.7490 C   0  0  0  0  0  0  0  0  0  0  0  0
   44.8020    4.6290   44.1370 O   0  0  0  0  0  0  0  0  0  0  0  0
   46.5660    5.9420   43.4660 N   0  0  0  0  0  0  0  0  0  0  0  0
   46.6560    7.2290   43.0930 C   0  0  0  0  0  0  0  0  0  0  0  0
   47.7170    7.8120   42.7470 O   0  0  0  0  0  0  0  0  0  0  0  0
   47.6100    4.9570   43.5570 C   0  0  0  0  0  0  0  0  0  0  0  0
   47.7380    3.9730   42.5970 C   0  0  0  0  0  0  0  0  0  0  0  0
   48.7230    3.0090   42.6440 C   0  0  0  0  0  0  0  0  0  0  0  0
   49.6010    3.0570   43.7090 C   0  0  0  0  0  0  0  0  0  0  0  0
   49.5220    4.0200   44.7020 C   0  0  0  0  0  0  0  0  0  0  0  0
   48.5120    4.9550   44.5940 C   0  0  0  0  0  0  0  0  0  0  0  0
   50.9650    1.7040   43.7540 B   0  0  0  0  0  0  0  0  0  0  0  0
   42.2450    9.6080   47.7820 H   0  0  0  0  0  0  0  0  0  0  0  0
   42.8830   11.9230   47.7180 H   0  0  0  0  0  0  0  0  0  0  0  0
   41.2510   12.2070   43.7620 H   0  0  0  0  0  0  0  0  0  0  0  0
   39.9850    7.9140   46.1310 H   0  0  0  0  0  0  0  0  0  0  0  0
   41.2250    7.2730   43.4000 H   0  0  0  0  0  0  0  0  0  0  0  0
   42.0340    5.7510   43.8570 H   0  0  0  0  0  0  0  0  0  0  0  0
   42.6220    9.4410   43.1830 H   0  0  0  0  0  0  0  0  0  0  0  0
   45.0440    9.8570   42.6460 H   0  0  0  0  0  0  0  0  0  0  0  0
   47.0220    3.9860   41.7870 H   0  0  0  0  0  0  0  0  0  0  0  0
   48.8080    2.2340   41.8680 H   0  0  0  0  0  0  0  0  0  0  0  0
   50.2390    3.9980   45.5040 H   0  0  0  0  0  0  0  0  0  0  0  0
   48.4450    5.7110   45.3690 H   0  0  0  0  0  0  0  0  0  0  0  0
  1  2  1  0  0  0  0
  2  3  1  0  0  0  0
  3  4  2  0  0  0  0
  4 30  1  0  0  0  0
  5  4  1  0  0  0  0
  5 31  1  0  0  0  0
  6  5  2  0  0  0  0
  7  2  2  0  0  0  0
  7  6  1  0  0  0  0
  8  6  1  0  0  0  0
  9  3  1  0  0  0  0
  9 33  1  0  0  0  0
 10  9  1  0  0  0  0
 10 11  2  0  0  0  0
 12 10  1  0  0  0  0
 13 12  1  0  0  0  0
 14 13  1  0  0  0  0
 15 16  1  0  0  0  0
 15 14  1  0  0  0  0
 16 17  2  0  0  0  0
 17 13  1  0  0  0  0
 17 18  1  0  0  0  0
 18 19  2  0  0  0  0
 20 23  1  0  0  0  0
 20 18  1  0  0  0  0
 21 16  1  0  0  0  0
 21 20  1  0  0  0  0
 22 21  2  0  0  0  0
 23 28  1  0  0  0  0
 24 25  1  0  0  0  0
 24 23  2  0  0  0  0
 25 26  2  0  0  0  0
 26 29  1  0  0  0  0
 26 27  1  0  0  0  0
 27 40  1  0  0  0  0
 28 27  2  0  0  0  0
 28 41  1  0  0  0  0
 32  7  1  0  0  0  0
 34 12  1  0  0  0  0
 35 12  1  0  0  0  0
 36 14  1  0  0  0  0
 37 15  1  0  0  0  0
 38 24  1  0  0  0  0
 39 25  1  0  0  0  0
M  END
>  <Pose>
1

>  <Score>
-8.39

$$$$
