
 OpenBabel03172210433D

 41 44  0  0  0  0  0  0  0  0999 V2000
   41.9300   11.2590   41.9420 F   0  0  0  0  0  0  0  0  0  0  0  0
   41.0430   11.2390   42.9790 C   0  0  0  0  0  0  0  0  0  0  0  0
   40.4720   10.0080   43.3390 C   0  0  0  0  0  0  0  0  0  0  0  0
   39.5860   10.0390   44.3860 C   0  0  0  0  0  0  0  0  0  0  0  0
   39.2910   11.2280   45.0330 C   0  0  0  0  0  0  0  0  0  0  0  0
   39.8480   12.4210   44.6790 C   0  0  0  0  0  0  0  0  0  0  0  0
   40.7380   12.4070   43.6300 C   0  0  0  0  0  0  0  0  0  0  0  0
   40.8330    8.8330   42.6210 N   0  0  0  0  0  0  0  0  0  0  0  0
   41.1410    7.5760   43.1340 C   0  0  0  0  0  0  0  0  0  0  0  0
   40.6360    6.5320   42.6900 O   0  0  0  0  0  0  0  0  0  0  0  0
   42.1060    7.4130   44.2580 C   0  0  0  0  0  0  0  0  0  0  0  0
   43.3780    8.0100   43.8980 N   0  0  0  0  0  0  0  0  0  0  0  0
   43.6640    9.2770   43.6890 N   0  0  0  0  0  0  0  0  0  0  0  0
   44.9450    9.4150   43.3790 N   0  0  0  0  0  0  0  0  0  0  0  0
   45.5120    8.1890   43.3880 C   0  0  0  0  0  0  0  0  0  0  0  0
   44.5500    7.3470   43.7040 C   0  0  0  0  0  0  0  0  0  0  0  0
   45.1290    6.0880   43.7150 C   0  0  0  0  0  0  0  0  0  0  0  0
   44.5130    5.0320   43.9750 O   0  0  0  0  0  0  0  0  0  0  0  0
   46.4370    6.1580   43.4060 N   0  0  0  0  0  0  0  0  0  0  0  0
   46.6760    7.4660   43.2030 C   0  0  0  0  0  0  0  0  0  0  0  0
   47.7790    7.9670   42.8930 O   0  0  0  0  0  0  0  0  0  0  0  0
   47.3530    5.0670   43.3200 C   0  0  0  0  0  0  0  0  0  0  0  0
   47.2940    4.1650   42.2750 C   0  0  0  0  0  0  0  0  0  0  0  0
   48.1730    3.1040   42.1760 C   0  0  0  0  0  0  0  0  0  0  0  0
   49.1530    2.9010   43.1250 C   0  0  0  0  0  0  0  0  0  0  0  0
   49.2300    3.7900   44.1770 C   0  0  0  0  0  0  0  0  0  0  0  0
   48.3420    4.8430   44.2580 C   0  0  0  0  0  0  0  0  0  0  0  0
   50.3840    1.4420   43.0130 B   0  0  0  0  0  0  0  0  0  0  0  0
   39.1090    9.1450   44.7240 H   0  0  0  0  0  0  0  0  0  0  0  0
   38.5820   11.2370   45.8670 H   0  0  0  0  0  0  0  0  0  0  0  0
   39.5830   13.3210   45.2150 H   0  0  0  0  0  0  0  0  0  0  0  0
   41.1800   13.3640   43.3520 H   0  0  0  0  0  0  0  0  0  0  0  0
   40.8740    8.9180   41.5520 H   0  0  0  0  0  0  0  0  0  0  0  0
   42.2610    6.3110   44.4060 H   0  0  0  0  0  0  0  0  0  0  0  0
   41.7030    7.8380   45.1970 H   0  0  0  0  0  0  0  0  0  0  0  0
   42.9520   10.0490   43.7640 H   0  0  0  0  0  0  0  0  0  0  0  0
   45.4360   10.3170   43.1640 H   0  0  0  0  0  0  0  0  0  0  0  0
   46.5130    4.3350   41.5280 H   0  0  0  0  0  0  0  0  0  0  0  0
   48.1150    2.4100   41.3560 H   0  0  0  0  0  0  0  0  0  0  0  0
   50.0110    3.6240   44.9290 H   0  0  0  0  0  0  0  0  0  0  0  0
   48.3960    5.5420   45.0780 H   0  0  0  0  0  0  0  0  0  0  0  0
  1  2  1  0  0  0  0
  2  3  2  0  0  0  0
  2  7  1  0  0  0  0
  3  4  1  0  0  0  0
  4 29  1  0  0  0  0
  4  5  2  0  0  0  0
  5 30  1  0  0  0  0
  6  5  1  0  0  0  0
  6 31  1  0  0  0  0
  7  6  2  0  0  0  0
  8  9  1  0  0  0  0
  8  3  1  0  0  0  0
  9 11  1  0  0  0  0
 10  9  2  0  0  0  0
 11 34  1  0  0  0  0
 11 35  1  0  0  0  0
 12 11  1  0  0  0  0
 13 36  1  0  0  0  0
 13 12  1  0  0  0  0
 14 15  1  0  0  0  0
 14 13  1  0  0  0  0
 15 16  2  0  0  0  0
 16 17  1  0  0  0  0
 16 12  1  0  0  0  0
 17 18  2  0  0  0  0
 19 17  1  0  0  0  0
 20 15  1  0  0  0  0
 20 19  1  0  0  0  0
 21 20  2  0  0  0  0
 22 19  1  0  0  0  0
 22 27  1  0  0  0  0
 23 22  2  0  0  0  0
 24 23  1  0  0  0  0
 24 25  2  0  0  0  0
 25 26  1  0  0  0  0
 26 27  2  0  0  0  0
 26 40  1  0  0  0  0
 27 41  1  0  0  0  0
 28 25  1  0  0  0  0
 32  7  1  0  0  0  0
 33  8  1  0  0  0  0
 37 14  1  0  0  0  0
 38 23  1  0  0  0  0
 39 24  1  0  0  0  0
M  END
>  <Pose>
1

>  <Score>
-7.80

$$$$
