
 OpenBabel03172210433D

 39 42  0  0  1  0  0  0  0  0999 V2000
   40.4830   14.6990   46.8490 I   0  0  0  0  0  0  0  0  0  0  0  0
   40.3860   12.6930   46.2250 C   0  0  0  0  0  0  0  0  0  0  0  0
   40.3780   12.3870   44.8630 C   0  0  0  0  0  0  0  0  0  0  0  0
   40.3160   11.0900   44.4120 C   0  0  0  0  0  0  0  0  0  0  0  0
   40.2620   10.0980   45.4020 C   0  0  0  0  0  0  0  0  0  0  0  0
   40.2700   10.4080   46.7370 C   0  0  0  0  0  0  0  0  0  0  0  0
   40.3330   11.7130   47.1670 C   0  0  0  0  0  0  0  0  0  0  0  0
   40.1950    9.0320   48.0510 B   0  0  0  0  0  0  0  0  0  0  0  0
   40.3170   10.7070   42.9760 C   0  0  2  0  0  0  0  0  0  0  0  0
   40.5220    9.2770   42.9320 N   0  0  0  0  0  0  0  0  0  0  0  0
   41.8170    8.7400   43.2180 C   0  0  0  0  0  0  0  0  0  0  0  0
   42.3630    7.1960   43.8030 S   0  0  0  0  0  0  0  0  0  0  0  0
   44.0390    7.4840   43.8240 C   0  0  0  0  0  0  0  0  0  0  0  0
   44.1310    8.7580   43.3820 C   0  0  0  0  0  0  0  0  0  0  0  0
   42.9980    9.4090   43.0690 C   0  0  0  0  0  0  0  0  0  0  0  0
   42.7760   10.7930   42.5620 C   0  0  0  0  0  0  0  0  0  0  0  0
   43.7380   11.5690   42.3550 O   0  0  0  0  0  0  0  0  0  0  0  0
   41.4730   11.2700   42.3000 N   0  0  0  0  0  0  0  0  0  0  0  0
   45.5550    9.2930   43.2940 C   0  0  0  0  0  0  0  0  0  0  0  0
   46.4870    8.1300   43.1940 C   0  0  0  0  0  0  0  0  0  0  0  0
   46.3220    7.3820   44.4510 N   0  0  0  0  0  4  0  0  0  0  0  0
   45.1400    6.5780   44.2220 C   0  0  0  0  0  0  0  0  0  0  0  0
   47.4880    6.5830   44.7440 C   0  0  0  0  0  0  0  0  0  0  0  0
   40.4320   13.4170   43.9510 O   0  0  0  0  0  0  0  0  0  0  0  0
   40.2120    9.0760   45.0500 H   0  0  0  0  0  0  0  0  0  0  0  0
   40.3410   11.9690   48.2340 H   0  0  0  0  0  0  0  0  0  0  0  0
   39.3740   11.0070   42.4720 H   0  0  0  0  0  0  0  0  0  0  0  0
   39.7650    8.5980   42.6960 H   0  0  0  0  0  0  0  0  0  0  0  0
   41.3120   12.0460   41.6070 H   0  0  0  0  0  0  0  0  0  0  0  0
   45.7390    9.8280   44.2340 H   0  0  0  0  0  0  0  0  0  0  0  0
   45.6600    9.9870   42.4530 H   0  0  0  0  0  0  0  0  0  0  0  0
   46.2230    7.4760   42.3470 H   0  0  0  0  0  0  0  0  0  0  0  0
   47.5100    8.4950   43.1180 H   0  0  0  0  0  0  0  0  0  0  0  0
   46.0970    8.0560   45.2140 H   0  0  0  0  0  0  0  0  0  0  0  0
   45.3110    5.8020   43.4500 H   0  0  0  0  0  0  0  0  0  0  0  0
   44.9360    6.0360   45.1660 H   0  0  0  0  0  0  0  0  0  0  0  0
   47.2740    5.5010   44.7110 H   0  0  0  0  0  0  0  0  0  0  0  0
   47.7800    6.8180   45.8030 H   0  0  0  0  0  0  0  0  0  0  0  0
   48.3710    6.8610   44.1320 H   0  0  0  0  0  0  0  0  0  0  0  0
  2  1  1  0  0  0  0
  2  7  1  0  0  0  0
  3  2  2  0  0  0  0
  4  3  1  0  0  0  0
  4  5  2  0  0  0  0
  5  6  1  0  0  0  0
  6  7  2  0  0  0  0
  6  8  1  0  0  0  0
  7 26  1  0  0  0  0
  9 27  1  6  0  0  0
  9  4  1  0  0  0  0
 10  9  1  0  0  0  0
 10 11  1  0  0  0  0
 11 12  1  0  0  0  0
 12 13  1  0  0  0  0
 13 22  1  0  0  0  0
 14 13  2  0  0  0  0
 15 11  2  0  0  0  0
 15 14  1  0  0  0  0
 16 15  1  0  0  0  0
 17 16  2  0  0  0  0
 18 16  1  0  0  0  0
 18  9  1  0  0  0  0
 19 14  1  0  0  0  0
 19 30  1  0  0  0  0
 20 19  1  0  0  0  0
 20 21  1  0  0  0  0
 21 23  1  0  0  0  0
 21 34  1  0  0  0  0
 22 21  1  0  0  0  0
 22 36  1  0  0  0  0
 23 38  1  0  0  0  0
 24  3  1  0  0  0  0
 25  5  1  0  0  0  0
 28 10  1  0  0  0  0
 29 18  1  0  0  0  0
 31 19  1  0  0  0  0
 32 20  1  0  0  0  0
 33 20  1  0  0  0  0
 35 22  1  0  0  0  0
 37 23  1  0  0  0  0
 39 23  1  0  0  0  0
M  END
>  <Pose>
1

>  <Score>
-6.22

$$$$
