
 OpenBabel03172210433D

 34 37  0  0  0  0  0  0  0  0999 V2000
   40.9700   11.7660   44.0500 I   0  0  0  0  0  0  0  0  0  0  0  0
   42.0290   12.5120   45.7250 C   0  0  0  0  0  0  0  0  0  0  0  0
   42.6530   11.5910   46.5410 C   0  0  0  0  0  0  0  0  0  0  0  0
   43.3370   12.0970   47.6270 C   0  0  0  0  0  0  0  0  0  0  0  0
   43.3900   13.4570   47.8770 C   0  0  0  0  0  0  0  0  0  0  0  0
   42.7620   14.3680   47.0540 C   0  0  0  0  0  0  0  0  0  0  0  0
   42.0760   13.8700   45.9660 C   0  0  0  0  0  0  0  0  0  0  0  0
   42.5910   10.1900   46.2710 N   0  0  0  0  0  0  0  0  0  0  0  0
   43.3570    9.4570   45.4440 C   0  0  0  0  0  0  0  0  0  0  0  0
   44.3050    9.9080   44.7330 O   0  0  0  0  0  0  0  0  0  0  0  0
   42.9850    8.1280   45.4570 C   0  0  0  0  0  0  0  0  0  0  0  0
   41.9750    8.0520   46.3080 C   0  0  0  0  0  0  0  0  0  0  0  0
   41.6220    6.7450   46.3120 N   0  0  0  0  0  0  0  0  0  0  0  0
   42.3920    6.0540   45.4910 N   0  0  0  0  0  0  0  0  0  0  0  0
   43.2420    6.8890   44.9520 N   0  0  0  0  0  0  0  0  0  0  0  0
   44.2680    6.6160   44.0070 C   0  0  0  0  0  0  0  0  0  0  0  0
   44.5520    7.4730   42.9660 C   0  0  0  0  0  0  0  0  0  0  0  0
   45.5590    7.1780   42.0620 C   0  0  0  0  0  0  0  0  0  0  0  0
   46.3140    6.0280   42.1610 C   0  0  0  0  0  0  0  0  0  0  0  0
   46.0310    5.1690   43.2020 C   0  0  0  0  0  0  0  0  0  0  0  0
   45.0340    5.4530   44.1030 C   0  0  0  0  0  0  0  0  0  0  0  0
   41.7240    9.3170   46.8160 C   0  0  0  0  0  0  0  0  0  0  0  0
   40.8110    9.5850   47.6630 O   0  0  0  0  0  0  0  0  0  0  0  0
   43.8280   11.3810   48.2710 H   0  0  0  0  0  0  0  0  0  0  0  0
   43.9310   13.8320   48.7330 H   0  0  0  0  0  0  0  0  0  0  0  0
   42.8220   15.4260   47.2770 H   0  0  0  0  0  0  0  0  0  0  0  0
   41.5800   14.5970   45.3180 H   0  0  0  0  0  0  0  0  0  0  0  0
   40.8540    6.3200   46.8740 H   0  0  0  0  0  0  0  0  0  0  0  0
   42.3340    5.0320   45.3040 H   0  0  0  0  0  0  0  0  0  0  0  0
   43.9750    8.3840   42.8660 H   0  0  0  0  0  0  0  0  0  0  0  0
   45.7530    7.8740   41.2590 H   0  0  0  0  0  0  0  0  0  0  0  0
   47.0970    5.8280   41.4330 H   0  0  0  0  0  0  0  0  0  0  0  0
   46.6270    4.2630   43.2770 H   0  0  0  0  0  0  0  0  0  0  0  0
   44.7950    4.8010   44.9200 H   0  0  0  0  0  0  0  0  0  0  0  0
  1  2  1  0  0  0  0
  2  7  2  0  0  0  0
  2  3  1  0  0  0  0
  3  4  2  0  0  0  0
  4  5  1  0  0  0  0
  4 24  1  0  0  0  0
  5 25  1  0  0  0  0
  6 26  1  0  0  0  0
  6  5  2  0  0  0  0
  7  6  1  0  0  0  0
  8  3  1  0  0  0  0
  8 22  1  0  0  0  0
  9 11  1  0  0  0  0
  9  8  1  0  0  0  0
 10  9  2  0  0  0  0
 11 12  2  0  0  0  0
 12 13  1  0  0  0  0
 12 22  1  0  0  0  0
 13 28  1  0  0  0  0
 14 13  1  0  0  0  0
 15 11  1  0  0  0  0
 15 14  1  0  0  0  0
 16 21  1  0  0  0  0
 16 15  1  0  0  0  0
 17 16  2  0  0  0  0
 18 19  2  0  0  0  0
 18 17  1  0  0  0  0
 19 20  1  0  0  0  0
 20 33  1  0  0  0  0
 20 21  2  0  0  0  0
 21 34  1  0  0  0  0
 22 23  2  0  0  0  0
 27  7  1  0  0  0  0
 29 14  1  0  0  0  0
 30 17  1  0  0  0  0
 31 18  1  0  0  0  0
 32 19  1  0  0  0  0
M  END
>  <Pose>
1

>  <Score>
-5.62

$$$$
