
 OpenBabel03172210433D

 40 43  0  0  0  0  0  0  0  0999 V2000
   43.2830   10.2330   43.5470 I   0  0  0  0  0  0  0  0  0  0  0  0
   42.8970    8.1610   43.8430 C   0  0  0  0  0  0  0  0  0  0  0  0
   43.8370    7.1690   44.0160 C   0  0  0  0  0  0  0  0  0  0  0  0
   43.1770    6.0170   44.1620 N   0  0  0  0  0  0  0  0  0  0  0  0
   41.8760    6.2710   44.0880 N   0  0  0  0  0  0  0  0  0  0  0  0
   41.6590    7.5690   43.8920 C   0  0  0  0  0  0  0  0  0  0  0  0
   43.7260    4.6580   44.3260 C   0  0  0  0  0  0  0  0  0  0  0  0
   45.3110    7.3740   43.9790 C   0  0  0  0  0  0  0  0  0  0  0  0
   45.5780    8.6240   43.7530 O   0  0  0  0  0  0  0  0  0  0  0  0
   46.2380    6.4330   44.1530 N   0  0  0  0  0  0  0  0  0  0  0  0
   47.1990    5.4590   44.3330 C   0  0  0  0  0  0  0  0  0  0  0  0
   47.5340    4.7300   43.1680 C   0  0  0  0  0  0  0  0  0  0  0  0
   47.0360    4.7650   41.9380 N   0  0  0  0  0  0  0  0  0  0  0  0
   47.6750    3.8970   41.2140 O   0  0  0  0  0  0  0  0  0  0  0  0
   48.5660    3.2970   41.9170 N   0  0  0  0  0  0  0  0  0  0  0  0
   48.5130    3.7910   43.1610 C   0  0  0  0  0  0  0  0  0  0  0  0
   49.2150    3.5260   44.3160 C   0  0  0  0  0  0  0  0  0  0  0  0
   48.9140    4.2140   45.4620 C   0  0  0  0  0  0  0  0  0  0  0  0
   47.9200    5.1730   45.4840 C   0  0  0  0  0  0  0  0  0  0  0  0
   50.2150    2.5430   44.2680 N   0  0  0  0  0  0  0  0  0  0  0  0
   51.3810    2.5580   45.1520 C   0  0  0  0  0  0  0  0  0  0  0  0
   52.5650    2.7060   44.2190 C   0  0  0  0  0  0  0  0  0  0  0  0
   52.2160    2.7410   42.8780 O   0  0  0  0  0  0  0  0  0  0  0  0
   51.4360    1.6900   42.4450 C   0  0  0  0  0  0  0  0  0  0  0  0
   50.2760    1.4030   43.3830 C   0  0  0  0  0  0  0  0  0  0  0  0
   40.7050    8.0880   43.7900 H   0  0  0  0  0  0  0  0  0  0  0  0
   43.3750    4.2250   45.2730 H   0  0  0  0  0  0  0  0  0  0  0  0
   44.8180    4.6500   44.2720 H   0  0  0  0  0  0  0  0  0  0  0  0
   43.3170    4.0350   43.4750 H   0  0  0  0  0  0  0  0  0  0  0  0
   45.4420    5.7910   45.0520 H   0  0  0  0  0  0  0  0  0  0  0  0
   49.4450    4.0130   46.3680 H   0  0  0  0  0  0  0  0  0  0  0  0
   47.7490    5.6790   46.4190 H   0  0  0  0  0  0  0  0  0  0  0  0
   51.3620    3.2550   45.9590 H   0  0  0  0  0  0  0  0  0  0  0  0
   51.4780    1.5320   45.6190 H   0  0  0  0  0  0  0  0  0  0  0  0
   53.3680    1.9810   44.4600 H   0  0  0  0  0  0  0  0  0  0  0  0
   53.0070    3.7240   44.4310 H   0  0  0  0  0  0  0  0  0  0  0  0
   50.9750    2.0270   41.4790 H   0  0  0  0  0  0  0  0  0  0  0  0
   52.0070    0.7740   42.2300 H   0  0  0  0  0  0  0  0  0  0  0  0
   50.5870    0.5020   44.0110 H   0  0  0  0  0  0  0  0  0  0  0  0
   49.3630    1.0940   42.9050 H   0  0  0  0  0  0  0  0  0  0  0  0
  1  2  1  0  0  0  0
  2  6  1  0  0  0  0
  2  3  2  0  0  0  0
  3  4  1  0  0  0  0
  4  7  1  0  0  0  0
  5  4  1  0  0  0  0
  6  5  2  0  0  0  0
  7 27  1  0  0  0  0
  8  3  1  0  0  0  0
  8 10  1  0  0  0  0
  9  8  2  0  0  0  0
 10 11  1  0  0  0  0
 10 30  1  0  0  0  0
 11 19  2  0  0  0  0
 12 11  1  0  0  0  0
 13 12  2  0  0  0  0
 14 15  1  0  0  0  0
 14 13  1  0  0  0  0
 15 16  2  0  0  0  0
 16 12  1  0  0  0  0
 16 17  1  0  0  0  0
 17 18  2  0  0  0  0
 18 19  1  0  0  0  0
 18 31  1  0  0  0  0
 19 32  1  0  0  0  0
 20 17  1  0  0  0  0
 20 21  1  0  0  0  0
 21 34  1  0  0  0  0
 21 33  1  0  0  0  0
 22 36  1  0  0  0  0
 22 35  1  0  0  0  0
 22 21  1  0  0  0  0
 23 22  1  0  0  0  0
 24 23  1  0  0  0  0
 24 25  1  0  0  0  0
 25 39  1  0  0  0  0
 25 20  1  0  0  0  0
 26  6  1  0  0  0  0
 28  7  1  0  0  0  0
 29  7  1  0  0  0  0
 37 24  1  0  0  0  0
 38 24  1  0  0  0  0
 40 25  1  0  0  0  0
M  END
>  <Pose>
1

>  <Score>
-6.76

$$$$
