
 OpenBabel03172210433D

 40 43  0  0  1  0  0  0  0  0999 V2000
   40.5970   10.2710   43.7300 I   0  0  0  0  0  0  0  0  0  0  0  0
   42.2080    8.9520   43.6920 C   0  0  0  0  0  0  0  0  0  0  0  0
   43.5070    9.3190   43.3980 C   0  0  0  0  0  0  0  0  0  0  0  0
   44.5440    8.4270   43.3820 C   0  0  0  0  0  0  0  0  0  0  0  0
   44.3460    7.1080   43.6600 C   0  0  0  0  0  0  0  0  0  0  0  0
   43.0420    6.7190   43.9590 C   0  0  0  0  0  0  0  0  0  0  0  0
   42.0130    7.6000   43.9750 C   0  0  0  0  0  0  0  0  0  0  0  0
   45.4150    6.1470   43.6710 C   0  0  1  0  0  0  0  0  0  0  0  0
   45.0730    4.9790   44.1470 O   0  0  0  0  0  0  0  0  0  0  0  0
   46.7940    6.1990   43.2630 C   0  0  0  0  0  0  0  0  0  0  0  0
   47.7740    5.3530   43.8350 N   0  0  0  0  0  0  0  0  0  0  0  0
   48.1590    4.2120   43.3550 C   0  0  1  0  0  0  0  0  0  0  0  0
   47.8450    3.1010   41.9750 S   0  0  0  0  0  0  0  0  0  0  0  0
   49.0390    1.8990   42.5140 C   0  0  0  0  0  0  0  0  0  0  0  0
   49.5990    2.3260   43.6240 C   0  0  0  0  0  0  0  0  0  0  0  0
   49.1480    3.5770   44.1100 N   0  0  0  0  0  0  0  0  0  0  0  0
   49.4350    4.4790   45.2550 C   0  0  0  0  0  0  0  0  0  0  0  0
   48.4710    5.5990   45.0680 C   0  0  0  0  0  0  0  0  0  0  0  0
   50.6360    1.4600   44.2590 C   0  0  0  0  0  0  0  0  0  0  0  0
   51.2990    1.8300   45.4000 C   0  0  0  0  0  0  0  0  0  0  0  0
   52.2700    1.0050   46.0020 C   0  0  0  0  0  0  0  0  0  0  0  0
   52.5810   -0.2150   45.4470 C   0  0  0  0  0  0  0  0  0  0  0  0
   51.9190   -0.5900   44.3050 C   0  0  0  0  0  0  0  0  0  0  0  0
   50.9630    0.2300   43.7190 C   0  0  0  0  0  0  0  0  0  0  0  0
   43.6720   10.3790   43.1730 H   0  0  0  0  0  0  0  0  0  0  0  0
   45.5010    8.8090   43.1330 H   0  0  0  0  0  0  0  0  0  0  0  0
   42.8630    5.6880   44.1810 H   0  0  0  0  0  0  0  0  0  0  0  0
   40.9760    7.3060   44.2100 H   0  0  0  0  0  0  0  0  0  0  0  0
   46.9020    6.0800   42.1230 H   0  0  0  0  0  0  0  0  0  0  0  0
   47.1200    7.2890   43.3790 H   0  0  0  0  0  0  0  0  0  0  0  0
   49.1910    0.9920   41.9310 H   0  0  0  0  0  0  0  0  0  0  0  0
   50.4590    4.8750   45.2220 H   0  0  0  0  0  0  0  0  0  0  0  0
   49.1840    3.9950   46.2230 H   0  0  0  0  0  0  0  0  0  0  0  0
   49.0270    6.5600   45.0480 H   0  0  0  0  0  0  0  0  0  0  0  0
   47.7200    5.6580   45.9110 H   0  0  0  0  0  0  0  0  0  0  0  0
   51.0760    2.7770   45.8490 H   0  0  0  0  0  0  0  0  0  0  0  0
   52.7480    1.3450   46.8830 H   0  0  0  0  0  0  0  0  0  0  0  0
   53.3130   -0.8900   45.8610 H   0  0  0  0  0  0  0  0  0  0  0  0
   52.1530   -1.5420   43.8600 H   0  0  0  0  0  0  0  0  0  0  0  0
   50.4790   -0.1310   42.8150 H   0  0  0  0  0  0  0  0  0  0  0  0
  2  1  1  0  0  0  0
  2  7  1  0  0  0  0
  3  2  2  0  0  0  0
  4  3  1  0  0  0  0
  4  5  2  0  0  0  0
  5  8  1  0  0  0  0
  5  6  1  0  0  0  0
  6  7  2  0  0  0  0
  6 27  1  0  0  0  0
  7 28  1  0  0  0  0
  8  9  1  6  0  0  0
 10 30  1  0  0  0  0
 10  8  1  0  0  0  0
 10 11  1  0  0  0  0
 11 18  1  0  0  0  0
 12 13  1  6  0  0  0
 12 11  1  0  0  0  0
 12 16  1  0  0  0  0
 13 14  1  0  0  0  0
 14 15  2  0  0  0  0
 15 16  1  0  0  0  0
 15 19  1  0  0  0  0
 16 17  1  0  0  0  0
 17 33  1  0  0  0  0
 18 17  1  0  0  0  0
 18 35  1  0  0  0  0
 19 20  1  0  0  0  0
 20 36  1  0  0  0  0
 20 21  2  0  0  0  0
 21 37  1  0  0  0  0
 22 38  1  0  0  0  0
 22 21  1  0  0  0  0
 23 22  2  0  0  0  0
 24 19  2  0  0  0  0
 24 23  1  0  0  0  0
 25  3  1  0  0  0  0
 26  4  1  0  0  0  0
 29 10  1  0  0  0  0
 31 14  1  0  0  0  0
 32 17  1  0  0  0  0
 34 18  1  0  0  0  0
 39 23  1  0  0  0  0
 40 24  1  0  0  0  0
M  END
>  <Pose>
1

>  <Score>
-6.27

$$$$
