
 OpenBabel03172210433D

 50 53  0  0  0  0  0  0  0  0999 V2000
   47.4160    4.0330   43.5290 I   0  0  0  0  0  0  0  0  0  0  0  0
   46.2320    5.7540   43.4290 C   0  0  0  0  0  0  0  0  0  0  0  0
   44.9920    5.8300   43.9850 C   0  0  0  0  0  0  0  0  0  0  0  0
   44.2490    7.0150   43.8820 C   0  0  0  0  0  0  0  0  0  0  0  0
   44.7060    8.1280   43.2390 C   0  0  0  0  0  0  0  0  0  0  0  0
   45.9860    8.0220   42.6750 C   0  0  0  0  0  0  0  0  0  0  0  0
   46.7180    6.8640   42.7730 C   0  0  0  0  0  0  0  0  0  0  0  0
   44.0290    9.3840   43.0750 C   0  0  0  0  0  0  0  0  0  0  0  0
   42.8340    9.6680   43.3530 N   0  0  0  0  0  0  0  0  0  0  0  0
   41.9430    8.7930   43.8790 N   0  0  0  0  0  0  0  0  0  0  0  0
   41.2270    9.1510   45.0850 C   0  0  0  0  0  0  0  0  0  0  0  0
   40.1060    9.8890   45.0130 N   0  0  0  0  0  4  0  0  0  0  0  0
   39.4280   10.2320   46.1150 C   0  0  0  0  0  0  0  0  0  0  0  0
   39.9220    9.8010   47.2880 N   0  0  0  0  0  0  0  0  0  0  0  0
   41.0410    9.0580   47.4010 C   0  0  0  0  0  0  0  0  0  0  0  0
   41.6940    8.7360   46.2690 N   0  0  0  0  0  0  0  0  0  0  0  0
   41.4940    8.6420   48.6810 N   0  0  0  0  0  0  0  0  0  0  0  0
   42.8140    9.0210   49.1300 C   0  0  0  0  0  0  0  0  0  0  0  0
   43.3210    7.8290   49.9550 C   0  0  0  0  0  0  0  0  0  0  0  0
   42.5290    7.7350   51.0700 O   0  0  0  0  0  0  0  0  0  0  0  0
   41.2010    7.4910   50.8540 C   0  0  0  0  0  0  0  0  0  0  0  0
   40.6580    7.8550   49.5200 C   0  0  0  0  0  0  0  0  0  0  0  0
   38.2350   11.0150   46.0620 N   0  0  0  0  0  0  0  0  0  0  0  0
   37.0310   10.5710   45.4290 C   0  0  0  0  0  0  0  0  0  0  0  0
   36.0510   11.7460   45.4220 C   0  0  0  0  0  0  0  0  0  0  0  0
   36.6470   12.9020   44.9450 O   0  0  0  0  0  0  0  0  0  0  0  0
   37.6570   13.3700   45.7490 C   0  0  0  0  0  0  0  0  0  0  0  0
   38.2310   12.3320   46.6790 C   0  0  0  0  0  0  0  0  0  0  0  0
   44.6030    4.9660   44.5000 H   0  0  0  0  0  0  0  0  0  0  0  0
   43.3030    6.9740   44.3460 H   0  0  0  0  0  0  0  0  0  0  0  0
   46.4170    8.8580   42.1500 H   0  0  0  0  0  0  0  0  0  0  0  0
   47.7010    6.8650   42.3080 H   0  0  0  0  0  0  0  0  0  0  0  0
   44.6030   10.2500   42.6480 H   0  0  0  0  0  0  0  0  0  0  0  0
   41.7850    7.8610   43.4380 H   0  0  0  0  0  0  0  0  0  0  0  0
   42.7480    9.9150   49.7650 H   0  0  0  0  0  0  0  0  0  0  0  0
   43.5210    9.1480   48.2840 H   0  0  0  0  0  0  0  0  0  0  0  0
   43.3160    6.9500   49.3090 H   0  0  0  0  0  0  0  0  0  0  0  0
   44.3410    8.0870   50.2730 H   0  0  0  0  0  0  0  0  0  0  0  0
   40.9250    6.4360   51.1570 H   0  0  0  0  0  0  0  0  0  0  0  0
   40.6390    8.1170   51.6110 H   0  0  0  0  0  0  0  0  0  0  0  0
   39.6630    8.3840   49.5860 H   0  0  0  0  0  0  0  0  0  0  0  0
   40.3920    6.8860   49.0030 H   0  0  0  0  0  0  0  0  0  0  0  0
   37.1630   10.1560   44.4250 H   0  0  0  0  0  0  0  0  0  0  0  0
   36.5760    9.7910   46.0910 H   0  0  0  0  0  0  0  0  0  0  0  0
   35.6610   11.8600   46.4670 H   0  0  0  0  0  0  0  0  0  0  0  0
   35.1870   11.5180   44.7670 H   0  0  0  0  0  0  0  0  0  0  0  0
   37.3290   14.2270   46.3980 H   0  0  0  0  0  0  0  0  0  0  0  0
   38.4900   13.7140   45.0780 H   0  0  0  0  0  0  0  0  0  0  0  0
   37.6210   12.3130   47.6080 H   0  0  0  0  0  0  0  0  0  0  0  0
   39.2750   12.6650   46.9150 H   0  0  0  0  0  0  0  0  0  0  0  0
  2  1  1  0  0  0  0
  2  3  1  0  0  0  0
  3 29  1  0  0  0  0
  4  3  2  0  0  0  0
  4 30  1  0  0  0  0
  5  4  1  0  0  0  0
  6  7  1  0  0  0  0
  6  5  2  0  0  0  0
  7  2  2  0  0  0  0
  8  5  1  0  0  0  0
  8  9  2  0  0  0  0
  9 10  1  0  0  0  0
 10 11  1  0  0  0  0
 11 16  1  0  0  0  0
 12 11  2  0  0  0  0
 12 13  2  0  0  0  0
 13 14  1  0  0  0  0
 14 15  2  0  0  0  0
 15 17  1  0  0  0  0
 16 15  1  0  0  0  0
 17 18  1  0  0  0  0
 17 22  1  0  0  0  0
 18 35  1  0  0  0  0
 18 19  1  0  0  0  0
 19 38  1  0  0  0  0
 19 20  1  0  0  0  0
 21 20  1  0  0  0  0
 21 39  1  0  0  0  0
 21 40  1  0  0  0  0
 22 41  1  0  0  0  0
 22 21  1  0  0  0  0
 23 13  1  0  0  0  0
 23 28  1  0  0  0  0
 24 23  1  0  0  0  0
 24 44  1  0  0  0  0
 25 24  1  0  0  0  0
 25 45  1  0  0  0  0
 26 25  1  0  0  0  0
 26 27  1  0  0  0  0
 27 47  1  0  0  0  0
 27 28  1  0  0  0  0
 28 50  1  0  0  0  0
 28 49  1  0  0  0  0
 31  6  1  0  0  0  0
 32  7  1  0  0  0  0
 33  8  1  0  0  0  0
 34 10  1  0  0  0  0
 36 18  1  0  0  0  0
 37 19  1  0  0  0  0
 42 22  1  0  0  0  0
 43 24  1  0  0  0  0
 46 25  1  0  0  0  0
 48 27  1  0  0  0  0
M  END
>  <Pose>
1

>  <Score>
-5.39

$$$$
