
 OpenBabel03172210433D

 52 56  0  0  1  0  0  0  0  0999 V2000
   39.2160   13.3410   45.6090 I   0  0  0  0  0  0  0  0  0  0  0  0
   40.3770   11.6530   45.1540 C   0  0  0  0  0  0  0  0  0  0  0  0
   41.1770   11.0740   46.1340 C   0  0  0  0  0  0  0  0  0  0  0  0
   41.9340    9.9760   45.8460 C   0  0  0  0  0  0  0  0  0  0  0  0
   41.9510    9.3880   44.5920 C   0  0  0  0  0  0  0  0  0  0  0  0
   41.1550    9.9630   43.6070 C   0  0  0  0  0  0  0  0  0  0  0  0
   40.3920   11.0720   43.9070 C   0  0  0  0  0  0  0  0  0  0  0  0
   42.7410    8.2470   44.2950 N   0  0  0  0  0  0  0  0  0  0  0  0
   43.8390    8.3330   43.5250 C   0  0  0  0  0  0  0  0  0  0  0  0
   44.6200    7.2390   43.2260 C   0  0  2  0  0  0  0  0  0  0  0  0
   44.2070    6.0360   43.7650 C   0  0  0  0  0  0  0  0  0  0  0  0
   44.8160    4.9380   43.5840 O   0  0  0  0  0  0  0  0  0  0  0  0
   43.0900    5.9350   44.5510 N   0  0  0  0  0  0  0  0  0  0  0  0
   42.3840    7.0520   44.7950 C   0  0  0  0  0  0  0  0  0  0  0  0
   41.3520    7.0090   45.5110 O   0  0  0  0  0  0  0  0  0  0  0  0
   45.8260    7.2550   42.4180 C   0  0  1  0  0  0  0  0  0  0  0  0
   46.7030    8.3720   42.5660 N   0  0  0  0  0  4  0  0  0  0  0  0
   47.3030    8.4960   43.8660 C   0  0  0  0  0  0  0  0  0  0  0  0
   47.0780    7.2850   44.7470 C   0  0  0  0  0  0  0  0  0  0  0  0
   47.3230    6.0440   43.9220 C   0  0  0  0  0  0  0  0  0  0  0  0
   46.6840    6.0510   42.7080 C   0  0  0  0  0  0  0  0  0  0  0  0
   46.8400    5.0030   41.8330 C   0  0  0  0  0  0  0  0  0  0  0  0
   47.6590    3.9560   42.2330 C   0  0  0  0  0  0  0  0  0  0  0  0
   48.3070    3.9340   43.4500 C   0  0  0  0  0  0  0  0  0  0  0  0
   48.1220    5.0180   44.3070 C   0  0  0  0  0  0  0  0  0  0  0  0
   49.0380    2.7600   43.5380 O   0  0  0  0  0  0  0  0  0  0  0  0
   48.5720    1.8450   42.5330 C   0  0  0  0  0  0  0  0  0  0  0  0
   48.0290    2.7600   41.5990 O   0  0  0  0  0  0  0  0  0  0  0  0
   46.2020    5.0180   40.6250 O   0  0  0  0  0  0  0  0  0  0  0  0
   46.2320    6.0310   39.6700 C   0  0  0  0  0  0  0  0  0  0  0  0
   47.8390    8.0930   41.6470 C   0  0  0  0  0  0  0  0  0  0  0  0
   44.2140    9.5460   43.0070 O   0  0  0  0  0  0  0  0  0  0  0  0
   41.1700   11.5240   47.1120 H   0  0  0  0  0  0  0  0  0  0  0  0
   42.5540    9.5320   46.6140 H   0  0  0  0  0  0  0  0  0  0  0  0
   41.1710    9.4980   42.6240 H   0  0  0  0  0  0  0  0  0  0  0  0
   39.7780   11.5140   43.1490 H   0  0  0  0  0  0  0  0  0  0  0  0
   42.7840    5.0300   44.9540 H   0  0  0  0  0  0  0  0  0  0  0  0
   45.5320    7.1620   41.3580 H   0  0  0  0  0  0  0  0  0  0  0  0
   46.3660    9.2770   42.1970 H   0  0  0  0  0  0  0  0  0  0  0  0
   46.9190    9.3750   44.4070 H   0  0  0  0  0  0  0  0  0  0  0  0
   48.4190    8.6370   43.8290 H   0  0  0  0  0  0  0  0  0  0  0  0
   46.1120    7.2670   45.2630 H   0  0  0  0  0  0  0  0  0  0  0  0
   47.8610    7.2670   45.5340 H   0  0  0  0  0  0  0  0  0  0  0  0
   48.6010    5.0520   45.2630 H   0  0  0  0  0  0  0  0  0  0  0  0
   47.7120    1.2730   42.9530 H   0  0  0  0  0  0  0  0  0  0  0  0
   49.3700    1.2230   42.1330 H   0  0  0  0  0  0  0  0  0  0  0  0
   45.1780    6.4070   39.5440 H   0  0  0  0  0  0  0  0  0  0  0  0
   46.9110    6.8680   39.9040 H   0  0  0  0  0  0  0  0  0  0  0  0
   46.5140    5.6610   38.6480 H   0  0  0  0  0  0  0  0  0  0  0  0
   47.4860    8.0550   40.6190 H   0  0  0  0  0  0  0  0  0  0  0  0
   48.3490    7.1920   42.0140 H   0  0  0  0  0  0  0  0  0  0  0  0
   48.5780    8.9310   41.7630 H   0  0  0  0  0  0  0  0  0  0  0  0
  2  1  1  0  0  0  0
  2  3  1  0  0  0  0
  3 33  1  0  0  0  0
  4  3  2  0  0  0  0
  4 34  1  0  0  0  0
  5  4  1  0  0  0  0
  6  7  1  0  0  0  0
  6  5  2  0  0  0  0
  7  2  2  0  0  0  0
  8  5  1  0  0  0  0
  8 14  1  0  0  0  0
  9  8  1  0  0  0  0
 10  9  1  1  0  0  0
 10 11  1  0  0  0  0
 11 13  1  0  0  0  0
 12 11  2  0  0  0  0
 13 14  1  0  0  0  0
 13 37  1  0  0  0  0
 14 15  2  0  0  0  0
 16 38  1  6  0  0  0
 16 17  1  0  0  0  0
 16 21  1  0  0  0  0
 16 10  1  0  0  0  0
 17 18  1  0  0  0  0
 18 40  1  0  0  0  0
 18 19  1  0  0  0  0
 19 42  1  0  0  0  0
 19 43  1  0  0  0  0
 20 25  1  0  0  0  0
 20 19  1  0  0  0  0
 21 20  2  0  0  0  0
 22 23  2  0  0  0  0
 22 21  1  0  0  0  0
 23 24  1  0  0  0  0
 24 26  1  0  0  0  0
 24 25  2  0  0  0  0
 25 44  1  0  0  0  0
 27 45  1  0  0  0  0
 27 26  1  0  0  0  0
 28 23  1  0  0  0  0
 28 27  1  0  0  0  0
 29 22  1  0  0  0  0
 30 48  1  0  0  0  0
 30 29  1  0  0  0  0
 31 52  1  0  0  0  0
 31 51  1  0  0  0  0
 31 17  1  0  0  0  0
 32  9  2  0  0  0  0
 35  6  1  0  0  0  0
 36  7  1  0  0  0  0
 39 17  1  0  0  0  0
 41 18  1  0  0  0  0
 46 27  1  0  0  0  0
 47 30  1  0  0  0  0
 49 30  1  0  0  0  0
 50 31  1  0  0  0  0
M  END
>  <Pose>
1

>  <Score>
-6.71

$$$$
