
 OpenBabel03172210433D

 44 47  0  0  1  0  0  0  0  0999 V2000
   36.0370   12.3940   47.6760 I   0  0  0  0  0  0  0  0  0  0  0  0
   37.6760   11.8280   46.4690 C   0  0  0  0  0  0  0  0  0  0  0  0
   38.2400   10.5710   46.5400 C   0  0  0  0  0  0  0  0  0  0  0  0
   39.3110   10.2290   45.7400 C   0  0  0  0  0  0  0  0  0  0  0  0
   39.8600   11.1220   44.8440 C   0  0  0  0  0  0  0  0  0  0  0  0
   39.2840   12.3690   44.7890 C   0  0  0  0  0  0  0  0  0  0  0  0
   38.2120   12.7340   45.5790 C   0  0  0  0  0  0  0  0  0  0  0  0
   40.9760   10.7160   44.0300 N   0  0  0  0  0  0  0  0  0  0  0  0
   41.0420    9.6490   43.0990 C   0  0  0  0  0  0  0  0  0  0  0  0
   40.0300    9.1340   42.5550 O   0  0  0  0  0  0  0  0  0  0  0  0
   42.4630    9.2610   42.8810 C   0  0  1  0  0  0  0  0  0  0  0  0
   43.1780   10.5770   43.1350 C   0  0  0  0  0  0  0  0  0  0  0  0
   42.2620   11.3340   44.0110 C   0  0  0  0  0  0  0  0  0  0  0  0
   42.5410   12.3810   44.6650 O   0  0  0  0  0  0  0  0  0  0  0  0
   42.7920    8.2510   43.8000 N   0  0  0  0  0  0  0  0  0  0  0  0
   42.3880    6.9310   43.6030 C   0  0  0  0  0  0  0  0  0  0  0  0
   43.4020    6.0290   44.3540 C   0  0  0  0  0  0  0  0  0  0  0  0
   44.7420    6.4490   43.9730 N   0  0  0  0  0  0  0  0  0  0  0  0
   45.1000    7.8120   44.2810 C   0  0  0  0  0  0  0  0  0  0  0  0
   43.8230    8.5260   44.7170 C   0  0  0  0  0  0  0  0  0  0  0  0
   45.6320    5.5640   43.3310 C   0  0  0  0  0  0  0  0  0  0  0  0
   46.0330    5.7900   42.0510 N   0  0  0  0  0  0  0  0  0  0  0  0
   46.8780    4.9960   41.3960 C   0  0  0  0  0  0  0  0  0  0  0  0
   47.3990    3.8680   42.0150 C   0  0  0  0  0  0  0  0  0  0  0  0
   46.9870    3.6440   43.3170 C   0  0  0  0  0  0  0  0  0  0  0  0
   46.1350    4.4700   43.9390 N   0  0  0  0  0  0  0  0  0  0  0  0
   37.8250    9.8640   47.2320 H   0  0  0  0  0  0  0  0  0  0  0  0
   39.7620    9.2330   45.7950 H   0  0  0  0  0  0  0  0  0  0  0  0
   39.6990   13.0860   44.0930 H   0  0  0  0  0  0  0  0  0  0  0  0
   37.7670   13.7290   45.5210 H   0  0  0  0  0  0  0  0  0  0  0  0
   42.6440    9.0040   41.8230 H   0  0  0  0  0  0  0  0  0  0  0  0
   44.1420   10.4520   43.6580 H   0  0  0  0  0  0  0  0  0  0  0  0
   43.2900   11.1470   42.1890 H   0  0  0  0  0  0  0  0  0  0  0  0
   41.3860    6.6340   43.9170 H   0  0  0  0  0  0  0  0  0  0  0  0
   42.5840    6.6530   42.5250 H   0  0  0  0  0  0  0  0  0  0  0  0
   43.2800    4.9680   44.0680 H   0  0  0  0  0  0  0  0  0  0  0  0
   43.2360    6.0900   45.4510 H   0  0  0  0  0  0  0  0  0  0  0  0
   45.7780    7.8740   45.1640 H   0  0  0  0  0  0  0  0  0  0  0  0
   45.5470    8.3560   43.4320 H   0  0  0  0  0  0  0  0  0  0  0  0
   44.0080    9.6210   44.8220 H   0  0  0  0  0  0  0  0  0  0  0  0
   43.5960    8.1860   45.7650 H   0  0  0  0  0  0  0  0  0  0  0  0
   47.1810    5.1990   40.3790 H   0  0  0  0  0  0  0  0  0  0  0  0
   48.0840    3.2210   41.4870 H   0  0  0  0  0  0  0  0  0  0  0  0
   47.3940    2.7590   43.8030 H   0  0  0  0  0  0  0  0  0  0  0  0
  2  3  1  0  0  0  0
  2  1  1  0  0  0  0
  3 27  1  0  0  0  0
  4 28  1  0  0  0  0
  4  3  2  0  0  0  0
  5  4  1  0  0  0  0
  6  5  2  0  0  0  0
  6  7  1  0  0  0  0
  7  2  2  0  0  0  0
  8  5  1  0  0  0  0
  9  8  1  0  0  0  0
 10  9  2  0  0  0  0
 11 31  1  6  0  0  0
 11  9  1  0  0  0  0
 11 12  1  0  0  0  0
 11 15  1  0  0  0  0
 12 32  1  0  0  0  0
 12 13  1  0  0  0  0
 13  8  1  0  0  0  0
 13 14  2  0  0  0  0
 15 20  1  0  0  0  0
 16 15  1  0  0  0  0
 16 34  1  0  0  0  0
 16 17  1  0  0  0  0
 17 37  1  0  0  0  0
 18 19  1  0  0  0  0
 18 17  1  0  0  0  0
 19 20  1  0  0  0  0
 19 38  1  0  0  0  0
 20 40  1  0  0  0  0
 20 41  1  0  0  0  0
 21 26  1  0  0  0  0
 21 18  1  0  0  0  0
 22 21  2  0  0  0  0
 23 24  2  0  0  0  0
 23 22  1  0  0  0  0
 24 25  1  0  0  0  0
 25 44  1  0  0  0  0
 25 26  2  0  0  0  0
 29  6  1  0  0  0  0
 30  7  1  0  0  0  0
 33 12  1  0  0  0  0
 35 16  1  0  0  0  0
 36 17  1  0  0  0  0
 39 19  1  0  0  0  0
 42 23  1  0  0  0  0
 43 24  1  0  0  0  0
M  END
>  <Pose>
1

>  <Score>
-6.26

$$$$
