
 OpenBabel03172210433D

 40 43  0  0  0  0  0  0  0  0999 V2000
   49.5710    4.3220   46.1460 I   0  0  0  0  0  0  0  0  0  0  0  0
   49.9850    3.3030   44.3750 C   0  0  0  0  0  0  0  0  0  0  0  0
   51.1750    2.6190   44.1250 C   0  0  0  0  0  0  0  0  0  0  0  0
   51.1130    2.1020   42.8970 N   0  0  0  0  0  0  0  0  0  0  0  0
   49.9580    2.4330   42.3900 N   0  0  0  0  0  0  0  0  0  0  0  0
   49.2140    3.1830   43.2710 C   0  0  0  0  0  0  0  0  0  0  0  0
   47.8570    3.6640   42.9510 C   0  0  0  0  0  0  0  0  0  0  0  0
   47.5870    3.7450   41.7030 O   0  0  0  0  0  0  0  0  0  0  0  0
   46.8980    4.0170   43.8910 N   0  0  0  0  0  0  0  0  0  0  0  0
   45.9450    5.0560   43.7900 C   0  0  0  0  0  0  0  0  0  0  0  0
   46.3760    6.2700   43.2470 C   0  0  0  0  0  0  0  0  0  0  0  0
   47.5750    6.6620   42.7810 N   0  0  0  0  0  0  0  0  0  0  0  0
   47.4770    7.8940   42.3770 O   0  0  0  0  0  0  0  0  0  0  0  0
   46.2700    8.3330   42.5560 N   0  0  0  0  0  0  0  0  0  0  0  0
   45.5370    7.3440   43.1030 C   0  0  0  0  0  0  0  0  0  0  0  0
   44.2210    7.2440   43.5010 C   0  0  0  0  0  0  0  0  0  0  0  0
   43.8080    6.0480   44.0320 C   0  0  0  0  0  0  0  0  0  0  0  0
   44.6590    4.9450   44.1840 C   0  0  0  0  0  0  0  0  0  0  0  0
   43.3680    8.3650   43.3440 N   0  0  0  0  0  0  0  0  0  0  0  0
   42.1580    8.2680   42.5550 C   0  0  0  0  0  0  0  0  0  0  0  0
   41.4230    9.5600   42.6310 C   0  0  0  0  0  0  0  0  0  0  0  0
   41.2630   10.0480   43.9140 O   0  0  0  0  0  0  0  0  0  0  0  0
   42.4150   10.2270   44.6120 C   0  0  0  0  0  0  0  0  0  0  0  0
   43.6430    9.6540   43.9490 C   0  0  0  0  0  0  0  0  0  0  0  0
   52.1770    1.3080   42.2660 C   0  0  0  0  0  0  0  0  0  0  0  0
   52.0240    2.5070   44.7950 H   0  0  0  0  0  0  0  0  0  0  0  0
   46.8910    3.4160   44.7740 H   0  0  0  0  0  0  0  0  0  0  0  0
   42.7780    5.9720   44.3430 H   0  0  0  0  0  0  0  0  0  0  0  0
   44.2180    4.0540   44.6160 H   0  0  0  0  0  0  0  0  0  0  0  0
   41.5670    7.4340   42.9870 H   0  0  0  0  0  0  0  0  0  0  0  0
   42.3970    8.0800   41.4770 H   0  0  0  0  0  0  0  0  0  0  0  0
   40.4490    9.4350   42.1180 H   0  0  0  0  0  0  0  0  0  0  0  0
   42.0200   10.3230   42.0620 H   0  0  0  0  0  0  0  0  0  0  0  0
   42.5900   11.3150   44.7410 H   0  0  0  0  0  0  0  0  0  0  0  0
   42.3230    9.8080   45.6510 H   0  0  0  0  0  0  0  0  0  0  0  0
   44.3960    9.4820   44.7460 H   0  0  0  0  0  0  0  0  0  0  0  0
   44.0900   10.3500   43.2170 H   0  0  0  0  0  0  0  0  0  0  0  0
   52.7200    0.7950   43.0670 H   0  0  0  0  0  0  0  0  0  0  0  0
   51.6630    0.5390   41.6460 H   0  0  0  0  0  0  0  0  0  0  0  0
   52.8230    1.9790   41.6770 H   0  0  0  0  0  0  0  0  0  0  0  0
  2  1  1  0  0  0  0
  3  2  2  0  0  0  0
  3 26  1  0  0  0  0
  4  3  1  0  0  0  0
  5  4  1  0  0  0  0
  5  6  2  0  0  0  0
  6  2  1  0  0  0  0
  7  6  1  0  0  0  0
  7  9  1  0  0  0  0
  8  7  2  0  0  0  0
  9 27  1  0  0  0  0
 10  9  1  0  0  0  0
 10 18  2  0  0  0  0
 11 10  1  0  0  0  0
 12 11  2  0  0  0  0
 13 14  1  0  0  0  0
 13 12  1  0  0  0  0
 14 15  2  0  0  0  0
 15 11  1  0  0  0  0
 15 16  1  0  0  0  0
 16 17  2  0  0  0  0
 17 18  1  0  0  0  0
 17 28  1  0  0  0  0
 18 29  1  0  0  0  0
 19 16  1  0  0  0  0
 19 24  1  0  0  0  0
 20 21  1  0  0  0  0
 20 30  1  0  0  0  0
 20 19  1  0  0  0  0
 21 22  1  0  0  0  0
 22 23  1  0  0  0  0
 23 34  1  0  0  0  0
 23 35  1  0  0  0  0
 24 23  1  0  0  0  0
 24 36  1  0  0  0  0
 25  4  1  0  0  0  0
 25 38  1  0  0  0  0
 31 20  1  0  0  0  0
 32 21  1  0  0  0  0
 33 21  1  0  0  0  0
 37 24  1  0  0  0  0
 39 25  1  0  0  0  0
 40 25  1  0  0  0  0
M  END
>  <Pose>
1

>  <Score>
-7.59

$$$$
