
 OpenBabel03172210433D

 44 47  0  0  1  0  0  0  0  0999 V2000
   44.1180    2.4460   43.4060 I   0  0  0  0  0  0  0  0  0  0  0  0
   44.1540    4.5510   43.5060 C   0  0  0  0  0  0  0  0  0  0  0  0
   45.2580    5.3350   43.6640 C   0  0  0  0  0  0  0  0  0  0  0  0
   44.7640    6.6390   43.6680 C   0  0  0  0  0  0  0  0  0  0  0  0
   43.4380    6.6660   43.5220 N   0  0  0  0  0  0  0  0  0  0  0  0
   43.0570    5.3930   43.4220 C   0  0  0  0  0  0  0  0  0  0  0  0
   42.5620    7.7990   43.4760 C   0  0  2  0  0  0  0  0  0  0  0  0
   43.0050    8.8140   42.6360 O   0  0  0  0  0  0  0  0  0  0  0  0
   42.0760    9.8230   42.8720 C   0  0  1  0  0  0  0  0  0  0  0  0
   41.7920    9.8220   44.3560 C   0  0  2  0  0  0  0  0  0  0  0  0
   42.5010    8.5410   44.8130 C   0  0  0  0  0  0  0  0  0  0  0  0
   40.4350    9.6310   44.6220 O   0  0  0  0  0  0  0  0  0  0  0  0
   42.7000   11.1900   42.5550 C   0  0  0  0  0  0  0  0  0  0  0  0
   44.0810   11.1180   42.7790 O   0  0  0  0  0  0  0  0  0  0  0  0
   45.6490    7.6400   43.8110 N   0  0  0  0  0  0  0  0  0  0  0  0
   46.9610    7.3910   43.9450 C   0  0  0  0  0  0  0  0  0  0  0  0
   47.4310    6.1400   43.9410 N   0  0  0  0  0  0  0  0  0  0  0  0
   46.6000    5.0620   43.8000 C   0  0  0  0  0  0  0  0  0  0  0  0
   47.1570    3.7510   43.8020 N   0  0  0  0  0  0  0  0  0  0  0  0
   48.2150    3.4580   42.8940 C   0  0  0  0  0  0  0  0  0  0  0  0
   48.0230    3.7250   41.6810 O   0  0  0  0  0  0  0  0  0  0  0  0
   49.4750    2.8830   43.2760 C   0  0  0  0  0  0  0  0  0  0  0  0
   50.1710    3.3500   44.3560 C   0  0  0  0  0  0  0  0  0  0  0  0
   51.3960    2.8000   44.7420 C   0  0  0  0  0  0  0  0  0  0  0  0
   51.9200    1.7650   44.0250 C   0  0  0  0  0  0  0  0  0  0  0  0
   51.2440    1.2760   42.9370 C   0  0  0  0  0  0  0  0  0  0  0  0
   50.0190    1.8420   42.5680 C   0  0  0  0  0  0  0  0  0  0  0  0
   42.0420    5.0030   43.2910 H   0  0  0  0  0  0  0  0  0  0  0  0
   41.5310    7.5050   43.2450 H   0  0  0  0  0  0  0  0  0  0  0  0
   41.1610    9.6750   42.2620 H   0  0  0  0  0  0  0  0  0  0  0  0
   42.1720   10.7080   44.8790 H   0  0  0  0  0  0  0  0  0  0  0  0
   43.5280    8.8180   45.1080 H   0  0  0  0  0  0  0  0  0  0  0  0
   41.9330    7.9960   45.5690 H   0  0  0  0  0  0  0  0  0  0  0  0
   40.1600    8.8510   44.0480 H   0  0  0  0  0  0  0  0  0  0  0  0
   42.5480   11.4580   41.5020 H   0  0  0  0  0  0  0  0  0  0  0  0
   42.2790   11.9400   43.2350 H   0  0  0  0  0  0  0  0  0  0  0  0
   44.5910   11.3230   41.9330 H   0  0  0  0  0  0  0  0  0  0  0  0
   47.6580    8.2360   44.0610 H   0  0  0  0  0  0  0  0  0  0  0  0
   46.8640    2.9790   44.4070 H   0  0  0  0  0  0  0  0  0  0  0  0
   49.8320    4.1750   44.9890 H   0  0  0  0  0  0  0  0  0  0  0  0
   51.9300    3.1760   45.5910 H   0  0  0  0  0  0  0  0  0  0  0  0
   52.8830    1.2950   44.2880 H   0  0  0  0  0  0  0  0  0  0  0  0
   51.6700    0.4630   42.3860 H   0  0  0  0  0  0  0  0  0  0  0  0
   49.5430    1.4200   41.7150 H   0  0  0  0  0  0  0  0  0  0  0  0
  1  2  1  0  0  0  0
  2  3  1  0  0  0  0
  3  4  2  0  0  0  0
  3 18  1  0  0  0  0
  4 15  1  0  0  0  0
  5  4  1  0  0  0  0
  6  2  2  0  0  0  0
  6  5  1  0  0  0  0
  7 29  1  6  0  0  0
  7  5  1  0  0  0  0
  7 11  1  0  0  0  0
  8  9  1  0  0  0  0
  8  7  1  0  0  0  0
  9 30  1  6  0  0  0
  9 10  1  0  0  0  0
 10 12  1  0  0  0  0
 10 11  1  0  0  0  0
 10 31  1  1  0  0  0
 11 32  1  0  0  0  0
 11 33  1  0  0  0  0
 13 14  1  0  0  0  0
 13  9  1  0  0  0  0
 13 36  1  0  0  0  0
 15 16  2  0  0  0  0
 16 38  1  0  0  0  0
 17 16  1  0  0  0  0
 18 19  1  0  0  0  0
 18 17  2  0  0  0  0
 19 39  1  0  0  0  0
 20 22  1  0  0  0  0
 20 19  1  0  0  0  0
 21 20  2  0  0  0  0
 22 23  1  0  0  0  0
 23 24  2  0  0  0  0
 23 40  1  0  0  0  0
 24 41  1  0  0  0  0
 25 42  1  0  0  0  0
 25 24  1  0  0  0  0
 26 25  2  0  0  0  0
 27 26  1  0  0  0  0
 27 22  2  0  0  0  0
 28  6  1  0  0  0  0
 34 12  1  0  0  0  0
 35 13  1  0  0  0  0
 37 14  1  0  0  0  0
 43 26  1  0  0  0  0
 44 27  1  0  0  0  0
M  END
>  <Pose>
1

>  <Score>
-6.44

$$$$
