
 OpenBabel03172210433D

 48 52  0  0  1  0  0  0  0  0999 V2000
   41.1030    9.8320   43.2300 B   0  0  0  0  0  0  0  0  0  0  0  0
   42.5700    8.6950   43.6600 C   0  0  0  0  0  0  0  0  0  0  0  0
   43.3660    8.2250   42.5850 C   0  0  0  0  0  0  0  0  0  0  0  0
   44.4080    7.3670   42.8110 C   0  0  0  0  0  0  0  0  0  0  0  0
   44.6650    6.9710   44.1050 C   0  0  0  0  0  0  0  0  0  0  0  0
   43.8860    7.4330   45.1420 C   0  0  0  0  0  0  0  0  0  0  0  0
   42.8010    8.3240   44.9430 C   0  0  0  0  0  0  0  0  0  0  0  0
   42.0990    8.7860   46.1190 C   0  0  0  0  0  0  0  0  0  0  0  0
   41.0180    8.3920   46.6930 C   0  0  0  0  0  0  0  0  0  0  0  0
   40.3200    8.8520   47.8790 C   0  0  1  0  0  0  0  0  0  0  0  0
   40.6510    8.6200   49.1270 N   0  0  0  0  0  0  0  0  0  0  0  0
   39.9480    9.2100   50.1400 C   0  0  0  0  0  0  0  0  0  0  0  0
   38.8910   10.0450   49.9430 C   0  0  0  0  0  0  0  0  0  0  0  0
   38.5120   10.3100   48.6450 C   0  0  0  0  0  0  0  0  0  0  0  0
   37.5250   11.0800   48.0690 N   0  0  0  0  0  0  0  0  0  0  0  0
   37.6040   10.9810   46.7530 C   0  0  0  0  0  0  0  0  0  0  0  0
   38.6470   10.1430   46.5020 N   0  0  0  0  0  0  0  0  0  0  0  0
   39.2170    9.7200   47.6370 C   0  0  0  0  0  0  0  0  0  0  0  0
   36.7620   11.5980   45.7210 C   0  0  0  0  0  0  0  0  0  0  0  0
   37.0770   12.7120   45.0170 C   0  0  0  0  0  0  0  0  0  0  0  0
   36.1740   13.2300   44.0690 C   0  0  0  0  0  0  0  0  0  0  0  0
   34.9660   12.6090   43.8510 C   0  0  0  0  0  0  0  0  0  0  0  0
   34.6190   11.4660   44.5580 C   0  0  0  0  0  0  0  0  0  0  0  0
   35.5170   11.0010   45.4610 C   0  0  0  0  0  0  0  0  0  0  0  0
   36.6030   11.8080   48.8940 C   0  0  0  0  0  0  0  0  0  0  0  0
   41.6900    7.7020   49.4870 C   0  0  0  0  0  0  0  0  0  0  0  0
   45.7680    6.1020   44.0590 O   0  0  0  0  0  0  0  0  0  0  0  0
   46.4490    6.4000   42.8570 C   0  0  0  0  0  0  0  0  0  0  0  0
   45.3570    6.7360   42.0020 O   0  0  0  0  0  0  0  0  0  0  0  0
   43.1160    8.5710   41.5960 H   0  0  0  0  0  0  0  0  0  0  0  0
   44.1060    7.1100   46.1570 H   0  0  0  0  0  0  0  0  0  0  0  0
   42.5660    9.6710   46.5920 H   0  0  0  0  0  0  0  0  0  0  0  0
   40.5280    7.5460   46.1670 H   0  0  0  0  0  0  0  0  0  0  0  0
   40.2620    8.9920   51.1590 H   0  0  0  0  0  0  0  0  0  0  0  0
   38.3280   10.5170   50.7360 H   0  0  0  0  0  0  0  0  0  0  0  0
   38.0230   13.2230   45.1470 H   0  0  0  0  0  0  0  0  0  0  0  0
   36.4490   14.1170   43.5240 H   0  0  0  0  0  0  0  0  0  0  0  0
   34.2650   13.0050   43.1210 H   0  0  0  0  0  0  0  0  0  0  0  0
   33.6770   10.9610   44.4050 H   0  0  0  0  0  0  0  0  0  0  0  0
   35.2520   10.1010   46.0230 H   0  0  0  0  0  0  0  0  0  0  0  0
   36.7260   12.8960   48.9000 H   0  0  0  0  0  0  0  0  0  0  0  0
   36.7160   11.4840   49.9890 H   0  0  0  0  0  0  0  0  0  0  0  0
   35.5310   11.5690   48.7110 H   0  0  0  0  0  0  0  0  0  0  0  0
   42.6810    8.1450   49.6490 H   0  0  0  0  0  0  0  0  0  0  0  0
   41.4230    7.3380   50.5550 H   0  0  0  0  0  0  0  0  0  0  0  0
   41.6570    6.7420   48.9360 H   0  0  0  0  0  0  0  0  0  0  0  0
   47.0980    7.2840   43.0280 H   0  0  0  0  0  0  0  0  0  0  0  0
   47.0050    5.5220   42.4640 H   0  0  0  0  0  0  0  0  0  0  0  0
  1  2  1  0  0  0  0
  2  7  1  0  0  0  0
  3  4  1  0  0  0  0
  3  2  2  0  0  0  0
  4  5  2  0  0  0  0
  5  6  1  0  0  0  0
  6 31  1  0  0  0  0
  7  6  2  0  0  0  0
  7  8  1  0  0  0  0
  8 32  1  0  0  0  0
  8  9  2  0  0  0  0
 10  9  1  6  0  0  0
 10 11  1  0  0  0  0
 11 26  1  0  0  0  0
 11 12  1  0  0  0  0
 12 34  1  0  0  0  0
 13 12  2  0  0  0  0
 13 35  1  0  0  0  0
 14 13  1  0  0  0  0
 15 14  1  0  0  0  0
 15 25  1  0  0  0  0
 16 15  1  0  0  0  0
 17 16  2  0  0  0  0
 17 18  1  0  0  0  0
 18 10  1  0  0  0  0
 18 14  2  0  0  0  0
 19 16  1  0  0  0  0
 20 36  1  0  0  0  0
 20 19  2  0  0  0  0
 21 20  1  0  0  0  0
 22 21  2  0  0  0  0
 22 23  1  0  0  0  0
 23 24  2  0  0  0  0
 24 19  1  0  0  0  0
 24 40  1  0  0  0  0
 25 41  1  0  0  0  0
 25 42  1  0  0  0  0
 26 44  1  0  0  0  0
 26 45  1  0  0  0  0
 27  5  1  0  0  0  0
 28 47  1  0  0  0  0
 28 27  1  0  0  0  0
 29  4  1  0  0  0  0
 29 28  1  0  0  0  0
 30  3  1  0  0  0  0
 33  9  1  0  0  0  0
 37 21  1  0  0  0  0
 38 22  1  0  0  0  0
 39 23  1  0  0  0  0
 43 25  1  0  0  0  0
 46 26  1  0  0  0  0
 48 28  1  0  0  0  0
M  END
>  <Pose>
1

>  <Score>
-4.90

$$$$
