
 OpenBabel03172210433D

 35 39  0  0  0  0  0  0  0  0999 V2000
   39.4050    9.0840   43.3620 I   0  0  0  0  0  0  0  0  0  0  0  0
   41.3990    9.6400   43.8150 C   0  0  0  0  0  0  0  0  0  0  0  0
   41.5640   10.8550   44.5010 C   0  0  0  0  0  0  0  0  0  0  0  0
   42.8340   11.2340   44.8030 C   0  0  0  0  0  0  0  0  0  0  0  0
   43.9070   10.4090   44.4220 C   0  0  0  0  0  0  0  0  0  0  0  0
   43.7440    9.2240   43.7530 C   0  0  0  0  0  0  0  0  0  0  0  0
   42.4570    8.8400   43.4480 C   0  0  0  0  0  0  0  0  0  0  0  0
   42.2550    7.6460   42.7710 O   0  0  0  0  0  0  0  0  0  0  0  0
   45.4070    8.0270   43.2100 I   0  0  0  0  0  0  0  0  0  0  0  0
   43.1100   12.4860   45.5180 C   0  0  0  0  0  0  0  0  0  0  0  0
   44.0500   13.2880   44.8290 O   0  0  0  0  0  0  0  0  0  0  0  0
   45.1830   13.5170   45.5650 C   0  0  0  0  0  0  0  0  0  0  0  0
   46.2060   14.1830   45.2550 O   0  0  0  0  0  0  0  0  0  0  0  0
   45.0110   12.8300   46.8380 C   0  0  0  0  0  0  0  0  0  0  0  0
   43.7990   12.2210   46.8190 C   0  0  0  0  0  0  0  0  0  0  0  0
   43.4060   11.4910   47.9470 C   0  0  0  0  0  0  0  0  0  0  0  0
   44.2390   11.4000   49.0380 C   0  0  0  0  0  0  0  0  0  0  0  0
   45.4720   12.0170   49.0590 C   0  0  0  0  0  0  0  0  0  0  0  0
   45.8670   12.7370   47.9580 C   0  0  0  0  0  0  0  0  0  0  0  0
   41.8940   13.2460   45.8520 C   0  0  0  0  0  0  0  0  0  0  0  0
   40.6550   12.8150   45.5230 C   0  0  0  0  0  0  0  0  0  0  0  0
   39.5510   13.5860   45.8700 C   0  0  0  0  0  0  0  0  0  0  0  0
   39.7070   14.7680   46.5370 C   0  0  0  0  0  0  0  0  0  0  0  0
   40.9510   15.2370   46.8880 C   0  0  0  0  0  0  0  0  0  0  0  0
   42.0220   14.4620   46.5350 C   0  0  0  0  0  0  0  0  0  0  0  0
   41.1860   17.0680   47.9210 I   0  0  0  0  0  0  0  0  0  0  0  0
   38.5860   15.5180   46.8730 O   0  0  0  0  0  0  0  0  0  0  0  0
   37.6070   12.9000   45.3490 I   0  0  0  0  0  0  0  0  0  0  0  0
   40.4370   11.6090   44.8370 O   0  0  0  0  0  0  0  0  0  0  0  0
   44.9260   10.7350   44.6770 H   0  0  0  0  0  0  0  0  0  0  0  0
   42.4390   11.0260   47.8910 H   0  0  0  0  0  0  0  0  0  0  0  0
   43.9000   10.8300   49.8820 H   0  0  0  0  0  0  0  0  0  0  0  0
   46.1490   11.9550   49.9200 H   0  0  0  0  0  0  0  0  0  0  0  0
   46.8280   13.2430   47.9190 H   0  0  0  0  0  0  0  0  0  0  0  0
   43.0110   14.8070   46.7990 H   0  0  0  0  0  0  0  0  0  0  0  0
  1  2  1  0  0  0  0
  2  3  1  0  0  0  0
  3  4  2  0  0  0  0
  3 29  1  0  0  0  0
  4 10  1  0  0  0  0
  5 30  1  0  0  0  0
  5  4  1  0  0  0  0
  6  5  2  0  0  0  0
  7  6  1  0  0  0  0
  7  2  2  0  0  0  0
  8  7  1  0  0  0  0
  9  6  1  0  0  0  0
 10 20  1  0  0  0  0
 10 15  1  0  0  0  0
 11 10  1  0  0  0  0
 11 12  1  0  0  0  0
 12 14  1  0  0  0  0
 13 12  2  0  0  0  0
 14 19  1  0  0  0  0
 15 14  2  0  0  0  0
 15 16  1  0  0  0  0
 16 17  2  0  0  0  0
 17 18  1  0  0  0  0
 17 32  1  0  0  0  0
 18 33  1  0  0  0  0
 19 18  2  0  0  0  0
 20 25  1  0  0  0  0
 21 20  2  0  0  0  0
 21 22  1  0  0  0  0
 22 23  2  0  0  0  0
 23 27  1  0  0  0  0
 23 24  1  0  0  0  0
 24 26  1  0  0  0  0
 25 35  1  0  0  0  0
 25 24  2  0  0  0  0
 28 22  1  0  0  0  0
 29 21  1  0  0  0  0
 31 16  1  0  0  0  0
 34 19  1  0  0  0  0
M  END
>  <Pose>
1

>  <Score>
-4.41

$$$$
