
 OpenBabel03172210433D

 38 41  0  0  0  0  0  0  0  0999 V2000
   43.4610   11.7850   48.5530 S   0  0  0  0  0  0  0  0  0  0  0  0
   43.3370   12.2130   49.9890 O   0  0  0  0  0  0  0  0  0  0  0  0
   42.4260   10.7260   48.2640 O   0  0  0  0  0  0  0  0  0  0  0  0
   45.0160   11.1890   48.3240 O   0  0  0  0  0  0  0  0  0  0  0  0
   43.1880   13.1820   47.6010 O   0  0  0  0  0  0  0  0  0  0  0  0
   44.0910   13.5730   46.6180 C   0  0  0  0  0  0  0  0  0  0  0  0
   44.8450   14.7500   46.7090 C   0  0  0  0  0  0  0  0  0  0  0  0
   45.6040   14.7700   45.5600 C   0  0  0  0  0  0  0  0  0  0  0  0
   45.3160   13.6770   44.8390 N   0  0  0  0  0  0  0  0  0  0  0  0
   44.3760   12.9010   45.4590 C   0  0  0  0  0  0  0  0  0  0  0  0
   43.8140   11.6670   44.9210 C   0  0  0  0  0  0  0  0  0  0  0  0
   44.5780   10.7000   44.3450 N   0  0  0  0  0  0  0  0  0  0  0  0
   43.8150    9.6810   43.9210 C   0  0  0  0  0  0  0  0  0  0  0  0
   42.4980    9.9580   44.2130 C   0  0  0  0  0  0  0  0  0  0  0  0
   42.5360   11.2100   44.8370 C   0  0  0  0  0  0  0  0  0  0  0  0
   41.3940   11.8500   45.2820 O   0  0  0  0  0  0  0  0  0  0  0  0
   40.2480   12.5220   44.2130 S   0  0  0  0  0  0  0  0  0  0  0  0
   40.4690   12.0300   42.8120 O   0  0  0  0  0  0  0  0  0  0  0  0
   40.3300   14.0210   44.1800 O   0  0  0  0  0  0  0  0  0  0  0  0
   38.6840   12.1440   44.7530 O   0  0  0  0  0  0  0  0  0  0  0  0
   41.4740    9.0890   43.8950 C   0  0  0  0  0  0  0  0  0  0  0  0
   41.7460    7.8870   43.2590 C   0  0  0  0  0  0  0  0  0  0  0  0
   43.0660    7.5930   42.9590 C   0  0  0  0  0  0  0  0  0  0  0  0
   44.0760    8.4750   43.2850 C   0  0  0  0  0  0  0  0  0  0  0  0
   45.8710    8.0080   42.8430 B   0  0  0  0  0  0  0  0  0  0  0  0
   40.3400    6.6650   42.8070 B   0  0  0  0  0  0  0  0  0  0  0  0
   46.4750   15.8370   45.3560 C   0  0  0  0  0  0  0  0  0  0  0  0
   46.5520   16.8310   46.2930 C   0  0  0  0  0  0  0  0  0  0  0  0
   45.7850   16.8150   47.4620 C   0  0  0  0  0  0  0  0  0  0  0  0
   44.9120   15.7410   47.6630 C   0  0  0  0  0  0  0  0  0  0  0  0
   45.9390   18.2250   48.7240 B   0  0  0  0  0  0  0  0  0  0  0  0
   47.5310   15.8920   43.7850 B   0  0  0  0  0  0  0  0  0  0  0  0
   45.7500   13.4280   43.9050 H   0  0  0  0  0  0  0  0  0  0  0  0
   45.6160   10.7150   44.2330 H   0  0  0  0  0  0  0  0  0  0  0  0
   40.4720    9.3540   44.1430 H   0  0  0  0  0  0  0  0  0  0  0  0
   43.2790    6.6420   42.4550 H   0  0  0  0  0  0  0  0  0  0  0  0
   47.2160   17.6760   46.1710 H   0  0  0  0  0  0  0  0  0  0  0  0
   44.3000   15.6970   48.5570 H   0  0  0  0  0  0  0  0  0  0  0  0
  1  2  1  0  0  0  0
  3  1  1  0  0  0  0
  4  1  1  0  0  0  0
  5  1  1  0  0  0  0
  6  7  1  0  0  0  0
  6  5  1  0  0  0  0
  7 30  1  0  0  0  0
  8  7  2  0  0  0  0
  9 10  1  0  0  0  0
  9  8  1  0  0  0  0
 10  6  2  0  0  0  0
 11 10  1  0  0  0  0
 12 11  1  0  0  0  0
 13 14  1  0  0  0  0
 13 12  1  0  0  0  0
 14 15  1  0  0  0  0
 15 11  2  0  0  0  0
 15 16  1  0  0  0  0
 17 20  1  0  0  0  0
 17 16  1  0  0  0  0
 18 17  1  0  0  0  0
 19 17  1  0  0  0  0
 21 35  1  0  0  0  0
 21 14  2  0  0  0  0
 22 21  1  0  0  0  0
 23 22  2  0  0  0  0
 23 24  1  0  0  0  0
 24 13  2  0  0  0  0
 25 24  1  0  0  0  0
 26 22  1  0  0  0  0
 27  8  1  0  0  0  0
 27 28  2  0  0  0  0
 28 29  1  0  0  0  0
 29 30  2  0  0  0  0
 29 31  1  0  0  0  0
 30 38  1  0  0  0  0
 32 27  1  0  0  0  0
 33  9  1  0  0  0  0
 34 12  1  0  0  0  0
 36 23  1  0  0  0  0
 37 28  1  0  0  0  0
M  END
>  <Pose>
1

>  <Score>
-6.88

$$$$
