
 OpenBabel03172210433D

 52 55  0  0  1  0  0  0  0  0999 V2000
   39.1280   10.3090   45.9880 S   0  0  0  0  0  0  0  0  0  0  0  0
   39.8840   10.5300   44.3790 C   0  0  1  0  0  0  0  0  0  0  0  0
   41.0470   11.3440   44.5370 N   0  0  0  0  0  0  0  0  0  0  0  0
   41.4070   12.2140   45.6140 C   0  0  0  0  0  0  0  0  0  0  0  0
   40.5170   12.5520   46.4930 C   0  0  0  0  0  0  0  0  0  0  0  0
   39.0580   12.0750   46.4640 C   0  0  0  0  0  0  0  0  0  0  0  0
   40.7330   13.4100   47.6310 C   0  0  0  0  0  0  0  0  0  0  0  0
   41.1420   14.6970   47.5290 O   0  0  0  0  0  0  0  0  0  0  0  0
   40.2730   15.7650   47.2740 C   0  0  0  0  0  0  0  0  0  0  0  0
   39.1570   15.4860   46.7980 O   0  0  0  0  0  0  0  0  0  0  0  0
   40.7470   17.1340   47.5870 C   0  0  0  0  0  0  0  0  0  0  0  0
   42.8260   12.6750   45.6280 C   0  0  0  0  0  0  0  0  0  0  0  0
   43.4530   13.0620   46.5910 O   0  0  0  0  0  0  0  0  0  0  0  0
   43.5440   12.6770   44.4170 O   0  0  0  0  0  0  0  0  0  0  0  0
   41.4280   10.7970   43.2870 C   0  0  0  0  0  0  0  0  0  0  0  0
   41.9850   11.0400   42.2100 O   0  0  0  0  0  0  0  0  0  0  0  0
   40.7900    9.5210   43.8110 C   0  0  1  0  0  0  0  0  0  0  0  0
   41.7370    8.8900   44.6720 N   0  0  0  0  0  0  0  0  0  0  0  0
   42.4000    7.7170   44.2340 C   0  0  0  0  0  0  0  0  0  0  0  0
   41.7670    6.6270   44.2650 O   0  0  0  0  0  0  0  0  0  0  0  0
   43.7840    7.7370   43.7520 C   0  0  0  0  0  0  0  0  0  0  0  0
   44.6020    6.7520   43.5510 O   0  0  0  0  0  0  0  0  0  0  0  0
   45.7550    7.1460   43.1180 C   0  0  0  0  0  0  0  0  0  0  0  0
   45.7070    8.5410   43.0180 C   0  0  0  0  0  0  0  0  0  0  0  0
   44.4490    8.8980   43.4250 C   0  0  0  0  0  0  0  0  0  0  0  0
   46.9600    6.3080   42.7690 C   0  0  0  0  0  0  0  0  0  0  0  0
   47.0120    5.1520   43.5650 O   0  0  0  0  0  0  0  0  0  0  0  0
   47.9740    4.1850   43.5180 C   0  0  0  0  0  0  0  0  0  0  0  0
   49.0100    4.0560   44.4390 C   0  0  0  0  0  0  0  0  0  0  0  0
   49.9270    3.0390   44.2970 C   0  0  0  0  0  0  0  0  0  0  0  0
   49.8840    2.1180   43.2760 C   0  0  0  0  0  0  0  0  0  0  0  0
   48.8570    2.2380   42.3560 C   0  0  0  0  0  0  0  0  0  0  0  0
   47.9280    3.2620   42.4940 C   0  0  0  0  0  0  0  0  0  0  0  0
   51.1830    0.7290   43.1300 B   0  0  0  0  0  0  0  0  0  0  0  0
   39.2040   10.9300   43.5950 H   0  0  0  0  0  0  0  0  0  0  0  0
   38.5640   12.1970   47.4200 H   0  0  0  0  0  0  0  0  0  0  0  0
   38.5770   12.6660   45.6660 H   0  0  0  0  0  0  0  0  0  0  0  0
   39.7470   13.4360   48.2610 H   0  0  0  0  0  0  0  0  0  0  0  0
   41.4450   12.8640   48.3750 H   0  0  0  0  0  0  0  0  0  0  0  0
   41.8560   17.1610   47.5930 H   0  0  0  0  0  0  0  0  0  0  0  0
   40.4020   17.4420   48.6190 H   0  0  0  0  0  0  0  0  0  0  0  0
   40.3680   17.8900   46.8820 H   0  0  0  0  0  0  0  0  0  0  0  0
   40.4060    8.8680   43.0100 H   0  0  0  0  0  0  0  0  0  0  0  0
   41.9820    9.2440   45.6310 H   0  0  0  0  0  0  0  0  0  0  0  0
   46.5370    9.1530   42.6780 H   0  0  0  0  0  0  0  0  0  0  0  0
   44.0790    9.9140   43.4690 H   0  0  0  0  0  0  0  0  0  0  0  0
   47.8860    6.9180   42.8410 H   0  0  0  0  0  0  0  0  0  0  0  0
   46.8820    5.9820   41.7110 H   0  0  0  0  0  0  0  0  0  0  0  0
   49.0740    4.7590   45.2420 H   0  0  0  0  0  0  0  0  0  0  0  0
   50.7180    2.9640   45.0220 H   0  0  0  0  0  0  0  0  0  0  0  0
   48.8160    1.5180   41.5520 H   0  0  0  0  0  0  0  0  0  0  0  0
   47.1510    3.2810   41.7240 H   0  0  0  0  0  0  0  0  0  0  0  0
  1  6  1  0  0  0  0
  2 35  1  6  0  0  0
  2  3  1  0  0  0  0
  2  1  1  0  0  0  0
  3  4  1  0  0  0  0
  4 12  1  0  0  0  0
  4  5  2  0  0  0  0
  5  7  1  0  0  0  0
  6  5  1  0  0  0  0
  6 36  1  0  0  0  0
  7 38  1  0  0  0  0
  7 39  1  0  0  0  0
  8  7  1  0  0  0  0
  9  8  1  0  0  0  0
  9 11  1  0  0  0  0
 10  9  2  0  0  0  0
 11 40  1  0  0  0  0
 11 41  1  0  0  0  0
 12 13  1  0  0  0  0
 14 12  2  0  0  0  0
 15 17  1  0  0  0  0
 15  3  1  0  0  0  0
 16 15  2  0  0  0  0
 17 43  1  6  0  0  0
 17  2  1  0  0  0  0
 17 18  1  0  0  0  0
 18 44  1  0  0  0  0
 19 20  2  0  0  0  0
 19 18  1  0  0  0  0
 21 19  1  0  0  0  0
 22 21  1  0  0  0  0
 23 22  1  0  0  0  0
 24 23  2  0  0  0  0
 24 25  1  0  0  0  0
 25 46  1  0  0  0  0
 25 21  2  0  0  0  0
 26 47  1  0  0  0  0
 26 23  1  0  0  0  0
 26 27  1  0  0  0  0
 28 27  1  0  0  0  0
 28 29  1  0  0  0  0
 29 49  1  0  0  0  0
 30 29  2  0  0  0  0
 30 50  1  0  0  0  0
 31 30  1  0  0  0  0
 32 33  1  0  0  0  0
 32 31  2  0  0  0  0
 33 28  2  0  0  0  0
 34 31  1  0  0  0  0
 37  6  1  0  0  0  0
 42 11  1  0  0  0  0
 45 24  1  0  0  0  0
 48 26  1  0  0  0  0
 51 32  1  0  0  0  0
 52 33  1  0  0  0  0
M  END
>  <Pose>
1

>  <Score>
-6.08

$$$$
