
 OpenBabel03172210433D

 33 36  0  0  1  0  0  0  0  0999 V2000
   50.8930    1.7080   43.1470 P   0  0  2  0  0  0  0  0  0  0  0  0
   52.0160    1.3660   42.1660 O   0  0  0  0  0  0  0  0  0  0  0  0
   49.5830    2.2460   42.2460 O   0  0  0  0  0  0  0  0  0  0  0  0
   49.0440    3.3960   42.7620 C   0  0  2  0  0  0  0  0  0  0  0  0
   49.2030    3.3090   44.2860 C   0  0  2  0  0  0  0  0  0  0  0  0
   48.1860    4.0430   44.8190 O   0  0  0  0  0  0  0  0  0  0  0  0
   47.1410    4.1010   43.9400 C   0  0  2  0  0  0  0  0  0  0  0  0
   47.5450    3.4820   42.6470 C   0  0  2  0  0  0  0  0  0  0  0  0
   47.0060    2.2280   42.4360 O   0  0  0  0  0  0  0  0  0  0  0  0
   46.7570    5.5000   43.7990 N   0  0  0  0  0  0  0  0  0  0  0  0
   45.4980    5.9900   43.8910 C   0  0  0  0  0  0  0  0  0  0  0  0
   44.3280    5.3720   44.1240 N   0  0  0  0  0  0  0  0  0  0  0  0
   43.1970    6.0960   44.1680 C   0  0  0  0  0  0  0  0  0  0  0  0
   43.2480    7.4270   43.9800 N   0  0  0  0  0  0  0  0  0  0  0  0
   44.3790    8.1100   43.7450 C   0  0  0  0  0  0  0  0  0  0  0  0
   45.5470    7.3540   43.7000 C   0  0  0  0  0  0  0  0  0  0  0  0
   46.8170    7.6930   43.4940 N   0  0  0  0  0  0  0  0  0  0  0  0
   47.5420    6.5610   43.5550 C   0  0  0  0  0  0  0  0  0  0  0  0
   49.4520    6.4020   43.3360 B   0  0  0  0  0  0  0  0  0  0  0  0
   44.4440    9.5150   43.5460 N   0  0  0  0  0  0  0  0  0  0  0  0
   50.5800    3.8070   44.5890 C   0  0  0  0  0  0  0  0  0  0  0  0
   51.4890    2.8490   44.2100 O   0  0  0  0  0  0  0  0  0  0  0  0
   50.5030    0.2410   43.9340 O   0  0  0  0  0  0  0  0  0  0  0  0
   49.4900    4.3210   42.3860 H   0  0  0  0  0  0  0  0  0  0  0  0
   49.1040    2.2560   44.6290 H   0  0  0  0  0  0  0  0  0  0  0  0
   46.2730    3.4990   44.3360 H   0  0  0  0  0  0  0  0  0  0  0  0
   47.2430    4.1280   41.7970 H   0  0  0  0  0  0  0  0  0  0  0  0
   46.5980    1.8370   43.2250 H   0  0  0  0  0  0  0  0  0  0  0  0
   42.2240    5.6090   44.3570 H   0  0  0  0  0  0  0  0  0  0  0  0
   43.6000    9.9940   43.1130 H   0  0  0  0  0  0  0  0  0  0  0  0
   45.2480   10.1000   43.7930 H   0  0  0  0  0  0  0  0  0  0  0  0
   50.7630    4.7030   43.9260 H   0  0  0  0  0  0  0  0  0  0  0  0
   50.7090    4.1760   45.6170 H   0  0  0  0  0  0  0  0  0  0  0  0
  1  2  2  6  0  0  0
  1 23  1  0  0  0  0
  1 22  1  0  0  0  0
  3  4  1  0  0  0  0
  3  1  1  0  0  0  0
  4 24  1  6  0  0  0
  4  5  1  0  0  0  0
  5 21  1  0  0  0  0
  5 25  1  1  0  0  0
  5  6  1  0  0  0  0
  7 26  1  1  0  0  0
  7  6  1  0  0  0  0
  8 27  1  6  0  0  0
  8  4  1  0  0  0  0
  8  7  1  0  0  0  0
  9  8  1  0  0  0  0
  9 28  1  0  0  0  0
 10 11  1  0  0  0  0
 10  7  1  0  0  0  0
 11 12  1  0  0  0  0
 12 13  2  0  0  0  0
 13 29  1  0  0  0  0
 14 13  1  0  0  0  0
 15 14  2  0  0  0  0
 16 15  1  0  0  0  0
 16 11  2  0  0  0  0
 17 18  2  0  0  0  0
 17 16  1  0  0  0  0
 18 10  1  0  0  0  0
 19 18  1  0  0  0  0
 20 15  1  0  0  0  0
 20 31  1  0  0  0  0
 21 33  1  0  0  0  0
 22 21  1  0  0  0  0
 30 20  1  0  0  0  0
 32 21  1  0  0  0  0
M  END
>  <Pose>
1

>  <Score>
-6.12

$$$$
