
 OpenBabel03172210433D

 47 50  0  0  1  0  0  0  0  0999 V2000
   46.9210    4.8530   43.1970 S   0  0  0  0  0  0  0  0  0  0  0  0
   47.7430    4.8010   41.9260 O   0  0  0  0  0  0  0  0  0  0  0  0
   46.3130    3.4920   43.4260 O   0  0  0  0  0  0  0  0  0  0  0  0
   47.9870    5.2830   44.4700 N   0  0  0  0  0  0  0  0  0  0  0  0
   45.6820    6.0590   43.0140 C   0  0  0  0  0  0  0  0  0  0  0  0
   44.5960    6.0530   43.8590 C   0  0  0  0  0  0  0  0  0  0  0  0
   43.5780    6.9950   43.7550 C   0  0  0  0  0  0  0  0  0  0  0  0
   43.6880    7.9480   42.7670 C   0  0  0  0  0  0  0  0  0  0  0  0
   44.7850    7.9610   41.9060 C   0  0  0  0  0  0  0  0  0  0  0  0
   45.7840    7.0210   42.0250 C   0  0  0  0  0  0  0  0  0  0  0  0
   42.3420    9.2660   42.5620 B   0  0  0  0  0  0  0  0  0  0  0  0
   42.4400    6.9750   44.6520 C   0  0  0  0  0  0  0  0  0  0  0  0
   41.4360    6.2810   44.3530 O   0  0  0  0  0  0  0  0  0  0  0  0
   42.4500    7.7280   45.8630 N   0  0  0  0  0  0  0  0  0  0  0  0
   43.4670    8.7300   46.0980 C   0  0  0  0  0  0  0  0  0  0  0  0
   42.9360    9.9670   46.7540 C   0  0  2  0  0  0  0  0  0  0  0  0
   41.4130    9.9290   46.6030 C   0  0  0  0  0  0  0  0  0  0  0  0
   40.9460    8.7900   47.4810 C   0  0  0  0  0  0  0  0  0  0  0  0
   41.4510    7.5060   46.8750 C   0  0  0  0  0  0  0  0  0  0  0  0
   43.4970   11.2290   46.1740 C   0  0  0  0  0  0  0  0  0  0  0  0
   44.2140   12.1740   46.8370 N   0  0  0  0  0  0  0  0  0  0  0  0
   44.5540   13.1640   46.0070 C   0  0  0  0  0  0  0  0  0  0  0  0
   44.0250   12.8070   44.7990 N   0  0  0  0  0  0  0  0  0  0  0  0
   43.3960   11.6530   44.9050 N   0  0  0  0  0  0  0  0  0  0  0  0
   45.3440   14.2300   46.6900 C   0  0  0  0  0  0  0  0  0  0  0  0
   45.7170   13.5600   47.9770 C   0  0  0  0  0  0  0  0  0  0  0  0
   44.7220   12.4360   48.1720 C   0  0  0  0  0  0  0  0  0  0  0  0
   47.5810    5.0600   45.4100 H   0  0  0  0  0  0  0  0  0  0  0  0
   48.2260    6.3050   44.4150 H   0  0  0  0  0  0  0  0  0  0  0  0
   44.5600    5.2680   44.6300 H   0  0  0  0  0  0  0  0  0  0  0  0
   44.8200    8.7320   41.1500 H   0  0  0  0  0  0  0  0  0  0  0  0
   46.6380    7.0140   41.3710 H   0  0  0  0  0  0  0  0  0  0  0  0
   44.0740    8.9440   45.1980 H   0  0  0  0  0  0  0  0  0  0  0  0
   44.1890    8.2650   46.8300 H   0  0  0  0  0  0  0  0  0  0  0  0
   43.1060    9.9980   47.8490 H   0  0  0  0  0  0  0  0  0  0  0  0
   40.9770   10.8970   46.9020 H   0  0  0  0  0  0  0  0  0  0  0  0
   41.1480    9.7060   45.5550 H   0  0  0  0  0  0  0  0  0  0  0  0
   41.3670    8.9550   48.5080 H   0  0  0  0  0  0  0  0  0  0  0  0
   39.8410    8.8300   47.5440 H   0  0  0  0  0  0  0  0  0  0  0  0
   40.5620    7.0280   46.3750 H   0  0  0  0  0  0  0  0  0  0  0  0
   41.8020    6.8140   47.6770 H   0  0  0  0  0  0  0  0  0  0  0  0
   46.2810   14.4670   46.1280 H   0  0  0  0  0  0  0  0  0  0  0  0
   44.7010   15.1220   46.8270 H   0  0  0  0  0  0  0  0  0  0  0  0
   46.7640   13.1510   47.9680 H   0  0  0  0  0  0  0  0  0  0  0  0
   45.6510   14.3080   48.8020 H   0  0  0  0  0  0  0  0  0  0  0  0
   43.9340   12.8210   48.8510 H   0  0  0  0  0  0  0  0  0  0  0  0
   45.1820   11.5690   48.6430 H   0  0  0  0  0  0  0  0  0  0  0  0
  1  3  2  0  0  0  0
  1  4  1  0  0  0  0
  2  1  2  0  0  0  0
  4 28  1  0  0  0  0
  5  1  1  0  0  0  0
  5  6  1  0  0  0  0
  6 30  1  0  0  0  0
  7  6  2  0  0  0  0
  7 12  1  0  0  0  0
  8  7  1  0  0  0  0
  9 10  1  0  0  0  0
  9  8  2  0  0  0  0
 10  5  2  0  0  0  0
 11  8  1  0  0  0  0
 12 14  1  0  0  0  0
 13 12  2  0  0  0  0
 14 15  1  0  0  0  0
 14 19  1  0  0  0  0
 15 16  1  0  0  0  0
 15 34  1  0  0  0  0
 16 35  1  1  0  0  0
 17 16  1  0  0  0  0
 17 36  1  0  0  0  0
 17 18  1  0  0  0  0
 18 39  1  0  0  0  0
 18 38  1  0  0  0  0
 19 18  1  0  0  0  0
 19 41  1  0  0  0  0
 20 16  1  0  0  0  0
 20 21  1  0  0  0  0
 21 27  1  0  0  0  0
 22 25  1  0  0  0  0
 22 21  1  0  0  0  0
 23 24  1  0  0  0  0
 23 22  2  0  0  0  0
 24 20  2  0  0  0  0
 25 43  1  0  0  0  0
 25 26  1  0  0  0  0
 26 27  1  0  0  0  0
 26 45  1  0  0  0  0
 27 47  1  0  0  0  0
 27 46  1  0  0  0  0
 29  4  1  0  0  0  0
 31  9  1  0  0  0  0
 32 10  1  0  0  0  0
 33 15  1  0  0  0  0
 37 17  1  0  0  0  0
 40 19  1  0  0  0  0
 42 25  1  0  0  0  0
 44 26  1  0  0  0  0
M  END
>  <Pose>
1

>  <Score>
-5.92

$$$$
