
 OpenBabel03172210433D

 54 57  0  0  0  0  0  0  0  0999 V2000
   43.5780    7.4900   43.8830 S   0  0  0  0  0  0  0  0  0  0  0  0
   43.4560    6.0100   44.2240 O   0  0  0  0  0  0  0  0  0  0  0  0
   43.1860    7.6160   42.4500 O   0  0  0  0  0  0  0  0  0  0  0  0
   45.2320    7.8940   44.1450 N   0  0  0  0  0  0  0  0  0  0  0  0
   46.0760    7.5550   43.0170 C   0  0  0  0  0  0  0  0  0  0  0  0
   46.9870    6.4320   43.4890 C   0  0  0  0  0  0  0  0  0  0  0  0
   46.5670    5.1140   42.8960 C   0  0  0  0  0  0  0  0  0  0  0  0
   47.6920    4.2560   42.8410 N   0  0  0  0  0  0  0  0  0  0  0  0
   48.2260    3.8280   44.0840 C   0  0  0  0  0  0  0  0  0  0  0  0
   49.6590    3.3760   43.8600 C   0  0  0  0  0  0  0  0  0  0  0  0
   49.7810    2.6300   42.7050 O   0  0  0  0  0  0  0  0  0  0  0  0
   48.5730    2.1220   42.2420 C   0  0  0  0  0  0  0  0  0  0  0  0
   47.7360    3.3190   41.7800 C   0  0  0  0  0  0  0  0  0  0  0  0
   42.5440    8.4250   44.9300 C   0  0  0  0  0  0  0  0  0  0  0  0
   42.6120    8.2370   46.3140 C   0  0  0  0  0  0  0  0  0  0  0  0
   41.8000    8.9620   47.1590 C   0  0  0  0  0  0  0  0  0  0  0  0
   40.8930    9.8970   46.6940 C   0  0  0  0  0  0  0  0  0  0  0  0
   40.8190   10.0880   45.3430 C   0  0  0  0  0  0  0  0  0  0  0  0
   41.6390    9.3560   44.4790 C   0  0  0  0  0  0  0  0  0  0  0  0
   41.5360    9.6380   42.5850 B   0  0  0  0  0  0  0  0  0  0  0  0
   40.1840   10.5120   47.8520 C   0  0  0  0  0  0  0  0  0  0  0  0
   41.1470   10.1880   49.0140 C   0  0  0  0  0  0  0  0  0  0  0  0
   41.7090    8.9150   48.5950 N   0  0  0  0  0  0  0  0  0  0  0  0
   42.1050    7.8010   49.3720 C   0  0  0  0  0  0  0  0  0  0  0  0
   41.7900    6.6240   49.0820 O   0  0  0  0  0  0  0  0  0  0  0  0
   42.9260    8.0350   50.5830 C   0  0  0  0  0  0  0  0  0  0  0  0
   44.3640    8.2360   50.3290 C   0  0  0  0  0  0  0  0  0  0  0  0
   43.8830    7.0010   51.0500 C   0  0  0  0  0  0  0  0  0  0  0  0
   45.2850    8.9100   44.3570 H   0  0  0  0  0  0  0  0  0  0  0  0
   46.6360    8.4090   42.6130 H   0  0  0  0  0  0  0  0  0  0  0  0
   45.3920    7.0870   42.2520 H   0  0  0  0  0  0  0  0  0  0  0  0
   48.0520    6.6330   43.2270 H   0  0  0  0  0  0  0  0  0  0  0  0
   46.8320    6.3620   44.5930 H   0  0  0  0  0  0  0  0  0  0  0  0
   46.1870    5.2490   41.8470 H   0  0  0  0  0  0  0  0  0  0  0  0
   45.7460    4.6730   43.4760 H   0  0  0  0  0  0  0  0  0  0  0  0
   47.6540    2.9510   44.4400 H   0  0  0  0  0  0  0  0  0  0  0  0
   48.1800    4.6680   44.7980 H   0  0  0  0  0  0  0  0  0  0  0  0
   50.3170    4.2690   43.7730 H   0  0  0  0  0  0  0  0  0  0  0  0
   50.0120    2.8300   44.7620 H   0  0  0  0  0  0  0  0  0  0  0  0
   48.7930    1.4340   41.4050 H   0  0  0  0  0  0  0  0  0  0  0  0
   48.0240    1.5420   43.0150 H   0  0  0  0  0  0  0  0  0  0  0  0
   48.1520    3.6930   40.8410 H   0  0  0  0  0  0  0  0  0  0  0  0
   46.7310    2.8910   41.5520 H   0  0  0  0  0  0  0  0  0  0  0  0
   43.3250    7.5000   46.6960 H   0  0  0  0  0  0  0  0  0  0  0  0
   40.1330   10.8020   44.8960 H   0  0  0  0  0  0  0  0  0  0  0  0
   39.2020   10.0760   48.0440 H   0  0  0  0  0  0  0  0  0  0  0  0
   40.1010   11.6030   47.7800 H   0  0  0  0  0  0  0  0  0  0  0  0
   41.9850   10.9150   49.0130 H   0  0  0  0  0  0  0  0  0  0  0  0
   40.6130   10.1570   49.9610 H   0  0  0  0  0  0  0  0  0  0  0  0
   42.4470    8.6590   51.3830 H   0  0  0  0  0  0  0  0  0  0  0  0
   44.8120    7.9790   49.3300 H   0  0  0  0  0  0  0  0  0  0  0  0
   44.9420    8.9930   50.8590 H   0  0  0  0  0  0  0  0  0  0  0  0
   43.9360    6.0070   50.5820 H   0  0  0  0  0  0  0  0  0  0  0  0
   44.1330    7.0070   52.1300 H   0  0  0  0  0  0  0  0  0  0  0  0
  1  4  1  0  0  0  0
  1  2  2  0  0  0  0
  1 14  1  0  0  0  0
  3  1  2  0  0  0  0
  4 29  1  0  0  0  0
  5  6  1  0  0  0  0
  5  4  1  0  0  0  0
  6 33  1  0  0  0  0
  7 35  1  0  0  0  0
  7  6  1  0  0  0  0
  8  7  1  0  0  0  0
  8  9  1  0  0  0  0
  9 36  1  0  0  0  0
  9 37  1  0  0  0  0
 10  9  1  0  0  0  0
 10 39  1  0  0  0  0
 11 10  1  0  0  0  0
 12 11  1  0  0  0  0
 12 41  1  0  0  0  0
 13 12  1  0  0  0  0
 13  8  1  0  0  0  0
 14 15  1  0  0  0  0
 15 44  1  0  0  0  0
 15 16  2  0  0  0  0
 16 23  1  0  0  0  0
 17 16  1  0  0  0  0
 17 21  1  0  0  0  0
 18 17  2  0  0  0  0
 19 14  2  0  0  0  0
 19 18  1  0  0  0  0
 20 19  1  0  0  0  0
 21 46  1  0  0  0  0
 21 22  1  0  0  0  0
 22 49  1  0  0  0  0
 23 22  1  0  0  0  0
 23 24  1  0  0  0  0
 24 26  1  0  0  0  0
 25 24  2  0  0  0  0
 26 28  1  0  0  0  0
 26 50  1  0  0  0  0
 27 26  1  0  0  0  0
 27 52  1  0  0  0  0
 27 28  1  0  0  0  0
 28 54  1  0  0  0  0
 30  5  1  0  0  0  0
 31  5  1  0  0  0  0
 32  6  1  0  0  0  0
 34  7  1  0  0  0  0
 38 10  1  0  0  0  0
 40 12  1  0  0  0  0
 42 13  1  0  0  0  0
 43 13  1  0  0  0  0
 45 18  1  0  0  0  0
 47 21  1  0  0  0  0
 48 22  1  0  0  0  0
 51 27  1  0  0  0  0
 53 28  1  0  0  0  0
M  END
>  <Pose>
1

>  <Score>
-6.20

$$$$
