
 OpenBabel03172210433D

 54 57  0  0  0  0  0  0  0  0999 V2000
   45.9130    7.1260   42.9090 S   0  0  0  0  0  0  0  0  0  0  0  0
   46.3940    8.5770   42.8960 O   0  0  0  0  0  0  0  0  0  0  0  0
   45.9540    6.7100   41.4570 O   0  0  0  0  0  0  0  0  0  0  0  0
   44.3370    7.1210   43.4780 N   0  0  0  0  0  0  0  0  0  0  0  0
   43.3440    7.8950   42.8840 C   0  0  0  0  0  0  0  0  0  0  0  0
   43.2390    9.2870   43.3760 C   0  0  0  0  0  0  0  0  0  0  0  0
   42.7850   10.1990   42.6440 O   0  0  0  0  0  0  0  0  0  0  0  0
   43.6780    9.5190   44.7100 N   0  0  0  0  0  0  0  0  0  0  0  0
   43.8980    8.3720   45.5140 C   0  0  0  0  0  0  0  0  0  0  0  0
   43.7860    8.4930   46.7660 O   0  0  0  0  0  0  0  0  0  0  0  0
   44.2510    7.0610   44.9310 C   0  0  0  0  0  0  0  0  0  0  0  0
   43.8740   10.8690   45.1930 C   0  0  0  0  0  0  0  0  0  0  0  0
   42.8170   11.3590   46.1210 C   0  0  0  0  0  0  0  0  0  0  0  0
   41.6450   11.9660   45.4920 C   0  0  0  0  0  0  0  0  0  0  0  0
   40.7590   11.2400   44.7470 C   0  0  0  0  0  0  0  0  0  0  0  0
   39.6850   11.8700   44.1820 C   0  0  0  0  0  0  0  0  0  0  0  0
   39.4640   13.2340   44.3430 C   0  0  0  0  0  0  0  0  0  0  0  0
   40.3650   13.9380   45.0930 C   0  0  0  0  0  0  0  0  0  0  0  0
   41.4550   13.3360   45.6740 C   0  0  0  0  0  0  0  0  0  0  0  0
   47.0900    6.2310   43.8300 C   0  0  0  0  0  0  0  0  0  0  0  0
   47.4680    6.7270   45.0840 C   0  0  0  0  0  0  0  0  0  0  0  0
   48.4330    6.1500   45.8780 C   0  0  0  0  0  0  0  0  0  0  0  0
   49.0880    5.0160   45.4490 C   0  0  0  0  0  0  0  0  0  0  0  0
   48.7290    4.5140   44.2230 C   0  0  0  0  0  0  0  0  0  0  0  0
   47.7430    5.1060   43.4170 C   0  0  0  0  0  0  0  0  0  0  0  0
   47.2570    4.2540   41.7690 B   0  0  0  0  0  0  0  0  0  0  0  0
   50.0760    4.5700   46.4620 C   0  0  0  0  0  0  0  0  0  0  0  0
   49.5920    5.3090   47.7100 C   0  0  0  0  0  0  0  0  0  0  0  0
   48.9530    6.5000   47.1630 N   0  0  0  0  0  0  0  0  0  0  0  0
   48.8940    7.7460   47.8120 C   0  0  0  0  0  0  0  0  0  0  0  0
   49.9770    8.4130   47.9540 O   0  0  0  0  0  0  0  0  0  0  0  0
   47.6710    8.3820   48.3590 C   0  0  0  0  0  0  0  0  0  0  0  0
   42.3340    7.3840   43.1260 H   0  0  0  0  0  0  0  0  0  0  0  0
   43.3670    7.8480   41.7940 H   0  0  0  0  0  0  0  0  0  0  0  0
   45.1760    6.7060   45.4140 H   0  0  0  0  0  0  0  0  0  0  0  0
   43.4460    6.3450   45.1770 H   0  0  0  0  0  0  0  0  0  0  0  0
   43.9840   11.5670   44.3220 H   0  0  0  0  0  0  0  0  0  0  0  0
   44.8460   10.9370   45.7460 H   0  0  0  0  0  0  0  0  0  0  0  0
   43.2890   12.1310   46.7710 H   0  0  0  0  0  0  0  0  0  0  0  0
   42.5440   10.5260   46.8100 H   0  0  0  0  0  0  0  0  0  0  0  0
   40.9020   10.1960   44.6070 H   0  0  0  0  0  0  0  0  0  0  0  0
   38.9500   11.3330   43.5780 H   0  0  0  0  0  0  0  0  0  0  0  0
   38.6060   13.7260   43.8890 H   0  0  0  0  0  0  0  0  0  0  0  0
   40.2320   15.0090   45.2450 H   0  0  0  0  0  0  0  0  0  0  0  0
   42.1320   13.9470   46.2560 H   0  0  0  0  0  0  0  0  0  0  0  0
   46.9360    7.6230   45.4130 H   0  0  0  0  0  0  0  0  0  0  0  0
   49.2090    3.6220   43.8280 H   0  0  0  0  0  0  0  0  0  0  0  0
   51.1040    4.8740   46.2370 H   0  0  0  0  0  0  0  0  0  0  0  0
   50.0350    3.4710   46.6340 H   0  0  0  0  0  0  0  0  0  0  0  0
   50.4490    5.5930   48.3380 H   0  0  0  0  0  0  0  0  0  0  0  0
   48.8320    4.7070   48.2220 H   0  0  0  0  0  0  0  0  0  0  0  0
   47.8660    9.4710   48.5840 H   0  0  0  0  0  0  0  0  0  0  0  0
   47.3660    7.9590   49.3370 H   0  0  0  0  0  0  0  0  0  0  0  0
   46.8180    8.2950   47.6460 H   0  0  0  0  0  0  0  0  0  0  0  0
  1  4  1  0  0  0  0
  1 20  1  0  0  0  0
  2  1  2  0  0  0  0
  3  1  2  0  0  0  0
  4 11  1  0  0  0  0
  5 33  1  0  0  0  0
  5  6  1  0  0  0  0
  5  4  1  0  0  0  0
  6  8  1  0  0  0  0
  7  6  2  0  0  0  0
  8 12  1  0  0  0  0
  8  9  1  0  0  0  0
  9 10  2  0  0  0  0
 11 36  1  0  0  0  0
 11 35  1  0  0  0  0
 11  9  1  0  0  0  0
 12 38  1  0  0  0  0
 12 13  1  0  0  0  0
 13 39  1  0  0  0  0
 13 40  1  0  0  0  0
 14 19  1  0  0  0  0
 14 13  1  0  0  0  0
 15 14  2  0  0  0  0
 16 17  2  0  0  0  0
 16 15  1  0  0  0  0
 17 18  1  0  0  0  0
 18 44  1  0  0  0  0
 18 19  2  0  0  0  0
 19 45  1  0  0  0  0
 20 21  1  0  0  0  0
 21 46  1  0  0  0  0
 21 22  2  0  0  0  0
 22 29  1  0  0  0  0
 23 22  1  0  0  0  0
 23 27  1  0  0  0  0
 24 23  2  0  0  0  0
 25 20  2  0  0  0  0
 25 24  1  0  0  0  0
 26 25  1  0  0  0  0
 27 49  1  0  0  0  0
 27 28  1  0  0  0  0
 28 51  1  0  0  0  0
 28 50  1  0  0  0  0
 29 28  1  0  0  0  0
 29 30  1  0  0  0  0
 30 31  2  0  0  0  0
 30 32  1  0  0  0  0
 32 52  1  0  0  0  0
 32 53  1  0  0  0  0
 34  5  1  0  0  0  0
 37 12  1  0  0  0  0
 41 15  1  0  0  0  0
 42 16  1  0  0  0  0
 43 17  1  0  0  0  0
 47 24  1  0  0  0  0
 48 27  1  0  0  0  0
 54 32  1  0  0  0  0
M  END
>  <Pose>
1

>  <Score>
-6.58

$$$$
