
 OpenBabel03172210433D

 41 44  0  0  0  0  0  0  0  0999 V2000
   42.8000    9.9500   44.2550 S   0  0  0  0  0  0  0  0  0  0  0  0
   42.7340   10.3560   42.8110 O   0  0  0  0  0  0  0  0  0  0  0  0
   43.7860   10.8830   44.9170 O   0  0  0  0  0  0  0  0  0  0  0  0
   43.2900    8.3370   44.3480 N   0  0  0  0  0  0  0  0  0  0  0  0
   43.3090    7.5410   43.1740 C   0  0  0  0  0  0  0  0  0  0  0  0
   44.7860    7.4710   43.2050 C   0  0  0  0  0  0  0  0  0  0  0  0
   44.6820    8.1320   44.5350 C   0  0  0  0  0  0  0  0  0  0  0  0
   45.3700    6.1460   43.2820 N   0  0  0  0  0  0  0  0  0  0  0  0
   45.1040    5.1880   44.1310 N   0  0  0  0  0  0  0  0  0  0  0  0
   45.8590    4.1120   43.8710 N   0  0  0  0  0  0  0  0  0  0  0  0
   46.6430    4.3830   42.8130 C   0  0  0  0  0  0  0  0  0  0  0  0
   46.3190    5.6830   42.4510 C   0  0  0  0  0  0  0  0  0  0  0  0
   47.6520    3.4840   42.1580 C   0  0  0  0  0  0  0  0  0  0  0  0
   48.7600    3.3160   43.0810 N   0  0  0  0  0  0  0  0  0  0  0  0
   48.9340    4.0220   44.3140 C   0  0  0  0  0  0  0  0  0  0  0  0
   50.1720    3.4540   44.9470 C   0  0  0  0  0  0  0  0  0  0  0  0
   50.5710    2.2300   44.1880 C   0  0  0  0  0  0  0  0  0  0  0  0
   49.8430    2.4110   42.8850 C   0  0  0  0  0  0  0  0  0  0  0  0
   50.1740    1.8400   41.8300 O   0  0  0  0  0  0  0  0  0  0  0  0
   41.2020   10.2440   44.9390 C   0  0  0  0  0  0  0  0  0  0  0  0
   39.8280   10.9050   44.1560 S   0  0  0  0  0  0  0  0  0  0  0  0
   38.7230   10.8620   45.4590 C   0  0  0  0  0  0  0  0  0  0  0  0
   39.4740   10.3280   46.4740 C   0  0  0  0  0  0  0  0  0  0  0  0
   40.7410   10.0130   46.2010 C   0  0  0  0  0  0  0  0  0  0  0  0
   36.8800   11.4180   45.5210 B   0  0  0  0  0  0  0  0  0  0  0  0
   42.8540    8.1000   42.3120 H   0  0  0  0  0  0  0  0  0  0  0  0
   42.7740    6.5670   43.3070 H   0  0  0  0  0  0  0  0  0  0  0  0
   45.2240    8.0750   42.3850 H   0  0  0  0  0  0  0  0  0  0  0  0
   45.3170    9.0240   44.6970 H   0  0  0  0  0  0  0  0  0  0  0  0
   44.8660    7.4160   45.3680 H   0  0  0  0  0  0  0  0  0  0  0  0
   46.7850    6.2070   41.6160 H   0  0  0  0  0  0  0  0  0  0  0  0
   47.1990    2.4970   41.9080 H   0  0  0  0  0  0  0  0  0  0  0  0
   48.0210    3.9900   41.2580 H   0  0  0  0  0  0  0  0  0  0  0  0
   49.0650    5.1100   44.1200 H   0  0  0  0  0  0  0  0  0  0  0  0
   48.0880    3.8580   45.0350 H   0  0  0  0  0  0  0  0  0  0  0  0
   50.9790    4.2160   45.0020 H   0  0  0  0  0  0  0  0  0  0  0  0
   49.9900    3.1390   46.0100 H   0  0  0  0  0  0  0  0  0  0  0  0
   51.6750    2.2280   44.0000 H   0  0  0  0  0  0  0  0  0  0  0  0
   50.2930    1.2780   44.6800 H   0  0  0  0  0  0  0  0  0  0  0  0
   39.0020   10.1790   47.4660 H   0  0  0  0  0  0  0  0  0  0  0  0
   41.4320    9.5760   46.9490 H   0  0  0  0  0  0  0  0  0  0  0  0
  1  4  1  0  0  0  0
  1  3  2  0  0  0  0
  1 20  1  0  0  0  0
  2  1  2  0  0  0  0
  4  7  1  0  0  0  0
  5  6  1  0  0  0  0
  5 27  1  0  0  0  0
  5  4  1  0  0  0  0
  6  8  1  0  0  0  0
  6  7  1  0  0  0  0
  7 29  1  0  0  0  0
  7 30  1  0  0  0  0
  8  9  1  0  0  0  0
 10  9  2  0  0  0  0
 11 10  1  0  0  0  0
 12 11  2  0  0  0  0
 12  8  1  0  0  0  0
 13 11  1  0  0  0  0
 13 14  1  0  0  0  0
 14 15  1  0  0  0  0
 15 16  1  0  0  0  0
 15 35  1  0  0  0  0
 16 36  1  0  0  0  0
 16 37  1  0  0  0  0
 17 39  1  0  0  0  0
 17 16  1  0  0  0  0
 18 14  1  0  0  0  0
 18 17  1  0  0  0  0
 19 18  2  0  0  0  0
 20 24  2  0  0  0  0
 21 20  1  0  0  0  0
 21 22  1  0  0  0  0
 22 25  1  0  0  0  0
 22 23  2  0  0  0  0
 23 40  1  0  0  0  0
 24 23  1  0  0  0  0
 24 41  1  0  0  0  0
 26  5  1  0  0  0  0
 28  6  1  0  0  0  0
 31 12  1  0  0  0  0
 32 13  1  0  0  0  0
 33 13  1  0  0  0  0
 34 15  1  0  0  0  0
 38 17  1  0  0  0  0
M  END
>  <Pose>
1

>  <Score>
-6.35

$$$$
