
 OpenBabel03172210433D

 53 56  0  0  0  0  0  0  0  0999 V2000
   47.0520    4.9080   42.8940 S   0  0  0  0  0  0  0  0  0  0  0  0
   46.1980    3.6350   42.8290 O   0  0  0  0  0  0  0  0  0  0  0  0
   47.6020    5.0240   41.4690 O   0  0  0  0  0  0  0  0  0  0  0  0
   46.0600    6.1770   43.2820 N   0  0  0  0  0  0  0  0  0  0  0  0
   46.2950    7.4880   42.9030 C   0  0  0  0  0  0  0  0  0  0  0  0
   45.3310    8.4030   43.7070 C   0  0  0  0  0  0  0  0  0  0  0  0
   43.9840    7.9220   43.5700 N   0  0  0  0  0  0  0  0  0  0  0  0
   43.7280    6.5690   44.0070 C   0  0  0  0  0  0  0  0  0  0  0  0
   45.0730    5.9390   44.2990 C   0  0  0  0  0  0  0  0  0  0  0  0
   42.9290    8.6920   43.0430 C   0  0  0  0  0  0  0  0  0  0  0  0
   42.2540    8.2330   42.0940 O   0  0  0  0  0  0  0  0  0  0  0  0
   42.6130   10.0140   43.5860 C   0  0  0  0  0  0  0  0  0  0  0  0
   41.4110    9.9550   44.4140 N   0  0  0  0  0  0  0  0  0  0  0  0
   41.1060    9.1110   45.5050 C   0  0  0  0  0  0  0  0  0  0  0  0
   41.8780    8.2100   45.9710 O   0  0  0  0  0  0  0  0  0  0  0  0
   39.8060    9.4580   45.9630 N   0  0  0  0  0  0  0  0  0  0  0  0
   39.5310   10.7880   45.4840 C   0  0  0  0  0  0  0  0  0  0  0  0
   39.9390   11.8670   46.4320 C   0  0  0  0  0  0  0  0  0  0  0  0
   39.1860   13.0770   45.8660 C   0  0  0  0  0  0  0  0  0  0  0  0
   37.8760   12.5020   45.4010 C   0  0  0  0  0  0  0  0  0  0  0  0
   38.0540   11.0250   45.2740 C   0  0  0  0  0  0  0  0  0  0  0  0
   40.2810   10.8260   44.2060 C   0  0  0  0  0  0  0  0  0  0  0  0
   39.9870   11.4770   43.1780 O   0  0  0  0  0  0  0  0  0  0  0  0
   48.3610    4.5290   43.9700 C   0  0  0  0  0  0  0  0  0  0  0  0
   49.1800    3.4340   43.8990 C   0  0  0  0  0  0  0  0  0  0  0  0
   50.1770    3.1930   44.8510 C   0  0  0  0  0  0  0  0  0  0  0  0
   50.3850    4.0360   45.8970 C   0  0  0  0  0  0  0  0  0  0  0  0
   49.5840    5.1410   45.9960 C   0  0  0  0  0  0  0  0  0  0  0  0
   48.6030    5.3810   45.0640 C   0  0  0  0  0  0  0  0  0  0  0  0
   49.0070    2.2420   42.4330 B   0  0  0  0  0  0  0  0  0  0  0  0
   46.1920    7.7290   41.8250 H   0  0  0  0  0  0  0  0  0  0  0  0
   47.2930    7.8370   43.2350 H   0  0  0  0  0  0  0  0  0  0  0  0
   45.6660    8.3670   44.7490 H   0  0  0  0  0  0  0  0  0  0  0  0
   45.5020    9.4090   43.3170 H   0  0  0  0  0  0  0  0  0  0  0  0
   43.1960    6.6130   44.9960 H   0  0  0  0  0  0  0  0  0  0  0  0
   43.1250    5.9740   43.3240 H   0  0  0  0  0  0  0  0  0  0  0  0
   45.0000    4.8530   44.4850 H   0  0  0  0  0  0  0  0  0  0  0  0
   45.4440    6.3990   45.2390 H   0  0  0  0  0  0  0  0  0  0  0  0
   42.5320   10.7930   42.7890 H   0  0  0  0  0  0  0  0  0  0  0  0
   43.4210   10.4030   44.2690 H   0  0  0  0  0  0  0  0  0  0  0  0
   39.2210    8.8040   46.5410 H   0  0  0  0  0  0  0  0  0  0  0  0
   39.5100   11.6460   47.4230 H   0  0  0  0  0  0  0  0  0  0  0  0
   41.0300   12.0580   46.4440 H   0  0  0  0  0  0  0  0  0  0  0  0
   39.7380   13.4600   44.9800 H   0  0  0  0  0  0  0  0  0  0  0  0
   39.0680   13.8530   46.6370 H   0  0  0  0  0  0  0  0  0  0  0  0
   37.5740   12.9040   44.4200 H   0  0  0  0  0  0  0  0  0  0  0  0
   37.1300   12.6870   46.1940 H   0  0  0  0  0  0  0  0  0  0  0  0
   37.4810   10.4410   46.0100 H   0  0  0  0  0  0  0  0  0  0  0  0
   37.7530   10.6510   44.2570 H   0  0  0  0  0  0  0  0  0  0  0  0
   50.7720    2.3150   44.7230 H   0  0  0  0  0  0  0  0  0  0  0  0
   51.1680    3.7930   46.5930 H   0  0  0  0  0  0  0  0  0  0  0  0
   49.7520    5.8110   46.8280 H   0  0  0  0  0  0  0  0  0  0  0  0
   47.9720    6.2560   45.1440 H   0  0  0  0  0  0  0  0  0  0  0  0
  1  4  1  0  0  0  0
  1 24  1  0  0  0  0
  2  1  2  0  0  0  0
  3  1  2  0  0  0  0
  4  9  1  0  0  0  0
  5 32  1  0  0  0  0
  5  4  1  0  0  0  0
  5  6  1  0  0  0  0
  6 33  1  0  0  0  0
  7  6  1  0  0  0  0
  7  8  1  0  0  0  0
  8  9  1  0  0  0  0
  8 35  1  0  0  0  0
  9 37  1  0  0  0  0
  9 38  1  0  0  0  0
 10  7  1  0  0  0  0
 10 12  1  0  0  0  0
 11 10  2  0  0  0  0
 12 40  1  0  0  0  0
 12 13  1  0  0  0  0
 13 14  1  0  0  0  0
 14 16  1  0  0  0  0
 14 15  2  0  0  0  0
 16 41  1  0  0  0  0
 17 16  1  0  0  0  0
 17 18  1  0  0  0  0
 18 43  1  0  0  0  0
 18 42  1  0  0  0  0
 19 18  1  0  0  0  0
 19 45  1  0  0  0  0
 20 19  1  0  0  0  0
 20 47  1  0  0  0  0
 21 20  1  0  0  0  0
 21 17  1  0  0  0  0
 21 48  1  0  0  0  0
 22 13  1  0  0  0  0
 22 17  1  0  0  0  0
 23 22  2  0  0  0  0
 24 29  1  0  0  0  0
 25 24  2  0  0  0  0
 25 26  1  0  0  0  0
 26 27  2  0  0  0  0
 27 28  1  0  0  0  0
 27 51  1  0  0  0  0
 28 52  1  0  0  0  0
 29 53  1  0  0  0  0
 29 28  2  0  0  0  0
 30 25  1  0  0  0  0
 31  5  1  0  0  0  0
 34  6  1  0  0  0  0
 36  8  1  0  0  0  0
 39 12  1  0  0  0  0
 44 19  1  0  0  0  0
 46 20  1  0  0  0  0
 49 21  1  0  0  0  0
 50 26  1  0  0  0  0
M  END
>  <Pose>
1

>  <Score>
-6.91

$$$$
