
 OpenBabel03172210433D

 53 56  0  0  0  0  0  0  0  0999 V2000
   47.2140    4.2900   42.1160 S   0  0  0  0  0  0  0  0  0  0  0  0
   47.7760    4.7220   40.7740 O   0  0  0  0  0  0  0  0  0  0  0  0
   46.2800    3.1440   41.8190 O   0  0  0  0  0  0  0  0  0  0  0  0
   46.3140    5.6050   42.7270 N   0  0  0  0  0  0  0  0  0  0  0  0
   45.4520    5.2420   43.8320 C   0  0  0  0  0  0  0  0  0  0  0  0
   45.4820    6.2910   44.9150 C   0  0  0  0  0  0  0  0  0  0  0  0
   45.2060    7.5880   44.2640 N   0  0  0  0  0  0  0  0  0  0  0  0
   46.0870    7.9340   43.1920 C   0  0  0  0  0  0  0  0  0  0  0  0
   47.0830    6.7630   43.0230 C   0  0  0  0  0  0  0  0  0  0  0  0
   44.1410    8.3910   44.6950 C   0  0  0  0  0  0  0  0  0  0  0  0
   43.5090    7.9370   45.7580 O   0  0  0  0  0  0  0  0  0  0  0  0
   43.5880    9.6290   44.2050 C   0  0  0  0  0  0  0  0  0  0  0  0
   42.1840    9.7530   43.9710 N   0  0  0  0  0  0  0  0  0  0  0  0
   41.4310    9.2580   42.8340 C   0  0  0  0  0  0  0  0  0  0  0  0
   41.9670    8.6160   41.8890 O   0  0  0  0  0  0  0  0  0  0  0  0
   40.0750    9.6310   43.0180 N   0  0  0  0  0  0  0  0  0  0  0  0
   40.0490   10.6820   43.9770 C   0  0  0  0  0  0  0  0  0  0  0  0
   40.0580   12.0600   43.3580 C   0  0  0  0  0  0  0  0  0  0  0  0
   39.6970   12.9270   44.5490 C   0  0  0  0  0  0  0  0  0  0  0  0
   38.8580   12.0600   45.4570 C   0  0  0  0  0  0  0  0  0  0  0  0
   38.7610   10.7140   44.7800 C   0  0  0  0  0  0  0  0  0  0  0  0
   41.2200   10.4200   44.8120 C   0  0  0  0  0  0  0  0  0  0  0  0
   41.3930   10.7030   46.0250 O   0  0  0  0  0  0  0  0  0  0  0  0
   48.4880    3.7690   43.1920 C   0  0  0  0  0  0  0  0  0  0  0  0
   49.3740    2.7680   42.8520 C   0  0  0  0  0  0  0  0  0  0  0  0
   50.3850    2.3600   43.7160 C   0  0  0  0  0  0  0  0  0  0  0  0
   50.5340    2.9480   44.9450 C   0  0  0  0  0  0  0  0  0  0  0  0
   49.6560    3.9500   45.2980 C   0  0  0  0  0  0  0  0  0  0  0  0
   48.6500    4.3520   44.4310 C   0  0  0  0  0  0  0  0  0  0  0  0
   51.9320    2.3900   46.1470 B   0  0  0  0  0  0  0  0  0  0  0  0
   44.4030    5.2620   43.4160 H   0  0  0  0  0  0  0  0  0  0  0  0
   45.6980    4.2410   44.2300 H   0  0  0  0  0  0  0  0  0  0  0  0
   46.4430    6.2620   45.4210 H   0  0  0  0  0  0  0  0  0  0  0  0
   44.6740    6.0560   45.6420 H   0  0  0  0  0  0  0  0  0  0  0  0
   46.6540    8.8620   43.3240 H   0  0  0  0  0  0  0  0  0  0  0  0
   45.4830    7.9700   42.2380 H   0  0  0  0  0  0  0  0  0  0  0  0
   47.6870    6.7480   43.9280 H   0  0  0  0  0  0  0  0  0  0  0  0
   47.7630    6.9900   42.1700 H   0  0  0  0  0  0  0  0  0  0  0  0
   44.1030    9.9140   43.2150 H   0  0  0  0  0  0  0  0  0  0  0  0
   43.8800   10.5110   44.8720 H   0  0  0  0  0  0  0  0  0  0  0  0
   39.2830    9.1630   42.4970 H   0  0  0  0  0  0  0  0  0  0  0  0
   39.2140   12.1100   42.6450 H   0  0  0  0  0  0  0  0  0  0  0  0
   41.0190   12.3260   42.9130 H   0  0  0  0  0  0  0  0  0  0  0  0
   39.1180   13.8240   44.2580 H   0  0  0  0  0  0  0  0  0  0  0  0
   40.6610   13.2130   45.0240 H   0  0  0  0  0  0  0  0  0  0  0  0
   37.8620   12.5050   45.6520 H   0  0  0  0  0  0  0  0  0  0  0  0
   39.4320   11.9120   46.4010 H   0  0  0  0  0  0  0  0  0  0  0  0
   37.9350   10.6960   44.0190 H   0  0  0  0  0  0  0  0  0  0  0  0
   38.6870    9.8790   45.4860 H   0  0  0  0  0  0  0  0  0  0  0  0
   49.2600    2.3040   41.8880 H   0  0  0  0  0  0  0  0  0  0  0  0
   51.0850    1.5750   43.4610 H   0  0  0  0  0  0  0  0  0  0  0  0
   49.7960    4.4020   46.2790 H   0  0  0  0  0  0  0  0  0  0  0  0
   47.9720    5.1550   44.7550 H   0  0  0  0  0  0  0  0  0  0  0  0
  1  4  1  0  0  0  0
  1 24  1  0  0  0  0
  2  1  2  0  0  0  0
  3  1  2  0  0  0  0
  4  9  1  0  0  0  0
  4  5  1  0  0  0  0
  5 32  1  0  0  0  0
  5  6  1  0  0  0  0
  6 33  1  0  0  0  0
  6 34  1  0  0  0  0
  7 10  1  0  0  0  0
  7  6  1  0  0  0  0
  8 35  1  0  0  0  0
  8  7  1  0  0  0  0
  9  8  1  0  0  0  0
  9 37  1  0  0  0  0
 10 11  2  0  0  0  0
 12 10  1  0  0  0  0
 12 40  1  0  0  0  0
 13 12  1  0  0  0  0
 13 22  1  0  0  0  0
 14 16  1  0  0  0  0
 14 13  1  0  0  0  0
 15 14  2  0  0  0  0
 16 17  1  0  0  0  0
 17 21  1  0  0  0  0
 17 22  1  0  0  0  0
 18 17  1  0  0  0  0
 18 19  1  0  0  0  0
 19 45  1  0  0  0  0
 19 20  1  0  0  0  0
 20 46  1  0  0  0  0
 20 47  1  0  0  0  0
 21 20  1  0  0  0  0
 21 49  1  0  0  0  0
 22 23  2  0  0  0  0
 24 29  1  0  0  0  0
 25 24  2  0  0  0  0
 25 26  1  0  0  0  0
 26 27  2  0  0  0  0
 27 28  1  0  0  0  0
 27 30  1  0  0  0  0
 28 52  1  0  0  0  0
 29 53  1  0  0  0  0
 29 28  2  0  0  0  0
 31  5  1  0  0  0  0
 36  8  1  0  0  0  0
 38  9  1  0  0  0  0
 39 12  1  0  0  0  0
 41 16  1  0  0  0  0
 42 18  1  0  0  0  0
 43 18  1  0  0  0  0
 44 19  1  0  0  0  0
 48 21  1  0  0  0  0
 50 25  1  0  0  0  0
 51 26  1  0  0  0  0
M  END
>  <Pose>
1

>  <Score>
-7.01

$$$$
