
 OpenBabel03172210433D

 54 58  0  0  1  0  0  0  0  0999 V2000
   43.0830    7.7150   44.2200 S   0  0  0  0  0  0  0  0  0  0  0  0
   42.5560    6.5760   43.3570 O   0  0  0  0  0  0  0  0  0  0  0  0
   42.8600    7.2220   45.6500 O   0  0  0  0  0  0  0  0  0  0  0  0
   44.7410    7.8250   43.9730 N   0  0  0  0  0  0  0  0  0  0  0  0
   45.5800    7.0820   44.8750 C   0  0  0  0  0  0  0  0  0  0  0  0
   46.6580    6.3220   44.1360 C   0  0  0  0  0  0  0  0  0  0  0  0
   46.0470    5.4620   43.0920 N   0  0  0  0  0  0  0  0  0  0  0  0
   45.4160    6.3390   42.1170 C   0  0  0  0  0  0  0  0  0  0  0  0
   45.2220    7.7570   42.6270 C   0  0  0  0  0  0  0  0  0  0  0  0
   47.1820    4.8010   42.4840 C   0  0  0  0  0  0  0  0  0  0  0  0
   47.5010    3.4360   42.9260 C   0  0  0  0  0  0  0  0  0  0  0  0
   48.8040    3.1370   43.4150 N   0  0  0  0  0  0  0  0  0  0  0  0
   49.9380    2.5820   42.7590 C   0  0  0  0  0  0  0  0  0  0  0  0
   49.9010    1.8520   41.7580 O   0  0  0  0  0  0  0  0  0  0  0  0
   51.1640    3.0220   43.4690 C   0  0  1  0  0  0  0  0  0  0  0  0
   50.6130    3.1730   44.9060 C   0  0  2  0  0  0  0  0  0  0  0  0
   50.9930    1.9260   45.6110 C   0  0  1  0  0  0  0  0  0  0  0  0
   51.1640    0.9350   44.4470 C   0  0  0  0  0  0  0  0  0  0  0  0
   52.0900    1.8740   43.6560 C   0  0  2  0  0  0  0  0  0  0  0  0
   53.0340    2.2560   44.7590 C   0  0  0  0  0  0  0  0  0  0  0  0
   52.4630    2.0590   45.9480 C   0  0  0  0  0  0  0  0  0  0  0  0
   49.1870    3.4370   44.7760 C   0  0  0  0  0  0  0  0  0  0  0  0
   48.4500    3.8510   45.7050 O   0  0  0  0  0  0  0  0  0  0  0  0
   42.1570    9.1480   44.0250 C   0  0  0  0  0  0  0  0  0  0  0  0
   41.4330    9.6660   45.0710 C   0  0  0  0  0  0  0  0  0  0  0  0
   40.7070   10.8280   44.8790 C   0  0  0  0  0  0  0  0  0  0  0  0
   40.6780   11.4950   43.6680 C   0  0  0  0  0  0  0  0  0  0  0  0
   41.4070   10.9720   42.6210 C   0  0  0  0  0  0  0  0  0  0  0  0
   42.1370    9.8040   42.8140 C   0  0  0  0  0  0  0  0  0  0  0  0
   39.6760   13.0950   43.4010 B   0  0  0  0  0  0  0  0  0  0  0  0
   46.1110    7.8220   45.5180 H   0  0  0  0  0  0  0  0  0  0  0  0
   44.9900    6.4370   45.5250 H   0  0  0  0  0  0  0  0  0  0  0  0
   47.1530    5.6350   44.8440 H   0  0  0  0  0  0  0  0  0  0  0  0
   47.4290    6.9700   43.6800 H   0  0  0  0  0  0  0  0  0  0  0  0
   44.3940    5.9690   41.9270 H   0  0  0  0  0  0  0  0  0  0  0  0
   46.0320    6.3190   41.2010 H   0  0  0  0  0  0  0  0  0  0  0  0
   44.5840    8.3470   41.9710 H   0  0  0  0  0  0  0  0  0  0  0  0
   46.2280    8.2340   42.6210 H   0  0  0  0  0  0  0  0  0  0  0  0
   48.1130    5.4240   42.6830 H   0  0  0  0  0  0  0  0  0  0  0  0
   47.0910    4.8900   41.3550 H   0  0  0  0  0  0  0  0  0  0  0  0
   46.7710    3.1980   43.7680 H   0  0  0  0  0  0  0  0  0  0  0  0
   47.1900    2.7330   42.1030 H   0  0  0  0  0  0  0  0  0  0  0  0
   51.5950    3.9420   43.0860 H   0  0  0  0  0  0  0  0  0  0  0  0
   51.1570    4.0210   45.4130 H   0  0  0  0  0  0  0  0  0  0  0  0
   50.3740    1.5710   46.4000 H   0  0  0  0  0  0  0  0  0  0  0  0
   51.6920    0.0230   44.7490 H   0  0  0  0  0  0  0  0  0  0  0  0
   50.2530    0.7780   43.8760 H   0  0  0  0  0  0  0  0  0  0  0  0
   52.5450    1.4370   42.8000 H   0  0  0  0  0  0  0  0  0  0  0  0
   54.0430    2.6420   44.6600 H   0  0  0  0  0  0  0  0  0  0  0  0
   52.9340    2.0060   46.9110 H   0  0  0  0  0  0  0  0  0  0  0  0
   41.4190    9.1800   46.0590 H   0  0  0  0  0  0  0  0  0  0  0  0
   40.1330   11.2370   45.7100 H   0  0  0  0  0  0  0  0  0  0  0  0
   41.3750   11.5010   41.6810 H   0  0  0  0  0  0  0  0  0  0  0  0
   42.6800    9.4660   41.9430 H   0  0  0  0  0  0  0  0  0  0  0  0
  1  3  2  0  0  0  0
  2  1  2  0  0  0  0
  4  1  1  0  0  0  0
  4  5  1  0  0  0  0
  5 31  1  0  0  0  0
  5 32  1  0  0  0  0
  6 33  1  0  0  0  0
  6  5  1  0  0  0  0
  7  6  1  0  0  0  0
  8  9  1  0  0  0  0
  8  7  1  0  0  0  0
  9  4  1  0  0  0  0
 10 39  1  0  0  0  0
 10 11  1  0  0  0  0
 10  7  1  0  0  0  0
 11 12  1  0  0  0  0
 11 41  1  0  0  0  0
 12 22  1  0  0  0  0
 13 12  1  0  0  0  0
 13 15  1  0  0  0  0
 14 13  2  0  0  0  0
 15 43  1  6  0  0  0
 15 19  1  0  0  0  0
 15 16  1  0  0  0  0
 16 44  1  1  0  0  0
 16 17  1  0  0  0  0
 17 21  1  0  0  0  0
 17 45  1  1  0  0  0
 18 46  1  0  0  0  0
 18 17  1  0  0  0  0
 19 48  1  6  0  0  0
 19 18  1  0  0  0  0
 19 20  1  0  0  0  0
 20 21  1  0  0  0  0
 21 50  1  0  0  0  0
 22 16  1  0  0  0  0
 22 23  2  0  0  0  0
 24  1  1  0  0  0  0
 24 25  1  0  0  0  0
 25 51  1  0  0  0  0
 26 25  2  0  0  0  0
 26 52  1  0  0  0  0
 27 26  1  0  0  0  0
 28 29  1  0  0  0  0
 28 27  2  0  0  0  0
 29 24  2  0  0  0  0
 30 27  1  0  0  0  0
 34  6  1  0  0  0  0
 35  8  1  0  0  0  0
 36  8  1  0  0  0  0
 37  9  1  0  0  0  0
 38  9  1  0  0  0  0
 40 10  1  0  0  0  0
 42 11  1  0  0  0  0
 47 18  1  0  0  0  0
 49 20  1  0  0  0  0
 53 28  1  0  0  0  0
 54 29  1  0  0  0  0
M  END
>  <Pose>
1

>  <Score>
-6.60

$$$$
