
 OpenBabel03172210433D

 45 48  0  0  0  0  0  0  0  0999 V2000
   41.9550   10.2900   42.7640 S   0  0  0  0  0  0  0  0  0  0  0  0
   42.8660   11.4040   42.3690 O   0  0  0  0  0  0  0  0  0  0  0  0
   41.2050    9.8310   41.5550 O   0  0  0  0  0  0  0  0  0  0  0  0
   42.7590    9.0200   43.4710 N   0  0  0  0  0  0  0  0  0  0  0  0
   42.0960    7.7880   43.6110 C   0  0  0  0  0  0  0  0  0  0  0  0
   42.9550    6.7130   44.2190 C   0  0  0  0  0  0  0  0  0  0  0  0
   44.3500    6.9530   44.1240 N   0  0  0  0  0  0  0  0  0  0  0  0
   44.7020    8.1950   44.7140 C   0  0  0  0  0  0  0  0  0  0  0  0
   43.8020    9.3250   44.3750 C   0  0  0  0  0  0  0  0  0  0  0  0
   44.8560    6.6620   42.8350 C   0  0  0  0  0  0  0  0  0  0  0  0
   45.9900    5.8050   42.7620 N   0  0  0  0  0  0  0  0  0  0  0  0
   46.7240    5.5670   43.8290 N   0  0  0  0  0  0  0  0  0  0  0  0
   47.8100    4.7780   43.8450 C   0  0  0  0  0  0  0  0  0  0  0  0
   48.1630    4.1870   42.6550 C   0  0  0  0  0  0  0  0  0  0  0  0
   47.4360    4.3970   41.5030 C   0  0  0  0  0  0  0  0  0  0  0  0
   46.3300    5.2310   41.5970 C   0  0  0  0  0  0  0  0  0  0  0  0
   45.6570    5.4220   40.5250 O   0  0  0  0  0  0  0  0  0  0  0  0
   48.5880    4.5390   45.0240 N   0  0  0  0  0  0  0  0  0  0  0  0
   48.9940    3.3720   45.5330 C   0  0  0  0  0  0  0  0  0  0  0  0
   49.7020    3.6150   46.6520 N   0  0  0  0  0  0  0  0  0  0  0  0
   49.7530    4.9420   46.8640 C   0  0  0  0  0  0  0  0  0  0  0  0
   49.0450    5.5120   45.8280 C   0  0  0  0  0  0  0  0  0  0  0  0
   40.7850   10.9560   43.9220 C   0  0  0  0  0  0  0  0  0  0  0  0
   40.2520   12.5640   44.1090 S   0  0  0  0  0  0  0  0  0  0  0  0
   39.1660   12.3430   45.4020 C   0  0  0  0  0  0  0  0  0  0  0  0
   39.2510   10.9970   45.6580 C   0  0  0  0  0  0  0  0  0  0  0  0
   40.0900   10.2860   44.8890 C   0  0  0  0  0  0  0  0  0  0  0  0
   38.0780   13.6390   46.3010 B   0  0  0  0  0  0  0  0  0  0  0  0
   41.1660    7.9320   44.2020 H   0  0  0  0  0  0  0  0  0  0  0  0
   41.7630    7.4250   42.6080 H   0  0  0  0  0  0  0  0  0  0  0  0
   42.7230    5.7280   43.7710 H   0  0  0  0  0  0  0  0  0  0  0  0
   42.6890    6.6300   45.2980 H   0  0  0  0  0  0  0  0  0  0  0  0
   45.7940    8.4480   44.5800 H   0  0  0  0  0  0  0  0  0  0  0  0
   44.6310    8.0400   45.8340 H   0  0  0  0  0  0  0  0  0  0  0  0
   44.4260   10.1500   43.9400 H   0  0  0  0  0  0  0  0  0  0  0  0
   43.3400    9.7900   45.2870 H   0  0  0  0  0  0  0  0  0  0  0  0
   44.0260    6.1400   42.2700 H   0  0  0  0  0  0  0  0  0  0  0  0
   45.0300    7.5940   42.2250 H   0  0  0  0  0  0  0  0  0  0  0  0
   49.0330    3.5430   42.6240 H   0  0  0  0  0  0  0  0  0  0  0  0
   47.7030    3.9390   40.5630 H   0  0  0  0  0  0  0  0  0  0  0  0
   48.7790    2.3940   45.1030 H   0  0  0  0  0  0  0  0  0  0  0  0
   50.2590    5.4520   47.6970 H   0  0  0  0  0  0  0  0  0  0  0  0
   48.8990    6.5700   45.7100 H   0  0  0  0  0  0  0  0  0  0  0  0
   38.6290   10.5600   46.4790 H   0  0  0  0  0  0  0  0  0  0  0  0
   40.2110    9.1880   45.0370 H   0  0  0  0  0  0  0  0  0  0  0  0
  1  4  1  0  0  0  0
  1 23  1  0  0  0  0
  2  1  2  0  0  0  0
  3  1  2  0  0  0  0
  4  5  1  0  0  0  0
  4  9  1  0  0  0  0
  5 29  1  0  0  0  0
  5  6  1  0  0  0  0
  6 32  1  0  0  0  0
  7  6  1  0  0  0  0
  7  8  1  0  0  0  0
  8 34  1  0  0  0  0
  9  8  1  0  0  0  0
  9 36  1  0  0  0  0
 10  7  1  0  0  0  0
 11 10  1  0  0  0  0
 11 12  1  0  0  0  0
 12 13  2  0  0  0  0
 13 18  1  0  0  0  0
 14 13  1  0  0  0  0
 15 16  1  0  0  0  0
 15 14  2  0  0  0  0
 16 11  1  0  0  0  0
 17 16  2  0  0  0  0
 18 19  1  0  0  0  0
 18 22  1  0  0  0  0
 19 20  2  0  0  0  0
 20 21  1  0  0  0  0
 21 42  1  0  0  0  0
 22 21  2  0  0  0  0
 23 24  1  0  0  0  0
 23 27  2  0  0  0  0
 24 25  1  0  0  0  0
 25 26  2  0  0  0  0
 25 28  1  0  0  0  0
 26 44  1  0  0  0  0
 27 45  1  0  0  0  0
 27 26  1  0  0  0  0
 30  5  1  0  0  0  0
 31  6  1  0  0  0  0
 33  8  1  0  0  0  0
 35  9  1  0  0  0  0
 37 10  1  0  0  0  0
 38 10  1  0  0  0  0
 39 14  1  0  0  0  0
 40 15  1  0  0  0  0
 41 19  1  0  0  0  0
 43 22  1  0  0  0  0
M  END
>  <Pose>
1

>  <Score>
-6.95

$$$$
