
 OpenBabel03172210433D

 52 55  0  0  0  0  0  0  0  0999 V2000
   42.4830    7.1780   44.2540 S   0  0  0  0  0  0  0  0  0  0  0  0
   42.1940    6.7730   45.6760 O   0  0  0  0  0  0  0  0  0  0  0  0
   41.4410    6.4950   43.3990 O   0  0  0  0  0  0  0  0  0  0  0  0
   44.0140    6.6230   43.7260 N   0  0  0  0  0  0  0  0  0  0  0  0
   44.3880    7.0930   42.4300 C   0  0  0  0  0  0  0  0  0  0  0  0
   45.5940    6.2370   42.0050 C   0  0  0  0  0  0  0  0  0  0  0  0
   46.3590    5.8390   43.1050 N   0  0  0  0  0  0  0  0  0  0  0  0
   46.3900    6.7460   44.2200 C   0  0  0  0  0  0  0  0  0  0  0  0
   45.0110    7.1950   44.6480 C   0  0  0  0  0  0  0  0  0  0  0  0
   46.5270    4.4840   43.4230 C   0  0  0  0  0  0  0  0  0  0  0  0
   47.8360    4.0160   43.7460 N   0  0  0  0  0  0  0  0  0  0  0  0
   48.3900    4.2210   45.0360 N   0  0  0  0  0  0  0  0  0  0  0  0
   49.6810    3.6200   45.0010 C   0  0  0  0  0  0  0  0  0  0  0  0
   50.5030    3.6140   46.0430 C   0  0  0  0  0  0  0  0  0  0  0  0
   51.8620    3.0790   46.2840 C   0  0  0  0  0  0  0  0  0  0  0  0
   52.6500    3.0060   44.9970 C   0  0  0  0  0  0  0  0  0  0  0  0
   52.0520    1.8590   44.2020 C   0  0  0  0  0  0  0  0  0  0  0  0
   51.0660    2.3440   43.1830 C   0  0  0  0  0  0  0  0  0  0  0  0
   49.9460    3.0480   43.7300 N   0  0  0  0  0  0  0  0  0  0  0  0
   48.7790    3.3060   42.9560 C   0  0  0  0  0  0  0  0  0  0  0  0
   48.6480    2.9440   41.7600 O   0  0  0  0  0  0  0  0  0  0  0  0
   42.2660    8.8780   44.0990 C   0  0  0  0  0  0  0  0  0  0  0  0
   43.0430    9.8440   44.6670 C   0  0  0  0  0  0  0  0  0  0  0  0
   42.7800   11.1930   44.4780 C   0  0  0  0  0  0  0  0  0  0  0  0
   41.7320   11.6120   43.7140 C   0  0  0  0  0  0  0  0  0  0  0  0
   40.9230   10.6530   43.1230 C   0  0  0  0  0  0  0  0  0  0  0  0
   41.1930    9.3220   43.3180 C   0  0  0  0  0  0  0  0  0  0  0  0
   43.8900   12.5350   45.2890 B   0  0  0  0  0  0  0  0  0  0  0  0
   43.5850    7.0600   41.6770 H   0  0  0  0  0  0  0  0  0  0  0  0
   44.7660    8.1510   42.4680 H   0  0  0  0  0  0  0  0  0  0  0  0
   45.1540    5.3700   41.4870 H   0  0  0  0  0  0  0  0  0  0  0  0
   46.1830    6.7850   41.2300 H   0  0  0  0  0  0  0  0  0  0  0  0
   46.8380    6.2080   45.0800 H   0  0  0  0  0  0  0  0  0  0  0  0
   47.0650    7.5850   43.9750 H   0  0  0  0  0  0  0  0  0  0  0  0
   44.9640    8.2930   44.4890 H   0  0  0  0  0  0  0  0  0  0  0  0
   44.7790    6.9920   45.6910 H   0  0  0  0  0  0  0  0  0  0  0  0
   46.0740    3.8660   42.6090 H   0  0  0  0  0  0  0  0  0  0  0  0
   45.8660    4.2620   44.3150 H   0  0  0  0  0  0  0  0  0  0  0  0
   47.9430    4.7130   45.8450 H   0  0  0  0  0  0  0  0  0  0  0  0
   50.0550    4.1270   46.9080 H   0  0  0  0  0  0  0  0  0  0  0  0
   51.8290    2.1020   46.8100 H   0  0  0  0  0  0  0  0  0  0  0  0
   52.3840    3.8260   46.9470 H   0  0  0  0  0  0  0  0  0  0  0  0
   53.7200    2.8520   45.2110 H   0  0  0  0  0  0  0  0  0  0  0  0
   52.4420    3.9360   44.4260 H   0  0  0  0  0  0  0  0  0  0  0  0
   52.8940    1.3340   43.7120 H   0  0  0  0  0  0  0  0  0  0  0  0
   51.5540    1.1370   44.8730 H   0  0  0  0  0  0  0  0  0  0  0  0
   51.6190    3.0240   42.4920 H   0  0  0  0  0  0  0  0  0  0  0  0
   50.7330    1.4630   42.5860 H   0  0  0  0  0  0  0  0  0  0  0  0
   43.8780    9.5230   45.2740 H   0  0  0  0  0  0  0  0  0  0  0  0
   41.5300   12.6720   43.5690 H   0  0  0  0  0  0  0  0  0  0  0  0
   40.0890   10.9730   42.5160 H   0  0  0  0  0  0  0  0  0  0  0  0
   40.5390    8.5990   42.8410 H   0  0  0  0  0  0  0  0  0  0  0  0
  1  2  2  0  0  0  0
  3  1  2  0  0  0  0
  4  1  1  0  0  0  0
  4  9  1  0  0  0  0
  5 30  1  0  0  0  0
  5  4  1  0  0  0  0
  6  5  1  0  0  0  0
  6  7  1  0  0  0  0
  7 10  1  0  0  0  0
  7  8  1  0  0  0  0
  8  9  1  0  0  0  0
  8 33  1  0  0  0  0
  9 36  1  0  0  0  0
 10 11  1  0  0  0  0
 10 38  1  0  0  0  0
 11 12  1  0  0  0  0
 12 39  1  0  0  0  0
 13 12  1  0  0  0  0
 13 14  2  0  0  0  0
 14 15  1  0  0  0  0
 14 40  1  0  0  0  0
 15 41  1  0  0  0  0
 15 42  1  0  0  0  0
 16 43  1  0  0  0  0
 16 15  1  0  0  0  0
 17 46  1  0  0  0  0
 17 16  1  0  0  0  0
 18 19  1  0  0  0  0
 18 17  1  0  0  0  0
 19 13  1  0  0  0  0
 20 19  1  0  0  0  0
 20 11  1  0  0  0  0
 21 20  2  0  0  0  0
 22  1  1  0  0  0  0
 22 23  1  0  0  0  0
 23 49  1  0  0  0  0
 24 23  2  0  0  0  0
 24 28  1  0  0  0  0
 25 24  1  0  0  0  0
 26 27  1  0  0  0  0
 26 25  2  0  0  0  0
 27 22  2  0  0  0  0
 29  5  1  0  0  0  0
 31  6  1  0  0  0  0
 32  6  1  0  0  0  0
 34  8  1  0  0  0  0
 35  9  1  0  0  0  0
 37 10  1  0  0  0  0
 44 16  1  0  0  0  0
 45 17  1  0  0  0  0
 47 18  1  0  0  0  0
 48 18  1  0  0  0  0
 50 25  1  0  0  0  0
 51 26  1  0  0  0  0
 52 27  1  0  0  0  0
M  END
>  <Pose>
1

>  <Score>
-7.86

$$$$
