
 OpenBabel03172210433D

 44 47  0  0  0  0  0  0  0  0999 V2000
   45.9110    6.5020   42.8650 S   0  0  0  0  0  0  0  0  0  0  0  0
   46.6210    7.7730   42.6180 O   0  0  0  0  0  0  0  0  0  0  0  0
   45.0000    6.2780   41.6650 O   0  0  0  0  0  0  0  0  0  0  0  0
   44.9410    6.4790   44.2620 N   0  0  0  0  0  0  0  0  0  0  0  0
   43.6880    5.8340   44.1630 C   0  0  0  0  0  0  0  0  0  0  0  0
   42.4740    6.6990   44.2130 C   0  0  0  0  0  0  0  0  0  0  0  0
   42.7480    8.1080   44.3540 N   0  0  0  0  0  0  0  0  0  0  0  0
   43.8670    8.5300   45.1320 C   0  0  0  0  0  0  0  0  0  0  0  0
   45.0450    7.6210   45.0890 C   0  0  0  0  0  0  0  0  0  0  0  0
   41.8560    9.0210   43.6980 C   0  0  0  0  0  0  0  0  0  0  0  0
   40.9560    9.8140   44.3040 N   0  0  0  0  0  0  0  0  0  0  0  0
   40.3440   10.4740   43.3140 N   0  0  0  0  0  0  0  0  0  0  0  0
   40.8440   10.1040   42.1560 N   0  0  0  0  0  0  0  0  0  0  0  0
   41.7850    9.2040   42.3520 N   0  0  0  0  0  0  0  0  0  0  0  0
   40.7210    9.9280   45.7000 C   0  0  0  0  0  0  0  0  0  0  0  0
   41.7590   10.0900   46.5890 C   0  0  0  0  0  0  0  0  0  0  0  0
   41.4960   10.2000   47.9540 C   0  0  0  0  0  0  0  0  0  0  0  0
   40.2080   10.1500   48.4410 C   0  0  0  0  0  0  0  0  0  0  0  0
   39.1520    9.9850   47.5360 C   0  0  0  0  0  0  0  0  0  0  0  0
   39.4340    9.8770   46.1740 C   0  0  0  0  0  0  0  0  0  0  0  0
   47.0350    5.1710   42.9030 C   0  0  0  0  0  0  0  0  0  0  0  0
   47.8820    4.9380   43.9570 C   0  0  0  0  0  0  0  0  0  0  0  0
   48.7750    3.8670   43.9760 C   0  0  0  0  0  0  0  0  0  0  0  0
   48.7950    3.0070   42.8730 C   0  0  0  0  0  0  0  0  0  0  0  0
   47.9490    3.2310   41.8100 C   0  0  0  0  0  0  0  0  0  0  0  0
   47.0880    4.2930   41.8300 C   0  0  0  0  0  0  0  0  0  0  0  0
   49.9930    1.5150   42.8330 B   0  0  0  0  0  0  0  0  0  0  0  0
   43.7190    5.1850   43.2490 H   0  0  0  0  0  0  0  0  0  0  0  0
   43.6380    5.1010   45.0250 H   0  0  0  0  0  0  0  0  0  0  0  0
   41.8880    6.4840   43.2770 H   0  0  0  0  0  0  0  0  0  0  0  0
   41.7980    6.3410   45.0290 H   0  0  0  0  0  0  0  0  0  0  0  0
   44.2130    9.5530   44.8020 H   0  0  0  0  0  0  0  0  0  0  0  0
   43.4840    8.6620   46.1870 H   0  0  0  0  0  0  0  0  0  0  0  0
   45.2430    7.2690   46.1430 H   0  0  0  0  0  0  0  0  0  0  0  0
   45.9880    8.1830   44.8280 H   0  0  0  0  0  0  0  0  0  0  0  0
   42.8070   10.1380   46.2730 H   0  0  0  0  0  0  0  0  0  0  0  0
   42.2980   10.3300   48.6890 H   0  0  0  0  0  0  0  0  0  0  0  0
   39.9710   10.2320   49.4880 H   0  0  0  0  0  0  0  0  0  0  0  0
   38.1490    9.9480   47.9220 H   0  0  0  0  0  0  0  0  0  0  0  0
   38.5630    9.7500   45.5300 H   0  0  0  0  0  0  0  0  0  0  0  0
   47.8760    5.6080   44.8300 H   0  0  0  0  0  0  0  0  0  0  0  0
   49.4450    3.6670   44.7870 H   0  0  0  0  0  0  0  0  0  0  0  0
   48.0080    2.5260   40.9720 H   0  0  0  0  0  0  0  0  0  0  0  0
   46.4270    4.4400   40.9590 H   0  0  0  0  0  0  0  0  0  0  0  0
  1 21  1  0  0  0  0
  1  4  1  0  0  0  0
  2  1  2  0  0  0  0
  3  1  2  0  0  0  0
  4  9  1  0  0  0  0
  5  6  1  0  0  0  0
  5  4  1  0  0  0  0
  5 29  1  0  0  0  0
  6  7  1  0  0  0  0
  6 31  1  0  0  0  0
  7  8  1  0  0  0  0
  8 33  1  0  0  0  0
  9  8  1  0  0  0  0
  9 34  1  0  0  0  0
 10 11  1  0  0  0  0
 10  7  1  0  0  0  0
 11 15  1  0  0  0  0
 12 11  1  0  0  0  0
 13 14  1  0  0  0  0
 13 12  2  0  0  0  0
 14 10  2  0  0  0  0
 15 20  2  0  0  0  0
 15 16  1  0  0  0  0
 16 17  2  0  0  0  0
 17 18  1  0  0  0  0
 17 37  1  0  0  0  0
 18 38  1  0  0  0  0
 19 39  1  0  0  0  0
 19 18  2  0  0  0  0
 20 19  1  0  0  0  0
 21 22  1  0  0  0  0
 22 23  2  0  0  0  0
 22 41  1  0  0  0  0
 23 42  1  0  0  0  0
 24 23  1  0  0  0  0
 25 26  1  0  0  0  0
 25 24  2  0  0  0  0
 26 21  2  0  0  0  0
 27 24  1  0  0  0  0
 28  5  1  0  0  0  0
 30  6  1  0  0  0  0
 32  8  1  0  0  0  0
 35  9  1  0  0  0  0
 36 16  1  0  0  0  0
 40 20  1  0  0  0  0
 43 25  1  0  0  0  0
 44 26  1  0  0  0  0
M  END
>  <Pose>
1

>  <Score>
-6.30

$$$$
