
 OpenBabel03172210433D

 53 56  0  0  0  0  0  0  0  0999 V2000
   47.6250    3.7610   42.6470 S   0  0  0  0  0  0  0  0  0  0  0  0
   46.8770    2.4380   42.6400 O   0  0  0  0  0  0  0  0  0  0  0  0
   48.0440    4.0630   41.2370 O   0  0  0  0  0  0  0  0  0  0  0  0
   46.5270    4.9850   43.1850 N   0  0  0  0  0  0  0  0  0  0  0  0
   45.7930    5.4490   42.0550 C   0  0  0  0  0  0  0  0  0  0  0  0
   45.3880    6.9040   42.1560 C   0  0  0  0  0  0  0  0  0  0  0  0
   45.2960    7.2310   43.5490 N   0  0  0  0  0  0  0  0  0  0  0  0
   46.4800    7.1480   44.3540 C   0  0  0  0  0  0  0  0  0  0  0  0
   47.3140    6.0020   43.8400 C   0  0  0  0  0  0  0  0  0  0  0  0
   44.0660    7.6250   44.1020 C   0  0  0  0  0  0  0  0  0  0  0  0
   43.5060    8.8190   43.8480 N   0  0  0  0  0  0  0  0  0  0  0  0
   42.3550    9.2470   44.3370 C   0  0  0  0  0  0  0  0  0  0  0  0
   41.6620    8.3970   45.1810 C   0  0  0  0  0  0  0  0  0  0  0  0
   42.1950    7.1610   45.4710 C   0  0  0  0  0  0  0  0  0  0  0  0
   43.3740    6.8050   44.9300 N   0  0  0  0  0  0  0  0  0  0  0  0
   41.4810    6.2180   46.3740 C   0  0  0  0  0  0  0  0  0  0  0  0
   41.8720   10.5320   43.9920 N   0  0  0  0  0  0  0  0  0  0  0  0
   40.6610   10.7550   43.2290 C   0  0  0  0  0  0  0  0  0  0  0  0
   40.1950   12.1690   43.5710 C   0  0  0  0  0  0  0  0  0  0  0  0
   40.3590   12.3300   44.9490 O   0  0  0  0  0  0  0  0  0  0  0  0
   41.6730   12.4940   45.3250 C   0  0  0  0  0  0  0  0  0  0  0  0
   42.6150   11.6960   44.4170 C   0  0  0  0  0  0  0  0  0  0  0  0
   48.9950    3.6200   43.7110 C   0  0  0  0  0  0  0  0  0  0  0  0
   50.0260    2.7590   43.3580 C   0  0  0  0  0  0  0  0  0  0  0  0
   51.1400    2.5960   44.1510 C   0  0  0  0  0  0  0  0  0  0  0  0
   51.2470    3.2980   45.3260 C   0  0  0  0  0  0  0  0  0  0  0  0
   50.2420    4.1650   45.7130 C   0  0  0  0  0  0  0  0  0  0  0  0
   49.1290    4.3070   44.8890 C   0  0  0  0  0  0  0  0  0  0  0  0
   52.7960    3.0610   46.4110 B   0  0  0  0  0  0  0  0  0  0  0  0
   46.2770    5.2760   41.0800 H   0  0  0  0  0  0  0  0  0  0  0  0
   44.8280    4.8680   42.0140 H   0  0  0  0  0  0  0  0  0  0  0  0
   44.4750    7.1300   41.5890 H   0  0  0  0  0  0  0  0  0  0  0  0
   46.2140    7.4910   41.6630 H   0  0  0  0  0  0  0  0  0  0  0  0
   46.2320    7.0270   45.4310 H   0  0  0  0  0  0  0  0  0  0  0  0
   47.1180    8.0630   44.2880 H   0  0  0  0  0  0  0  0  0  0  0  0
   47.7990    5.5260   44.7190 H   0  0  0  0  0  0  0  0  0  0  0  0
   48.1370    6.3340   43.1690 H   0  0  0  0  0  0  0  0  0  0  0  0
   40.7250    8.7350   45.5830 H   0  0  0  0  0  0  0  0  0  0  0  0
   41.0580    5.3580   45.7940 H   0  0  0  0  0  0  0  0  0  0  0  0
   42.2180    5.7870   47.0770 H   0  0  0  0  0  0  0  0  0  0  0  0
   40.7190    6.7380   46.9820 H   0  0  0  0  0  0  0  0  0  0  0  0
   40.8230   10.6970   42.1360 H   0  0  0  0  0  0  0  0  0  0  0  0
   39.8480   10.0560   43.5560 H   0  0  0  0  0  0  0  0  0  0  0  0
   39.1470   12.3120   43.3080 H   0  0  0  0  0  0  0  0  0  0  0  0
   40.8150   12.9050   43.0300 H   0  0  0  0  0  0  0  0  0  0  0  0
   41.8360   12.0880   46.3660 H   0  0  0  0  0  0  0  0  0  0  0  0
   41.9670   13.5510   45.3390 H   0  0  0  0  0  0  0  0  0  0  0  0
   42.9060   12.3270   43.5430 H   0  0  0  0  0  0  0  0  0  0  0  0
   43.5350   11.4140   44.9590 H   0  0  0  0  0  0  0  0  0  0  0  0
   49.9360    2.2080   42.4280 H   0  0  0  0  0  0  0  0  0  0  0  0
   51.9410    1.9250   43.8690 H   0  0  0  0  0  0  0  0  0  0  0  0
   50.3200    4.7230   46.6400 H   0  0  0  0  0  0  0  0  0  0  0  0
   48.3290    4.9860   45.1810 H   0  0  0  0  0  0  0  0  0  0  0  0
  1  4  1  0  0  0  0
  1 23  1  0  0  0  0
  2  1  2  0  0  0  0
  3  1  2  0  0  0  0
  4  9  1  0  0  0  0
  5  6  1  0  0  0  0
  5  4  1  0  0  0  0
  6  7  1  0  0  0  0
  7 10  1  0  0  0  0
  7  8  1  0  0  0  0
  8 34  1  0  0  0  0
  9  8  1  0  0  0  0
  9 36  1  0  0  0  0
 10 15  1  0  0  0  0
 11 10  2  0  0  0  0
 11 12  1  0  0  0  0
 12 13  2  0  0  0  0
 13 14  1  0  0  0  0
 13 38  1  0  0  0  0
 14 16  1  0  0  0  0
 15 14  2  0  0  0  0
 16 41  1  0  0  0  0
 16 40  1  0  0  0  0
 17 12  1  0  0  0  0
 17 22  1  0  0  0  0
 18 43  1  0  0  0  0
 18 19  1  0  0  0  0
 18 17  1  0  0  0  0
 19 20  1  0  0  0  0
 20 21  1  0  0  0  0
 21 47  1  0  0  0  0
 21 46  1  0  0  0  0
 22 49  1  0  0  0  0
 22 21  1  0  0  0  0
 23 28  1  0  0  0  0
 24 23  2  0  0  0  0
 24 25  1  0  0  0  0
 25 26  2  0  0  0  0
 26 27  1  0  0  0  0
 26 29  1  0  0  0  0
 27 52  1  0  0  0  0
 28 53  1  0  0  0  0
 28 27  2  0  0  0  0
 30  5  1  0  0  0  0
 31  5  1  0  0  0  0
 32  6  1  0  0  0  0
 33  6  1  0  0  0  0
 35  8  1  0  0  0  0
 37  9  1  0  0  0  0
 39 16  1  0  0  0  0
 42 18  1  0  0  0  0
 44 19  1  0  0  0  0
 45 19  1  0  0  0  0
 48 22  1  0  0  0  0
 50 24  1  0  0  0  0
 51 25  1  0  0  0  0
M  END
>  <Pose>
1

>  <Score>
-5.90

$$$$
