
 OpenBabel03172210433D

 43 46  0  0  0  0  0  0  0  0999 V2000
   43.0930    9.6640   46.3310 S   0  0  0  0  0  0  0  0  0  0  0  0
   44.0230    8.7680   47.1390 O   0  0  0  0  0  0  0  0  0  0  0  0
   41.7940    9.6960   47.0800 O   0  0  0  0  0  0  0  0  0  0  0  0
   42.8940    8.9430   44.8030 N   0  0  0  0  0  0  0  0  0  0  0  0
   43.7250    9.4450   43.7750 C   0  0  0  0  0  0  0  0  0  0  0  0
   44.9830    8.6920   43.5210 C   0  0  0  0  0  0  0  0  0  0  0  0
   44.7590    7.2380   43.5670 N   0  0  0  0  0  0  0  0  0  0  0  0
   43.3670    6.8450   43.6270 C   0  0  0  0  0  0  0  0  0  0  0  0
   42.7850    7.5110   44.8590 C   0  0  0  0  0  0  0  0  0  0  0  0
   45.8470    6.3350   43.5500 C   0  0  0  0  0  0  0  0  0  0  0  0
   45.9900    5.4820   42.4630 C   0  0  0  0  0  0  0  0  0  0  0  0
   47.0660    4.5960   42.4580 C   0  0  0  0  0  0  0  0  0  0  0  0
   47.9390    4.5570   43.4550 N   0  0  0  0  0  0  0  0  0  0  0  0
   48.8480    3.6130   43.1590 C   0  0  0  0  0  0  0  0  0  0  0  0
   48.5070    3.0840   41.9680 N   0  0  0  0  0  0  0  0  0  0  0  0
   47.4130    3.6850   41.5330 N   0  0  0  0  0  0  0  0  0  0  0  0
   50.0260    3.2150   43.9950 C   0  0  0  0  0  0  0  0  0  0  0  0
   47.8180    5.3520   44.4810 N   0  0  0  0  0  0  0  0  0  0  0  0
   46.7860    6.2340   44.5360 C   0  0  0  0  0  0  0  0  0  0  0  0
   43.8540   11.2310   46.2640 C   0  0  0  0  0  0  0  0  0  0  0  0
   43.6330   12.1060   45.2100 C   0  0  0  0  0  0  0  0  0  0  0  0
   44.2350   13.3440   45.1570 C   0  0  0  0  0  0  0  0  0  0  0  0
   45.0830   13.7150   46.1890 C   0  0  0  0  0  0  0  0  0  0  0  0
   45.3340   12.8800   47.2600 C   0  0  0  0  0  0  0  0  0  0  0  0
   44.7130   11.6530   47.2730 C   0  0  0  0  0  0  0  0  0  0  0  0
   45.9120   15.4400   46.1000 B   0  0  0  0  0  0  0  0  0  0  0  0
   43.1230    9.4760   42.8200 H   0  0  0  0  0  0  0  0  0  0  0  0
   43.9650   10.5020   43.9930 H   0  0  0  0  0  0  0  0  0  0  0  0
   45.3280    8.9110   42.4860 H   0  0  0  0  0  0  0  0  0  0  0  0
   45.7950    8.9930   44.2030 H   0  0  0  0  0  0  0  0  0  0  0  0
   43.1920    5.7750   43.7180 H   0  0  0  0  0  0  0  0  0  0  0  0
   42.8200    7.2930   42.7470 H   0  0  0  0  0  0  0  0  0  0  0  0
   41.7340    7.2070   45.0370 H   0  0  0  0  0  0  0  0  0  0  0  0
   43.3750    7.1550   45.7290 H   0  0  0  0  0  0  0  0  0  0  0  0
   45.3080    5.4730   41.6260 H   0  0  0  0  0  0  0  0  0  0  0  0
   49.8630    3.5310   45.0540 H   0  0  0  0  0  0  0  0  0  0  0  0
   50.1260    2.1280   43.9920 H   0  0  0  0  0  0  0  0  0  0  0  0
   50.9570    3.6840   43.6230 H   0  0  0  0  0  0  0  0  0  0  0  0
   46.7360    6.8560   45.3930 H   0  0  0  0  0  0  0  0  0  0  0  0
   42.9590   11.7730   44.4200 H   0  0  0  0  0  0  0  0  0  0  0  0
   44.0190   13.9710   44.3120 H   0  0  0  0  0  0  0  0  0  0  0  0
   46.0060   13.2290   48.0330 H   0  0  0  0  0  0  0  0  0  0  0  0
   44.9030   11.0020   48.0960 H   0  0  0  0  0  0  0  0  0  0  0  0
  1  3  2  0  0  0  0
  1  2  2  0  0  0  0
  4  9  1  0  0  0  0
  4  1  1  0  0  0  0
  5 28  1  0  0  0  0
  5  4  1  0  0  0  0
  6  7  1  0  0  0  0
  6  5  1  0  0  0  0
  6 30  1  0  0  0  0
  7  8  1  0  0  0  0
  8 31  1  0  0  0  0
  8  9  1  0  0  0  0
  9 33  1  0  0  0  0
  9 34  1  0  0  0  0
 10  7  1  0  0  0  0
 10 19  1  0  0  0  0
 11 10  2  0  0  0  0
 12 11  1  0  0  0  0
 12 13  1  0  0  0  0
 13 18  1  0  0  0  0
 14 13  1  0  0  0  0
 14 17  1  0  0  0  0
 15 14  2  0  0  0  0
 16 15  1  0  0  0  0
 16 12  2  0  0  0  0
 17 36  1  0  0  0  0
 18 19  2  0  0  0  0
 19 39  1  0  0  0  0
 20  1  1  0  0  0  0
 20 25  1  0  0  0  0
 21 20  2  0  0  0  0
 22 21  1  0  0  0  0
 22 23  2  0  0  0  0
 23 24  1  0  0  0  0
 24 25  2  0  0  0  0
 24 42  1  0  0  0  0
 25 43  1  0  0  0  0
 26 23  1  0  0  0  0
 27  5  1  0  0  0  0
 29  6  1  0  0  0  0
 32  8  1  0  0  0  0
 35 11  1  0  0  0  0
 37 17  1  0  0  0  0
 38 17  1  0  0  0  0
 40 21  1  0  0  0  0
 41 22  1  0  0  0  0
M  END
>  <Pose>
1

>  <Score>
-6.35

$$$$
