
 OpenBabel03172210433D

 57 60  0  0  1  0  0  0  0  0999 V2000
   43.3780    9.2730   45.3140 S   0  0  0  0  0  0  0  0  0  0  0  0
   44.1270    8.3100   46.1780 O   0  0  0  0  0  0  0  0  0  0  0  0
   41.9090    9.1260   45.6930 O   0  0  0  0  0  0  0  0  0  0  0  0
   43.5940    9.0290   43.6460 N   0  0  0  0  0  0  0  0  0  0  0  0
   42.7530    9.9120   42.9100 C   0  0  0  0  0  0  0  0  0  0  0  0
   41.7800    9.2280   41.9770 C   0  0  0  0  0  0  0  0  0  0  0  0
   41.1240    8.1010   42.6460 N   0  0  0  0  0  0  0  0  0  0  0  0
   42.0510    7.2480   43.3560 C   0  0  0  0  0  0  0  0  0  0  0  0
   41.6830    6.2730   44.0160 O   0  0  0  0  0  0  0  0  0  0  0  0
   43.4750    7.6930   43.1910 C   0  0  2  0  0  0  0  0  0  0  0  0
   44.4490    6.7040   43.6970 C   0  0  0  0  0  0  0  0  0  0  0  0
   45.7180    6.8250   42.9410 C   0  0  0  0  0  0  0  0  0  0  0  0
   45.7940    7.7730   42.1150 O   0  0  0  0  0  0  0  0  0  0  0  0
   46.8030    5.9170   43.1350 N   0  0  0  0  0  0  0  0  0  0  0  0
   47.6470    6.0100   44.2950 C   0  0  0  0  0  0  0  0  0  0  0  0
   48.2260    4.7030   44.7390 C   0  0  0  0  0  0  0  0  0  0  0  0
   48.4690    3.7670   43.6540 N   0  0  0  0  0  0  0  0  0  0  0  0
   47.3270    3.5520   42.7790 C   0  0  0  0  0  0  0  0  0  0  0  0
   47.0440    4.8980   42.1470 C   0  0  0  0  0  0  0  0  0  0  0  0
   49.6700    3.0830   43.4240 C   0  0  0  0  0  0  0  0  0  0  0  0
   50.7770    3.3830   44.1870 C   0  0  0  0  0  0  0  0  0  0  0  0
   51.9680    2.7140   43.9470 C   0  0  0  0  0  0  0  0  0  0  0  0
   52.0980    1.7560   42.9730 C   0  0  0  0  0  0  0  0  0  0  0  0
   50.9890    1.4590   42.2140 C   0  0  0  0  0  0  0  0  0  0  0  0
   49.7950    2.1240   42.4480 C   0  0  0  0  0  0  0  0  0  0  0  0
   43.8260   10.9000   45.7940 C   0  0  0  0  0  0  0  0  0  0  0  0
   44.0710   11.2460   47.1170 C   0  0  0  0  0  0  0  0  0  0  0  0
   44.4180   12.5070   47.5150 C   0  0  0  0  0  0  0  0  0  0  0  0
   44.5410   13.5100   46.5890 C   0  0  0  0  0  0  0  0  0  0  0  0
   44.3020   13.1990   45.2450 C   0  0  0  0  0  0  0  0  0  0  0  0
   43.9550   11.9200   44.8810 C   0  0  0  0  0  0  0  0  0  0  0  0
   45.0210   15.2840   47.0810 B   0  0  0  0  0  0  0  0  0  0  0  0
   43.3880   10.5720   42.2620 H   0  0  0  0  0  0  0  0  0  0  0  0
   42.1490   10.6040   43.5320 H   0  0  0  0  0  0  0  0  0  0  0  0
   42.2980    8.9220   41.0560 H   0  0  0  0  0  0  0  0  0  0  0  0
   40.9930    9.9500   41.7010 H   0  0  0  0  0  0  0  0  0  0  0  0
   40.1240    7.9060   42.6330 H   0  0  0  0  0  0  0  0  0  0  0  0
   43.6100    7.7300   42.0690 H   0  0  0  0  0  0  0  0  0  0  0  0
   43.9780    5.6880   43.5310 H   0  0  0  0  0  0  0  0  0  0  0  0
   44.6340    6.7290   44.7880 H   0  0  0  0  0  0  0  0  0  0  0  0
   48.4860    6.7370   44.1480 H   0  0  0  0  0  0  0  0  0  0  0  0
   47.0930    6.4220   45.1830 H   0  0  0  0  0  0  0  0  0  0  0  0
   49.1740    4.9050   45.2510 H   0  0  0  0  0  0  0  0  0  0  0  0
   47.5620    4.1830   45.4710 H   0  0  0  0  0  0  0  0  0  0  0  0
   46.4350    3.3260   43.4120 H   0  0  0  0  0  0  0  0  0  0  0  0
   47.4610    2.8210   41.9990 H   0  0  0  0  0  0  0  0  0  0  0  0
   47.8940    5.2460   41.5230 H   0  0  0  0  0  0  0  0  0  0  0  0
   46.1730    4.8300   41.4670 H   0  0  0  0  0  0  0  0  0  0  0  0
   50.7790    4.1260   44.9910 H   0  0  0  0  0  0  0  0  0  0  0  0
   52.8460    2.9430   44.5430 H   0  0  0  0  0  0  0  0  0  0  0  0
   53.0430    1.2350   42.7940 H   0  0  0  0  0  0  0  0  0  0  0  0
   51.0660    0.7030   41.4360 H   0  0  0  0  0  0  0  0  0  0  0  0
   48.9810    1.8280   41.7990 H   0  0  0  0  0  0  0  0  0  0  0  0
   43.9890   10.4920   47.8770 H   0  0  0  0  0  0  0  0  0  0  0  0
   44.6080   12.7690   48.5620 H   0  0  0  0  0  0  0  0  0  0  0  0
   44.4090   14.0150   44.5480 H   0  0  0  0  0  0  0  0  0  0  0  0
   43.7780   11.7120   43.8430 H   0  0  0  0  0  0  0  0  0  0  0  0
  1  3  2  0  0  0  0
  1 26  1  0  0  0  0
  1  2  2  0  0  0  0
  4  1  1  0  0  0  0
  5 34  1  0  0  0  0
  5  4  1  0  0  0  0
  6  7  1  0  0  0  0
  6  5  1  0  0  0  0
  7  8  1  0  0  0  0
  8  9  2  0  0  0  0
 10 38  1  6  0  0  0
 10  8  1  0  0  0  0
 10  4  1  0  0  0  0
 10 11  1  0  0  0  0
 11 40  1  0  0  0  0
 12 14  1  0  0  0  0
 12 11  1  0  0  0  0
 13 12  2  0  0  0  0
 14 15  1  0  0  0  0
 15 16  1  0  0  0  0
 15 42  1  0  0  0  0
 16 43  1  0  0  0  0
 16 44  1  0  0  0  0
 17 16  1  0  0  0  0
 18 45  1  0  0  0  0
 18 17  1  0  0  0  0
 19 18  1  0  0  0  0
 19 14  1  0  0  0  0
 20 17  1  0  0  0  0
 20 21  1  0  0  0  0
 21 49  1  0  0  0  0
 22 21  2  0  0  0  0
 22 50  1  0  0  0  0
 23 22  1  0  0  0  0
 24 25  1  0  0  0  0
 24 23  2  0  0  0  0
 25 20  2  0  0  0  0
 26 27  1  0  0  0  0
 27 28  2  0  0  0  0
 27 54  1  0  0  0  0
 28 55  1  0  0  0  0
 29 32  1  0  0  0  0
 29 28  1  0  0  0  0
 30 29  2  0  0  0  0
 31 30  1  0  0  0  0
 31 26  2  0  0  0  0
 33  5  1  0  0  0  0
 35  6  1  0  0  0  0
 36  6  1  0  0  0  0
 37  7  1  0  0  0  0
 39 11  1  0  0  0  0
 41 15  1  0  0  0  0
 46 18  1  0  0  0  0
 47 19  1  0  0  0  0
 48 19  1  0  0  0  0
 51 23  1  0  0  0  0
 52 24  1  0  0  0  0
 53 25  1  0  0  0  0
 56 30  1  0  0  0  0
 57 31  1  0  0  0  0
M  END
>  <Pose>
1

>  <Score>
-7.78

$$$$
