
 OpenBabel03172210433D

 46 49  0  0  0  0  0  0  0  0999 V2000
   41.7500    8.4530   47.4000 S   0  0  0  0  0  0  0  0  0  0  0  0
   41.4260    7.3390   48.3870 O   0  0  0  0  0  0  0  0  0  0  0  0
   43.0070    9.1050   47.9420 O   0  0  0  0  0  0  0  0  0  0  0  0
   40.4660    9.5290   47.3800 N   0  0  0  0  0  0  0  0  0  0  0  0
   40.0750   10.0840   46.1520 C   0  0  0  0  0  0  0  0  0  0  0  0
   38.5830   10.0610   45.9990 C   0  0  0  0  0  0  0  0  0  0  0  0
   38.0410   10.7440   47.0740 O   0  0  0  0  0  0  0  0  0  0  0  0
   38.2410   10.0850   48.2810 C   0  0  0  0  0  0  0  0  0  0  0  0
   39.6270    9.6140   48.4960 C   0  0  0  0  0  0  0  0  0  0  0  0
   42.0990    7.7120   45.8560 C   0  0  0  0  0  0  0  0  0  0  0  0
   41.4260    6.7250   45.2420 N   0  0  0  0  0  0  0  0  0  0  0  0
   42.0340    6.4480   44.0600 C   0  0  0  0  0  0  0  0  0  0  0  0
   43.0980    7.2550   43.9100 N   0  0  0  0  0  0  0  0  0  0  0  0
   43.1510    8.0240   44.9880 C   0  0  0  0  0  0  0  0  0  0  0  0
   43.9900    7.2460   42.7690 C   0  0  0  0  0  0  0  0  0  0  0  0
   45.4050    7.0930   43.1820 C   0  0  0  0  0  0  0  0  0  0  0  0
   46.4760    7.5710   42.4940 N   0  0  0  0  0  0  0  0  0  0  0  0
   47.5510    7.2540   43.1500 O   0  0  0  0  0  0  0  0  0  0  0  0
   47.2650    6.5880   44.2410 C   0  0  0  0  0  0  0  0  0  0  0  0
   45.9120    6.4880   44.2580 N   0  0  0  0  0  0  0  0  0  0  0  0
   48.2050    6.0410   45.2660 C   0  0  0  0  0  0  0  0  0  0  0  0
   48.7960    4.8010   44.6910 C   0  0  0  0  0  0  0  0  0  0  0  0
   49.8310    4.1850   45.3760 C   0  0  0  0  0  0  0  0  0  0  0  0
   50.4340    3.0420   44.9210 C   0  0  0  0  0  0  0  0  0  0  0  0
   49.9880    2.4980   43.7470 C   0  0  0  0  0  0  0  0  0  0  0  0
   48.9750    3.0650   43.0370 C   0  0  0  0  0  0  0  0  0  0  0  0
   48.3810    4.2260   43.5230 C   0  0  0  0  0  0  0  0  0  0  0  0
   50.8030    0.9070   43.0820 B   0  0  0  0  0  0  0  0  0  0  0  0
   40.6010    9.5650   45.3230 H   0  0  0  0  0  0  0  0  0  0  0  0
   40.3760   11.1720   46.1370 H   0  0  0  0  0  0  0  0  0  0  0  0
   38.2460   10.5910   45.0810 H   0  0  0  0  0  0  0  0  0  0  0  0
   38.2430    9.0120   46.0390 H   0  0  0  0  0  0  0  0  0  0  0  0
   37.9170   10.7970   49.0820 H   0  0  0  0  0  0  0  0  0  0  0  0
   37.5350    9.2270   48.3570 H   0  0  0  0  0  0  0  0  0  0  0  0
   39.6140    8.6130   49.0230 H   0  0  0  0  0  0  0  0  0  0  0  0
   40.1090   10.2980   49.2560 H   0  0  0  0  0  0  0  0  0  0  0  0
   41.6980    5.6890   43.3580 H   0  0  0  0  0  0  0  0  0  0  0  0
   43.8770    8.7930   45.2090 H   0  0  0  0  0  0  0  0  0  0  0  0
   43.8930    8.1810   42.1810 H   0  0  0  0  0  0  0  0  0  0  0  0
   43.7030    6.4220   42.0840 H   0  0  0  0  0  0  0  0  0  0  0  0
   47.6040    5.8000   46.1620 H   0  0  0  0  0  0  0  0  0  0  0  0
   48.9930    6.7860   45.5070 H   0  0  0  0  0  0  0  0  0  0  0  0
   50.1680    4.6390   46.3080 H   0  0  0  0  0  0  0  0  0  0  0  0
   51.2510    2.5550   45.4600 H   0  0  0  0  0  0  0  0  0  0  0  0
   48.6140    2.6380   42.1020 H   0  0  0  0  0  0  0  0  0  0  0  0
   47.5740    4.6870   42.9680 H   0  0  0  0  0  0  0  0  0  0  0  0
  1  3  2  0  0  0  0
  1  2  2  0  0  0  0
  4  1  1  0  0  0  0
  4  9  1  0  0  0  0
  5  4  1  0  0  0  0
  6 32  1  0  0  0  0
  6  5  1  0  0  0  0
  6  7  1  0  0  0  0
  7  8  1  0  0  0  0
  8 34  1  0  0  0  0
  8  9  1  0  0  0  0
  8 33  1  0  0  0  0
  9 35  1  0  0  0  0
  9 36  1  0  0  0  0
 10  1  1  0  0  0  0
 11 10  1  0  0  0  0
 12 11  2  0  0  0  0
 13 12  1  0  0  0  0
 13 14  1  0  0  0  0
 14 38  1  0  0  0  0
 14 10  2  0  0  0  0
 15 16  1  0  0  0  0
 15 13  1  0  0  0  0
 16 20  1  0  0  0  0
 17 18  1  0  0  0  0
 17 16  2  0  0  0  0
 18 19  1  0  0  0  0
 19 20  2  0  0  0  0
 19 21  1  0  0  0  0
 21 42  1  0  0  0  0
 21 41  1  0  0  0  0
 22 21  1  0  0  0  0
 22 23  1  0  0  0  0
 23 43  1  0  0  0  0
 24 23  2  0  0  0  0
 24 44  1  0  0  0  0
 25 24  1  0  0  0  0
 26 27  1  0  0  0  0
 26 25  2  0  0  0  0
 27 22  2  0  0  0  0
 28 25  1  0  0  0  0
 29  5  1  0  0  0  0
 30  5  1  0  0  0  0
 31  6  1  0  0  0  0
 37 12  1  0  0  0  0
 39 15  1  0  0  0  0
 40 15  1  0  0  0  0
 45 26  1  0  0  0  0
 46 27  1  0  0  0  0
M  END
>  <Pose>
1

>  <Score>
-5.92

$$$$
