
 OpenBabel03172210433D

 43 46  0  0  0  0  0  0  0  0999 V2000
   47.3120    4.6640   42.9380 S   0  0  0  0  0  0  0  0  0  0  0  0
   46.4620    3.5450   43.4770 O   0  0  0  0  0  0  0  0  0  0  0  0
   47.6050    4.3550   41.5050 O   0  0  0  0  0  0  0  0  0  0  0  0
   48.7460    4.7520   43.8660 N   0  0  0  0  0  0  0  0  0  0  0  0
   49.5370    3.5790   43.8390 C   0  0  0  0  0  0  0  0  0  0  0  0
   50.2470    3.2190   45.1020 C   0  0  0  0  0  0  0  0  0  0  0  0
   50.6300    4.4300   45.7240 O   0  0  0  0  0  0  0  0  0  0  0  0
   49.4370    4.9480   46.2360 C   0  0  0  0  0  0  0  0  0  0  0  0
   48.5970    5.4250   45.1050 C   0  0  0  0  0  0  0  0  0  0  0  0
   46.3680    6.1520   43.0810 C   0  0  0  0  0  0  0  0  0  0  0  0
   46.7990    7.3540   43.5040 N   0  0  0  0  0  0  0  0  0  0  0  0
   45.7660    8.2160   43.4650 C   0  0  0  0  0  0  0  0  0  0  0  0
   44.6600    7.6010   43.0200 N   0  0  0  0  0  0  0  0  0  0  0  0
   45.0280    6.3320   42.7840 C   0  0  0  0  0  0  0  0  0  0  0  0
   43.3510    8.1930   42.8390 C   0  0  0  0  0  0  0  0  0  0  0  0
   43.3170    9.6280   43.2030 C   0  0  0  0  0  0  0  0  0  0  0  0
   42.5540   10.5560   42.5950 N   0  0  0  0  0  0  0  0  0  0  0  0
   42.7690   11.7050   43.1600 O   0  0  0  0  0  0  0  0  0  0  0  0
   43.6420   11.5950   44.1230 C   0  0  0  0  0  0  0  0  0  0  0  0
   43.9870   10.2970   44.1540 N   0  0  0  0  0  0  0  0  0  0  0  0
   44.1150   12.6920   44.9700 C   0  0  0  0  0  0  0  0  0  0  0  0
   45.1740   13.4940   44.6020 C   0  0  0  0  0  0  0  0  0  0  0  0
   45.6120   14.5350   45.4180 C   0  0  0  0  0  0  0  0  0  0  0  0
   45.0000   14.7980   46.6220 C   0  0  0  0  0  0  0  0  0  0  0  0
   43.9410   13.9980   46.9930 C   0  0  0  0  0  0  0  0  0  0  0  0
   43.5040   12.9540   46.1730 C   0  0  0  0  0  0  0  0  0  0  0  0
   47.0830   15.6360   44.8880 B   0  0  0  0  0  0  0  0  0  0  0  0
   48.9430    2.7080   43.4600 H   0  0  0  0  0  0  0  0  0  0  0  0
   50.3430    3.7420   43.0610 H   0  0  0  0  0  0  0  0  0  0  0  0
   51.2080    2.7060   44.8640 H   0  0  0  0  0  0  0  0  0  0  0  0
   49.6680    2.6090   45.8060 H   0  0  0  0  0  0  0  0  0  0  0  0
   48.9740    4.1300   46.8220 H   0  0  0  0  0  0  0  0  0  0  0  0
   49.6090    5.7830   46.9360 H   0  0  0  0  0  0  0  0  0  0  0  0
   48.8510    6.5090   44.9370 H   0  0  0  0  0  0  0  0  0  0  0  0
   47.5110    5.4410   45.3830 H   0  0  0  0  0  0  0  0  0  0  0  0
   45.8000    9.2620   43.7460 H   0  0  0  0  0  0  0  0  0  0  0  0
   44.3740    5.5570   42.4160 H   0  0  0  0  0  0  0  0  0  0  0  0
   42.6390    7.6430   43.4740 H   0  0  0  0  0  0  0  0  0  0  0  0
   42.9870    8.1170   41.7940 H   0  0  0  0  0  0  0  0  0  0  0  0
   45.6580   13.2920   43.6570 H   0  0  0  0  0  0  0  0  0  0  0  0
   45.3530   15.6160   47.2520 H   0  0  0  0  0  0  0  0  0  0  0  0
   43.4330   14.1710   47.9300 H   0  0  0  0  0  0  0  0  0  0  0  0
   42.6740   12.3140   46.4440 H   0  0  0  0  0  0  0  0  0  0  0  0
  1 10  1  0  0  0  0
  1  2  2  0  0  0  0
  1  4  1  0  0  0  0
  3  1  2  0  0  0  0
  4  9  1  0  0  0  0
  5  4  1  0  0  0  0
  5  6  1  0  0  0  0
  6  7  1  0  0  0  0
  6 31  1  0  0  0  0
  7  8  1  0  0  0  0
  8 32  1  0  0  0  0
  8 33  1  0  0  0  0
  9 35  1  0  0  0  0
  9  8  1  0  0  0  0
 10 11  1  0  0  0  0
 12 11  2  0  0  0  0
 12 36  1  0  0  0  0
 13 12  1  0  0  0  0
 14 13  1  0  0  0  0
 14 10  2  0  0  0  0
 15 13  1  0  0  0  0
 15 16  1  0  0  0  0
 15 38  1  0  0  0  0
 16 20  1  0  0  0  0
 17 18  1  0  0  0  0
 17 16  2  0  0  0  0
 18 19  1  0  0  0  0
 19 20  2  0  0  0  0
 19 21  1  0  0  0  0
 21 26  1  0  0  0  0
 22 21  2  0  0  0  0
 22 23  1  0  0  0  0
 23 24  2  0  0  0  0
 24 25  1  0  0  0  0
 24 41  1  0  0  0  0
 25 42  1  0  0  0  0
 26 43  1  0  0  0  0
 26 25  2  0  0  0  0
 27 23  1  0  0  0  0
 28  5  1  0  0  0  0
 29  5  1  0  0  0  0
 30  6  1  0  0  0  0
 34  9  1  0  0  0  0
 37 14  1  0  0  0  0
 39 15  1  0  0  0  0
 40 22  1  0  0  0  0
M  END
>  <Pose>
1

>  <Score>
-6.95

$$$$
