
 OpenBabel03172210433D

 37 40  0  0  0  0  0  0  0  0999 V2000
   44.4860    6.8590   43.4060 S   0  0  0  0  0  0  0  0  0  0  0  0
   43.2930    6.2580   44.6320 C   0  0  0  0  0  0  0  0  0  0  0  0
   41.9260    6.6720   44.2020 C   0  0  0  0  0  0  0  0  0  0  0  0
   41.1890    5.8860   43.5240 O   0  0  0  0  0  0  0  0  0  0  0  0
   41.4010    7.9400   44.5260 N   0  0  0  0  0  0  0  0  0  0  0  0
   41.7870    9.1040   43.8180 C   0  0  0  0  0  0  0  0  0  0  0  0
   42.9770    9.7280   43.8350 N   0  0  0  0  0  0  0  0  0  0  0  0
   42.9550   10.7710   43.0520 O   0  0  0  0  0  0  0  0  0  0  0  0
   41.7790   10.8390   42.5260 N   0  0  0  0  0  0  0  0  0  0  0  0
   40.9920    9.8420   42.9490 C   0  0  0  0  0  0  0  0  0  0  0  0
   39.6490    9.6150   42.5750 N   0  0  0  0  0  0  0  0  0  0  0  0
   45.9250    5.7700   43.4460 C   0  0  0  0  0  0  0  0  0  0  0  0
   46.0590    4.7590   42.5700 N   0  0  0  0  0  0  0  0  0  0  0  0
   47.0920    3.9320   42.5550 N   0  0  0  0  0  0  0  0  0  0  0  0
   48.0990    4.0630   43.4440 C   0  0  0  0  0  0  0  0  0  0  0  0
   47.9840    5.0950   44.3530 C   0  0  0  0  0  0  0  0  0  0  0  0
   49.0880    5.0250   45.1230 N   0  0  0  0  0  0  0  0  0  0  0  0
   49.8800    4.0100   44.7450 C   0  0  0  0  0  0  0  0  0  0  0  0
   49.2800    3.3780   43.6770 C   0  0  0  0  0  0  0  0  0  0  0  0
   49.8410    2.2790   43.0440 C   0  0  0  0  0  0  0  0  0  0  0  0
   51.0560    1.8300   43.5310 C   0  0  0  0  0  0  0  0  0  0  0  0
   51.6790    2.4450   44.5970 C   0  0  0  0  0  0  0  0  0  0  0  0
   51.1040    3.5320   45.2110 C   0  0  0  0  0  0  0  0  0  0  0  0
   51.8300    0.3150   42.6570 B   0  0  0  0  0  0  0  0  0  0  0  0
   49.3510    5.9460   46.2120 C   0  0  0  0  0  0  0  0  0  0  0  0
   46.9070    5.9360   44.3480 N   0  0  0  0  0  0  0  0  0  0  0  0
   43.3740    5.1760   44.7990 H   0  0  0  0  0  0  0  0  0  0  0  0
   43.4950    6.8480   45.5730 H   0  0  0  0  0  0  0  0  0  0  0  0
   40.7130    8.0070   45.3060 H   0  0  0  0  0  0  0  0  0  0  0  0
   38.9350   10.3380   42.7800 H   0  0  0  0  0  0  0  0  0  0  0  0
   39.3390    8.7450   42.0960 H   0  0  0  0  0  0  0  0  0  0  0  0
   49.3410    1.8010   42.2030 H   0  0  0  0  0  0  0  0  0  0  0  0
   52.6370    2.0760   44.9670 H   0  0  0  0  0  0  0  0  0  0  0  0
   51.5660    4.0390   46.0510 H   0  0  0  0  0  0  0  0  0  0  0  0
   49.0150    6.9560   45.9530 H   0  0  0  0  0  0  0  0  0  0  0  0
   48.9320    5.5730   47.1690 H   0  0  0  0  0  0  0  0  0  0  0  0
   50.4550    5.9880   46.3490 H   0  0  0  0  0  0  0  0  0  0  0  0
  1 12  1  0  0  0  0
  1  2  1  0  0  0  0
  2 27  1  0  0  0  0
  2 28  1  0  0  0  0
  3  5  1  0  0  0  0
  3  2  1  0  0  0  0
  4  3  2  0  0  0  0
  5 29  1  0  0  0  0
  6  7  2  0  0  0  0
  6  5  1  0  0  0  0
  8  7  1  0  0  0  0
  9 10  2  0  0  0  0
  9  8  1  0  0  0  0
 10  6  1  0  0  0  0
 11 30  1  0  0  0  0
 11 10  1  0  0  0  0
 12 26  1  0  0  0  0
 13 12  2  0  0  0  0
 14 13  1  0  0  0  0
 14 15  1  0  0  0  0
 15 19  1  0  0  0  0
 15 16  2  0  0  0  0
 16 17  1  0  0  0  0
 17 25  1  0  0  0  0
 18 17  1  0  0  0  0
 18 23  1  0  0  0  0
 19 18  2  0  0  0  0
 20 21  2  0  0  0  0
 20 19  1  0  0  0  0
 21 22  1  0  0  0  0
 22 33  1  0  0  0  0
 22 23  2  0  0  0  0
 23 34  1  0  0  0  0
 24 21  1  0  0  0  0
 25 37  1  0  0  0  0
 25 36  1  0  0  0  0
 26 16  1  0  0  0  0
 31 11  1  0  0  0  0
 32 20  1  0  0  0  0
 35 25  1  0  0  0  0
M  END
>  <Pose>
1

>  <Score>
-8.02

$$$$
