
 OpenBabel03172210433D

 47 50  0  0  1  0  0  0  0  0999 V2000
   44.2710   14.0080   45.5630 S   0  0  0  0  0  0  0  0  0  0  0  0
   45.4350   13.7780   46.9780 C   0  0  0  0  0  0  0  0  0  0  0  0
   45.1540   14.7920   48.0200 C   0  0  0  0  0  0  0  0  0  0  0  0
   45.5840   16.0960   47.9670 C   0  0  0  0  0  0  0  0  0  0  0  0
   45.4220   16.9520   49.0000 C   0  0  0  0  0  0  0  0  0  0  0  0
   44.8000   16.5590   50.1800 C   0  0  0  0  0  0  0  0  0  0  0  0
   44.3520   15.2340   50.2690 C   0  0  0  0  0  0  0  0  0  0  0  0
   44.5260   14.3680   49.2060 C   0  0  0  0  0  0  0  0  0  0  0  0
   46.3030   16.6670   46.2900 B   0  0  0  0  0  0  0  0  0  0  0  0
   43.7240   12.4130   44.9380 C   0  0  0  0  0  0  0  0  0  0  0  0
   42.4590   12.0370   44.7480 N   0  0  0  0  0  0  0  0  0  0  0  0
   42.4990   10.8010   44.1820 C   0  0  0  0  0  0  0  0  0  0  0  0
   41.6250    9.9120   43.6860 N   0  0  0  0  0  0  0  0  0  0  0  0
   41.9360    8.7510   43.0990 C   0  0  0  0  0  0  0  0  0  0  0  0
   43.2810    8.4200   42.9960 N   0  0  0  0  0  0  0  0  0  0  0  0
   44.2060    9.2280   43.4520 C   0  0  0  0  0  0  0  0  0  0  0  0
   43.8630   10.4250   44.0470 C   0  0  0  0  0  0  0  0  0  0  0  0
   44.5590   11.4510   44.5210 N   0  0  0  0  0  0  0  0  0  0  0  0
   45.5470    8.9450   43.3840 O   0  0  0  0  0  0  0  0  0  0  0  0
   40.9890    7.8350   42.5300 N   0  0  0  0  0  0  0  0  0  0  0  0
   41.2330   12.6900   45.0750 C   0  0  2  0  0  0  0  0  0  0  0  0
   40.6360   12.2290   46.2690 O   0  0  0  0  0  0  0  0  0  0  0  0
   39.4090   12.9260   46.1870 C   0  0  1  0  0  0  0  0  0  0  0  0
   38.9290   12.3410   44.8330 C   0  0  2  0  0  0  0  0  0  0  0  0
   40.1770   12.7030   44.0180 C   0  0  1  0  0  0  0  0  0  0  0  0
   39.9650   14.0130   43.5170 O   0  0  0  0  0  0  0  0  0  0  0  0
   37.7920   12.9470   44.3720 O   0  0  0  0  0  0  0  0  0  0  0  0
   38.4920   12.5910   47.3020 C   0  0  0  0  0  0  0  0  0  0  0  0
   37.2900   13.2980   47.1830 O   0  0  0  0  0  0  0  0  0  0  0  0
   46.4290   13.8090   46.6220 H   0  0  0  0  0  0  0  0  0  0  0  0
   45.1390   12.7350   47.3840 H   0  0  0  0  0  0  0  0  0  0  0  0
   45.7770   17.9630   48.9100 H   0  0  0  0  0  0  0  0  0  0  0  0
   44.6500   17.2580   50.9850 H   0  0  0  0  0  0  0  0  0  0  0  0
   43.8670   14.8680   51.1760 H   0  0  0  0  0  0  0  0  0  0  0  0
   44.2190   13.3620   49.2990 H   0  0  0  0  0  0  0  0  0  0  0  0
   46.2760    9.6310   43.5410 H   0  0  0  0  0  0  0  0  0  0  0  0
   40.7830    7.7000   41.5430 H   0  0  0  0  0  0  0  0  0  0  0  0
   40.4030    7.2530   43.2250 H   0  0  0  0  0  0  0  0  0  0  0  0
   41.4570   13.7680   45.3150 H   0  0  0  0  0  0  0  0  0  0  0  0
   39.5780   13.9940   46.0370 H   0  0  0  0  0  0  0  0  0  0  0  0
   38.8110   11.2450   44.9120 H   0  0  0  0  0  0  0  0  0  0  0  0
   40.3120   12.0830   43.1630 H   0  0  0  0  0  0  0  0  0  0  0  0
   40.4290   14.0160   42.6500 H   0  0  0  0  0  0  0  0  0  0  0  0
   37.3160   12.3490   43.7470 H   0  0  0  0  0  0  0  0  0  0  0  0
   38.9590   13.0380   48.2370 H   0  0  0  0  0  0  0  0  0  0  0  0
   38.3840   11.5320   47.4860 H   0  0  0  0  0  0  0  0  0  0  0  0
   36.8190   12.9440   46.3680 H   0  0  0  0  0  0  0  0  0  0  0  0
  1  2  1  0  0  0  0
  2 31  1  0  0  0  0
  2  3  1  0  0  0  0
  3  8  1  0  0  0  0
  4  3  2  0  0  0  0
  4  5  1  0  0  0  0
  5  6  2  0  0  0  0
  6  7  1  0  0  0  0
  6 33  1  0  0  0  0
  7 34  1  0  0  0  0
  8 35  1  0  0  0  0
  8  7  2  0  0  0  0
  9  4  1  0  0  0  0
 10  1  1  0  0  0  0
 11 10  1  0  0  0  0
 11 21  1  0  0  0  0
 12 11  1  0  0  0  0
 13 12  1  0  0  0  0
 14 13  2  0  0  0  0
 15 14  1  0  0  0  0
 15 16  2  0  0  0  0
 16 17  1  0  0  0  0
 17 12  2  0  0  0  0
 17 18  1  0  0  0  0
 18 10  2  0  0  0  0
 19 16  1  0  0  0  0
 19 36  1  0  0  0  0
 20 14  1  0  0  0  0
 20 38  1  0  0  0  0
 21 39  1  1  0  0  0
 21 22  1  0  0  0  0
 23 40  1  6  0  0  0
 23 22  1  0  0  0  0
 23 28  1  0  0  0  0
 24 41  1  1  0  0  0
 24 23  1  0  0  0  0
 25 42  1  6  0  0  0
 25 24  1  0  0  0  0
 25 21  1  0  0  0  0
 26 25  1  0  0  0  0
 27 24  1  0  0  0  0
 28 46  1  0  0  0  0
 28 45  1  0  0  0  0
 29 28  1  0  0  0  0
 30  2  1  0  0  0  0
 32  5  1  0  0  0  0
 37 20  1  0  0  0  0
 43 26  1  0  0  0  0
 44 27  1  0  0  0  0
 47 29  1  0  0  0  0
M  END
>  <Pose>
1

>  <Score>
-6.33

$$$$
