
 OpenBabel03172210433D

 52 56  0  0  1  0  0  0  0  0999 V2000
   41.8410    9.2090   42.3810 S   0  0  0  0  0  0  0  0  0  0  0  0
   41.6180    9.1980   44.1530 C   0  0  0  0  0  0  0  0  0  0  0  0
   40.6820    9.8570   44.7340 N   0  0  0  0  0  0  0  0  0  0  0  0
   40.4440    9.8950   46.1310 C   0  0  0  0  0  0  0  0  0  0  0  0
   39.3290   10.0180   46.6440 O   0  0  0  0  0  0  0  0  0  0  0  0
   41.7240    9.7660   46.9860 C   0  0  1  0  0  0  0  0  0  0  0  0
   42.2700    8.4860   46.4410 C   0  0  0  0  0  0  0  0  0  0  0  0
   42.5420    7.4750   47.0910 O   0  0  0  0  0  0  0  0  0  0  0  0
   42.4860    8.4530   45.0380 N   0  0  0  0  0  0  0  0  0  0  0  0
   43.5400    7.6920   44.5230 C   0  0  0  0  0  0  0  0  0  0  0  0
   44.6530    8.3810   44.0260 C   0  0  0  0  0  0  0  0  0  0  0  0
   45.7310    7.7000   43.5030 C   0  0  0  0  0  0  0  0  0  0  0  0
   45.7060    6.3090   43.4710 C   0  0  0  0  0  0  0  0  0  0  0  0
   44.5890    5.6290   43.9710 C   0  0  0  0  0  0  0  0  0  0  0  0
   43.5230    6.3260   44.4890 C   0  0  0  0  0  0  0  0  0  0  0  0
   47.1620    5.3380   42.7630 B   0  0  0  0  0  0  0  0  0  0  0  0
   42.5010   10.9580   46.6740 C   0  0  1  0  0  0  0  0  0  0  0  0
   41.6760   12.1380   46.4550 N   0  0  0  0  0  4  0  0  0  0  0  0
   42.3870   13.0950   45.6240 C   0  0  0  0  0  0  0  0  0  0  0  0
   43.8570   12.8050   45.4690 C   0  0  0  0  0  0  0  0  0  0  0  0
   44.3950   12.3920   46.8140 C   0  0  0  0  0  0  0  0  0  0  0  0
   43.6320   11.3970   47.4720 C   0  0  0  0  0  0  0  0  0  0  0  0
   44.0200   10.9680   48.7110 C   0  0  0  0  0  0  0  0  0  0  0  0
   45.1630   11.5360   49.2680 C   0  0  0  0  0  0  0  0  0  0  0  0
   45.8880   12.5000   48.6080 C   0  0  0  0  0  0  0  0  0  0  0  0
   45.5080   12.9460   47.3560 C   0  0  0  0  0  0  0  0  0  0  0  0
   46.9550   12.8640   49.4040 O   0  0  0  0  0  0  0  0  0  0  0  0
   46.7520   12.3440   50.6950 C   0  0  0  0  0  0  0  0  0  0  0  0
   45.7870   11.3160   50.4650 O   0  0  0  0  0  0  0  0  0  0  0  0
   43.3050   10.0020   49.4050 O   0  0  0  0  0  0  0  0  0  0  0  0
   43.8830    8.7130   49.5790 C   0  0  0  0  0  0  0  0  0  0  0  0
   41.2500   12.7980   47.6400 C   0  0  0  0  0  0  0  0  0  0  0  0
   41.3430    9.6010   47.9810 H   0  0  0  0  0  0  0  0  0  0  0  0
   44.6960    9.4670   44.0400 H   0  0  0  0  0  0  0  0  0  0  0  0
   46.5760    8.2510   43.1260 H   0  0  0  0  0  0  0  0  0  0  0  0
   44.5270    4.5530   43.9660 H   0  0  0  0  0  0  0  0  0  0  0  0
   42.6710    5.8090   44.8700 H   0  0  0  0  0  0  0  0  0  0  0  0
   42.9230   10.7780   45.6210 H   0  0  0  0  0  0  0  0  0  0  0  0
   40.8400   11.8220   45.9210 H   0  0  0  0  0  0  0  0  0  0  0  0
   42.2860   14.1220   46.0320 H   0  0  0  0  0  0  0  0  0  0  0  0
   41.9580   13.1400   44.5860 H   0  0  0  0  0  0  0  0  0  0  0  0
   44.1080   12.0940   44.6760 H   0  0  0  0  0  0  0  0  0  0  0  0
   44.3550   13.7840   45.2310 H   0  0  0  0  0  0  0  0  0  0  0  0
   46.0720   13.7100   46.8190 H   0  0  0  0  0  0  0  0  0  0  0  0
   47.6850   11.9190   51.1180 H   0  0  0  0  0  0  0  0  0  0  0  0
   46.3220   13.1440   51.3310 H   0  0  0  0  0  0  0  0  0  0  0  0
   43.4690    8.0500   48.7740 H   0  0  0  0  0  0  0  0  0  0  0  0
   43.6970    8.2810   50.5630 H   0  0  0  0  0  0  0  0  0  0  0  0
   44.9660    8.7690   49.4060 H   0  0  0  0  0  0  0  0  0  0  0  0
   40.8250   13.7800   47.3420 H   0  0  0  0  0  0  0  0  0  0  0  0
   40.4560   12.2750   48.2010 H   0  0  0  0  0  0  0  0  0  0  0  0
   42.1220   13.0560   48.3060 H   0  0  0  0  0  0  0  0  0  0  0  0
  1  2  2  0  0  0  0
  2  3  1  0  0  0  0
  2  9  1  0  0  0  0
  3  4  1  0  0  0  0
  4  5  2  0  0  0  0
  4  6  1  0  0  0  0
  6 33  1  1  0  0  0
  7  6  1  0  0  0  0
  7  8  2  0  0  0  0
  9  7  1  0  0  0  0
 10  9  1  0  0  0  0
 11 34  1  0  0  0  0
 11 10  2  0  0  0  0
 12 11  1  0  0  0  0
 13 12  2  0  0  0  0
 13 14  1  0  0  0  0
 14 15  2  0  0  0  0
 15 10  1  0  0  0  0
 15 37  1  0  0  0  0
 16 13  1  0  0  0  0
 17 38  1  6  0  0  0
 17  6  1  0  0  0  0
 17 22  1  0  0  0  0
 18 17  1  0  0  0  0
 18 32  1  0  0  0  0
 19 40  1  0  0  0  0
 19 18  1  0  0  0  0
 20 19  1  0  0  0  0
 20 21  1  0  0  0  0
 21 26  2  0  0  0  0
 21 22  1  0  0  0  0
 22 23  2  0  0  0  0
 23 24  1  0  0  0  0
 23 30  1  0  0  0  0
 24 29  1  0  0  0  0
 25 24  2  0  0  0  0
 25 27  1  0  0  0  0
 26 25  1  0  0  0  0
 27 28  1  0  0  0  0
 28 45  1  0  0  0  0
 28 46  1  0  0  0  0
 29 28  1  0  0  0  0
 30 31  1  0  0  0  0
 31 48  1  0  0  0  0
 32 51  1  0  0  0  0
 32 52  1  0  0  0  0
 35 12  1  0  0  0  0
 36 14  1  0  0  0  0
 39 18  1  0  0  0  0
 41 19  1  0  0  0  0
 42 20  1  0  0  0  0
 43 20  1  0  0  0  0
 44 26  1  0  0  0  0
 47 31  1  0  0  0  0
 49 31  1  0  0  0  0
 50 32  1  0  0  0  0
M  END
>  <Pose>
1

>  <Score>
-5.15

$$$$
