
 OpenBabel03172210433D

 39 42  0  0  1  0  0  0  0  0999 V2000
   46.3770    5.9100   42.5580 S   0  0  0  0  0  0  0  0  0  0  0  0
   46.4370    5.4180   41.1410 O   0  0  0  0  0  0  0  0  0  0  0  0
   47.7470    6.1930   43.1090 O   0  0  0  0  0  0  0  0  0  0  0  0
   45.3550    7.3610   42.6980 C   0  0  0  0  0  0  0  0  0  0  0  0
   44.8470    7.3740   44.1250 C   0  0  2  0  0  0  0  0  0  0  0  0
   43.8950    6.2940   44.2890 N   0  0  0  0  0  0  0  0  0  0  0  0
   44.1020    5.0220   43.6280 C   0  0  0  0  0  0  0  0  0  0  0  0
   45.5940    4.6840   43.6150 C   0  0  0  0  0  0  0  0  0  0  0  0
   42.8890    6.8120   45.1500 C   0  0  0  0  0  0  0  0  0  0  0  0
   41.9950    6.1300   45.7560 O   0  0  0  0  0  0  0  0  0  0  0  0
   43.0030    8.2250   45.2630 N   0  0  0  0  0  0  0  0  0  0  0  0
   44.1070    8.5970   44.4500 C   0  0  0  0  0  0  0  0  0  0  0  0
   44.4130    9.7650   44.0670 O   0  0  0  0  0  0  0  0  0  0  0  0
   42.1740    9.1320   46.0420 C   0  0  1  0  0  0  0  0  0  0  0  0
   43.0070    9.9170   47.0400 C   0  0  0  0  0  0  0  0  0  0  0  0
   42.0120   10.7500   47.8510 C   0  0  0  0  0  0  0  0  0  0  0  0
   41.4650   11.6950   46.9490 O   0  0  0  0  0  0  0  0  0  0  0  0
   41.1840   11.3410   45.6350 C   0  0  0  0  0  0  0  0  0  0  0  0
   41.5130   10.1060   45.1530 C   0  0  0  0  0  0  0  0  0  0  0  0
   41.2370    9.7570   43.8600 C   0  0  0  0  0  0  0  0  0  0  0  0
   40.6200   10.6770   43.0470 C   0  0  0  0  0  0  0  0  0  0  0  0
   40.2950   11.9140   43.5440 C   0  0  0  0  0  0  0  0  0  0  0  0
   40.5610   12.2970   44.8460 C   0  0  0  0  0  0  0  0  0  0  0  0
   40.1070   14.0140   45.5230 B   0  0  0  0  0  0  0  0  0  0  0  0
   44.4570    7.1740   42.0550 H   0  0  0  0  0  0  0  0  0  0  0  0
   45.8920    8.2810   42.4220 H   0  0  0  0  0  0  0  0  0  0  0  0
   45.6480    7.2220   44.8690 H   0  0  0  0  0  0  0  0  0  0  0  0
   43.7510    5.0260   42.5810 H   0  0  0  0  0  0  0  0  0  0  0  0
   43.6140    4.1760   44.1730 H   0  0  0  0  0  0  0  0  0  0  0  0
   46.0280    4.6710   44.6130 H   0  0  0  0  0  0  0  0  0  0  0  0
   45.6810    3.7170   43.0740 H   0  0  0  0  0  0  0  0  0  0  0  0
   41.4020    8.6060   46.6130 H   0  0  0  0  0  0  0  0  0  0  0  0
   43.5930    9.2730   47.7070 H   0  0  0  0  0  0  0  0  0  0  0  0
   43.6610   10.6490   46.5240 H   0  0  0  0  0  0  0  0  0  0  0  0
   41.1780   10.0540   48.1180 H   0  0  0  0  0  0  0  0  0  0  0  0
   42.4680   11.2150   48.7230 H   0  0  0  0  0  0  0  0  0  0  0  0
   41.5090    8.7580   43.4910 H   0  0  0  0  0  0  0  0  0  0  0  0
   40.3950   10.4130   42.0200 H   0  0  0  0  0  0  0  0  0  0  0  0
   39.8100   12.6210   42.8860 H   0  0  0  0  0  0  0  0  0  0  0  0
  1  4  1  0  0  0  0
  1  3  2  0  0  0  0
  1  8  1  0  0  0  0
  2  1  2  0  0  0  0
  4  5  1  0  0  0  0
  5  6  1  0  0  0  0
  5 12  1  0  0  0  0
  5 27  1  1  0  0  0
  6  9  1  0  0  0  0
  7 29  1  0  0  0  0
  7  6  1  0  0  0  0
  8  7  1  0  0  0  0
  8 30  1  0  0  0  0
  9 11  1  0  0  0  0
  9 10  2  0  0  0  0
 11 14  1  0  0  0  0
 12 11  1  0  0  0  0
 13 12  2  0  0  0  0
 14 32  1  1  0  0  0
 14 15  1  0  0  0  0
 15 33  1  0  0  0  0
 15 16  1  0  0  0  0
 16 35  1  0  0  0  0
 16 36  1  0  0  0  0
 17 16  1  0  0  0  0
 18 17  1  0  0  0  0
 19 18  1  0  0  0  0
 19 14  1  0  0  0  0
 20 19  2  0  0  0  0
 21 22  2  0  0  0  0
 21 20  1  0  0  0  0
 22 23  1  0  0  0  0
 23 24  1  0  0  0  0
 23 18  2  0  0  0  0
 25  4  1  0  0  0  0
 26  4  1  0  0  0  0
 28  7  1  0  0  0  0
 31  8  1  0  0  0  0
 34 15  1  0  0  0  0
 37 20  1  0  0  0  0
 38 21  1  0  0  0  0
 39 22  1  0  0  0  0
M  END
>  <Pose>
1

>  <Score>
-4.85

$$$$
