
 OpenBabel03172210433D

 36 39  0  0  1  0  0  0  0  0999 V2000
   47.0280    4.7020   42.1590 S   0  0  0  0  0  0  0  0  0  0  0  0
   47.1830    6.0290   43.2210 C   0  0  0  0  0  0  0  0  0  0  0  0
   48.0450    5.5540   44.1750 C   0  0  0  0  0  0  0  0  0  0  0  0
   48.4920    4.3030   44.0400 C   0  0  0  0  0  0  0  0  0  0  0  0
   48.0510    3.5940   42.9520 C   0  0  0  0  0  0  0  0  0  0  0  0
   49.7140    3.4550   45.2850 B   0  0  0  0  0  0  0  0  0  0  0  0
   46.5570    7.3690   43.1520 C   0  0  0  0  0  0  0  0  0  0  0  0
   47.1410    8.2070   42.4220 O   0  0  0  0  0  0  0  0  0  0  0  0
   45.3780    7.6620   43.8720 N   0  0  0  0  0  0  0  0  0  0  0  0
   44.0790    7.1450   43.4660 C   0  0  2  0  0  0  0  0  0  0  0  0
   43.1480    8.2480   43.0310 C   0  0  0  0  0  0  0  0  0  0  0  0
   42.8340    8.8860   44.3010 N   0  0  0  0  0  0  0  0  0  0  0  0
   42.5280    7.8020   45.2040 C   0  0  0  0  0  0  0  0  0  0  0  0
   43.3840    6.6490   44.7160 C   0  0  0  0  0  0  0  0  0  0  0  0
   42.8440   10.3020   44.5440 C   0  0  0  0  0  0  0  0  0  0  0  0
   43.9260   10.9100   45.0640 N   0  0  0  0  0  0  0  0  0  0  0  0
   43.9050   12.2370   45.2820 C   0  0  0  0  0  0  0  0  0  0  0  0
   42.8070   13.0050   44.9910 C   0  0  0  0  0  0  0  0  0  0  0  0
   41.7180   12.4130   44.4710 N   0  0  0  0  0  0  0  0  0  0  0  0
   41.7510   11.0830   44.2570 C   0  0  0  0  0  0  0  0  0  0  0  0
   40.5420   10.7870   43.7420 N   0  0  0  0  0  0  0  0  0  0  0  0
   39.7910   11.8700   43.6370 N   0  0  0  0  0  0  0  0  0  0  0  0
   40.5150   12.9060   44.0920 C   0  0  0  0  0  0  0  0  0  0  0  0
   48.3300    6.2260   45.0140 H   0  0  0  0  0  0  0  0  0  0  0  0
   48.2790    2.5660   42.6360 H   0  0  0  0  0  0  0  0  0  0  0  0
   45.4590    8.2680   44.7180 H   0  0  0  0  0  0  0  0  0  0  0  0
   44.1540    6.3980   42.6780 H   0  0  0  0  0  0  0  0  0  0  0  0
   43.5760    8.9350   42.3000 H   0  0  0  0  0  0  0  0  0  0  0  0
   42.2240    7.7650   42.6600 H   0  0  0  0  0  0  0  0  0  0  0  0
   42.6910    8.0200   46.2620 H   0  0  0  0  0  0  0  0  0  0  0  0
   41.4680    7.5260   45.0250 H   0  0  0  0  0  0  0  0  0  0  0  0
   44.1080    6.4060   45.5250 H   0  0  0  0  0  0  0  0  0  0  0  0
   42.7600    5.7680   44.4520 H   0  0  0  0  0  0  0  0  0  0  0  0
   44.7900   12.7190   45.7040 H   0  0  0  0  0  0  0  0  0  0  0  0
   42.7850   14.0760   45.1640 H   0  0  0  0  0  0  0  0  0  0  0  0
   40.2190   13.9330   44.1530 H   0  0  0  0  0  0  0  0  0  0  0  0
  1  5  1  0  0  0  0
  1  2  1  0  0  0  0
  2  3  2  0  0  0  0
  3 24  1  0  0  0  0
  4  3  1  0  0  0  0
  4  6  1  0  0  0  0
  5  4  2  0  0  0  0
  7  2  1  0  0  0  0
  7  9  1  0  0  0  0
  8  7  2  0  0  0  0
  9 26  1  0  0  0  0
 10 27  1  6  0  0  0
 10  9  1  0  0  0  0
 10 14  1  0  0  0  0
 11 10  1  0  0  0  0
 11 12  1  0  0  0  0
 12 15  1  0  0  0  0
 12 13  1  0  0  0  0
 13 30  1  0  0  0  0
 14 13  1  0  0  0  0
 14 32  1  0  0  0  0
 15 16  2  0  0  0  0
 16 17  1  0  0  0  0
 17 34  1  0  0  0  0
 18 35  1  0  0  0  0
 18 17  2  0  0  0  0
 19 18  1  0  0  0  0
 20 19  1  0  0  0  0
 20 15  1  0  0  0  0
 21 20  2  0  0  0  0
 22 21  1  0  0  0  0
 22 23  2  0  0  0  0
 23 36  1  0  0  0  0
 23 19  1  0  0  0  0
 25  5  1  0  0  0  0
 28 11  1  0  0  0  0
 29 11  1  0  0  0  0
 31 13  1  0  0  0  0
 33 14  1  0  0  0  0
M  END
>  <Pose>
1

>  <Score>
-6.48

$$$$
