
 OpenBabel03172210433D

 34 37  0  0  1  0  0  0  0  0999 V2000
   41.5550   10.7300   42.8170 S   0  0  0  0  0  0  0  0  0  0  0  0
   42.8290   10.8480   43.9350 C   0  0  0  0  0  0  0  0  0  0  0  0
   43.3560    9.5830   43.9530 C   0  0  0  0  0  0  0  0  0  0  0  0
   42.7690    8.6690   43.1470 C   0  0  0  0  0  0  0  0  0  0  0  0
   41.7110    9.0900   42.3930 C   0  0  0  0  0  0  0  0  0  0  0  0
   43.2640    7.2360   43.0720 C   0  0  1  0  0  0  0  0  0  0  0  0
   44.6390    7.0530   43.7310 C   0  0  1  0  0  0  0  0  0  0  0  0
   43.4020    6.5020   44.3320 C   0  0  0  0  0  0  0  0  0  0  0  0
   45.5520    6.1410   42.9570 C   0  0  0  0  0  0  0  0  0  0  0  0
   46.4860    5.3060   43.4480 N   0  0  0  0  0  0  0  0  0  0  0  0
   47.1010    4.6550   42.4450 C   0  0  0  0  0  0  0  0  0  0  0  0
   46.5180    5.1140   41.3250 N   0  0  0  0  0  0  0  0  0  0  0  0
   45.6010    5.9960   41.6540 O   0  0  0  0  0  0  0  0  0  0  0  0
   48.1710    3.6610   42.5250 C   0  0  0  0  0  0  0  0  0  0  0  0
   49.2800    3.7480   43.2780 N   0  0  0  0  0  0  0  0  0  0  0  0
   50.0390    2.6600   43.1040 N   0  0  0  0  0  0  0  0  0  0  0  0
   49.4130    1.8500   42.2210 C   0  0  0  0  0  0  0  0  0  0  0  0
   48.2690    2.4870   41.8790 N   0  0  0  0  0  0  0  0  0  0  0  0
   51.3130    2.3880   43.7470 C   0  0  0  0  0  0  0  0  0  0  0  0
   51.1310    1.2760   44.7040 C   0  0  0  0  0  0  0  0  0  0  0  0
   51.7200    0.1940   44.4870 O   0  0  0  0  0  0  0  0  0  0  0  0
   50.3030    1.4460   45.8390 N   0  0  0  0  0  0  0  0  0  0  0  0
   43.4260   12.3740   44.9570 B   0  0  0  0  0  0  0  0  0  0  0  0
   44.2330    9.3670   44.6220 H   0  0  0  0  0  0  0  0  0  0  0  0
   41.1210    8.4710   41.6850 H   0  0  0  0  0  0  0  0  0  0  0  0
   43.0440    6.6560   42.1750 H   0  0  0  0  0  0  0  0  0  0  0  0
   45.1230    7.9210   44.1760 H   0  0  0  0  0  0  0  0  0  0  0  0
   43.3330    5.3840   44.3100 H   0  0  0  0  0  0  0  0  0  0  0  0
   43.0860    6.9770   45.2870 H   0  0  0  0  0  0  0  0  0  0  0  0
   49.7860    0.8950   41.8820 H   0  0  0  0  0  0  0  0  0  0  0  0
   51.6790    3.3180   44.2210 H   0  0  0  0  0  0  0  0  0  0  0  0
   52.0690    2.0460   43.0020 H   0  0  0  0  0  0  0  0  0  0  0  0
   50.6940    1.4170   46.8210 H   0  0  0  0  0  0  0  0  0  0  0  0
   49.2690    1.6120   45.7890 H   0  0  0  0  0  0  0  0  0  0  0  0
  1  2  1  0  0  0  0
  2  3  2  0  0  0  0
  2 23  1  0  0  0  0
  3 24  1  0  0  0  0
  4  3  1  0  0  0  0
  5  1  1  0  0  0  0
  5  4  2  0  0  0  0
  6 26  1  6  0  0  0
  6  4  1  0  0  0  0
  6  7  1  0  0  0  0
  6  8  1  0  0  0  0
  7 27  1  1  0  0  0
  7  8  1  0  0  0  0
  8 29  1  0  0  0  0
  9 10  2  0  0  0  0
  9  7  1  0  0  0  0
 11 14  1  0  0  0  0
 11 10  1  0  0  0  0
 12 13  1  0  0  0  0
 12 11  2  0  0  0  0
 13  9  1  0  0  0  0
 14 15  2  0  0  0  0
 16 15  1  0  0  0  0
 16 19  1  0  0  0  0
 17 16  1  0  0  0  0
 18 17  2  0  0  0  0
 18 14  1  0  0  0  0
 19 31  1  0  0  0  0
 19 20  1  0  0  0  0
 20 22  1  0  0  0  0
 21 20  2  0  0  0  0
 22 33  1  0  0  0  0
 25  5  1  0  0  0  0
 28  8  1  0  0  0  0
 30 17  1  0  0  0  0
 32 19  1  0  0  0  0
 34 22  1  0  0  0  0
M  END
>  <Pose>
1

>  <Score>
-7.38

$$$$
