
 OpenBabel03172210433D

 58 61  0  0  1  0  0  0  0  0999 V2000
   38.0350   13.3470   44.5690 S   0  0  0  0  0  0  0  0  0  0  0  0
   36.5480   12.7500   45.1520 C   0  0  0  0  0  0  0  0  0  0  0  0
   36.9230   11.6830   45.8330 N   0  0  0  0  0  0  0  0  0  0  0  0
   38.1810   11.3630   45.9010 C   0  0  0  0  0  0  0  0  0  0  0  0
   39.0750   12.1680   45.2450 C   0  0  0  0  0  0  0  0  0  0  0  0
   40.5330   12.1310   45.1480 C   0  0  0  0  0  0  0  0  0  0  0  0
   41.1400   11.3150   44.3090 C   0  0  0  0  0  0  0  0  0  0  0  0
   42.6130   11.1380   44.0810 C   0  0  2  0  0  0  0  0  0  0  0  0
   42.7410    9.7550   43.7420 N   0  0  0  0  0  0  0  0  0  0  0  0
   41.5260    9.4540   43.0000 C   0  0  0  0  0  0  0  0  0  0  0  0
   41.4360    8.4840   42.1990 O   0  0  0  0  0  0  0  0  0  0  0  0
   40.5050   10.4280   43.3430 C   0  0  0  0  0  0  0  0  0  0  0  0
   39.3130   10.4960   42.8940 O   0  0  0  0  0  0  0  0  0  0  0  0
   43.7990    8.8140   43.9600 C   0  0  0  0  0  0  0  0  0  0  0  0
   43.3860    7.4140   44.2780 C   0  0  0  0  0  0  0  0  0  0  0  0
   44.6150    6.5310   44.5440 C   0  0  0  0  0  0  0  0  0  0  0  0
   45.7600    7.1870   44.0090 N   0  0  0  0  0  4  0  0  0  0  0  0
   47.0180    6.8410   44.5910 C   0  0  0  0  0  0  0  0  0  0  0  0
   47.5330    5.4910   44.1530 C   0  0  0  0  0  0  0  0  0  0  0  0
   46.5440    4.9310   43.3130 O   0  0  0  0  0  0  0  0  0  0  0  0
   46.5420    5.7500   42.1670 C   0  0  0  0  0  0  0  0  0  0  0  0
   45.8580    7.0400   42.5680 C   0  0  0  0  0  0  0  0  0  0  0  0
   43.4010   11.6290   45.2050 C   0  0  0  0  0  0  0  0  0  0  0  0
   44.1640   12.7900   45.0110 C   0  0  0  0  0  0  0  0  0  0  0  0
   44.9260   13.3630   45.9970 C   0  0  0  0  0  0  0  0  0  0  0  0
   44.9600   12.7900   47.2450 C   0  0  0  0  0  0  0  0  0  0  0  0
   44.2170   11.6420   47.4750 C   0  0  0  0  0  0  0  0  0  0  0  0
   43.4630   11.0950   46.4590 C   0  0  0  0  0  0  0  0  0  0  0  0
   45.9570   14.9440   45.7050 B   0  0  0  0  0  0  0  0  0  0  0  0
   41.3170   12.9810   45.9620 O   0  0  0  0  0  0  0  0  0  0  0  0
   38.6130   10.1550   46.7230 C   0  0  0  0  0  0  0  0  0  0  0  0
   35.1550   13.2990   44.9460 C   0  0  0  0  0  0  0  0  0  0  0  0
   42.8260   11.7800   43.1740 H   0  0  0  0  0  0  0  0  0  0  0  0
   44.3710    9.1980   44.8500 H   0  0  0  0  0  0  0  0  0  0  0  0
   44.4740    8.7850   43.0710 H   0  0  0  0  0  0  0  0  0  0  0  0
   42.7270    7.2690   45.1210 H   0  0  0  0  0  0  0  0  0  0  0  0
   42.9560    6.9960   43.3180 H   0  0  0  0  0  0  0  0  0  0  0  0
   44.4990    5.5440   44.0530 H   0  0  0  0  0  0  0  0  0  0  0  0
   44.6480    6.3940   45.6450 H   0  0  0  0  0  0  0  0  0  0  0  0
   45.6260    8.2300   44.1770 H   0  0  0  0  0  0  0  0  0  0  0  0
   47.0850    6.8950   45.6760 H   0  0  0  0  0  0  0  0  0  0  0  0
   47.7600    7.6030   44.2060 H   0  0  0  0  0  0  0  0  0  0  0  0
   47.8200    4.8280   44.9720 H   0  0  0  0  0  0  0  0  0  0  0  0
   48.4350    5.5800   43.4900 H   0  0  0  0  0  0  0  0  0  0  0  0
   47.6150    6.0070   41.9650 H   0  0  0  0  0  0  0  0  0  0  0  0
   46.1070    5.2670   41.2940 H   0  0  0  0  0  0  0  0  0  0  0  0
   46.3870    7.9190   42.1620 H   0  0  0  0  0  0  0  0  0  0  0  0
   44.8200    7.0300   42.1650 H   0  0  0  0  0  0  0  0  0  0  0  0
   44.1670   13.2770   44.0360 H   0  0  0  0  0  0  0  0  0  0  0  0
   45.5630   13.2520   48.0090 H   0  0  0  0  0  0  0  0  0  0  0  0
   44.2220   11.1720   48.4340 H   0  0  0  0  0  0  0  0  0  0  0  0
   42.8770   10.2090   46.6570 H   0  0  0  0  0  0  0  0  0  0  0  0
   39.6750   10.2210   46.9330 H   0  0  0  0  0  0  0  0  0  0  0  0
   38.2960    9.2240   46.2110 H   0  0  0  0  0  0  0  0  0  0  0  0
   38.0780   10.1540   47.7000 H   0  0  0  0  0  0  0  0  0  0  0  0
   34.4990   12.5560   44.4810 H   0  0  0  0  0  0  0  0  0  0  0  0
   34.8060   13.5830   45.9640 H   0  0  0  0  0  0  0  0  0  0  0  0
   35.2670   14.2360   44.3630 H   0  0  0  0  0  0  0  0  0  0  0  0
  1  2  1  0  0  0  0
  1  5  1  0  0  0  0
  2  3  2  0  0  0  0
  3  4  1  0  0  0  0
  4 31  1  0  0  0  0
  5  4  2  0  0  0  0
  6  5  1  0  0  0  0
  6 30  1  0  0  0  0
  7  6  2  0  0  0  0
  8 33  1  6  0  0  0
  8  7  1  0  0  0  0
  8 23  1  0  0  0  0
  9 14  1  0  0  0  0
  9  8  1  0  0  0  0
 10 12  1  0  0  0  0
 10  9  1  0  0  0  0
 11 10  2  0  0  0  0
 12  7  1  0  0  0  0
 13 12  2  0  0  0  0
 14 15  1  0  0  0  0
 14 34  1  0  0  0  0
 15 16  1  0  0  0  0
 15 36  1  0  0  0  0
 16 39  1  0  0  0  0
 17 40  1  0  0  0  0
 17 16  1  0  0  0  0
 17 18  1  0  0  0  0
 18 41  1  0  0  0  0
 19 18  1  0  0  0  0
 19 43  1  0  0  0  0
 20 19  1  0  0  0  0
 21 22  1  0  0  0  0
 21 20  1  0  0  0  0
 22 17  1  0  0  0  0
 23 28  1  0  0  0  0
 24 23  2  0  0  0  0
 24 25  1  0  0  0  0
 25 26  2  0  0  0  0
 26 27  1  0  0  0  0
 26 50  1  0  0  0  0
 27 51  1  0  0  0  0
 28 52  1  0  0  0  0
 28 27  2  0  0  0  0
 29 25  1  0  0  0  0
 31 53  1  0  0  0  0
 31 55  1  0  0  0  0
 32  2  1  0  0  0  0
 32 57  1  0  0  0  0
 35 14  1  0  0  0  0
 37 15  1  0  0  0  0
 38 16  1  0  0  0  0
 42 18  1  0  0  0  0
 44 19  1  0  0  0  0
 45 21  1  0  0  0  0
 46 21  1  0  0  0  0
 47 22  1  0  0  0  0
 48 22  1  0  0  0  0
 49 24  1  0  0  0  0
 54 31  1  0  0  0  0
 56 32  1  0  0  0  0
 58 32  1  0  0  0  0
M  END
>  <Pose>
1

>  <Score>
-5.83

$$$$
