
 OpenBabel03172210433D

 39 42  0  0  1  0  0  0  0  0999 V2000
   41.4840    8.4240   47.2490 S   0  0  0  0  0  0  0  0  0  0  0  0
   41.4810    8.0650   45.5690 C   0  0  0  0  0  0  0  0  0  0  0  0
   41.2090    9.2820   45.0060 C   0  0  0  0  0  0  0  0  0  0  0  0
   41.0350   10.3240   45.8350 C   0  0  0  0  0  0  0  0  0  0  0  0
   41.1450   10.0860   47.1790 C   0  0  0  0  0  0  0  0  0  0  0  0
   40.9480   11.2640   48.0890 C   0  0  0  0  0  0  0  0  0  0  0  0
   41.8700   12.3160   47.6660 N   0  0  0  0  0  4  0  0  0  0  0  0
   41.7530   12.6480   46.2800 C   0  0  0  0  0  0  0  0  0  0  0  0
   40.7270   11.7860   45.5520 C   0  0  0  0  0  0  0  0  0  0  0  0
   43.2120   11.7720   47.8770 C   0  0  0  0  0  0  0  0  0  0  0  0
   41.1410    9.2680   43.5190 C   0  0  0  0  0  0  0  0  0  0  0  0
   40.8970   10.3290   42.8720 O   0  0  0  0  0  0  0  0  0  0  0  0
   41.3560    8.0420   42.8370 N   0  0  0  0  0  0  0  0  0  0  0  0
   42.0570    6.9180   43.3860 C   0  0  2  0  0  0  0  0  0  0  0  0
   41.6900    6.8610   44.7920 N   0  0  0  0  0  0  0  0  0  0  0  0
   43.5290    7.0440   43.2640 C   0  0  0  0  0  0  0  0  0  0  0  0
   44.1610    8.2700   43.2920 C   0  0  0  0  0  0  0  0  0  0  0  0
   45.5260    8.4060   43.1820 C   0  0  0  0  0  0  0  0  0  0  0  0
   46.3170    7.2850   43.0340 C   0  0  0  0  0  0  0  0  0  0  0  0
   45.7100    6.0530   43.0040 C   0  0  0  0  0  0  0  0  0  0  0  0
   44.3390    5.9240   43.1160 C   0  0  0  0  0  0  0  0  0  0  0  0
   46.8500    4.5190   42.7980 B   0  0  0  0  0  0  0  0  0  0  0  0
   47.6940    7.4150   42.9230 O   0  0  0  0  0  0  0  0  0  0  0  0
   46.3820   10.0970   43.2220 B   0  0  0  0  0  0  0  0  0  0  0  0
   39.9060   11.6030   48.1110 H   0  0  0  0  0  0  0  0  0  0  0  0
   41.2700   10.9850   49.1170 H   0  0  0  0  0  0  0  0  0  0  0  0
   41.7950   13.1340   48.3030 H   0  0  0  0  0  0  0  0  0  0  0  0
   42.7170   12.4810   45.7160 H   0  0  0  0  0  0  0  0  0  0  0  0
   41.4910   13.7020   46.0960 H   0  0  0  0  0  0  0  0  0  0  0  0
   40.7310   12.0040   44.4880 H   0  0  0  0  0  0  0  0  0  0  0  0
   39.7530   11.9730   46.0480 H   0  0  0  0  0  0  0  0  0  0  0  0
   43.2150   10.9830   48.6630 H   0  0  0  0  0  0  0  0  0  0  0  0
   43.5330   11.2360   46.9360 H   0  0  0  0  0  0  0  0  0  0  0  0
   43.9560   12.5550   48.0480 H   0  0  0  0  0  0  0  0  0  0  0  0
   40.9640    7.9700   41.8560 H   0  0  0  0  0  0  0  0  0  0  0  0
   41.7340    5.9950   42.8800 H   0  0  0  0  0  0  0  0  0  0  0  0
   41.5630    5.9600   45.2970 H   0  0  0  0  0  0  0  0  0  0  0  0
   43.5530    9.1550   43.4060 H   0  0  0  0  0  0  0  0  0  0  0  0
   43.8790    4.9560   43.0900 H   0  0  0  0  0  0  0  0  0  0  0  0
  2  1  1  0  0  0  0
  3  2  2  0  0  0  0
  3  4  1  0  0  0  0
  4  5  2  0  0  0  0
  5  1  1  0  0  0  0
  5  6  1  0  0  0  0
  6 25  1  0  0  0  0
  6 26  1  0  0  0  0
  7 10  1  0  0  0  0
  7  6  1  0  0  0  0
  7 27  1  0  0  0  0
  8  7  1  0  0  0  0
  9  4  1  0  0  0  0
  9 31  1  0  0  0  0
  9  8  1  0  0  0  0
 10 34  1  0  0  0  0
 10 32  1  0  0  0  0
 11  3  1  0  0  0  0
 12 11  2  0  0  0  0
 13 14  1  0  0  0  0
 13 11  1  0  0  0  0
 14 36  1  6  0  0  0
 14 15  1  0  0  0  0
 15 37  1  0  0  0  0
 15  2  1  0  0  0  0
 16 17  1  0  0  0  0
 16 14  1  0  0  0  0
 17 38  1  0  0  0  0
 18 24  1  0  0  0  0
 18 17  2  0  0  0  0
 19 18  1  0  0  0  0
 20 19  2  0  0  0  0
 20 21  1  0  0  0  0
 21 16  2  0  0  0  0
 22 20  1  0  0  0  0
 23 19  1  0  0  0  0
 28  8  1  0  0  0  0
 29  8  1  0  0  0  0
 30  9  1  0  0  0  0
 33 10  1  0  0  0  0
 35 13  1  0  0  0  0
 39 21  1  0  0  0  0
M  END
>  <Pose>
1

>  <Score>
-5.28

$$$$
