
 OpenBabel03172210433D

 40 43  0  0  1  0  0  0  0  0999 V2000
   41.3020   10.8400   44.3510 S   0  0  0  0  0  0  0  0  0  0  0  0
   42.6750   11.1450   43.2080 C   0  0  2  0  0  0  0  0  0  0  0  0
   43.0590    9.7220   42.9050 C   0  0  0  0  0  0  0  0  0  0  0  0
   42.8570    8.8570   44.0280 N   0  0  0  0  0  0  0  0  0  0  0  0
   41.9680    9.2870   44.9390 C   0  0  2  0  0  0  0  0  0  0  0  0
   41.8980    8.4010   45.9390 N   0  0  0  0  0  0  0  0  0  0  0  0
   42.7490    7.3850   45.6740 C   0  0  0  0  0  0  0  0  0  0  0  0
   43.3600    7.6560   44.4730 C   0  0  0  0  0  0  0  0  0  0  0  0
   44.3480    6.8060   43.8520 C   0  0  0  0  0  0  0  0  0  0  0  0
   44.8980    7.2270   42.6290 C   0  0  0  0  0  0  0  0  0  0  0  0
   45.8700    6.4890   42.0040 C   0  0  0  0  0  0  0  0  0  0  0  0
   46.3630    5.3160   42.5170 C   0  0  0  0  0  0  0  0  0  0  0  0
   45.8410    4.8820   43.7140 C   0  0  0  0  0  0  0  0  0  0  0  0
   44.8490    5.6350   44.3540 C   0  0  0  0  0  0  0  0  0  0  0  0
   47.3660    4.6120   41.8100 N   0  0  0  0  0  0  0  0  0  0  0  0
   47.4800    4.7330   40.5850 O   0  0  0  0  0  0  0  0  0  0  0  0
   48.2120    3.7920   42.4920 O   0  0  0  0  0  0  0  0  0  0  0  0
   41.0740    8.4910   47.0960 C   0  0  0  0  0  0  0  0  0  0  0  0
   41.4920    8.0370   48.3250 C   0  0  0  0  0  0  0  0  0  0  0  0
   40.7130    8.1120   49.4610 C   0  0  0  0  0  0  0  0  0  0  0  0
   39.4540    8.6630   49.3850 C   0  0  0  0  0  0  0  0  0  0  0  0
   38.9990    9.1310   48.1640 C   0  0  0  0  0  0  0  0  0  0  0  0
   39.7990    9.0440   47.0430 C   0  0  0  0  0  0  0  0  0  0  0  0
   38.3450    8.7840   50.9400 B   0  0  0  0  0  0  0  0  0  0  0  0
   43.8400   11.8000   43.9100 C   0  0  0  0  0  0  0  0  0  0  0  0
   42.3600   11.6850   42.3030 H   0  0  0  0  0  0  0  0  0  0  0  0
   42.4360    9.3970   42.0400 H   0  0  0  0  0  0  0  0  0  0  0  0
   44.1450    9.7150   42.6120 H   0  0  0  0  0  0  0  0  0  0  0  0
   42.9070    6.5030   46.3220 H   0  0  0  0  0  0  0  0  0  0  0  0
   44.5430    8.1480   42.1740 H   0  0  0  0  0  0  0  0  0  0  0  0
   46.2640    6.8590   41.0560 H   0  0  0  0  0  0  0  0  0  0  0  0
   46.1960    3.9620   44.1610 H   0  0  0  0  0  0  0  0  0  0  0  0
   44.5120    5.2540   45.2880 H   0  0  0  0  0  0  0  0  0  0  0  0
   42.4960    7.5970   48.3880 H   0  0  0  0  0  0  0  0  0  0  0  0
   41.1220    7.7310   50.3850 H   0  0  0  0  0  0  0  0  0  0  0  0
   38.0030    9.5720   48.0880 H   0  0  0  0  0  0  0  0  0  0  0  0
   39.4870    9.3970   46.0630 H   0  0  0  0  0  0  0  0  0  0  0  0
   43.6620   12.8570   44.1220 H   0  0  0  0  0  0  0  0  0  0  0  0
   43.9930   11.2400   44.8610 H   0  0  0  0  0  0  0  0  0  0  0  0
   44.7350   11.6980   43.2680 H   0  0  0  0  0  0  0  0  0  0  0  0
  2 26  1  6  0  0  0
  2 25  1  0  0  0  0
  2  1  1  0  0  0  0
  3  2  1  0  0  0  0
  3  4  1  0  0  0  0
  4  8  1  0  0  0  0
  4  5  1  0  0  0  0
  5  1  1  6  0  0  0
  5  6  1  0  0  0  0
  6 18  1  0  0  0  0
  7  6  1  0  0  0  0
  7 29  1  0  0  0  0
  8  7  2  0  0  0  0
  9 14  1  0  0  0  0
  9  8  1  0  0  0  0
 10  9  2  0  0  0  0
 11 12  2  0  0  0  0
 11 10  1  0  0  0  0
 12 13  1  0  0  0  0
 13 32  1  0  0  0  0
 13 14  2  0  0  0  0
 14 33  1  0  0  0  0
 15 17  2  0  0  0  0
 15 12  1  0  0  0  0
 16 15  2  0  0  0  0
 18 19  1  0  0  0  0
 19 34  1  0  0  0  0
 19 20  2  0  0  0  0
 20 35  1  0  0  0  0
 21 20  1  0  0  0  0
 21 24  1  0  0  0  0
 22 21  2  0  0  0  0
 23 18  2  0  0  0  0
 23 22  1  0  0  0  0
 25 38  1  0  0  0  0
 25 39  1  0  0  0  0
 27  3  1  0  0  0  0
 28  3  1  0  0  0  0
 30 10  1  0  0  0  0
 31 11  1  0  0  0  0
 36 22  1  0  0  0  0
 37 23  1  0  0  0  0
 40 25  1  0  0  0  0
M  END
>  <Pose>
1

>  <Score>
-5.44

$$$$
