
 OpenBabel03172210433D

 42 45  0  0  1  0  0  0  0  0999 V2000
   40.9440   11.7780   45.7540 S   0  0  0  0  0  0  0  0  0  0  0  0
   40.2250   12.9000   44.5210 C   0  0  0  0  0  0  0  0  0  0  0  0
   40.5040   12.3020   43.1540 C   0  0  0  0  0  0  0  0  0  0  0  0
   40.2140   10.8150   43.1660 C   0  0  0  0  0  0  0  0  0  0  0  0
   41.4150   10.1610   43.6590 N   0  0  0  0  0  0  0  0  0  0  0  0
   41.8560   10.5290   44.8640 C   0  0  1  0  0  0  0  0  0  0  0  0
   42.9930    9.8070   45.1580 N   0  0  0  0  0  0  0  0  0  0  0  0
   43.2580    8.9970   44.1460 C   0  0  0  0  0  0  0  0  0  0  0  0
   42.2530    9.2330   43.2110 C   0  0  0  0  0  0  0  0  0  0  0  0
   44.3300    8.0340   43.9500 C   0  0  0  0  0  0  0  0  0  0  0  0
   44.1140    6.6900   44.2880 C   0  0  0  0  0  0  0  0  0  0  0  0
   45.0840    5.7390   44.1260 C   0  0  0  0  0  0  0  0  0  0  0  0
   46.3330    6.0250   43.6240 C   0  0  0  0  0  0  0  0  0  0  0  0
   46.5540    7.3370   43.2910 C   0  0  0  0  0  0  0  0  0  0  0  0
   45.5740    8.3280   43.4490 C   0  0  0  0  0  0  0  0  0  0  0  0
   47.2920    5.0330   43.4740 O   0  0  0  0  0  0  0  0  0  0  0  0
   47.3790    4.3000   42.2660 C   0  0  0  0  0  0  0  0  0  0  0  0
   43.6990    9.9790   46.3850 C   0  0  0  0  0  0  0  0  0  0  0  0
   44.1280   11.2320   46.7870 C   0  0  0  0  0  0  0  0  0  0  0  0
   44.7870   11.4360   47.9820 C   0  0  0  0  0  0  0  0  0  0  0  0
   45.0170   10.3420   48.7920 C   0  0  0  0  0  0  0  0  0  0  0  0
   44.5860    9.0970   48.3840 C   0  0  0  0  0  0  0  0  0  0  0  0
   43.9270    8.8700   47.1950 C   0  0  0  0  0  0  0  0  0  0  0  0
   45.9270   10.5280   50.4740 B   0  0  0  0  0  0  0  0  0  0  0  0
   39.1310   12.9670   44.6580 H   0  0  0  0  0  0  0  0  0  0  0  0
   40.7280   13.8760   44.6470 H   0  0  0  0  0  0  0  0  0  0  0  0
   39.9230   12.8260   42.3670 H   0  0  0  0  0  0  0  0  0  0  0  0
   41.5800   12.4800   42.9320 H   0  0  0  0  0  0  0  0  0  0  0  0
   39.4310   10.6500   43.9610 H   0  0  0  0  0  0  0  0  0  0  0  0
   39.8970   10.4370   42.1900 H   0  0  0  0  0  0  0  0  0  0  0  0
   42.1160    8.7640   42.2410 H   0  0  0  0  0  0  0  0  0  0  0  0
   43.1500    6.4160   44.6850 H   0  0  0  0  0  0  0  0  0  0  0  0
   44.9060    4.6840   44.3940 H   0  0  0  0  0  0  0  0  0  0  0  0
   47.5100    7.6310   42.8930 H   0  0  0  0  0  0  0  0  0  0  0  0
   45.8060    9.3340   43.1720 H   0  0  0  0  0  0  0  0  0  0  0  0
   48.2020    3.5880   42.2590 H   0  0  0  0  0  0  0  0  0  0  0  0
   47.4550    5.0330   41.4090 H   0  0  0  0  0  0  0  0  0  0  0  0
   46.4320    3.7620   42.1070 H   0  0  0  0  0  0  0  0  0  0  0  0
   43.9660   12.1190   46.1780 H   0  0  0  0  0  0  0  0  0  0  0  0
   45.1300   12.4050   48.3140 H   0  0  0  0  0  0  0  0  0  0  0  0
   44.7550    8.2080   49.0070 H   0  0  0  0  0  0  0  0  0  0  0  0
   43.5950    7.8860   46.8890 H   0  0  0  0  0  0  0  0  0  0  0  0
  2 26  1  0  0  0  0
  2 25  1  0  0  0  0
  2  1  1  0  0  0  0
  3  4  1  0  0  0  0
  3  2  1  0  0  0  0
  4  5  1  0  0  0  0
  4 29  1  0  0  0  0
  5  6  1  0  0  0  0
  6  7  1  0  0  0  0
  6  1  1  6  0  0  0
  7 18  1  0  0  0  0
  8  7  1  0  0  0  0
  9  5  1  0  0  0  0
  9  8  2  0  0  0  0
 10  8  1  0  0  0  0
 10 11  1  0  0  0  0
 11 32  1  0  0  0  0
 12 11  2  0  0  0  0
 12 33  1  0  0  0  0
 13 12  1  0  0  0  0
 14 15  1  0  0  0  0
 14 13  2  0  0  0  0
 15 10  2  0  0  0  0
 16 13  1  0  0  0  0
 17 16  1  0  0  0  0
 18 19  2  0  0  0  0
 18 23  1  0  0  0  0
 19 20  1  0  0  0  0
 20 40  1  0  0  0  0
 20 21  2  0  0  0  0
 21 24  1  0  0  0  0
 22 21  1  0  0  0  0
 22 41  1  0  0  0  0
 23 22  2  0  0  0  0
 27  3  1  0  0  0  0
 28  3  1  0  0  0  0
 30  4  1  0  0  0  0
 31  9  1  0  0  0  0
 34 14  1  0  0  0  0
 35 15  1  0  0  0  0
 36 17  1  0  0  0  0
 37 17  1  0  0  0  0
 38 17  1  0  0  0  0
 39 19  1  0  0  0  0
 42 23  1  0  0  0  0
M  END
>  <Pose>
1

>  <Score>
-4.14

$$$$
