
 OpenBabel03172210433D

 49 52  0  0  1  0  0  0  0  0999 V2000
   42.2850    7.4020   45.0970 S   0  0  0  0  0  0  0  0  0  0  0  0
   42.6020    7.0970   43.3770 C   0  0  0  0  0  0  0  0  0  0  0  0
   42.5640    8.4050   42.6130 C   0  0  0  0  0  0  0  0  0  0  0  0
   41.1890    9.0310   42.7590 C   0  0  0  0  0  0  0  0  0  0  0  0
   41.0440    9.6010   44.0800 N   0  0  2  0  0  0  0  0  0  0  0  0
   40.7120   10.9170   44.5190 C   0  0  2  0  0  0  0  0  0  0  0  0
   39.9460   10.5760   45.7880 C   0  0  0  0  0  0  0  0  0  0  0  0
   40.6590    9.4270   46.2990 N   0  0  0  0  0  0  0  0  0  0  0  0
   41.2360    8.8600   45.2980 C   0  0  2  0  0  0  0  0  0  0  0  0
   40.7580    9.0030   47.6510 C   0  0  0  0  0  0  0  0  0  0  0  0
   40.0660    9.7470   48.5980 C   0  0  0  0  0  0  0  0  0  0  0  0
   40.1350    9.4070   49.9530 C   0  0  0  0  0  0  0  0  0  0  0  0
   40.9000    8.3250   50.3500 C   0  0  0  0  0  0  0  0  0  0  0  0
   41.5970    7.5670   49.4390 C   0  0  0  0  0  0  0  0  0  0  0  0
   41.4850    7.9600   48.0910 C   0  0  0  0  0  0  0  0  0  0  0  0
   42.3780    6.4730   49.7720 O   0  0  0  0  0  0  0  0  0  0  0  0
   41.9600    5.3580   50.5070 C   0  0  0  0  0  0  0  0  0  0  0  0
   39.3080   10.8260   48.1980 O   0  0  0  0  0  0  0  0  0  0  0  0
   37.9080   10.9220   48.3140 C   0  0  0  0  0  0  0  0  0  0  0  0
   39.8860   11.5420   43.5900 O   0  0  0  0  0  0  0  0  0  0  0  0
   41.8520   11.7700   44.9050 C   0  0  0  0  0  0  0  0  0  0  0  0
   43.1520   11.5850   44.5540 C   0  0  0  0  0  0  0  0  0  0  0  0
   44.1600   12.4370   45.0080 C   0  0  0  0  0  0  0  0  0  0  0  0
   43.8760   13.5030   45.8360 C   0  0  0  0  0  0  0  0  0  0  0  0
   42.5770   13.6980   46.1940 C   0  0  0  0  0  0  0  0  0  0  0  0
   41.5900   12.8630   45.7490 C   0  0  0  0  0  0  0  0  0  0  0  0
   45.2720   14.6620   46.4570 B   0  0  0  0  0  0  0  0  0  0  0  0
   43.6060    6.6210   43.2140 H   0  0  0  0  0  0  0  0  0  0  0  0
   41.7940    6.4430   42.9420 H   0  0  0  0  0  0  0  0  0  0  0  0
   43.3350    9.0960   43.0260 H   0  0  0  0  0  0  0  0  0  0  0  0
   42.7300    8.2320   41.5390 H   0  0  0  0  0  0  0  0  0  0  0  0
   41.1400    9.8540   41.9960 H   0  0  0  0  0  0  0  0  0  0  0  0
   40.4340    8.2430   42.5820 H   0  0  0  0  0  0  0  0  0  0  0  0
   40.0060   11.4830   46.3880 H   0  0  0  0  0  0  0  0  0  0  0  0
   38.9050   10.3190   45.5210 H   0  0  0  0  0  0  0  0  0  0  0  0
   39.5830   10.0020   50.6840 H   0  0  0  0  0  0  0  0  0  0  0  0
   40.9750    8.0390   51.3960 H   0  0  0  0  0  0  0  0  0  0  0  0
   42.0400    7.3530   47.4190 H   0  0  0  0  0  0  0  0  0  0  0  0
   42.6500    4.4780   50.3120 H   0  0  0  0  0  0  0  0  0  0  0  0
   42.0780    5.6660   51.5870 H   0  0  0  0  0  0  0  0  0  0  0  0
   40.9280    5.0280   50.2750 H   0  0  0  0  0  0  0  0  0  0  0  0
   37.4390    9.9710   48.0400 H   0  0  0  0  0  0  0  0  0  0  0  0
   37.6050   11.1030   49.3780 H   0  0  0  0  0  0  0  0  0  0  0  0
   37.5000   11.7120   47.6360 H   0  0  0  0  0  0  0  0  0  0  0  0
   39.1590   10.9360   43.3190 H   0  0  0  0  0  0  0  0  0  0  0  0
   43.4100   10.7720   43.9140 H   0  0  0  0  0  0  0  0  0  0  0  0
   45.2120   12.2660   44.7050 H   0  0  0  0  0  0  0  0  0  0  0  0
   42.3840   14.5440   46.8440 H   0  0  0  0  0  0  0  0  0  0  0  0
   40.5760   13.0510   46.0580 H   0  0  0  0  0  0  0  0  0  0  0  0
  2  1  1  0  0  0  0
  3  4  1  0  0  0  0
  3 30  1  0  0  0  0
  3  2  1  0  0  0  0
  5  4  1  6  0  0  0
  5  6  1  0  0  0  0
  5  9  1  0  0  0  0
  6 20  1  6  0  0  0
  6 21  1  0  0  0  0
  6  7  1  0  0  0  0
  7  8  1  0  0  0  0
  7 34  1  0  0  0  0
  8 10  1  0  0  0  0
  9  1  1  1  0  0  0
  9  8  1  0  0  0  0
 10 15  2  0  0  0  0
 10 11  1  0  0  0  0
 11 12  2  0  0  0  0
 12 13  1  0  0  0  0
 12 36  1  0  0  0  0
 13 37  1  0  0  0  0
 14 16  1  0  0  0  0
 14 13  2  0  0  0  0
 15 14  1  0  0  0  0
 16 17  1  0  0  0  0
 17 40  1  0  0  0  0
 18 19  1  0  0  0  0
 18 11  1  0  0  0  0
 19 43  1  0  0  0  0
 21 26  1  0  0  0  0
 22 21  2  0  0  0  0
 22 23  1  0  0  0  0
 23 24  2  0  0  0  0
 24 25  1  0  0  0  0
 24 27  1  0  0  0  0
 25 48  1  0  0  0  0
 26 49  1  0  0  0  0
 26 25  2  0  0  0  0
 28  2  1  0  0  0  0
 29  2  1  0  0  0  0
 31  3  1  0  0  0  0
 32  4  1  0  0  0  0
 33  4  1  0  0  0  0
 35  7  1  0  0  0  0
 38 15  1  0  0  0  0
 39 17  1  0  0  0  0
 41 17  1  0  0  0  0
 42 19  1  0  0  0  0
 44 19  1  0  0  0  0
 45 20  1  0  0  0  0
 46 22  1  0  0  0  0
 47 23  1  0  0  0  0
M  END
>  <Pose>
1

>  <Score>
-4.78

$$$$
