
 OpenBabel03172210433D

 43 46  0  0  1  0  0  0  0  0999 V2000
   41.6880    8.8670   42.5800 S   0  0  0  0  0  0  0  0  0  0  0  0
   41.0270    7.5750   41.4510 C   0  0  0  0  0  0  0  0  0  0  0  0
   42.0420    6.6050   41.0120 C   0  0  0  0  0  0  0  0  0  0  0  0
   43.4670    6.8720   41.2770 C   0  0  0  0  0  0  0  0  0  0  0  0
   43.8470    7.2470   42.5770 N   0  0  1  0  0  0  0  0  0  0  0  0
   45.0400    7.0940   43.3520 C   0  0  2  0  0  0  0  0  0  0  0  0
   44.4550    6.9420   44.7390 C   0  0  0  0  0  0  0  0  0  0  0  0
   43.3030    7.8150   44.6700 N   0  0  0  0  0  0  0  0  0  0  0  0
   42.9690    7.9710   43.4770 C   0  0  1  0  0  0  0  0  0  0  0  0
   42.6630    8.4190   45.8010 C   0  0  0  0  0  0  0  0  0  0  0  0
   43.1980    9.5900   46.3170 C   0  0  0  0  0  0  0  0  0  0  0  0
   42.6420   10.2220   47.4270 C   0  0  0  0  0  0  0  0  0  0  0  0
   41.5330    9.6940   48.0510 C   0  0  0  0  0  0  0  0  0  0  0  0
   40.9910    8.5350   47.5510 C   0  0  0  0  0  0  0  0  0  0  0  0
   41.5730    7.9220   46.4350 C   0  0  0  0  0  0  0  0  0  0  0  0
   40.7790   10.5620   49.5940 B   0  0  0  0  0  0  0  0  0  0  0  0
   45.7450    8.3010   43.3530 O   0  0  0  0  0  0  0  0  0  0  0  0
   45.9090    5.9570   42.9950 C   0  0  0  0  0  0  0  0  0  0  0  0
   46.0640    4.9520   43.9450 C   0  0  0  0  0  0  0  0  0  0  0  0
   46.8520    3.8480   43.7030 C   0  0  0  0  0  0  0  0  0  0  0  0
   47.5270    3.6840   42.5070 C   0  0  0  0  0  0  0  0  0  0  0  0
   47.3750    4.6790   41.5590 C   0  0  0  0  0  0  0  0  0  0  0  0
   46.5740    5.7990   41.8080 C   0  0  0  0  0  0  0  0  0  0  0  0
   48.3290    2.5400   42.2820 N   0  0  0  0  0  0  0  0  0  0  0  0
   47.8730    1.4410   41.9460 O   0  0  0  0  0  0  0  0  0  0  0  0
   49.6880    2.6400   42.4360 O   0  0  0  0  0  0  0  0  0  0  0  0
   40.1880    7.0630   42.0080 H   0  0  0  0  0  0  0  0  0  0  0  0
   40.5400    8.1080   40.6370 H   0  0  0  0  0  0  0  0  0  0  0  0
   41.7730    5.5940   41.3880 H   0  0  0  0  0  0  0  0  0  0  0  0
   41.9340    6.5050   39.8830 H   0  0  0  0  0  0  0  0  0  0  0  0
   43.8170    7.6930   40.5770 H   0  0  0  0  0  0  0  0  0  0  0  0
   44.0470    5.9900   40.9250 H   0  0  0  0  0  0  0  0  0  0  0  0
   44.1200    5.8610   44.7830 H   0  0  0  0  0  0  0  0  0  0  0  0
   45.1790    7.1850   45.5250 H   0  0  0  0  0  0  0  0  0  0  0  0
   44.0730   10.0300   45.8600 H   0  0  0  0  0  0  0  0  0  0  0  0
   43.0880   11.1400   47.8120 H   0  0  0  0  0  0  0  0  0  0  0  0
   40.1370    8.1030   48.0290 H   0  0  0  0  0  0  0  0  0  0  0  0
   41.1280    6.9980   46.0660 H   0  0  0  0  0  0  0  0  0  0  0  0
   45.7010    8.6920   44.2400 H   0  0  0  0  0  0  0  0  0  0  0  0
   45.5440    5.0560   44.9000 H   0  0  0  0  0  0  0  0  0  0  0  0
   46.9960    3.0420   44.4290 H   0  0  0  0  0  0  0  0  0  0  0  0
   47.8980    4.5730   40.6090 H   0  0  0  0  0  0  0  0  0  0  0  0
   46.4730    6.5680   41.0470 H   0  0  0  0  0  0  0  0  0  0  0  0
  2 27  1  0  0  0  0
  2  1  1  0  0  0  0
  3  4  1  0  0  0  0
  3 29  1  0  0  0  0
  3  2  1  0  0  0  0
  5  4  1  6  0  0  0
  5  6  1  0  0  0  0
  5  9  1  0  0  0  0
  6 17  1  6  0  0  0
  6  7  1  0  0  0  0
  7 33  1  0  0  0  0
  7 34  1  0  0  0  0
  8  7  1  0  0  0  0
  8 10  1  0  0  0  0
  9  1  1  6  0  0  0
  9  8  1  0  0  0  0
 10 11  2  0  0  0  0
 10 15  1  0  0  0  0
 11 12  1  0  0  0  0
 12 36  1  0  0  0  0
 12 13  2  0  0  0  0
 13 16  1  0  0  0  0
 14 37  1  0  0  0  0
 14 13  1  0  0  0  0
 15 14  2  0  0  0  0
 17 39  1  0  0  0  0
 18  6  1  0  0  0  0
 18 19  1  0  0  0  0
 19 40  1  0  0  0  0
 20 19  2  0  0  0  0
 20 41  1  0  0  0  0
 21 20  1  0  0  0  0
 22 23  1  0  0  0  0
 22 21  2  0  0  0  0
 23 18  2  0  0  0  0
 24 26  2  0  0  0  0
 24 21  1  0  0  0  0
 25 24  2  0  0  0  0
 28  2  1  0  0  0  0
 30  3  1  0  0  0  0
 31  4  1  0  0  0  0
 32  4  1  0  0  0  0
 35 11  1  0  0  0  0
 38 15  1  0  0  0  0
 42 22  1  0  0  0  0
 43 23  1  0  0  0  0
M  END
>  <Pose>
1

>  <Score>
-5.07

$$$$
