
 OpenBabel03172210433D

 41 44  0  0  1  0  0  0  0  0999 V2000
   41.6860    8.5200   42.8400 S   0  0  0  0  0  0  0  0  0  0  0  0
   41.1070    9.8040   41.6420 C   0  0  0  0  0  0  0  0  0  0  0  0
   41.4200   11.1830   42.1610 C   0  0  0  0  0  0  0  0  0  0  0  0
   41.4630   11.2720   43.6720 C   0  0  0  0  0  0  0  0  0  0  0  0
   42.5860   10.6520   44.2580 N   0  0  1  0  0  0  0  0  0  0  0  0
   43.5410   10.8330   45.3650 C   0  0  1  0  0  0  0  0  0  0  0  0
   44.7700   10.3040   44.6640 C   0  0  0  0  0  0  0  0  0  0  0  0
   44.2300    9.1390   43.9790 N   0  0  0  0  0  0  0  0  0  0  0  0
   43.0420    9.3920   43.6920 C   0  0  1  0  0  0  0  0  0  0  0  0
   44.9390    7.9030   43.7470 C   0  0  0  0  0  0  0  0  0  0  0  0
   44.4740    6.6630   44.0550 C   0  0  0  0  0  0  0  0  0  0  0  0
   45.2090    5.5000   43.8580 C   0  0  0  0  0  0  0  0  0  0  0  0
   46.4690    5.5800   43.3280 C   0  0  0  0  0  0  0  0  0  0  0  0
   46.9450    6.8380   43.0120 C   0  0  0  0  0  0  0  0  0  0  0  0
   46.2200    7.9810   43.2070 C   0  0  0  0  0  0  0  0  0  0  0  0
   47.5590    4.0290   43.0240 B   0  0  0  0  0  0  0  0  0  0  0  0
   43.7120   12.1370   45.7170 O   0  0  0  0  0  0  0  0  0  0  0  0
   43.1940    9.9340   46.5150 C   0  0  0  0  0  0  0  0  0  0  0  0
   42.0190    9.2090   46.5730 C   0  0  0  0  0  0  0  0  0  0  0  0
   41.7790    8.3950   47.6710 C   0  0  0  0  0  0  0  0  0  0  0  0
   42.6750    8.2710   48.7250 C   0  0  0  0  0  0  0  0  0  0  0  0
   43.8410    8.9850   48.6750 C   0  0  0  0  0  0  0  0  0  0  0  0
   44.0840    9.8070   47.5750 C   0  0  0  0  0  0  0  0  0  0  0  0
   41.7880    9.6770   40.7520 H   0  0  0  0  0  0  0  0  0  0  0  0
   40.0580    9.6230   41.3790 H   0  0  0  0  0  0  0  0  0  0  0  0
   40.5830   11.8590   41.8130 H   0  0  0  0  0  0  0  0  0  0  0  0
   42.3950   11.5620   41.7900 H   0  0  0  0  0  0  0  0  0  0  0  0
   41.2600   12.3070   44.0150 H   0  0  0  0  0  0  0  0  0  0  0  0
   40.5470   10.6690   43.9970 H   0  0  0  0  0  0  0  0  0  0  0  0
   45.6290   10.1400   45.2750 H   0  0  0  0  0  0  0  0  0  0  0  0
   45.0010   11.0640   43.8510 H   0  0  0  0  0  0  0  0  0  0  0  0
   43.4690    6.5400   44.4850 H   0  0  0  0  0  0  0  0  0  0  0  0
   44.7920    4.5350   44.1220 H   0  0  0  0  0  0  0  0  0  0  0  0
   47.9530    6.8940   42.5920 H   0  0  0  0  0  0  0  0  0  0  0  0
   46.6200    8.9690   42.9430 H   0  0  0  0  0  0  0  0  0  0  0  0
   44.6460   12.4290   45.8660 H   0  0  0  0  0  0  0  0  0  0  0  0
   41.3070    9.3000   45.7600 H   0  0  0  0  0  0  0  0  0  0  0  0
   40.8550    7.8460   47.6840 H   0  0  0  0  0  0  0  0  0  0  0  0
   42.4600    7.6260   49.5680 H   0  0  0  0  0  0  0  0  0  0  0  0
   44.5730    8.9160   49.4630 H   0  0  0  0  0  0  0  0  0  0  0  0
   45.0000   10.3770   47.5320 H   0  0  0  0  0  0  0  0  0  0  0  0
  2  3  1  0  0  0  0
  2  1  1  0  0  0  0
  3  4  1  0  0  0  0
  4 29  1  0  0  0  0
  4 28  1  0  0  0  0
  5  4  1  1  0  0  0
  5  6  1  0  0  0  0
  6 17  1  1  0  0  0
  6 18  1  0  0  0  0
  7 30  1  0  0  0  0
  7  6  1  0  0  0  0
  8  7  1  0  0  0  0
  9  1  1  1  0  0  0
  9  8  1  0  0  0  0
  9  5  1  0  0  0  0
 10  8  1  0  0  0  0
 10 11  1  0  0  0  0
 11 32  1  0  0  0  0
 12 11  2  0  0  0  0
 12 33  1  0  0  0  0
 13 12  1  0  0  0  0
 14 15  1  0  0  0  0
 14 13  2  0  0  0  0
 15 10  2  0  0  0  0
 16 13  1  0  0  0  0
 17 36  1  0  0  0  0
 18 19  2  0  0  0  0
 18 23  1  0  0  0  0
 19 20  1  0  0  0  0
 20 38  1  0  0  0  0
 20 21  2  0  0  0  0
 21 39  1  0  0  0  0
 22 21  1  0  0  0  0
 22 40  1  0  0  0  0
 23 22  2  0  0  0  0
 24  2  1  0  0  0  0
 25  2  1  0  0  0  0
 26  3  1  0  0  0  0
 27  3  1  0  0  0  0
 31  7  1  0  0  0  0
 34 14  1  0  0  0  0
 35 15  1  0  0  0  0
 37 19  1  0  0  0  0
 41 23  1  0  0  0  0
M  END
>  <Pose>
1

>  <Score>
-4.27

$$$$
