
 OpenBabel03172210433D

 45 48  0  0  1  0  0  0  0  0999 V2000
   40.6220    9.1550   47.3540 S   0  0  0  0  0  0  0  0  0  0  0  0
   38.8840    9.4600   47.8740 C   0  0  0  0  0  0  0  0  0  0  0  0
   38.6270   10.9280   47.5650 C   0  0  0  0  0  0  0  0  0  0  0  0
   38.5710   11.1890   46.0920 C   0  0  0  0  0  0  0  0  0  0  0  0
   39.7950   10.9470   45.3930 N   0  0  2  0  0  0  0  0  0  0  0  0
   40.5390   11.6120   44.3180 C   0  0  1  0  0  0  0  0  0  0  0  0
   40.9370   10.3360   43.5530 C   0  0  0  0  0  0  0  0  0  0  0  0
   41.3160    9.4550   44.6420 N   0  0  0  0  0  0  0  0  0  0  0  0
   40.6540    9.8070   45.6680 C   0  0  1  0  0  0  0  0  0  0  0  0
   42.2850    8.3930   44.4850 C   0  0  0  0  0  0  0  0  0  0  0  0
   41.8950    7.0690   44.6600 C   0  0  0  0  0  0  0  0  0  0  0  0
   42.7950    6.0360   44.5200 C   0  0  0  0  0  0  0  0  0  0  0  0
   44.1200    6.2460   44.2020 C   0  0  0  0  0  0  0  0  0  0  0  0
   44.5140    7.5510   44.0290 C   0  0  0  0  0  0  0  0  0  0  0  0
   43.5930    8.6010   44.1730 C   0  0  0  0  0  0  0  0  0  0  0  0
   45.0000    5.1770   44.0670 O   0  0  0  0  0  0  0  0  0  0  0  0
   46.0720    5.1150   43.1700 C   0  0  0  0  0  0  0  0  0  0  0  0
   39.6870   12.3940   43.5750 O   0  0  0  0  0  0  0  0  0  0  0  0
   41.7470   12.3030   44.8020 C   0  0  0  0  0  0  0  0  0  0  0  0
   43.0440   11.9790   44.4690 C   0  0  0  0  0  0  0  0  0  0  0  0
   44.1140   12.7000   44.9720 C   0  0  0  0  0  0  0  0  0  0  0  0
   43.8980   13.7540   45.8130 C   0  0  0  0  0  0  0  0  0  0  0  0
   42.6080   14.0920   46.1560 C   0  0  0  0  0  0  0  0  0  0  0  0
   41.5570   13.3690   45.6510 C   0  0  0  0  0  0  0  0  0  0  0  0
   45.3380   14.7940   46.5460 B   0  0  0  0  0  0  0  0  0  0  0  0
   38.8090    9.2600   48.9390 H   0  0  0  0  0  0  0  0  0  0  0  0
   38.2380    8.8040   47.2450 H   0  0  0  0  0  0  0  0  0  0  0  0
   39.4390   11.5190   48.0420 H   0  0  0  0  0  0  0  0  0  0  0  0
   37.6840   11.2770   48.0180 H   0  0  0  0  0  0  0  0  0  0  0  0
   37.7620   10.5530   45.6740 H   0  0  0  0  0  0  0  0  0  0  0  0
   38.3060   12.2680   45.9650 H   0  0  0  0  0  0  0  0  0  0  0  0
   39.9750    9.9480   43.1460 H   0  0  0  0  0  0  0  0  0  0  0  0
   41.6860   10.5380   42.8070 H   0  0  0  0  0  0  0  0  0  0  0  0
   40.8740    6.8430   44.9100 H   0  0  0  0  0  0  0  0  0  0  0  0
   42.5020    4.9890   44.6550 H   0  0  0  0  0  0  0  0  0  0  0  0
   45.5320    7.7900   43.7830 H   0  0  0  0  0  0  0  0  0  0  0  0
   43.9480    9.6160   44.0340 H   0  0  0  0  0  0  0  0  0  0  0  0
   46.1620    4.0780   42.7360 H   0  0  0  0  0  0  0  0  0  0  0  0
   46.0150    5.7950   42.3140 H   0  0  0  0  0  0  0  0  0  0  0  0
   47.0250    5.2490   43.7530 H   0  0  0  0  0  0  0  0  0  0  0  0
   39.1520   11.8750   42.9280 H   0  0  0  0  0  0  0  0  0  0  0  0
   43.1900   11.1510   43.8110 H   0  0  0  0  0  0  0  0  0  0  0  0
   45.1270   12.4350   44.6980 H   0  0  0  0  0  0  0  0  0  0  0  0
   42.4270   14.9290   46.8240 H   0  0  0  0  0  0  0  0  0  0  0  0
   40.5500   13.6720   45.9470 H   0  0  0  0  0  0  0  0  0  0  0  0
  1  2  1  0  0  0  0
  2 26  1  0  0  0  0
  3  2  1  0  0  0  0
  3 29  1  0  0  0  0
  3 28  1  0  0  0  0
  4  3  1  0  0  0  0
  5  9  1  0  0  0  0
  5  4  1  6  0  0  0
  6 18  1  6  0  0  0
  6 19  1  0  0  0  0
  6  5  1  0  0  0  0
  7  6  1  0  0  0  0
  7  8  1  0  0  0  0
  8  9  1  0  0  0  0
  9  1  1  1  0  0  0
 10  8  1  0  0  0  0
 10 11  1  0  0  0  0
 11 34  1  0  0  0  0
 12 35  1  0  0  0  0
 12 11  2  0  0  0  0
 13 12  1  0  0  0  0
 14 15  1  0  0  0  0
 14 13  2  0  0  0  0
 15 10  2  0  0  0  0
 16 13  1  0  0  0  0
 17 40  1  0  0  0  0
 17 16  1  0  0  0  0
 19 24  1  0  0  0  0
 20 19  2  0  0  0  0
 20 21  1  0  0  0  0
 21 22  2  0  0  0  0
 22 23  1  0  0  0  0
 22 25  1  0  0  0  0
 23 44  1  0  0  0  0
 24 45  1  0  0  0  0
 24 23  2  0  0  0  0
 27  2  1  0  0  0  0
 30  4  1  0  0  0  0
 31  4  1  0  0  0  0
 32  7  1  0  0  0  0
 33  7  1  0  0  0  0
 36 14  1  0  0  0  0
 37 15  1  0  0  0  0
 38 17  1  0  0  0  0
 39 17  1  0  0  0  0
 41 18  1  0  0  0  0
 42 20  1  0  0  0  0
 43 21  1  0  0  0  0
M  END
>  <Pose>
1

>  <Score>
-4.96

$$$$
