
 OpenBabel03172210433D

 45 49  0  0  1  0  0  0  0  0999 V2000
   46.0820    8.0070   43.2110 S   0  0  0  0  0  0  0  0  0  0  0  0
   45.5880    6.2310   42.9900 C   0  0  0  0  0  0  0  0  0  0  0  0
   44.3220    6.2860   43.8060 C   0  0  0  0  0  0  0  0  0  0  0  0
   43.6020    7.4960   43.5290 N   0  0  0  0  0  0  0  0  0  0  0  0
   44.4060    8.6090   43.2040 C   0  0  0  0  0  0  0  0  0  0  0  0
   43.8930    9.7390   42.9610 N   0  0  0  0  0  0  0  0  0  0  0  0
   42.4740    9.9800   43.0240 C   0  0  0  0  0  0  0  0  0  0  0  0
   41.9130   10.9270   42.4190 O   0  0  0  0  0  0  0  0  0  0  0  0
   41.6620    9.0470   43.8520 C   0  0  1  0  0  0  0  0  0  0  0  0
   42.1630    7.6810   43.5750 C   0  0  0  0  0  0  0  0  0  0  0  0
   41.4390    6.6760   43.3780 O   0  0  0  0  0  0  0  0  0  0  0  0
   41.8290    9.4530   45.2740 C   0  0  2  0  0  0  0  0  0  0  0  0
   41.0370    8.6140   46.2460 C   0  0  2  0  0  0  0  0  0  0  0  0
   40.1910    9.3900   47.1680 C   0  0  0  0  0  0  0  0  0  0  0  0
   39.0910    9.8970   46.7510 O   0  0  0  0  0  0  0  0  0  0  0  0
   40.5980    9.5830   48.5460 N   0  0  0  0  0  0  0  0  0  0  0  0
   40.0150   10.4950   49.4910 C   0  0  0  0  0  0  0  0  0  0  0  0
   41.0500   10.9740   50.4780 C   0  0  0  0  0  0  0  0  0  0  0  0
   41.8820    9.3380   50.7430 S   0  0  0  0  0  0  0  0  0  0  0  0
   41.6550    8.7950   49.0520 C   0  0  0  0  0  0  0  0  0  0  0  0
   42.2640    7.9190   48.3500 N   0  0  0  0  0  0  0  0  0  0  0  0
   41.9170    7.6700   46.9790 C   0  0  0  0  0  0  0  0  0  0  0  0
   42.3810    6.6370   46.4340 O   0  0  0  0  0  0  0  0  0  0  0  0
   41.5240   10.8960   45.4030 C   0  0  0  0  0  0  0  0  0  0  0  0
   42.4350   11.7670   45.9870 C   0  0  0  0  0  0  0  0  0  0  0  0
   42.1630   13.1140   46.1090 C   0  0  0  0  0  0  0  0  0  0  0  0
   40.9720   13.6280   45.6490 C   0  0  0  0  0  0  0  0  0  0  0  0
   40.0800   12.7720   45.0770 C   0  0  0  0  0  0  0  0  0  0  0  0
   40.3370   11.4230   44.9480 C   0  0  0  0  0  0  0  0  0  0  0  0
   43.4090   14.3180   46.9100 B   0  0  0  0  0  0  0  0  0  0  0  0
   45.3620    6.0340   41.9410 H   0  0  0  0  0  0  0  0  0  0  0  0
   46.3160    5.5780   43.4600 H   0  0  0  0  0  0  0  0  0  0  0  0
   43.7110    5.4050   43.5270 H   0  0  0  0  0  0  0  0  0  0  0  0
   44.6310    6.2510   44.8780 H   0  0  0  0  0  0  0  0  0  0  0  0
   40.5800    9.1190   43.5730 H   0  0  0  0  0  0  0  0  0  0  0  0
   42.9080    9.2980   45.5560 H   0  0  0  0  0  0  0  0  0  0  0  0
   40.3400    7.9380   45.6610 H   0  0  0  0  0  0  0  0  0  0  0  0
   39.2150   10.0190   50.1020 H   0  0  0  0  0  0  0  0  0  0  0  0
   39.6490   11.4070   48.9760 H   0  0  0  0  0  0  0  0  0  0  0  0
   41.7650   11.6920   50.0500 H   0  0  0  0  0  0  0  0  0  0  0  0
   40.5640   11.3000   51.3950 H   0  0  0  0  0  0  0  0  0  0  0  0
   43.3720   11.3820   46.3530 H   0  0  0  0  0  0  0  0  0  0  0  0
   40.7420   14.6990   45.7390 H   0  0  0  0  0  0  0  0  0  0  0  0
   39.1210   13.1530   44.7010 H   0  0  0  0  0  0  0  0  0  0  0  0
   39.5710   10.7870   44.4720 H   0  0  0  0  0  0  0  0  0  0  0  0
  2  1  1  0  0  0  0
  2 32  1  0  0  0  0
  2  3  1  0  0  0  0
  3 34  1  0  0  0  0
  4 10  1  0  0  0  0
  4  3  1  0  0  0  0
  5  1  1  0  0  0  0
  5  4  1  0  0  0  0
  6  7  1  0  0  0  0
  6  5  2  0  0  0  0
  7  9  1  0  0  0  0
  8  7  2  0  0  0  0
  9 35  1  6  0  0  0
  9 12  1  0  0  0  0
 10  9  1  0  0  0  0
 11 10  2  0  0  0  0
 12 24  1  0  0  0  0
 12 36  1  1  0  0  0
 12 13  1  0  0  0  0
 13 37  1  6  0  0  0
 13 22  1  0  0  0  0
 13 14  1  0  0  0  0
 14 16  1  0  0  0  0
 15 14  2  0  0  0  0
 16 20  1  0  0  0  0
 16 17  1  0  0  0  0
 17 38  1  0  0  0  0
 17 18  1  0  0  0  0
 18 19  1  0  0  0  0
 18 41  1  0  0  0  0
 20 19  1  0  0  0  0
 21 20  2  0  0  0  0
 22 21  1  0  0  0  0
 23 22  2  0  0  0  0
 24 25  1  0  0  0  0
 25 26  2  0  0  0  0
 25 42  1  0  0  0  0
 26 30  1  0  0  0  0
 27 43  1  0  0  0  0
 27 26  1  0  0  0  0
 28 27  2  0  0  0  0
 29 28  1  0  0  0  0
 29 24  2  0  0  0  0
 31  2  1  0  0  0  0
 33  3  1  0  0  0  0
 39 17  1  0  0  0  0
 40 18  1  0  0  0  0
 44 28  1  0  0  0  0
 45 29  1  0  0  0  0
M  END
>  <Pose>
1

>  <Score>
-4.69

$$$$
