
 OpenBabel03172210433D

 45 49  0  0  1  0  0  0  0  0999 V2000
   43.9280    7.3030   44.5820 S   0  0  0  0  0  0  0  0  0  0  0  0
   42.2800    6.6790   44.0300 C   0  0  0  0  0  0  0  0  0  0  0  0
   41.9950    7.6920   42.9660 C   0  0  0  0  0  0  0  0  0  0  0  0
   42.4540    8.9790   43.3310 N   0  0  0  0  0  0  0  0  0  0  0  0
   43.5620    9.0360   44.2020 C   0  0  0  0  0  0  0  0  0  0  0  0
   44.1090   10.1350   44.6140 N   0  0  0  0  0  0  0  0  0  0  0  0
   43.6200   11.4240   44.1490 C   0  0  0  0  0  0  0  0  0  0  0  0
   44.4960   12.3230   44.1870 O   0  0  0  0  0  0  0  0  0  0  0  0
   42.2520   11.4880   43.7190 C   0  0  1  0  0  0  0  0  0  0  0  0
   41.9320   10.2580   42.9020 C   0  0  0  0  0  0  0  0  0  0  0  0
   41.2330   10.3310   41.8750 O   0  0  0  0  0  0  0  0  0  0  0  0
   41.1420   11.8340   44.6190 C   0  0  2  0  0  0  0  0  0  0  0  0
   40.7570   13.2270   44.8800 C   0  0  1  0  0  0  0  0  0  0  0  0
   39.5190   13.5230   44.0340 C   0  0  0  0  0  0  0  0  0  0  0  0
   39.6420   13.7620   42.8110 O   0  0  0  0  0  0  0  0  0  0  0  0
   38.2080   13.5270   44.6450 N   0  0  0  0  0  0  0  0  0  0  0  0
   36.9480   13.4500   43.9890 C   0  0  0  0  0  0  0  0  0  0  0  0
   35.9140   12.7840   44.8620 C   0  0  0  0  0  0  0  0  0  0  0  0
   36.4210   13.5730   46.4620 S   0  0  0  0  0  0  0  0  0  0  0  0
   38.1560   13.6380   46.0550 C   0  0  0  0  0  0  0  0  0  0  0  0
   39.1840   13.7380   46.8020 N   0  0  0  0  0  0  0  0  0  0  0  0
   40.5130   13.7420   46.2000 C   0  0  0  0  0  0  0  0  0  0  0  0
   41.4100   14.2290   46.9130 O   0  0  0  0  0  0  0  0  0  0  0  0
   41.1060   10.9580   45.8530 C   0  0  0  0  0  0  0  0  0  0  0  0
   42.1120   11.0100   46.7870 C   0  0  0  0  0  0  0  0  0  0  0  0
   42.0460   10.1970   47.8900 C   0  0  0  0  0  0  0  0  0  0  0  0
   41.0230    9.3300   48.1100 C   0  0  0  0  0  0  0  0  0  0  0  0
   40.0030    9.2540   47.1940 C   0  0  0  0  0  0  0  0  0  0  0  0
   40.0700   10.0810   46.0730 C   0  0  0  0  0  0  0  0  0  0  0  0
   40.9400    8.1960   49.6560 B   0  0  0  0  0  0  0  0  0  0  0  0
   42.4620    5.6840   43.5800 H   0  0  0  0  0  0  0  0  0  0  0  0
   41.5670    6.6730   44.8560 H   0  0  0  0  0  0  0  0  0  0  0  0
   42.4320    7.3420   41.9940 H   0  0  0  0  0  0  0  0  0  0  0  0
   40.8830    7.7060   42.8490 H   0  0  0  0  0  0  0  0  0  0  0  0
   42.2340   12.3090   42.9020 H   0  0  0  0  0  0  0  0  0  0  0  0
   40.2160   11.4120   44.0370 H   0  0  0  0  0  0  0  0  0  0  0  0
   41.5240   13.9200   44.3600 H   0  0  0  0  0  0  0  0  0  0  0  0
   36.5660   14.4630   43.7030 H   0  0  0  0  0  0  0  0  0  0  0  0
   37.0330   12.8090   43.0850 H   0  0  0  0  0  0  0  0  0  0  0  0
   36.0660   11.7100   44.9570 H   0  0  0  0  0  0  0  0  0  0  0  0
   34.9110   13.0980   44.5880 H   0  0  0  0  0  0  0  0  0  0  0  0
   42.9560   11.7030   46.6450 H   0  0  0  0  0  0  0  0  0  0  0  0
   42.8460   10.2470   48.6200 H   0  0  0  0  0  0  0  0  0  0  0  0
   39.1670    8.5690   47.3440 H   0  0  0  0  0  0  0  0  0  0  0  0
   39.2430    9.9930   45.3700 H   0  0  0  0  0  0  0  0  0  0  0  0
  2  1  1  0  0  0  0
  2 32  1  0  0  0  0
  3  4  1  0  0  0  0
  3  2  1  0  0  0  0
  4  5  1  0  0  0  0
  5  1  1  0  0  0  0
  5  6  2  0  0  0  0
  7  8  2  0  0  0  0
  7  6  1  0  0  0  0
  9 35  1  6  0  0  0
  9  7  1  0  0  0  0
  9 12  1  0  0  0  0
 10  4  1  0  0  0  0
 10  9  1  0  0  0  0
 11 10  2  0  0  0  0
 12 36  1  6  0  0  0
 12 13  1  0  0  0  0
 12 24  1  0  0  0  0
 13 37  1  6  0  0  0
 13 22  1  0  0  0  0
 14 16  1  0  0  0  0
 14 13  1  0  0  0  0
 15 14  2  0  0  0  0
 16 20  1  0  0  0  0
 17 16  1  0  0  0  0
 17 18  1  0  0  0  0
 18 40  1  0  0  0  0
 18 19  1  0  0  0  0
 20 19  1  0  0  0  0
 20 21  2  0  0  0  0
 22 21  1  0  0  0  0
 22 23  2  0  0  0  0
 24 29  2  0  0  0  0
 24 25  1  0  0  0  0
 25 26  2  0  0  0  0
 26 27  1  0  0  0  0
 26 43  1  0  0  0  0
 27 30  1  0  0  0  0
 28 44  1  0  0  0  0
 28 27  2  0  0  0  0
 29 28  1  0  0  0  0
 31  2  1  0  0  0  0
 33  3  1  0  0  0  0
 34  3  1  0  0  0  0
 38 17  1  0  0  0  0
 39 17  1  0  0  0  0
 41 18  1  0  0  0  0
 42 25  1  0  0  0  0
 45 29  1  0  0  0  0
M  END
>  <Pose>
1

>  <Score>
-4.80

$$$$
