
 OpenBabel03172210433D

 25 28  0  0  0  0  0  0  0  0999 V2000
   43.2130    7.7480   43.1780 S   0  0  0  0  0  0  0  0  0  0  0  0
   44.6920    7.0710   42.6260 C   0  0  0  0  0  0  0  0  0  0  0  0
   45.2440    6.6830   43.7740 N   0  0  0  0  0  0  0  0  0  0  0  0
   46.4440    6.1260   43.3960 C   0  0  0  0  0  0  0  0  0  0  0  0
   46.5690    6.1960   42.0720 N   0  0  0  0  0  0  0  0  0  0  0  0
   45.5030    6.7760   41.5590 N   0  0  0  0  0  0  0  0  0  0  0  0
   47.4520    5.5360   44.3010 C   0  0  0  0  0  0  0  0  0  0  0  0
   47.6670    4.2080   44.3320 N   0  0  0  0  0  0  0  0  0  0  0  0
   48.5910    3.6800   45.1650 C   0  0  0  0  0  0  0  0  0  0  0  0
   49.3230    4.4910   45.9880 C   0  0  0  0  0  0  0  0  0  0  0  0
   49.1000    5.8060   45.9450 N   0  0  0  0  0  0  0  0  0  0  0  0
   48.1820    6.3590   45.1230 C   0  0  0  0  0  0  0  0  0  0  0  0
   44.6170    6.8840   44.8610 N   0  0  0  0  0  0  0  0  0  0  0  0
   43.4350    7.4690   44.8650 C   0  0  0  0  0  0  0  0  0  0  0  0
   42.5450    7.7980   45.9840 C   0  0  0  0  0  0  0  0  0  0  0  0
   41.7310    6.9560   46.6320 N   0  0  0  0  0  0  0  0  0  0  0  0
   41.0780    7.6280   47.5950 N   0  0  0  0  0  0  0  0  0  0  0  0
   41.4740    8.9160   47.5690 C   0  0  0  0  0  0  0  0  0  0  0  0
   42.4120    9.0220   46.5380 C   0  0  0  0  0  0  0  0  0  0  0  0
   43.2840   10.6290   46.0750 B   0  0  0  0  0  0  0  0  0  0  0  0
   48.7290    2.6250   45.1580 H   0  0  0  0  0  0  0  0  0  0  0  0
   50.0520    4.0750   46.6420 H   0  0  0  0  0  0  0  0  0  0  0  0
   48.0070    7.4360   45.0960 H   0  0  0  0  0  0  0  0  0  0  0  0
   40.3800    7.2030   48.2470 H   0  0  0  0  0  0  0  0  0  0  0  0
   41.1010    9.6730   48.2400 H   0  0  0  0  0  0  0  0  0  0  0  0
  1 14  1  0  0  0  0
  2  1  1  0  0  0  0
  2  3  1  0  0  0  0
  3 13  1  0  0  0  0
  4  3  1  0  0  0  0
  4  7  1  0  0  0  0
  5  4  2  0  0  0  0
  6  5  1  0  0  0  0
  6  2  2  0  0  0  0
  7  8  2  0  0  0  0
  7 12  1  0  0  0  0
  8  9  1  0  0  0  0
  9 10  2  0  0  0  0
 10 22  1  0  0  0  0
 11 10  1  0  0  0  0
 12 11  2  0  0  0  0
 13 14  2  0  0  0  0
 14 15  1  0  0  0  0
 15 19  1  0  0  0  0
 15 16  2  0  0  0  0
 16 17  1  0  0  0  0
 17 24  1  0  0  0  0
 18 17  1  0  0  0  0
 18 25  1  0  0  0  0
 19 18  2  0  0  0  0
 20 19  1  0  0  0  0
 21  9  1  0  0  0  0
 23 12  1  0  0  0  0
M  END
>  <Pose>
1

>  <Score>
-6.29

$$$$
