
 OpenBabel03172210433D

 47 50  0  0  0  0  0  0  0  0999 V2000
   46.1100    4.8860   42.7580 S   0  0  0  0  0  0  0  0  0  0  0  0
   47.6030    4.5430   43.5240 C   0  0  0  0  0  0  0  0  0  0  0  0
   48.6030    3.6320   43.3050 N   0  0  0  0  0  0  0  0  0  0  0  0
   49.7060    3.6160   44.0700 C   0  0  0  0  0  0  0  0  0  0  0  0
   50.6630    2.8280   43.9450 O   0  0  0  0  0  0  0  0  0  0  0  0
   49.7420    4.5660   45.0630 C   0  0  0  0  0  0  0  0  0  0  0  0
   48.7520    5.4760   45.2880 C   0  0  0  0  0  0  0  0  0  0  0  0
   47.6360    5.4680   44.4880 N   0  0  0  0  0  0  0  0  0  0  0  0
   46.6520    6.2760   44.5700 N   0  0  0  0  0  0  0  0  0  0  0  0
   45.6390    6.2170   43.7530 C   0  0  0  0  0  0  0  0  0  0  0  0
   44.4540    7.0440   43.6710 N   0  0  0  0  0  0  0  0  0  0  0  0
   43.1690    6.4720   43.8050 C   0  0  0  0  0  0  0  0  0  0  0  0
   42.1030    7.5210   43.5890 C   0  0  0  0  0  0  0  0  0  0  0  0
   42.4850    8.3680   42.5450 O   0  0  0  0  0  0  0  0  0  0  0  0
   43.5240    9.2090   42.9600 C   0  0  0  0  0  0  0  0  0  0  0  0
   44.7030    8.4280   43.4510 C   0  0  0  0  0  0  0  0  0  0  0  0
   48.9400    6.4330   46.3760 C   0  0  0  0  0  0  0  0  0  0  0  0
   50.0580    6.4520   47.0110 O   0  0  0  0  0  0  0  0  0  0  0  0
   47.9700    7.3610   46.8070 N   0  0  0  0  0  0  0  0  0  0  0  0
   47.5170    7.3450   48.1930 C   0  0  0  0  0  0  0  0  0  0  0  0
   48.0430    8.5210   48.9300 C   0  0  0  0  0  0  0  0  0  0  0  0
   47.1590    9.3330   49.6240 C   0  0  0  0  0  0  0  0  0  0  0  0
   47.6300   10.4460   50.2740 C   0  0  0  0  0  0  0  0  0  0  0  0
   48.9560   10.7910   50.2640 C   0  0  0  0  0  0  0  0  0  0  0  0
   49.8440    9.9870   49.5750 C   0  0  0  0  0  0  0  0  0  0  0  0
   49.3660    8.8630   48.9200 C   0  0  0  0  0  0  0  0  0  0  0  0
   51.7080   10.3930   49.5150 B   0  0  0  0  0  0  0  0  0  0  0  0
   45.8290    8.9760   49.6260 O   0  0  0  0  0  0  0  0  0  0  0  0
   44.9020    9.8210   48.9440 C   0  0  0  0  0  0  0  0  0  0  0  0
   50.6370    4.5710   45.6990 H   0  0  0  0  0  0  0  0  0  0  0  0
   43.0470    5.9930   44.8150 H   0  0  0  0  0  0  0  0  0  0  0  0
   42.9530    5.6680   43.0590 H   0  0  0  0  0  0  0  0  0  0  0  0
   42.0580    8.1290   44.5270 H   0  0  0  0  0  0  0  0  0  0  0  0
   41.1500    7.0590   43.3170 H   0  0  0  0  0  0  0  0  0  0  0  0
   43.7950    9.8900   42.1010 H   0  0  0  0  0  0  0  0  0  0  0  0
   43.1020    9.8930   43.7430 H   0  0  0  0  0  0  0  0  0  0  0  0
   45.5850    8.5810   42.7580 H   0  0  0  0  0  0  0  0  0  0  0  0
   44.9950    8.8810   44.4480 H   0  0  0  0  0  0  0  0  0  0  0  0
   47.5600    8.0570   46.1550 H   0  0  0  0  0  0  0  0  0  0  0  0
   47.9390    6.4340   48.7170 H   0  0  0  0  0  0  0  0  0  0  0  0
   46.4270    7.2620   48.2900 H   0  0  0  0  0  0  0  0  0  0  0  0
   46.9210   11.0800   50.8160 H   0  0  0  0  0  0  0  0  0  0  0  0
   49.3390   11.6740   50.7770 H   0  0  0  0  0  0  0  0  0  0  0  0
   50.1190    8.2740   48.3940 H   0  0  0  0  0  0  0  0  0  0  0  0
   43.8850    9.3970   49.0200 H   0  0  0  0  0  0  0  0  0  0  0  0
   44.8670   10.8320   49.3880 H   0  0  0  0  0  0  0  0  0  0  0  0
   45.2430    9.9340   47.9040 H   0  0  0  0  0  0  0  0  0  0  0  0
  1  2  1  0  0  0  0
  1 10  1  0  0  0  0
  2  8  1  0  0  0  0
  3  2  2  0  0  0  0
  3  4  1  0  0  0  0
  4  6  1  0  0  0  0
  5  4  2  0  0  0  0
  6  7  2  0  0  0  0
  6 30  1  0  0  0  0
  7 17  1  0  0  0  0
  8  9  1  0  0  0  0
  8  7  1  0  0  0  0
 10  9  2  0  0  0  0
 11 10  1  0  0  0  0
 11 12  1  0  0  0  0
 12 31  1  0  0  0  0
 13 12  1  0  0  0  0
 13 33  1  0  0  0  0
 14 15  1  0  0  0  0
 14 13  1  0  0  0  0
 15 16  1  0  0  0  0
 15 36  1  0  0  0  0
 16 11  1  0  0  0  0
 16 38  1  0  0  0  0
 17 19  1  0  0  0  0
 17 18  2  0  0  0  0
 19 20  1  0  0  0  0
 20 41  1  0  0  0  0
 20 40  1  0  0  0  0
 20 21  1  0  0  0  0
 21 22  1  0  0  0  0
 22 28  1  0  0  0  0
 22 23  2  0  0  0  0
 23 42  1  0  0  0  0
 24 23  1  0  0  0  0
 24 43  1  0  0  0  0
 25 24  2  0  0  0  0
 26 21  2  0  0  0  0
 26 25  1  0  0  0  0
 27 25  1  0  0  0  0
 29 45  1  0  0  0  0
 29 46  1  0  0  0  0
 29 28  1  0  0  0  0
 32 12  1  0  0  0  0
 34 13  1  0  0  0  0
 35 15  1  0  0  0  0
 37 16  1  0  0  0  0
 39 19  1  0  0  0  0
 44 26  1  0  0  0  0
 47 29  1  0  0  0  0
M  END
>  <Pose>
1

>  <Score>
-6.59

$$$$
