
 OpenBabel03172210433D

 40 43  0  0  1  0  0  0  0  0999 V2000
   47.8750    2.9220   42.1570 S   0  0  0  0  0  0  0  0  0  0  0  0
   47.8600    4.2910   43.3080 C   0  0  1  0  0  0  0  0  0  0  0  0
   47.2260    5.3810   43.5940 N   0  0  0  0  0  0  0  0  0  0  0  0
   47.7870    6.0320   44.7170 C   0  0  0  0  0  0  0  0  0  0  0  0
   48.9250    5.1580   45.1310 C   0  0  0  0  0  0  0  0  0  0  0  0
   48.9310    4.0220   44.1790 N   0  0  0  0  0  0  0  0  0  0  0  0
   49.6560    2.8510   43.9300 C   0  0  0  0  0  0  0  0  0  0  0  0
   49.2780    2.1130   42.9110 C   0  0  0  0  0  0  0  0  0  0  0  0
   50.8190    2.3830   44.7530 C   0  0  0  0  0  0  0  0  0  0  0  0
   50.6580    1.4690   45.7710 C   0  0  0  0  0  0  0  0  0  0  0  0
   51.6910    1.0090   46.5590 C   0  0  0  0  0  0  0  0  0  0  0  0
   52.9720    1.4640   46.3500 C   0  0  0  0  0  0  0  0  0  0  0  0
   53.1580    2.3720   45.3460 C   0  0  0  0  0  0  0  0  0  0  0  0
   52.0960    2.8360   44.5470 C   0  0  0  0  0  0  0  0  0  0  0  0
   46.0600    5.8200   42.8060 C   0  0  0  0  0  0  0  0  0  0  0  0
   46.0430    7.2960   42.8500 C   0  0  0  0  0  0  0  0  0  0  0  0
   47.0850    7.9630   42.6920 O   0  0  0  0  0  0  0  0  0  0  0  0
   44.7930    8.0050   43.0840 C   0  0  0  0  0  0  0  0  0  0  0  0
   44.7840    9.3700   43.3730 C   0  0  0  0  0  0  0  0  0  0  0  0
   43.6120   10.0660   43.6060 C   0  0  0  0  0  0  0  0  0  0  0  0
   42.4360    9.3670   43.5450 C   0  0  0  0  0  0  0  0  0  0  0  0
   42.3920    8.0140   43.2620 C   0  0  0  0  0  0  0  0  0  0  0  0
   43.5890    7.3340   43.0300 C   0  0  0  0  0  0  0  0  0  0  0  0
   40.8160   10.3420   43.8700 B   0  0  0  0  0  0  0  0  0  0  0  0
   47.0420    6.1930   45.5450 H   0  0  0  0  0  0  0  0  0  0  0  0
   48.1000    7.0740   44.4400 H   0  0  0  0  0  0  0  0  0  0  0  0
   48.6930    4.7950   46.1560 H   0  0  0  0  0  0  0  0  0  0  0  0
   49.8390    5.7670   45.0480 H   0  0  0  0  0  0  0  0  0  0  0  0
   49.7100    1.1630   42.5440 H   0  0  0  0  0  0  0  0  0  0  0  0
   49.6730    1.0650   45.9950 H   0  0  0  0  0  0  0  0  0  0  0  0
   51.5070    0.2910   47.3440 H   0  0  0  0  0  0  0  0  0  0  0  0
   53.7770    1.1030   46.9680 H   0  0  0  0  0  0  0  0  0  0  0  0
   54.1490    2.7690   45.1310 H   0  0  0  0  0  0  0  0  0  0  0  0
   52.3010    3.5460   43.7720 H   0  0  0  0  0  0  0  0  0  0  0  0
   46.3130    5.4950   41.7570 H   0  0  0  0  0  0  0  0  0  0  0  0
   45.1450    5.3430   43.1470 H   0  0  0  0  0  0  0  0  0  0  0  0
   45.7180    9.8910   43.4120 H   0  0  0  0  0  0  0  0  0  0  0  0
   43.6080   11.1080   43.8280 H   0  0  0  0  0  0  0  0  0  0  0  0
   41.4720    7.4650   43.2140 H   0  0  0  0  0  0  0  0  0  0  0  0
   43.5220    6.2790   42.8100 H   0  0  0  0  0  0  0  0  0  0  0  0
  1  8  1  0  0  0  0
  2  1  1  1  0  0  0
  2  3  1  0  0  0  0
  2  6  1  0  0  0  0
  3  4  1  0  0  0  0
  4  5  1  0  0  0  0
  4 25  1  0  0  0  0
  5 27  1  0  0  0  0
  6  5  1  0  0  0  0
  7  6  1  0  0  0  0
  7  9  1  0  0  0  0
  8  7  2  0  0  0  0
  9 10  1  0  0  0  0
 10 30  1  0  0  0  0
 10 11  2  0  0  0  0
 11 31  1  0  0  0  0
 12 11  1  0  0  0  0
 12 32  1  0  0  0  0
 13 12  2  0  0  0  0
 14  9  2  0  0  0  0
 14 13  1  0  0  0  0
 15 16  1  0  0  0  0
 15 36  1  0  0  0  0
 15  3  1  0  0  0  0
 16 18  1  0  0  0  0
 17 16  2  0  0  0  0
 18 19  1  0  0  0  0
 19 37  1  0  0  0  0
 19 20  2  0  0  0  0
 20 38  1  0  0  0  0
 21 20  1  0  0  0  0
 21 24  1  0  0  0  0
 22 21  2  0  0  0  0
 23 18  2  0  0  0  0
 23 22  1  0  0  0  0
 26  4  1  0  0  0  0
 28  5  1  0  0  0  0
 29  8  1  0  0  0  0
 33 13  1  0  0  0  0
 34 14  1  0  0  0  0
 35 15  1  0  0  0  0
 39 22  1  0  0  0  0
 40 23  1  0  0  0  0
M  END
>  <Pose>
1

>  <Score>
-5.74

$$$$
