
 OpenBabel03172210433D

 43 46  0  0  1  0  0  0  0  0999 V2000
   40.2970   12.2600   43.6230 Cl  0  0  0  0  0  0  0  0  0  0  0  0
   41.3310   11.5320   44.8690 C   0  0  0  0  0  0  0  0  0  0  0  0
   41.8690   10.2640   44.5950 C   0  0  0  0  0  0  0  0  0  0  0  0
   42.6660    9.7090   45.5540 C   0  0  0  0  0  0  0  0  0  0  0  0
   42.9180   10.3860   46.7340 C   0  0  0  0  0  0  0  0  0  0  0  0
   42.3890   11.6350   47.0070 C   0  0  0  0  0  0  0  0  0  0  0  0
   41.5740   12.2160   46.0410 C   0  0  0  0  0  0  0  0  0  0  0  0
   41.4190    9.5740   43.3360 C   0  0  2  0  0  0  0  0  0  0  0  0
   40.4570    8.5780   43.7920 N   0  0  0  0  0  0  0  0  0  0  0  0
   40.7510    7.2300   43.6460 C   0  0  0  0  0  0  0  0  0  0  0  0
   42.1980    6.7880   43.5830 C   0  0  0  0  0  0  0  0  0  0  0  0
   43.0640    7.7680   43.0890 N   0  0  0  0  0  0  0  0  0  0  0  0
   42.5010    8.9740   42.5630 C   0  0  0  0  0  0  0  0  0  0  0  0
   44.4810    7.6960   43.0550 C   0  0  0  0  0  0  0  0  0  0  0  0
   45.0340    8.8730   43.2320 O   0  0  0  0  0  0  0  0  0  0  0  0
   45.3980    6.6290   42.8790 C   0  0  0  0  0  0  0  0  0  0  0  0
   45.6300    6.1860   41.5540 C   0  0  0  0  0  0  0  0  0  0  0  0
   46.5710    5.2820   41.2840 N   0  0  0  0  0  0  0  0  0  0  0  0
   47.3360    4.7540   42.2410 C   0  0  0  0  0  0  0  0  0  0  0  0
   47.1590    5.1430   43.5410 C   0  0  0  0  0  0  0  0  0  0  0  0
   46.1850    6.0850   43.8660 C   0  0  0  0  0  0  0  0  0  0  0  0
   47.9960    4.6100   44.5710 N   0  0  0  0  0  0  0  0  0  0  0  0
   49.0100    3.6710   44.2080 C   0  0  0  0  0  0  0  0  0  0  0  0
   50.0460    3.4610   44.8710 O   0  0  0  0  0  0  0  0  0  0  0  0
   48.7990    2.8990   42.9440 C   0  0  0  0  0  0  0  0  0  0  0  0
   48.3170    3.8030   41.9380 O   0  0  0  0  0  0  0  0  0  0  0  0
   43.0970    8.7010   45.4110 H   0  0  0  0  0  0  0  0  0  0  0  0
   43.5630    9.9060   47.4940 H   0  0  0  0  0  0  0  0  0  0  0  0
   42.6250   12.1340   47.9570 H   0  0  0  0  0  0  0  0  0  0  0  0
   41.1400   13.1900   46.1960 H   0  0  0  0  0  0  0  0  0  0  0  0
   40.8230   10.3260   42.7560 H   0  0  0  0  0  0  0  0  0  0  0  0
   40.1010    8.8240   44.7380 H   0  0  0  0  0  0  0  0  0  0  0  0
   40.3000    6.6790   44.5420 H   0  0  0  0  0  0  0  0  0  0  0  0
   40.2000    6.7910   42.7550 H   0  0  0  0  0  0  0  0  0  0  0  0
   42.2080    5.9820   42.6820 H   0  0  0  0  0  0  0  0  0  0  0  0
   42.4680    6.1670   44.4330 H   0  0  0  0  0  0  0  0  0  0  0  0
   43.3340    9.7060   42.3420 H   0  0  0  0  0  0  0  0  0  0  0  0
   42.1060    8.7600   41.4960 H   0  0  0  0  0  0  0  0  0  0  0  0
   45.0150    6.6040   40.7600 H   0  0  0  0  0  0  0  0  0  0  0  0
   46.1360    6.3550   44.8730 H   0  0  0  0  0  0  0  0  0  0  0  0
   47.8890    4.8900   45.5580 H   0  0  0  0  0  0  0  0  0  0  0  0
   48.0590    2.1040   43.0490 H   0  0  0  0  0  0  0  0  0  0  0  0
   49.7390    2.4690   42.5540 H   0  0  0  0  0  0  0  0  0  0  0  0
  1  2  1  0  0  0  0
  2  7  1  0  0  0  0
  3  2  2  0  0  0  0
  3  4  1  0  0  0  0
  4  5  2  0  0  0  0
  5  6  1  0  0  0  0
  5 28  1  0  0  0  0
  6 29  1  0  0  0  0
  7 30  1  0  0  0  0
  7  6  2  0  0  0  0
  8 31  1  6  0  0  0
  8  9  1  0  0  0  0
  8  3  1  0  0  0  0
  9 32  1  0  0  0  0
 10  9  1  0  0  0  0
 10 33  1  0  0  0  0
 11 10  1  0  0  0  0
 11 36  1  0  0  0  0
 12 11  1  0  0  0  0
 13 12  1  0  0  0  0
 13  8  1  0  0  0  0
 14 12  1  0  0  0  0
 14 15  2  0  0  0  0
 16 14  1  0  0  0  0
 16 21  1  0  0  0  0
 17 16  2  0  0  0  0
 18 17  1  0  0  0  0
 18 19  2  0  0  0  0
 19 20  1  0  0  0  0
 20 21  2  0  0  0  0
 20 22  1  0  0  0  0
 21 40  1  0  0  0  0
 22 41  1  0  0  0  0
 23 22  1  0  0  0  0
 23 24  2  0  0  0  0
 25 42  1  0  0  0  0
 25 23  1  0  0  0  0
 26 19  1  0  0  0  0
 26 25  1  0  0  0  0
 27  4  1  0  0  0  0
 34 10  1  0  0  0  0
 35 11  1  0  0  0  0
 37 13  1  0  0  0  0
 38 13  1  0  0  0  0
 39 17  1  0  0  0  0
 43 25  1  0  0  0  0
M  END
>  <Pose>
1

>  <Score>
-6.17

$$$$
