
 OpenBabel03172210433D

 53 56  0  0  0  0  0  0  0  0999 V2000
   49.9890    2.8530   45.2680 B   0  0  0  0  0  0  0  0  0  0  0  0
   48.8310    3.6840   44.0080 C   0  0  0  0  0  0  0  0  0  0  0  0
   48.4280    4.9870   44.1670 C   0  0  0  0  0  0  0  0  0  0  0  0
   47.5810    5.5880   43.2380 C   0  0  0  0  0  0  0  0  0  0  0  0
   47.1800    4.8220   42.1820 C   0  0  0  0  0  0  0  0  0  0  0  0
   47.5860    3.4980   42.0160 C   0  0  0  0  0  0  0  0  0  0  0  0
   48.4140    2.9220   42.9300 C   0  0  0  0  0  0  0  0  0  0  0  0
   47.1510    6.9600   43.4270 C   0  0  0  0  0  0  0  0  0  0  0  0
   47.1280    7.8390   42.4570 C   0  0  0  0  0  0  0  0  0  0  0  0
   46.7150    7.3700   44.7400 N   0  0  0  0  0  0  0  0  0  0  0  0
   45.3980    7.0970   45.1090 N   0  0  0  0  0  0  0  0  0  0  0  0
   44.3350    7.9830   44.8160 C   0  0  0  0  0  0  0  0  0  0  0  0
   44.4960    8.8500   43.9270 O   0  0  0  0  0  0  0  0  0  0  0  0
   43.0590    7.9290   45.5050 C   0  0  0  0  0  0  0  0  0  0  0  0
   42.3400    6.8110   45.6700 N   0  0  0  0  0  0  0  0  0  0  0  0
   41.2580    7.1560   46.3190 N   0  0  0  0  0  0  0  0  0  0  0  0
   41.2640    8.4620   46.5750 N   0  0  0  0  0  0  0  0  0  0  0  0
   42.3700    9.0030   46.0900 C   0  0  0  0  0  0  0  0  0  0  0  0
   42.9050   10.3450   46.1170 C   0  0  0  0  0  0  0  0  0  0  0  0
   42.6630   11.1580   44.9410 N   0  0  0  0  0  0  0  0  0  0  0  0
   41.7970   12.2890   45.2620 C   0  0  0  0  0  0  0  0  0  0  0  0
   42.2510   13.0090   46.5120 C   0  0  0  0  0  0  0  0  0  0  0  0
   43.6870   13.4740   46.3490 C   0  0  0  0  0  0  0  0  0  0  0  0
   44.2190   13.1090   44.9920 C   0  0  0  0  0  0  0  0  0  0  0  0
   43.9200   11.7510   44.4950 C   0  0  0  0  0  0  0  0  0  0  0  0
   40.2370    9.1250   47.2880 C   0  0  0  0  0  0  0  0  0  0  0  0
   40.1720    9.1450   48.6480 N   0  0  0  0  0  0  0  0  0  0  0  0
   39.1210    9.8260   48.9800 O   0  0  0  0  0  0  0  0  0  0  0  0
   38.4900   10.2500   47.9450 N   0  0  0  0  0  0  0  0  0  0  0  0
   39.1540    9.8340   46.8580 C   0  0  0  0  0  0  0  0  0  0  0  0
   38.8240   10.0680   45.5150 N   0  0  0  0  0  0  0  0  0  0  0  0
   48.7760    5.5560   45.0240 H   0  0  0  0  0  0  0  0  0  0  0  0
   46.5150    5.2480   41.4300 H   0  0  0  0  0  0  0  0  0  0  0  0
   47.2420    2.9180   41.1580 H   0  0  0  0  0  0  0  0  0  0  0  0
   48.7230    1.9110   42.8040 H   0  0  0  0  0  0  0  0  0  0  0  0
   47.4210    7.6270   41.4510 H   0  0  0  0  0  0  0  0  0  0  0  0
   46.7990    8.8670   42.6330 H   0  0  0  0  0  0  0  0  0  0  0  0
   47.4170    7.8460   45.3330 H   0  0  0  0  0  0  0  0  0  0  0  0
   45.2490    6.1860   45.6210 H   0  0  0  0  0  0  0  0  0  0  0  0
   42.5320   10.9640   46.9810 H   0  0  0  0  0  0  0  0  0  0  0  0
   44.0150   10.3220   46.2500 H   0  0  0  0  0  0  0  0  0  0  0  0
   40.7680   11.9240   45.4050 H   0  0  0  0  0  0  0  0  0  0  0  0
   41.8210   12.9680   44.4020 H   0  0  0  0  0  0  0  0  0  0  0  0
   42.2100   12.3740   47.4110 H   0  0  0  0  0  0  0  0  0  0  0  0
   41.5780   13.8720   46.6380 H   0  0  0  0  0  0  0  0  0  0  0  0
   43.6680   14.5870   46.3850 H   0  0  0  0  0  0  0  0  0  0  0  0
   44.3250   13.1720   47.1980 H   0  0  0  0  0  0  0  0  0  0  0  0
   43.7360   13.8310   44.2670 H   0  0  0  0  0  0  0  0  0  0  0  0
   45.2840   13.3770   44.9760 H   0  0  0  0  0  0  0  0  0  0  0  0
   44.7350   11.0710   44.8690 H   0  0  0  0  0  0  0  0  0  0  0  0
   43.9490   11.6790   43.3850 H   0  0  0  0  0  0  0  0  0  0  0  0
   38.8660    9.3690   44.7410 H   0  0  0  0  0  0  0  0  0  0  0  0
   38.5050   11.0210   45.2380 H   0  0  0  0  0  0  0  0  0  0  0  0
  2  3  1  0  0  0  0
  2  1  1  0  0  0  0
  3 32  1  0  0  0  0
  4  8  1  0  0  0  0
  4  3  2  0  0  0  0
  5  4  1  0  0  0  0
  6  5  2  0  0  0  0
  6  7  1  0  0  0  0
  7  2  2  0  0  0  0
  8 10  1  0  0  0  0
  9 37  1  0  0  0  0
  9  8  2  0  0  0  0
 10 11  1  0  0  0  0
 10 38  1  0  0  0  0
 11 39  1  0  0  0  0
 12 11  1  0  0  0  0
 12 14  1  0  0  0  0
 13 12  2  0  0  0  0
 14 15  1  0  0  0  0
 14 18  2  0  0  0  0
 15 16  2  0  0  0  0
 16 17  1  0  0  0  0
 17 26  1  0  0  0  0
 18 19  1  0  0  0  0
 18 17  1  0  0  0  0
 19 41  1  0  0  0  0
 19 40  1  0  0  0  0
 20 21  1  0  0  0  0
 20 19  1  0  0  0  0
 21 42  1  0  0  0  0
 21 22  1  0  0  0  0
 22 45  1  0  0  0  0
 22 44  1  0  0  0  0
 23 46  1  0  0  0  0
 23 22  1  0  0  0  0
 23 47  1  0  0  0  0
 24 23  1  0  0  0  0
 25 50  1  0  0  0  0
 25 20  1  0  0  0  0
 25 24  1  0  0  0  0
 26 27  2  0  0  0  0
 27 28  1  0  0  0  0
 29 28  1  0  0  0  0
 30 26  1  0  0  0  0
 30 29  2  0  0  0  0
 31 30  1  0  0  0  0
 33  5  1  0  0  0  0
 34  6  1  0  0  0  0
 35  7  1  0  0  0  0
 36  9  1  0  0  0  0
 43 21  1  0  0  0  0
 48 24  1  0  0  0  0
 49 24  1  0  0  0  0
 51 25  1  0  0  0  0
 52 31  1  0  0  0  0
 53 31  1  0  0  0  0
M  END
>  <Pose>
1

>  <Score>
-7.21

$$$$
