
 OpenBabel03172210433D

 63 66  0  0  1  0  0  0  0  0999 V2000
   36.7650   11.8740   45.2140 B   0  0  0  0  0  0  0  0  0  0  0  0
   38.3840   11.0760   45.8740 C   0  0  0  0  0  0  0  0  0  0  0  0
   39.6110   11.3550   45.2610 C   0  0  0  0  0  0  0  0  0  0  0  0
   40.7930   10.7910   45.7180 C   0  0  0  0  0  0  0  0  0  0  0  0
   40.7000    9.9520   46.7940 C   0  0  0  0  0  0  0  0  0  0  0  0
   39.4920    9.6620   47.4150 C   0  0  0  0  0  0  0  0  0  0  0  0
   38.3290   10.2290   46.9510 C   0  0  0  0  0  0  0  0  0  0  0  0
   42.0630   11.0850   45.0370 C   0  0  1  0  0  0  0  0  0  0  0  0
   42.9320   11.8590   45.9010 N   0  0  0  0  0  0  0  0  0  0  0  0
   43.5370   10.9470   46.8010 C   0  0  0  0  0  0  0  0  0  0  0  0
   43.9600   11.2280   47.9280 O   0  0  0  0  0  0  0  0  0  0  0  0
   43.5520    9.6390   46.1240 C   0  0  0  0  0  0  0  0  0  0  0  0
   44.0060    8.5540   46.5610 O   0  0  0  0  0  0  0  0  0  0  0  0
   42.9280    9.8760   44.8280 C   0  0  0  0  0  0  0  0  0  0  0  0
   43.1450    9.1680   43.7290 C   0  0  0  0  0  0  0  0  0  0  0  0
   42.4600    9.6140   42.5740 O   0  0  0  0  0  0  0  0  0  0  0  0
   44.0190    8.0010   43.6670 C   0  0  0  0  0  0  0  0  0  0  0  0
   43.6690    6.7510   44.0820 C   0  0  0  0  0  0  0  0  0  0  0  0
   44.5930    5.6910   44.0330 C   0  0  0  0  0  0  0  0  0  0  0  0
   45.8720    5.8510   43.5740 C   0  0  0  0  0  0  0  0  0  0  0  0
   46.2280    7.1140   43.1520 C   0  0  0  0  0  0  0  0  0  0  0  0
   45.3360    8.1540   43.1950 C   0  0  0  0  0  0  0  0  0  0  0  0
   46.7920    4.8030   43.5220 O   0  0  0  0  0  0  0  0  0  0  0  0
   47.2840    4.3430   42.2900 C   0  0  0  0  0  0  0  0  0  0  0  0
   42.2900    6.4740   44.5480 C   0  0  0  0  0  0  0  0  0  0  0  0
   43.1010   13.2940   45.8140 C   0  0  0  0  0  0  0  0  0  0  0  0
   44.3870   13.7100   45.1710 C   0  0  0  0  0  0  0  0  0  0  0  0
   45.5440   13.8740   46.0820 C   0  0  0  0  0  0  0  0  0  0  0  0
   45.8220   15.2040   46.4900 N   0  0  0  0  0  4  0  0  0  0  0  0
   46.1960   16.0960   45.3800 C   0  0  0  0  0  0  0  0  0  0  0  0
   46.9820   17.2370   46.0290 C   0  0  0  0  0  0  0  0  0  0  0  0
   46.8590   17.2360   47.4070 O   0  0  0  0  0  0  0  0  0  0  0  0
   45.5190   17.1680   47.7880 C   0  0  0  0  0  0  0  0  0  0  0  0
   44.8450   15.8910   47.2550 C   0  0  0  0  0  0  0  0  0  0  0  0
   39.5780   12.0200   44.4300 H   0  0  0  0  0  0  0  0  0  0  0  0
   41.5790    9.4840   47.1690 H   0  0  0  0  0  0  0  0  0  0  0  0
   39.4330    9.0000   48.2620 H   0  0  0  0  0  0  0  0  0  0  0  0
   37.3500   10.0400   47.4000 H   0  0  0  0  0  0  0  0  0  0  0  0
   41.8170   11.5980   44.0850 H   0  0  0  0  0  0  0  0  0  0  0  0
   44.2900    4.6950   44.3750 H   0  0  0  0  0  0  0  0  0  0  0  0
   47.2530    7.2360   42.7850 H   0  0  0  0  0  0  0  0  0  0  0  0
   45.6350    9.1330   42.8590 H   0  0  0  0  0  0  0  0  0  0  0  0
   46.4600    3.9500   41.6340 H   0  0  0  0  0  0  0  0  0  0  0  0
   47.9810    3.5080   42.4080 H   0  0  0  0  0  0  0  0  0  0  0  0
   47.7810    5.1280   41.6790 H   0  0  0  0  0  0  0  0  0  0  0  0
   41.8140    7.2930   45.0980 H   0  0  0  0  0  0  0  0  0  0  0  0
   42.3040    5.6050   45.2750 H   0  0  0  0  0  0  0  0  0  0  0  0
   41.6520    6.0890   43.7010 H   0  0  0  0  0  0  0  0  0  0  0  0
   42.2730   13.6800   45.1720 H   0  0  0  0  0  0  0  0  0  0  0  0
   42.9810   13.8070   46.7860 H   0  0  0  0  0  0  0  0  0  0  0  0
   44.5710   12.9580   44.3520 H   0  0  0  0  0  0  0  0  0  0  0  0
   44.2030   14.6750   44.6070 H   0  0  0  0  0  0  0  0  0  0  0  0
   46.4480   13.4990   45.5390 H   0  0  0  0  0  0  0  0  0  0  0  0
   45.4060   13.2000   46.9550 H   0  0  0  0  0  0  0  0  0  0  0  0
   46.7000   15.1620   47.0920 H   0  0  0  0  0  0  0  0  0  0  0  0
   46.7830   15.5910   44.6100 H   0  0  0  0  0  0  0  0  0  0  0  0
   45.2400   16.4670   44.9380 H   0  0  0  0  0  0  0  0  0  0  0  0
   48.0810   17.0850   45.8180 H   0  0  0  0  0  0  0  0  0  0  0  0
   46.7310   18.1880   45.5470 H   0  0  0  0  0  0  0  0  0  0  0  0
   45.0320   18.0870   47.4000 H   0  0  0  0  0  0  0  0  0  0  0  0
   45.4460   17.2340   48.8960 H   0  0  0  0  0  0  0  0  0  0  0  0
   43.9690   16.2380   46.6740 H   0  0  0  0  0  0  0  0  0  0  0  0
   44.5570   15.3100   48.1490 H   0  0  0  0  0  0  0  0  0  0  0  0
  1  2  1  0  0  0  0
  2  7  1  0  0  0  0
  3  4  1  0  0  0  0
  3  2  2  0  0  0  0
  4  5  2  0  0  0  0
  5 36  1  0  0  0  0
  5  6  1  0  0  0  0
  6 37  1  0  0  0  0
  7 38  1  0  0  0  0
  7  6  2  0  0  0  0
  8 39  1  6  0  0  0
  8  4  1  0  0  0  0
  8  9  1  0  0  0  0
  9 10  1  0  0  0  0
 10 11  2  0  0  0  0
 12 13  2  0  0  0  0
 12 10  1  0  0  0  0
 14  8  1  0  0  0  0
 14 12  1  0  0  0  0
 15 14  2  0  0  0  0
 16 15  1  0  0  0  0
 17 15  1  0  0  0  0
 17 18  1  0  0  0  0
 18 25  1  0  0  0  0
 19 18  2  0  0  0  0
 19 40  1  0  0  0  0
 20 19  1  0  0  0  0
 21 22  1  0  0  0  0
 21 20  2  0  0  0  0
 22 17  2  0  0  0  0
 23 20  1  0  0  0  0
 24 44  1  0  0  0  0
 24 23  1  0  0  0  0
 25 46  1  0  0  0  0
 25 47  1  0  0  0  0
 26  9  1  0  0  0  0
 26 50  1  0  0  0  0
 27 26  1  0  0  0  0
 27 28  1  0  0  0  0
 28 29  1  0  0  0  0
 28 54  1  0  0  0  0
 29 55  1  0  0  0  0
 29 34  1  0  0  0  0
 30 31  1  0  0  0  0
 30 29  1  0  0  0  0
 31 32  1  0  0  0  0
 32 33  1  0  0  0  0
 33 61  1  0  0  0  0
 34 33  1  0  0  0  0
 34 63  1  0  0  0  0
 35  3  1  0  0  0  0
 41 21  1  0  0  0  0
 42 22  1  0  0  0  0
 43 24  1  0  0  0  0
 45 24  1  0  0  0  0
 48 25  1  0  0  0  0
 49 26  1  0  0  0  0
 51 27  1  0  0  0  0
 52 27  1  0  0  0  0
 53 28  1  0  0  0  0
 56 30  1  0  0  0  0
 57 30  1  0  0  0  0
 58 31  1  0  0  0  0
 59 31  1  0  0  0  0
 60 33  1  0  0  0  0
 62 34  1  0  0  0  0
M  END
>  <Pose>
1

>  <Score>
-5.73

$$$$
