
 OpenBabel03172210433D

 48 51  0  0  1  0  0  0  0  0999 V2000
   52.8650    4.3380   45.6510 B   0  0  0  0  0  0  0  0  0  0  0  0
   52.4060    2.7590   44.6730 C   0  0  0  0  0  0  0  0  0  0  0  0
   51.2080    2.6780   44.0200 C   0  0  0  0  0  0  0  0  0  0  0  0
   50.8660    1.5350   43.3070 C   0  0  0  0  0  0  0  0  0  0  0  0
   51.7550    0.5060   43.2830 C   0  0  0  0  0  0  0  0  0  0  0  0
   52.9670    0.5980   43.9490 C   0  0  0  0  0  0  0  0  0  0  0  0
   53.3030    1.7290   44.6520 C   0  0  0  0  0  0  0  0  0  0  0  0
   49.5890    1.4520   42.6180 C   0  0  0  0  0  0  0  0  0  0  0  0
   48.9710    0.3240   42.6130 O   0  0  0  0  0  0  0  0  0  0  0  0
   49.0160    2.5600   41.9630 N   0  0  0  0  0  0  0  0  0  0  0  0
   47.9690    3.2830   42.6630 C   0  0  2  0  0  0  0  0  0  0  0  0
   47.3120    4.3150   41.7660 C   0  0  0  0  0  0  0  0  0  0  0  0
   46.7850    5.2780   42.7140 N   0  0  0  0  0  0  0  0  0  0  0  0
   47.2570    4.9980   44.0550 C   0  0  1  0  0  0  0  0  0  0  0  0
   48.4990    4.1410   43.7770 C   0  0  0  0  0  0  0  0  0  0  0  0
   47.6040    6.2640   44.7000 C   0  0  0  0  0  0  0  0  0  0  0  0
   48.7150    6.4430   45.2200 O   0  0  0  0  0  0  0  0  0  0  0  0
   46.6260    7.2910   44.7150 N   0  0  0  0  0  0  0  0  0  0  0  0
   45.6230    7.3340   43.6740 C   0  0  1  0  0  0  0  0  0  0  0  0
   45.9160    6.4080   42.5570 C   0  0  0  0  0  0  0  0  0  0  0  0
   45.3920    6.6080   41.4290 O   0  0  0  0  0  0  0  0  0  0  0  0
   44.2200    7.1510   44.2120 C   0  0  0  0  0  0  0  0  0  0  0  0
   43.2910    8.2100   43.7850 C   0  0  0  0  0  0  0  0  0  0  0  0
   42.0710    7.8720   43.2280 C   0  0  0  0  0  0  0  0  0  0  0  0
   41.1980    8.8560   42.8260 C   0  0  0  0  0  0  0  0  0  0  0  0
   41.4820   10.2020   42.9510 C   0  0  0  0  0  0  0  0  0  0  0  0
   42.6980   10.5430   43.5050 C   0  0  0  0  0  0  0  0  0  0  0  0
   43.5870    9.5690   43.9150 C   0  0  0  0  0  0  0  0  0  0  0  0
   50.4740    3.4880   44.0220 H   0  0  0  0  0  0  0  0  0  0  0  0
   51.5140   -0.4070   42.7340 H   0  0  0  0  0  0  0  0  0  0  0  0
   53.6730   -0.2170   43.9310 H   0  0  0  0  0  0  0  0  0  0  0  0
   54.2480    1.8300   45.1860 H   0  0  0  0  0  0  0  0  0  0  0  0
   49.3470    2.8290   41.0270 H   0  0  0  0  0  0  0  0  0  0  0  0
   47.1830    2.6330   43.0420 H   0  0  0  0  0  0  0  0  0  0  0  0
   48.0430    4.8230   41.1010 H   0  0  0  0  0  0  0  0  0  0  0  0
   46.5030    3.8680   41.1490 H   0  0  0  0  0  0  0  0  0  0  0  0
   46.5250    4.4210   44.6580 H   0  0  0  0  0  0  0  0  0  0  0  0
   48.6950    3.5900   44.7090 H   0  0  0  0  0  0  0  0  0  0  0  0
   49.3000    4.8230   43.4700 H   0  0  0  0  0  0  0  0  0  0  0  0
   46.5980    8.0290   45.4540 H   0  0  0  0  0  0  0  0  0  0  0  0
   45.6490    8.3970   43.2870 H   0  0  0  0  0  0  0  0  0  0  0  0
   43.8580    6.1530   43.9030 H   0  0  0  0  0  0  0  0  0  0  0  0
   44.2890    7.1850   45.3110 H   0  0  0  0  0  0  0  0  0  0  0  0
   41.7540    6.8450   43.0860 H   0  0  0  0  0  0  0  0  0  0  0  0
   40.2420    8.5980   42.3900 H   0  0  0  0  0  0  0  0  0  0  0  0
   40.7620   10.9540   42.6190 H   0  0  0  0  0  0  0  0  0  0  0  0
   42.9220   11.6070   43.6050 H   0  0  0  0  0  0  0  0  0  0  0  0
   44.5340    9.8720   44.3460 H   0  0  0  0  0  0  0  0  0  0  0  0
  2  1  1  0  0  0  0
  3 29  1  0  0  0  0
  3  2  2  0  0  0  0
  4  3  1  0  0  0  0
  5  4  2  0  0  0  0
  5  6  1  0  0  0  0
  6  7  2  0  0  0  0
  7  2  1  0  0  0  0
  7 32  1  0  0  0  0
  8  4  1  0  0  0  0
  9  8  2  0  0  0  0
 10  8  1  0  0  0  0
 10 11  1  0  0  0  0
 11 34  1  1  0  0  0
 11 15  1  0  0  0  0
 12 11  1  0  0  0  0
 12 13  1  0  0  0  0
 13 14  1  0  0  0  0
 14 37  1  1  0  0  0
 14 16  1  0  0  0  0
 15 14  1  0  0  0  0
 15 38  1  0  0  0  0
 16 18  1  0  0  0  0
 16 17  2  0  0  0  0
 18 40  1  0  0  0  0
 19 41  1  6  0  0  0
 19 22  1  0  0  0  0
 19 18  1  0  0  0  0
 20 13  1  0  0  0  0
 20 19  1  0  0  0  0
 21 20  2  0  0  0  0
 22 43  1  0  0  0  0
 23 28  1  0  0  0  0
 23 22  1  0  0  0  0
 24 23  2  0  0  0  0
 25 26  2  0  0  0  0
 25 24  1  0  0  0  0
 26 27  1  0  0  0  0
 27 47  1  0  0  0  0
 27 28  2  0  0  0  0
 28 48  1  0  0  0  0
 30  5  1  0  0  0  0
 31  6  1  0  0  0  0
 33 10  1  0  0  0  0
 35 12  1  0  0  0  0
 36 12  1  0  0  0  0
 39 15  1  0  0  0  0
 42 22  1  0  0  0  0
 44 24  1  0  0  0  0
 45 25  1  0  0  0  0
 46 26  1  0  0  0  0
M  END
>  <Pose>
1

>  <Score>
-6.22

$$$$
