
 OpenBabel03172210433D

 61 64  0  0  1  0  0  0  0  0999 V2000
   44.0610   13.4350   50.2580 B   0  0  0  0  0  0  0  0  0  0  0  0
   43.8120   13.2450   48.3740 C   0  0  0  0  0  0  0  0  0  0  0  0
   42.7820   12.5560   47.8110 C   0  0  0  0  0  0  0  0  0  0  0  0
   42.5680   12.3950   46.4530 C   0  0  0  0  0  0  0  0  0  0  0  0
   43.4840   12.9890   45.5890 C   0  0  0  0  0  0  0  0  0  0  0  0
   44.5410   13.6960   46.1270 C   0  0  0  0  0  0  0  0  0  0  0  0
   44.7290   13.8390   47.4910 C   0  0  0  0  0  0  0  0  0  0  0  0
   41.4140   11.6000   46.0190 C   0  0  1  0  0  0  0  0  0  0  0  0
   40.5870   12.3420   45.1440 N   0  0  0  0  0  0  0  0  0  0  0  0
   40.6120   11.7580   43.8520 C   0  0  0  0  0  0  0  0  0  0  0  0
   40.0480   12.2420   42.8220 O   0  0  0  0  0  0  0  0  0  0  0  0
   41.3750   10.5300   43.9170 C   0  0  0  0  0  0  0  0  0  0  0  0
   41.5580    9.8090   42.8990 O   0  0  0  0  0  0  0  0  0  0  0  0
   41.8240   10.3730   45.2870 C   0  0  0  0  0  0  0  0  0  0  0  0
   42.5100    9.3460   45.7340 C   0  0  0  0  0  0  0  0  0  0  0  0
   42.9370    9.3430   47.0420 O   0  0  0  0  0  0  0  0  0  0  0  0
   42.8150    8.2220   44.8830 C   0  0  0  0  0  0  0  0  0  0  0  0
   44.1140    7.7270   44.6720 C   0  0  0  0  0  0  0  0  0  0  0  0
   44.0500    6.6620   43.8640 N   0  0  0  0  0  0  0  0  0  0  0  0
   42.7770    6.4760   43.5680 N   0  0  0  0  0  0  0  0  0  0  0  0
   42.0000    7.3940   44.1630 C   0  0  0  0  0  0  0  0  0  0  0  0
   45.1310    5.8590   43.4120 C   0  0  0  0  0  0  0  0  0  0  0  0
   45.6670    6.1070   42.1550 C   0  0  0  0  0  0  0  0  0  0  0  0
   46.7250    5.3740   41.6560 C   0  0  0  0  0  0  0  0  0  0  0  0
   47.3020    4.3460   42.4030 C   0  0  0  0  0  0  0  0  0  0  0  0
   46.7680    4.0980   43.6550 C   0  0  0  0  0  0  0  0  0  0  0  0
   45.7170    4.8410   44.1280 C   0  0  0  0  0  0  0  0  0  0  0  0
   45.3390    8.3270   45.2750 C   0  0  0  0  0  0  0  0  0  0  0  0
   39.7740   13.5430   45.4850 C   0  0  0  0  0  0  0  0  0  0  0  0
   38.3960   13.1140   45.9210 C   0  0  0  0  0  0  0  0  0  0  0  0
   37.4540   12.8860   44.7830 C   0  0  0  0  0  0  0  0  0  0  0  0
   36.7850   11.6270   44.7590 N   0  0  0  0  0  4  0  0  0  0  0  0
   37.3890   10.5730   45.5070 C   0  0  0  0  0  0  0  0  0  0  0  0
   35.4030   11.7780   45.2420 C   0  0  0  0  0  0  0  0  0  0  0  0
   42.0750   12.0950   48.5270 H   0  0  0  0  0  0  0  0  0  0  0  0
   43.3520   12.8820   44.5270 H   0  0  0  0  0  0  0  0  0  0  0  0
   45.2580   14.1610   45.4430 H   0  0  0  0  0  0  0  0  0  0  0  0
   45.5590   14.3920   47.9150 H   0  0  0  0  0  0  0  0  0  0  0  0
   40.8110   11.3250   46.9230 H   0  0  0  0  0  0  0  0  0  0  0  0
   40.9120    7.4620   44.1010 H   0  0  0  0  0  0  0  0  0  0  0  0
   45.1960    6.9260   41.5840 H   0  0  0  0  0  0  0  0  0  0  0  0
   47.1230    5.5950   40.6730 H   0  0  0  0  0  0  0  0  0  0  0  0
   48.1370    3.7800   41.9830 H   0  0  0  0  0  0  0  0  0  0  0  0
   47.2280    3.2900   44.2270 H   0  0  0  0  0  0  0  0  0  0  0  0
   45.3330    4.6150   45.1120 H   0  0  0  0  0  0  0  0  0  0  0  0
   45.1350    8.6660   46.3200 H   0  0  0  0  0  0  0  0  0  0  0  0
   45.7610    9.1290   44.6430 H   0  0  0  0  0  0  0  0  0  0  0  0
   46.1310    7.5450   45.3710 H   0  0  0  0  0  0  0  0  0  0  0  0
   40.3080   14.1630   46.2270 H   0  0  0  0  0  0  0  0  0  0  0  0
   39.6270   14.1180   44.5250 H   0  0  0  0  0  0  0  0  0  0  0  0
   38.5600   12.0860   46.3700 H   0  0  0  0  0  0  0  0  0  0  0  0
   38.0020   13.7060   46.7490 H   0  0  0  0  0  0  0  0  0  0  0  0
   37.9920   12.9910   43.7880 H   0  0  0  0  0  0  0  0  0  0  0  0
   36.6820   13.7110   44.7630 H   0  0  0  0  0  0  0  0  0  0  0  0
   36.6740   11.3020   43.7510 H   0  0  0  0  0  0  0  0  0  0  0  0
   36.6780   10.1160   46.2470 H   0  0  0  0  0  0  0  0  0  0  0  0
   38.3680   10.7980   45.9730 H   0  0  0  0  0  0  0  0  0  0  0  0
   37.6100    9.7240   44.7950 H   0  0  0  0  0  0  0  0  0  0  0  0
   34.6710   11.4700   44.4770 H   0  0  0  0  0  0  0  0  0  0  0  0
   35.2560   12.8580   45.4690 H   0  0  0  0  0  0  0  0  0  0  0  0
   35.2730   11.2350   46.2050 H   0  0  0  0  0  0  0  0  0  0  0  0
  2  1  1  0  0  0  0
  3  2  1  0  0  0  0
  3 35  1  0  0  0  0
  4  3  2  0  0  0  0
  5  6  2  0  0  0  0
  5  4  1  0  0  0  0
  6  7  1  0  0  0  0
  7 38  1  0  0  0  0
  7  2  2  0  0  0  0
  8  4  1  0  0  0  0
  8 39  1  1  0  0  0
  9 29  1  0  0  0  0
  9  8  1  0  0  0  0
 10 12  1  0  0  0  0
 10  9  1  0  0  0  0
 11 10  2  0  0  0  0
 12 14  1  0  0  0  0
 13 12  2  0  0  0  0
 14 15  2  0  0  0  0
 14  8  1  0  0  0  0
 15 16  1  0  0  0  0
 17 15  1  0  0  0  0
 18 17  2  0  0  0  0
 18 28  1  0  0  0  0
 19 18  1  0  0  0  0
 20 19  1  0  0  0  0
 20 21  2  0  0  0  0
 21 17  1  0  0  0  0
 22 19  1  0  0  0  0
 22 27  1  0  0  0  0
 23 22  2  0  0  0  0
 24 23  1  0  0  0  0
 24 25  2  0  0  0  0
 25 26  1  0  0  0  0
 26 27  2  0  0  0  0
 26 44  1  0  0  0  0
 27 45  1  0  0  0  0
 28 48  1  0  0  0  0
 28 46  1  0  0  0  0
 29 30  1  0  0  0  0
 29 49  1  0  0  0  0
 30 51  1  0  0  0  0
 30 52  1  0  0  0  0
 31 30  1  0  0  0  0
 32 31  1  0  0  0  0
 32 34  1  0  0  0  0
 32 33  1  0  0  0  0
 33 57  1  0  0  0  0
 33 56  1  0  0  0  0
 34 60  1  0  0  0  0
 34 61  1  0  0  0  0
 36  5  1  0  0  0  0
 37  6  1  0  0  0  0
 40 21  1  0  0  0  0
 41 23  1  0  0  0  0
 42 24  1  0  0  0  0
 43 25  1  0  0  0  0
 47 28  1  0  0  0  0
 50 29  1  0  0  0  0
 53 31  1  0  0  0  0
 54 31  1  0  0  0  0
 55 32  1  0  0  0  0
 58 33  1  0  0  0  0
 59 34  1  0  0  0  0
M  END
>  <Pose>
1

>  <Score>
-5.99

$$$$
