
 OpenBabel03172210433D

 60 63  0  0  1  0  0  0  0  0999 V2000
   45.2010   15.6080   46.4640 B   0  0  0  0  0  0  0  0  0  0  0  0
   44.9260   13.8070   47.0390 C   0  0  0  0  0  0  0  0  0  0  0  0
   43.9060   13.0750   46.5160 C   0  0  0  0  0  0  0  0  0  0  0  0
   43.6920   11.7550   46.9270 C   0  0  0  0  0  0  0  0  0  0  0  0
   44.5440   11.2280   47.8730 C   0  0  0  0  0  0  0  0  0  0  0  0
   45.5860   11.9760   48.4080 C   0  0  0  0  0  0  0  0  0  0  0  0
   45.7700   13.2710   47.9820 C   0  0  0  0  0  0  0  0  0  0  0  0
   42.5710   11.0240   46.3220 C   0  0  1  0  0  0  0  0  0  0  0  0
   41.6670   11.8420   45.5370 N   0  0  0  0  0  0  0  0  0  0  0  0
   42.2560   12.0270   44.2310 C   0  0  0  0  0  0  0  0  0  0  0  0
   42.0490   12.9430   43.4280 O   0  0  0  0  0  0  0  0  0  0  0  0
   43.1550   10.8880   44.0680 C   0  0  0  0  0  0  0  0  0  0  0  0
   43.9020   10.6080   43.0840 O   0  0  0  0  0  0  0  0  0  0  0  0
   43.0700   10.0700   45.2670 C   0  0  0  0  0  0  0  0  0  0  0  0
   43.3970    8.7970   45.4230 C   0  0  0  0  0  0  0  0  0  0  0  0
   43.2780    8.2420   46.7280 O   0  0  0  0  0  0  0  0  0  0  0  0
   43.8500    7.9880   44.3180 C   0  0  0  0  0  0  0  0  0  0  0  0
   45.0470    7.3870   44.1550 N   0  0  0  0  0  0  0  0  0  0  0  0
   45.0260    6.7000   42.9870 C   0  0  0  0  0  0  0  0  0  0  0  0
   43.8100    6.8580   42.3940 N   0  0  0  0  0  0  0  0  0  0  0  0
   43.0950    7.6540   43.2230 C   0  0  0  0  0  0  0  0  0  0  0  0
   41.6960    8.0880   42.9600 C   0  0  0  0  0  0  0  0  0  0  0  0
   46.0790    5.9760   42.4900 C   0  0  0  0  0  0  0  0  0  0  0  0
   47.2400    5.9480   43.2310 C   0  0  0  0  0  0  0  0  0  0  0  0
   47.2670    6.6480   44.4200 C   0  0  0  0  0  0  0  0  0  0  0  0
   46.1840    7.3540   44.8700 C   0  0  0  0  0  0  0  0  0  0  0  0
   45.9990    5.2360   41.1980 C   0  0  0  0  0  0  0  0  0  0  0  0
   40.3950   12.3940   45.9710 C   0  0  0  0  0  0  0  0  0  0  0  0
   39.2370   12.0140   45.1140 C   0  0  0  0  0  0  0  0  0  0  0  0
   37.8840   12.2590   45.7330 C   0  0  0  0  0  0  0  0  0  0  0  0
   36.8470   11.8200   44.8300 N   0  0  0  0  0  4  0  0  0  0  0  0
   36.1870   10.6370   45.3500 C   0  0  0  0  0  0  0  0  0  0  0  0
   35.8370   12.8570   44.7530 C   0  0  0  0  0  0  0  0  0  0  0  0
   43.2690   13.5500   45.7710 H   0  0  0  0  0  0  0  0  0  0  0  0
   44.4070   10.2000   48.2220 H   0  0  0  0  0  0  0  0  0  0  0  0
   46.2540   11.5480   49.1570 H   0  0  0  0  0  0  0  0  0  0  0  0
   46.5820   13.8670   48.3940 H   0  0  0  0  0  0  0  0  0  0  0  0
   42.0310   10.4660   47.1170 H   0  0  0  0  0  0  0  0  0  0  0  0
   41.6460    9.1770   42.8050 H   0  0  0  0  0  0  0  0  0  0  0  0
   41.0270    7.8050   43.7970 H   0  0  0  0  0  0  0  0  0  0  0  0
   41.2970    7.6110   42.0530 H   0  0  0  0  0  0  0  0  0  0  0  0
   48.1090    5.3830   42.8750 H   0  0  0  0  0  0  0  0  0  0  0  0
   48.2050    6.6220   45.0110 H   0  0  0  0  0  0  0  0  0  0  0  0
   46.2170    7.9040   45.8060 H   0  0  0  0  0  0  0  0  0  0  0  0
   45.0360    5.4390   40.7110 H   0  0  0  0  0  0  0  0  0  0  0  0
   46.1690    4.1440   41.3620 H   0  0  0  0  0  0  0  0  0  0  0  0
   46.8040    5.6750   40.5510 H   0  0  0  0  0  0  0  0  0  0  0  0
   40.4960   13.4970   45.9430 H   0  0  0  0  0  0  0  0  0  0  0  0
   40.1860   12.1310   47.0280 H   0  0  0  0  0  0  0  0  0  0  0  0
   39.2910   10.9500   44.7770 H   0  0  0  0  0  0  0  0  0  0  0  0
   39.2610   12.6100   44.1750 H   0  0  0  0  0  0  0  0  0  0  0  0
   37.7440   11.6900   46.6760 H   0  0  0  0  0  0  0  0  0  0  0  0
   37.7370   13.3200   45.9490 H   0  0  0  0  0  0  0  0  0  0  0  0
   37.1960   11.6800   43.8570 H   0  0  0  0  0  0  0  0  0  0  0  0
   35.1310   10.5730   44.9620 H   0  0  0  0  0  0  0  0  0  0  0  0
   36.0500   10.8300   46.4550 H   0  0  0  0  0  0  0  0  0  0  0  0
   36.7470    9.7130   45.1970 H   0  0  0  0  0  0  0  0  0  0  0  0
   35.0270   12.5710   44.0330 H   0  0  0  0  0  0  0  0  0  0  0  0
   36.2740   13.8450   44.4960 H   0  0  0  0  0  0  0  0  0  0  0  0
   35.3770   12.9390   45.7580 H   0  0  0  0  0  0  0  0  0  0  0  0
  1  2  1  0  0  0  0
  2  7  1  0  0  0  0
  3  4  1  0  0  0  0
  3  2  2  0  0  0  0
  4  5  2  0  0  0  0
  5 35  1  0  0  0  0
  5  6  1  0  0  0  0
  6 36  1  0  0  0  0
  7 37  1  0  0  0  0
  7  6  2  0  0  0  0
  8  4  1  0  0  0  0
  8 38  1  1  0  0  0
  9 28  1  0  0  0  0
  9  8  1  0  0  0  0
 10  9  1  0  0  0  0
 11 10  2  0  0  0  0
 12 10  1  0  0  0  0
 12 14  1  0  0  0  0
 13 12  2  0  0  0  0
 14 15  2  0  0  0  0
 14  8  1  0  0  0  0
 15 16  1  0  0  0  0
 17 15  1  0  0  0  0
 18 17  1  0  0  0  0
 18 26  1  0  0  0  0
 19 18  1  0  0  0  0
 20 19  2  0  0  0  0
 20 21  1  0  0  0  0
 21 17  2  0  0  0  0
 22 21  1  0  0  0  0
 22 40  1  0  0  0  0
 23 19  1  0  0  0  0
 23 24  2  0  0  0  0
 24 25  1  0  0  0  0
 25 26  2  0  0  0  0
 25 43  1  0  0  0  0
 26 44  1  0  0  0  0
 27 46  1  0  0  0  0
 27 23  1  0  0  0  0
 28 49  1  0  0  0  0
 29 30  1  0  0  0  0
 29 28  1  0  0  0  0
 30 53  1  0  0  0  0
 30 52  1  0  0  0  0
 31 32  1  0  0  0  0
 31 30  1  0  0  0  0
 32 56  1  0  0  0  0
 33 31  1  0  0  0  0
 33 60  1  0  0  0  0
 34  3  1  0  0  0  0
 39 22  1  0  0  0  0
 41 22  1  0  0  0  0
 42 24  1  0  0  0  0
 45 27  1  0  0  0  0
 47 27  1  0  0  0  0
 48 28  1  0  0  0  0
 50 29  1  0  0  0  0
 51 29  1  0  0  0  0
 54 31  1  0  0  0  0
 55 32  1  0  0  0  0
 57 32  1  0  0  0  0
 58 33  1  0  0  0  0
 59 33  1  0  0  0  0
M  END
>  <Pose>
1

>  <Score>
-5.42

$$$$
