
 OpenBabel03172210433D

 39 42  0  0  1  0  0  0  0  0999 V2000
   42.2050    8.5800   43.5270 B   0  0  0  0  0  0  0  0  0  0  0  0
   43.9390    7.7470   43.5320 C   0  0  0  0  0  0  0  0  0  0  0  0
   45.0440    8.4110   43.0660 C   0  0  0  0  0  0  0  0  0  0  0  0
   46.2960    7.7720   43.0850 C   0  0  0  0  0  0  0  0  0  0  0  0
   46.4300    6.5010   43.5600 C   0  0  0  0  0  0  0  0  0  0  0  0
   45.3180    5.8450   44.0240 C   0  0  0  0  0  0  0  0  0  0  0  0
   44.0600    6.4740   44.0100 C   0  0  0  0  0  0  0  0  0  0  0  0
   47.7160    5.8130   43.5970 C   0  0  1  0  0  0  0  0  0  0  0  0
   48.3190    5.6760   44.9050 C   0  0  0  0  0  0  0  0  0  0  0  0
   48.8130    4.4760   45.3350 C   0  0  0  0  0  0  0  0  0  0  0  0
   48.7860    3.3020   44.5140 N   0  0  0  0  0  0  0  0  0  0  0  0
   48.2140    3.4610   43.2220 C   0  0  0  0  0  0  0  0  0  0  0  0
   47.7380    4.5950   42.7880 C   0  0  0  0  0  0  0  0  0  0  0  0
   47.2520    4.4060   41.3860 C   0  0  0  0  0  0  0  0  0  0  0  0
   46.7360    5.3410   40.7040 O   0  0  0  0  0  0  0  0  0  0  0  0
   47.4900    3.1060   41.0810 O   0  0  0  0  0  0  0  0  0  0  0  0
   48.0440    2.4070   42.1430 C   0  0  0  0  0  0  0  0  0  0  0  0
   49.3670    4.3850   46.5870 N   0  0  0  0  0  0  0  0  0  0  0  0
   49.4260    5.4560   47.3860 C   0  0  0  0  0  0  0  0  0  0  0  0
   49.9400    5.3480   48.5350 O   0  0  0  0  0  0  0  0  0  0  0  0
   48.9380    6.6300   46.9540 N   0  0  0  0  0  0  0  0  0  0  0  0
   48.3850    6.8040   45.7550 C   0  0  0  0  0  0  0  0  0  0  0  0
   47.9270    7.8980   45.3430 O   0  0  0  0  0  0  0  0  0  0  0  0
   49.0240    7.7750   47.8630 C   0  0  0  0  0  0  0  0  0  0  0  0
   49.8750    3.0800   46.9870 C   0  0  0  0  0  0  0  0  0  0  0  0
   44.9200    9.4120   42.6950 H   0  0  0  0  0  0  0  0  0  0  0  0
   47.1140    8.3660   42.6940 H   0  0  0  0  0  0  0  0  0  0  0  0
   45.3060    4.8390   44.4220 H   0  0  0  0  0  0  0  0  0  0  0  0
   43.1730    5.9710   44.3730 H   0  0  0  0  0  0  0  0  0  0  0  0
   48.4300    6.5220   43.0280 H   0  0  0  0  0  0  0  0  0  0  0  0
   49.1700    2.4120   44.8790 H   0  0  0  0  0  0  0  0  0  0  0  0
   49.0230    1.9400   41.9160 H   0  0  0  0  0  0  0  0  0  0  0  0
   47.3200    1.6320   42.4700 H   0  0  0  0  0  0  0  0  0  0  0  0
   48.9770    8.7270   47.2990 H   0  0  0  0  0  0  0  0  0  0  0  0
   49.9700    7.7490   48.4110 H   0  0  0  0  0  0  0  0  0  0  0  0
   48.1940    7.6550   48.5870 H   0  0  0  0  0  0  0  0  0  0  0  0
   50.4130    3.1430   47.9420 H   0  0  0  0  0  0  0  0  0  0  0  0
   49.0540    2.3580   46.9790 H   0  0  0  0  0  0  0  0  0  0  0  0
   50.6560    2.8020   46.2200 H   0  0  0  0  0  0  0  0  0  0  0  0
  1  2  1  0  0  0  0
  2  7  1  0  0  0  0
  3  4  1  0  0  0  0
  3  2  2  0  0  0  0
  4  5  2  0  0  0  0
  5  8  1  0  0  0  0
  5  6  1  0  0  0  0
  6 28  1  0  0  0  0
  7  6  2  0  0  0  0
  7 29  1  0  0  0  0
  8 30  1  6  0  0  0
  8  9  1  0  0  0  0
  9 10  2  0  0  0  0
  9 22  1  0  0  0  0
 10 18  1  0  0  0  0
 11 31  1  0  0  0  0
 11 10  1  0  0  0  0
 12 11  1  0  0  0  0
 13 12  2  0  0  0  0
 13  8  1  0  0  0  0
 14 13  1  0  0  0  0
 15 14  2  0  0  0  0
 16 14  1  0  0  0  0
 16 17  1  0  0  0  0
 17 33  1  0  0  0  0
 17 12  1  0  0  0  0
 18 25  1  0  0  0  0
 18 19  1  0  0  0  0
 19 20  2  0  0  0  0
 21 19  1  0  0  0  0
 21 24  1  0  0  0  0
 22 21  1  0  0  0  0
 23 22  2  0  0  0  0
 24 35  1  0  0  0  0
 24 36  1  0  0  0  0
 25 37  1  0  0  0  0
 26  3  1  0  0  0  0
 27  4  1  0  0  0  0
 32 17  1  0  0  0  0
 34 24  1  0  0  0  0
 38 25  1  0  0  0  0
 39 25  1  0  0  0  0
M  END
>  <Pose>
1

>  <Score>
-5.49

$$$$
