
 OpenBabel03172210433D

 31 34  0  0  1  0  0  0  0  0999 V2000
   42.0060    7.0210   44.4930 B   0  0  0  0  0  0  0  0  0  0  0  0
   43.8460    7.0230   43.9620 C   0  0  0  0  0  0  0  0  0  0  0  0
   44.3320    8.1920   43.4200 C   0  0  0  0  0  0  0  0  0  0  0  0
   45.6730    8.1850   43.0330 C   0  0  0  0  0  0  0  0  0  0  0  0
   46.4470    7.0600   43.1950 C   0  0  0  0  0  0  0  0  0  0  0  0
   45.9570    5.8850   43.7400 C   0  0  0  0  0  0  0  0  0  0  0  0
   44.6310    5.8840   44.1240 C   0  0  0  0  0  0  0  0  0  0  0  0
   46.7830    4.7380   43.8960 N   0  0  0  0  0  0  0  0  0  0  0  0
   47.9620    4.9060   44.2550 O   0  0  0  0  0  0  0  0  0  0  0  0
   46.3670    3.4530   43.6790 O   0  0  0  0  0  0  0  0  0  0  0  0
   43.5120    9.3410   43.2710 N   0  0  0  0  0  0  0  0  0  0  0  0
   43.6820   10.6670   43.7370 C   0  0  0  0  0  0  0  0  0  0  0  0
   44.7510   11.1940   44.1060 O   0  0  0  0  0  0  0  0  0  0  0  0
   42.3890   11.3840   43.7350 C   0  0  2  0  0  0  0  0  0  0  0  0
   41.8240   11.2670   45.1330 C   0  0  2  0  0  0  0  0  0  0  0  0
   41.4120    9.9070   45.1150 O   0  0  0  0  0  0  0  0  0  0  0  0
   40.4950   10.0400   44.0380 C   0  0  2  0  0  0  0  0  0  0  0  0
   41.4340   10.4880   42.9510 C   0  0  2  0  0  0  0  0  0  0  0  0
   42.2720    9.3330   42.5590 C   0  0  0  0  0  0  0  0  0  0  0  0
   41.9400    8.4470   41.7060 O   0  0  0  0  0  0  0  0  0  0  0  0
   39.6620   11.1460   44.5550 C   0  0  0  0  0  0  0  0  0  0  0  0
   40.5020   11.9350   45.2190 C   0  0  0  0  0  0  0  0  0  0  0  0
   46.0850    9.0930   42.6010 H   0  0  0  0  0  0  0  0  0  0  0  0
   47.4990    7.0500   42.8940 H   0  0  0  0  0  0  0  0  0  0  0  0
   44.1920    5.0070   44.5520 H   0  0  0  0  0  0  0  0  0  0  0  0
   42.4360   12.3990   43.3540 H   0  0  0  0  0  0  0  0  0  0  0  0
   42.5230   11.4930   45.9240 H   0  0  0  0  0  0  0  0  0  0  0  0
   39.9630    9.1160   43.8340 H   0  0  0  0  0  0  0  0  0  0  0  0
   40.9720   11.0020   42.1140 H   0  0  0  0  0  0  0  0  0  0  0  0
   38.5990   11.2690   44.4110 H   0  0  0  0  0  0  0  0  0  0  0  0
   40.2870   12.8770   45.7260 H   0  0  0  0  0  0  0  0  0  0  0  0
  2  7  1  0  0  0  0
  2  1  1  0  0  0  0
  3  2  2  0  0  0  0
  4  5  2  0  0  0  0
  4  3  1  0  0  0  0
  5  6  1  0  0  0  0
  6  8  1  0  0  0  0
  6  7  2  0  0  0  0
  7 25  1  0  0  0  0
  8  9  2  0  0  0  0
 10  8  2  0  0  0  0
 11  3  1  0  0  0  0
 11 12  1  0  0  0  0
 12 13  2  0  0  0  0
 14 26  1  6  0  0  0
 14 12  1  0  0  0  0
 14 15  1  0  0  0  0
 15 22  1  0  0  0  0
 15 27  1  1  0  0  0
 16 15  1  0  0  0  0
 17 28  1  6  0  0  0
 17 21  1  0  0  0  0
 17 16  1  0  0  0  0
 18 29  1  6  0  0  0
 18 14  1  0  0  0  0
 18 17  1  0  0  0  0
 19 18  1  0  0  0  0
 19 11  1  0  0  0  0
 20 19  2  0  0  0  0
 21 22  2  0  0  0  0
 22 31  1  0  0  0  0
 23  4  1  0  0  0  0
 24  5  1  0  0  0  0
 30 21  1  0  0  0  0
M  END
>  <Pose>
1

>  <Score>
-5.73

$$$$
