
 OpenBabel03172210433D

 47 50  0  0  1  0  0  0  0  0999 V2000
   38.7620    9.4020   49.1800 B   0  0  0  0  0  0  0  0  0  0  0  0
   38.7680   10.1390   47.4420 C   0  0  0  0  0  0  0  0  0  0  0  0
   39.9120   10.0900   46.6820 C   0  0  0  0  0  0  0  0  0  0  0  0
   39.9640   10.5650   45.4370 C   0  0  0  0  0  0  0  0  0  0  0  0
   38.8030   11.1470   44.8400 C   0  0  0  0  0  0  0  0  0  0  0  0
   37.6530   11.1860   45.5540 C   0  0  0  0  0  0  0  0  0  0  0  0
   37.6200   10.6860   46.8590 C   0  0  0  0  0  0  0  0  0  0  0  0
   41.0420    9.1660   47.2020 C   0  0  0  0  0  0  0  0  0  0  0  0
   40.9670    8.0670   46.6250 N   0  0  0  0  0  0  0  0  0  0  0  0
   41.2880    6.8510   46.3330 N   0  0  0  0  0  0  0  0  0  0  0  0
   42.1120    6.9870   45.0320 C   0  0  2  0  0  0  0  0  0  0  0  0
   41.7690    7.9460   44.3500 O   0  0  0  0  0  0  0  0  0  0  0  0
   43.1290    6.0750   44.6980 C   0  0  0  0  0  0  0  0  0  0  0  0
   43.1200    4.7830   44.5760 N   0  0  0  0  0  0  0  0  0  0  0  0
   44.1990    4.3970   43.9880 N   0  0  0  0  0  0  0  0  0  0  0  0
   45.0310    5.4620   43.6670 N   0  0  0  0  0  0  0  0  0  0  0  0
   44.3950    6.5270   44.1010 C   0  0  0  0  0  0  0  0  0  0  0  0
   44.6900    7.9460   44.2830 C   0  0  0  0  0  0  0  0  0  0  0  0
   44.5140    8.9960   43.4740 N   0  0  0  0  0  0  0  0  0  0  0  0
   43.0980    9.1710   43.1800 C   0  0  0  0  0  0  0  0  0  0  0  0
   42.7940   10.6290   43.3530 C   0  0  0  0  0  0  0  0  0  0  0  0
   44.0970   11.2720   43.8170 C   0  0  0  0  0  0  0  0  0  0  0  0
   45.1220   10.2120   43.3420 C   0  0  0  0  0  0  0  0  0  0  0  0
   46.2030    5.1670   42.9730 C   0  0  0  0  0  0  0  0  0  0  0  0
   46.3450    5.4740   41.6200 N   0  0  0  0  0  0  0  0  0  0  0  0
   47.4550    4.9980   41.2150 O   0  0  0  0  0  0  0  0  0  0  0  0
   48.0850    4.4060   42.1490 N   0  0  0  0  0  0  0  0  0  0  0  0
   47.3160    4.4960   43.2710 C   0  0  0  0  0  0  0  0  0  0  0  0
   47.7520    3.8990   44.4980 N   0  0  0  0  0  0  0  0  0  0  0  0
   40.8920   10.5710   44.8960 H   0  0  0  0  0  0  0  0  0  0  0  0
   38.8340   11.5650   43.8800 H   0  0  0  0  0  0  0  0  0  0  0  0
   36.6990   11.5910   45.1270 H   0  0  0  0  0  0  0  0  0  0  0  0
   36.6610   10.6850   47.3790 H   0  0  0  0  0  0  0  0  0  0  0  0
   41.6770    9.4570   47.9140 H   0  0  0  0  0  0  0  0  0  0  0  0
   41.1530    5.8930   46.6440 H   0  0  0  0  0  0  0  0  0  0  0  0
   44.8690    8.2610   45.3720 H   0  0  0  0  0  0  0  0  0  0  0  0
   45.9890    7.8810   44.1250 H   0  0  0  0  0  0  0  0  0  0  0  0
   42.4910    8.4910   43.7760 H   0  0  0  0  0  0  0  0  0  0  0  0
   42.8620    8.8690   42.1080 H   0  0  0  0  0  0  0  0  0  0  0  0
   42.3960   11.0900   42.4350 H   0  0  0  0  0  0  0  0  0  0  0  0
   41.9760   10.7540   44.1240 H   0  0  0  0  0  0  0  0  0  0  0  0
   44.2370   12.2150   43.3170 H   0  0  0  0  0  0  0  0  0  0  0  0
   44.1560   11.2350   44.9000 H   0  0  0  0  0  0  0  0  0  0  0  0
   45.2170   10.4600   42.2270 H   0  0  0  0  0  0  0  0  0  0  0  0
   46.0840   10.3880   43.8400 H   0  0  0  0  0  0  0  0  0  0  0  0
   47.5810    4.4300   45.3640 H   0  0  0  0  0  0  0  0  0  0  0  0
   48.2640    3.0190   44.4980 H   0  0  0  0  0  0  0  0  0  0  0  0
  2  1  1  0  0  0  0
  3  8  1  0  0  0  0
  3  2  2  0  0  0  0
  4  3  1  0  0  0  0
  5  4  2  0  0  0  0
  5  6  1  0  0  0  0
  6  7  2  0  0  0  0
  7 33  1  0  0  0  0
  7  2  1  0  0  0  0
  8 34  1  0  0  0  0
  9  8  1  0  0  0  0
 10  9  1  0  0  0  0
 10 35  1  0  0  0  0
 11 12  1  6  0  0  0
 11 10  1  0  0  0  0
 13 11  1  0  0  0  0
 14 13  1  0  0  0  0
 15 14  2  0  0  0  0
 16 15  1  0  0  0  0
 16 17  1  0  0  0  0
 17 18  1  0  0  0  0
 17 13  2  0  0  0  0
 18 36  1  0  0  0  0
 19 18  1  0  0  0  0
 20 21  1  0  0  0  0
 20 19  1  0  0  0  0
 21 22  1  0  0  0  0
 21 41  1  0  0  0  0
 22 43  1  0  0  0  0
 23 19  1  0  0  0  0
 23 22  1  0  0  0  0
 23 45  1  0  0  0  0
 24 28  1  0  0  0  0
 24 16  1  0  0  0  0
 25 24  2  0  0  0  0
 26 25  1  0  0  0  0
 26 27  1  0  0  0  0
 27 28  2  0  0  0  0
 28 29  1  0  0  0  0
 29 46  1  0  0  0  0
 30  4  1  0  0  0  0
 31  5  1  0  0  0  0
 32  6  1  0  0  0  0
 37 18  1  0  0  0  0
 38 12  1  0  0  0  0
 39 20  1  0  0  0  0
 40 21  1  0  0  0  0
 42 22  1  0  0  0  0
 44 23  1  0  0  0  0
 47 29  1  0  0  0  0
M  END
>  <Pose>
1

>  <Score>
-6.79

$$$$
