
 OpenBabel03172210433D

 51 54  0  0  1  0  0  0  0  0999 V2000
   45.3780   13.7360   48.5120 B   0  0  0  0  0  0  0  0  0  0  0  0
   44.5160   12.4470   47.3870 C   0  0  0  0  0  0  0  0  0  0  0  0
   43.8820   11.3450   47.9050 C   0  0  0  0  0  0  0  0  0  0  0  0
   43.2710   10.4370   47.0780 C   0  0  0  0  0  0  0  0  0  0  0  0
   43.2530   10.5670   45.6770 C   0  0  0  0  0  0  0  0  0  0  0  0
   43.8880   11.6650   45.1860 C   0  0  0  0  0  0  0  0  0  0  0  0
   44.5030   12.5800   46.0180 C   0  0  0  0  0  0  0  0  0  0  0  0
   42.5970    9.5350   44.9150 C   0  0  1  0  0  0  0  0  0  0  0  0
   41.8290    9.9060   43.7630 N   0  0  0  0  0  0  0  0  0  0  0  0
   41.5580    8.6310   43.1090 C   0  0  0  0  0  0  0  0  0  0  0  0
   40.5920    8.3790   42.3560 O   0  0  0  0  0  0  0  0  0  0  0  0
   42.6130    7.7120   43.4910 C   0  0  0  0  0  0  0  0  0  0  0  0
   42.7760    6.5000   43.1590 O   0  0  0  0  0  0  0  0  0  0  0  0
   43.4980    8.4770   44.3750 C   0  0  0  0  0  0  0  0  0  0  0  0
   44.7520    8.2140   44.6200 C   0  0  0  0  0  0  0  0  0  0  0  0
   45.4340    9.0210   45.5400 O   0  0  0  0  0  0  0  0  0  0  0  0
   45.4570    7.1030   43.9510 C   0  0  0  0  0  0  0  0  0  0  0  0
   46.2660    6.2340   44.5480 O   0  0  0  0  0  0  0  0  0  0  0  0
   46.7460    5.3640   43.6990 C   0  0  0  0  0  0  0  0  0  0  0  0
   46.2560    5.6280   42.4370 C   0  0  0  0  0  0  0  0  0  0  0  0
   45.4440    6.7330   42.6280 C   0  0  0  0  0  0  0  0  0  0  0  0
   46.6180    4.8430   41.3640 C   0  0  0  0  0  0  0  0  0  0  0  0
   47.4750    3.7700   41.4780 C   0  0  0  0  0  0  0  0  0  0  0  0
   47.9700    3.5020   42.7420 C   0  0  0  0  0  0  0  0  0  0  0  0
   47.6170    4.2770   43.8250 C   0  0  0  0  0  0  0  0  0  0  0  0
   41.3100   11.1670   43.2810 C   0  0  0  0  0  0  0  0  0  0  0  0
   40.6160   12.0440   44.2360 C   0  0  0  0  0  0  0  0  0  0  0  0
   39.2150   11.8010   44.4610 N   0  0  0  0  0  4  0  0  0  0  0  0
   38.9800   10.6370   45.2660 C   0  0  0  0  0  0  0  0  0  0  0  0
   38.4520   12.9580   44.8340 C   0  0  0  0  0  0  0  0  0  0  0  0
   43.8820   11.2240   48.9800 H   0  0  0  0  0  0  0  0  0  0  0  0
   42.7890    9.5890   47.5570 H   0  0  0  0  0  0  0  0  0  0  0  0
   43.9370   11.8240   44.1300 H   0  0  0  0  0  0  0  0  0  0  0  0
   45.0050   13.4510   45.5920 H   0  0  0  0  0  0  0  0  0  0  0  0
   41.8750    8.9580   45.5730 H   0  0  0  0  0  0  0  0  0  0  0  0
   44.8920    7.2400   41.8520 H   0  0  0  0  0  0  0  0  0  0  0  0
   46.2250    5.0660   40.3870 H   0  0  0  0  0  0  0  0  0  0  0  0
   47.7750    3.1400   40.6510 H   0  0  0  0  0  0  0  0  0  0  0  0
   48.6450    2.6720   42.8940 H   0  0  0  0  0  0  0  0  0  0  0  0
   48.0020    4.0680   44.8130 H   0  0  0  0  0  0  0  0  0  0  0  0
   40.6730   11.0190   42.3710 H   0  0  0  0  0  0  0  0  0  0  0  0
   42.2010   11.7450   42.8800 H   0  0  0  0  0  0  0  0  0  0  0  0
   40.6990   13.1020   43.9230 H   0  0  0  0  0  0  0  0  0  0  0  0
   41.1130   11.9360   45.2470 H   0  0  0  0  0  0  0  0  0  0  0  0
   38.8480   11.5270   43.4850 H   0  0  0  0  0  0  0  0  0  0  0  0
   39.9680   10.1950   45.4920 H   0  0  0  0  0  0  0  0  0  0  0  0
   38.3460   10.8220   46.1590 H   0  0  0  0  0  0  0  0  0  0  0  0
   38.4340    9.8160   44.7160 H   0  0  0  0  0  0  0  0  0  0  0  0
   39.0240   13.8980   44.8810 H   0  0  0  0  0  0  0  0  0  0  0  0
   37.6210   13.1760   44.0980 H   0  0  0  0  0  0  0  0  0  0  0  0
   37.8780   12.7610   45.7890 H   0  0  0  0  0  0  0  0  0  0  0  0
  2  3  1  0  0  0  0
  2  1  1  0  0  0  0
  3 31  1  0  0  0  0
  4 32  1  0  0  0  0
  4  3  2  0  0  0  0
  5  4  1  0  0  0  0
  6  5  2  0  0  0  0
  6  7  1  0  0  0  0
  7  2  2  0  0  0  0
  8 35  1  1  0  0  0
  8  5  1  0  0  0  0
  9  8  1  0  0  0  0
 10 12  1  0  0  0  0
 10  9  1  0  0  0  0
 11 10  2  0  0  0  0
 12 14  1  0  0  0  0
 13 12  2  0  0  0  0
 14 15  2  0  0  0  0
 14  8  1  0  0  0  0
 15 16  1  0  0  0  0
 17 18  1  0  0  0  0
 17 15  1  0  0  0  0
 19 25  1  0  0  0  0
 19 18  1  0  0  0  0
 20 21  1  0  0  0  0
 20 19  2  0  0  0  0
 21 17  2  0  0  0  0
 22 23  2  0  0  0  0
 22 20  1  0  0  0  0
 23 24  1  0  0  0  0
 24 39  1  0  0  0  0
 24 25  2  0  0  0  0
 25 40  1  0  0  0  0
 26  9  1  0  0  0  0
 26 27  1  0  0  0  0
 27 28  1  0  0  0  0
 27 44  1  0  0  0  0
 28 30  1  0  0  0  0
 28 29  1  0  0  0  0
 29 46  1  0  0  0  0
 29 47  1  0  0  0  0
 30 49  1  0  0  0  0
 30 51  1  0  0  0  0
 33  6  1  0  0  0  0
 34  7  1  0  0  0  0
 36 21  1  0  0  0  0
 37 22  1  0  0  0  0
 38 23  1  0  0  0  0
 41 26  1  0  0  0  0
 42 26  1  0  0  0  0
 43 27  1  0  0  0  0
 45 28  1  0  0  0  0
 48 29  1  0  0  0  0
 50 30  1  0  0  0  0
M  END
>  <Pose>
1

>  <Score>
-5.78

$$$$
