
 OpenBabel03172210433D

 48 51  0  0  0  0  0  0  0  0999 V2000
   44.4830   15.5010   50.3220 B   0  0  0  0  0  0  0  0  0  0  0  0
   44.5870   14.2670   48.8680 C   0  0  0  0  0  0  0  0  0  0  0  0
   43.5910   14.2370   47.8950 C   0  0  0  0  0  0  0  0  0  0  0  0
   43.6700   13.3520   46.8430 C   0  0  0  0  0  0  0  0  0  0  0  0
   44.7330   12.4890   46.7410 C   0  0  0  0  0  0  0  0  0  0  0  0
   45.7090   12.5330   47.7090 C   0  0  0  0  0  0  0  0  0  0  0  0
   45.6650   13.4010   48.7770 C   0  0  0  0  0  0  0  0  0  0  0  0
   42.6480   13.3190   45.8160 C   0  0  0  0  0  0  0  0  0  0  0  0
   42.3640   12.1910   45.1620 C   0  0  0  0  0  0  0  0  0  0  0  0
   42.9600   10.9440   45.3380 O   0  0  0  0  0  0  0  0  0  0  0  0
   42.4060   10.0200   44.4950 C   0  0  0  0  0  0  0  0  0  0  0  0
   41.4170   10.6100   43.7170 C   0  0  0  0  0  0  0  0  0  0  0  0
   40.7400    9.8170   42.8040 C   0  0  0  0  0  0  0  0  0  0  0  0
   41.0480    8.4810   42.6840 C   0  0  0  0  0  0  0  0  0  0  0  0
   42.0490    7.9230   43.4840 C   0  0  0  0  0  0  0  0  0  0  0  0
   42.7350    8.6840   44.3920 C   0  0  0  0  0  0  0  0  0  0  0  0
   43.8280    8.0700   45.1480 C   0  0  0  0  0  0  0  0  0  0  0  0
   45.0760    7.9680   44.4840 N   0  0  0  0  0  4  0  0  0  0  0  0
   44.8550    8.1840   43.0640 C   0  0  0  0  0  0  0  0  0  0  0  0
   45.6680    7.3250   42.1570 C   0  0  0  0  0  0  0  0  0  0  0  0
   45.6540    5.9370   42.4590 N   0  0  0  0  0  0  0  0  0  0  0  0
   45.1350    5.6780   43.7610 C   0  0  0  0  0  0  0  0  0  0  0  0
   45.6730    6.6770   44.7300 C   0  0  0  0  0  0  0  0  0  0  0  0
   46.9780    5.3810   42.2760 C   0  0  0  0  0  0  0  0  0  0  0  0
   42.2850    6.5710   43.2870 O   0  0  0  0  0  0  0  0  0  0  0  0
   41.3560   12.0260   44.1170 C   0  0  0  0  0  0  0  0  0  0  0  0
   40.5760   12.8800   43.6220 O   0  0  0  0  0  0  0  0  0  0  0  0
   42.7620   14.9350   48.0130 H   0  0  0  0  0  0  0  0  0  0  0  0
   44.7880   11.7910   45.9160 H   0  0  0  0  0  0  0  0  0  0  0  0
   46.5550   11.8400   47.5980 H   0  0  0  0  0  0  0  0  0  0  0  0
   46.4690   13.4090   49.5200 H   0  0  0  0  0  0  0  0  0  0  0  0
   42.1080   14.2120   45.5680 H   0  0  0  0  0  0  0  0  0  0  0  0
   39.9760   10.3090   42.2190 H   0  0  0  0  0  0  0  0  0  0  0  0
   40.4890    7.9170   41.9600 H   0  0  0  0  0  0  0  0  0  0  0  0
   43.9750    8.7110   46.0850 H   0  0  0  0  0  0  0  0  0  0  0  0
   43.5000    7.0980   45.5460 H   0  0  0  0  0  0  0  0  0  0  0  0
   45.7920    8.6700   44.8400 H   0  0  0  0  0  0  0  0  0  0  0  0
   45.0290    9.2290   42.7580 H   0  0  0  0  0  0  0  0  0  0  0  0
   43.7680    8.0170   42.8030 H   0  0  0  0  0  0  0  0  0  0  0  0
   45.2160    7.4480   41.1200 H   0  0  0  0  0  0  0  0  0  0  0  0
   46.7250    7.7120   41.9980 H   0  0  0  0  0  0  0  0  0  0  0  0
   44.0120    5.8160   43.7230 H   0  0  0  0  0  0  0  0  0  0  0  0
   45.3160    4.6300   44.1120 H   0  0  0  0  0  0  0  0  0  0  0  0
   46.8030    6.7400   44.6690 H   0  0  0  0  0  0  0  0  0  0  0  0
   45.4350    6.3170   45.7620 H   0  0  0  0  0  0  0  0  0  0  0  0
   47.7960    6.1040   42.5190 H   0  0  0  0  0  0  0  0  0  0  0  0
   47.1600    4.4420   42.8400 H   0  0  0  0  0  0  0  0  0  0  0  0
   47.1070    5.2000   41.1690 H   0  0  0  0  0  0  0  0  0  0  0  0
  2  1  1  0  0  0  0
  3 28  1  0  0  0  0
  3  2  2  0  0  0  0
  4  3  1  0  0  0  0
  5  4  2  0  0  0  0
  5  6  1  0  0  0  0
  6  7  2  0  0  0  0
  7  2  1  0  0  0  0
  7 31  1  0  0  0  0
  8  4  1  0  0  0  0
  9 10  1  0  0  0  0
  9  8  2  0  0  0  0
 11 10  1  0  0  0  0
 12 26  1  0  0  0  0
 12 11  2  0  0  0  0
 13 12  1  0  0  0  0
 14 13  2  0  0  0  0
 14 15  1  0  0  0  0
 15 16  2  0  0  0  0
 16 11  1  0  0  0  0
 16 17  1  0  0  0  0
 17 36  1  0  0  0  0
 17 35  1  0  0  0  0
 18 23  1  0  0  0  0
 18 37  1  0  0  0  0
 18 17  1  0  0  0  0
 19 18  1  0  0  0  0
 20 21  1  0  0  0  0
 20 19  1  0  0  0  0
 21 22  1  0  0  0  0
 22 43  1  0  0  0  0
 22 23  1  0  0  0  0
 23 45  1  0  0  0  0
 24 21  1  0  0  0  0
 24 46  1  0  0  0  0
 24 47  1  0  0  0  0
 25 15  1  0  0  0  0
 26  9  1  0  0  0  0
 27 26  2  0  0  0  0
 29  5  1  0  0  0  0
 30  6  1  0  0  0  0
 32  8  1  0  0  0  0
 33 13  1  0  0  0  0
 34 14  1  0  0  0  0
 38 19  1  0  0  0  0
 39 19  1  0  0  0  0
 40 20  1  0  0  0  0
 41 20  1  0  0  0  0
 42 22  1  0  0  0  0
 44 23  1  0  0  0  0
 48 24  1  0  0  0  0
M  END
>  <Pose>
1

>  <Score>
-4.72

$$$$
