
 OpenBabel03172210433D

 56 59  0  0  1  0  0  0  0  0999 V2000
   47.0540    7.0420   45.8120 B   0  0  0  0  0  0  0  0  0  0  0  0
   46.7180    6.3690   44.0670 C   0  0  0  0  0  0  0  0  0  0  0  0
   45.8110    7.0300   43.2670 C   0  0  0  0  0  0  0  0  0  0  0  0
   45.5990    6.5070   42.0100 C   0  0  0  0  0  0  0  0  0  0  0  0
   46.2510    5.3800   41.5560 C   0  0  0  0  0  0  0  0  0  0  0  0
   47.1590    4.7180   42.3550 C   0  0  0  0  0  0  0  0  0  0  0  0
   47.3850    5.2260   43.6170 C   0  0  0  0  0  0  0  0  0  0  0  0
   47.8160    3.5780   41.8900 O   0  0  0  0  0  0  0  0  0  0  0  0
   48.7650    2.8800   42.6380 C   0  0  0  0  0  0  0  0  0  0  0  0
   46.0310    4.8580   40.2850 O   0  0  0  0  0  0  0  0  0  0  0  0
   45.1580    3.8120   39.9990 C   0  0  0  0  0  0  0  0  0  0  0  0
   45.1180    8.2230   43.7440 C   0  0  0  0  0  0  0  0  0  0  0  0
   43.8600    8.3330   43.8660 N   0  0  0  0  0  0  0  0  0  0  0  0
   43.2180    9.4980   44.3290 N   0  0  0  0  0  0  0  0  0  0  0  0
   42.3700    9.3740   45.4630 C   0  0  0  0  0  0  0  0  0  0  0  0
   41.3570   10.2120   45.8030 N   0  0  0  0  0  0  0  0  0  0  0  0
   40.7840    9.7600   46.9490 C   0  0  0  0  0  0  0  0  0  0  0  0
   39.7730   10.1830   47.7160 N   0  0  0  0  0  0  0  0  0  0  0  0
   39.3990    9.5320   48.8320 C   0  0  0  0  0  0  0  0  0  0  0  0
   40.0670    8.4130   49.1900 N   0  0  0  0  0  0  0  0  0  0  0  0
   41.0810    7.9350   48.4770 C   0  0  0  0  0  0  0  0  0  0  0  0
   41.4600    8.6090   47.3330 C   0  0  0  0  0  0  0  0  0  0  0  0
   42.3950    8.4190   46.4180 N   0  0  0  0  0  0  0  0  0  0  0  0
   41.7920    6.7810   48.8220 O   0  0  0  0  0  0  0  0  0  0  0  0
   38.3110   10.0000   49.6430 N   0  0  0  0  0  0  0  0  0  0  0  0
   40.9620   11.3770   45.0730 C   0  0  2  0  0  0  0  0  0  0  0  0
   41.1700   12.5680   45.7530 O   0  0  0  0  0  0  0  0  0  0  0  0
   40.3420   13.5190   45.2300 C   0  0  1  0  0  0  0  0  0  0  0  0
   39.3230   12.8760   44.3520 C   0  0  2  0  0  0  0  0  0  0  0  0
   39.4940   11.3960   44.6990 C   0  0  1  0  0  0  0  0  0  0  0  0
   39.2300   10.5970   43.5870 O   0  0  0  0  0  0  0  0  0  0  0  0
   39.7050   12.9860   42.9990 O   0  0  0  0  0  0  0  0  0  0  0  0
   39.6000   14.1960   46.3850 C   0  0  0  0  0  0  0  0  0  0  0  0
   40.0660   15.5050   46.5490 O   0  0  0  0  0  0  0  0  0  0  0  0
   44.8790    7.0290   41.3720 H   0  0  0  0  0  0  0  0  0  0  0  0
   48.0930    4.7250   44.2650 H   0  0  0  0  0  0  0  0  0  0  0  0
   48.8840    1.8230   42.3150 H   0  0  0  0  0  0  0  0  0  0  0  0
   48.4570    2.8130   43.7200 H   0  0  0  0  0  0  0  0  0  0  0  0
   49.7720    3.3300   42.6260 H   0  0  0  0  0  0  0  0  0  0  0  0
   44.8830    3.8850   38.9240 H   0  0  0  0  0  0  0  0  0  0  0  0
   44.2960    3.7240   40.6670 H   0  0  0  0  0  0  0  0  0  0  0  0
   45.7230    2.8400   40.0870 H   0  0  0  0  0  0  0  0  0  0  0  0
   45.7110    9.0860   44.0170 H   0  0  0  0  0  0  0  0  0  0  0  0
   43.3400   10.4210   43.8850 H   0  0  0  0  0  0  0  0  0  0  0  0
   41.3790    5.9020   48.5350 H   0  0  0  0  0  0  0  0  0  0  0  0
   37.3260    9.7670   49.4810 H   0  0  0  0  0  0  0  0  0  0  0  0
   38.5640   10.6160   50.4440 H   0  0  0  0  0  0  0  0  0  0  0  0
   41.5220   11.4570   44.1170 H   0  0  0  0  0  0  0  0  0  0  0  0
   40.9680   14.2610   44.6870 H   0  0  0  0  0  0  0  0  0  0  0  0
   38.2920   13.2170   44.5220 H   0  0  0  0  0  0  0  0  0  0  0  0
   38.8440   11.1080   45.5370 H   0  0  0  0  0  0  0  0  0  0  0  0
   38.2620   10.3830   43.5460 H   0  0  0  0  0  0  0  0  0  0  0  0
   39.1500   12.4180   42.4230 H   0  0  0  0  0  0  0  0  0  0  0  0
   39.8230   13.6030   47.2890 H   0  0  0  0  0  0  0  0  0  0  0  0
   38.5280   14.1640   46.1470 H   0  0  0  0  0  0  0  0  0  0  0  0
   41.0370   15.5200   46.7500 H   0  0  0  0  0  0  0  0  0  0  0  0
  2  1  1  0  0  0  0
  3 12  1  0  0  0  0
  3  2  2  0  0  0  0
  4  3  1  0  0  0  0
  5  4  2  0  0  0  0
  5  6  1  0  0  0  0
  6  7  2  0  0  0  0
  7  2  1  0  0  0  0
  7 36  1  0  0  0  0
  8  6  1  0  0  0  0
  8  9  1  0  0  0  0
  9 38  1  0  0  0  0
 10  5  1  0  0  0  0
 11 42  1  0  0  0  0
 11 10  1  0  0  0  0
 11 41  1  0  0  0  0
 12 13  2  0  0  0  0
 12 43  1  0  0  0  0
 13 14  1  0  0  0  0
 14 15  1  0  0  0  0
 15 16  1  0  0  0  0
 15 23  2  0  0  0  0
 16 17  1  0  0  0  0
 17 22  2  0  0  0  0
 17 18  1  0  0  0  0
 18 19  2  0  0  0  0
 19 20  1  0  0  0  0
 19 25  1  0  0  0  0
 21 24  1  0  0  0  0
 21 20  2  0  0  0  0
 22 21  1  0  0  0  0
 23 22  1  0  0  0  0
 25 47  1  0  0  0  0
 26 48  1  6  0  0  0
 26 27  1  0  0  0  0
 26 16  1  0  0  0  0
 28 49  1  6  0  0  0
 28 27  1  0  0  0  0
 28 33  1  0  0  0  0
 29 50  1  1  0  0  0
 29 30  1  0  0  0  0
 29 28  1  0  0  0  0
 30 26  1  0  0  0  0
 30 51  1  1  0  0  0
 31 30  1  0  0  0  0
 32 29  1  0  0  0  0
 33 34  1  0  0  0  0
 33 54  1  0  0  0  0
 34 56  1  0  0  0  0
 35  4  1  0  0  0  0
 37  9  1  0  0  0  0
 39  9  1  0  0  0  0
 40 11  1  0  0  0  0
 44 14  1  0  0  0  0
 45 24  1  0  0  0  0
 46 25  1  0  0  0  0
 52 31  1  0  0  0  0
 53 32  1  0  0  0  0
 55 33  1  0  0  0  0
M  END
>  <Pose>
1

>  <Score>
-6.54

$$$$
