
 OpenBabel03172210433D

 42 45  0  0  1  0  0  0  0  0999 V2000
   49.3560    2.4190   42.5570 Cl  0  0  0  0  0  0  0  0  0  0  0  0
   49.6890    2.7240   44.2450 C   0  0  0  0  0  0  0  0  0  0  0  0
   48.9070    3.6550   44.8950 C   0  0  0  0  0  0  0  0  0  0  0  0
   49.1960    3.8720   46.2220 C   0  0  0  0  0  0  0  0  0  0  0  0
   50.2030    3.2070   46.8830 C   0  0  0  0  0  0  0  0  0  0  0  0
   50.9850    2.2650   46.2040 C   0  0  0  0  0  0  0  0  0  0  0  0
   50.7160    2.0320   44.8790 C   0  0  0  0  0  0  0  0  0  0  0  0
   47.8320    4.3780   44.2250 C   0  0  0  0  0  0  0  0  0  0  0  0
   46.6830    3.8750   43.7440 N   0  0  0  0  0  0  0  0  0  0  0  0
   45.9710    4.8450   43.2110 O   0  0  0  0  0  0  0  0  0  0  0  0
   46.6120    5.9810   43.3230 C   0  0  0  0  0  0  0  0  0  0  0  0
   47.7720    5.6940   43.9530 N   0  0  0  0  0  0  0  0  0  0  0  0
   46.1690    7.3430   42.8520 C   0  0  0  0  0  0  0  0  0  0  0  0
   45.5030    8.0540   43.9280 N   0  0  0  0  0  0  0  0  0  0  0  0
   44.2110    7.6970   44.3520 C   0  0  0  0  0  0  0  0  0  0  0  0
   44.0060    6.5480   44.8000 O   0  0  0  0  0  0  0  0  0  0  0  0
   43.1060    8.6640   44.2690 C   0  0  1  0  0  0  0  0  0  0  0  0
   42.0490    8.4160   45.3280 C   0  0  0  0  0  0  0  0  0  0  0  0
   41.0370    9.5120   45.3540 C   0  0  0  0  0  0  0  0  0  0  0  0
   41.3370   10.6280   46.3010 C   0  0  0  0  0  0  0  0  0  0  0  0
   42.8350   10.8120   46.5200 C   0  0  0  0  0  0  0  0  0  0  0  0
   43.4420   10.9870   45.2210 N   0  0  0  0  0  0  0  0  0  0  0  0
   43.9720   12.1100   44.8150 N   0  0  0  0  0  0  0  0  0  0  0  0
   44.4330   11.9430   43.6010 N   0  0  0  0  0  0  0  0  0  0  0  0
   44.1850   10.6960   43.2500 N   0  0  0  0  0  0  0  0  0  0  0  0
   43.5560   10.0640   44.2570 C   0  0  0  0  0  0  0  0  0  0  0  0
   48.6140    4.5880   46.7730 H   0  0  0  0  0  0  0  0  0  0  0  0
   50.4360    3.3700   47.9230 H   0  0  0  0  0  0  0  0  0  0  0  0
   51.7840    1.7280   46.7040 H   0  0  0  0  0  0  0  0  0  0  0  0
   51.3230    1.3020   44.3550 H   0  0  0  0  0  0  0  0  0  0  0  0
   45.5010    7.2330   41.9830 H   0  0  0  0  0  0  0  0  0  0  0  0
   47.0770    7.8790   42.5140 H   0  0  0  0  0  0  0  0  0  0  0  0
   45.9900    8.8440   44.3970 H   0  0  0  0  0  0  0  0  0  0  0  0
   42.5790    8.4990   43.2930 H   0  0  0  0  0  0  0  0  0  0  0  0
   41.5100    7.4670   45.0320 H   0  0  0  0  0  0  0  0  0  0  0  0
   42.5180    8.1860   46.2920 H   0  0  0  0  0  0  0  0  0  0  0  0
   40.0310    9.0590   45.5870 H   0  0  0  0  0  0  0  0  0  0  0  0
   40.9310    9.9140   44.3210 H   0  0  0  0  0  0  0  0  0  0  0  0
   40.8830   11.5520   45.8880 H   0  0  0  0  0  0  0  0  0  0  0  0
   40.9040   10.4590   47.3140 H   0  0  0  0  0  0  0  0  0  0  0  0
   42.9730   11.7330   47.1190 H   0  0  0  0  0  0  0  0  0  0  0  0
   43.2760    9.9370   46.9980 H   0  0  0  0  0  0  0  0  0  0  0  0
  1  2  1  0  0  0  0
  2  7  2  0  0  0  0
  2  3  1  0  0  0  0
  3  4  2  0  0  0  0
  4 27  1  0  0  0  0
  4  5  1  0  0  0  0
  5 28  1  0  0  0  0
  6 29  1  0  0  0  0
  6  5  2  0  0  0  0
  7  6  1  0  0  0  0
  8  3  1  0  0  0  0
  9  8  2  0  0  0  0
 10 11  1  0  0  0  0
 10  9  1  0  0  0  0
 11 12  2  0  0  0  0
 12  8  1  0  0  0  0
 13 11  1  0  0  0  0
 13 14  1  0  0  0  0
 14 15  1  0  0  0  0
 14 33  1  0  0  0  0
 15 16  2  0  0  0  0
 17 34  1  6  0  0  0
 17 15  1  0  0  0  0
 17 18  1  0  0  0  0
 18 19  1  0  0  0  0
 18 36  1  0  0  0  0
 19 37  1  0  0  0  0
 19 20  1  0  0  0  0
 20 21  1  0  0  0  0
 20 40  1  0  0  0  0
 21 42  1  0  0  0  0
 21 41  1  0  0  0  0
 22 21  1  0  0  0  0
 23 22  1  0  0  0  0
 24 23  2  0  0  0  0
 25 24  1  0  0  0  0
 25 26  2  0  0  0  0
 26 17  1  0  0  0  0
 26 22  1  0  0  0  0
 30  7  1  0  0  0  0
 31 13  1  0  0  0  0
 32 13  1  0  0  0  0
 35 18  1  0  0  0  0
 38 19  1  0  0  0  0
 39 20  1  0  0  0  0
M  END
>  <Pose>
1

>  <Score>
-6.06

$$$$
