
 OpenBabel03172210433D

 33 36  0  0  1  0  0  0  0  0999 V2000
   40.0480    9.4720   47.5430 B   0  0  0  0  0  0  0  0  0  0  0  0
   41.9100    9.2240   47.8830 C   0  0  0  0  0  0  0  0  0  0  0  0
   42.8440    9.3030   46.8810 C   0  0  0  0  0  0  0  0  0  0  0  0
   44.1770    9.1130   47.1620 C   0  0  0  0  0  0  0  0  0  0  0  0
   44.6140    8.8390   48.4510 C   0  0  0  0  0  0  0  0  0  0  0  0
   43.6960    8.7550   49.4690 C   0  0  0  0  0  0  0  0  0  0  0  0
   42.3420    8.9510   49.1740 C   0  0  0  0  0  0  0  0  0  0  0  0
   42.4710    9.5990   45.4730 C   0  0  1  0  0  0  0  0  0  0  0  0
   43.3980    9.2620   44.4850 C   0  0  1  0  0  0  0  0  0  0  0  0
   43.9560    8.0220   43.8800 C   0  0  0  0  0  0  0  0  0  0  0  0
   43.0060    8.0160   42.7390 N   0  0  0  0  0  0  0  0  0  0  0  0
   41.8440    8.3730   43.1900 C   0  0  1  0  0  0  0  0  0  0  0  0
   41.9870    8.6070   44.5920 C   0  0  2  0  0  0  0  0  0  0  0  0
   41.8970    7.2840   45.2790 C   0  0  0  0  0  0  0  0  0  0  0  0
   41.8520    6.2370   45.8300 N   0  0  0  0  0  0  0  0  0  0  0  0
   40.6390    8.5040   42.4030 N   0  0  0  0  0  0  0  0  0  0  0  0
   45.2400    8.3110   43.4030 O   0  0  0  0  0  0  0  0  0  0  0  0
   46.0830    7.3330   43.8950 C   0  0  0  0  0  0  0  0  0  0  0  0
   45.1310    6.1730   44.1300 C   0  0  0  0  0  0  0  0  0  0  0  0
   44.0060    6.8960   44.5980 O   0  0  0  0  0  0  0  0  0  0  0  0
   43.5200   10.3300   43.4290 C   0  0  0  0  0  0  0  0  0  0  0  0
   43.6370   11.1640   42.6010 N   0  0  0  0  0  0  0  0  0  0  0  0
   44.9690    9.1650   46.3990 H   0  0  0  0  0  0  0  0  0  0  0  0
   45.6510    8.6880   48.6880 H   0  0  0  0  0  0  0  0  0  0  0  0
   44.0130    8.5490   50.4610 H   0  0  0  0  0  0  0  0  0  0  0  0
   41.5800    8.8950   49.9470 H   0  0  0  0  0  0  0  0  0  0  0  0
   41.9230   10.5830   45.4480 H   0  0  0  0  0  0  0  0  0  0  0  0
   39.7430    8.7910   42.8390 H   0  0  0  0  0  0  0  0  0  0  0  0
   40.6490    8.3130   41.3840 H   0  0  0  0  0  0  0  0  0  0  0  0
   46.4930    7.6760   44.8690 H   0  0  0  0  0  0  0  0  0  0  0  0
   46.8920    7.0730   43.1800 H   0  0  0  0  0  0  0  0  0  0  0  0
   44.8920    5.6740   43.1660 H   0  0  0  0  0  0  0  0  0  0  0  0
   45.4970    5.4600   44.8810 H   0  0  0  0  0  0  0  0  0  0  0  0
  1  2  1  0  0  0  0
  2  7  1  0  0  0  0
  3  4  1  0  0  0  0
  3  2  2  0  0  0  0
  4  5  2  0  0  0  0
  5 24  1  0  0  0  0
  5  6  1  0  0  0  0
  6 25  1  0  0  0  0
  7  6  2  0  0  0  0
  7 26  1  0  0  0  0
  8 27  1  6  0  0  0
  8  3  1  0  0  0  0
  9 21  1  6  0  0  0
  9 13  1  0  0  0  0
  9  8  1  0  0  0  0
 10  9  1  0  0  0  0
 10 20  1  0  0  0  0
 11 12  1  0  0  0  0
 11 10  1  0  0  0  0
 12 16  1  6  0  0  0
 12 13  1  0  0  0  0
 13 14  1  1  0  0  0
 13  8  1  0  0  0  0
 14 15  3  0  0  0  0
 16 28  1  0  0  0  0
 17 10  1  0  0  0  0
 17 18  1  0  0  0  0
 18 19  1  0  0  0  0
 18 30  1  0  0  0  0
 19 20  1  0  0  0  0
 19 33  1  0  0  0  0
 22 21  3  0  0  0  0
 23  4  1  0  0  0  0
 29 16  1  0  0  0  0
 31 18  1  0  0  0  0
 32 19  1  0  0  0  0
M  END
>  <Pose>
1

>  <Score>
-5.07

$$$$
