
 OpenBabel03172210433D

 52 55  0  0  1  0  0  0  0  0999 V2000
   51.2770    1.7070   42.6650 B   0  0  0  0  0  0  0  0  0  0  0  0
   50.2880    2.9470   43.7640 C   0  0  0  0  0  0  0  0  0  0  0  0
   48.9900    3.2610   43.4490 C   0  0  0  0  0  0  0  0  0  0  0  0
   48.2140    4.1600   44.2000 C   0  0  0  0  0  0  0  0  0  0  0  0
   48.7890    4.7350   45.2920 C   0  0  0  0  0  0  0  0  0  0  0  0
   50.1050    4.4260   45.6210 C   0  0  0  0  0  0  0  0  0  0  0  0
   50.8570    3.5400   44.8670 C   0  0  0  0  0  0  0  0  0  0  0  0
   46.8270    4.3970   43.7640 C   0  0  0  0  0  0  0  0  0  0  0  0
   46.2470    3.6560   42.9610 O   0  0  0  0  0  0  0  0  0  0  0  0
   46.1690    5.5540   44.3470 N   0  0  0  0  0  0  0  0  0  0  0  0
   45.4730    6.4730   43.4800 C   0  0  2  0  0  0  0  0  0  0  0  0
   46.6190    7.2910   42.8300 C   0  0  0  0  0  0  0  0  0  0  0  0
   44.6130    7.4570   44.2070 C   0  0  0  0  0  0  0  0  0  0  0  0
   44.7860    7.5820   45.4360 O   0  0  0  0  0  0  0  0  0  0  0  0
   43.6490    8.2310   43.5500 N   0  0  0  0  0  0  0  0  0  0  0  0
   42.3050    7.9290   43.1900 C   0  0  0  0  0  0  0  0  0  0  0  0
   41.5830    9.2830   43.2510 C   0  0  0  0  0  0  0  0  0  0  0  0
   42.1980   10.2070   44.2730 C   0  0  1  0  0  0  0  0  0  0  0  0
   41.5170   11.4720   44.3120 N   0  0  0  0  0  0  0  0  0  0  0  0
   42.2370   12.3360   45.2590 C   0  0  0  0  0  0  0  0  0  0  0  0
   42.1230   11.8370   46.6650 C   0  0  0  0  0  0  0  0  0  0  0  0
   42.0530   10.3600   46.7460 C   0  0  0  0  0  0  0  0  0  0  0  0
   41.9590    9.5550   47.8080 N   0  0  0  0  0  0  0  0  0  0  0  0
   41.9290    8.2780   47.3770 C   0  0  0  0  0  0  0  0  0  0  0  0
   42.0070    8.3080   46.0390 N   0  0  0  0  0  0  0  0  0  0  0  0
   42.0840    9.5690   45.5900 C   0  0  0  0  0  0  0  0  0  0  0  0
   43.6550   10.5670   43.9370 C   0  0  0  0  0  0  0  0  0  0  0  0
   44.0780    9.5470   42.9690 C   0  0  0  0  0  0  0  0  0  0  0  0
   48.5230    2.8230   42.5790 H   0  0  0  0  0  0  0  0  0  0  0  0
   48.2140    5.4360   45.8940 H   0  0  0  0  0  0  0  0  0  0  0  0
   50.5710    4.8490   46.4700 H   0  0  0  0  0  0  0  0  0  0  0  0
   51.8910    3.2770   45.0860 H   0  0  0  0  0  0  0  0  0  0  0  0
   46.2040    5.7150   45.3520 H   0  0  0  0  0  0  0  0  0  0  0  0
   44.9680    5.9820   42.6320 H   0  0  0  0  0  0  0  0  0  0  0  0
   47.1350    7.7280   43.7520 H   0  0  0  0  0  0  0  0  0  0  0  0
   47.3190    6.6500   42.3280 H   0  0  0  0  0  0  0  0  0  0  0  0
   46.2190    8.1090   42.2250 H   0  0  0  0  0  0  0  0  0  0  0  0
   42.3260    7.6170   42.1130 H   0  0  0  0  0  0  0  0  0  0  0  0
   41.8140    7.1650   43.7810 H   0  0  0  0  0  0  0  0  0  0  0  0
   40.5780    9.0450   43.6220 H   0  0  0  0  0  0  0  0  0  0  0  0
   41.4410    9.7250   42.2590 H   0  0  0  0  0  0  0  0  0  0  0  0
   41.6060   11.9430   43.3800 H   0  0  0  0  0  0  0  0  0  0  0  0
   43.2950   12.4660   45.0400 H   0  0  0  0  0  0  0  0  0  0  0  0
   41.7660   13.3610   45.2310 H   0  0  0  0  0  0  0  0  0  0  0  0
   41.2950   12.3380   47.2410 H   0  0  0  0  0  0  0  0  0  0  0  0
   43.0550   12.1310   47.2410 H   0  0  0  0  0  0  0  0  0  0  0  0
   41.9110    9.7880   48.8250 H   0  0  0  0  0  0  0  0  0  0  0  0
   41.8580    7.3700   47.9420 H   0  0  0  0  0  0  0  0  0  0  0  0
   44.1930   10.6040   44.8840 H   0  0  0  0  0  0  0  0  0  0  0  0
   43.7080   11.5510   43.3870 H   0  0  0  0  0  0  0  0  0  0  0  0
   45.0800    9.4870   42.5970 H   0  0  0  0  0  0  0  0  0  0  0  0
   43.4430    9.7200   42.0340 H   0  0  0  0  0  0  0  0  0  0  0  0
  1  2  1  0  0  0  0
  2  7  1  0  0  0  0
  3  2  2  0  0  0  0
  3  4  1  0  0  0  0
  4  5  2  0  0  0  0
  5  6  1  0  0  0  0
  5 30  1  0  0  0  0
  6 31  1  0  0  0  0
  7 32  1  0  0  0  0
  7  6  2  0  0  0  0
  8  4  1  0  0  0  0
  8 10  1  0  0  0  0
  9  8  2  0  0  0  0
 10 33  1  0  0  0  0
 11 34  1  6  0  0  0
 11 13  1  0  0  0  0
 11 10  1  0  0  0  0
 12 11  1  0  0  0  0
 12 35  1  0  0  0  0
 13 14  2  0  0  0  0
 15 13  1  0  0  0  0
 16 17  1  0  0  0  0
 16 15  1  0  0  0  0
 16 39  1  0  0  0  0
 17 40  1  0  0  0  0
 17 18  1  0  0  0  0
 18 19  1  0  0  0  0
 18 26  1  1  0  0  0
 19 20  1  0  0  0  0
 20 21  1  0  0  0  0
 21 22  1  0  0  0  0
 21 46  1  0  0  0  0
 21 45  1  0  0  0  0
 22 23  1  0  0  0  0
 23 47  1  0  0  0  0
 24 23  1  0  0  0  0
 24 48  1  0  0  0  0
 25 24  2  0  0  0  0
 26 25  1  0  0  0  0
 26 22  2  0  0  0  0
 27 18  1  0  0  0  0
 27 49  1  0  0  0  0
 28 15  1  0  0  0  0
 28 27  1  0  0  0  0
 29  3  1  0  0  0  0
 36 12  1  0  0  0  0
 37 12  1  0  0  0  0
 38 16  1  0  0  0  0
 41 17  1  0  0  0  0
 42 19  1  0  0  0  0
 43 20  1  0  0  0  0
 44 20  1  0  0  0  0
 50 27  1  0  0  0  0
 51 28  1  0  0  0  0
 52 28  1  0  0  0  0
M  END
>  <Pose>
1

>  <Score>
-5.94

$$$$
