
 OpenBabel03172210433D

 45 48  0  0  0  0  0  0  0  0999 V2000
   49.4290    3.2130   43.4160 B   0  0  0  0  0  0  0  0  0  0  0  0
   47.9440    4.3690   43.0120 C   0  0  0  0  0  0  0  0  0  0  0  0
   47.4860    5.2790   43.9470 C   0  0  0  0  0  0  0  0  0  0  0  0
   46.4410    6.0990   43.6780 N   0  0  0  0  0  0  0  0  0  0  0  0
   45.8210    6.0520   42.4940 C   0  0  0  0  0  0  0  0  0  0  0  0
   44.7860    6.8680   42.2320 N   0  0  0  0  0  0  0  0  0  0  0  0
   44.3260    7.7580   43.1270 C   0  0  0  0  0  0  0  0  0  0  0  0
   44.9610    7.8070   44.3430 C   0  0  0  0  0  0  0  0  0  0  0  0
   46.0430    6.9640   44.6340 C   0  0  0  0  0  0  0  0  0  0  0  0
   46.6020    7.0360   45.7570 O   0  0  0  0  0  0  0  0  0  0  0  0
   43.1840    8.6260   42.7790 C   0  0  0  0  0  0  0  0  0  0  0  0
   43.4830    9.9160   43.2390 O   0  0  0  0  0  0  0  0  0  0  0  0
   42.3980   10.8070   43.4620 C   0  0  0  0  0  0  0  0  0  0  0  0
   41.4160   10.4850   42.8050 O   0  0  0  0  0  0  0  0  0  0  0  0
   42.5810   11.9130   44.3820 C   0  0  0  0  0  0  0  0  0  0  0  0
   43.8340   12.3860   44.6570 N   0  0  0  0  0  0  0  0  0  0  0  0
   44.0280   13.3920   45.4900 N   0  0  0  0  0  0  0  0  0  0  0  0
   43.0000   13.9990   46.1080 C   0  0  0  0  0  0  0  0  0  0  0  0
   43.2000   14.9700   46.9120 O   0  0  0  0  0  0  0  0  0  0  0  0
   41.7090   13.5840   45.8860 C   0  0  0  0  0  0  0  0  0  0  0  0
   41.5310   12.5180   45.0000 C   0  0  0  0  0  0  0  0  0  0  0  0
   40.2260   12.1370   44.8070 C   0  0  0  0  0  0  0  0  0  0  0  0
   39.1690   12.7720   45.4520 C   0  0  0  0  0  0  0  0  0  0  0  0
   39.3800   13.8190   46.3190 C   0  0  0  0  0  0  0  0  0  0  0  0
   40.6770   14.2170   46.5260 C   0  0  0  0  0  0  0  0  0  0  0  0
   45.3610   13.8830   45.7740 C   0  0  0  0  0  0  0  0  0  0  0  0
   46.0230   14.4850   44.5620 C   0  0  0  0  0  0  0  0  0  0  0  0
   47.3390   14.8390   44.7940 O   0  0  0  0  0  0  0  0  0  0  0  0
   46.2610    5.1580   41.5550 C   0  0  0  0  0  0  0  0  0  0  0  0
   47.3200    4.3060   41.7910 C   0  0  0  0  0  0  0  0  0  0  0  0
   48.0060    5.3000   44.9070 H   0  0  0  0  0  0  0  0  0  0  0  0
   44.6360    8.5030   45.1030 H   0  0  0  0  0  0  0  0  0  0  0  0
   42.9300    8.5900   41.7020 H   0  0  0  0  0  0  0  0  0  0  0  0
   42.2780    8.1980   43.2900 H   0  0  0  0  0  0  0  0  0  0  0  0
   39.9830   11.3420   44.1580 H   0  0  0  0  0  0  0  0  0  0  0  0
   38.1570   12.4350   45.2670 H   0  0  0  0  0  0  0  0  0  0  0  0
   38.5520   14.3200   46.8260 H   0  0  0  0  0  0  0  0  0  0  0  0
   40.8650   15.0310   47.1970 H   0  0  0  0  0  0  0  0  0  0  0  0
   45.9990   13.0490   46.1220 H   0  0  0  0  0  0  0  0  0  0  0  0
   45.3230   14.6350   46.5770 H   0  0  0  0  0  0  0  0  0  0  0  0
   45.4550   15.3480   44.1690 H   0  0  0  0  0  0  0  0  0  0  0  0
   46.0220   13.7060   43.7740 H   0  0  0  0  0  0  0  0  0  0  0  0
   47.8080   14.8250   43.9260 H   0  0  0  0  0  0  0  0  0  0  0  0
   45.7630    5.1050   40.5760 H   0  0  0  0  0  0  0  0  0  0  0  0
   47.6620    3.6040   41.0480 H   0  0  0  0  0  0  0  0  0  0  0  0
  2  1  1  0  0  0  0
  2  3  1  0  0  0  0
  3 31  1  0  0  0  0
  4  3  1  0  0  0  0
  4  9  1  0  0  0  0
  5  4  1  0  0  0  0
  6  5  1  0  0  0  0
  6  7  2  0  0  0  0
  7  8  1  0  0  0  0
  8  9  1  0  0  0  0
  8 32  1  0  0  0  0
  9 10  2  0  0  0  0
 11  7  1  0  0  0  0
 11 12  1  0  0  0  0
 11 34  1  0  0  0  0
 12 13  1  0  0  0  0
 13 15  1  0  0  0  0
 14 13  2  0  0  0  0
 15 16  2  0  0  0  0
 15 21  1  0  0  0  0
 16 17  1  0  0  0  0
 17 26  1  0  0  0  0
 17 18  1  0  0  0  0
 18 19  2  0  0  0  0
 20 18  1  0  0  0  0
 20 25  1  0  0  0  0
 21 20  2  0  0  0  0
 22 21  1  0  0  0  0
 22 23  2  0  0  0  0
 23 24  1  0  0  0  0
 24 25  2  0  0  0  0
 24 37  1  0  0  0  0
 25 38  1  0  0  0  0
 26 39  1  0  0  0  0
 26 40  1  0  0  0  0
 27 28  1  0  0  0  0
 27 26  1  0  0  0  0
 29 30  1  0  0  0  0
 29  5  2  0  0  0  0
 30  2  2  0  0  0  0
 33 11  1  0  0  0  0
 35 22  1  0  0  0  0
 36 23  1  0  0  0  0
 41 27  1  0  0  0  0
 42 27  1  0  0  0  0
 43 28  1  0  0  0  0
 44 29  1  0  0  0  0
 45 30  1  0  0  0  0
M  END
>  <Pose>
1

>  <Score>
-5.65

$$$$
