
 OpenBabel03172210433D

 55 58  0  0  1  0  0  0  0  0999 V2000
   50.4730    0.6280   43.1840 Cl  0  0  0  0  0  0  0  0  0  0  0  0
   49.6470    2.1740   43.4430 C   0  0  0  0  0  0  0  0  0  0  0  0
   48.7030    2.5900   42.5340 C   0  0  0  0  0  0  0  0  0  0  0  0
   48.0350    3.7930   42.7000 C   0  0  0  0  0  0  0  0  0  0  0  0
   47.0930    4.4330   41.9930 N   0  0  0  0  0  0  0  0  0  0  0  0
   46.7780    5.6190   42.6230 C   0  0  0  0  0  0  0  0  0  0  0  0
   47.5480    5.6580   43.7050 N   0  0  0  0  0  0  0  0  0  0  0  0
   48.3460    4.5550   43.8030 C   0  0  0  0  0  0  0  0  0  0  0  0
   49.2920    4.1460   44.7190 C   0  0  0  0  0  0  0  0  0  0  0  0
   49.9480    2.9520   44.5440 C   0  0  0  0  0  0  0  0  0  0  0  0
   47.5720    6.6790   44.7370 C   0  0  0  0  0  0  0  0  0  0  0  0
   45.7300    6.5620   42.1550 C   0  0  0  0  0  0  0  0  0  0  0  0
   44.5890    6.7950   43.0510 C   0  0  0  0  0  0  0  0  0  0  0  0
   44.2540    8.1810   43.3960 C   0  0  0  0  0  0  0  0  0  0  0  0
   44.9240    9.1570   42.9880 O   0  0  0  0  0  0  0  0  0  0  0  0
   43.1100    8.4270   44.2410 N   0  0  0  0  0  0  0  0  0  0  0  0
   42.2910    9.5800   43.9840 C   0  0  0  0  0  0  0  0  0  0  0  0
   42.4750   10.5300   45.1490 C   0  0  2  0  0  0  0  0  0  0  0  0
   42.7250    9.8430   46.4430 C   0  0  1  0  0  0  0  0  0  0  0  0
   42.3090    8.4190   46.5060 C   0  0  0  0  0  0  0  0  0  0  0  0
   42.7260    7.5850   45.3400 C   0  0  0  0  0  0  0  0  0  0  0  0
   44.0660    9.9200   46.8500 O   0  0  0  0  0  0  0  0  0  0  0  0
   41.9340   10.5990   47.5190 C   0  0  0  0  0  0  0  0  0  0  0  0
   41.3420   11.4220   45.1760 N   0  0  0  0  0  0  0  0  0  0  0  0
   41.3670   12.5290   45.9420 C   0  0  0  0  0  0  0  0  0  0  0  0
   40.3080   13.4080   45.9980 C   0  0  0  0  0  0  0  0  0  0  0  0
   39.1920   13.1360   45.2410 C   0  0  0  0  0  0  0  0  0  0  0  0
   38.1780   13.9110   45.2480 O   0  0  0  0  0  0  0  0  0  0  0  0
   39.1940   12.0260   44.4870 N   0  0  0  0  0  0  0  0  0  0  0  0
   40.2340   11.1910   44.4510 C   0  0  0  0  0  0  0  0  0  0  0  0
   40.1850   10.1570   43.7230 O   0  0  0  0  0  0  0  0  0  0  0  0
   48.4340    2.0140   41.6540 H   0  0  0  0  0  0  0  0  0  0  0  0
   49.4990    4.7740   45.5610 H   0  0  0  0  0  0  0  0  0  0  0  0
   50.6960    2.5990   45.2430 H   0  0  0  0  0  0  0  0  0  0  0  0
   46.7630    7.4100   44.6360 H   0  0  0  0  0  0  0  0  0  0  0  0
   47.5630    6.2480   45.7580 H   0  0  0  0  0  0  0  0  0  0  0  0
   48.5630    7.1960   44.6430 H   0  0  0  0  0  0  0  0  0  0  0  0
   45.4160    6.2360   41.1300 H   0  0  0  0  0  0  0  0  0  0  0  0
   46.2950    7.5250   41.9520 H   0  0  0  0  0  0  0  0  0  0  0  0
   43.6720    6.2140   42.7480 H   0  0  0  0  0  0  0  0  0  0  0  0
   44.8630    6.3080   44.0470 H   0  0  0  0  0  0  0  0  0  0  0  0
   41.2210    9.3200   43.8340 H   0  0  0  0  0  0  0  0  0  0  0  0
   42.6110   10.0730   43.0420 H   0  0  0  0  0  0  0  0  0  0  0  0
   43.3800   11.1480   44.9090 H   0  0  0  0  0  0  0  0  0  0  0  0
   42.7990    7.9680   47.4180 H   0  0  0  0  0  0  0  0  0  0  0  0
   41.2100    8.3450   46.7320 H   0  0  0  0  0  0  0  0  0  0  0  0
   41.8090    7.0160   45.0050 H   0  0  0  0  0  0  0  0  0  0  0  0
   43.4790    6.8150   45.5870 H   0  0  0  0  0  0  0  0  0  0  0  0
   44.6410    9.6670   46.0630 H   0  0  0  0  0  0  0  0  0  0  0  0
   42.4110   10.3250   48.4920 H   0  0  0  0  0  0  0  0  0  0  0  0
   42.0950   11.6960   47.4100 H   0  0  0  0  0  0  0  0  0  0  0  0
   40.8840   10.3020   47.5460 H   0  0  0  0  0  0  0  0  0  0  0  0
   42.2550   12.7470   46.5460 H   0  0  0  0  0  0  0  0  0  0  0  0
   40.3310   14.2950   46.6130 H   0  0  0  0  0  0  0  0  0  0  0  0
   38.3520   11.7780   43.8870 H   0  0  0  0  0  0  0  0  0  0  0  0
  1  2  1  0  0  0  0
  2 10  1  0  0  0  0
  3  4  1  0  0  0  0
  3  2  2  0  0  0  0
  4  8  2  0  0  0  0
  5  6  2  0  0  0  0
  5  4  1  0  0  0  0
  6  7  1  0  0  0  0
  7  8  1  0  0  0  0
  7 11  1  0  0  0  0
  8  9  1  0  0  0  0
  9 33  1  0  0  0  0
 10  9  2  0  0  0  0
 10 34  1  0  0  0  0
 11 36  1  0  0  0  0
 12  6  1  0  0  0  0
 12 13  1  0  0  0  0
 13 14  1  0  0  0  0
 13 41  1  0  0  0  0
 14 16  1  0  0  0  0
 15 14  2  0  0  0  0
 16 21  1  0  0  0  0
 17 16  1  0  0  0  0
 17 18  1  0  0  0  0
 18 44  1  6  0  0  0
 18 24  1  0  0  0  0
 18 19  1  0  0  0  0
 19 20  1  0  0  0  0
 19 22  1  1  0  0  0
 19 23  1  0  0  0  0
 20 46  1  0  0  0  0
 20 45  1  0  0  0  0
 21 48  1  0  0  0  0
 21 20  1  0  0  0  0
 23 52  1  0  0  0  0
 23 50  1  0  0  0  0
 24 25  1  0  0  0  0
 25 26  2  0  0  0  0
 25 53  1  0  0  0  0
 26 54  1  0  0  0  0
 27 28  2  0  0  0  0
 27 26  1  0  0  0  0
 29 27  1  0  0  0  0
 30 29  1  0  0  0  0
 30 24  1  0  0  0  0
 31 30  2  0  0  0  0
 32  3  1  0  0  0  0
 35 11  1  0  0  0  0
 37 11  1  0  0  0  0
 38 12  1  0  0  0  0
 39 12  1  0  0  0  0
 40 13  1  0  0  0  0
 42 17  1  0  0  0  0
 43 17  1  0  0  0  0
 47 21  1  0  0  0  0
 49 22  1  0  0  0  0
 51 23  1  0  0  0  0
 55 29  1  0  0  0  0
M  END
>  <Pose>
1

>  <Score>
-6.22

$$$$
