
 OpenBabel03172210433D

 49 52  0  0  0  0  0  0  0  0999 V2000
   51.5950    1.5040   42.3590 B   0  0  0  0  0  0  0  0  0  0  0  0
   50.5580    2.6080   43.4960 C   0  0  0  0  0  0  0  0  0  0  0  0
   49.3090    3.0260   43.0750 C   0  0  0  0  0  0  0  0  0  0  0  0
   48.5030    3.8330   43.8580 C   0  0  0  0  0  0  0  0  0  0  0  0
   48.9860    4.2200   45.1000 C   0  0  0  0  0  0  0  0  0  0  0  0
   50.2280    3.8000   45.5120 C   0  0  0  0  0  0  0  0  0  0  0  0
   51.0440    2.9970   44.7450 C   0  0  0  0  0  0  0  0  0  0  0  0
   47.1850    4.2890   43.4420 C   0  0  0  0  0  0  0  0  0  0  0  0
   46.2760    3.4460   43.2300 O   0  0  0  0  0  0  0  0  0  0  0  0
   46.8630    5.6530   43.2590 N   0  0  0  0  0  0  0  0  0  0  0  0
   45.4940    6.1180   43.2120 C   0  0  0  0  0  0  0  0  0  0  0  0
   45.1980    7.0690   44.3160 C   0  0  0  0  0  0  0  0  0  0  0  0
   46.0720    7.1930   45.2090 O   0  0  0  0  0  0  0  0  0  0  0  0
   44.0140    7.8180   44.4030 N   0  0  0  0  0  0  0  0  0  0  0  0
   43.1290    8.0010   43.2800 C   0  0  0  0  0  0  0  0  0  0  0  0
   43.1340    9.4790   42.9550 C   0  0  0  0  0  0  0  0  0  0  0  0
   42.8680   10.2770   44.2090 C   0  0  0  0  0  0  0  0  0  0  0  0
   44.0340   11.0930   44.4750 N   0  0  0  0  0  0  0  0  0  0  0  0
   43.8950   12.0010   45.5590 C   0  0  0  0  0  0  0  0  0  0  0  0
   42.5860   12.6870   45.7040 C   0  0  0  0  0  0  0  0  0  0  0  0
   41.6180   12.4030   44.6240 C   0  0  0  0  0  0  0  0  0  0  0  0
   40.5350   13.0930   44.1500 N   0  0  0  0  0  0  0  0  0  0  0  0
   40.0180   12.3580   43.1570 C   0  0  0  0  0  0  0  0  0  0  0  0
   40.7500   11.2420   43.0070 N   0  0  0  0  0  0  0  0  0  0  0  0
   41.7610   11.2350   43.9100 C   0  0  0  0  0  0  0  0  0  0  0  0
   42.5170    9.4510   45.4040 C   0  0  0  0  0  0  0  0  0  0  0  0
   43.6410    8.4390   45.6480 C   0  0  0  0  0  0  0  0  0  0  0  0
   48.9750    2.7090   42.1190 H   0  0  0  0  0  0  0  0  0  0  0  0
   48.4170    4.8530   45.7770 H   0  0  0  0  0  0  0  0  0  0  0  0
   50.6230    4.0930   46.4800 H   0  0  0  0  0  0  0  0  0  0  0  0
   52.0100    2.6540   45.0340 H   0  0  0  0  0  0  0  0  0  0  0  0
   47.6350    6.3410   43.1580 H   0  0  0  0  0  0  0  0  0  0  0  0
   44.7850    5.2730   43.3300 H   0  0  0  0  0  0  0  0  0  0  0  0
   45.3450    6.5690   42.2110 H   0  0  0  0  0  0  0  0  0  0  0  0
   42.0860    7.6970   43.5480 H   0  0  0  0  0  0  0  0  0  0  0  0
   43.4020    7.3810   42.4080 H   0  0  0  0  0  0  0  0  0  0  0  0
   42.4040    9.7260   42.1540 H   0  0  0  0  0  0  0  0  0  0  0  0
   44.1620    9.6930   42.5530 H   0  0  0  0  0  0  0  0  0  0  0  0
   44.8430   10.4510   44.6890 H   0  0  0  0  0  0  0  0  0  0  0  0
   44.6730   12.8060   45.4060 H   0  0  0  0  0  0  0  0  0  0  0  0
   44.1910   11.5480   46.5440 H   0  0  0  0  0  0  0  0  0  0  0  0
   42.6920   13.8120   45.7620 H   0  0  0  0  0  0  0  0  0  0  0  0
   42.0900   12.4350   46.6850 H   0  0  0  0  0  0  0  0  0  0  0  0
   40.2070   14.0280   44.5320 H   0  0  0  0  0  0  0  0  0  0  0  0
   39.1540   12.6200   42.5690 H   0  0  0  0  0  0  0  0  0  0  0  0
   41.5370    8.9780   45.3400 H   0  0  0  0  0  0  0  0  0  0  0  0
   42.5150   10.1140   46.2870 H   0  0  0  0  0  0  0  0  0  0  0  0
   43.3050    7.6500   46.3520 H   0  0  0  0  0  0  0  0  0  0  0  0
   44.4570    8.9860   46.1270 H   0  0  0  0  0  0  0  0  0  0  0  0
  1  2  1  0  0  0  0
  2  7  1  0  0  0  0
  3  2  2  0  0  0  0
  3  4  1  0  0  0  0
  4  5  2  0  0  0  0
  5  6  1  0  0  0  0
  5 29  1  0  0  0  0
  6 30  1  0  0  0  0
  7 31  1  0  0  0  0
  7  6  2  0  0  0  0
  8  4  1  0  0  0  0
  9  8  2  0  0  0  0
 10  8  1  0  0  0  0
 11 10  1  0  0  0  0
 11 33  1  0  0  0  0
 11 12  1  0  0  0  0
 12 14  1  0  0  0  0
 12 13  2  0  0  0  0
 14 27  1  0  0  0  0
 15 35  1  0  0  0  0
 15 14  1  0  0  0  0
 16 15  1  0  0  0  0
 16 17  1  0  0  0  0
 17 18  1  0  0  0  0
 17 26  1  0  0  0  0
 18 39  1  0  0  0  0
 18 19  1  0  0  0  0
 19 20  1  0  0  0  0
 19 41  1  0  0  0  0
 20 42  1  0  0  0  0
 20 43  1  0  0  0  0
 21 20  1  0  0  0  0
 22 44  1  0  0  0  0
 22 21  1  0  0  0  0
 23 22  1  0  0  0  0
 24 23  2  0  0  0  0
 24 25  1  0  0  0  0
 25 17  1  0  0  0  0
 25 21  2  0  0  0  0
 26 27  1  0  0  0  0
 26 47  1  0  0  0  0
 27 49  1  0  0  0  0
 27 48  1  0  0  0  0
 28  3  1  0  0  0  0
 32 10  1  0  0  0  0
 34 11  1  0  0  0  0
 36 15  1  0  0  0  0
 37 16  1  0  0  0  0
 38 16  1  0  0  0  0
 40 19  1  0  0  0  0
 45 23  1  0  0  0  0
 46 26  1  0  0  0  0
M  END
>  <Pose>
1

>  <Score>
-7.30

$$$$
