
 OpenBabel03172210433D

 38 41  0  0  0  0  0  0  0  0999 V2000
   49.6760    4.7240   46.0370 B   0  0  0  0  0  0  0  0  0  0  0  0
   48.5620    4.7130   44.5050 C   0  0  0  0  0  0  0  0  0  0  0  0
   48.7140    3.7240   43.5940 C   0  0  0  0  0  0  0  0  0  0  0  0
   49.5550    2.6710   43.5480 N   0  0  0  0  0  0  0  0  0  0  0  0
   49.2430    2.0460   42.4160 N   0  0  0  0  0  0  0  0  0  0  0  0
   48.2770    2.6400   41.7730 N   0  0  0  0  0  0  0  0  0  0  0  0
   47.8950    3.7300   42.4880 C   0  0  0  0  0  0  0  0  0  0  0  0
   46.9390    4.7250   42.3110 C   0  0  0  0  0  0  0  0  0  0  0  0
   46.7840    5.7090   43.2120 N   0  0  0  0  0  0  0  0  0  0  0  0
   47.5920    5.6920   44.2930 C   0  0  0  0  0  0  0  0  0  0  0  0
   45.7980    6.7680   43.0700 C   0  0  0  0  0  0  0  0  0  0  0  0
   44.4970    6.4600   43.6560 C   0  0  0  0  0  0  0  0  0  0  0  0
   44.2170    5.2300   43.7890 O   0  0  0  0  0  0  0  0  0  0  0  0
   43.4970    7.4260   44.1000 C   0  0  0  0  0  0  0  0  0  0  0  0
   42.9260    7.2700   45.3320 C   0  0  0  0  0  0  0  0  0  0  0  0
   41.9790    8.1570   45.7720 C   0  0  0  0  0  0  0  0  0  0  0  0
   41.5670    9.2310   45.0040 C   0  0  0  0  0  0  0  0  0  0  0  0
   42.1680    9.3610   43.7540 C   0  0  0  0  0  0  0  0  0  0  0  0
   43.1130    8.4780   43.3110 C   0  0  0  0  0  0  0  0  0  0  0  0
   40.6170   10.1380   45.4260 C   0  0  0  0  0  0  0  0  0  0  0  0
   40.0640    9.9480   46.6740 C   0  0  0  0  0  0  0  0  0  0  0  0
   40.4670    8.8800   47.4490 C   0  0  0  0  0  0  0  0  0  0  0  0
   41.4160    7.9800   47.0230 C   0  0  0  0  0  0  0  0  0  0  0  0
   50.5660    2.2370   44.4350 C   0  0  0  0  0  0  0  0  0  0  0  0
   46.3320    4.6840   41.4380 H   0  0  0  0  0  0  0  0  0  0  0  0
   47.4850    6.4730   45.0300 H   0  0  0  0  0  0  0  0  0  0  0  0
   46.1750    7.7190   43.5340 H   0  0  0  0  0  0  0  0  0  0  0  0
   45.6670    6.9790   41.9920 H   0  0  0  0  0  0  0  0  0  0  0  0
   43.1950    6.4460   46.0050 H   0  0  0  0  0  0  0  0  0  0  0  0
   41.8360   10.2160   43.1460 H   0  0  0  0  0  0  0  0  0  0  0  0
   43.5620    8.6100   42.3210 H   0  0  0  0  0  0  0  0  0  0  0  0
   40.3370   10.9570   44.7780 H   0  0  0  0  0  0  0  0  0  0  0  0
   39.3100   10.6550   47.0280 H   0  0  0  0  0  0  0  0  0  0  0  0
   40.0220    8.7470   48.4280 H   0  0  0  0  0  0  0  0  0  0  0  0
   41.7290    7.1360   47.6460 H   0  0  0  0  0  0  0  0  0  0  0  0
   51.2040    1.4860   43.9230 H   0  0  0  0  0  0  0  0  0  0  0  0
   50.1060    1.6730   45.3020 H   0  0  0  0  0  0  0  0  0  0  0  0
   51.2330    2.9670   44.8640 H   0  0  0  0  0  0  0  0  0  0  0  0
  2  1  1  0  0  0  0
  3  2  1  0  0  0  0
  4  3  1  0  0  0  0
  4 24  1  0  0  0  0
  5  4  1  0  0  0  0
  6  5  2  0  0  0  0
  6  7  1  0  0  0  0
  7  3  2  0  0  0  0
  8  7  1  0  0  0  0
  8  9  1  0  0  0  0
  9 10  1  0  0  0  0
 10  2  2  0  0  0  0
 10 26  1  0  0  0  0
 11  9  1  0  0  0  0
 11 27  1  0  0  0  0
 11 12  1  0  0  0  0
 12 13  2  0  0  0  0
 12 14  1  0  0  0  0
 14 15  1  0  0  0  0
 15 16  2  0  0  0  0
 15 29  1  0  0  0  0
 16 23  1  0  0  0  0
 17 20  1  0  0  0  0
 17 16  1  0  0  0  0
 18 17  2  0  0  0  0
 19 18  1  0  0  0  0
 19 14  2  0  0  0  0
 20 21  2  0  0  0  0
 21 33  1  0  0  0  0
 21 22  1  0  0  0  0
 22 34  1  0  0  0  0
 23 22  2  0  0  0  0
 23 35  1  0  0  0  0
 24 38  1  0  0  0  0
 24 37  1  0  0  0  0
 25  8  1  0  0  0  0
 28 11  1  0  0  0  0
 30 18  1  0  0  0  0
 31 19  1  0  0  0  0
 32 20  1  0  0  0  0
 36 24  1  0  0  0  0
M  END
>  <Pose>
1

>  <Score>
-5.88

$$$$
