
 OpenBabel03172210433D

 32 35  0  0  0  0  0  0  0  0999 V2000
   50.1220    3.5440   46.4530 B   0  0  0  0  0  0  0  0  0  0  0  0
   49.4730    3.4900   44.6620 C   0  0  0  0  0  0  0  0  0  0  0  0
   48.3470    4.1190   44.1360 C   0  0  0  0  0  0  0  0  0  0  0  0
   48.2620    3.8110   42.8260 N   0  0  0  0  0  0  0  0  0  0  0  0
   49.2900    3.0180   42.5220 N   0  0  0  0  0  0  0  0  0  0  0  0
   50.0480    2.8010   43.6150 C   0  0  0  0  0  0  0  0  0  0  0  0
   51.2800    1.9880   43.7450 C   0  0  0  0  0  0  0  0  0  0  0  0
   47.2400    4.2550   41.8920 C   0  0  0  0  0  0  0  0  0  0  0  0
   46.3880    5.3270   42.4760 C   0  0  0  0  0  0  0  0  0  0  0  0
   46.5510    6.6580   42.4090 N   0  0  0  0  0  0  0  0  0  0  0  0
   45.5640    7.2890   43.0670 N   0  0  0  0  0  0  0  0  0  0  0  0
   44.7540    6.3390   43.5660 C   0  0  0  0  0  0  0  0  0  0  0  0
   45.2630    5.1470   43.2010 N   0  0  0  0  0  0  0  0  0  0  0  0
   43.6530    6.7500   44.2920 C   0  0  0  0  0  0  0  0  0  0  0  0
   43.3730    8.0850   44.5130 C   0  0  0  0  0  0  0  0  0  0  0  0
   42.2460    8.2110   45.2460 N   0  0  0  0  0  0  0  0  0  0  0  0
   41.8290    6.9820   45.4820 N   0  0  0  0  0  0  0  0  0  0  0  0
   42.6430    6.0660   44.9270 C   0  0  0  0  0  0  0  0  0  0  0  0
   41.6390    9.4690   45.6770 C   0  0  0  0  0  0  0  0  0  0  0  0
   44.2260    8.9800   43.9850 N   0  0  0  0  0  0  0  0  0  0  0  0
   45.3000    8.5930   43.2770 C   0  0  0  0  0  0  0  0  0  0  0  0
   47.6830    4.7430   44.7240 H   0  0  0  0  0  0  0  0  0  0  0  0
   51.0720    0.9180   43.9580 H   0  0  0  0  0  0  0  0  0  0  0  0
   51.9510    2.3620   44.5360 H   0  0  0  0  0  0  0  0  0  0  0  0
   51.7840    2.0290   42.7410 H   0  0  0  0  0  0  0  0  0  0  0  0
   46.6120    3.3910   41.5410 H   0  0  0  0  0  0  0  0  0  0  0  0
   47.7500    4.6150   40.9520 H   0  0  0  0  0  0  0  0  0  0  0  0
   42.5790    4.9920   44.9380 H   0  0  0  0  0  0  0  0  0  0  0  0
   40.5520    9.3410   45.8670 H   0  0  0  0  0  0  0  0  0  0  0  0
   41.6920   10.2270   44.8420 H   0  0  0  0  0  0  0  0  0  0  0  0
   42.0950    9.8700   46.5880 H   0  0  0  0  0  0  0  0  0  0  0  0
   46.0010    9.3000   42.8430 H   0  0  0  0  0  0  0  0  0  0  0  0
  2  1  1  0  0  0  0
  3  2  2  0  0  0  0
  3 22  1  0  0  0  0
  4  3  1  0  0  0  0
  5  4  1  0  0  0  0
  5  6  2  0  0  0  0
  6  7  1  0  0  0  0
  6  2  1  0  0  0  0
  7 23  1  0  0  0  0
  7 24  1  0  0  0  0
  8  9  1  0  0  0  0
  8  4  1  0  0  0  0
  9 13  1  0  0  0  0
 10  9  2  0  0  0  0
 10 11  1  0  0  0  0
 11 21  1  0  0  0  0
 11 12  1  0  0  0  0
 12 14  1  0  0  0  0
 13 12  2  0  0  0  0
 14 15  2  0  0  0  0
 14 18  1  0  0  0  0
 15 16  1  0  0  0  0
 16 17  1  0  0  0  0
 16 19  1  0  0  0  0
 18 28  1  0  0  0  0
 18 17  2  0  0  0  0
 19 29  1  0  0  0  0
 19 31  1  0  0  0  0
 20 15  1  0  0  0  0
 21 20  2  0  0  0  0
 25  7  1  0  0  0  0
 26  8  1  0  0  0  0
 27  8  1  0  0  0  0
 30 19  1  0  0  0  0
 32 21  1  0  0  0  0
M  END
>  <Pose>
1

>  <Score>
-6.64

$$$$
