
 OpenBabel03172210433D

 56 59  0  0  1  0  0  0  0  0999 V2000
   43.6550   13.5060   49.7790 B   0  0  0  0  0  0  0  0  0  0  0  0
   44.1040   13.5900   47.9380 C   0  0  0  0  0  0  0  0  0  0  0  0
   43.6360   12.6030   47.0650 C   0  0  0  0  0  0  0  0  0  0  0  0
   43.9320   12.6390   45.7240 C   0  0  0  0  0  0  0  0  0  0  0  0
   44.7060   13.6800   45.2710 C   0  0  0  0  0  0  0  0  0  0  0  0
   45.1860   14.6770   46.1190 C   0  0  0  0  0  0  0  0  0  0  0  0
   44.8740   14.6290   47.4810 C   0  0  0  0  0  0  0  0  0  0  0  0
   45.3760   15.6910   48.3960 C   0  0  0  0  0  0  0  0  0  0  0  0
   46.0380   15.7720   45.5840 C   0  0  0  0  0  0  0  0  0  0  0  0
   43.4450   11.6530   44.7170 C   0  0  2  0  0  0  0  0  0  0  0  0
   42.7670   10.4520   45.3000 C   0  0  2  0  0  0  0  0  0  0  0  0
   43.1900   10.3080   46.7500 C   0  0  0  0  0  0  0  0  0  0  0  0
   42.8600   11.5250   47.4680 O   0  0  0  0  0  0  0  0  0  0  0  0
   43.2770    9.3060   44.5760 N   0  0  0  0  0  0  0  0  0  0  0  0
   42.6010    9.0580   43.3470 C   0  0  0  0  0  0  0  0  0  0  0  0
   42.8060    7.6910   42.7590 C   0  0  0  0  0  0  0  0  0  0  0  0
   42.8810    6.6690   43.6670 O   0  0  0  0  0  0  0  0  0  0  0  0
   43.9280    6.9580   44.5530 C   0  0  0  0  0  0  0  0  0  0  0  0
   43.3750    8.1360   45.3980 C   0  0  0  0  0  0  0  0  0  0  0  0
   41.2870   10.4970   45.3450 C   0  0  0  0  0  0  0  0  0  0  0  0
   40.4800   10.6980   44.2320 N   0  0  0  0  0  0  0  0  0  0  0  0
   39.0360   10.6430   44.6450 C   0  0  0  0  0  0  0  0  0  0  0  0
   38.7500   11.6160   45.7280 C   0  0  0  0  0  0  0  0  0  0  0  0
   39.5060   12.7560   45.6980 O   0  0  0  0  0  0  0  0  0  0  0  0
   40.0100   13.1090   44.4800 C   0  0  0  0  0  0  0  0  0  0  0  0
   40.4750   12.0000   43.5910 C   0  0  0  0  0  0  0  0  0  0  0  0
   44.5810   11.2500   43.9480 O   0  0  0  0  0  0  0  0  0  0  0  0
   45.0020   13.8000   44.2170 H   0  0  0  0  0  0  0  0  0  0  0  0
   46.4650   15.7440   48.4800 H   0  0  0  0  0  0  0  0  0  0  0  0
   44.9830   15.4880   49.4200 H   0  0  0  0  0  0  0  0  0  0  0  0
   44.9390   16.6510   47.9950 H   0  0  0  0  0  0  0  0  0  0  0  0
   47.0440   15.3210   45.3510 H   0  0  0  0  0  0  0  0  0  0  0  0
   45.6550   16.2280   44.6630 H   0  0  0  0  0  0  0  0  0  0  0  0
   46.1970   16.5160   46.3980 H   0  0  0  0  0  0  0  0  0  0  0  0
   42.8530   12.2420   44.0170 H   0  0  0  0  0  0  0  0  0  0  0  0
   44.2390   10.1110   46.9180 H   0  0  0  0  0  0  0  0  0  0  0  0
   42.5080    9.5440   47.2010 H   0  0  0  0  0  0  0  0  0  0  0  0
   42.9750    9.7690   42.5860 H   0  0  0  0  0  0  0  0  0  0  0  0
   41.5160    9.1330   43.5550 H   0  0  0  0  0  0  0  0  0  0  0  0
   43.6450    7.6510   42.0350 H   0  0  0  0  0  0  0  0  0  0  0  0
   41.9030    7.4690   42.1260 H   0  0  0  0  0  0  0  0  0  0  0  0
   44.0410    6.1140   45.2370 H   0  0  0  0  0  0  0  0  0  0  0  0
   44.8400    7.2760   44.0190 H   0  0  0  0  0  0  0  0  0  0  0  0
   42.3580    7.7650   45.6800 H   0  0  0  0  0  0  0  0  0  0  0  0
   44.0750    8.2280   46.2260 H   0  0  0  0  0  0  0  0  0  0  0  0
   41.0910   11.4020   46.0460 H   0  0  0  0  0  0  0  0  0  0  0  0
   40.8960    9.6630   45.9850 H   0  0  0  0  0  0  0  0  0  0  0  0
   38.7710    9.5980   44.8920 H   0  0  0  0  0  0  0  0  0  0  0  0
   38.4510   10.9030   43.7440 H   0  0  0  0  0  0  0  0  0  0  0  0
   37.6530   11.8840   45.7660 H   0  0  0  0  0  0  0  0  0  0  0  0
   38.9570   11.1010   46.7000 H   0  0  0  0  0  0  0  0  0  0  0  0
   40.8700   13.7820   44.6560 H   0  0  0  0  0  0  0  0  0  0  0  0
   39.2180   13.7430   43.9880 H   0  0  0  0  0  0  0  0  0  0  0  0
   39.6120   11.8870   42.8290 H   0  0  0  0  0  0  0  0  0  0  0  0
   41.3050   12.2380   42.9480 H   0  0  0  0  0  0  0  0  0  0  0  0
   45.2000   10.7970   44.5720 H   0  0  0  0  0  0  0  0  0  0  0  0
  2  1  1  0  0  0  0
  3 13  1  0  0  0  0
  3  2  2  0  0  0  0
  4  3  1  0  0  0  0
  5  4  2  0  0  0  0
  5  6  1  0  0  0  0
  6  7  2  0  0  0  0
  7  2  1  0  0  0  0
  7  8  1  0  0  0  0
  8 29  1  0  0  0  0
  8 30  1  0  0  0  0
  9  6  1  0  0  0  0
  9 34  1  0  0  0  0
 10 35  1  6  0  0  0
 10 11  1  0  0  0  0
 10  4  1  0  0  0  0
 11 20  1  6  0  0  0
 11 12  1  0  0  0  0
 12 36  1  0  0  0  0
 12 37  1  0  0  0  0
 12 13  1  0  0  0  0
 14 11  1  0  0  0  0
 14 19  1  0  0  0  0
 15 39  1  0  0  0  0
 15 14  1  0  0  0  0
 16 15  1  0  0  0  0
 16 17  1  0  0  0  0
 17 18  1  0  0  0  0
 18 42  1  0  0  0  0
 18 19  1  0  0  0  0
 19 44  1  0  0  0  0
 19 45  1  0  0  0  0
 20 47  1  0  0  0  0
 20 46  1  0  0  0  0
 21 22  1  0  0  0  0
 21 20  1  0  0  0  0
 22 48  1  0  0  0  0
 22 23  1  0  0  0  0
 23 50  1  0  0  0  0
 23 51  1  0  0  0  0
 24 23  1  0  0  0  0
 25 52  1  0  0  0  0
 25 24  1  0  0  0  0
 26 21  1  0  0  0  0
 26 25  1  0  0  0  0
 27 56  1  0  0  0  0
 27 10  1  0  0  0  0
 28  5  1  0  0  0  0
 31  8  1  0  0  0  0
 32  9  1  0  0  0  0
 33  9  1  0  0  0  0
 38 15  1  0  0  0  0
 40 16  1  0  0  0  0
 41 16  1  0  0  0  0
 43 18  1  0  0  0  0
 49 22  1  0  0  0  0
 53 25  1  0  0  0  0
 54 26  1  0  0  0  0
 55 26  1  0  0  0  0
M  END
>  <Pose>
1

>  <Score>
-4.23

$$$$
