
 OpenBabel03172210433D

 46 49  0  0  0  0  0  0  0  0999 V2000
   43.6540   11.6210   44.4510 B   0  0  0  0  0  0  0  0  0  0  0  0
   42.4960   10.6750   45.6380 C   0  0  0  0  0  0  0  0  0  0  0  0
   42.5780    9.3380   45.8450 N   0  0  0  0  0  0  0  0  0  0  0  0
   41.6010    9.0660   46.7390 C   0  0  0  0  0  0  0  0  0  0  0  0
   40.9180   10.2120   47.0870 C   0  0  0  0  0  0  0  0  0  0  0  0
   41.5050   11.2050   46.3780 N   0  0  0  0  0  0  0  0  0  0  0  0
   39.8910   10.2100   47.9670 N   0  0  0  0  0  0  0  0  0  0  0  0
   39.5370    9.0340   48.5140 C   0  0  0  0  0  0  0  0  0  0  0  0
   38.5900    8.9530   49.3410 O   0  0  0  0  0  0  0  0  0  0  0  0
   40.1880    7.8810   48.1950 N   0  0  0  0  0  0  0  0  0  0  0  0
   41.2060    7.8740   47.3230 C   0  0  0  0  0  0  0  0  0  0  0  0
   41.8360    6.8430   46.9980 O   0  0  0  0  0  0  0  0  0  0  0  0
   39.1840   11.4260   48.3220 C   0  0  0  0  0  0  0  0  0  0  0  0
   43.4910    8.3850   45.2610 C   0  0  0  0  0  0  0  0  0  0  0  0
   43.3550    8.3430   43.7450 C   0  0  0  0  0  0  0  0  0  0  0  0
   44.0740    7.1510   43.1700 C   0  0  0  0  0  0  0  0  0  0  0  0
   45.4510    7.4370   42.6510 C   0  0  0  0  0  0  0  0  0  0  0  0
   46.3940    6.5260   43.2100 N   0  0  0  0  0  0  0  0  0  0  0  0
   46.9490    5.4260   42.7050 C   0  0  0  0  0  0  0  0  0  0  0  0
   47.8430    4.9080   43.6350 C   0  0  0  0  0  0  0  0  0  0  0  0
   47.7910    5.7270   44.6810 N   0  0  0  0  0  0  0  0  0  0  0  0
   46.9220    6.7110   44.4470 C   0  0  0  0  0  0  0  0  0  0  0  0
   46.5320    8.1120   45.6810 B   0  0  0  0  0  0  0  0  0  0  0  0
   48.5330    3.7940   43.3740 N   0  0  0  0  0  0  0  0  0  0  0  0
   48.3800    3.1430   42.2040 C   0  0  0  0  0  0  0  0  0  0  0  0
   49.0330    2.0960   41.9660 O   0  0  0  0  0  0  0  0  0  0  0  0
   47.5230    3.6300   41.3020 N   0  0  0  0  0  0  0  0  0  0  0  0
   46.8120    4.7450   41.5240 C   0  0  0  0  0  0  0  0  0  0  0  0
   46.0150    5.1830   40.6710 O   0  0  0  0  0  0  0  0  0  0  0  0
   49.4770    3.2280   44.3310 C   0  0  0  0  0  0  0  0  0  0  0  0
   39.8830    6.9840   48.6410 H   0  0  0  0  0  0  0  0  0  0  0  0
   39.7900   12.3300   48.1060 H   0  0  0  0  0  0  0  0  0  0  0  0
   38.2580   11.5240   47.6850 H   0  0  0  0  0  0  0  0  0  0  0  0
   38.9290   11.4740   49.4010 H   0  0  0  0  0  0  0  0  0  0  0  0
   43.4010    7.3990   45.7120 H   0  0  0  0  0  0  0  0  0  0  0  0
   44.5220    8.7740   45.4600 H   0  0  0  0  0  0  0  0  0  0  0  0
   42.2700    8.1870   43.4690 H   0  0  0  0  0  0  0  0  0  0  0  0
   43.6910    9.2720   43.2690 H   0  0  0  0  0  0  0  0  0  0  0  0
   44.0610    6.3200   43.9090 H   0  0  0  0  0  0  0  0  0  0  0  0
   43.5080    6.7260   42.2880 H   0  0  0  0  0  0  0  0  0  0  0  0
   45.3940    7.3480   41.5370 H   0  0  0  0  0  0  0  0  0  0  0  0
   45.6840    8.5010   42.8460 H   0  0  0  0  0  0  0  0  0  0  0  0
   47.3730    3.1480   40.3690 H   0  0  0  0  0  0  0  0  0  0  0  0
   49.6060    3.9720   45.1490 H   0  0  0  0  0  0  0  0  0  0  0  0
   50.4380    3.1100   43.7800 H   0  0  0  0  0  0  0  0  0  0  0  0
   49.1310    2.2570   44.7220 H   0  0  0  0  0  0  0  0  0  0  0  0
  1  2  1  0  0  0  0
  2  3  1  0  0  0  0
  2  6  2  0  0  0  0
  3  4  1  0  0  0  0
  4  5  2  0  0  0  0
  4 11  1  0  0  0  0
  5  7  1  0  0  0  0
  6  5  1  0  0  0  0
  7 13  1  0  0  0  0
  7  8  1  0  0  0  0
  8  9  2  0  0  0  0
 10  8  1  0  0  0  0
 10 31  1  0  0  0  0
 11 10  1  0  0  0  0
 12 11  2  0  0  0  0
 13 34  1  0  0  0  0
 14 36  1  0  0  0  0
 14 35  1  0  0  0  0
 14  3  1  0  0  0  0
 15 14  1  0  0  0  0
 16 15  1  0  0  0  0
 16 39  1  0  0  0  0
 17 42  1  0  0  0  0
 17 16  1  0  0  0  0
 17 18  1  0  0  0  0
 18 22  1  0  0  0  0
 19 18  1  0  0  0  0
 19 20  2  0  0  0  0
 20 21  1  0  0  0  0
 22 21  2  0  0  0  0
 22 23  1  0  0  0  0
 24 20  1  0  0  0  0
 24 30  1  0  0  0  0
 25 24  1  0  0  0  0
 26 25  2  0  0  0  0
 27 28  1  0  0  0  0
 27 25  1  0  0  0  0
 28 19  1  0  0  0  0
 29 28  2  0  0  0  0
 30 46  1  0  0  0  0
 30 44  1  0  0  0  0
 32 13  1  0  0  0  0
 33 13  1  0  0  0  0
 37 15  1  0  0  0  0
 38 15  1  0  0  0  0
 40 16  1  0  0  0  0
 41 17  1  0  0  0  0
 43 27  1  0  0  0  0
 45 30  1  0  0  0  0
M  END
>  <Pose>
1

>  <Score>
-7.65

$$$$
