
 OpenBabel03172210433D

 51 54  0  0  0  0  0  0  0  0999 V2000
   44.0860   11.8880   45.6460 Cl  0  0  0  0  0  0  0  0  0  0  0  0
   42.5880   11.8580   44.7440 C   0  0  0  0  0  0  0  0  0  0  0  0
   42.3970   10.9140   43.7790 C   0  0  0  0  0  0  0  0  0  0  0  0
   41.1990   10.9370   43.1000 C   0  0  0  0  0  0  0  0  0  0  0  0
   40.2240   11.8630   43.3670 C   0  0  0  0  0  0  0  0  0  0  0  0
   40.4280   12.8140   44.3440 C   0  0  0  0  0  0  0  0  0  0  0  0
   41.6230   12.7970   45.0270 C   0  0  0  0  0  0  0  0  0  0  0  0
   43.3910    9.8820   43.4300 C   0  0  0  0  0  0  0  0  0  0  0  0
   43.0270    8.5620   43.8110 N   0  0  0  0  0  0  0  0  0  0  0  0
   41.7940    8.0860   43.9360 N   0  0  0  0  0  0  0  0  0  0  0  0
   41.8030    6.8180   44.3110 C   0  0  0  0  0  0  0  0  0  0  0  0
   43.1540    6.4590   44.4330 C   0  0  0  0  0  0  0  0  0  0  0  0
   43.9100    7.5650   44.1170 C   0  0  0  0  0  0  0  0  0  0  0  0
   45.2970    7.6340   44.0570 N   0  0  0  0  0  0  0  0  0  0  0  0
   46.3240    6.9450   43.4960 C   0  0  0  0  0  0  0  0  0  0  0  0
   46.1640    6.9950   42.1310 O   0  0  0  0  0  0  0  0  0  0  0  0
   47.5200    6.1860   43.8260 C   0  0  0  0  0  0  0  0  0  0  0  0
   47.7400    4.8280   43.5700 N   0  0  0  0  0  0  0  0  0  0  0  0
   46.7970    3.9930   42.7780 C   0  0  0  0  0  0  0  0  0  0  0  0
   47.2270    2.5680   43.0560 C   0  0  0  0  0  0  0  0  0  0  0  0
   48.6140    2.3670   42.5060 C   0  0  0  0  0  0  0  0  0  0  0  0
   49.6000    3.1750   43.3240 C   0  0  0  0  0  0  0  0  0  0  0  0
   48.8690    4.1700   44.1620 C   0  0  0  0  0  0  0  0  0  0  0  0
   49.2080    4.3510   45.4400 C   0  0  0  0  0  0  0  0  0  0  0  0
   50.3510    3.6920   46.0110 N   0  0  0  0  0  0  0  0  0  0  0  0
   50.4360    4.0080   47.3790 N   0  0  0  0  0  0  0  0  0  0  0  0
   49.3610    4.8640   47.6960 C   0  0  0  0  0  0  0  0  0  0  0  0
   49.0550    5.3860   48.7920 O   0  0  0  0  0  0  0  0  0  0  0  0
   48.6160    5.0600   46.4810 N   0  0  0  0  0  0  0  0  0  0  0  0
   41.0070   10.2080   42.3290 H   0  0  0  0  0  0  0  0  0  0  0  0
   39.2950   11.8590   42.8190 H   0  0  0  0  0  0  0  0  0  0  0  0
   39.6550   13.5430   44.5510 H   0  0  0  0  0  0  0  0  0  0  0  0
   41.7810   13.5390   45.7900 H   0  0  0  0  0  0  0  0  0  0  0  0
   44.4050   10.2040   43.7790 H   0  0  0  0  0  0  0  0  0  0  0  0
   43.4810    9.9190   42.3030 H   0  0  0  0  0  0  0  0  0  0  0  0
   40.9820    6.1310   44.5030 H   0  0  0  0  0  0  0  0  0  0  0  0
   43.4840    5.4800   44.7140 H   0  0  0  0  0  0  0  0  0  0  0  0
   45.6480    8.5760   44.5590 H   0  0  0  0  0  0  0  0  0  0  0  0
   48.3250    6.8030   43.2390 H   0  0  0  0  0  0  0  0  0  0  0  0
   47.7990    6.3870   44.9410 H   0  0  0  0  0  0  0  0  0  0  0  0
   45.7840    4.0700   43.2410 H   0  0  0  0  0  0  0  0  0  0  0  0
   46.8230    4.1640   41.7240 H   0  0  0  0  0  0  0  0  0  0  0  0
   46.5200    1.8600   42.5330 H   0  0  0  0  0  0  0  0  0  0  0  0
   47.2020    2.3300   44.1390 H   0  0  0  0  0  0  0  0  0  0  0  0
   48.8910    1.2840   42.5460 H   0  0  0  0  0  0  0  0  0  0  0  0
   48.6170    2.6750   41.4490 H   0  0  0  0  0  0  0  0  0  0  0  0
   50.2510    2.5040   43.9310 H   0  0  0  0  0  0  0  0  0  0  0  0
   50.2730    3.7100   42.6490 H   0  0  0  0  0  0  0  0  0  0  0  0
   51.0670    3.0700   45.5900 H   0  0  0  0  0  0  0  0  0  0  0  0
   51.1560    3.6860   48.0720 H   0  0  0  0  0  0  0  0  0  0  0  0
   47.7550    5.6270   46.4170 H   0  0  0  0  0  0  0  0  0  0  0  0
  2  7  1  0  0  0  0
  2  1  1  0  0  0  0
  3  2  2  0  0  0  0
  4  5  2  0  0  0  0
  4  3  1  0  0  0  0
  5  6  1  0  0  0  0
  6 32  1  0  0  0  0
  6  7  2  0  0  0  0
  7 33  1  0  0  0  0
  8 34  1  0  0  0  0
  8  3  1  0  0  0  0
  8  9  1  0  0  0  0
  9 10  1  0  0  0  0
  9 13  1  0  0  0  0
 10 11  2  0  0  0  0
 11 12  1  0  0  0  0
 11 36  1  0  0  0  0
 12 37  1  0  0  0  0
 13 12  2  0  0  0  0
 14 13  1  0  0  0  0
 14 38  1  0  0  0  0
 15 17  1  0  0  0  0
 15 14  1  0  0  0  0
 16 15  2  0  0  0  0
 17 40  1  0  0  0  0
 18 17  1  0  0  0  0
 18 23  1  0  0  0  0
 19 20  1  0  0  0  0
 19 41  1  0  0  0  0
 19 18  1  0  0  0  0
 20 44  1  0  0  0  0
 21 45  1  0  0  0  0
 21 20  1  0  0  0  0
 21 22  1  0  0  0  0
 22 47  1  0  0  0  0
 22 23  1  0  0  0  0
 23 24  2  0  0  0  0
 24 25  1  0  0  0  0
 24 29  1  0  0  0  0
 25 26  1  0  0  0  0
 26 27  1  0  0  0  0
 26 50  1  0  0  0  0
 27 28  2  0  0  0  0
 29 27  1  0  0  0  0
 30  4  1  0  0  0  0
 31  5  1  0  0  0  0
 35  8  1  0  0  0  0
 39 17  1  0  0  0  0
 42 19  1  0  0  0  0
 43 20  1  0  0  0  0
 46 21  1  0  0  0  0
 48 22  1  0  0  0  0
 49 25  1  0  0  0  0
 51 29  1  0  0  0  0
M  END
>  <Pose>
1

>  <Score>
-7.01

$$$$
