
 OpenBabel03172210433D

 50 53  0  0  0  0  0  0  0  0999 V2000
   40.6820   11.1610   43.2060 B   0  0  0  0  0  0  0  0  0  0  0  0
   41.5490    9.8020   44.2010 C   0  0  0  0  0  0  0  0  0  0  0  0
   41.1180    9.4960   45.4590 C   0  0  0  0  0  0  0  0  0  0  0  0
   41.7760    8.4940   46.1660 C   0  0  0  0  0  0  0  0  0  0  0  0
   42.8510    7.8310   45.5810 C   0  0  0  0  0  0  0  0  0  0  0  0
   43.2900    8.1320   44.3190 C   0  0  0  0  0  0  0  0  0  0  0  0
   42.6290    9.1260   43.6320 C   0  0  0  0  0  0  0  0  0  0  0  0
   43.0820    9.4220   42.3550 O   0  0  0  0  0  0  0  0  0  0  0  0
   44.4150    7.4280   43.7250 C   0  0  0  0  0  0  0  0  0  0  0  0
   45.6440    7.7130   43.9720 N   0  0  0  0  0  0  0  0  0  0  0  0
   46.6820    6.9540   43.3320 N   0  0  0  0  0  0  0  0  0  0  0  0
   46.9020    5.6650   43.7980 C   0  0  0  0  0  0  0  0  0  0  0  0
   46.3010    5.3360   44.8890 O   0  0  0  0  0  0  0  0  0  0  0  0
   47.7260    4.6150   43.2280 C   0  0  0  0  0  0  0  0  0  0  0  0
   47.3990    3.8630   42.1270 N   0  0  0  0  0  0  0  0  0  0  0  0
   48.3590    3.0160   41.8810 N   0  0  0  0  0  0  0  0  0  0  0  0
   49.3440    3.1350   42.7550 N   0  0  0  0  0  0  0  0  0  0  0  0
   48.9800    4.1170   43.5960 C   0  0  0  0  0  0  0  0  0  0  0  0
   49.7260    4.6000   44.7620 C   0  0  0  0  0  0  0  0  0  0  0  0
   50.6300    3.6100   45.3530 N   0  0  0  0  0  0  0  0  0  0  0  0
   50.7760    3.9100   46.7910 C   0  0  0  0  0  0  0  0  0  0  0  0
   51.0350    5.3640   46.9790 C   0  0  0  0  0  0  0  0  0  0  0  0
   52.1130    5.7430   46.2170 O   0  0  0  0  0  0  0  0  0  0  0  0
   52.7990    4.7020   45.6490 C   0  0  0  0  0  0  0  0  0  0  0  0
   51.9750    3.8060   44.7620 C   0  0  0  0  0  0  0  0  0  0  0  0
   50.5060    2.3250   42.7550 C   0  0  0  0  0  0  0  0  0  0  0  0
   51.6350    2.4440   42.0240 N   0  0  0  0  0  0  0  0  0  0  0  0
   52.4700    1.4900   42.3410 O   0  0  0  0  0  0  0  0  0  0  0  0
   51.9530    0.7190   43.2640 N   0  0  0  0  0  0  0  0  0  0  0  0
   50.7340    1.2090   43.5460 C   0  0  0  0  0  0  0  0  0  0  0  0
   49.8560    0.6510   44.4990 N   0  0  0  0  0  0  0  0  0  0  0  0
   41.2020    8.0440   47.9150 B   0  0  0  0  0  0  0  0  0  0  0  0
   40.0490   10.1440   46.0600 O   0  0  0  0  0  0  0  0  0  0  0  0
   43.3570    7.0600   46.1250 H   0  0  0  0  0  0  0  0  0  0  0  0
   42.5170    9.1900   41.5480 H   0  0  0  0  0  0  0  0  0  0  0  0
   44.2290    6.6120   43.0300 H   0  0  0  0  0  0  0  0  0  0  0  0
   47.1910    7.4460   42.5610 H   0  0  0  0  0  0  0  0  0  0  0  0
   49.0620    4.9280   45.5650 H   0  0  0  0  0  0  0  0  0  0  0  0
   50.3800    5.4300   44.4610 H   0  0  0  0  0  0  0  0  0  0  0  0
   49.9040    3.5480   47.3580 H   0  0  0  0  0  0  0  0  0  0  0  0
   51.6590    3.3360   47.1300 H   0  0  0  0  0  0  0  0  0  0  0  0
   50.1710    6.0030   46.7340 H   0  0  0  0  0  0  0  0  0  0  0  0
   51.3390    5.5260   48.0550 H   0  0  0  0  0  0  0  0  0  0  0  0
   53.5730    5.1750   44.9710 H   0  0  0  0  0  0  0  0  0  0  0  0
   53.3740    4.1390   46.4140 H   0  0  0  0  0  0  0  0  0  0  0  0
   52.4690    2.8260   44.7580 H   0  0  0  0  0  0  0  0  0  0  0  0
   51.9320    4.2290   43.7640 H   0  0  0  0  0  0  0  0  0  0  0  0
   49.3730    1.2820   45.1640 H   0  0  0  0  0  0  0  0  0  0  0  0
   49.6730   -0.3670   44.5620 H   0  0  0  0  0  0  0  0  0  0  0  0
   39.1040    9.8220   45.9270 H   0  0  0  0  0  0  0  0  0  0  0  0
  1  2  1  0  0  0  0
  2  3  1  0  0  0  0
  3 33  1  0  0  0  0
  3  4  2  0  0  0  0
  4 32  1  0  0  0  0
  5 34  1  0  0  0  0
  5  4  1  0  0  0  0
  6  5  2  0  0  0  0
  7  2  2  0  0  0  0
  7  6  1  0  0  0  0
  8  7  1  0  0  0  0
  9 10  2  0  0  0  0
  9  6  1  0  0  0  0
 11 12  1  0  0  0  0
 11 10  1  0  0  0  0
 12 13  2  0  0  0  0
 14 18  2  0  0  0  0
 14 12  1  0  0  0  0
 15 14  1  0  0  0  0
 16 15  2  0  0  0  0
 16 17  1  0  0  0  0
 17 26  1  0  0  0  0
 17 18  1  0  0  0  0
 18 19  1  0  0  0  0
 19 20  1  0  0  0  0
 19 38  1  0  0  0  0
 20 21  1  0  0  0  0
 21 22  1  0  0  0  0
 21 41  1  0  0  0  0
 21 40  1  0  0  0  0
 22 43  1  0  0  0  0
 23 22  1  0  0  0  0
 24 23  1  0  0  0  0
 24 45  1  0  0  0  0
 25 20  1  0  0  0  0
 25 24  1  0  0  0  0
 26 30  1  0  0  0  0
 27 28  1  0  0  0  0
 27 26  2  0  0  0  0
 28 29  1  0  0  0  0
 29 30  2  0  0  0  0
 30 31  1  0  0  0  0
 31 49  1  0  0  0  0
 31 48  1  0  0  0  0
 35  8  1  0  0  0  0
 36  9  1  0  0  0  0
 37 11  1  0  0  0  0
 39 19  1  0  0  0  0
 42 22  1  0  0  0  0
 44 24  1  0  0  0  0
 46 25  1  0  0  0  0
 47 25  1  0  0  0  0
 50 33  1  0  0  0  0
M  END
>  <Pose>
1

>  <Score>
-7.64

$$$$
