
 OpenBabel03172210433D

 54 57  0  0  0  0  0  0  0  0999 V2000
   43.6300    9.2250   46.6670 Cl  0  0  0  0  0  0  0  0  0  0  0  0
   42.2240   10.0520   45.9900 C   0  0  0  0  0  0  0  0  0  0  0  0
   41.6430    9.5680   44.8390 C   0  0  0  0  0  0  0  0  0  0  0  0
   40.5550   10.2280   44.3370 C   0  0  0  0  0  0  0  0  0  0  0  0
   40.0180   11.3560   44.9390 C   0  0  0  0  0  0  0  0  0  0  0  0
   40.6370   11.8160   46.1060 C   0  0  0  0  0  0  0  0  0  0  0  0
   41.7290   11.1700   46.6290 C   0  0  0  0  0  0  0  0  0  0  0  0
   42.1370    8.4270   44.1780 N   0  0  0  0  0  0  0  0  0  0  0  0
   42.2480    7.1590   44.8490 C   0  0  0  0  0  0  0  0  0  0  0  0
   43.5830    6.4880   44.6390 C   0  0  0  0  0  0  0  0  0  0  0  0
   44.2400    7.1340   43.5350 N   0  0  0  0  0  0  0  0  0  0  0  0
   43.4480    7.4350   42.3700 C   0  0  0  0  0  0  0  0  0  0  0  0
   42.5310    8.5990   42.7720 C   0  0  0  0  0  0  0  0  0  0  0  0
   45.6090    7.4810   43.5360 C   0  0  0  0  0  0  0  0  0  0  0  0
   45.9850    8.6700   43.3150 O   0  0  0  0  0  0  0  0  0  0  0  0
   46.6570    6.5050   43.7880 C   0  0  0  0  0  0  0  0  0  0  0  0
   47.4120    6.5700   44.9260 C   0  0  0  0  0  0  0  0  0  0  0  0
   48.4140    5.6910   45.2360 N   0  0  0  0  0  0  0  0  0  0  0  0
   48.6600    4.7160   44.3670 C   0  0  0  0  0  0  0  0  0  0  0  0
   47.9570    4.5690   43.2000 C   0  0  0  0  0  0  0  0  0  0  0  0
   46.8980    5.5100   42.8870 C   0  0  0  0  0  0  0  0  0  0  0  0
   46.3950    5.1220   41.7000 N   0  0  0  0  0  0  0  0  0  0  0  0
   47.0370    4.0510   41.2650 N   0  0  0  0  0  0  0  0  0  0  0  0
   47.9850    3.6840   42.1370 C   0  0  0  0  0  0  0  0  0  0  0  0
   48.8030    2.7150   42.0760 O   0  0  0  0  0  0  0  0  0  0  0  0
   49.1310    5.8320   46.4940 C   0  0  0  0  0  0  0  0  0  0  0  0
   48.9500    7.1000   47.2010 C   0  0  0  0  0  0  0  0  0  0  0  0
   47.8560    7.3770   48.1350 C   0  0  0  0  0  0  0  0  0  0  0  0
   47.4000    6.4520   48.9950 O   0  0  0  0  0  0  0  0  0  0  0  0
   48.1740    5.8060   49.8690 C   0  0  0  0  0  0  0  0  0  0  0  0
   40.0920    9.8630   43.4390 H   0  0  0  0  0  0  0  0  0  0  0  0
   39.1680   11.8510   44.5220 H   0  0  0  0  0  0  0  0  0  0  0  0
   40.2000   12.6970   46.5550 H   0  0  0  0  0  0  0  0  0  0  0  0
   42.1820   11.5400   47.5190 H   0  0  0  0  0  0  0  0  0  0  0  0
   41.4340    6.4560   44.5770 H   0  0  0  0  0  0  0  0  0  0  0  0
   42.1490    7.3380   45.9410 H   0  0  0  0  0  0  0  0  0  0  0  0
   44.1990    6.4760   45.5580 H   0  0  0  0  0  0  0  0  0  0  0  0
   43.4210    5.4140   44.3460 H   0  0  0  0  0  0  0  0  0  0  0  0
   42.7350    6.5950   42.1260 H   0  0  0  0  0  0  0  0  0  0  0  0
   44.0530    7.6930   41.4920 H   0  0  0  0  0  0  0  0  0  0  0  0
   41.6540    8.6740   42.1160 H   0  0  0  0  0  0  0  0  0  0  0  0
   43.1480    9.5200   42.7310 H   0  0  0  0  0  0  0  0  0  0  0  0
   47.2550    7.3550   45.6850 H   0  0  0  0  0  0  0  0  0  0  0  0
   49.4210    3.9630   44.5490 H   0  0  0  0  0  0  0  0  0  0  0  0
   46.8720    3.5160   40.3670 H   0  0  0  0  0  0  0  0  0  0  0  0
   50.1790    5.4590   46.4340 H   0  0  0  0  0  0  0  0  0  0  0  0
   48.6430    5.0300   47.1580 H   0  0  0  0  0  0  0  0  0  0  0  0
   49.9500    7.4120   47.6730 H   0  0  0  0  0  0  0  0  0  0  0  0
   48.8720    7.9090   46.3830 H   0  0  0  0  0  0  0  0  0  0  0  0
   47.9920    8.3910   48.6540 H   0  0  0  0  0  0  0  0  0  0  0  0
   46.9490    7.6420   47.4660 H   0  0  0  0  0  0  0  0  0  0  0  0
   48.6650    6.5030   50.5990 H   0  0  0  0  0  0  0  0  0  0  0  0
   48.9530    5.1380   49.4910 H   0  0  0  0  0  0  0  0  0  0  0  0
   47.4930    5.1980   50.5700 H   0  0  0  0  0  0  0  0  0  0  0  0
  2  7  1  0  0  0  0
  2  1  1  0  0  0  0
  3  2  2  0  0  0  0
  4  3  1  0  0  0  0
  4  5  2  0  0  0  0
  5  6  1  0  0  0  0
  6 33  1  0  0  0  0
  6  7  2  0  0  0  0
  7 34  1  0  0  0  0
  8  3  1  0  0  0  0
  8  9  1  0  0  0  0
  9 36  1  0  0  0  0
 10  9  1  0  0  0  0
 10 37  1  0  0  0  0
 11 14  1  0  0  0  0
 11 10  1  0  0  0  0
 12 13  1  0  0  0  0
 12 11  1  0  0  0  0
 13  8  1  0  0  0  0
 14 16  1  0  0  0  0
 15 14  2  0  0  0  0
 16 17  1  0  0  0  0
 17 18  1  0  0  0  0
 17 43  1  0  0  0  0
 18 26  1  0  0  0  0
 19 44  1  0  0  0  0
 19 18  1  0  0  0  0
 20 19  2  0  0  0  0
 21 20  1  0  0  0  0
 21 16  2  0  0  0  0
 22 21  1  0  0  0  0
 23 22  1  0  0  0  0
 23 24  1  0  0  0  0
 24 20  1  0  0  0  0
 25 24  2  0  0  0  0
 26 47  1  0  0  0  0
 26 27  1  0  0  0  0
 27 48  1  0  0  0  0
 27 28  1  0  0  0  0
 28 50  1  0  0  0  0
 28 29  1  0  0  0  0
 29 30  1  0  0  0  0
 30 54  1  0  0  0  0
 30 52  1  0  0  0  0
 31  4  1  0  0  0  0
 32  5  1  0  0  0  0
 35  9  1  0  0  0  0
 38 10  1  0  0  0  0
 39 12  1  0  0  0  0
 40 12  1  0  0  0  0
 41 13  1  0  0  0  0
 42 13  1  0  0  0  0
 45 23  1  0  0  0  0
 46 26  1  0  0  0  0
 49 27  1  0  0  0  0
 51 28  1  0  0  0  0
 53 30  1  0  0  0  0
M  END
>  <Pose>
1

>  <Score>
-6.82

$$$$
