
 OpenBabel03172210433D

 59 63  0  0  1  0  0  0  0  0999 V2000
   39.4640   13.2420   44.2050 B   0  0  0  0  0  0  0  0  0  0  0  0
   40.6070   11.8180   43.6890 C   0  0  0  0  0  0  0  0  0  0  0  0
   41.4310   11.2080   44.6090 C   0  0  0  0  0  0  0  0  0  0  0  0
   42.2790   10.1590   44.2320 C   0  0  0  0  0  0  0  0  0  0  0  0
   42.2130    9.8060   42.9020 C   0  0  0  0  0  0  0  0  0  0  0  0
   41.4120   10.3810   41.9580 C   0  0  0  0  0  0  0  0  0  0  0  0
   40.5900   11.4150   42.3680 C   0  0  0  0  0  0  0  0  0  0  0  0
   43.1820    9.5610   45.1950 C   0  0  2  0  0  0  0  0  0  0  0  0
   42.9520    8.3210   45.7950 N   0  0  0  0  0  0  0  0  0  0  0  0
   42.8990    8.5460   47.2360 C   0  0  0  0  0  0  0  0  0  0  0  0
   42.5770    7.7230   48.1300 O   0  0  0  0  0  0  0  0  0  0  0  0
   43.2880    9.9160   47.5320 C   0  0  0  0  0  0  0  0  0  0  0  0
   43.3460   10.4540   48.6870 O   0  0  0  0  0  0  0  0  0  0  0  0
   43.5840   10.5310   46.2650 C   0  0  0  0  0  0  0  0  0  0  0  0
   44.0710   11.7430   46.0990 C   0  0  0  0  0  0  0  0  0  0  0  0
   44.2150   12.1550   44.7540 O   0  0  0  0  0  0  0  0  0  0  0  0
   44.4670   12.6620   47.1500 C   0  0  0  0  0  0  0  0  0  0  0  0
   45.3910   12.5910   48.1220 N   0  0  0  0  0  0  0  0  0  0  0  0
   45.3870   13.6710   48.9180 C   0  0  0  0  0  0  0  0  0  0  0  0
   44.4160   14.4790   48.4380 N   0  0  0  0  0  0  0  0  0  0  0  0
   43.8420   13.9070   47.3770 C   0  0  0  0  0  0  0  0  0  0  0  0
   42.7460   14.4540   46.5650 C   0  0  0  0  0  0  0  0  0  0  0  0
   46.2670   13.8150   49.9730 C   0  0  0  0  0  0  0  0  0  0  0  0
   47.1750   12.8190   50.2180 C   0  0  0  0  0  0  0  0  0  0  0  0
   47.1790   11.7070   49.3980 C   0  0  0  0  0  0  0  0  0  0  0  0
   46.2890   11.5960   48.3550 C   0  0  0  0  0  0  0  0  0  0  0  0
   42.8830    7.0330   45.2060 C   0  0  0  0  0  0  0  0  0  0  0  0
   43.8230    6.6140   44.1690 C   0  0  0  0  0  0  0  0  0  0  0  0
   45.1580    6.2170   44.5080 N   0  0  0  0  0  4  0  0  0  0  0  0
   45.4750    5.0580   43.6730 C   0  0  0  0  0  0  0  0  0  0  0  0
   46.0770    5.4370   42.3580 C   0  0  0  0  0  0  0  0  0  0  0  0
   45.9390    6.8130   42.1200 O   0  0  0  0  0  0  0  0  0  0  0  0
   46.7110    7.4290   43.0800 C   0  0  0  0  0  0  0  0  0  0  0  0
   46.1110    7.2720   44.4280 C   0  0  0  0  0  0  0  0  0  0  0  0
   41.4690   11.4960   45.6420 H   0  0  0  0  0  0  0  0  0  0  0  0
   42.8630    8.9900   42.5770 H   0  0  0  0  0  0  0  0  0  0  0  0
   41.3930   10.0720   40.9160 H   0  0  0  0  0  0  0  0  0  0  0  0
   39.9550   11.8710   41.6140 H   0  0  0  0  0  0  0  0  0  0  0  0
   44.1670    9.3780   44.5750 H   0  0  0  0  0  0  0  0  0  0  0  0
   42.8360   14.2350   45.4770 H   0  0  0  0  0  0  0  0  0  0  0  0
   41.7830   14.0790   46.9850 H   0  0  0  0  0  0  0  0  0  0  0  0
   42.7340   15.5600   46.6720 H   0  0  0  0  0  0  0  0  0  0  0  0
   46.2630   14.6780   50.6120 H   0  0  0  0  0  0  0  0  0  0  0  0
   47.9010   12.8530   51.0260 H   0  0  0  0  0  0  0  0  0  0  0  0
   47.8850   10.8890   49.5570 H   0  0  0  0  0  0  0  0  0  0  0  0
   46.2860   10.7160   47.6940 H   0  0  0  0  0  0  0  0  0  0  0  0
   41.8340    6.9330   44.7790 H   0  0  0  0  0  0  0  0  0  0  0  0
   42.8830    6.2560   46.0200 H   0  0  0  0  0  0  0  0  0  0  0  0
   43.3470    5.7070   43.6750 H   0  0  0  0  0  0  0  0  0  0  0  0
   43.8630    7.3320   43.2930 H   0  0  0  0  0  0  0  0  0  0  0  0
   45.2100    5.8130   45.4900 H   0  0  0  0  0  0  0  0  0  0  0  0
   46.1950    4.4300   44.2200 H   0  0  0  0  0  0  0  0  0  0  0  0
   44.5600    4.4340   43.5110 H   0  0  0  0  0  0  0  0  0  0  0  0
   47.1720    5.1950   42.3370 H   0  0  0  0  0  0  0  0  0  0  0  0
   45.5310    4.9110   41.5480 H   0  0  0  0  0  0  0  0  0  0  0  0
   46.7240    8.5270   42.7830 H   0  0  0  0  0  0  0  0  0  0  0  0
   47.7710    7.0410   43.0330 H   0  0  0  0  0  0  0  0  0  0  0  0
   45.6810    8.2610   44.7300 H   0  0  0  0  0  0  0  0  0  0  0  0
   46.9620    7.0200   45.1320 H   0  0  0  0  0  0  0  0  0  0  0  0
  2  1  1  0  0  0  0
  2  3  1  0  0  0  0
  3 35  1  0  0  0  0
  4  3  2  0  0  0  0
  4  8  1  0  0  0  0
  5  4  1  0  0  0  0
  6  7  1  0  0  0  0
  6  5  2  0  0  0  0
  7  2  2  0  0  0  0
  8 39  1  6  0  0  0
  8  9  1  0  0  0  0
  8 14  1  0  0  0  0
  9 10  1  0  0  0  0
 10 12  1  0  0  0  0
 10 11  2  0  0  0  0
 12 13  2  0  0  0  0
 14 12  1  0  0  0  0
 15 14  2  0  0  0  0
 15 17  1  0  0  0  0
 16 15  1  0  0  0  0
 17 21  2  0  0  0  0
 17 18  1  0  0  0  0
 18 26  1  0  0  0  0
 18 19  1  0  0  0  0
 19 23  1  0  0  0  0
 20 19  2  0  0  0  0
 21 20  1  0  0  0  0
 22 42  1  0  0  0  0
 22 41  1  0  0  0  0
 22 21  1  0  0  0  0
 23 24  2  0  0  0  0
 23 43  1  0  0  0  0
 24 44  1  0  0  0  0
 25 45  1  0  0  0  0
 25 24  1  0  0  0  0
 26 25  2  0  0  0  0
 27  9  1  0  0  0  0
 27 48  1  0  0  0  0
 28 29  1  0  0  0  0
 28 27  1  0  0  0  0
 29 51  1  0  0  0  0
 30 52  1  0  0  0  0
 30 29  1  0  0  0  0
 31 30  1  0  0  0  0
 32 31  1  0  0  0  0
 32 33  1  0  0  0  0
 33 34  1  0  0  0  0
 34 29  1  0  0  0  0
 34 58  1  0  0  0  0
 34 59  1  0  0  0  0
 36  5  1  0  0  0  0
 37  6  1  0  0  0  0
 38  7  1  0  0  0  0
 40 22  1  0  0  0  0
 46 26  1  0  0  0  0
 47 27  1  0  0  0  0
 49 28  1  0  0  0  0
 50 28  1  0  0  0  0
 53 30  1  0  0  0  0
 54 31  1  0  0  0  0
 55 31  1  0  0  0  0
 56 33  1  0  0  0  0
 57 33  1  0  0  0  0
M  END
>  <Pose>
1

>  <Score>
-5.72

$$$$
