
 OpenBabel03172210433D

 56 59  0  0  1  0  0  0  0  0999 V2000
   40.8290   10.0350   43.3340 B   0  0  0  0  0  0  0  0  0  0  0  0
   42.2690    8.7710   43.5110 C   0  0  0  0  0  0  0  0  0  0  0  0
   43.5730    9.1770   43.2820 C   0  0  0  0  0  0  0  0  0  0  0  0
   44.6190    8.2680   43.4080 C   0  0  0  0  0  0  0  0  0  0  0  0
   44.3910    6.9570   43.7600 C   0  0  0  0  0  0  0  0  0  0  0  0
   43.0830    6.5880   43.9790 C   0  0  0  0  0  0  0  0  0  0  0  0
   42.0310    7.4640   43.8620 C   0  0  0  0  0  0  0  0  0  0  0  0
   45.4690    6.0010   43.8950 C   0  0  0  0  0  0  0  0  0  0  0  0
   45.2540    4.7880   43.6340 O   0  0  0  0  0  0  0  0  0  0  0  0
   46.8390    6.3780   44.3330 C   0  0  0  0  0  0  0  0  0  0  0  0
   47.7560    5.2840   44.2170 N   0  0  0  0  0  0  0  0  0  0  0  0
   47.8090    4.4010   43.2460 N   0  0  0  0  0  0  0  0  0  0  0  0
   48.7940    3.5180   43.4660 C   0  0  0  0  0  0  0  0  0  0  0  0
   49.3800    3.8650   44.6210 N   0  0  0  0  0  0  0  0  0  0  0  0
   48.7250    4.9710   45.0840 C   0  0  2  0  0  0  0  0  0  0  0  0
   49.0240    5.6940   46.3180 C   0  0  0  0  0  0  0  0  0  0  0  0
   50.4410    6.2140   46.3700 C   0  0  0  0  0  0  0  0  0  0  0  0
   51.4450    5.1010   46.5770 C   0  0  0  0  0  0  0  0  0  0  0  0
   51.6100    4.2240   45.3750 C   0  0  0  0  0  0  0  0  0  0  0  0
   50.4970    3.1930   45.2550 C   0  0  0  0  0  0  0  0  0  0  0  0
   49.1870    2.3770   42.6260 C   0  0  0  0  0  0  0  0  0  0  0  0
   50.5940    2.3400   42.3710 N   0  0  0  0  0  0  0  0  0  0  0  0
   51.4230    1.2460   42.7510 C   0  0  0  0  0  0  0  0  0  0  0  0
   51.1790    0.4950   43.8780 C   0  0  0  0  0  0  0  0  0  0  0  0
   51.9810   -0.5590   44.2310 C   0  0  0  0  0  0  0  0  0  0  0  0
   53.0490   -0.8810   43.4530 C   0  0  0  0  0  0  0  0  0  0  0  0
   53.2960   -0.1320   42.3240 C   0  0  0  0  0  0  0  0  0  0  0  0
   52.4960    0.9310   41.9590 C   0  0  0  0  0  0  0  0  0  0  0  0
   53.8700   -1.9320   43.7820 O   0  0  0  0  0  0  0  0  0  0  0  0
   53.9800   -3.0920   42.9950 C   0  0  0  0  0  0  0  0  0  0  0  0
   43.7430   10.2000   43.0090 H   0  0  0  0  0  0  0  0  0  0  0  0
   45.6240    8.6060   43.2260 H   0  0  0  0  0  0  0  0  0  0  0  0
   42.8810    5.5460   44.2600 H   0  0  0  0  0  0  0  0  0  0  0  0
   41.0340    7.1170   44.0450 H   0  0  0  0  0  0  0  0  0  0  0  0
   47.1900    7.2990   43.8290 H   0  0  0  0  0  0  0  0  0  0  0  0
   46.7440    6.6200   45.4320 H   0  0  0  0  0  0  0  0  0  0  0  0
   48.3560    6.5640   46.4480 H   0  0  0  0  0  0  0  0  0  0  0  0
   48.8880    5.0660   47.2450 H   0  0  0  0  0  0  0  0  0  0  0  0
   50.7180    6.8290   45.5120 H   0  0  0  0  0  0  0  0  0  0  0  0
   50.5050    6.8680   47.2750 H   0  0  0  0  0  0  0  0  0  0  0  0
   51.2490    4.5340   47.4890 H   0  0  0  0  0  0  0  0  0  0  0  0
   52.4360    5.6140   46.7390 H   0  0  0  0  0  0  0  0  0  0  0  0
   51.6340    4.7980   44.4490 H   0  0  0  0  0  0  0  0  0  0  0  0
   52.5900    3.6850   45.4850 H   0  0  0  0  0  0  0  0  0  0  0  0
   50.2360    2.7550   46.2310 H   0  0  0  0  0  0  0  0  0  0  0  0
   50.8450    2.3800   44.6000 H   0  0  0  0  0  0  0  0  0  0  0  0
   48.6330    2.4580   41.6550 H   0  0  0  0  0  0  0  0  0  0  0  0
   48.8760    1.4210   43.0770 H   0  0  0  0  0  0  0  0  0  0  0  0
   51.0540    3.1280   41.8920 H   0  0  0  0  0  0  0  0  0  0  0  0
   50.3050    0.7980   44.4700 H   0  0  0  0  0  0  0  0  0  0  0  0
   51.7510   -1.1160   45.1190 H   0  0  0  0  0  0  0  0  0  0  0  0
   54.1460   -0.3650   41.6770 H   0  0  0  0  0  0  0  0  0  0  0  0
   52.7090    1.5150   41.0520 H   0  0  0  0  0  0  0  0  0  0  0  0
   54.4770   -3.8960   43.5520 H   0  0  0  0  0  0  0  0  0  0  0  0
   52.9610   -3.4210   42.7110 H   0  0  0  0  0  0  0  0  0  0  0  0
   54.5420   -2.8990   42.0530 H   0  0  0  0  0  0  0  0  0  0  0  0
  1  2  1  0  0  0  0
  2  7  1  0  0  0  0
  3  4  1  0  0  0  0
  3  2  2  0  0  0  0
  4  5  2  0  0  0  0
  5  8  1  0  0  0  0
  5  6  1  0  0  0  0
  6 33  1  0  0  0  0
  7  6  2  0  0  0  0
  7 34  1  0  0  0  0
  8 10  1  0  0  0  0
  9  8  2  0  0  0  0
 10 36  1  0  0  0  0
 11 10  1  0  0  0  0
 12 13  2  0  0  0  0
 12 11  1  0  0  0  0
 13 14  1  0  0  0  0
 14 15  1  0  0  0  0
 14 20  1  0  0  0  0
 15 11  1  1  0  0  0
 15 16  1  0  0  0  0
 16 17  1  0  0  0  0
 16 37  1  0  0  0  0
 16 38  1  0  0  0  0
 17 18  1  0  0  0  0
 17 40  1  0  0  0  0
 18 42  1  0  0  0  0
 18 41  1  0  0  0  0
 19 44  1  0  0  0  0
 19 18  1  0  0  0  0
 20 19  1  0  0  0  0
 20 45  1  0  0  0  0
 21 48  1  0  0  0  0
 21 13  1  0  0  0  0
 22 21  1  0  0  0  0
 22 23  1  0  0  0  0
 23 24  1  0  0  0  0
 24 25  2  0  0  0  0
 24 50  1  0  0  0  0
 25 51  1  0  0  0  0
 26 29  1  0  0  0  0
 26 25  1  0  0  0  0
 27 26  2  0  0  0  0
 28 27  1  0  0  0  0
 28 23  2  0  0  0  0
 30 54  1  0  0  0  0
 30 29  1  0  0  0  0
 31  3  1  0  0  0  0
 32  4  1  0  0  0  0
 35 10  1  0  0  0  0
 39 17  1  0  0  0  0
 43 19  1  0  0  0  0
 46 20  1  0  0  0  0
 47 21  1  0  0  0  0
 49 22  1  0  0  0  0
 52 27  1  0  0  0  0
 53 28  1  0  0  0  0
 55 30  1  0  0  0  0
 56 30  1  0  0  0  0
M  END
>  <Pose>
1

>  <Score>
-5.43

$$$$
