
 OpenBabel03172210433D

 54 58  0  0  0  0  0  0  0  0999 V2000
   41.8900    8.0510   42.5020 F   0  0  0  0  0  0  0  0  0  0  0  0
   42.3530    9.1170   43.1790 C   0  0  0  0  0  0  0  0  0  0  0  0
   41.3590    9.9760   43.6370 C   0  0  0  0  0  0  0  0  0  0  0  0
   41.6860   11.1060   44.3530 C   0  0  0  0  0  0  0  0  0  0  0  0
   43.0160   11.3530   44.5990 C   0  0  0  0  0  0  0  0  0  0  0  0
   43.9950   10.4810   44.1340 C   0  0  0  0  0  0  0  0  0  0  0  0
   43.6830    9.3560   43.4200 C   0  0  0  0  0  0  0  0  0  0  0  0
   44.6940    8.5120   42.9620 N   0  0  0  0  0  4  0  0  0  0  0  0
   44.2530    7.2790   42.3600 C   0  0  0  0  0  0  0  0  0  0  0  0
   45.4650    6.5210   41.7690 C   0  0  0  0  0  0  0  0  0  0  0  0
   46.2850    6.2040   42.8710 N   0  0  0  0  0  0  0  0  0  0  0  0
   46.8980    7.4640   43.4450 C   0  0  0  0  0  0  0  0  0  0  0  0
   45.7000    8.2220   43.9300 C   0  0  0  0  0  0  0  0  0  0  0  0
   46.5740    5.0490   43.5160 C   0  0  0  0  0  0  0  0  0  0  0  0
   45.5360    4.3640   43.9330 O   0  0  0  0  0  0  0  0  0  0  0  0
   47.8290    4.4270   43.8330 C   0  0  0  0  0  0  0  0  0  0  0  0
   48.4100    3.4510   43.0910 C   0  0  0  0  0  0  0  0  0  0  0  0
   49.6530    2.9170   43.4060 C   0  0  0  0  0  0  0  0  0  0  0  0
   50.3230    3.3860   44.5060 C   0  0  0  0  0  0  0  0  0  0  0  0
   49.7830    4.3670   45.2890 C   0  0  0  0  0  0  0  0  0  0  0  0
   48.5630    4.8710   44.9530 C   0  0  0  0  0  0  0  0  0  0  0  0
   50.3700    1.6490   42.4080 Cl  0  0  0  0  0  0  0  0  0  0  0  0
   43.3120   12.4640   45.3030 N   0  0  0  0  0  0  0  0  0  0  0  0
   42.3690   13.3090   45.7560 C   0  0  0  0  0  0  0  0  0  0  0  0
   41.0290   13.0910   45.5260 C   0  0  0  0  0  0  0  0  0  0  0  0
   40.6810   11.9680   44.8120 C   0  0  0  0  0  0  0  0  0  0  0  0
   39.4790   11.7090   44.5680 O   0  0  0  0  0  0  0  0  0  0  0  0
   40.0070   14.0280   46.0290 C   0  0  0  0  0  0  0  0  0  0  0  0
   39.0210   13.6520   46.6830 O   0  0  0  0  0  0  0  0  0  0  0  0
   40.1690   15.3680   45.7560 O   0  0  0  0  0  0  0  0  0  0  0  0
   44.7370   12.7110   45.5550 C   0  0  0  0  0  0  0  0  0  0  0  0
   45.1850   13.3540   46.7950 C   0  0  0  0  0  0  0  0  0  0  0  0
   45.1030   14.2310   45.6260 C   0  0  0  0  0  0  0  0  0  0  0  0
   40.3080    9.8050   43.4570 H   0  0  0  0  0  0  0  0  0  0  0  0
   45.0180   10.7690   44.3810 H   0  0  0  0  0  0  0  0  0  0  0  0
   45.1900    9.0400   42.1790 H   0  0  0  0  0  0  0  0  0  0  0  0
   43.8730    6.6150   43.1500 H   0  0  0  0  0  0  0  0  0  0  0  0
   43.6020    7.4050   41.4780 H   0  0  0  0  0  0  0  0  0  0  0  0
   45.1030    5.7610   41.1080 H   0  0  0  0  0  0  0  0  0  0  0  0
   45.9990    7.2620   41.0680 H   0  0  0  0  0  0  0  0  0  0  0  0
   47.3160    7.9820   42.5680 H   0  0  0  0  0  0  0  0  0  0  0  0
   47.6220    7.2250   44.2150 H   0  0  0  0  0  0  0  0  0  0  0  0
   46.0920    9.2150   44.3000 H   0  0  0  0  0  0  0  0  0  0  0  0
   45.3340    7.7140   44.8390 H   0  0  0  0  0  0  0  0  0  0  0  0
   47.9360    2.9990   42.2370 H   0  0  0  0  0  0  0  0  0  0  0  0
   51.2900    2.9570   44.7360 H   0  0  0  0  0  0  0  0  0  0  0  0
   50.3630    4.6910   46.1430 H   0  0  0  0  0  0  0  0  0  0  0  0
   48.1320    5.6580   45.5820 H   0  0  0  0  0  0  0  0  0  0  0  0
   42.6580   14.1870   46.3150 H   0  0  0  0  0  0  0  0  0  0  0  0
   45.4500   12.1150   44.9590 H   0  0  0  0  0  0  0  0  0  0  0  0
   44.5070   13.5280   47.6570 H   0  0  0  0  0  0  0  0  0  0  0  0
   46.2160   13.0610   47.1510 H   0  0  0  0  0  0  0  0  0  0  0  0
   44.2520   14.9350   45.5330 H   0  0  0  0  0  0  0  0  0  0  0  0
   45.9830   14.5430   45.0330 H   0  0  0  0  0  0  0  0  0  0  0  0
  1  2  1  0  0  0  0
  2  7  2  0  0  0  0
  2  3  1  0  0  0  0
  3  4  2  0  0  0  0
  4  5  1  0  0  0  0
  4 26  1  0  0  0  0
  5 23  1  0  0  0  0
  6 35  1  0  0  0  0
  6  5  2  0  0  0  0
  7  6  1  0  0  0  0
  8  7  1  0  0  0  0
  8 13  1  0  0  0  0
  9  8  1  0  0  0  0
  9 37  1  0  0  0  0
 10  9  1  0  0  0  0
 10 11  1  0  0  0  0
 11 12  1  0  0  0  0
 11 14  1  0  0  0  0
 12 13  1  0  0  0  0
 12 42  1  0  0  0  0
 13 43  1  0  0  0  0
 13 44  1  0  0  0  0
 14 16  1  0  0  0  0
 14 15  2  0  0  0  0
 16 21  1  0  0  0  0
 17 18  1  0  0  0  0
 17 16  2  0  0  0  0
 18 19  2  0  0  0  0
 19 46  1  0  0  0  0
 19 20  1  0  0  0  0
 20 47  1  0  0  0  0
 21 20  2  0  0  0  0
 21 48  1  0  0  0  0
 22 18  1  0  0  0  0
 23 31  1  0  0  0  0
 23 24  1  0  0  0  0
 24 49  1  0  0  0  0
 25 24  2  0  0  0  0
 25 28  1  0  0  0  0
 26 25  1  0  0  0  0
 27 26  2  0  0  0  0
 28 29  1  0  0  0  0
 30 28  2  0  0  0  0
 31 33  1  0  0  0  0
 31 32  1  0  0  0  0
 32 52  1  0  0  0  0
 32 51  1  0  0  0  0
 33 32  1  0  0  0  0
 34  3  1  0  0  0  0
 36  8  1  0  0  0  0
 38  9  1  0  0  0  0
 39 10  1  0  0  0  0
 40 10  1  0  0  0  0
 41 12  1  0  0  0  0
 45 17  1  0  0  0  0
 50 31  1  0  0  0  0
 53 33  1  0  0  0  0
 54 33  1  0  0  0  0
M  END
>  <Pose>
1

>  <Score>
-7.49

$$$$
