
 OpenBabel03172210433D

 53 56  0  0  1  0  0  0  0  0999 V2000
   40.5910    9.7380   42.7730 B   0  0  0  0  0  0  0  0  0  0  0  0
   42.2330    8.9370   43.3740 C   0  0  0  0  0  0  0  0  0  0  0  0
   42.3000    7.6080   43.7240 C   0  0  0  0  0  0  0  0  0  0  0  0
   43.4380    6.9880   44.1570 C   0  0  0  0  0  0  0  0  0  0  0  0
   44.5970    7.7350   44.2530 C   0  0  0  0  0  0  0  0  0  0  0  0
   44.5580    9.0660   43.9080 C   0  0  0  0  0  0  0  0  0  0  0  0
   43.3860    9.6880   43.4660 C   0  0  0  0  0  0  0  0  0  0  0  0
   45.8600    7.1440   44.6780 C   0  0  0  0  0  0  0  0  0  0  0  0
   46.6530    6.5360   43.8190 C   0  0  0  0  0  0  0  0  0  0  0  0
   47.9750    5.8670   44.0460 C   0  0  2  0  0  0  0  0  0  0  0  0
   47.8590    4.7050   43.2410 N   0  0  0  0  0  0  0  0  0  0  0  0
   47.2650    5.2020   42.0030 C   0  0  0  0  0  0  0  0  0  0  0  0
   47.3890    4.7250   40.8450 O   0  0  0  0  0  0  0  0  0  0  0  0
   46.4880    6.3790   42.3740 C   0  0  0  0  0  0  0  0  0  0  0  0
   45.7850    7.1620   41.6510 O   0  0  0  0  0  0  0  0  0  0  0  0
   48.2390    3.3150   43.4020 C   0  0  0  0  0  0  0  0  0  0  0  0
   49.6020    3.0320   43.9000 C   0  0  0  0  0  0  0  0  0  0  0  0
   50.0250    1.6380   43.7300 N   0  0  0  0  0  4  0  0  0  0  0  0
   50.9660    1.2810   44.7360 C   0  0  0  0  0  0  0  0  0  0  0  0
   52.3440    0.9530   44.2770 C   0  0  0  0  0  0  0  0  0  0  0  0
   52.4430    0.4560   42.9920 O   0  0  0  0  0  0  0  0  0  0  0  0
   51.9380    1.4840   42.1630 C   0  0  0  0  0  0  0  0  0  0  0  0
   50.4650    1.4910   42.3730 C   0  0  0  0  0  0  0  0  0  0  0  0
   48.3950    5.8340   45.4060 C   0  0  0  0  0  0  0  0  0  0  0  0
   49.2870    6.7780   45.8560 C   0  0  0  0  0  0  0  0  0  0  0  0
   49.7260    6.8220   47.1570 C   0  0  0  0  0  0  0  0  0  0  0  0
   49.2740    5.8930   48.0830 C   0  0  0  0  0  0  0  0  0  0  0  0
   48.3790    4.9530   47.6130 C   0  0  0  0  0  0  0  0  0  0  0  0
   47.9440    4.9160   46.3070 C   0  0  0  0  0  0  0  0  0  0  0  0
   49.8240    5.9380   49.7400 Cl  0  0  0  0  0  0  0  0  0  0  0  0
   46.1800    7.2570   46.0190 O   0  0  0  0  0  0  0  0  0  0  0  0
   41.3850    7.0400   43.6450 H   0  0  0  0  0  0  0  0  0  0  0  0
   43.5070    5.9470   44.4370 H   0  0  0  0  0  0  0  0  0  0  0  0
   45.4450    9.7040   43.9450 H   0  0  0  0  0  0  0  0  0  0  0  0
   43.3980   10.7490   43.2030 H   0  0  0  0  0  0  0  0  0  0  0  0
   48.6890    6.5410   43.4650 H   0  0  0  0  0  0  0  0  0  0  0  0
   47.5370    2.8140   44.1460 H   0  0  0  0  0  0  0  0  0  0  0  0
   47.9920    2.7300   42.4630 H   0  0  0  0  0  0  0  0  0  0  0  0
   49.8260    3.2750   44.9360 H   0  0  0  0  0  0  0  0  0  0  0  0
   50.2940    3.6120   43.1950 H   0  0  0  0  0  0  0  0  0  0  0  0
   49.1280    1.0740   43.8460 H   0  0  0  0  0  0  0  0  0  0  0  0
   50.9980    2.0790   45.5360 H   0  0  0  0  0  0  0  0  0  0  0  0
   50.5810    0.3540   45.2570 H   0  0  0  0  0  0  0  0  0  0  0  0
   52.9530    1.9040   44.2840 H   0  0  0  0  0  0  0  0  0  0  0  0
   52.8800    0.2480   44.9380 H   0  0  0  0  0  0  0  0  0  0  0  0
   52.4180    2.4510   42.3680 H   0  0  0  0  0  0  0  0  0  0  0  0
   52.1700    1.2180   41.1220 H   0  0  0  0  0  0  0  0  0  0  0  0
   50.0190    2.2660   41.6970 H   0  0  0  0  0  0  0  0  0  0  0  0
   50.0770    0.5100   41.9780 H   0  0  0  0  0  0  0  0  0  0  0  0
   49.6910    7.5530   45.1670 H   0  0  0  0  0  0  0  0  0  0  0  0
   50.4260    7.5660   47.5050 H   0  0  0  0  0  0  0  0  0  0  0  0
   48.0360    4.2310   48.3580 H   0  0  0  0  0  0  0  0  0  0  0  0
   47.2280    4.1350   46.0700 H   0  0  0  0  0  0  0  0  0  0  0  0
  1  2  1  0  0  0  0
  2  7  2  0  0  0  0
  2  3  1  0  0  0  0
  3  4  2  0  0  0  0
  4  5  1  0  0  0  0
  4 33  1  0  0  0  0
  5  8  1  0  0  0  0
  6 34  1  0  0  0  0
  6  5  2  0  0  0  0
  7  6  1  0  0  0  0
  8 31  1  0  0  0  0
  9 10  1  0  0  0  0
  9  8  2  0  0  0  0
 10 36  1  6  0  0  0
 10 24  1  0  0  0  0
 11 16  1  0  0  0  0
 11 10  1  0  0  0  0
 12 14  1  0  0  0  0
 12 11  1  0  0  0  0
 13 12  2  0  0  0  0
 14  9  1  0  0  0  0
 15 14  2  0  0  0  0
 16 17  1  0  0  0  0
 16 37  1  0  0  0  0
 17 39  1  0  0  0  0
 18 41  1  0  0  0  0
 18 17  1  0  0  0  0
 18 19  1  0  0  0  0
 19 43  1  0  0  0  0
 19 42  1  0  0  0  0
 20 44  1  0  0  0  0
 20 19  1  0  0  0  0
 20 45  1  0  0  0  0
 21 20  1  0  0  0  0
 22 46  1  0  0  0  0
 22 23  1  0  0  0  0
 22 21  1  0  0  0  0
 23 18  1  0  0  0  0
 24 25  2  0  0  0  0
 24 29  1  0  0  0  0
 25 26  1  0  0  0  0
 26 51  1  0  0  0  0
 26 27  2  0  0  0  0
 27 30  1  0  0  0  0
 28 27  1  0  0  0  0
 28 52  1  0  0  0  0
 29 28  2  0  0  0  0
 32  3  1  0  0  0  0
 35  7  1  0  0  0  0
 38 16  1  0  0  0  0
 40 17  1  0  0  0  0
 47 22  1  0  0  0  0
 48 23  1  0  0  0  0
 49 23  1  0  0  0  0
 50 25  1  0  0  0  0
 53 29  1  0  0  0  0
M  END
>  <Pose>
1

>  <Score>
-5.96

$$$$
