
 OpenBabel03172210433D

 49 52  0  0  0  0  0  0  0  0999 V2000
   50.0660    1.7620   42.7840 B   0  0  0  0  0  0  0  0  0  0  0  0
   48.8130    3.1960   42.9940 C   0  0  0  0  0  0  0  0  0  0  0  0
   48.7830    3.9590   44.1450 C   0  0  0  0  0  0  0  0  0  0  0  0
   47.8710    5.0000   44.2930 C   0  0  0  0  0  0  0  0  0  0  0  0
   46.9640    5.3070   43.3000 C   0  0  0  0  0  0  0  0  0  0  0  0
   46.9990    4.5430   42.1550 C   0  0  0  0  0  0  0  0  0  0  0  0
   47.9030    3.5110   42.0060 C   0  0  0  0  0  0  0  0  0  0  0  0
   46.0180    6.3640   43.4160 N   0  0  0  0  0  0  0  0  0  0  0  0
   44.7590    6.3490   43.8830 C   0  0  0  0  0  0  0  0  0  0  0  0
   44.2110    5.3020   44.3140 O   0  0  0  0  0  0  0  0  0  0  0  0
   44.1860    7.6080   43.8180 C   0  0  0  0  0  0  0  0  0  0  0  0
   45.1160    8.4020   43.3020 C   0  0  0  0  0  0  0  0  0  0  0  0
   44.5600    9.6220   43.2390 N   0  0  0  0  0  0  0  0  0  0  0  0
   43.3250    9.5740   43.7030 N   0  0  0  0  0  0  0  0  0  0  0  0
   43.0760    8.3440   44.0650 N   0  0  0  0  0  0  0  0  0  0  0  0
   41.8540    7.8200   44.6280 C   0  0  0  0  0  0  0  0  0  0  0  0
   41.9450    7.8660   46.1360 C   0  0  0  0  0  0  0  0  0  0  0  0
   42.3700    6.8630   46.7520 O   0  0  0  0  0  0  0  0  0  0  0  0
   41.5550    9.0200   46.8300 N   0  0  0  0  0  0  0  0  0  0  0  0
   40.7290   10.0460   46.3280 C   0  0  0  0  0  0  0  0  0  0  0  0
   39.4650    9.8860   45.8190 C   0  0  0  0  0  0  0  0  0  0  0  0
   38.7120   10.9320   45.3260 C   0  0  0  0  0  0  0  0  0  0  0  0
   39.2640   12.1950   45.3500 C   0  0  0  0  0  0  0  0  0  0  0  0
   40.5370   12.4000   45.8560 C   0  0  0  0  0  0  0  0  0  0  0  0
   41.2660   11.3470   46.3390 C   0  0  0  0  0  0  0  0  0  0  0  0
   38.5210   13.2650   44.8580 O   0  0  0  0  0  0  0  0  0  0  0  0
   37.4760   13.7990   45.6460 C   0  0  0  0  0  0  0  0  0  0  0  0
   37.4310   10.7380   44.8160 O   0  0  0  0  0  0  0  0  0  0  0  0
   36.3250   10.9530   45.7020 C   0  0  0  0  0  0  0  0  0  0  0  0
   46.2420    7.6460   43.0530 C   0  0  0  0  0  0  0  0  0  0  0  0
   47.3310    8.0870   42.5560 O   0  0  0  0  0  0  0  0  0  0  0  0
   49.5020    3.7090   44.9240 H   0  0  0  0  0  0  0  0  0  0  0  0
   47.8550    5.5880   45.1930 H   0  0  0  0  0  0  0  0  0  0  0  0
   46.2810    4.7920   41.3760 H   0  0  0  0  0  0  0  0  0  0  0  0
   47.9060    2.9220   41.0850 H   0  0  0  0  0  0  0  0  0  0  0  0
   45.0020   10.4940   42.8850 H   0  0  0  0  0  0  0  0  0  0  0  0
   42.6340   10.3780   43.7810 H   0  0  0  0  0  0  0  0  0  0  0  0
   41.6670    6.7590   44.3430 H   0  0  0  0  0  0  0  0  0  0  0  0
   40.9860    8.4410   44.3550 H   0  0  0  0  0  0  0  0  0  0  0  0
   41.9170    9.1230   47.8330 H   0  0  0  0  0  0  0  0  0  0  0  0
   39.0060    8.9070   45.7970 H   0  0  0  0  0  0  0  0  0  0  0  0
   40.9440   13.4130   45.8590 H   0  0  0  0  0  0  0  0  0  0  0  0
   42.2800   11.5250   46.7390 H   0  0  0  0  0  0  0  0  0  0  0  0
   37.9280   14.0500   46.6350 H   0  0  0  0  0  0  0  0  0  0  0  0
   36.6990   13.0380   45.7900 H   0  0  0  0  0  0  0  0  0  0  0  0
   37.0950   14.7270   45.1590 H   0  0  0  0  0  0  0  0  0  0  0  0
   36.2800   12.0380   46.0000 H   0  0  0  0  0  0  0  0  0  0  0  0
   35.3720   10.6640   45.2150 H   0  0  0  0  0  0  0  0  0  0  0  0
   36.4460   10.3490   46.6250 H   0  0  0  0  0  0  0  0  0  0  0  0
  1  2  1  0  0  0  0
  2  3  1  0  0  0  0
  3  4  2  0  0  0  0
  3 32  1  0  0  0  0
  4 33  1  0  0  0  0
  5  8  1  0  0  0  0
  5  4  1  0  0  0  0
  6  5  2  0  0  0  0
  7  6  1  0  0  0  0
  7  2  2  0  0  0  0
  8  9  1  0  0  0  0
  9 10  2  0  0  0  0
 11  9  1  0  0  0  0
 11 15  1  0  0  0  0
 12 11  2  0  0  0  0
 13 12  1  0  0  0  0
 13 14  1  0  0  0  0
 14 37  1  0  0  0  0
 14 15  1  0  0  0  0
 15 16  1  0  0  0  0
 16 17  1  0  0  0  0
 17 18  2  0  0  0  0
 17 19  1  0  0  0  0
 19 40  1  0  0  0  0
 20 25  1  0  0  0  0
 20 19  1  0  0  0  0
 21 20  2  0  0  0  0
 22 23  2  0  0  0  0
 22 21  1  0  0  0  0
 23 24  1  0  0  0  0
 24 42  1  0  0  0  0
 24 25  2  0  0  0  0
 25 43  1  0  0  0  0
 26 23  1  0  0  0  0
 26 27  1  0  0  0  0
 27 45  1  0  0  0  0
 27 44  1  0  0  0  0
 28 22  1  0  0  0  0
 28 29  1  0  0  0  0
 29 47  1  0  0  0  0
 29 49  1  0  0  0  0
 30 12  1  0  0  0  0
 30  8  1  0  0  0  0
 31 30  2  0  0  0  0
 34  6  1  0  0  0  0
 35  7  1  0  0  0  0
 36 13  1  0  0  0  0
 38 16  1  0  0  0  0
 39 16  1  0  0  0  0
 41 21  1  0  0  0  0
 46 27  1  0  0  0  0
 48 29  1  0  0  0  0
M  END
>  <Pose>
1

>  <Score>
-7.82

$$$$
