
 OpenBabel03172210433D

 52 55  0  0  0  0  0  0  0  0999 V2000
   51.4960    0.8780   43.6740 Cl  0  0  0  0  0  0  0  0  0  0  0  0
   50.1960    2.0290   43.4380 C   0  0  0  0  0  0  0  0  0  0  0  0
   50.0580    3.0710   44.3450 C   0  0  0  0  0  0  0  0  0  0  0  0
   49.0520    4.0170   44.2170 C   0  0  0  0  0  0  0  0  0  0  0  0
   48.1640    3.9280   43.1680 C   0  0  0  0  0  0  0  0  0  0  0  0
   48.3270    2.8720   42.2730 C   0  0  0  0  0  0  0  0  0  0  0  0
   49.3130    1.9310   42.3830 C   0  0  0  0  0  0  0  0  0  0  0  0
   47.0840    4.8930   42.9780 C   0  0  0  0  0  0  0  0  0  0  0  0
   46.9850    5.4360   41.8480 O   0  0  0  0  0  0  0  0  0  0  0  0
   46.1830    5.2190   43.9920 N   0  0  0  0  0  0  0  0  0  0  0  0
   44.8310    5.6850   43.7550 C   0  0  0  0  0  0  0  0  0  0  0  0
   44.8670    7.0940   43.2510 C   0  0  0  0  0  0  0  0  0  0  0  0
   43.5700    7.7900   43.4020 C   0  0  0  0  0  0  0  0  0  0  0  0
   42.5400    7.2290   42.9550 O   0  0  0  0  0  0  0  0  0  0  0  0
   43.4790    9.0550   44.0290 N   0  0  0  0  0  0  0  0  0  0  0  0
   43.0980   10.2610   43.3220 C   0  0  0  0  0  0  0  0  0  0  0  0
   43.8420   11.4250   43.9600 C   0  0  0  0  0  0  0  0  0  0  0  0
   43.4000   11.6060   45.4120 C   0  0  0  0  0  0  0  0  0  0  0  0
   44.5500   12.0530   46.1420 N   0  0  0  0  0  0  0  0  0  0  0  0
   44.1880   12.7100   47.3790 C   0  0  0  0  0  0  0  0  0  0  0  0
   43.5610   14.0620   47.0450 C   0  0  0  0  0  0  0  0  0  0  0  0
   42.3540   13.7690   46.2200 C   0  0  0  0  0  0  0  0  0  0  0  0
   41.1890   14.4590   46.0370 N   0  0  0  0  0  0  0  0  0  0  0  0
   40.4220   13.7550   45.1860 C   0  0  0  0  0  0  0  0  0  0  0  0
   41.0970   12.6430   44.8440 N   0  0  0  0  0  0  0  0  0  0  0  0
   42.3110   12.6160   45.4700 C   0  0  0  0  0  0  0  0  0  0  0  0
   42.9220   10.2920   45.9940 C   0  0  0  0  0  0  0  0  0  0  0  0
   43.7750    9.1880   45.4430 C   0  0  0  0  0  0  0  0  0  0  0  0
   50.7580    3.1350   45.1660 H   0  0  0  0  0  0  0  0  0  0  0  0
   48.9740    4.8310   44.9590 H   0  0  0  0  0  0  0  0  0  0  0  0
   47.6240    2.8130   41.4540 H   0  0  0  0  0  0  0  0  0  0  0  0
   49.4450    1.1130   41.6970 H   0  0  0  0  0  0  0  0  0  0  0  0
   46.4540    5.1390   45.0010 H   0  0  0  0  0  0  0  0  0  0  0  0
   44.3250    5.7020   44.7450 H   0  0  0  0  0  0  0  0  0  0  0  0
   44.2770    4.9970   43.1010 H   0  0  0  0  0  0  0  0  0  0  0  0
   45.6630    7.6650   43.8160 H   0  0  0  0  0  0  0  0  0  0  0  0
   45.1980    7.1000   42.2110 H   0  0  0  0  0  0  0  0  0  0  0  0
   43.5040   10.1920   42.2770 H   0  0  0  0  0  0  0  0  0  0  0  0
   42.0230   10.4260   43.3020 H   0  0  0  0  0  0  0  0  0  0  0  0
   44.9210   11.3030   43.8850 H   0  0  0  0  0  0  0  0  0  0  0  0
   43.5380   12.3440   43.4200 H   0  0  0  0  0  0  0  0  0  0  0  0
   45.2140   11.2750   46.3300 H   0  0  0  0  0  0  0  0  0  0  0  0
   43.3790   12.1150   47.8490 H   0  0  0  0  0  0  0  0  0  0  0  0
   45.0130   12.7970   48.0820 H   0  0  0  0  0  0  0  0  0  0  0  0
   43.3050   14.5480   48.0020 H   0  0  0  0  0  0  0  0  0  0  0  0
   44.2600   14.6870   46.4510 H   0  0  0  0  0  0  0  0  0  0  0  0
   41.0080   15.3700   46.5150 H   0  0  0  0  0  0  0  0  0  0  0  0
   39.4400   14.0820   44.8720 H   0  0  0  0  0  0  0  0  0  0  0  0
   42.9870   10.2640   47.0870 H   0  0  0  0  0  0  0  0  0  0  0  0
   41.8660   10.0930   45.6920 H   0  0  0  0  0  0  0  0  0  0  0  0
   43.5270    8.2670   46.0070 H   0  0  0  0  0  0  0  0  0  0  0  0
   44.8610    9.4070   45.5950 H   0  0  0  0  0  0  0  0  0  0  0  0
  2  1  1  0  0  0  0
  2  3  1  0  0  0  0
  3 29  1  0  0  0  0
  4  3  2  0  0  0  0
  4 30  1  0  0  0  0
  5  4  1  0  0  0  0
  6  7  1  0  0  0  0
  6  5  2  0  0  0  0
  7  2  2  0  0  0  0
  8  5  1  0  0  0  0
  8 10  1  0  0  0  0
  9  8  2  0  0  0  0
 10 33  1  0  0  0  0
 11 10  1  0  0  0  0
 11 34  1  0  0  0  0
 12 13  1  0  0  0  0
 12 11  1  0  0  0  0
 12 36  1  0  0  0  0
 13 15  1  0  0  0  0
 14 13  2  0  0  0  0
 15 28  1  0  0  0  0
 16 17  1  0  0  0  0
 16 15  1  0  0  0  0
 17 18  1  0  0  0  0
 18 26  1  0  0  0  0
 18 27  1  0  0  0  0
 18 19  1  0  0  0  0
 19 42  1  0  0  0  0
 19 20  1  0  0  0  0
 20 43  1  0  0  0  0
 20 44  1  0  0  0  0
 21 20  1  0  0  0  0
 21 45  1  0  0  0  0
 22 21  1  0  0  0  0
 23 22  1  0  0  0  0
 23 47  1  0  0  0  0
 24 23  1  0  0  0  0
 25 24  2  0  0  0  0
 25 26  1  0  0  0  0
 26 22  2  0  0  0  0
 27 49  1  0  0  0  0
 28 52  1  0  0  0  0
 28 27  1  0  0  0  0
 28 51  1  0  0  0  0
 31  6  1  0  0  0  0
 32  7  1  0  0  0  0
 35 11  1  0  0  0  0
 37 12  1  0  0  0  0
 38 16  1  0  0  0  0
 39 16  1  0  0  0  0
 40 17  1  0  0  0  0
 41 17  1  0  0  0  0
 46 21  1  0  0  0  0
 48 24  1  0  0  0  0
 50 27  1  0  0  0  0
M  END
>  <Pose>
1

>  <Score>
-7.10

$$$$
