
 OpenBabel03172210433D

 43 46  0  0  0  0  0  0  0  0999 V2000
   52.9750    4.2310   46.7530 B   0  0  0  0  0  0  0  0  0  0  0  0
   51.9740    3.0290   45.6630 C   0  0  0  0  0  0  0  0  0  0  0  0
   50.9550    3.5120   44.8300 C   0  0  0  0  0  0  0  0  0  0  0  0
   50.2410    2.6360   44.0490 C   0  0  0  0  0  0  0  0  0  0  0  0
   50.5420    1.3000   44.1050 C   0  0  0  0  0  0  0  0  0  0  0  0
   51.5580    0.8080   44.9340 C   0  0  0  0  0  0  0  0  0  0  0  0
   52.2670    1.6920   45.7110 C   0  0  0  0  0  0  0  0  0  0  0  0
   49.2070    3.1050   43.2000 N   0  0  0  0  0  0  0  0  0  0  0  0
   48.8530    2.5770   42.0240 N   0  0  0  0  0  0  0  0  0  0  0  0
   47.8590    3.2550   41.4960 N   0  0  0  0  0  0  0  0  0  0  0  0
   47.5240    4.2600   42.3170 C   0  0  0  0  0  0  0  0  0  0  0  0
   48.3830    4.1500   43.3850 C   0  0  0  0  0  0  0  0  0  0  0  0
   46.4590    5.2710   42.1210 C   0  0  0  0  0  0  0  0  0  0  0  0
   46.0850    5.4360   40.9070 O   0  0  0  0  0  0  0  0  0  0  0  0
   45.8770    6.0130   43.1490 N   0  0  0  0  0  0  0  0  0  0  0  0
   46.5670    7.1570   43.6810 C   0  0  0  0  0  0  0  0  0  0  0  0
   45.7790    8.3900   43.3350 C   0  0  0  0  0  0  0  0  0  0  0  0
   44.3870    8.1560   43.5930 N   0  0  0  0  0  0  0  0  0  0  0  0
   44.0860    6.9910   44.4470 C   0  0  0  0  0  0  0  0  0  0  0  0
   44.5970    5.7320   43.7590 C   0  0  0  0  0  0  0  0  0  0  0  0
   43.2960    8.8910   43.1300 C   0  0  0  0  0  0  0  0  0  0  0  0
   42.2930    8.1800   42.7140 O   0  0  0  0  0  0  0  0  0  0  0  0
   43.0960   10.3330   43.0390 C   0  0  0  0  0  0  0  0  0  0  0  0
   42.2200   11.1040   43.9210 C   0  0  0  0  0  0  0  0  0  0  0  0
   43.7300   11.3260   43.9400 C   0  0  0  0  0  0  0  0  0  0  0  0
   50.7830    4.5790   44.8470 H   0  0  0  0  0  0  0  0  0  0  0  0
   50.0220    0.5590   43.5200 H   0  0  0  0  0  0  0  0  0  0  0  0
   51.8000   -0.2400   44.9830 H   0  0  0  0  0  0  0  0  0  0  0  0
   53.0610    1.3140   46.3600 H   0  0  0  0  0  0  0  0  0  0  0  0
   48.3910    4.8080   44.2400 H   0  0  0  0  0  0  0  0  0  0  0  0
   47.6240    7.2150   43.3630 H   0  0  0  0  0  0  0  0  0  0  0  0
   46.6030    7.0090   44.7850 H   0  0  0  0  0  0  0  0  0  0  0  0
   46.1640    9.2770   43.9060 H   0  0  0  0  0  0  0  0  0  0  0  0
   45.8850    8.6200   42.2560 H   0  0  0  0  0  0  0  0  0  0  0  0
   44.5520    7.1880   45.4180 H   0  0  0  0  0  0  0  0  0  0  0  0
   42.9990    6.9090   44.5130 H   0  0  0  0  0  0  0  0  0  0  0  0
   43.8950    5.3630   43.0110 H   0  0  0  0  0  0  0  0  0  0  0  0
   44.7480    4.9710   44.5340 H   0  0  0  0  0  0  0  0  0  0  0  0
   43.1210   10.7330   41.9540 H   0  0  0  0  0  0  0  0  0  0  0  0
   41.6170   11.9700   43.4920 H   0  0  0  0  0  0  0  0  0  0  0  0
   41.7630   10.7380   44.8520 H   0  0  0  0  0  0  0  0  0  0  0  0
   44.2980   11.1070   44.8280 H   0  0  0  0  0  0  0  0  0  0  0  0
   44.0580   12.3180   43.4950 H   0  0  0  0  0  0  0  0  0  0  0  0
  2  7  1  0  0  0  0
  2  1  1  0  0  0  0
  3 26  1  0  0  0  0
  3  2  2  0  0  0  0
  4  5  2  0  0  0  0
  4  3  1  0  0  0  0
  5  6  1  0  0  0  0
  6 28  1  0  0  0  0
  6  7  2  0  0  0  0
  7 29  1  0  0  0  0
  8 12  1  0  0  0  0
  8  4  1  0  0  0  0
  9  8  1  0  0  0  0
 10  9  2  0  0  0  0
 10 11  1  0  0  0  0
 11 12  2  0  0  0  0
 12 30  1  0  0  0  0
 13 11  1  0  0  0  0
 13 15  1  0  0  0  0
 14 13  2  0  0  0  0
 15 16  1  0  0  0  0
 15 20  1  0  0  0  0
 16 32  1  0  0  0  0
 17 18  1  0  0  0  0
 17 16  1  0  0  0  0
 17 33  1  0  0  0  0
 18 19  1  0  0  0  0
 19 36  1  0  0  0  0
 19 35  1  0  0  0  0
 20 19  1  0  0  0  0
 20 38  1  0  0  0  0
 21 18  1  0  0  0  0
 22 21  2  0  0  0  0
 23 21  1  0  0  0  0
 23 24  1  0  0  0  0
 23 25  1  0  0  0  0
 24 25  1  0  0  0  0
 24 41  1  0  0  0  0
 25 42  1  0  0  0  0
 27  5  1  0  0  0  0
 31 16  1  0  0  0  0
 34 17  1  0  0  0  0
 37 20  1  0  0  0  0
 39 23  1  0  0  0  0
 40 24  1  0  0  0  0
 43 25  1  0  0  0  0
M  END
>  <Pose>
1

>  <Score>
-6.22

$$$$
