
 OpenBabel03172210433D

 44 47  0  0  1  0  0  0  0  0999 V2000
   46.4050   15.2550   45.2530 B   0  0  0  0  0  0  0  0  0  0  0  0
   45.0880   13.9620   45.7200 C   0  0  0  0  0  0  0  0  0  0  0  0
   44.4910   13.1540   44.7570 C   0  0  0  0  0  0  0  0  0  0  0  0
   43.5380   12.2190   45.1030 C   0  0  0  0  0  0  0  0  0  0  0  0
   43.2160   12.1370   46.4530 C   0  0  0  0  0  0  0  0  0  0  0  0
   43.7930   12.9220   47.4140 C   0  0  0  0  0  0  0  0  0  0  0  0
   44.7400   13.8470   47.0480 C   0  0  0  0  0  0  0  0  0  0  0  0
   42.8940   11.3680   44.1540 N   0  0  0  0  0  0  0  0  0  0  0  0
   43.4810   10.1940   43.6060 C   0  0  0  0  0  0  0  0  0  0  0  0
   44.7190    9.9980   43.5590 O   0  0  0  0  0  0  0  0  0  0  0  0
   42.3850    9.3470   43.1500 C   0  0  2  0  0  0  0  0  0  0  0  0
   41.3090   10.3480   42.7800 C   0  0  0  0  0  0  0  0  0  0  0  0
   41.5790   11.5380   43.6090 C   0  0  0  0  0  0  0  0  0  0  0  0
   40.8190   12.5210   43.8120 O   0  0  0  0  0  0  0  0  0  0  0  0
   41.9340    8.3600   44.0460 N   0  0  0  0  0  0  0  0  0  0  0  0
   42.2340    8.5180   45.4120 C   0  0  0  0  0  0  0  0  0  0  0  0
   43.4850    7.6900   45.7370 C   0  0  0  0  0  0  0  0  0  0  0  0
   43.7170    6.7160   44.6840 N   0  0  0  0  0  0  0  0  0  0  0  0
   42.6270    6.0620   43.9880 C   0  0  0  0  0  0  0  0  0  0  0  0
   41.5880    7.0860   43.5960 C   0  0  0  0  0  0  0  0  0  0  0  0
   45.0490    6.3760   44.2740 C   0  0  0  0  0  0  0  0  0  0  0  0
   45.3010    5.2270   43.6120 N   0  0  0  0  0  0  0  0  0  0  0  0
   46.5520    4.9220   43.2160 C   0  0  0  0  0  0  0  0  0  0  0  0
   47.6230    5.7710   43.4710 C   0  0  0  0  0  0  0  0  0  0  0  0
   47.3570    6.9480   44.1490 C   0  0  0  0  0  0  0  0  0  0  0  0
   46.0870    7.1960   44.5180 N   0  0  0  0  0  0  0  0  0  0  0  0
   44.7800   13.2610   43.7250 H   0  0  0  0  0  0  0  0  0  0  0  0
   42.4630   11.4020   46.7340 H   0  0  0  0  0  0  0  0  0  0  0  0
   43.5310   12.8500   48.4760 H   0  0  0  0  0  0  0  0  0  0  0  0
   45.1910   14.4650   47.8120 H   0  0  0  0  0  0  0  0  0  0  0  0
   42.6900    8.8420   42.1890 H   0  0  0  0  0  0  0  0  0  0  0  0
   41.4610   10.6440   41.7290 H   0  0  0  0  0  0  0  0  0  0  0  0
   40.2940    9.9330   42.9580 H   0  0  0  0  0  0  0  0  0  0  0  0
   41.4150    8.0840   46.0220 H   0  0  0  0  0  0  0  0  0  0  0  0
   42.3730    9.5350   45.7430 H   0  0  0  0  0  0  0  0  0  0  0  0
   44.3800    8.3630   45.7830 H   0  0  0  0  0  0  0  0  0  0  0  0
   43.3890    7.1270   46.6690 H   0  0  0  0  0  0  0  0  0  0  0  0
   42.1970    5.2390   44.6270 H   0  0  0  0  0  0  0  0  0  0  0  0
   42.9940    5.6200   43.0190 H   0  0  0  0  0  0  0  0  0  0  0  0
   41.3540    7.0580   42.5120 H   0  0  0  0  0  0  0  0  0  0  0  0
   40.6350    6.7690   44.1190 H   0  0  0  0  0  0  0  0  0  0  0  0
   46.7720    3.9990   42.6790 H   0  0  0  0  0  0  0  0  0  0  0  0
   48.6280    5.4950   43.1350 H   0  0  0  0  0  0  0  0  0  0  0  0
   48.1770    7.6460   44.3610 H   0  0  0  0  0  0  0  0  0  0  0  0
  1  2  1  0  0  0  0
  2  7  1  0  0  0  0
  3  4  1  0  0  0  0
  3  2  2  0  0  0  0
  4  5  2  0  0  0  0
  5 28  1  0  0  0  0
  5  6  1  0  0  0  0
  6 29  1  0  0  0  0
  7  6  2  0  0  0  0
  7 30  1  0  0  0  0
  8  4  1  0  0  0  0
  9  8  1  0  0  0  0
 10  9  2  0  0  0  0
 11 31  1  6  0  0  0
 11  9  1  0  0  0  0
 11 15  1  0  0  0  0
 12 33  1  0  0  0  0
 12 11  1  0  0  0  0
 12 13  1  0  0  0  0
 13 14  2  0  0  0  0
 13  8  1  0  0  0  0
 15 16  1  0  0  0  0
 16 17  1  0  0  0  0
 16 35  1  0  0  0  0
 16 34  1  0  0  0  0
 17 36  1  0  0  0  0
 17 37  1  0  0  0  0
 18 17  1  0  0  0  0
 19 38  1  0  0  0  0
 19 18  1  0  0  0  0
 20 19  1  0  0  0  0
 20 15  1  0  0  0  0
 20 41  1  0  0  0  0
 21 26  1  0  0  0  0
 21 18  1  0  0  0  0
 22 21  2  0  0  0  0
 23 24  2  0  0  0  0
 23 22  1  0  0  0  0
 24 25  1  0  0  0  0
 25 44  1  0  0  0  0
 25 26  2  0  0  0  0
 27  3  1  0  0  0  0
 32 12  1  0  0  0  0
 39 19  1  0  0  0  0
 40 20  1  0  0  0  0
 42 23  1  0  0  0  0
 43 24  1  0  0  0  0
M  END
>  <Pose>
1

>  <Score>
-5.62

$$$$
