
 OpenBabel03172210433D

 46 49  0  0  1  0  0  0  0  0999 V2000
   39.4550   13.5490   42.9600 Cl  0  0  0  0  0  0  0  0  0  0  0  0
   40.1440   12.5550   44.2160 C   0  0  0  0  0  0  0  0  0  0  0  0
   39.3150   12.0640   45.1980 C   0  0  0  0  0  0  0  0  0  0  0  0
   39.8720   11.2830   46.1800 C   0  0  0  0  0  0  0  0  0  0  0  0
   41.2480   11.0120   46.1540 C   0  0  0  0  0  0  0  0  0  0  0  0
   42.1020   11.4780   45.2010 C   0  0  0  0  0  0  0  0  0  0  0  0
   41.4710   12.2770   44.2150 C   0  0  0  0  0  0  0  0  0  0  0  0
   43.5180   11.2380   45.1220 C   0  0  2  0  0  0  0  0  0  0  0  0
   44.1990   11.7110   46.1490 O   0  0  0  0  0  0  0  0  0  0  0  0
   44.3280   10.5760   44.1270 C   0  0  0  0  0  0  0  0  0  0  0  0
   44.3630    9.1570   44.0180 N   0  0  0  0  0  0  0  0  0  0  0  0
   43.4080    8.2880   44.4730 C   0  0  1  0  0  0  0  0  0  0  0  0
   43.8610    7.0600   44.2090 N   0  0  0  0  0  0  0  0  0  0  0  0
   45.0610    7.0810   43.6050 C   0  0  0  0  0  0  0  0  0  0  0  0
   45.3770    8.4220   43.4850 C   0  0  0  0  0  0  0  0  0  0  0  0
   45.8920    5.9660   43.1530 C   0  0  0  0  0  0  0  0  0  0  0  0
   46.5270    5.0780   43.9830 C   0  0  0  0  0  0  0  0  0  0  0  0
   47.3080    4.0300   43.4740 C   0  0  0  0  0  0  0  0  0  0  0  0
   47.4770    3.8410   42.1200 C   0  0  0  0  0  0  0  0  0  0  0  0
   46.8440    4.7290   41.2780 C   0  0  0  0  0  0  0  0  0  0  0  0
   46.0760    5.7580   41.7820 C   0  0  0  0  0  0  0  0  0  0  0  0
   48.2470    2.8090   41.6020 O   0  0  0  0  0  0  0  0  0  0  0  0
   49.1120    2.0660   42.4420 C   0  0  0  0  0  0  0  0  0  0  0  0
   42.9020    6.0580   44.6610 C   0  0  0  0  0  0  0  0  0  0  0  0
   41.7180    6.8370   45.1550 C   0  0  0  0  0  0  0  0  0  0  0  0
   42.0840    8.2780   45.1420 C   0  0  0  0  0  0  0  0  0  0  0  0
   37.6000   12.4030   45.2260 Cl  0  0  0  0  0  0  0  0  0  0  0  0
   39.2330   10.8980   46.9460 H   0  0  0  0  0  0  0  0  0  0  0  0
   41.5740   10.4010   46.9530 H   0  0  0  0  0  0  0  0  0  0  0  0
   42.0750   12.6870   43.4230 H   0  0  0  0  0  0  0  0  0  0  0  0
   44.0860   10.9900   43.0700 H   0  0  0  0  0  0  0  0  0  0  0  0
   45.4250   10.9500   44.2020 H   0  0  0  0  0  0  0  0  0  0  0  0
   46.2780    8.8450   43.0440 H   0  0  0  0  0  0  0  0  0  0  0  0
   46.4240    5.1890   45.0410 H   0  0  0  0  0  0  0  0  0  0  0  0
   47.8050    3.3360   44.1380 H   0  0  0  0  0  0  0  0  0  0  0  0
   46.9670    4.5940   40.2030 H   0  0  0  0  0  0  0  0  0  0  0  0
   45.5770    6.4580   41.1100 H   0  0  0  0  0  0  0  0  0  0  0  0
   48.4570    1.4320   43.0950 H   0  0  0  0  0  0  0  0  0  0  0  0
   49.7560    1.4120   41.8210 H   0  0  0  0  0  0  0  0  0  0  0  0
   49.7070    2.7400   43.0970 H   0  0  0  0  0  0  0  0  0  0  0  0
   42.5290    5.4170   43.8250 H   0  0  0  0  0  0  0  0  0  0  0  0
   43.3520    5.4210   45.4470 H   0  0  0  0  0  0  0  0  0  0  0  0
   40.8070    6.6900   44.5240 H   0  0  0  0  0  0  0  0  0  0  0  0
   41.4800    6.4570   46.1900 H   0  0  0  0  0  0  0  0  0  0  0  0
   41.3690    8.9270   44.5990 H   0  0  0  0  0  0  0  0  0  0  0  0
   42.1470    8.6730   46.1880 H   0  0  0  0  0  0  0  0  0  0  0  0
  1  2  1  0  0  0  0
  2  3  1  0  0  0  0
  3 27  1  0  0  0  0
  3  4  2  0  0  0  0
  4 28  1  0  0  0  0
  5  4  1  0  0  0  0
  5 29  1  0  0  0  0
  6  5  2  0  0  0  0
  7  2  2  0  0  0  0
  7  6  1  0  0  0  0
  8  6  1  0  0  0  0
  8  9  1  6  0  0  0
 10 32  1  0  0  0  0
 10  8  1  0  0  0  0
 11 10  1  0  0  0  0
 12 11  1  1  0  0  0
 12 26  1  0  0  0  0
 13 12  1  0  0  0  0
 13 24  1  0  0  0  0
 14 13  1  0  0  0  0
 15 14  2  0  0  0  0
 15 11  1  0  0  0  0
 16 14  1  0  0  0  0
 16 17  1  0  0  0  0
 17 34  1  0  0  0  0
 18 17  2  0  0  0  0
 18 35  1  0  0  0  0
 19 18  1  0  0  0  0
 20 21  1  0  0  0  0
 20 19  2  0  0  0  0
 21 16  2  0  0  0  0
 22 19  1  0  0  0  0
 22 23  1  0  0  0  0
 23 38  1  0  0  0  0
 23 40  1  0  0  0  0
 24 25  1  0  0  0  0
 24 42  1  0  0  0  0
 25 44  1  0  0  0  0
 26 25  1  0  0  0  0
 26 46  1  0  0  0  0
 30  7  1  0  0  0  0
 31 10  1  0  0  0  0
 33 15  1  0  0  0  0
 36 20  1  0  0  0  0
 37 21  1  0  0  0  0
 39 23  1  0  0  0  0
 41 24  1  0  0  0  0
 43 25  1  0  0  0  0
 45 26  1  0  0  0  0
M  END
>  <Pose>
1

>  <Score>
-5.50

$$$$
