
 OpenBabel03172210433D

 44 47  0  0  1  0  0  0  0  0999 V2000
   42.9940   12.8240   45.1840 Cl  0  0  0  0  0  0  0  0  0  0  0  0
   42.7970   11.3310   44.2910 C   0  0  0  0  0  0  0  0  0  0  0  0
   41.5650   11.0310   43.7890 C   0  0  0  0  0  0  0  0  0  0  0  0
   41.3820    9.8640   43.0830 C   0  0  0  0  0  0  0  0  0  0  0  0
   42.4690    9.0070   42.8950 C   0  0  0  0  0  0  0  0  0  0  0  0
   43.7150    9.3040   43.3990 C   0  0  0  0  0  0  0  0  0  0  0  0
   43.8700   10.4670   44.0950 C   0  0  0  0  0  0  0  0  0  0  0  0
   44.8040    8.3520   43.1780 C   0  0  0  0  0  0  0  0  0  0  0  0
   46.1480    8.5120   43.2920 N   0  0  0  0  0  0  0  0  0  0  0  0
   46.7590    7.3620   42.9900 C   0  0  2  0  0  0  0  0  0  0  0  0
   45.8290    6.4120   42.6650 N   0  0  0  0  0  0  0  0  0  0  0  0
   44.6430    7.0310   42.7860 C   0  0  0  0  0  0  0  0  0  0  0  0
   46.0820    5.0410   42.3270 C   0  0  0  0  0  0  0  0  0  0  0  0
   47.4090    4.4970   42.2400 C   0  0  1  0  0  0  0  0  0  0  0  0
   47.8860    4.4820   40.9990 O   0  0  0  0  0  0  0  0  0  0  0  0
   48.3410    3.9630   43.2010 C   0  0  0  0  0  0  0  0  0  0  0  0
   49.3840    3.1140   42.7680 C   0  0  0  0  0  0  0  0  0  0  0  0
   50.3170    2.5600   43.6050 C   0  0  0  0  0  0  0  0  0  0  0  0
   50.2060    2.8690   44.9460 C   0  0  0  0  0  0  0  0  0  0  0  0
   49.1980    3.6950   45.3920 C   0  0  0  0  0  0  0  0  0  0  0  0
   48.2500    4.2560   44.5350 C   0  0  0  0  0  0  0  0  0  0  0  0
   51.3540    1.7110   43.1520 N   0  0  0  0  0  0  0  0  0  0  0  0
   51.5410    0.6290   43.7180 O   0  0  0  0  0  0  0  0  0  0  0  0
   52.1570    2.0510   42.1020 O   0  0  0  0  0  0  0  0  0  0  0  0
   48.2280    7.4920   43.1140 C   0  0  0  0  0  0  0  0  0  0  0  0
   48.4110    8.9790   42.9900 C   0  0  0  0  0  0  0  0  0  0  0  0
   47.1520    9.5240   43.6250 C   0  0  0  0  0  0  0  0  0  0  0  0
   40.1790   12.0990   44.0160 Cl  0  0  0  0  0  0  0  0  0  0  0  0
   40.4070    9.6450   42.6970 H   0  0  0  0  0  0  0  0  0  0  0  0
   42.2610    8.1070   42.3320 H   0  0  0  0  0  0  0  0  0  0  0  0
   44.7960   10.7870   44.5380 H   0  0  0  0  0  0  0  0  0  0  0  0
   43.6800    6.5450   42.5940 H   0  0  0  0  0  0  0  0  0  0  0  0
   45.4260    4.4280   43.0360 H   0  0  0  0  0  0  0  0  0  0  0  0
   45.5330    4.8920   41.3370 H   0  0  0  0  0  0  0  0  0  0  0  0
   49.4750    2.8670   41.7100 H   0  0  0  0  0  0  0  0  0  0  0  0
   50.9390    2.4360   45.6200 H   0  0  0  0  0  0  0  0  0  0  0  0
   49.1190    3.9340   46.4580 H   0  0  0  0  0  0  0  0  0  0  0  0
   47.5070    4.8860   44.9760 H   0  0  0  0  0  0  0  0  0  0  0  0
   48.7720    7.0140   42.2810 H   0  0  0  0  0  0  0  0  0  0  0  0
   48.6020    7.1300   44.1090 H   0  0  0  0  0  0  0  0  0  0  0  0
   48.4250    9.2150   41.9040 H   0  0  0  0  0  0  0  0  0  0  0  0
   49.3170    9.3550   43.5100 H   0  0  0  0  0  0  0  0  0  0  0  0
   47.3320    9.5750   44.7190 H   0  0  0  0  0  0  0  0  0  0  0  0
   46.9060   10.5230   43.1870 H   0  0  0  0  0  0  0  0  0  0  0  0
  2  1  1  0  0  0  0
  3 28  1  0  0  0  0
  3  2  2  0  0  0  0
  4  3  1  0  0  0  0
  5  4  2  0  0  0  0
  5  6  1  0  0  0  0
  6  7  2  0  0  0  0
  7  2  1  0  0  0  0
  7 31  1  0  0  0  0
  8  9  1  0  0  0  0
  8  6  1  0  0  0  0
  9 27  1  0  0  0  0
 10 11  1  1  0  0  0
 10 25  1  0  0  0  0
 10  9  1  0  0  0  0
 11 12  1  0  0  0  0
 12  8  2  0  0  0  0
 13 11  1  0  0  0  0
 13 33  1  0  0  0  0
 14 15  1  1  0  0  0
 14 13  1  0  0  0  0
 14 16  1  0  0  0  0
 16 21  1  0  0  0  0
 17 16  2  0  0  0  0
 17 18  1  0  0  0  0
 18 19  2  0  0  0  0
 19 20  1  0  0  0  0
 19 36  1  0  0  0  0
 20 37  1  0  0  0  0
 21 38  1  0  0  0  0
 21 20  2  0  0  0  0
 22 18  1  0  0  0  0
 22 23  2  0  0  0  0
 24 22  2  0  0  0  0
 25 40  1  0  0  0  0
 26 25  1  0  0  0  0
 26 42  1  0  0  0  0
 26 27  1  0  0  0  0
 27 43  1  0  0  0  0
 29  4  1  0  0  0  0
 30  5  1  0  0  0  0
 32 12  1  0  0  0  0
 34 13  1  0  0  0  0
 35 17  1  0  0  0  0
 39 25  1  0  0  0  0
 41 26  1  0  0  0  0
 44 27  1  0  0  0  0
M  END
>  <Pose>
1

>  <Score>
-5.93

$$$$
