
 OpenBabel03172210433D

 44 47  0  0  1  0  0  0  0  0999 V2000
   51.5750   -0.4560   45.8690 Cl  0  0  0  0  0  0  0  0  0  0  0  0
   51.1170    0.6940   44.6520 C   0  0  0  0  0  0  0  0  0  0  0  0
   51.4310    0.4840   43.3370 C   0  0  0  0  0  0  0  0  0  0  0  0
   51.0430    1.4290   42.4180 C   0  0  0  0  0  0  0  0  0  0  0  0
   50.3610    2.5490   42.8140 C   0  0  0  0  0  0  0  0  0  0  0  0
   50.0220    2.7950   44.1490 C   0  0  0  0  0  0  0  0  0  0  0  0
   50.4150    1.8530   45.0400 C   0  0  0  0  0  0  0  0  0  0  0  0
   49.3100    4.0200   44.5150 C   0  0  0  0  0  0  0  0  0  0  0  0
   49.4860    4.8580   45.5500 N   0  0  0  0  0  0  0  0  0  0  0  0
   48.5850    5.8600   45.4770 C   0  0  2  0  0  0  0  0  0  0  0  0
   47.8260    5.6570   44.3850 N   0  0  0  0  0  0  0  0  0  0  0  0
   48.2420    4.5220   43.7550 C   0  0  0  0  0  0  0  0  0  0  0  0
   46.7870    6.5010   43.9230 C   0  0  0  0  0  0  0  0  0  0  0  0
   45.4030    6.1220   43.9160 C   0  0  2  0  0  0  0  0  0  0  0  0
   45.2540    4.8130   43.9530 O   0  0  0  0  0  0  0  0  0  0  0  0
   44.1770    6.8830   43.8770 C   0  0  0  0  0  0  0  0  0  0  0  0
   44.0340    8.1180   43.3040 C   0  0  0  0  0  0  0  0  0  0  0  0
   42.8120    8.7950   43.3020 C   0  0  0  0  0  0  0  0  0  0  0  0
   41.7190    8.2330   43.8800 C   0  0  0  0  0  0  0  0  0  0  0  0
   41.8340    6.9900   44.4640 C   0  0  0  0  0  0  0  0  0  0  0  0
   43.0260    6.3180   44.4710 C   0  0  0  0  0  0  0  0  0  0  0  0
   42.7300   10.0820   42.6870 N   0  0  0  0  0  0  0  0  0  0  0  0
   41.6650   10.4380   42.1520 O   0  0  0  0  0  0  0  0  0  0  0  0
   43.7850   10.9370   42.6660 O   0  0  0  0  0  0  0  0  0  0  0  0
   48.7770    6.7980   46.6070 C   0  0  0  0  0  0  0  0  0  0  0  0
   49.3250    5.8440   47.6370 C   0  0  0  0  0  0  0  0  0  0  0  0
   50.3080    5.0640   46.7480 C   0  0  0  0  0  0  0  0  0  0  0  0
   52.3020   -0.9430   42.8190 Cl  0  0  0  0  0  0  0  0  0  0  0  0
   51.2750    1.2980   41.3550 H   0  0  0  0  0  0  0  0  0  0  0  0
   50.0710    3.2670   42.0720 H   0  0  0  0  0  0  0  0  0  0  0  0
   50.2090    1.9680   46.0820 H   0  0  0  0  0  0  0  0  0  0  0  0
   47.8270    4.1120   42.8650 H   0  0  0  0  0  0  0  0  0  0  0  0
   47.0280    6.8480   42.8540 H   0  0  0  0  0  0  0  0  0  0  0  0
   46.8440    7.4810   44.5200 H   0  0  0  0  0  0  0  0  0  0  0  0
   44.8690    8.6120   42.8330 H   0  0  0  0  0  0  0  0  0  0  0  0
   40.7670    8.7850   43.8670 H   0  0  0  0  0  0  0  0  0  0  0  0
   40.9480    6.5370   44.9310 H   0  0  0  0  0  0  0  0  0  0  0  0
   43.0660    5.3370   44.9460 H   0  0  0  0  0  0  0  0  0  0  0  0
   49.5460    7.5500   46.3130 H   0  0  0  0  0  0  0  0  0  0  0  0
   47.8360    7.2710   46.9440 H   0  0  0  0  0  0  0  0  0  0  0  0
   48.5240    5.1260   47.8830 H   0  0  0  0  0  0  0  0  0  0  0  0
   49.8090    6.3100   48.4800 H   0  0  0  0  0  0  0  0  0  0  0  0
   51.1160    5.7400   46.4900 H   0  0  0  0  0  0  0  0  0  0  0  0
   50.5850    4.1250   47.2550 H   0  0  0  0  0  0  0  0  0  0  0  0
  2  7  1  0  0  0  0
  2  1  1  0  0  0  0
  3  2  2  0  0  0  0
  4  5  2  0  0  0  0
  4  3  1  0  0  0  0
  5  6  1  0  0  0  0
  6  8  1  0  0  0  0
  6  7  2  0  0  0  0
  7 31  1  0  0  0  0
  8  9  1  0  0  0  0
  9 27  1  0  0  0  0
 10 11  1  6  0  0  0
 10  9  1  0  0  0  0
 10 25  1  0  0  0  0
 12 11  1  0  0  0  0
 12  8  2  0  0  0  0
 13 11  1  0  0  0  0
 13 34  1  0  0  0  0
 14 13  1  0  0  0  0
 14 15  1  6  0  0  0
 16 14  1  0  0  0  0
 16 21  1  0  0  0  0
 17 16  2  0  0  0  0
 18 17  1  0  0  0  0
 18 19  2  0  0  0  0
 19 20  1  0  0  0  0
 20 21  2  0  0  0  0
 20 37  1  0  0  0  0
 21 38  1  0  0  0  0
 22 18  1  0  0  0  0
 23 22  2  0  0  0  0
 24 22  2  0  0  0  0
 25 40  1  0  0  0  0
 25 26  1  0  0  0  0
 26 41  1  0  0  0  0
 26 42  1  0  0  0  0
 27 44  1  0  0  0  0
 27 26  1  0  0  0  0
 28  3  1  0  0  0  0
 29  4  1  0  0  0  0
 30  5  1  0  0  0  0
 32 12  1  0  0  0  0
 33 13  1  0  0  0  0
 35 17  1  0  0  0  0
 36 19  1  0  0  0  0
 39 25  1  0  0  0  0
 43 27  1  0  0  0  0
M  END
>  <Pose>
1

>  <Score>
-6.18

$$$$
