
 OpenBabel03172210433D

 55 58  0  0  0  0  0  0  0  0999 V2000
   47.5200    4.3800   43.1540 S   0  0  0  0  0  0  0  0  0  0  0  0
   48.0110    3.7050   41.8690 O   0  0  0  0  0  0  0  0  0  0  0  0
   46.3440    3.4980   43.5810 O   0  0  0  0  0  0  0  0  0  0  0  0
   46.9740    5.8920   42.7710 N   0  0  0  0  0  0  0  0  0  0  0  0
   46.9300    6.9610   43.6590 C   0  0  0  0  0  0  0  0  0  0  0  0
   45.6540    7.1570   44.4120 C   0  0  0  0  0  0  0  0  0  0  0  0
   44.5150    6.4920   43.6430 C   0  0  0  0  0  0  0  0  0  0  0  0
   44.8070    6.8590   42.1790 C   0  0  0  0  0  0  0  0  0  0  0  0
   45.9290    5.9250   41.7550 C   0  0  0  0  0  0  0  0  0  0  0  0
   43.2100    6.9650   44.0710 C   0  0  0  0  0  0  0  0  0  0  0  0
   42.4000    6.1600   44.6020 O   0  0  0  0  0  0  0  0  0  0  0  0
   42.8250    8.3000   43.9110 N   0  0  0  0  0  0  0  0  0  0  0  0
   41.9730    8.7600   42.8080 C   0  0  0  0  0  0  0  0  0  0  0  0
   41.9670   10.2730   42.8770 C   0  0  0  0  0  0  0  0  0  0  0  0
   41.3830   10.7190   44.1280 N   0  0  0  0  0  0  0  0  0  0  0  0
   42.1260   10.2130   45.2680 C   0  0  0  0  0  0  0  0  0  0  0  0
   43.2690    9.3180   44.8220 C   0  0  0  0  0  0  0  0  0  0  0  0
   41.2930   12.1620   44.1740 C   0  0  0  0  0  0  0  0  0  0  0  0
   48.8280    4.2230   44.2900 C   0  0  0  0  0  0  0  0  0  0  0  0
   48.9430    5.1550   45.3360 C   0  0  0  0  0  0  0  0  0  0  0  0
   49.9730    5.1270   46.2390 C   0  0  0  0  0  0  0  0  0  0  0  0
   50.9310    4.1660   46.1380 C   0  0  0  0  0  0  0  0  0  0  0  0
   50.8710    3.2280   45.1390 C   0  0  0  0  0  0  0  0  0  0  0  0
   49.8110    3.2780   44.2320 C   0  0  0  0  0  0  0  0  0  0  0  0
   49.7410    2.0080   43.0220 Cl  0  0  0  0  0  0  0  0  0  0  0  0
   52.0070    4.1550   47.0920 N   0  0  0  0  0  0  0  0  0  0  0  0
   52.0470    5.1390   48.1110 C   0  0  0  0  0  0  0  0  0  0  0  0
   52.7040    4.9720   49.1590 O   0  0  0  0  0  0  0  0  0  0  0  0
   51.2720    6.3880   47.8880 C   0  0  0  0  0  0  0  0  0  0  0  0
   50.0540    6.0740   47.2680 O   0  0  0  0  0  0  0  0  0  0  0  0
   47.7810    6.9950   44.3390 H   0  0  0  0  0  0  0  0  0  0  0  0
   47.1000    7.9080   43.0120 H   0  0  0  0  0  0  0  0  0  0  0  0
   45.4060    8.2480   44.4280 H   0  0  0  0  0  0  0  0  0  0  0  0
   45.6530    6.8330   45.4560 H   0  0  0  0  0  0  0  0  0  0  0  0
   44.6310    5.4020   43.7520 H   0  0  0  0  0  0  0  0  0  0  0  0
   43.9420    6.7840   41.5300 H   0  0  0  0  0  0  0  0  0  0  0  0
   45.2200    7.9090   42.2190 H   0  0  0  0  0  0  0  0  0  0  0  0
   46.3080    6.1860   40.7530 H   0  0  0  0  0  0  0  0  0  0  0  0
   45.4990    4.9080   41.6980 H   0  0  0  0  0  0  0  0  0  0  0  0
   40.9320    8.3870   43.0450 H   0  0  0  0  0  0  0  0  0  0  0  0
   42.3350    8.3930   41.8470 H   0  0  0  0  0  0  0  0  0  0  0  0
   43.0340   10.6110   42.7560 H   0  0  0  0  0  0  0  0  0  0  0  0
   41.3800   10.6660   42.0270 H   0  0  0  0  0  0  0  0  0  0  0  0
   41.4720    9.6420   45.9400 H   0  0  0  0  0  0  0  0  0  0  0  0
   42.5940   11.0830   45.7730 H   0  0  0  0  0  0  0  0  0  0  0  0
   44.0810    9.9180   44.3420 H   0  0  0  0  0  0  0  0  0  0  0  0
   43.7170    8.8590   45.7030 H   0  0  0  0  0  0  0  0  0  0  0  0
   40.6450   12.4300   45.0290 H   0  0  0  0  0  0  0  0  0  0  0  0
   40.8160   12.5330   43.2550 H   0  0  0  0  0  0  0  0  0  0  0  0
   42.2860   12.6400   44.3670 H   0  0  0  0  0  0  0  0  0  0  0  0
   48.1680    5.9210   45.4060 H   0  0  0  0  0  0  0  0  0  0  0  0
   51.6210    2.4730   45.0550 H   0  0  0  0  0  0  0  0  0  0  0  0
   52.7430    3.4250   47.0230 H   0  0  0  0  0  0  0  0  0  0  0  0
   51.0770    6.9130   48.8490 H   0  0  0  0  0  0  0  0  0  0  0  0
   51.8160    7.0810   47.2290 H   0  0  0  0  0  0  0  0  0  0  0  0
  1  3  2  0  0  0  0
  1 19  1  0  0  0  0
  2  1  2  0  0  0  0
  4  1  1  0  0  0  0
  4  5  1  0  0  0  0
  5 31  1  0  0  0  0
  5  6  1  0  0  0  0
  6 33  1  0  0  0  0
  6 34  1  0  0  0  0
  7 35  1  0  0  0  0
  7 10  1  0  0  0  0
  7  6  1  0  0  0  0
  8 37  1  0  0  0  0
  8  7  1  0  0  0  0
  9  8  1  0  0  0  0
  9  4  1  0  0  0  0
 10 11  2  0  0  0  0
 12 10  1  0  0  0  0
 12 17  1  0  0  0  0
 13 14  1  0  0  0  0
 13 40  1  0  0  0  0
 13 12  1  0  0  0  0
 14 15  1  0  0  0  0
 15 18  1  0  0  0  0
 15 16  1  0  0  0  0
 16 45  1  0  0  0  0
 16 44  1  0  0  0  0
 17 16  1  0  0  0  0
 17 47  1  0  0  0  0
 18 50  1  0  0  0  0
 18 48  1  0  0  0  0
 19 20  1  0  0  0  0
 20 51  1  0  0  0  0
 20 21  2  0  0  0  0
 21 30  1  0  0  0  0
 22 21  1  0  0  0  0
 22 26  1  0  0  0  0
 23 22  2  0  0  0  0
 24 19  2  0  0  0  0
 24 23  1  0  0  0  0
 25 24  1  0  0  0  0
 26 27  1  0  0  0  0
 27 28  2  0  0  0  0
 29 27  1  0  0  0  0
 29 54  1  0  0  0  0
 30 29  1  0  0  0  0
 32  5  1  0  0  0  0
 36  8  1  0  0  0  0
 38  9  1  0  0  0  0
 39  9  1  0  0  0  0
 41 13  1  0  0  0  0
 42 14  1  0  0  0  0
 43 14  1  0  0  0  0
 46 17  1  0  0  0  0
 49 18  1  0  0  0  0
 52 23  1  0  0  0  0
 53 26  1  0  0  0  0
 55 29  1  0  0  0  0
M  END
>  <Pose>
1

>  <Score>
-7.18

$$$$
