
 OpenBabel03172210433D

 60 63  0  0  1  0  0  0  0  0999 V2000
   42.7490    9.3160   49.6430 Cl  0  0  0  0  0  0  0  0  0  0  0  0
   43.1230    9.0900   47.9360 C   0  0  0  0  0  0  0  0  0  0  0  0
   44.3760    9.3900   47.4310 C   0  0  0  0  0  0  0  0  0  0  0  0
   44.6530    9.2080   46.0930 C   0  0  0  0  0  0  0  0  0  0  0  0
   43.7230    8.7270   45.1960 C   0  0  0  0  0  0  0  0  0  0  0  0
   42.4610    8.4280   45.7250 C   0  0  0  0  0  0  0  0  0  0  0  0
   42.1810    8.6090   47.0600 C   0  0  0  0  0  0  0  0  0  0  0  0
   44.0490    8.5410   43.7610 C   0  0  2  0  0  0  0  0  0  0  0  0
   42.8140    8.0610   43.1280 N   0  0  0  0  0  0  0  0  0  0  0  0
   42.6610    6.7260   43.5890 C   0  0  0  0  0  0  0  0  0  0  0  0
   41.5950    6.1010   43.7180 O   0  0  0  0  0  0  0  0  0  0  0  0
   44.0050    6.2370   43.8790 C   0  0  0  0  0  0  0  0  0  0  0  0
   44.3950    5.1140   44.3150 O   0  0  0  0  0  0  0  0  0  0  0  0
   44.9190    7.3450   43.5640 C   0  0  0  0  0  0  0  0  0  0  0  0
   46.1900    7.2460   43.2270 C   0  0  0  0  0  0  0  0  0  0  0  0
   46.9120    8.4220   43.0040 O   0  0  0  0  0  0  0  0  0  0  0  0
   46.8720    5.9690   43.0710 C   0  0  0  0  0  0  0  0  0  0  0  0
   46.7680    5.2120   41.9160 C   0  0  0  0  0  0  0  0  0  0  0  0
   47.3950    3.9900   41.7840 C   0  0  0  0  0  0  0  0  0  0  0  0
   48.1610    3.4700   42.8170 C   0  0  0  0  0  0  0  0  0  0  0  0
   48.2720    4.2130   43.9710 C   0  0  0  0  0  0  0  0  0  0  0  0
   47.6320    5.4500   44.0930 C   0  0  0  0  0  0  0  0  0  0  0  0
   48.8000    2.2390   42.6990 O   0  0  0  0  0  0  0  0  0  0  0  0
   50.1780    2.1620   42.9380 C   0  0  0  0  0  0  0  0  0  0  0  0
   47.2550    3.2160   40.5310 C   0  0  0  0  0  0  0  0  0  0  0  0
   41.9380    8.8070   42.2240 C   0  0  0  0  0  0  0  0  0  0  0  0
   41.6480   10.1270   42.8990 C   0  0  0  0  0  0  0  0  0  0  0  0
   40.2560   10.4820   42.8420 N   0  0  0  0  0  4  0  0  0  0  0  0
   40.0860   11.8060   42.3360 C   0  0  0  0  0  0  0  0  0  0  0  0
   39.9300   12.8830   43.3560 C   0  0  0  0  0  0  0  0  0  0  0  0
   39.2990   12.5080   44.5120 O   0  0  0  0  0  0  0  0  0  0  0  0
   39.8590   11.3820   45.1020 C   0  0  0  0  0  0  0  0  0  0  0  0
   39.6700   10.2450   44.1320 C   0  0  0  0  0  0  0  0  0  0  0  0
   45.1290    9.7690   48.1010 H   0  0  0  0  0  0  0  0  0  0  0  0
   45.6380    9.4380   45.6630 H   0  0  0  0  0  0  0  0  0  0  0  0
   41.7390    8.0510   45.0150 H   0  0  0  0  0  0  0  0  0  0  0  0
   41.2060    8.3720   47.4420 H   0  0  0  0  0  0  0  0  0  0  0  0
   44.4370    9.4420   43.2800 H   0  0  0  0  0  0  0  0  0  0  0  0
   46.1550    5.6470   41.1130 H   0  0  0  0  0  0  0  0  0  0  0  0
   48.8760    3.8110   44.7970 H   0  0  0  0  0  0  0  0  0  0  0  0
   47.7410    5.9760   45.0270 H   0  0  0  0  0  0  0  0  0  0  0  0
   50.7400    2.7790   42.1800 H   0  0  0  0  0  0  0  0  0  0  0  0
   50.5540    1.1270   42.7860 H   0  0  0  0  0  0  0  0  0  0  0  0
   50.4600    2.4630   43.9690 H   0  0  0  0  0  0  0  0  0  0  0  0
   46.4300    2.4510   40.6240 H   0  0  0  0  0  0  0  0  0  0  0  0
   48.1710    2.6460   40.2850 H   0  0  0  0  0  0  0  0  0  0  0  0
   46.9820    3.8810   39.6780 H   0  0  0  0  0  0  0  0  0  0  0  0
   40.9770    8.2900   42.0680 H   0  0  0  0  0  0  0  0  0  0  0  0
   42.4350    8.9130   41.2620 H   0  0  0  0  0  0  0  0  0  0  0  0
   41.9570   10.0930   43.9600 H   0  0  0  0  0  0  0  0  0  0  0  0
   42.2140   10.9700   42.4400 H   0  0  0  0  0  0  0  0  0  0  0  0
   39.8230    9.8180   42.1390 H   0  0  0  0  0  0  0  0  0  0  0  0
   39.1470   11.8220   41.7040 H   0  0  0  0  0  0  0  0  0  0  0  0
   40.9030   12.0320   41.5970 H   0  0  0  0  0  0  0  0  0  0  0  0
   39.3830   13.7600   42.9310 H   0  0  0  0  0  0  0  0  0  0  0  0
   40.9600   13.2730   43.6060 H   0  0  0  0  0  0  0  0  0  0  0  0
   39.2050   11.1490   45.9880 H   0  0  0  0  0  0  0  0  0  0  0  0
   40.9040   11.5290   45.4090 H   0  0  0  0  0  0  0  0  0  0  0  0
   40.1000    9.3410   44.6320 H   0  0  0  0  0  0  0  0  0  0  0  0
   38.5730   10.0500   44.0740 H   0  0  0  0  0  0  0  0  0  0  0  0
  2  1  1  0  0  0  0
  3  2  1  0  0  0  0
  3 34  1  0  0  0  0
  4  3  2  0  0  0  0
  5  6  2  0  0  0  0
  5  4  1  0  0  0  0
  6  7  1  0  0  0  0
  7 37  1  0  0  0  0
  7  2  2  0  0  0  0
  8 38  1  6  0  0  0
  8  5  1  0  0  0  0
  9 10  1  0  0  0  0
  9  8  1  0  0  0  0
 10 11  2  0  0  0  0
 10 12  1  0  0  0  0
 12 13  2  0  0  0  0
 14  8  1  0  0  0  0
 14 12  1  0  0  0  0
 15 14  2  0  0  0  0
 16 15  1  0  0  0  0
 17 15  1  0  0  0  0
 17 22  1  0  0  0  0
 18 17  2  0  0  0  0
 19 18  1  0  0  0  0
 19 20  2  0  0  0  0
 20 21  1  0  0  0  0
 21 22  2  0  0  0  0
 21 40  1  0  0  0  0
 22 41  1  0  0  0  0
 23 20  1  0  0  0  0
 23 24  1  0  0  0  0
 24 44  1  0  0  0  0
 25 45  1  0  0  0  0
 25 19  1  0  0  0  0
 26 27  1  0  0  0  0
 26  9  1  0  0  0  0
 27 50  1  0  0  0  0
 28 27  1  0  0  0  0
 28 33  1  0  0  0  0
 29 28  1  0  0  0  0
 29 30  1  0  0  0  0
 30 56  1  0  0  0  0
 30 31  1  0  0  0  0
 31 32  1  0  0  0  0
 32 58  1  0  0  0  0
 32 57  1  0  0  0  0
 33 59  1  0  0  0  0
 33 32  1  0  0  0  0
 35  4  1  0  0  0  0
 36  6  1  0  0  0  0
 39 18  1  0  0  0  0
 42 24  1  0  0  0  0
 43 24  1  0  0  0  0
 46 25  1  0  0  0  0
 47 25  1  0  0  0  0
 48 26  1  0  0  0  0
 49 26  1  0  0  0  0
 51 27  1  0  0  0  0
 52 28  1  0  0  0  0
 53 29  1  0  0  0  0
 54 29  1  0  0  0  0
 55 30  1  0  0  0  0
 60 33  1  0  0  0  0
M  END
>  <Pose>
1

>  <Score>
-5.59

$$$$
