
 OpenBabel03172210433D

 56 59  0  0  0  0  0  0  0  0999 V2000
   42.1790    7.1540   45.6770 Cl  0  0  0  0  0  0  0  0  0  0  0  0
   41.3290    8.6170   46.0210 C   0  0  0  0  0  0  0  0  0  0  0  0
   41.4100    9.6600   45.1230 C   0  0  0  0  0  0  0  0  0  0  0  0
   40.7000   10.8100   45.4590 C   0  0  0  0  0  0  0  0  0  0  0  0
   39.9640   10.8900   46.6250 C   0  0  0  0  0  0  0  0  0  0  0  0
   39.9130    9.8270   47.4890 C   0  0  0  0  0  0  0  0  0  0  0  0
   40.5950    8.6900   47.1890 C   0  0  0  0  0  0  0  0  0  0  0  0
   42.1410    9.6280   43.9340 N   0  0  0  0  0  0  0  0  0  0  0  0
   43.3060   10.4320   43.6330 C   0  0  0  0  0  0  0  0  0  0  0  0
   44.0530    9.7840   42.4700 C   0  0  0  0  0  0  0  0  0  0  0  0
   44.0590    8.3400   42.6450 N   0  0  0  0  0  0  0  0  0  0  0  0
   42.7930    7.6560   42.7620 C   0  0  0  0  0  0  0  0  0  0  0  0
   41.7070    8.6990   42.8790 C   0  0  0  0  0  0  0  0  0  0  0  0
   45.2720    7.5990   42.7020 C   0  0  0  0  0  0  0  0  0  0  0  0
   46.1240    7.9100   43.5920 O   0  0  0  0  0  0  0  0  0  0  0  0
   45.6040    6.4960   41.7930 C   0  0  0  0  0  0  0  0  0  0  0  0
   46.3720    5.4280   42.4310 N   0  0  0  0  0  0  0  0  0  0  0  0
   47.5000    4.8650   42.0470 N   0  0  0  0  0  0  0  0  0  0  0  0
   47.9160    3.9120   42.8840 C   0  0  0  0  0  0  0  0  0  0  0  0
   46.9790    3.8540   43.9000 C   0  0  0  0  0  0  0  0  0  0  0  0
   46.0310    4.8050   43.5930 C   0  0  0  0  0  0  0  0  0  0  0  0
   44.8330    5.0950   44.4080 C   0  0  0  0  0  0  0  0  0  0  0  0
   49.1340    3.0910   42.7550 C   0  0  0  0  0  0  0  0  0  0  0  0
   49.2710    2.3230   41.7810 O   0  0  0  0  0  0  0  0  0  0  0  0
   50.1340    3.1920   43.7470 N   0  0  0  0  0  0  0  0  0  0  0  0
   49.9470    3.8450   45.0110 C   0  0  0  0  0  0  0  0  0  0  0  0
   51.2230    3.5870   45.8230 C   0  0  0  0  0  0  0  0  0  0  0  0
   51.5130    2.2420   45.8780 O   0  0  0  0  0  0  0  0  0  0  0  0
   51.7580    1.6690   44.6520 C   0  0  0  0  0  0  0  0  0  0  0  0
   51.4540    2.6040   43.5000 C   0  0  0  0  0  0  0  0  0  0  0  0
   40.7070   11.6680   44.8190 H   0  0  0  0  0  0  0  0  0  0  0  0
   39.4170   11.7900   46.8740 H   0  0  0  0  0  0  0  0  0  0  0  0
   39.3230    9.9020   48.4160 H   0  0  0  0  0  0  0  0  0  0  0  0
   40.5640    7.8300   47.8690 H   0  0  0  0  0  0  0  0  0  0  0  0
   43.0550   11.4550   43.3130 H   0  0  0  0  0  0  0  0  0  0  0  0
   44.0150   10.4060   44.4850 H   0  0  0  0  0  0  0  0  0  0  0  0
   45.1050   10.1250   42.5450 H   0  0  0  0  0  0  0  0  0  0  0  0
   43.6150   10.0750   41.4950 H   0  0  0  0  0  0  0  0  0  0  0  0
   42.6100    6.9540   41.9260 H   0  0  0  0  0  0  0  0  0  0  0  0
   42.7730    7.1090   43.7450 H   0  0  0  0  0  0  0  0  0  0  0  0
   41.6790    9.2840   41.9240 H   0  0  0  0  0  0  0  0  0  0  0  0
   40.7190    8.2550   43.1170 H   0  0  0  0  0  0  0  0  0  0  0  0
   46.1480    6.8420   40.8910 H   0  0  0  0  0  0  0  0  0  0  0  0
   44.6570    6.0330   41.4550 H   0  0  0  0  0  0  0  0  0  0  0  0
   47.0010    3.1920   44.7500 H   0  0  0  0  0  0  0  0  0  0  0  0
   45.1330    5.3340   45.4460 H   0  0  0  0  0  0  0  0  0  0  0  0
   44.2860    5.9630   43.9940 H   0  0  0  0  0  0  0  0  0  0  0  0
   44.1280    4.2260   44.3780 H   0  0  0  0  0  0  0  0  0  0  0  0
   49.0790    3.4210   45.5590 H   0  0  0  0  0  0  0  0  0  0  0  0
   49.8180    4.9310   44.9500 H   0  0  0  0  0  0  0  0  0  0  0  0
   52.0480    4.2200   45.4590 H   0  0  0  0  0  0  0  0  0  0  0  0
   50.9800    3.9160   46.8560 H   0  0  0  0  0  0  0  0  0  0  0  0
   52.8390    1.3800   44.5690 H   0  0  0  0  0  0  0  0  0  0  0  0
   51.1430    0.7610   44.5080 H   0  0  0  0  0  0  0  0  0  0  0  0
   51.4370    2.0330   42.5530 H   0  0  0  0  0  0  0  0  0  0  0  0
   52.2240    3.3940   43.4890 H   0  0  0  0  0  0  0  0  0  0  0  0
  1  2  1  0  0  0  0
  2  7  1  0  0  0  0
  3  4  1  0  0  0  0
  3  2  2  0  0  0  0
  4  5  2  0  0  0  0
  5 32  1  0  0  0  0
  5  6  1  0  0  0  0
  6 33  1  0  0  0  0
  7  6  2  0  0  0  0
  7 34  1  0  0  0  0
  8  3  1  0  0  0  0
  9  8  1  0  0  0  0
  9 36  1  0  0  0  0
 10 37  1  0  0  0  0
 10 11  1  0  0  0  0
 10  9  1  0  0  0  0
 11 14  1  0  0  0  0
 11 12  1  0  0  0  0
 12 13  1  0  0  0  0
 12 40  1  0  0  0  0
 13 42  1  0  0  0  0
 13  8  1  0  0  0  0
 14 15  2  0  0  0  0
 16 17  1  0  0  0  0
 16 14  1  0  0  0  0
 17 21  1  0  0  0  0
 18 17  1  0  0  0  0
 18 19  2  0  0  0  0
 19 20  1  0  0  0  0
 20 45  1  0  0  0  0
 21 20  2  0  0  0  0
 21 22  1  0  0  0  0
 22 46  1  0  0  0  0
 23 19  1  0  0  0  0
 23 25  1  0  0  0  0
 24 23  2  0  0  0  0
 25 26  1  0  0  0  0
 26 49  1  0  0  0  0
 26 27  1  0  0  0  0
 27 28  1  0  0  0  0
 27 52  1  0  0  0  0
 29 28  1  0  0  0  0
 30 25  1  0  0  0  0
 30 29  1  0  0  0  0
 31  4  1  0  0  0  0
 35  9  1  0  0  0  0
 38 10  1  0  0  0  0
 39 12  1  0  0  0  0
 41 13  1  0  0  0  0
 43 16  1  0  0  0  0
 44 16  1  0  0  0  0
 47 22  1  0  0  0  0
 48 22  1  0  0  0  0
 50 26  1  0  0  0  0
 51 27  1  0  0  0  0
 53 29  1  0  0  0  0
 54 29  1  0  0  0  0
 55 30  1  0  0  0  0
 56 30  1  0  0  0  0
M  END
>  <Pose>
1

>  <Score>
-5.36

$$$$
