
 OpenBabel03172210433D

 46 49  0  0  1  0  0  0  0  0999 V2000
   51.1470    2.2750   44.4850 Cl  0  0  0  0  0  0  0  0  0  0  0  0
   49.9000    3.5130   44.4590 C   0  0  0  0  0  0  0  0  0  0  0  0
   49.0780    3.5710   43.3570 C   0  0  0  0  0  0  0  0  0  0  0  0
   48.1160    4.5280   43.3400 N   0  0  0  0  0  0  0  0  0  0  0  0
   47.9550    5.3970   44.3510 C   0  0  0  0  0  0  0  0  0  0  0  0
   47.0030    6.3490   44.3430 N   0  0  0  0  0  0  0  0  0  0  0  0
   46.1420    6.5030   43.3220 C   0  0  0  0  0  0  0  0  0  0  0  0
   46.3070    5.6080   42.2790 C   0  0  0  0  0  0  0  0  0  0  0  0
   47.2810    4.6350   42.2880 C   0  0  0  0  0  0  0  0  0  0  0  0
   47.3960    3.8350   41.3080 O   0  0  0  0  0  0  0  0  0  0  0  0
   45.0910    7.5290   43.2740 C   0  0  0  0  0  0  0  0  0  0  0  0
   43.7770    7.0900   43.4930 N   0  0  0  0  0  0  0  0  0  0  0  0
   43.4440    6.5670   44.7520 C   0  0  0  0  0  0  0  0  0  0  0  0
   42.7830    7.5140   45.6980 C   0  0  0  0  0  0  0  0  0  0  0  0
   42.0290    8.5470   45.0020 N   0  0  0  0  0  0  0  0  0  0  0  0
   41.2840    9.4930   45.5710 N   0  0  0  0  0  0  0  0  0  0  0  0
   40.7440   10.2600   44.6190 C   0  0  0  0  0  0  0  0  0  0  0  0
   41.1750    9.7660   43.4130 C   0  0  0  0  0  0  0  0  0  0  0  0
   42.0000    8.6650   43.6650 C   0  0  0  0  0  0  0  0  0  0  0  0
   42.7430    7.7410   42.7720 C   0  0  0  0  0  0  0  0  0  0  0  0
   39.8430   11.4340   44.8370 C   0  0  1  0  0  0  0  0  0  0  0  0
   39.8310   12.1890   43.6530 O   0  0  0  0  0  0  0  0  0  0  0  0
   38.4060   10.9580   45.0380 C   0  0  0  0  0  0  0  0  0  0  0  0
   38.2620   10.4640   46.4700 C   0  0  0  0  0  0  0  0  0  0  0  0
   48.7870    5.3430   45.4740 C   0  0  0  0  0  0  0  0  0  0  0  0
   49.7690    4.3850   45.5210 C   0  0  0  0  0  0  0  0  0  0  0  0
   49.1880    2.8920   42.5450 H   0  0  0  0  0  0  0  0  0  0  0  0
   45.6330    5.6880   41.4190 H   0  0  0  0  0  0  0  0  0  0  0  0
   45.3350    8.3190   44.0290 H   0  0  0  0  0  0  0  0  0  0  0  0
   45.1280    8.0770   42.2870 H   0  0  0  0  0  0  0  0  0  0  0  0
   42.7190    5.7130   44.5960 H   0  0  0  0  0  0  0  0  0  0  0  0
   44.3430    6.0840   45.1940 H   0  0  0  0  0  0  0  0  0  0  0  0
   43.5480    7.9570   46.3600 H   0  0  0  0  0  0  0  0  0  0  0  0
   42.0690    6.9820   46.3910 H   0  0  0  0  0  0  0  0  0  0  0  0
   40.9410   10.1330   42.4280 H   0  0  0  0  0  0  0  0  0  0  0  0
   42.0440    6.9450   42.3780 H   0  0  0  0  0  0  0  0  0  0  0  0
   43.1900    8.2710   41.9070 H   0  0  0  0  0  0  0  0  0  0  0  0
   40.1540   12.0560   45.6840 H   0  0  0  0  0  0  0  0  0  0  0  0
   39.3290   11.7080   42.9340 H   0  0  0  0  0  0  0  0  0  0  0  0
   38.2530   10.1080   44.3710 H   0  0  0  0  0  0  0  0  0  0  0  0
   37.6720   11.7350   44.8190 H   0  0  0  0  0  0  0  0  0  0  0  0
   39.1850   10.6680   47.0380 H   0  0  0  0  0  0  0  0  0  0  0  0
   37.3650   10.9020   46.9670 H   0  0  0  0  0  0  0  0  0  0  0  0
   38.1000    9.3500   46.4990 H   0  0  0  0  0  0  0  0  0  0  0  0
   48.6310    6.0580   46.2750 H   0  0  0  0  0  0  0  0  0  0  0  0
   50.4150    4.3410   46.3870 H   0  0  0  0  0  0  0  0  0  0  0  0
  2  1  1  0  0  0  0
  2 26  2  0  0  0  0
  3  2  1  0  0  0  0
  4  3  1  0  0  0  0
  4  5  1  0  0  0  0
  5 25  2  0  0  0  0
  6  5  1  0  0  0  0
  7  6  2  0  0  0  0
  8  9  1  0  0  0  0
  8  7  1  0  0  0  0
  9  4  1  0  0  0  0
 10  9  2  0  0  0  0
 11  7  1  0  0  0  0
 11 12  1  0  0  0  0
 11 29  1  0  0  0  0
 12 13  1  0  0  0  0
 13 32  1  0  0  0  0
 13 14  1  0  0  0  0
 14 33  1  0  0  0  0
 14 34  1  0  0  0  0
 15 16  1  0  0  0  0
 15 14  1  0  0  0  0
 17 21  1  0  0  0  0
 17 16  2  0  0  0  0
 18 19  2  0  0  0  0
 18 17  1  0  0  0  0
 19 15  1  0  0  0  0
 20 12  1  0  0  0  0
 20 19  1  0  0  0  0
 21 23  1  0  0  0  0
 21 38  1  1  0  0  0
 22 21  1  0  0  0  0
 23 24  1  0  0  0  0
 24 44  1  0  0  0  0
 24 43  1  0  0  0  0
 24 42  1  0  0  0  0
 25 26  1  0  0  0  0
 25 45  1  0  0  0  0
 26 46  1  0  0  0  0
 27  3  1  0  0  0  0
 28  8  1  0  0  0  0
 30 11  1  0  0  0  0
 31 13  1  0  0  0  0
 35 18  1  0  0  0  0
 36 20  1  0  0  0  0
 37 20  1  0  0  0  0
 39 22  1  0  0  0  0
 40 23  1  0  0  0  0
 41 23  1  0  0  0  0
M  END
>  <Pose>
1

>  <Score>
-5.94

$$$$
