
 OpenBabel03172210433D

 45 48  0  0  1  0  0  0  0  0999 V2000
   34.7680   11.8840   44.9490 Cl  0  0  0  0  0  0  0  0  0  0  0  0
   36.5180   11.6250   45.0120 C   0  0  0  0  0  0  0  0  0  0  0  0
   37.3820   12.6660   44.9040 C   0  0  0  0  0  0  0  0  0  0  0  0
   38.7560   12.4280   44.9580 C   0  0  0  0  0  0  0  0  0  0  0  0
   39.3180   11.1860   45.1190 C   0  0  0  0  0  0  0  0  0  0  0  0
   38.3760   10.1470   45.2240 C   0  0  0  0  0  0  0  0  0  0  0  0
   37.0140   10.3580   45.1730 C   0  0  0  0  0  0  0  0  0  0  0  0
   40.7140   10.8630   45.2190 C   0  0  0  0  0  0  0  0  0  0  0  0
   41.3060   11.4840   46.2270 O   0  0  0  0  0  0  0  0  0  0  0  0
   41.5420   10.0260   44.4520 N   0  0  0  0  0  0  0  0  0  0  0  0
   42.0280    8.7610   44.8740 C   0  0  0  0  0  0  0  0  0  0  0  0
   42.7030    8.0640   43.6800 C   0  0  1  0  0  0  0  0  0  0  0  0
   43.7510    8.9560   43.2560 N   0  0  0  0  0  0  0  0  0  0  0  0
   43.3710   10.2570   42.8190 C   0  0  0  0  0  0  0  0  0  0  0  0
   41.9160   10.5390   43.1340 C   0  0  0  0  0  0  0  0  0  0  0  0
   45.0970    8.5510   43.2770 C   0  0  0  0  0  0  0  0  0  0  0  0
   45.9190    9.1600   42.5700 O   0  0  0  0  0  0  0  0  0  0  0  0
   45.4880    7.4170   44.1400 C   0  0  1  0  0  0  0  0  0  0  0  0
   44.5300    6.3750   43.9140 N   0  0  0  0  0  0  0  0  0  0  0  0
   43.1570    6.7120   43.9990 C   0  0  0  0  0  0  0  0  0  0  0  0
   42.2830    5.8590   44.3500 O   0  0  0  0  0  0  0  0  0  0  0  0
   46.9050    7.0120   44.0010 C   0  0  0  0  0  0  0  0  0  0  0  0
   46.9950    5.7120   43.3150 C   0  0  0  0  0  0  0  0  0  0  0  0
   47.1660    5.4650   42.0150 N   0  0  0  0  0  0  0  0  0  0  0  0
   47.1930    4.1150   41.8130 C   0  0  0  0  0  0  0  0  0  0  0  0
   47.0360    3.5050   42.9900 N   0  0  0  0  0  0  0  0  0  0  0  0
   46.9140    4.4570   43.9200 C   0  0  0  0  0  0  0  0  0  0  0  0
   36.9880   13.6540   44.7780 H   0  0  0  0  0  0  0  0  0  0  0  0
   39.3860   13.2860   44.8480 H   0  0  0  0  0  0  0  0  0  0  0  0
   38.7530    9.1310   45.3550 H   0  0  0  0  0  0  0  0  0  0  0  0
   36.3680    9.4820   45.2650 H   0  0  0  0  0  0  0  0  0  0  0  0
   41.2290    8.0930   45.2600 H   0  0  0  0  0  0  0  0  0  0  0  0
   42.7690    8.9150   45.6760 H   0  0  0  0  0  0  0  0  0  0  0  0
   41.9260    8.0410   42.8860 H   0  0  0  0  0  0  0  0  0  0  0  0
   43.5130   10.3120   41.7200 H   0  0  0  0  0  0  0  0  0  0  0  0
   43.9640   11.0850   43.2590 H   0  0  0  0  0  0  0  0  0  0  0  0
   41.7250   11.6210   43.1260 H   0  0  0  0  0  0  0  0  0  0  0  0
   41.2910   10.0510   42.3670 H   0  0  0  0  0  0  0  0  0  0  0  0
   45.3620    7.6910   45.2380 H   0  0  0  0  0  0  0  0  0  0  0  0
   44.8100    5.3870   43.6930 H   0  0  0  0  0  0  0  0  0  0  0  0
   47.4840    7.8070   43.4800 H   0  0  0  0  0  0  0  0  0  0  0  0
   47.3660    6.9620   45.0250 H   0  0  0  0  0  0  0  0  0  0  0  0
   47.3230    3.6760   40.8230 H   0  0  0  0  0  0  0  0  0  0  0  0
   47.0130    2.4950   43.1550 H   0  0  0  0  0  0  0  0  0  0  0  0
   46.7720    4.3560   44.9880 H   0  0  0  0  0  0  0  0  0  0  0  0
  1  2  1  0  0  0  0
  2  7  1  0  0  0  0
  3  4  1  0  0  0  0
  3  2  2  0  0  0  0
  4  5  2  0  0  0  0
  5  8  1  0  0  0  0
  5  6  1  0  0  0  0
  6 30  1  0  0  0  0
  7  6  2  0  0  0  0
  7 31  1  0  0  0  0
  8  9  2  0  0  0  0
 10 11  1  0  0  0  0
 10  8  1  0  0  0  0
 11 32  1  0  0  0  0
 11 33  1  0  0  0  0
 12 34  1  6  0  0  0
 12 20  1  0  0  0  0
 12 11  1  0  0  0  0
 13 16  1  0  0  0  0
 13 12  1  0  0  0  0
 14 15  1  0  0  0  0
 14 13  1  0  0  0  0
 14 36  1  0  0  0  0
 15 10  1  0  0  0  0
 16 18  1  0  0  0  0
 17 16  2  0  0  0  0
 18 39  1  1  0  0  0
 19 20  1  0  0  0  0
 19 18  1  0  0  0  0
 20 21  2  0  0  0  0
 22 18  1  0  0  0  0
 22 42  1  0  0  0  0
 23 27  2  0  0  0  0
 23 22  1  0  0  0  0
 24 23  1  0  0  0  0
 25 24  2  0  0  0  0
 25 26  1  0  0  0  0
 26 44  1  0  0  0  0
 26 27  1  0  0  0  0
 27 45  1  0  0  0  0
 28  3  1  0  0  0  0
 29  4  1  0  0  0  0
 35 14  1  0  0  0  0
 37 15  1  0  0  0  0
 38 15  1  0  0  0  0
 40 19  1  0  0  0  0
 41 22  1  0  0  0  0
 43 25  1  0  0  0  0
M  END
>  <Pose>
1

>  <Score>
-6.08

$$$$
