
 OpenBabel03172210433D

 43 46  0  0  0  0  0  0  0  0999 V2000
   42.5830    6.4320   44.3280 Cl  0  0  0  0  0  0  0  0  0  0  0  0
   44.2490    6.8530   43.9980 C   0  0  0  0  0  0  0  0  0  0  0  0
   44.6070    8.1590   43.8180 C   0  0  0  0  0  0  0  0  0  0  0  0
   45.9610    8.3740   43.5460 C   0  0  0  0  0  0  0  0  0  0  0  0
   46.8200    7.3460   43.4760 N   0  0  0  0  0  0  0  0  0  0  0  0
   46.4970    6.0830   43.6460 N   0  0  0  0  0  0  0  0  0  0  0  0
   45.2080    5.8290   43.9090 C   0  0  0  0  0  0  0  0  0  0  0  0
   44.8010    4.6530   44.0880 O   0  0  0  0  0  0  0  0  0  0  0  0
   47.4730    5.0510   43.5540 C   0  0  0  0  0  0  0  0  0  0  0  0
   48.4890    4.9010   44.4770 C   0  0  0  0  0  0  0  0  0  0  0  0
   49.4290    3.8970   44.3790 C   0  0  0  0  0  0  0  0  0  0  0  0
   49.3860    2.9940   43.3360 C   0  0  0  0  0  0  0  0  0  0  0  0
   48.3730    3.1380   42.4110 C   0  0  0  0  0  0  0  0  0  0  0  0
   47.4330    4.1450   42.5140 C   0  0  0  0  0  0  0  0  0  0  0  0
   43.6980    9.2390   43.9170 N   0  0  0  0  0  0  0  0  0  0  0  0
   43.5460   10.2390   42.8730 C   0  0  0  0  0  0  0  0  0  0  0  0
   43.9370   11.6110   43.3570 C   0  0  0  0  0  0  0  0  0  0  0  0
   43.4250   11.7410   44.6990 N   0  0  0  0  0  0  0  0  0  0  0  0
   42.3170   10.9040   45.0830 C   0  0  0  0  0  0  0  0  0  0  0  0
   42.8530    9.4560   45.0860 C   0  0  0  0  0  0  0  0  0  0  0  0
   43.9890   12.6610   45.6150 C   0  0  0  0  0  0  0  0  0  0  0  0
   44.0100   14.0210   45.5150 N   0  0  0  0  0  0  0  0  0  0  0  0
   44.6250   14.5250   46.5660 N   0  0  0  0  0  0  0  0  0  0  0  0
   45.0010   13.5150   47.3390 C   0  0  0  0  0  0  0  0  0  0  0  0
   44.6110   12.4140   46.7530 O   0  0  0  0  0  0  0  0  0  0  0  0
   45.7350   13.5520   48.6460 C   0  0  0  0  0  0  0  0  0  0  0  0
   46.2890    9.3800   43.4030 H   0  0  0  0  0  0  0  0  0  0  0  0
   48.5280    5.6130   45.3020 H   0  0  0  0  0  0  0  0  0  0  0  0
   50.2220    3.8060   45.1270 H   0  0  0  0  0  0  0  0  0  0  0  0
   50.1260    2.2070   43.2650 H   0  0  0  0  0  0  0  0  0  0  0  0
   48.3290    2.4430   41.5990 H   0  0  0  0  0  0  0  0  0  0  0  0
   46.6330    4.2600   41.7850 H   0  0  0  0  0  0  0  0  0  0  0  0
   42.4430   10.2990   42.6440 H   0  0  0  0  0  0  0  0  0  0  0  0
   44.0340   10.0340   41.9370 H   0  0  0  0  0  0  0  0  0  0  0  0
   45.0530   11.7330   43.4100 H   0  0  0  0  0  0  0  0  0  0  0  0
   43.5830   12.4100   42.6840 H   0  0  0  0  0  0  0  0  0  0  0  0
   41.5200   10.9940   44.3240 H   0  0  0  0  0  0  0  0  0  0  0  0
   41.9280   11.1630   46.0810 H   0  0  0  0  0  0  0  0  0  0  0  0
   41.9470    8.8340   45.1000 H   0  0  0  0  0  0  0  0  0  0  0  0
   43.4550    9.4240   46.0300 H   0  0  0  0  0  0  0  0  0  0  0  0
   45.3450   14.3660   49.2880 H   0  0  0  0  0  0  0  0  0  0  0  0
   45.5740   12.6110   49.2110 H   0  0  0  0  0  0  0  0  0  0  0  0
   46.8020   13.6300   48.4200 H   0  0  0  0  0  0  0  0  0  0  0  0
  2  1  1  0  0  0  0
  3 15  1  0  0  0  0
  3  2  2  0  0  0  0
  4  3  1  0  0  0  0
  5  4  2  0  0  0  0
  5  6  1  0  0  0  0
  6  7  1  0  0  0  0
  7  2  1  0  0  0  0
  7  8  2  0  0  0  0
  9  6  1  0  0  0  0
  9 10  1  0  0  0  0
 10 28  1  0  0  0  0
 11 10  2  0  0  0  0
 11 29  1  0  0  0  0
 12 11  1  0  0  0  0
 13 14  1  0  0  0  0
 13 12  2  0  0  0  0
 14  9  2  0  0  0  0
 15 20  1  0  0  0  0
 16 17  1  0  0  0  0
 16 15  1  0  0  0  0
 17 35  1  0  0  0  0
 17 18  1  0  0  0  0
 18 19  1  0  0  0  0
 18 21  1  0  0  0  0
 19 20  1  0  0  0  0
 19 38  1  0  0  0  0
 20 39  1  0  0  0  0
 20 40  1  0  0  0  0
 21 25  1  0  0  0  0
 22 21  2  0  0  0  0
 22 23  1  0  0  0  0
 23 24  2  0  0  0  0
 24 26  1  0  0  0  0
 25 24  1  0  0  0  0
 26 42  1  0  0  0  0
 26 41  1  0  0  0  0
 27  4  1  0  0  0  0
 30 12  1  0  0  0  0
 31 13  1  0  0  0  0
 32 14  1  0  0  0  0
 33 16  1  0  0  0  0
 34 16  1  0  0  0  0
 36 17  1  0  0  0  0
 37 19  1  0  0  0  0
 43 26  1  0  0  0  0
M  END
>  <Pose>
1

>  <Score>
-6.55

$$$$
