
 OpenBabel03172210433D

 41 44  0  0  0  0  0  0  0  0999 V2000
   40.5610   12.4770   43.9530 Cl  0  0  0  0  0  0  0  0  0  0  0  0
   41.3850   10.9910   43.5210 C   0  0  0  0  0  0  0  0  0  0  0  0
   42.7490   10.8720   43.6670 C   0  0  0  0  0  0  0  0  0  0  0  0
   43.3550    9.7030   43.3210 N   0  0  0  0  0  0  0  0  0  0  0  0
   42.6180    8.6930   42.8470 C   0  0  0  0  0  0  0  0  0  0  0  0
   43.4270    7.6560   42.5780 N   0  0  0  0  0  0  0  0  0  0  0  0
   44.6830    7.9900   42.8760 C   0  0  0  0  0  0  0  0  0  0  0  0
   44.6350    9.3090   43.3550 C   0  0  0  0  0  0  0  0  0  0  0  0
   45.8900    7.1920   42.7510 C   0  0  0  0  0  0  0  0  0  0  0  0
   47.0030    7.8300   42.6650 O   0  0  0  0  0  0  0  0  0  0  0  0
   45.9650    5.8130   42.7140 N   0  0  0  0  0  0  0  0  0  0  0  0
   46.0570    5.0440   41.4960 C   0  0  0  0  0  0  0  0  0  0  0  0
   47.4180    4.3950   41.3670 C   0  0  0  0  0  0  0  0  0  0  0  0
   47.8890    3.9530   42.7230 C   0  0  0  0  0  0  0  0  0  0  0  0
   47.2420    4.2150   43.8990 C   0  0  0  0  0  0  0  0  0  0  0  0
   48.0010    3.6400   44.8670 N   0  0  0  0  0  0  0  0  0  0  0  0
   49.0560    3.0540   44.3480 N   0  0  0  0  0  0  0  0  0  0  0  0
   49.0440    3.2120   43.0190 C   0  0  0  0  0  0  0  0  0  0  0  0
   49.8910    2.7910   42.1670 O   0  0  0  0  0  0  0  0  0  0  0  0
   50.1180    2.3230   45.0550 C   0  0  0  0  0  0  0  0  0  0  0  0
   51.2940    3.2290   45.3380 C   0  0  0  0  0  0  0  0  0  0  0  0
   52.0120    3.5350   44.1890 O   0  0  0  0  0  0  0  0  0  0  0  0
   45.9670    4.9890   43.9460 C   0  0  0  0  0  0  0  0  0  0  0  0
   41.2240    8.7860   42.6870 C   0  0  0  0  0  0  0  0  0  0  0  0
   40.6130    9.9510   43.0310 C   0  0  0  0  0  0  0  0  0  0  0  0
   43.3510   11.6810   44.0490 H   0  0  0  0  0  0  0  0  0  0  0  0
   45.4960    9.8900   43.6880 H   0  0  0  0  0  0  0  0  0  0  0  0
   45.7940    5.5490   40.5810 H   0  0  0  0  0  0  0  0  0  0  0  0
   45.2740    4.2240   41.6260 H   0  0  0  0  0  0  0  0  0  0  0  0
   48.1610    5.0420   40.9010 H   0  0  0  0  0  0  0  0  0  0  0  0
   47.2810    3.5080   40.6890 H   0  0  0  0  0  0  0  0  0  0  0  0
   47.7350    3.6870   45.8800 H   0  0  0  0  0  0  0  0  0  0  0  0
   50.4760    1.5430   44.3510 H   0  0  0  0  0  0  0  0  0  0  0  0
   49.7590    1.8340   45.9570 H   0  0  0  0  0  0  0  0  0  0  0  0
   50.8730    4.1830   45.7160 H   0  0  0  0  0  0  0  0  0  0  0  0
   51.9750    2.7840   46.0720 H   0  0  0  0  0  0  0  0  0  0  0  0
   53.0010    3.4300   44.3230 H   0  0  0  0  0  0  0  0  0  0  0  0
   45.0770    4.3370   43.9450 H   0  0  0  0  0  0  0  0  0  0  0  0
   45.9890    5.7040   44.7920 H   0  0  0  0  0  0  0  0  0  0  0  0
   40.6670    7.9320   42.2960 H   0  0  0  0  0  0  0  0  0  0  0  0
   39.5300   10.0410   42.9130 H   0  0  0  0  0  0  0  0  0  0  0  0
  2  3  2  0  0  0  0
  2  1  1  0  0  0  0
  3 26  1  0  0  0  0
  4  8  1  0  0  0  0
  4  3  1  0  0  0  0
  5  4  1  0  0  0  0
  6  5  2  0  0  0  0
  6  7  1  0  0  0  0
  7  8  2  0  0  0  0
  8 27  1  0  0  0  0
  9  7  1  0  0  0  0
 10  9  2  0  0  0  0
 11  9  1  0  0  0  0
 11 23  1  0  0  0  0
 12 29  1  0  0  0  0
 12 11  1  0  0  0  0
 13 12  1  0  0  0  0
 13 14  1  0  0  0  0
 14 18  1  0  0  0  0
 14 15  2  0  0  0  0
 15 23  1  0  0  0  0
 15 16  1  0  0  0  0
 16 32  1  0  0  0  0
 17 16  1  0  0  0  0
 17 20  1  0  0  0  0
 18 17  1  0  0  0  0
 19 18  2  0  0  0  0
 20 21  1  0  0  0  0
 20 34  1  0  0  0  0
 21 35  1  0  0  0  0
 21 36  1  0  0  0  0
 22 37  1  0  0  0  0
 22 21  1  0  0  0  0
 23 39  1  0  0  0  0
 24  5  1  0  0  0  0
 24 25  2  0  0  0  0
 25  2  1  0  0  0  0
 28 12  1  0  0  0  0
 30 13  1  0  0  0  0
 31 13  1  0  0  0  0
 33 20  1  0  0  0  0
 38 23  1  0  0  0  0
 40 24  1  0  0  0  0
 41 25  1  0  0  0  0
M  END
>  <Pose>
1

>  <Score>
-7.20

$$$$
