
 OpenBabel03172210433D

 45 48  0  0  1  0  0  0  0  0999 V2000
   39.3900   12.8310   44.7200 Cl  0  0  0  0  0  0  0  0  0  0  0  0
   41.1280   12.7810   45.0320 C   0  0  0  0  0  0  0  0  0  0  0  0
   41.9400   12.0090   44.2360 C   0  0  0  0  0  0  0  0  0  0  0  0
   43.3170   11.9440   44.4510 C   0  0  0  0  0  0  0  0  0  0  0  0
   43.8120   12.6930   45.4990 C   0  0  0  0  0  0  0  0  0  0  0  0
   42.9870   13.4670   46.2940 C   0  0  0  0  0  0  0  0  0  0  0  0
   41.6260   13.5270   46.0780 C   0  0  0  0  0  0  0  0  0  0  0  0
   44.1800   11.1060   43.5860 C   0  0  0  0  0  0  0  0  0  0  0  0
   44.9740   10.1020   44.3760 C   0  0  0  0  0  0  0  0  0  0  0  0
   44.8640    8.7510   43.8760 N   0  0  0  0  0  0  0  0  0  0  0  0
   45.7750    7.9460   43.1070 C   0  0  2  0  0  0  0  0  0  0  0  0
   44.8190    7.0320   42.3670 C   0  0  2  0  0  0  0  0  0  0  0  0
   43.9120    6.7000   43.4100 O   0  0  0  0  0  0  0  0  0  0  0  0
   43.7270    7.9220   44.0880 C   0  0  0  0  0  0  0  0  0  0  0  0
   42.6860    8.1880   44.7690 O   0  0  0  0  0  0  0  0  0  0  0  0
   45.7560    5.9410   41.9970 C   0  0  0  0  0  0  0  0  0  0  0  0
   46.3800    5.6500   43.3080 N   0  0  0  0  0  0  0  0  0  0  0  0
   46.4690    6.9000   43.9970 C   0  0  0  0  0  0  0  0  0  0  0  0
   46.7500    4.3460   43.6490 C   0  0  0  0  0  0  0  0  0  0  0  0
   45.9900    3.6430   44.4330 O   0  0  0  0  0  0  0  0  0  0  0  0
   47.9440    3.6480   43.2080 C   0  0  0  0  0  0  0  0  0  0  0  0
   49.0860    3.4500   43.9210 N   0  0  0  0  0  0  0  0  0  0  0  0
   49.9430    2.7630   43.1700 C   0  0  0  0  0  0  0  0  0  0  0  0
   49.3770    2.5140   41.9870 N   0  0  0  0  0  0  0  0  0  0  0  0
   48.1390    3.0560   41.9960 C   0  0  0  0  0  0  0  0  0  0  0  0
   49.3080    3.9160   45.2650 C   0  0  0  0  0  0  0  0  0  0  0  0
   41.5540   11.4130   43.4030 H   0  0  0  0  0  0  0  0  0  0  0  0
   44.8900   12.6460   45.6740 H   0  0  0  0  0  0  0  0  0  0  0  0
   43.4100   14.0460   47.1130 H   0  0  0  0  0  0  0  0  0  0  0  0
   40.9690   14.1280   46.6900 H   0  0  0  0  0  0  0  0  0  0  0  0
   44.9130   11.7790   43.0960 H   0  0  0  0  0  0  0  0  0  0  0  0
   43.6070   10.6280   42.7520 H   0  0  0  0  0  0  0  0  0  0  0  0
   44.5950   10.1770   45.4360 H   0  0  0  0  0  0  0  0  0  0  0  0
   46.0410   10.3970   44.4450 H   0  0  0  0  0  0  0  0  0  0  0  0
   46.4650    8.4870   42.4730 H   0  0  0  0  0  0  0  0  0  0  0  0
   44.3210    7.5230   41.5190 H   0  0  0  0  0  0  0  0  0  0  0  0
   45.3130    5.0670   41.5390 H   0  0  0  0  0  0  0  0  0  0  0  0
   46.5770    6.3850   41.3950 H   0  0  0  0  0  0  0  0  0  0  0  0
   47.4800    7.2390   44.2470 H   0  0  0  0  0  0  0  0  0  0  0  0
   45.8850    6.8630   44.9660 H   0  0  0  0  0  0  0  0  0  0  0  0
   50.9590    2.4210   43.4090 H   0  0  0  0  0  0  0  0  0  0  0  0
   47.4720    2.9790   41.1220 H   0  0  0  0  0  0  0  0  0  0  0  0
   48.6830    3.3880   46.0140 H   0  0  0  0  0  0  0  0  0  0  0  0
   49.1180    5.0130   45.3560 H   0  0  0  0  0  0  0  0  0  0  0  0
   50.3700    3.7670   45.5480 H   0  0  0  0  0  0  0  0  0  0  0  0
  1  2  1  0  0  0  0
  2  7  1  0  0  0  0
  3  4  1  0  0  0  0
  3  2  2  0  0  0  0
  4  5  2  0  0  0  0
  5 28  1  0  0  0  0
  5  6  1  0  0  0  0
  6 29  1  0  0  0  0
  7  6  2  0  0  0  0
  7 30  1  0  0  0  0
  8  9  1  0  0  0  0
  8  4  1  0  0  0  0
  9 34  1  0  0  0  0
  9 33  1  0  0  0  0
 10 14  1  0  0  0  0
 10  9  1  0  0  0  0
 11 35  1  6  0  0  0
 11 10  1  0  0  0  0
 11 18  1  0  0  0  0
 12 36  1  6  0  0  0
 12 11  1  0  0  0  0
 12 13  1  0  0  0  0
 13 14  1  0  0  0  0
 14 15  2  0  0  0  0
 16 12  1  0  0  0  0
 16 17  1  0  0  0  0
 17 19  1  0  0  0  0
 17 18  1  0  0  0  0
 18 39  1  0  0  0  0
 18 40  1  0  0  0  0
 19 20  2  0  0  0  0
 21 19  1  0  0  0  0
 21 22  1  0  0  0  0
 22 26  1  0  0  0  0
 23 41  1  0  0  0  0
 23 22  1  0  0  0  0
 24 25  1  0  0  0  0
 24 23  2  0  0  0  0
 25 21  2  0  0  0  0
 26 44  1  0  0  0  0
 26 45  1  0  0  0  0
 26 43  1  0  0  0  0
 27  3  1  0  0  0  0
 31  8  1  0  0  0  0
 32  8  1  0  0  0  0
 37 16  1  0  0  0  0
 38 16  1  0  0  0  0
 42 25  1  0  0  0  0
M  END
>  <Pose>
1

>  <Score>
-5.85

$$$$
