
 OpenBabel03172210433D

 53 56  0  0  0  0  0  0  0  0999 V2000
   36.8120   10.2680   45.3160 Cl  0  0  0  0  0  0  0  0  0  0  0  0
   38.0130   11.2830   46.1120 C   0  0  0  0  0  0  0  0  0  0  0  0
   39.2760   10.7430   46.3170 C   0  0  0  0  0  0  0  0  0  0  0  0
   40.2230   11.5090   46.9350 C   0  0  0  0  0  0  0  0  0  0  0  0
   39.8860   12.8150   47.3410 C   0  0  0  0  0  0  0  0  0  0  0  0
   38.6370   13.3210   47.1260 C   0  0  0  0  0  0  0  0  0  0  0  0
   37.6650   12.5580   46.5020 C   0  0  0  0  0  0  0  0  0  0  0  0
   41.6080   11.0270   47.1510 C   0  0  0  0  0  0  0  0  0  0  0  0
   42.2790   10.5130   46.0000 N   0  0  0  0  0  0  0  0  0  0  0  0
   42.2310    9.2120   45.6460 C   0  0  0  0  0  0  0  0  0  0  0  0
   43.0270    9.0690   44.5340 C   0  0  0  0  0  0  0  0  0  0  0  0
   43.5220   10.2580   44.2510 N   0  0  0  0  0  0  0  0  0  0  0  0
   43.0730   11.1690   45.1490 C   0  0  0  0  0  0  0  0  0  0  0  0
   43.4730   12.5480   45.1720 N   0  0  0  0  0  0  0  0  0  0  0  0
   42.5000   13.5380   45.6780 C   0  0  0  0  0  0  0  0  0  0  0  0
   43.0590   14.3380   46.8100 C   0  0  0  0  0  0  0  0  0  0  0  0
   44.5030   14.3540   46.7780 N   0  0  0  0  0  0  0  0  0  0  0  0
   45.1400   14.3120   45.4780 C   0  0  0  0  0  0  0  0  0  0  0  0
   44.7370   13.0380   44.7550 C   0  0  0  0  0  0  0  0  0  0  0  0
   45.2590   14.4180   47.9790 C   0  0  0  0  0  0  0  0  0  0  0  0
   46.0600   13.5040   48.2710 O   0  0  0  0  0  0  0  0  0  0  0  0
   45.1230   15.5590   48.9140 C   0  0  0  0  0  0  0  0  0  0  0  0
   45.5240   16.8190   48.1510 C   0  0  0  0  0  0  0  0  0  0  0  0
   43.1390    7.8260   43.9870 N   0  0  0  0  0  0  0  0  0  0  0  0
   42.5030    6.7690   44.5040 C   0  0  0  0  0  0  0  0  0  0  0  0
   42.6410    5.6370   43.9610 O   0  0  0  0  0  0  0  0  0  0  0  0
   41.7190    6.8640   45.5860 N   0  0  0  0  0  0  0  0  0  0  0  0
   41.5880    8.0870   46.1520 C   0  0  0  0  0  0  0  0  0  0  0  0
   40.8580    8.1820   47.1630 O   0  0  0  0  0  0  0  0  0  0  0  0
   43.9840    7.6520   42.8070 C   0  0  0  0  0  0  0  0  0  0  0  0
   39.4630    9.7180   45.9920 H   0  0  0  0  0  0  0  0  0  0  0  0
   40.6530   13.4250   47.8360 H   0  0  0  0  0  0  0  0  0  0  0  0
   38.3390   14.3170   47.4240 H   0  0  0  0  0  0  0  0  0  0  0  0
   36.6660   12.9390   46.3200 H   0  0  0  0  0  0  0  0  0  0  0  0
   41.5780   10.2240   47.9490 H   0  0  0  0  0  0  0  0  0  0  0  0
   42.1520   11.8600   47.6430 H   0  0  0  0  0  0  0  0  0  0  0  0
   42.2210   14.1680   44.8110 H   0  0  0  0  0  0  0  0  0  0  0  0
   41.6130   12.9880   46.0760 H   0  0  0  0  0  0  0  0  0  0  0  0
   42.7200   15.4040   46.6850 H   0  0  0  0  0  0  0  0  0  0  0  0
   42.7160   13.9750   47.8020 H   0  0  0  0  0  0  0  0  0  0  0  0
   44.7280   15.1850   44.8900 H   0  0  0  0  0  0  0  0  0  0  0  0
   46.2240   14.4440   45.4970 H   0  0  0  0  0  0  0  0  0  0  0  0
   45.5100   12.2700   44.9300 H   0  0  0  0  0  0  0  0  0  0  0  0
   44.7540   13.2610   43.6410 H   0  0  0  0  0  0  0  0  0  0  0  0
   44.0520   15.6740   49.2390 H   0  0  0  0  0  0  0  0  0  0  0  0
   45.6920   15.4200   49.8410 H   0  0  0  0  0  0  0  0  0  0  0  0
   44.6480   17.3760   47.7590 H   0  0  0  0  0  0  0  0  0  0  0  0
   46.1730   16.5870   47.2800 H   0  0  0  0  0  0  0  0  0  0  0  0
   46.1250   17.4820   48.8180 H   0  0  0  0  0  0  0  0  0  0  0  0
   41.2410    6.0130   45.9580 H   0  0  0  0  0  0  0  0  0  0  0  0
   43.5480    6.8740   42.1420 H   0  0  0  0  0  0  0  0  0  0  0  0
   44.9810    7.2920   43.1920 H   0  0  0  0  0  0  0  0  0  0  0  0
   44.1530    8.6090   42.2980 H   0  0  0  0  0  0  0  0  0  0  0  0
  1  2  1  0  0  0  0
  2  3  2  0  0  0  0
  2  7  1  0  0  0  0
  3  4  1  0  0  0  0
  4  8  1  0  0  0  0
  4  5  2  0  0  0  0
  5 32  1  0  0  0  0
  6  5  1  0  0  0  0
  6 33  1  0  0  0  0
  7  6  2  0  0  0  0
  8 36  1  0  0  0  0
  8 35  1  0  0  0  0
  9  8  1  0  0  0  0
 10  9  1  0  0  0  0
 10 28  1  0  0  0  0
 11 10  2  0  0  0  0
 12 11  1  0  0  0  0
 12 13  2  0  0  0  0
 13 14  1  0  0  0  0
 13  9  1  0  0  0  0
 14 15  1  0  0  0  0
 15 38  1  0  0  0  0
 15 16  1  0  0  0  0
 16 40  1  0  0  0  0
 17 16  1  0  0  0  0
 17 20  1  0  0  0  0
 18 42  1  0  0  0  0
 18 17  1  0  0  0  0
 19 43  1  0  0  0  0
 19 14  1  0  0  0  0
 19 18  1  0  0  0  0
 20 21  2  0  0  0  0
 20 22  1  0  0  0  0
 22 45  1  0  0  0  0
 22 46  1  0  0  0  0
 23 49  1  0  0  0  0
 23 22  1  0  0  0  0
 24 25  1  0  0  0  0
 24 11  1  0  0  0  0
 25 27  1  0  0  0  0
 26 25  2  0  0  0  0
 27 50  1  0  0  0  0
 27 28  1  0  0  0  0
 28 29  2  0  0  0  0
 30 52  1  0  0  0  0
 30 24  1  0  0  0  0
 31  3  1  0  0  0  0
 34  7  1  0  0  0  0
 37 15  1  0  0  0  0
 39 16  1  0  0  0  0
 41 18  1  0  0  0  0
 44 19  1  0  0  0  0
 47 23  1  0  0  0  0
 48 23  1  0  0  0  0
 51 30  1  0  0  0  0
 53 30  1  0  0  0  0
M  END
>  <Pose>
1

>  <Score>
-5.14

$$$$
