
 OpenBabel03172210433D

 45 48  0  0  0  0  0  0  0  0999 V2000
   46.6260    4.8290   41.6370 Cl  0  0  0  0  0  0  0  0  0  0  0  0
   47.2760    5.3600   43.1950 C   0  0  0  0  0  0  0  0  0  0  0  0
   46.8630    6.5720   43.7040 C   0  0  0  0  0  0  0  0  0  0  0  0
   47.3620    6.9960   44.9160 C   0  0  0  0  0  0  0  0  0  0  0  0
   48.2630    6.2290   45.6230 C   0  0  0  0  0  0  0  0  0  0  0  0
   48.6480    5.0170   45.0730 C   0  0  0  0  0  0  0  0  0  0  0  0
   48.1750    4.5570   43.8670 C   0  0  0  0  0  0  0  0  0  0  0  0
   48.7930    6.6470   46.8800 N   0  0  0  0  0  0  0  0  0  0  0  0
   49.3460    7.7920   47.1940 N   0  0  0  0  0  0  0  0  0  0  0  0
   49.7170    7.7780   48.5080 C   0  0  0  0  0  0  0  0  0  0  0  0
   49.3720    6.5530   49.0340 C   0  0  0  0  0  0  0  0  0  0  0  0
   48.7870    5.8600   47.9700 C   0  0  0  0  0  0  0  0  0  0  0  0
   45.9060    7.4010   42.9660 C   0  0  0  0  0  0  0  0  0  0  0  0
   46.3920    8.3710   42.3290 O   0  0  0  0  0  0  0  0  0  0  0  0
   44.5130    7.1200   42.9760 N   0  0  0  0  0  0  0  0  0  0  0  0
   43.8100    7.1370   44.2410 C   0  0  0  0  0  0  0  0  0  0  0  0
   42.3620    7.4730   43.9360 C   0  0  0  0  0  0  0  0  0  0  0  0
   42.2380    8.4510   42.7880 C   0  0  0  0  0  0  0  0  0  0  0  0
   40.8560    8.8680   42.7310 N   0  0  0  0  0  0  0  0  0  0  0  0
   40.6850    9.9660   43.6140 C   0  0  0  0  0  0  0  0  0  0  0  0
   39.6040   10.4030   44.1220 O   0  0  0  0  0  0  0  0  0  0  0  0
   41.9940   10.5030   43.8300 N   0  0  0  0  0  0  0  0  0  0  0  0
   42.9330    9.7300   43.0820 C   0  0  0  0  0  0  0  0  0  0  0  0
   44.0970   10.0960   42.7610 O   0  0  0  0  0  0  0  0  0  0  0  0
   42.3620   11.6480   44.6660 C   0  0  0  0  0  0  0  0  0  0  0  0
   42.7190    7.8690   41.4910 C   0  0  0  0  0  0  0  0  0  0  0  0
   43.7410    6.8170   41.7930 C   0  0  0  0  0  0  0  0  0  0  0  0
   47.0780    7.9380   45.3710 H   0  0  0  0  0  0  0  0  0  0  0  0
   49.3580    4.4070   45.6250 H   0  0  0  0  0  0  0  0  0  0  0  0
   48.5080    3.5880   43.4640 H   0  0  0  0  0  0  0  0  0  0  0  0
   50.1960    8.5550   49.0850 H   0  0  0  0  0  0  0  0  0  0  0  0
   49.5220    6.2020   50.0540 H   0  0  0  0  0  0  0  0  0  0  0  0
   48.3980    4.8520   48.0370 H   0  0  0  0  0  0  0  0  0  0  0  0
   43.8790    6.1330   44.7080 H   0  0  0  0  0  0  0  0  0  0  0  0
   44.1970    7.9400   44.9000 H   0  0  0  0  0  0  0  0  0  0  0  0
   41.8030    6.5460   43.7010 H   0  0  0  0  0  0  0  0  0  0  0  0
   41.8690    7.9120   44.8260 H   0  0  0  0  0  0  0  0  0  0  0  0
   40.1300    8.4240   42.1380 H   0  0  0  0  0  0  0  0  0  0  0  0
   43.3590   11.4930   45.1460 H   0  0  0  0  0  0  0  0  0  0  0  0
   41.5900   11.8060   45.4390 H   0  0  0  0  0  0  0  0  0  0  0  0
   42.4630   12.5570   44.0460 H   0  0  0  0  0  0  0  0  0  0  0  0
   43.1570    8.7010   40.8980 H   0  0  0  0  0  0  0  0  0  0  0  0
   41.8460    7.4120   40.9780 H   0  0  0  0  0  0  0  0  0  0  0  0
   43.1840    5.8630   42.0120 H   0  0  0  0  0  0  0  0  0  0  0  0
   44.3930    6.5850   40.9190 H   0  0  0  0  0  0  0  0  0  0  0  0
  1  2  1  0  0  0  0
  2  3  2  0  0  0  0
  2  7  1  0  0  0  0
  3  4  1  0  0  0  0
  4 28  1  0  0  0  0
  4  5  2  0  0  0  0
  5  8  1  0  0  0  0
  6  5  1  0  0  0  0
  6 29  1  0  0  0  0
  7  6  2  0  0  0  0
  8  9  1  0  0  0  0
  8 12  1  0  0  0  0
  9 10  2  0  0  0  0
 10 11  1  0  0  0  0
 10 31  1  0  0  0  0
 11 32  1  0  0  0  0
 12 33  1  0  0  0  0
 12 11  2  0  0  0  0
 13 15  1  0  0  0  0
 13  3  1  0  0  0  0
 14 13  2  0  0  0  0
 15 16  1  0  0  0  0
 16 34  1  0  0  0  0
 16 35  1  0  0  0  0
 17 16  1  0  0  0  0
 17 37  1  0  0  0  0
 18 23  1  0  0  0  0
 18 17  1  0  0  0  0
 19 18  1  0  0  0  0
 19 20  1  0  0  0  0
 20 22  1  0  0  0  0
 20 21  2  0  0  0  0
 22 25  1  0  0  0  0
 23 22  1  0  0  0  0
 24 23  2  0  0  0  0
 25 39  1  0  0  0  0
 25 40  1  0  0  0  0
 26 27  1  0  0  0  0
 26 18  1  0  0  0  0
 27 44  1  0  0  0  0
 27 15  1  0  0  0  0
 30  7  1  0  0  0  0
 36 17  1  0  0  0  0
 38 19  1  0  0  0  0
 41 25  1  0  0  0  0
 42 26  1  0  0  0  0
 43 26  1  0  0  0  0
 45 27  1  0  0  0  0
M  END
>  <Pose>
1

>  <Score>
-5.64

$$$$
