
 OpenBabel03172210433D

 32 35  0  0  1  0  0  0  0  0999 V2000
   37.4570   12.6520   44.8040 Cl  0  0  0  0  0  0  0  0  0  0  0  0
   38.6070   11.4540   45.4030 C   0  0  0  0  0  0  0  0  0  0  0  0
   39.7520   11.1430   44.7110 C   0  0  0  0  0  0  0  0  0  0  0  0
   40.6510   10.1870   45.2080 C   0  0  0  0  0  0  0  0  0  0  0  0
   40.4200    9.5380   46.3880 C   0  0  0  0  0  0  0  0  0  0  0  0
   39.2500    9.8510   47.1030 C   0  0  0  0  0  0  0  0  0  0  0  0
   38.3920   10.7910   46.5880 C   0  0  0  0  0  0  0  0  0  0  0  0
   41.4510    8.6160   46.7040 N   0  0  0  0  0  0  0  0  0  0  0  0
   42.3930    8.6920   45.6480 C   0  0  0  0  0  0  0  0  0  0  0  0
   43.4520    8.0010   45.5980 O   0  0  0  0  0  0  0  0  0  0  0  0
   41.9330    9.6880   44.6550 C   0  0  1  0  0  0  0  0  0  0  0  0
   41.7230    8.9420   43.3540 C   0  0  0  0  0  0  0  0  0  0  0  0
   43.1040    8.6030   42.8710 C   0  0  0  0  0  0  0  0  0  0  0  0
   43.4600    7.4470   42.5790 O   0  0  0  0  0  0  0  0  0  0  0  0
   44.0190    9.6990   42.7580 N   0  0  0  0  0  0  0  0  0  0  0  0
   43.8750   10.8220   43.6170 C   0  0  0  0  0  0  0  0  0  0  0  0
   44.5640   11.9890   43.7410 N   0  0  0  0  0  0  0  0  0  0  0  0
   44.0070   12.6940   44.6960 N   0  0  0  0  0  0  0  0  0  0  0  0
   42.9590   12.0450   45.2260 C   0  0  0  0  0  0  0  0  0  0  0  0
   42.8590   10.8290   44.5390 C   0  0  0  0  0  0  0  0  0  0  0  0
   41.5100    7.7620   47.8940 C   0  0  0  0  0  0  0  0  0  0  0  0
   39.9710   11.6220   43.7920 H   0  0  0  0  0  0  0  0  0  0  0  0
   39.0700    9.3350   48.0380 H   0  0  0  0  0  0  0  0  0  0  0  0
   37.4860   11.0260   47.1510 H   0  0  0  0  0  0  0  0  0  0  0  0
   41.1650    9.5060   42.6060 H   0  0  0  0  0  0  0  0  0  0  0  0
   41.2510    7.9740   43.6180 H   0  0  0  0  0  0  0  0  0  0  0  0
   44.7900    9.6870   42.0540 H   0  0  0  0  0  0  0  0  0  0  0  0
   45.3920   12.2270   43.1460 H   0  0  0  0  0  0  0  0  0  0  0  0
   42.2900   12.3350   46.0160 H   0  0  0  0  0  0  0  0  0  0  0  0
   42.3700    7.0750   47.7550 H   0  0  0  0  0  0  0  0  0  0  0  0
   41.5660    8.3430   48.8200 H   0  0  0  0  0  0  0  0  0  0  0  0
   40.5800    7.1320   47.9730 H   0  0  0  0  0  0  0  0  0  0  0  0
  1  2  1  0  0  0  0
  2  7  1  0  0  0  0
  3  4  1  0  0  0  0
  3  2  2  0  0  0  0
  4  5  2  0  0  0  0
  5  8  1  0  0  0  0
  5  6  1  0  0  0  0
  6 23  1  0  0  0  0
  7  6  2  0  0  0  0
  7 24  1  0  0  0  0
  8 21  1  0  0  0  0
  9  8  1  0  0  0  0
 10  9  2  0  0  0  0
 11 20  1  6  0  0  0
 11  4  1  0  0  0  0
 11  9  1  0  0  0  0
 12 26  1  0  0  0  0
 12 11  1  0  0  0  0
 13 12  1  0  0  0  0
 14 13  2  0  0  0  0
 15 13  1  0  0  0  0
 15 16  1  0  0  0  0
 16 17  1  0  0  0  0
 16 20  2  0  0  0  0
 17 18  1  0  0  0  0
 18 19  2  0  0  0  0
 19 29  1  0  0  0  0
 20 19  1  0  0  0  0
 21 32  1  0  0  0  0
 21 31  1  0  0  0  0
 22  3  1  0  0  0  0
 25 12  1  0  0  0  0
 27 15  1  0  0  0  0
 28 17  1  0  0  0  0
 30 21  1  0  0  0  0
M  END
>  <Pose>
1

>  <Score>
-4.91

$$$$
