
 OpenBabel03172210433D

 61 64  0  0  1  0  0  0  0  0999 V2000
   35.4030   11.4770   49.8550 Cl  0  0  0  0  0  0  0  0  0  0  0  0
   36.6800   11.0800   48.6990 C   0  0  0  0  0  0  0  0  0  0  0  0
   36.4050   11.0370   47.3490 C   0  0  0  0  0  0  0  0  0  0  0  0
   37.3880   10.7340   46.4640 C   0  0  0  0  0  0  0  0  0  0  0  0
   38.6880   10.4620   46.9130 C   0  0  0  0  0  0  0  0  0  0  0  0
   38.9390   10.5110   48.2630 C   0  0  0  0  0  0  0  0  0  0  0  0
   37.9450   10.8200   49.1820 C   0  0  0  0  0  0  0  0  0  0  0  0
   39.7250   10.1450   45.9900 N   0  0  0  0  0  0  0  0  0  0  0  0
   39.6280   10.6410   44.6250 C   0  0  2  0  0  0  0  0  0  0  0  0
   38.2900   10.3360   44.1750 N   0  0  0  0  0  0  0  0  0  0  0  0
   37.1970   10.6620   45.0170 C   0  0  0  0  0  0  0  0  0  0  0  0
   36.0410   10.9000   44.5820 O   0  0  0  0  0  0  0  0  0  0  0  0
   40.6310    9.9200   43.7890 C   0  0  0  0  0  0  0  0  0  0  0  0
   41.9990   10.5650   43.8020 C   0  0  0  0  0  0  0  0  0  0  0  0
   42.4350   10.8850   45.1450 N   0  0  0  0  0  0  0  0  0  0  0  0
   41.7220   11.8040   46.0090 C   0  0  0  0  0  0  0  0  0  0  0  0
   42.1450   11.8660   47.1860 O   0  0  0  0  0  0  0  0  0  0  0  0
   40.5730   12.6770   45.7200 C   0  0  0  0  0  0  0  0  0  0  0  0
   39.7570   12.1500   44.5780 C   0  0  0  0  0  0  0  0  0  0  0  0
   43.5830   10.2900   45.6970 C   0  0  0  0  0  0  0  0  0  0  0  0
   43.9350    8.9100   45.4480 C   0  0  0  0  0  0  0  0  0  0  0  0
   44.1950    8.2690   46.5880 O   0  0  0  0  0  0  0  0  0  0  0  0
   44.0320    8.1980   44.2740 N   0  0  0  0  0  0  0  0  0  0  0  0
   44.8210    8.7780   43.1560 C   0  0  0  0  0  0  0  0  0  0  0  0
   45.6680    7.6000   42.6490 C   0  0  0  0  0  0  0  0  0  0  0  0
   45.8060    6.5910   43.6450 N   0  0  0  0  0  0  0  0  0  0  0  0
   44.6120    5.8720   43.9760 C   0  0  0  0  0  0  0  0  0  0  0  0
   43.4760    6.9340   43.9890 C   0  0  0  0  0  0  0  0  0  0  0  0
   46.9820    5.7930   43.5720 C   0  0  0  0  0  0  0  0  0  0  0  0
   47.9630    6.0460   44.6990 C   0  0  0  0  0  0  0  0  0  0  0  0
   46.7040    4.3170   43.4820 C   0  0  0  0  0  0  0  0  0  0  0  0
   35.4170   11.2390   46.9560 H   0  0  0  0  0  0  0  0  0  0  0  0
   39.9620   10.2960   48.6020 H   0  0  0  0  0  0  0  0  0  0  0  0
   38.1560   10.8550   50.2390 H   0  0  0  0  0  0  0  0  0  0  0  0
   40.5130    9.5640   46.3450 H   0  0  0  0  0  0  0  0  0  0  0  0
   38.0850    9.8880   43.2600 H   0  0  0  0  0  0  0  0  0  0  0  0
   40.2740    9.9860   42.7200 H   0  0  0  0  0  0  0  0  0  0  0  0
   40.6370    8.8660   44.0800 H   0  0  0  0  0  0  0  0  0  0  0  0
   42.7040    9.9410   43.2560 H   0  0  0  0  0  0  0  0  0  0  0  0
   41.8980   11.5150   43.2430 H   0  0  0  0  0  0  0  0  0  0  0  0
   39.9230   12.7450   46.6280 H   0  0  0  0  0  0  0  0  0  0  0  0
   40.9130   13.7190   45.4450 H   0  0  0  0  0  0  0  0  0  0  0  0
   40.1420   12.4800   43.5920 H   0  0  0  0  0  0  0  0  0  0  0  0
   38.7380   12.6370   44.6550 H   0  0  0  0  0  0  0  0  0  0  0  0
   43.5980   10.3990   46.8460 H   0  0  0  0  0  0  0  0  0  0  0  0
   44.4670   10.9450   45.4250 H   0  0  0  0  0  0  0  0  0  0  0  0
   44.1270    9.1150   42.3610 H   0  0  0  0  0  0  0  0  0  0  0  0
   45.4210    9.6160   43.5040 H   0  0  0  0  0  0  0  0  0  0  0  0
   45.2420    7.2380   41.6850 H   0  0  0  0  0  0  0  0  0  0  0  0
   46.6740    8.0200   42.4480 H   0  0  0  0  0  0  0  0  0  0  0  0
   44.6830    5.5240   45.0260 H   0  0  0  0  0  0  0  0  0  0  0  0
   44.3570    5.0470   43.3070 H   0  0  0  0  0  0  0  0  0  0  0  0
   42.6300    6.5770   44.5530 H   0  0  0  0  0  0  0  0  0  0  0  0
   43.0770    6.9910   42.9120 H   0  0  0  0  0  0  0  0  0  0  0  0
   47.5170    6.0720   42.6320 H   0  0  0  0  0  0  0  0  0  0  0  0
   48.2740    7.1150   44.6460 H   0  0  0  0  0  0  0  0  0  0  0  0
   47.5470    5.7640   45.6650 H   0  0  0  0  0  0  0  0  0  0  0  0
   48.8770    5.4510   44.4630 H   0  0  0  0  0  0  0  0  0  0  0  0
   46.3950    3.8770   44.4440 H   0  0  0  0  0  0  0  0  0  0  0  0
   45.9190    4.1710   42.6830 H   0  0  0  0  0  0  0  0  0  0  0  0
   47.6460    3.8340   43.1390 H   0  0  0  0  0  0  0  0  0  0  0  0
  2  7  1  0  0  0  0
  2  1  1  0  0  0  0
  3  2  2  0  0  0  0
  4  5  2  0  0  0  0
  4  3  1  0  0  0  0
  5  6  1  0  0  0  0
  6 33  1  0  0  0  0
  6  7  2  0  0  0  0
  7 34  1  0  0  0  0
  8 35  1  0  0  0  0
  8  5  1  0  0  0  0
  9 13  1  6  0  0  0
  9  8  1  0  0  0  0
 10  9  1  0  0  0  0
 10 11  1  0  0  0  0
 11  4  1  0  0  0  0
 12 11  2  0  0  0  0
 13 14  1  0  0  0  0
 13 38  1  0  0  0  0
 14 15  1  0  0  0  0
 15 20  1  0  0  0  0
 15 16  1  0  0  0  0
 16 17  2  0  0  0  0
 18 16  1  0  0  0  0
 18 41  1  0  0  0  0
 19  9  1  0  0  0  0
 19 44  1  0  0  0  0
 19 18  1  0  0  0  0
 20 45  1  0  0  0  0
 21 20  1  0  0  0  0
 21 22  2  0  0  0  0
 23 21  1  0  0  0  0
 24 48  1  0  0  0  0
 24 23  1  0  0  0  0
 25 24  1  0  0  0  0
 25 26  1  0  0  0  0
 26 27  1  0  0  0  0
 27 28  1  0  0  0  0
 27 51  1  0  0  0  0
 28 23  1  0  0  0  0
 28 53  1  0  0  0  0
 29 26  1  0  0  0  0
 29 30  1  0  0  0  0
 30 57  1  0  0  0  0
 31 29  1  0  0  0  0
 31 59  1  0  0  0  0
 32  3  1  0  0  0  0
 36 10  1  0  0  0  0
 37 13  1  0  0  0  0
 39 14  1  0  0  0  0
 40 14  1  0  0  0  0
 42 18  1  0  0  0  0
 43 19  1  0  0  0  0
 46 20  1  0  0  0  0
 47 24  1  0  0  0  0
 49 25  1  0  0  0  0
 50 25  1  0  0  0  0
 52 27  1  0  0  0  0
 54 28  1  0  0  0  0
 55 29  1  0  0  0  0
 56 30  1  0  0  0  0
 58 30  1  0  0  0  0
 60 31  1  0  0  0  0
 61 31  1  0  0  0  0
M  END
>  <Pose>
1

>  <Score>
-5.25

$$$$
