
 OpenBabel03172210433D

 52 55  0  0  0  0  0  0  0  0999 V2000
   39.2180   13.3970   44.1880 Cl  0  0  0  0  0  0  0  0  0  0  0  0
   40.0690   11.8890   44.2960 C   0  0  0  0  0  0  0  0  0  0  0  0
   40.1670   11.1420   45.4480 C   0  0  0  0  0  0  0  0  0  0  0  0
   40.8460    9.9410   45.5120 C   0  0  0  0  0  0  0  0  0  0  0  0
   41.4650    9.4340   44.4000 C   0  0  0  0  0  0  0  0  0  0  0  0
   41.3600   10.1950   43.2480 C   0  0  0  0  0  0  0  0  0  0  0  0
   40.6870   11.3950   43.1630 C   0  0  0  0  0  0  0  0  0  0  0  0
   42.1610    8.1990   44.3420 N   0  0  0  0  0  0  0  0  0  0  0  0
   41.6950    7.0120   44.6250 N   0  0  0  0  0  0  0  0  0  0  0  0
   42.6140    6.0510   44.4880 C   0  0  0  0  0  0  0  0  0  0  0  0
   43.7850    6.6750   44.0780 C   0  0  0  0  0  0  0  0  0  0  0  0
   43.4580    8.0250   43.9990 C   0  0  0  0  0  0  0  0  0  0  0  0
   44.4360    8.8490   43.6130 N   0  0  0  0  0  0  0  0  0  0  0  0
   45.6730    8.3930   43.3180 C   0  0  0  0  0  0  0  0  0  0  0  0
   46.0180    7.0980   43.3860 N   0  0  0  0  0  0  0  0  0  0  0  0
   45.0500    6.2290   43.7740 C   0  0  0  0  0  0  0  0  0  0  0  0
   45.3260    5.0050   43.8500 O   0  0  0  0  0  0  0  0  0  0  0  0
   47.3630    6.6000   43.0810 C   0  0  0  0  0  0  0  0  0  0  0  0
   47.9040    5.7650   44.1680 C   0  0  0  0  0  0  0  0  0  0  0  0
   47.9880    6.3550   45.3030 O   0  0  0  0  0  0  0  0  0  0  0  0
   48.3150    4.4370   44.0820 N   0  0  0  0  0  0  0  0  0  0  0  0
   48.9410    3.7600   45.2290 C   0  0  0  0  0  0  0  0  0  0  0  0
   50.3730    3.4710   44.7590 C   0  0  0  0  0  0  0  0  0  0  0  0
   50.3550    2.7860   43.4930 N   0  0  0  0  0  0  0  0  0  0  0  0
   49.0600    2.4380   42.9390 C   0  0  0  0  0  0  0  0  0  0  0  0
   48.1370    3.6280   42.8970 C   0  0  0  0  0  0  0  0  0  0  0  0
   51.5490    2.4860   42.8020 C   0  0  0  0  0  0  0  0  0  0  0  0
   52.4880    3.3660   42.8310 O   0  0  0  0  0  0  0  0  0  0  0  0
   51.8130    1.3350   42.0940 O   0  0  0  0  0  0  0  0  0  0  0  0
   52.5380    0.2470   42.6990 C   0  0  0  0  0  0  0  0  0  0  0  0
   51.5480   -0.8950   42.8380 C   0  0  0  0  0  0  0  0  0  0  0  0
   39.6540   11.5730   46.3250 H   0  0  0  0  0  0  0  0  0  0  0  0
   40.9000    9.3900   46.4330 H   0  0  0  0  0  0  0  0  0  0  0  0
   41.8530    9.8080   42.3400 H   0  0  0  0  0  0  0  0  0  0  0  0
   40.6690   11.9070   42.2050 H   0  0  0  0  0  0  0  0  0  0  0  0
   42.5700    4.9870   44.6380 H   0  0  0  0  0  0  0  0  0  0  0  0
   46.4620    9.0900   43.0040 H   0  0  0  0  0  0  0  0  0  0  0  0
   48.0680    7.4810   42.9690 H   0  0  0  0  0  0  0  0  0  0  0  0
   47.3020    6.0730   42.1160 H   0  0  0  0  0  0  0  0  0  0  0  0
   48.4040    2.8390   45.4920 H   0  0  0  0  0  0  0  0  0  0  0  0
   49.0070    4.4820   46.0410 H   0  0  0  0  0  0  0  0  0  0  0  0
   50.8820    2.9360   45.5740 H   0  0  0  0  0  0  0  0  0  0  0  0
   50.9000    4.4660   44.6530 H   0  0  0  0  0  0  0  0  0  0  0  0
   48.6620    1.6130   43.5440 H   0  0  0  0  0  0  0  0  0  0  0  0
   49.2250    2.1010   41.8800 H   0  0  0  0  0  0  0  0  0  0  0  0
   47.0950    3.1900   42.9920 H   0  0  0  0  0  0  0  0  0  0  0  0
   48.2030    4.2220   41.9710 H   0  0  0  0  0  0  0  0  0  0  0  0
   53.3520   -0.0830   41.9780 H   0  0  0  0  0  0  0  0  0  0  0  0
   52.9760    0.4810   43.6540 H   0  0  0  0  0  0  0  0  0  0  0  0
   51.9300   -1.8670   42.5190 H   0  0  0  0  0  0  0  0  0  0  0  0
   51.2030   -0.8770   43.9160 H   0  0  0  0  0  0  0  0  0  0  0  0
   50.6580   -0.6570   42.2420 H   0  0  0  0  0  0  0  0  0  0  0  0
  1  2  1  0  0  0  0
  2  3  1  0  0  0  0
  3  4  2  0  0  0  0
  3 32  1  0  0  0  0
  4 33  1  0  0  0  0
  5  4  1  0  0  0  0
  6  5  2  0  0  0  0
  7  6  1  0  0  0  0
  7  2  2  0  0  0  0
  8  5  1  0  0  0  0
  8  9  1  0  0  0  0
 10  9  2  0  0  0  0
 10 36  1  0  0  0  0
 11 10  1  0  0  0  0
 12 11  2  0  0  0  0
 12  8  1  0  0  0  0
 13 12  1  0  0  0  0
 14 15  1  0  0  0  0
 14 13  2  0  0  0  0
 15 16  1  0  0  0  0
 16 17  2  0  0  0  0
 16 11  1  0  0  0  0
 18 15  1  0  0  0  0
 18 19  1  0  0  0  0
 19 20  2  0  0  0  0
 21 19  1  0  0  0  0
 21 22  1  0  0  0  0
 22 40  1  0  0  0  0
 22 41  1  0  0  0  0
 23 22  1  0  0  0  0
 23 42  1  0  0  0  0
 24 23  1  0  0  0  0
 25 24  1  0  0  0  0
 25 44  1  0  0  0  0
 26 25  1  0  0  0  0
 26 46  1  0  0  0  0
 26 21  1  0  0  0  0
 27 28  2  0  0  0  0
 27 24  1  0  0  0  0
 29 30  1  0  0  0  0
 29 27  1  0  0  0  0
 30 31  1  0  0  0  0
 30 49  1  0  0  0  0
 31 51  1  0  0  0  0
 34  6  1  0  0  0  0
 35  7  1  0  0  0  0
 37 14  1  0  0  0  0
 38 18  1  0  0  0  0
 39 18  1  0  0  0  0
 43 23  1  0  0  0  0
 45 25  1  0  0  0  0
 47 26  1  0  0  0  0
 48 30  1  0  0  0  0
 50 31  1  0  0  0  0
 52 31  1  0  0  0  0
M  END
>  <Pose>
1

>  <Score>
-7.41

$$$$
