
 OpenBabel03172210433D

 54 58  0  0  1  0  0  0  0  0999 V2000
   47.5710    4.1020   42.8630 S   0  0  0  0  0  0  0  0  0  0  0  0
   46.3140    3.4300   43.4020 O   0  0  0  0  0  0  0  0  0  0  0  0
   47.6960    3.5520   41.4420 O   0  0  0  0  0  0  0  0  0  0  0  0
   47.2650    5.7490   42.7460 N   0  0  0  0  0  0  0  0  0  0  0  0
   46.5230    6.1890   41.5930 C   0  0  0  0  0  0  0  0  0  0  0  0
   45.4260    7.1570   41.9730 C   0  0  0  0  0  0  0  0  0  0  0  0
   44.5540    6.5540   43.0110 N   0  0  0  0  0  0  0  0  0  0  0  0
   45.3660    6.3600   44.2040 C   0  0  0  0  0  0  0  0  0  0  0  0
   46.8580    6.4390   43.9310 C   0  0  0  0  0  0  0  0  0  0  0  0
   43.5620    7.5770   43.2630 C   0  0  0  0  0  0  0  0  0  0  0  0
   43.8570    8.5830   44.2930 C   0  0  0  0  0  0  0  0  0  0  0  0
   42.9380    9.6440   44.5310 N   0  0  0  0  0  0  0  0  0  0  0  0
   41.8860    9.7660   45.4820 C   0  0  0  0  0  0  0  0  0  0  0  0
   41.2760    8.8210   46.0020 O   0  0  0  0  0  0  0  0  0  0  0  0
   41.6440   11.2060   45.7430 C   0  0  1  0  0  0  0  0  0  0  0  0
   42.0510   11.8080   44.3790 C   0  0  2  0  0  0  0  0  0  0  0  0
   40.7830   12.0180   43.6410 C   0  0  1  0  0  0  0  0  0  0  0  0
   39.8430   11.0060   44.3180 C   0  0  0  0  0  0  0  0  0  0  0  0
   40.1850   11.4910   45.7380 C   0  0  2  0  0  0  0  0  0  0  0  0
   40.0350   12.9690   45.5220 C   0  0  0  0  0  0  0  0  0  0  0  0
   40.1520   13.2650   44.2280 C   0  0  0  0  0  0  0  0  0  0  0  0
   43.0010   10.8790   43.7840 C   0  0  0  0  0  0  0  0  0  0  0  0
   43.7310   11.1380   42.7950 O   0  0  0  0  0  0  0  0  0  0  0  0
   48.9750    3.6170   43.7240 C   0  0  0  0  0  0  0  0  0  0  0  0
   49.7910    2.6250   43.2370 C   0  0  0  0  0  0  0  0  0  0  0  0
   50.9200    2.2680   43.9520 C   0  0  0  0  0  0  0  0  0  0  0  0
   51.2640    2.8720   45.1480 C   0  0  0  0  0  0  0  0  0  0  0  0
   50.4420    3.8670   45.6330 C   0  0  0  0  0  0  0  0  0  0  0  0
   49.3080    4.2260   44.9130 C   0  0  0  0  0  0  0  0  0  0  0  0
   52.8180    2.3790   46.1360 B   0  0  0  0  0  0  0  0  0  0  0  0
   47.2280    6.7610   40.9450 H   0  0  0  0  0  0  0  0  0  0  0  0
   46.1500    5.3440   41.0170 H   0  0  0  0  0  0  0  0  0  0  0  0
   44.7810    7.3210   41.0920 H   0  0  0  0  0  0  0  0  0  0  0  0
   45.7980    8.1380   42.3220 H   0  0  0  0  0  0  0  0  0  0  0  0
   45.2040    5.3320   44.5700 H   0  0  0  0  0  0  0  0  0  0  0  0
   45.0500    7.1110   44.9500 H   0  0  0  0  0  0  0  0  0  0  0  0
   47.4510    6.1070   44.7810 H   0  0  0  0  0  0  0  0  0  0  0  0
   47.0910    7.5160   43.7710 H   0  0  0  0  0  0  0  0  0  0  0  0
   42.5930    7.0730   43.5800 H   0  0  0  0  0  0  0  0  0  0  0  0
   43.2580    8.0390   42.2700 H   0  0  0  0  0  0  0  0  0  0  0  0
   43.9580    8.0090   45.2740 H   0  0  0  0  0  0  0  0  0  0  0  0
   44.8990    8.9650   44.1050 H   0  0  0  0  0  0  0  0  0  0  0  0
   42.2190   11.6110   46.5690 H   0  0  0  0  0  0  0  0  0  0  0  0
   42.5070   12.8250   44.5560 H   0  0  0  0  0  0  0  0  0  0  0  0
   40.7890   11.9670   42.5790 H   0  0  0  0  0  0  0  0  0  0  0  0
   38.7890   11.1920   44.0810 H   0  0  0  0  0  0  0  0  0  0  0  0
   40.1700    9.9760   44.2120 H   0  0  0  0  0  0  0  0  0  0  0  0
   39.5780   11.0810   46.5090 H   0  0  0  0  0  0  0  0  0  0  0  0
   39.8560   13.7300   46.2740 H   0  0  0  0  0  0  0  0  0  0  0  0
   39.8670   14.1680   43.7230 H   0  0  0  0  0  0  0  0  0  0  0  0
   49.5690    2.1090   42.2890 H   0  0  0  0  0  0  0  0  0  0  0  0
   51.5660    1.4810   43.5640 H   0  0  0  0  0  0  0  0  0  0  0  0
   50.7210    4.3290   46.5670 H   0  0  0  0  0  0  0  0  0  0  0  0
   48.7230    5.0150   45.3630 H   0  0  0  0  0  0  0  0  0  0  0  0
  1  2  2  0  0  0  0
  1 24  1  0  0  0  0
  3  1  2  0  0  0  0
  4  1  1  0  0  0  0
  4  9  1  0  0  0  0
  5  6  1  0  0  0  0
  5  4  1  0  0  0  0
  6 34  1  0  0  0  0
  6  7  1  0  0  0  0
  7 10  1  0  0  0  0
  7  8  1  0  0  0  0
  8 35  1  0  0  0  0
  8 36  1  0  0  0  0
  9  8  1  0  0  0  0
  9 37  1  0  0  0  0
 10 39  1  0  0  0  0
 10 11  1  0  0  0  0
 11 12  1  0  0  0  0
 11 41  1  0  0  0  0
 12 13  1  0  0  0  0
 13 15  1  0  0  0  0
 13 14  2  0  0  0  0
 15 43  1  1  0  0  0
 16 44  1  1  0  0  0
 16 15  1  0  0  0  0
 17 45  1  6  0  0  0
 17 21  1  0  0  0  0
 17 18  1  0  0  0  0
 17 16  1  0  0  0  0
 18 19  1  0  0  0  0
 19 15  1  0  0  0  0
 19 48  1  1  0  0  0
 20 19  1  0  0  0  0
 20 49  1  0  0  0  0
 21 20  1  0  0  0  0
 22 16  1  0  0  0  0
 22 12  1  0  0  0  0
 23 22  2  0  0  0  0
 24 29  1  0  0  0  0
 25 24  2  0  0  0  0
 25 26  1  0  0  0  0
 26 27  2  0  0  0  0
 27 28  1  0  0  0  0
 27 30  1  0  0  0  0
 28 53  1  0  0  0  0
 29 54  1  0  0  0  0
 29 28  2  0  0  0  0
 31  5  1  0  0  0  0
 32  5  1  0  0  0  0
 33  6  1  0  0  0  0
 38  9  1  0  0  0  0
 40 10  1  0  0  0  0
 42 11  1  0  0  0  0
 46 18  1  0  0  0  0
 47 18  1  0  0  0  0
 50 21  1  0  0  0  0
 51 25  1  0  0  0  0
 52 26  1  0  0  0  0
M  END
>  <Pose>
1

>  <Score>
-6.21

$$$$
