
 OpenBabel03172210433D

 61 64  0  0  1  0  0  0  0  0999 V2000
   46.4560    4.7160   42.9820 B   0  0  0  0  0  0  0  0  0  0  0  0
   45.3860    6.2430   43.4700 C   0  0  0  0  0  0  0  0  0  0  0  0
   45.6620    7.4920   42.9780 C   0  0  0  0  0  0  0  0  0  0  0  0
   44.9230    8.6260   43.2980 C   0  0  0  0  0  0  0  0  0  0  0  0
   43.8540    8.4890   44.1540 C   0  0  0  0  0  0  0  0  0  0  0  0
   43.5850    7.2210   44.6450 C   0  0  0  0  0  0  0  0  0  0  0  0
   44.3170    6.1000   44.3290 C   0  0  0  0  0  0  0  0  0  0  0  0
   43.0070    9.6160   44.5170 C   0  0  0  0  0  0  0  0  0  0  0  0
   42.2250    9.3980   45.5070 O   0  0  0  0  0  0  0  0  0  0  0  0
   42.9870   10.9220   43.8580 C   0  0  2  0  0  0  0  0  0  0  0  0
   42.7150   12.0890   44.7690 C   0  0  1  0  0  0  0  0  0  0  0  0
   41.3320   12.2570   44.8180 N   0  0  0  0  0  0  0  0  0  0  0  0
   40.9460   12.0090   43.4080 C   0  0  0  0  0  0  0  0  0  0  0  0
   40.0000   12.5480   42.7730 O   0  0  0  0  0  0  0  0  0  0  0  0
   41.8720   11.0150   42.8890 C   0  0  0  0  0  0  0  0  0  0  0  0
   41.7300   10.3690   41.8120 O   0  0  0  0  0  0  0  0  0  0  0  0
   40.2810   12.6820   45.6890 C   0  0  0  0  0  0  0  0  0  0  0  0
   40.0390   11.8730   46.9070 C   0  0  0  0  0  0  0  0  0  0  0  0
   38.7920   11.3040   47.1960 N   0  0  0  0  0  4  0  0  0  0  0  0
   38.8080    9.8360   47.1480 C   0  0  0  0  0  0  0  0  0  0  0  0
   39.7030    9.2340   48.1790 C   0  0  0  0  0  0  0  0  0  0  0  0
   40.1450   10.2120   49.0410 O   0  0  0  0  0  0  0  0  0  0  0  0
   39.0150   10.8550   49.5740 C   0  0  0  0  0  0  0  0  0  0  0  0
   38.3490   11.7320   48.5350 C   0  0  0  0  0  0  0  0  0  0  0  0
   43.6440   12.2670   45.8570 C   0  0  0  0  0  0  0  0  0  0  0  0
   43.8880   11.3680   46.8470 C   0  0  0  0  0  0  0  0  0  0  0  0
   44.8180   11.6290   47.8410 C   0  0  0  0  0  0  0  0  0  0  0  0
   45.5170   12.8450   47.8220 C   0  0  0  0  0  0  0  0  0  0  0  0
   45.2700   13.7470   46.8270 C   0  0  0  0  0  0  0  0  0  0  0  0
   44.3580   13.4900   45.8510 C   0  0  0  0  0  0  0  0  0  0  0  0
   46.4530   13.1550   48.7880 O   0  0  0  0  0  0  0  0  0  0  0  0
   45.0850   10.7500   48.8410 O   0  0  0  0  0  0  0  0  0  0  0  0
   45.0900    9.3680   48.6900 C   0  0  0  0  0  0  0  0  0  0  0  0
   46.4600    8.7380   48.8720 C   0  0  0  0  0  0  0  0  0  0  0  0
   46.5060    7.6220   42.2960 H   0  0  0  0  0  0  0  0  0  0  0  0
   45.2280    9.5760   42.8770 H   0  0  0  0  0  0  0  0  0  0  0  0
   42.7420    7.0530   45.3340 H   0  0  0  0  0  0  0  0  0  0  0  0
   44.0900    5.1160   44.7240 H   0  0  0  0  0  0  0  0  0  0  0  0
   43.9630   11.0940   43.2990 H   0  0  0  0  0  0  0  0  0  0  0  0
   43.0060   13.0000   44.0020 H   0  0  0  0  0  0  0  0  0  0  0  0
   40.4430   13.7420   46.0420 H   0  0  0  0  0  0  0  0  0  0  0  0
   39.3210   12.6550   45.0900 H   0  0  0  0  0  0  0  0  0  0  0  0
   40.3520   12.4630   47.8450 H   0  0  0  0  0  0  0  0  0  0  0  0
   40.8160   11.0230   46.9670 H   0  0  0  0  0  0  0  0  0  0  0  0
   38.0630   11.6040   46.5540 H   0  0  0  0  0  0  0  0  0  0  0  0
   39.0160    9.5350   46.1160 H   0  0  0  0  0  0  0  0  0  0  0  0
   37.7580    9.5320   47.3780 H   0  0  0  0  0  0  0  0  0  0  0  0
   39.1660    8.4640   48.7770 H   0  0  0  0  0  0  0  0  0  0  0  0
   40.5820    8.7980   47.6460 H   0  0  0  0  0  0  0  0  0  0  0  0
   38.2740   10.1560   49.9650 H   0  0  0  0  0  0  0  0  0  0  0  0
   39.4000   11.5320   50.3700 H   0  0  0  0  0  0  0  0  0  0  0  0
   37.2450   11.7000   48.5850 H   0  0  0  0  0  0  0  0  0  0  0  0
   38.6480   12.7970   48.6150 H   0  0  0  0  0  0  0  0  0  0  0  0
   43.3540   10.4150   46.9280 H   0  0  0  0  0  0  0  0  0  0  0  0
   45.8210   14.7020   46.8140 H   0  0  0  0  0  0  0  0  0  0  0  0
   44.1870   14.2290   45.0750 H   0  0  0  0  0  0  0  0  0  0  0  0
   44.3900    8.8720   49.4020 H   0  0  0  0  0  0  0  0  0  0  0  0
   44.7340    9.0630   47.6750 H   0  0  0  0  0  0  0  0  0  0  0  0
   46.4790    8.2240   49.8700 H   0  0  0  0  0  0  0  0  0  0  0  0
   46.6230    7.9720   48.1010 H   0  0  0  0  0  0  0  0  0  0  0  0
   47.2590    9.4780   48.8740 H   0  0  0  0  0  0  0  0  0  0  0  0
  1  2  1  0  0  0  0
  2  7  1  0  0  0  0
  3  4  1  0  0  0  0
  3  2  2  0  0  0  0
  4  5  2  0  0  0  0
  5  8  1  0  0  0  0
  5  6  1  0  0  0  0
  6 37  1  0  0  0  0
  7  6  2  0  0  0  0
  7 38  1  0  0  0  0
  8  9  2  0  0  0  0
 10 39  1  6  0  0  0
 10  8  1  0  0  0  0
 10 11  1  0  0  0  0
 11 40  1  6  0  0  0
 11 12  1  0  0  0  0
 11 25  1  0  0  0  0
 12 17  1  0  0  0  0
 13 12  1  0  0  0  0
 14 13  2  0  0  0  0
 15 13  1  0  0  0  0
 15 10  1  0  0  0  0
 16 15  2  0  0  0  0
 17 41  1  0  0  0  0
 17 18  1  0  0  0  0
 18 44  1  0  0  0  0
 18 19  1  0  0  0  0
 18 43  1  0  0  0  0
 19 24  1  0  0  0  0
 20 19  1  0  0  0  0
 20 47  1  0  0  0  0
 20 21  1  0  0  0  0
 21 48  1  0  0  0  0
 21 22  1  0  0  0  0
 22 23  1  0  0  0  0
 23 50  1  0  0  0  0
 23 51  1  0  0  0  0
 24 52  1  0  0  0  0
 24 53  1  0  0  0  0
 24 23  1  0  0  0  0
 25 26  1  0  0  0  0
 26 54  1  0  0  0  0
 26 27  2  0  0  0  0
 27 32  1  0  0  0  0
 28 27  1  0  0  0  0
 28 31  1  0  0  0  0
 29 28  2  0  0  0  0
 30 25  2  0  0  0  0
 30 29  1  0  0  0  0
 33 32  1  0  0  0  0
 33 34  1  0  0  0  0
 33 57  1  0  0  0  0
 34 61  1  0  0  0  0
 34 59  1  0  0  0  0
 35  3  1  0  0  0  0
 36  4  1  0  0  0  0
 42 17  1  0  0  0  0
 45 19  1  0  0  0  0
 46 20  1  0  0  0  0
 49 21  1  0  0  0  0
 55 29  1  0  0  0  0
 56 30  1  0  0  0  0
 58 33  1  0  0  0  0
 60 34  1  0  0  0  0
M  END
>  <Pose>
1

>  <Score>
-5.80

$$$$
