
 OpenBabel03172210433D

 49 52  0  0  1  0  0  0  0  0999 V2000
   51.7850    2.3200   46.7140 Cl  0  0  0  0  0  0  0  0  0  0  0  0
   50.7780    2.6650   45.3280 C   0  0  0  0  0  0  0  0  0  0  0  0
   49.5960    3.3760   45.4880 C   0  0  0  0  0  0  0  0  0  0  0  0
   48.7880    3.6600   44.3990 C   0  0  0  0  0  0  0  0  0  0  0  0
   47.6230    4.3050   44.2310 N   0  0  0  0  0  0  0  0  0  0  0  0
   47.2430    4.3030   42.9240 C   0  0  0  0  0  0  0  0  0  0  0  0
   48.2310    3.6230   42.2840 N   0  0  0  0  0  0  0  0  0  0  0  0
   49.1700    3.2270   43.1530 C   0  0  0  0  0  0  0  0  0  0  0  0
   50.3440    2.5210   43.0000 C   0  0  0  0  0  0  0  0  0  0  0  0
   51.1660    2.2290   44.0800 C   0  0  0  0  0  0  0  0  0  0  0  0
   46.0220    4.9310   42.3850 C   0  0  0  0  0  0  0  0  0  0  0  0
   46.1710    6.4180   42.2800 C   0  0  0  0  0  0  0  0  0  0  0  0
   46.0660    7.0430   43.6140 C   0  0  0  0  0  0  0  0  0  0  0  0
   47.1090    7.5040   44.1390 O   0  0  0  0  0  0  0  0  0  0  0  0
   44.8530    7.1460   44.3280 N   0  0  0  0  0  0  0  0  0  0  0  0
   44.3530    8.1920   45.1960 C   0  0  0  0  0  0  0  0  0  0  0  0
   42.9330    8.2710   44.8510 C   0  0  2  0  0  0  0  0  0  0  0  0
   42.6080    7.0490   43.9890 C   0  0  1  0  0  0  0  0  0  0  0  0
   43.8150    6.1480   44.3270 C   0  0  0  0  0  0  0  0  0  0  0  0
   41.4290    6.4400   44.3380 O   0  0  0  0  0  0  0  0  0  0  0  0
   42.3650    9.4460   44.3160 N   0  0  0  0  0  0  0  0  0  0  0  0
   41.2100    9.8960   44.8770 C   0  0  0  0  0  0  0  0  0  0  0  0
   40.5790   11.0340   44.4290 C   0  0  0  0  0  0  0  0  0  0  0  0
   41.1110   11.7570   43.3870 C   0  0  0  0  0  0  0  0  0  0  0  0
   40.5520   12.8090   42.9550 O   0  0  0  0  0  0  0  0  0  0  0  0
   42.2510   11.3140   42.8340 N   0  0  0  0  0  0  0  0  0  0  0  0
   42.8170   10.2030   43.3120 C   0  0  0  0  0  0  0  0  0  0  0  0
   43.8760    9.8380   42.7620 O   0  0  0  0  0  0  0  0  0  0  0  0
   39.3060   11.5180   45.0580 C   0  0  0  0  0  0  0  0  0  0  0  0
   49.2780    3.7260   46.4640 H   0  0  0  0  0  0  0  0  0  0  0  0
   47.1140    4.7360   45.0410 H   0  0  0  0  0  0  0  0  0  0  0  0
   50.6760    2.1660   42.0380 H   0  0  0  0  0  0  0  0  0  0  0  0
   52.0750    1.6760   43.9270 H   0  0  0  0  0  0  0  0  0  0  0  0
   45.1830    4.7150   43.0890 H   0  0  0  0  0  0  0  0  0  0  0  0
   45.7820    4.4960   41.3700 H   0  0  0  0  0  0  0  0  0  0  0  0
   47.2240    6.6430   41.9330 H   0  0  0  0  0  0  0  0  0  0  0  0
   45.5160    6.8650   41.5170 H   0  0  0  0  0  0  0  0  0  0  0  0
   44.9710    9.0940   45.1890 H   0  0  0  0  0  0  0  0  0  0  0  0
   44.5000    7.7710   46.2390 H   0  0  0  0  0  0  0  0  0  0  0  0
   42.3330    8.0650   45.7980 H   0  0  0  0  0  0  0  0  0  0  0  0
   42.6920    7.2550   42.9080 H   0  0  0  0  0  0  0  0  0  0  0  0
   43.9530    5.3660   43.5520 H   0  0  0  0  0  0  0  0  0  0  0  0
   43.6180    5.7230   45.3330 H   0  0  0  0  0  0  0  0  0  0  0  0
   41.5600    5.4600   44.2860 H   0  0  0  0  0  0  0  0  0  0  0  0
   40.7260    9.3930   45.7000 H   0  0  0  0  0  0  0  0  0  0  0  0
   42.6840   11.8540   42.0230 H   0  0  0  0  0  0  0  0  0  0  0  0
   38.9370   10.7610   45.7990 H   0  0  0  0  0  0  0  0  0  0  0  0
   39.4220   12.5030   45.4990 H   0  0  0  0  0  0  0  0  0  0  0  0
   38.5180   11.5790   44.2590 H   0  0  0  0  0  0  0  0  0  0  0  0
  2  3  1  0  0  0  0
  2  1  1  0  0  0  0
  3 30  1  0  0  0  0
  4  3  2  0  0  0  0
  5  4  1  0  0  0  0
  5 31  1  0  0  0  0
  6  5  1  0  0  0  0
  7  6  2  0  0  0  0
  7  8  1  0  0  0  0
  8  4  1  0  0  0  0
  9  8  2  0  0  0  0
  9 10  1  0  0  0  0
 10  2  2  0  0  0  0
 11  6  1  0  0  0  0
 11 34  1  0  0  0  0
 12 11  1  0  0  0  0
 12 13  1  0  0  0  0
 13 14  2  0  0  0  0
 13 15  1  0  0  0  0
 15 16  1  0  0  0  0
 16 39  1  0  0  0  0
 17 16  1  0  0  0  0
 17 40  1  1  0  0  0
 18 41  1  6  0  0  0
 18 19  1  0  0  0  0
 18 20  1  0  0  0  0
 18 17  1  0  0  0  0
 19 15  1  0  0  0  0
 19 43  1  0  0  0  0
 21 17  1  0  0  0  0
 21 22  1  0  0  0  0
 22 45  1  0  0  0  0
 23 22  2  0  0  0  0
 23 29  1  0  0  0  0
 24 23  1  0  0  0  0
 25 24  2  0  0  0  0
 26 27  1  0  0  0  0
 26 24  1  0  0  0  0
 27 21  1  0  0  0  0
 28 27  2  0  0  0  0
 29 48  1  0  0  0  0
 29 47  1  0  0  0  0
 32  9  1  0  0  0  0
 33 10  1  0  0  0  0
 35 11  1  0  0  0  0
 36 12  1  0  0  0  0
 37 12  1  0  0  0  0
 38 16  1  0  0  0  0
 42 19  1  0  0  0  0
 44 20  1  0  0  0  0
 46 26  1  0  0  0  0
 49 29  1  0  0  0  0
M  END
>  <Pose>
1

>  <Score>
-7.65

$$$$
