
 OpenBabel03172210433D

 55 58  0  0  1  0  0  0  0  0999 V2000
   36.9300   15.1700   46.5720 Cl  0  0  0  0  0  0  0  0  0  0  0  0
   38.3830   14.3800   46.0070 C   0  0  0  0  0  0  0  0  0  0  0  0
   38.3850   13.5190   44.9220 C   0  0  0  0  0  0  0  0  0  0  0  0
   39.5340   12.9030   44.4850 C   0  0  0  0  0  0  0  0  0  0  0  0
   39.7970   12.0500   43.4870 N   0  0  0  0  0  0  0  0  0  0  0  0
   41.1190   11.7250   43.4720 C   0  0  0  0  0  0  0  0  0  0  0  0
   41.6470   12.4010   44.4820 N   0  0  0  0  0  0  0  0  0  0  0  0
   40.7280   13.1270   45.1250 C   0  0  0  0  0  0  0  0  0  0  0  0
   40.7520   13.9790   46.2070 C   0  0  0  0  0  0  0  0  0  0  0  0
   39.5900   14.6020   46.6460 C   0  0  0  0  0  0  0  0  0  0  0  0
   41.7540   10.8140   42.4900 C   0  0  0  0  0  0  0  0  0  0  0  0
   41.4380    9.3950   42.8680 C   0  0  0  0  0  0  0  0  0  0  0  0
   42.5230    8.5110   42.4120 C   0  0  0  0  0  0  0  0  0  0  0  0
   42.5420    8.0730   41.2330 O   0  0  0  0  0  0  0  0  0  0  0  0
   43.5510    8.1620   43.3380 N   0  0  0  0  0  0  0  0  0  0  0  0
   44.8430    8.8080   43.3920 C   0  0  0  0  0  0  0  0  0  0  0  0
   45.9410    7.7820   43.7230 C   0  0  1  0  0  0  0  0  0  0  0  0
   45.4400    6.4620   43.2470 C   0  0  2  0  0  0  0  0  0  0  0  0
   44.3280    5.9940   44.1590 C   0  0  0  0  0  0  0  0  0  0  0  0
   43.3010    7.1000   44.2890 C   0  0  0  0  0  0  0  0  0  0  0  0
   46.4260    5.4700   43.0010 N   0  0  0  0  0  0  0  0  0  0  0  0
   47.2360    4.9750   43.9490 C   0  0  0  0  0  0  0  0  0  0  0  0
   48.1900    4.0040   43.6710 C   0  0  0  0  0  0  0  0  0  0  0  0
   48.3090    3.5340   42.3840 C   0  0  0  0  0  0  0  0  0  0  0  0
   49.1800    2.6450   42.1250 O   0  0  0  0  0  0  0  0  0  0  0  0
   47.4990    4.0300   41.4390 N   0  0  0  0  0  0  0  0  0  0  0  0
   46.5910    4.9690   41.7590 C   0  0  0  0  0  0  0  0  0  0  0  0
   45.8180    5.4410   40.8530 O   0  0  0  0  0  0  0  0  0  0  0  0
   49.0700    3.4870   44.7750 C   0  0  0  0  0  0  0  0  0  0  0  0
   47.0710    8.2140   43.0120 O   0  0  0  0  0  0  0  0  0  0  0  0
   46.1980    7.8800   45.1930 C   0  0  0  0  0  0  0  0  0  0  0  0
   37.4300   13.3630   44.4400 H   0  0  0  0  0  0  0  0  0  0  0  0
   39.1020   11.6620   42.7920 H   0  0  0  0  0  0  0  0  0  0  0  0
   41.6950   14.1430   46.6950 H   0  0  0  0  0  0  0  0  0  0  0  0
   39.6500   15.2620   47.4980 H   0  0  0  0  0  0  0  0  0  0  0  0
   42.8680   10.9150   42.5510 H   0  0  0  0  0  0  0  0  0  0  0  0
   41.3880   10.9960   41.4580 H   0  0  0  0  0  0  0  0  0  0  0  0
   41.3070    9.3190   43.9780 H   0  0  0  0  0  0  0  0  0  0  0  0
   40.4430    9.0890   42.4620 H   0  0  0  0  0  0  0  0  0  0  0  0
   45.0670    9.3530   42.4770 H   0  0  0  0  0  0  0  0  0  0  0  0
   44.7710    9.5760   44.2170 H   0  0  0  0  0  0  0  0  0  0  0  0
   44.9360    6.6600   42.2530 H   0  0  0  0  0  0  0  0  0  0  0  0
   43.7750    5.1250   43.7060 H   0  0  0  0  0  0  0  0  0  0  0  0
   44.6790    5.6360   45.1380 H   0  0  0  0  0  0  0  0  0  0  0  0
   42.2640    6.7240   44.1920 H   0  0  0  0  0  0  0  0  0  0  0  0
   43.4300    7.5590   45.3130 H   0  0  0  0  0  0  0  0  0  0  0  0
   47.1250    5.3560   44.9440 H   0  0  0  0  0  0  0  0  0  0  0  0
   47.5790    3.6820   40.4610 H   0  0  0  0  0  0  0  0  0  0  0  0
   50.0490    3.2070   44.2930 H   0  0  0  0  0  0  0  0  0  0  0  0
   49.2840    4.3460   45.4290 H   0  0  0  0  0  0  0  0  0  0  0  0
   48.6260    2.6220   45.2740 H   0  0  0  0  0  0  0  0  0  0  0  0
   46.8420    9.0680   42.5240 H   0  0  0  0  0  0  0  0  0  0  0  0
   45.5350    8.6380   45.7050 H   0  0  0  0  0  0  0  0  0  0  0  0
   47.2360    8.2700   45.4030 H   0  0  0  0  0  0  0  0  0  0  0  0
   46.1070    6.9520   45.7540 H   0  0  0  0  0  0  0  0  0  0  0  0
  2  1  1  0  0  0  0
  2 10  1  0  0  0  0
  3  2  2  0  0  0  0
  4  3  1  0  0  0  0
  4  8  2  0  0  0  0
  5  4  1  0  0  0  0
  6  5  1  0  0  0  0
  6  7  2  0  0  0  0
  7  8  1  0  0  0  0
  8  9  1  0  0  0  0
  9 10  2  0  0  0  0
  9 34  1  0  0  0  0
 10 35  1  0  0  0  0
 11 36  1  0  0  0  0
 11 12  1  0  0  0  0
 11  6  1  0  0  0  0
 12 38  1  0  0  0  0
 13 12  1  0  0  0  0
 13 15  1  0  0  0  0
 14 13  2  0  0  0  0
 15 16  1  0  0  0  0
 15 20  1  0  0  0  0
 16 17  1  0  0  0  0
 16 41  1  0  0  0  0
 17 30  1  6  0  0  0
 17 31  1  0  0  0  0
 18 42  1  6  0  0  0
 18 17  1  0  0  0  0
 18 19  1  0  0  0  0
 19 20  1  0  0  0  0
 19 44  1  0  0  0  0
 20 46  1  0  0  0  0
 21 18  1  0  0  0  0
 21 22  1  0  0  0  0
 22 47  1  0  0  0  0
 23 22  2  0  0  0  0
 23 29  1  0  0  0  0
 24 23  1  0  0  0  0
 25 24  2  0  0  0  0
 26 27  1  0  0  0  0
 26 24  1  0  0  0  0
 27 21  1  0  0  0  0
 28 27  2  0  0  0  0
 29 51  1  0  0  0  0
 29 50  1  0  0  0  0
 31 54  1  0  0  0  0
 31 53  1  0  0  0  0
 31 55  1  0  0  0  0
 32  3  1  0  0  0  0
 33  5  1  0  0  0  0
 37 11  1  0  0  0  0
 39 12  1  0  0  0  0
 40 16  1  0  0  0  0
 43 19  1  0  0  0  0
 45 20  1  0  0  0  0
 48 26  1  0  0  0  0
 49 29  1  0  0  0  0
 52 30  1  0  0  0  0
M  END
>  <Pose>
1

>  <Score>
-8.16

$$$$
