
 OpenBabel03172210433D

 43 46  0  0  1  0  0  0  0  0999 V2000
   47.5970    3.1430   41.9590 Cl  0  0  0  0  0  0  0  0  0  0  0  0
   47.7660    4.3570   43.1980 C   0  0  0  0  0  0  0  0  0  0  0  0
   48.7080    4.2770   44.1290 N   0  0  0  0  0  4  0  0  0  0  0  0
   48.9080    5.1620   45.1110 C   0  0  0  0  0  0  0  0  0  0  0  0
   49.7710    5.2820   46.1330 N   0  0  0  0  0  0  0  0  0  0  0  0
   49.4950    6.4060   46.8160 C   0  0  0  0  0  0  0  0  0  0  0  0
   48.4450    6.9810   46.2000 N   0  0  0  0  0  0  0  0  0  0  0  0
   48.0460    6.2540   45.1450 C   0  0  1  0  0  0  0  0  0  0  0  0
   47.0670    6.3470   44.1860 C   0  0  0  0  0  0  0  0  0  0  0  0
   46.9290    5.4180   43.2300 N   0  0  0  0  0  0  0  0  0  0  0  0
   46.1940    7.4990   44.2560 N   0  0  0  0  0  0  0  0  0  0  0  0
   44.7950    7.3160   44.1660 C   0  0  0  0  0  0  0  0  0  0  0  0
   43.9770    8.5080   44.3290 C   0  0  0  0  0  0  0  0  0  0  0  0
   43.3160    8.8340   43.1970 O   0  0  0  0  0  0  0  0  0  0  0  0
   43.7660    9.3370   45.3950 N   0  0  0  0  0  0  0  0  0  0  0  0
   43.6370    8.9950   46.7700 C   0  0  0  0  0  0  0  0  0  0  0  0
   42.2470    9.3250   47.3100 C   0  0  0  0  0  0  0  0  0  0  0  0
   41.8090   10.4680   46.5620 N   0  0  0  0  0  0  0  0  0  0  0  0
   42.7940   11.4400   46.1860 C   0  0  0  0  0  0  0  0  0  0  0  0
   43.6280   10.8070   45.0670 C   0  0  0  0  0  0  0  0  0  0  0  0
   40.4660   10.6650   46.1930 C   0  0  0  0  0  0  0  0  0  0  0  0
   39.9430   10.1150   45.0590 N   0  0  0  0  0  0  0  0  0  0  0  0
   38.6930   10.2620   44.6560 C   0  0  0  0  0  0  0  0  0  0  0  0
   37.7930   11.0030   45.3690 C   0  0  0  0  0  0  0  0  0  0  0  0
   38.2590   11.5920   46.5350 C   0  0  0  0  0  0  0  0  0  0  0  0
   39.5750   11.4230   46.9380 C   0  0  0  0  0  0  0  0  0  0  0  0
   49.9960    6.8080   47.6990 H   0  0  0  0  0  0  0  0  0  0  0  0
   47.9600    7.8790   46.4670 H   0  0  0  0  0  0  0  0  0  0  0  0
   46.5990    8.4340   44.3610 H   0  0  0  0  0  0  0  0  0  0  0  0
   44.5090    6.7430   43.2260 H   0  0  0  0  0  0  0  0  0  0  0  0
   44.5130    6.6310   45.0450 H   0  0  0  0  0  0  0  0  0  0  0  0
   43.8580    7.9660   46.9710 H   0  0  0  0  0  0  0  0  0  0  0  0
   44.3660    9.6700   47.3530 H   0  0  0  0  0  0  0  0  0  0  0  0
   42.3350    9.6230   48.3830 H   0  0  0  0  0  0  0  0  0  0  0  0
   41.6220    8.4480   47.2440 H   0  0  0  0  0  0  0  0  0  0  0  0
   43.5040   11.6680   47.0090 H   0  0  0  0  0  0  0  0  0  0  0  0
   42.3230   12.3460   45.7710 H   0  0  0  0  0  0  0  0  0  0  0  0
   44.6120   11.2550   45.0370 H   0  0  0  0  0  0  0  0  0  0  0  0
   43.1110   10.8250   44.1040 H   0  0  0  0  0  0  0  0  0  0  0  0
   38.3570    9.7820   43.7270 H   0  0  0  0  0  0  0  0  0  0  0  0
   36.7860   11.1160   45.0360 H   0  0  0  0  0  0  0  0  0  0  0  0
   37.5520   12.1910   47.1240 H   0  0  0  0  0  0  0  0  0  0  0  0
   39.8840   11.8930   47.8350 H   0  0  0  0  0  0  0  0  0  0  0  0
  1  2  1  0  0  0  0
  2 10  1  0  0  0  0
  2  3  2  0  0  0  0
  3  4  2  0  0  0  0
  4  8  1  0  0  0  0
  4  5  1  0  0  0  0
  5  6  2  0  0  0  0
  6 27  1  0  0  0  0
  7 28  1  0  0  0  0
  7  6  1  0  0  0  0
  8  9  1  6  0  0  0
  8  7  1  0  0  0  0
  9 11  1  0  0  0  0
 10  9  2  0  0  0  0
 11 29  1  0  0  0  0
 12 11  1  0  0  0  0
 12 13  1  0  0  0  0
 12 31  1  0  0  0  0
 13 15  1  0  0  0  0
 14 13  2  0  0  0  0
 15 16  1  0  0  0  0
 16 32  1  0  0  0  0
 16 17  1  0  0  0  0
 16 33  1  0  0  0  0
 17 34  1  0  0  0  0
 18 17  1  0  0  0  0
 19 18  1  0  0  0  0
 19 36  1  0  0  0  0
 20 15  1  0  0  0  0
 20 19  1  0  0  0  0
 21 18  1  0  0  0  0
 21 26  1  0  0  0  0
 22 21  2  0  0  0  0
 23 22  1  0  0  0  0
 23 24  2  0  0  0  0
 24 25  1  0  0  0  0
 25 26  2  0  0  0  0
 25 42  1  0  0  0  0
 26 43  1  0  0  0  0
 30 12  1  0  0  0  0
 35 17  1  0  0  0  0
 37 19  1  0  0  0  0
 38 20  1  0  0  0  0
 39 20  1  0  0  0  0
 40 23  1  0  0  0  0
 41 24  1  0  0  0  0
M  END
>  <Pose>
1

>  <Score>
-6.73

$$$$
