
 OpenBabel03172210433D

 53 56  0  0  1  0  0  0  0  0999 V2000
   49.9690    5.1380   46.9090 B   0  0  0  0  0  0  0  0  0  0  0  0
   49.8980    3.9720   45.4040 C   0  0  0  0  0  0  0  0  0  0  0  0
   48.9660    4.2260   44.4230 C   0  0  0  0  0  0  0  0  0  0  0  0
   48.9280    3.3750   43.3410 C   0  0  0  0  0  0  0  0  0  0  0  0
   49.8060    2.2910   43.2460 C   0  0  0  0  0  0  0  0  0  0  0  0
   50.7300    2.0630   44.2470 C   0  0  0  0  0  0  0  0  0  0  0  0
   50.7810    2.8970   45.3250 C   0  0  0  0  0  0  0  0  0  0  0  0
   51.6810    0.9110   44.1690 C   0  0  0  0  0  0  0  0  0  0  0  0
   47.6510    3.6970   41.9670 B   0  0  0  0  0  0  0  0  0  0  0  0
   48.1250    5.2820   44.5340 O   0  0  0  0  0  0  0  0  0  0  0  0
   47.0480    5.6130   43.7070 C   0  0  0  0  0  0  0  0  0  0  0  0
   46.2990    6.7520   44.3990 C   0  0  1  0  0  0  0  0  0  0  0  0
   46.8480    7.0330   45.6490 O   0  0  0  0  0  0  0  0  0  0  0  0
   46.4220    7.9480   43.5100 C   0  0  0  0  0  0  0  0  0  0  0  0
   45.1580    8.4140   42.9740 N   0  0  0  0  0  4  0  0  0  0  0  0
   44.3950    7.2620   42.6310 C   0  0  0  0  0  0  0  0  0  0  0  0
   42.9980    7.2360   43.1670 C   0  0  1  0  0  0  0  0  0  0  0  0
   42.9020    6.9840   44.6300 C   0  0  0  0  0  0  0  0  0  0  0  0
   42.4120    8.0890   45.4050 N   0  0  0  0  0  0  0  0  0  0  0  0
   42.4610    9.3770   45.0170 C   0  0  0  0  0  0  0  0  0  0  0  0
   41.9950   10.4280   45.7530 C   0  0  0  0  0  0  0  0  0  0  0  0
   41.4290   10.1720   46.9860 C   0  0  0  0  0  0  0  0  0  0  0  0
   41.3750    8.8600   47.3900 C   0  0  0  0  0  0  0  0  0  0  0  0
   41.8540    7.8260   46.6220 C   0  0  0  0  0  0  0  0  0  0  0  0
   41.7870    6.6350   47.0250 O   0  0  0  0  0  0  0  0  0  0  0  0
   43.0930    9.5880   43.6590 C   0  0  1  0  0  0  0  0  0  0  0  0
   44.5440    9.3650   43.8190 C   0  0  0  0  0  0  0  0  0  0  0  0
   42.3930    8.5890   42.7720 C   0  0  0  0  0  0  0  0  0  0  0  0
   49.7830    1.6170   42.4020 H   0  0  0  0  0  0  0  0  0  0  0  0
   51.5170    2.6920   46.0960 H   0  0  0  0  0  0  0  0  0  0  0  0
   51.7570    0.4490   45.1710 H   0  0  0  0  0  0  0  0  0  0  0  0
   52.7110    1.2950   43.9230 H   0  0  0  0  0  0  0  0  0  0  0  0
   51.3720    0.1780   43.3900 H   0  0  0  0  0  0  0  0  0  0  0  0
   47.3190    5.8710   42.6760 H   0  0  0  0  0  0  0  0  0  0  0  0
   46.3460    4.7560   43.6730 H   0  0  0  0  0  0  0  0  0  0  0  0
   45.2790    6.4010   44.5590 H   0  0  0  0  0  0  0  0  0  0  0  0
   47.2070    7.9630   45.5870 H   0  0  0  0  0  0  0  0  0  0  0  0
   46.8620    8.7760   44.1010 H   0  0  0  0  0  0  0  0  0  0  0  0
   47.1060    7.7750   42.6550 H   0  0  0  0  0  0  0  0  0  0  0  0
   45.4110    8.9080   42.0650 H   0  0  0  0  0  0  0  0  0  0  0  0
   44.3080    7.1260   41.5120 H   0  0  0  0  0  0  0  0  0  0  0  0
   44.8780    6.2960   42.9670 H   0  0  0  0  0  0  0  0  0  0  0  0
   42.4230    6.4760   42.5640 H   0  0  0  0  0  0  0  0  0  0  0  0
   42.1730    6.1360   44.7920 H   0  0  0  0  0  0  0  0  0  0  0  0
   43.8610    6.5990   45.0710 H   0  0  0  0  0  0  0  0  0  0  0  0
   42.0850   11.4240   45.3460 H   0  0  0  0  0  0  0  0  0  0  0  0
   41.0590   10.9980   47.5730 H   0  0  0  0  0  0  0  0  0  0  0  0
   40.9350    8.6230   48.3560 H   0  0  0  0  0  0  0  0  0  0  0  0
   42.8160   10.5980   43.2870 H   0  0  0  0  0  0  0  0  0  0  0  0
   45.0440   10.3630   43.6310 H   0  0  0  0  0  0  0  0  0  0  0  0
   44.8490    9.1250   44.8810 H   0  0  0  0  0  0  0  0  0  0  0  0
   42.5420    8.7590   41.7070 H   0  0  0  0  0  0  0  0  0  0  0  0
   41.3070    8.5050   43.0460 H   0  0  0  0  0  0  0  0  0  0  0  0
  2  1  1  0  0  0  0
  3 10  1  0  0  0  0
  3  2  2  0  0  0  0
  4  3  1  0  0  0  0
  5  4  2  0  0  0  0
  5  6  1  0  0  0  0
  6  7  2  0  0  0  0
  7  2  1  0  0  0  0
  7 30  1  0  0  0  0
  8  6  1  0  0  0  0
  8 31  1  0  0  0  0
  9  4  1  0  0  0  0
 11 12  1  0  0  0  0
 11 10  1  0  0  0  0
 12 36  1  1  0  0  0
 12 13  1  0  0  0  0
 14 38  1  0  0  0  0
 14 12  1  0  0  0  0
 15 14  1  0  0  0  0
 15 27  1  0  0  0  0
 16 42  1  0  0  0  0
 16 15  1  0  0  0  0
 16 17  1  0  0  0  0
 17 43  1  6  0  0  0
 17 18  1  0  0  0  0
 18 44  1  0  0  0  0
 18 45  1  0  0  0  0
 18 19  1  0  0  0  0
 19 24  1  0  0  0  0
 20 19  1  0  0  0  0
 20 21  2  0  0  0  0
 21 22  1  0  0  0  0
 22 23  2  0  0  0  0
 22 47  1  0  0  0  0
 23 48  1  0  0  0  0
 24 25  2  0  0  0  0
 24 23  1  0  0  0  0
 26 49  1  6  0  0  0
 26 27  1  0  0  0  0
 26 20  1  0  0  0  0
 27 51  1  0  0  0  0
 28 53  1  0  0  0  0
 28 17  1  0  0  0  0
 28 26  1  0  0  0  0
 29  5  1  0  0  0  0
 32  8  1  0  0  0  0
 33  8  1  0  0  0  0
 34 11  1  0  0  0  0
 35 11  1  0  0  0  0
 37 13  1  0  0  0  0
 39 14  1  0  0  0  0
 40 15  1  0  0  0  0
 41 16  1  0  0  0  0
 46 21  1  0  0  0  0
 50 27  1  0  0  0  0
 52 28  1  0  0  0  0
M  END
>  <Pose>
1

>  <Score>
-6.18

$$$$
