
 OpenBabel03172210433D

 39 42  0  0  0  0  0  0  0  0999 V2000
   49.4580    4.8660   45.9380 B   0  0  0  0  0  0  0  0  0  0  0  0
   49.0670    3.8570   44.3840 C   0  0  0  0  0  0  0  0  0  0  0  0
   47.9050    4.1650   43.6760 C   0  0  0  0  0  0  0  0  0  0  0  0
   47.6840    3.3890   42.5540 C   0  0  0  0  0  0  0  0  0  0  0  0
   48.5550    2.3730   42.1540 C   0  0  0  0  0  0  0  0  0  0  0  0
   49.6840    2.1170   42.8930 C   0  0  0  0  0  0  0  0  0  0  0  0
   49.9440    2.8650   44.0190 C   0  0  0  0  0  0  0  0  0  0  0  0
   47.0510    5.2000   44.1140 N   0  0  0  0  0  0  0  0  0  0  0  0
   46.4180    6.1880   43.3600 C   0  0  0  0  0  0  0  0  0  0  0  0
   46.1880    6.0390   42.1460 O   0  0  0  0  0  0  0  0  0  0  0  0
   45.9840    7.4730   43.9700 C   0  0  0  0  0  0  0  0  0  0  0  0
   44.5620    7.4150   44.3460 N   0  0  0  0  0  0  0  0  0  0  0  0
   43.6890    6.4730   44.0290 N   0  0  0  0  0  0  0  0  0  0  0  0
   42.5010    6.7650   44.5470 N   0  0  0  0  0  0  0  0  0  0  0  0
   42.6110    7.9300   45.2190 C   0  0  0  0  0  0  0  0  0  0  0  0
   43.8950    8.2970   45.0700 N   0  0  0  0  0  0  0  0  0  0  0  0
   41.5590    8.6280   45.9430 C   0  0  0  0  0  0  0  0  0  0  0  0
   40.9280    9.6770   45.3160 C   0  0  0  0  0  0  0  0  0  0  0  0
   39.9270   10.3400   46.0070 C   0  0  0  0  0  0  0  0  0  0  0  0
   39.5560    9.9830   47.2780 C   0  0  0  0  0  0  0  0  0  0  0  0
   40.1880    8.9310   47.9090 C   0  0  0  0  0  0  0  0  0  0  0  0
   41.1870    8.2690   47.2180 C   0  0  0  0  0  0  0  0  0  0  0  0
   41.2580   10.1060   43.9960 N   0  0  0  0  0  0  0  0  0  0  0  0
   42.0630   11.1250   43.7260 N   0  0  0  0  0  0  0  0  0  0  0  0
   42.1570   11.2570   42.4220 N   0  0  0  0  0  0  0  0  0  0  0  0
   41.4050   10.3150   41.8580 N   0  0  0  0  0  0  0  0  0  0  0  0
   40.8400    9.5930   42.8480 C   0  0  0  0  0  0  0  0  0  0  0  0
   46.8300    3.5330   41.9370 H   0  0  0  0  0  0  0  0  0  0  0  0
   48.3600    1.7850   41.2780 H   0  0  0  0  0  0  0  0  0  0  0  0
   50.3860    1.3460   42.6260 H   0  0  0  0  0  0  0  0  0  0  0  0
   50.8400    2.6380   44.5760 H   0  0  0  0  0  0  0  0  0  0  0  0
   46.8660    5.2310   45.1600 H   0  0  0  0  0  0  0  0  0  0  0  0
   46.1670    8.3410   43.3250 H   0  0  0  0  0  0  0  0  0  0  0  0
   46.5190    7.6690   44.9350 H   0  0  0  0  0  0  0  0  0  0  0  0
   39.4220   11.1680   45.5220 H   0  0  0  0  0  0  0  0  0  0  0  0
   38.7690   10.4970   47.8310 H   0  0  0  0  0  0  0  0  0  0  0  0
   39.9060    8.6330   48.9180 H   0  0  0  0  0  0  0  0  0  0  0  0
   41.6680    7.4480   47.7330 H   0  0  0  0  0  0  0  0  0  0  0  0
   40.1710    8.7500   42.7510 H   0  0  0  0  0  0  0  0  0  0  0  0
  2  1  1  0  0  0  0
  3  8  1  0  0  0  0
  3  2  2  0  0  0  0
  4  3  1  0  0  0  0
  5  4  2  0  0  0  0
  5  6  1  0  0  0  0
  6  7  2  0  0  0  0
  7  2  1  0  0  0  0
  7 31  1  0  0  0  0
  8 32  1  0  0  0  0
  9 11  1  0  0  0  0
  9  8  1  0  0  0  0
 10  9  2  0  0  0  0
 11 12  1  0  0  0  0
 11 34  1  0  0  0  0
 12 16  1  0  0  0  0
 13 12  1  0  0  0  0
 13 14  1  0  0  0  0
 14 15  2  0  0  0  0
 15 17  1  0  0  0  0
 16 15  1  0  0  0  0
 17 22  1  0  0  0  0
 18 17  2  0  0  0  0
 18 19  1  0  0  0  0
 19 20  2  0  0  0  0
 20 36  1  0  0  0  0
 20 21  1  0  0  0  0
 21 37  1  0  0  0  0
 22 38  1  0  0  0  0
 22 21  2  0  0  0  0
 23 18  1  0  0  0  0
 24 23  1  0  0  0  0
 25 24  2  0  0  0  0
 26 25  1  0  0  0  0
 26 27  2  0  0  0  0
 27 23  1  0  0  0  0
 28  4  1  0  0  0  0
 29  5  1  0  0  0  0
 30  6  1  0  0  0  0
 33 11  1  0  0  0  0
 35 19  1  0  0  0  0
 39 27  1  0  0  0  0
M  END
>  <Pose>
1

>  <Score>
-7.50

$$$$
