
 OpenBabel03172210433D

 54 58  0  0  1  0  0  0  0  0999 V2000
   37.9020   12.5310   45.0800 Cl  0  0  0  0  0  0  0  0  0  0  0  0
   38.5630   11.3560   46.2270 C   0  0  0  0  0  0  0  0  0  0  0  0
   39.6650   10.6020   45.9080 C   0  0  0  0  0  0  0  0  0  0  0  0
   40.1700    9.6960   46.8010 C   0  0  0  0  0  0  0  0  0  0  0  0
   39.5630    9.5450   48.0220 C   0  0  0  0  0  0  0  0  0  0  0  0
   38.4420   10.2970   48.3750 C   0  0  0  0  0  0  0  0  0  0  0  0
   37.9590   11.2000   47.4550 C   0  0  0  0  0  0  0  0  0  0  0  0
   40.2210    8.5660   48.8040 N   0  0  0  0  0  0  0  0  0  0  0  0
   41.3000    8.0810   48.0190 C   0  0  0  0  0  0  0  0  0  0  0  0
   42.1140    7.1980   48.3670 O   0  0  0  0  0  0  0  0  0  0  0  0
   41.3260    8.7740   46.7170 C   0  0  1  0  0  0  0  0  0  0  0  0
   41.2220    7.8630   45.6040 N   0  0  0  0  0  0  0  0  0  0  0  0
   42.0470    8.3660   44.5510 C   0  0  1  0  0  0  0  0  0  0  0  0
   43.2190    9.0610   45.2050 C   0  0  2  0  0  0  0  0  0  0  0  0
   42.6290    9.4620   46.5330 C   0  0  1  0  0  0  0  0  0  0  0  0
   42.5440   10.9440   46.5240 C   0  0  0  0  0  0  0  0  0  0  0  0
   41.8280   11.7000   47.2280 O   0  0  0  0  0  0  0  0  0  0  0  0
   43.4780   11.3840   45.5170 N   0  0  0  0  0  0  0  0  0  0  0  0
   43.5930   10.3330   44.5360 C   0  0  0  0  0  0  0  0  0  0  0  0
   43.9430   10.4480   43.3330 O   0  0  0  0  0  0  0  0  0  0  0  0
   44.1830   12.6480   45.4780 C   0  0  0  0  0  0  0  0  0  0  0  0
   44.5980   13.0450   46.8560 C   0  0  0  0  0  0  0  0  0  0  0  0
   44.1970   14.2490   47.3950 C   0  0  0  0  0  0  0  0  0  0  0  0
   44.5950   14.5940   48.6760 C   0  0  0  0  0  0  0  0  0  0  0  0
   45.3890   13.7650   49.4430 C   0  0  0  0  0  0  0  0  0  0  0  0
   45.7960   12.5600   48.9150 C   0  0  0  0  0  0  0  0  0  0  0  0
   45.3930   12.2280   47.6410 C   0  0  0  0  0  0  0  0  0  0  0  0
   43.3930   15.0880   46.6160 O   0  0  0  0  0  0  0  0  0  0  0  0
   41.9780   15.0610   46.8300 C   0  0  0  0  0  0  0  0  0  0  0  0
   42.5010    7.2650   43.6150 C   0  0  2  0  0  0  0  0  0  0  0  0
   41.4910    6.3080   43.5720 O   0  0  0  0  0  0  0  0  0  0  0  0
   43.6980    6.5960   44.2830 C   0  0  0  0  0  0  0  0  0  0  0  0
   40.0880   10.7770   44.9270 H   0  0  0  0  0  0  0  0  0  0  0  0
   37.9590   10.1830   49.3360 H   0  0  0  0  0  0  0  0  0  0  0  0
   37.0830   11.8180   47.6720 H   0  0  0  0  0  0  0  0  0  0  0  0
   39.9910    8.2280   49.7840 H   0  0  0  0  0  0  0  0  0  0  0  0
   40.2430    7.7550   45.3210 H   0  0  0  0  0  0  0  0  0  0  0  0
   41.4970    9.0960   43.9600 H   0  0  0  0  0  0  0  0  0  0  0  0
   44.0970    8.3950   45.2980 H   0  0  0  0  0  0  0  0  0  0  0  0
   43.3420    9.0950   47.3100 H   0  0  0  0  0  0  0  0  0  0  0  0
   45.0970   12.6120   44.8470 H   0  0  0  0  0  0  0  0  0  0  0  0
   43.5550   13.4600   45.0520 H   0  0  0  0  0  0  0  0  0  0  0  0
   44.2880   15.5300   49.1040 H   0  0  0  0  0  0  0  0  0  0  0  0
   45.7090   14.0160   50.4450 H   0  0  0  0  0  0  0  0  0  0  0  0
   46.4190   11.8660   49.4680 H   0  0  0  0  0  0  0  0  0  0  0  0
   45.7110   11.2980   47.2440 H   0  0  0  0  0  0  0  0  0  0  0  0
   41.6340   14.0310   46.6380 H   0  0  0  0  0  0  0  0  0  0  0  0
   41.5090   15.7900   46.1350 H   0  0  0  0  0  0  0  0  0  0  0  0
   41.7080   15.3360   47.8510 H   0  0  0  0  0  0  0  0  0  0  0  0
   42.7270    7.6290   42.6090 H   0  0  0  0  0  0  0  0  0  0  0  0
   41.7060    5.5740   44.1900 H   0  0  0  0  0  0  0  0  0  0  0  0
   43.6300    5.4830   44.1960 H   0  0  0  0  0  0  0  0  0  0  0  0
   44.6540    6.9870   43.8850 H   0  0  0  0  0  0  0  0  0  0  0  0
   43.7050    6.8010   45.3800 H   0  0  0  0  0  0  0  0  0  0  0  0
  1  2  1  0  0  0  0
  2  7  1  0  0  0  0
  3  2  2  0  0  0  0
  3  4  1  0  0  0  0
  4  5  2  0  0  0  0
  5  6  1  0  0  0  0
  5  8  1  0  0  0  0
  6 34  1  0  0  0  0
  7 35  1  0  0  0  0
  7  6  2  0  0  0  0
  8 36  1  0  0  0  0
  9 10  2  0  0  0  0
  9  8  1  0  0  0  0
 11  4  1  6  0  0  0
 11  9  1  0  0  0  0
 12 11  1  0  0  0  0
 13 38  1  6  0  0  0
 13 14  1  0  0  0  0
 13 12  1  0  0  0  0
 14 39  1  1  0  0  0
 14 15  1  0  0  0  0
 15 11  1  0  0  0  0
 15 40  1  1  0  0  0
 16 15  1  0  0  0  0
 16 17  2  0  0  0  0
 18 16  1  0  0  0  0
 19 14  1  0  0  0  0
 19 18  1  0  0  0  0
 20 19  2  0  0  0  0
 21 18  1  0  0  0  0
 21 22  1  0  0  0  0
 22 23  2  0  0  0  0
 22 27  1  0  0  0  0
 23 24  1  0  0  0  0
 24 43  1  0  0  0  0
 24 25  2  0  0  0  0
 25 44  1  0  0  0  0
 26 25  1  0  0  0  0
 26 45  1  0  0  0  0
 27 26  2  0  0  0  0
 28 29  1  0  0  0  0
 28 23  1  0  0  0  0
 29 49  1  0  0  0  0
 30 50  1  6  0  0  0
 30 32  1  0  0  0  0
 30 13  1  0  0  0  0
 31 30  1  0  0  0  0
 31 51  1  0  0  0  0
 32 54  1  0  0  0  0
 33  3  1  0  0  0  0
 37 12  1  0  0  0  0
 41 21  1  0  0  0  0
 42 21  1  0  0  0  0
 46 27  1  0  0  0  0
 47 29  1  0  0  0  0
 48 29  1  0  0  0  0
 52 32  1  0  0  0  0
 53 32  1  0  0  0  0
M  END
>  <Pose>
1

>  <Score>
-4.93

$$$$
