
 OpenBabel03172210433D

 53 56  0  0  0  0  0  0  0  0999 V2000
   40.6940   12.0110   43.4360 B   0  0  0  0  0  0  0  0  0  0  0  0
   41.8890   10.5150   43.5520 C   0  0  0  0  0  0  0  0  0  0  0  0
   41.3980    9.2620   43.9230 C   0  0  0  0  0  0  0  0  0  0  0  0
   42.2830    8.1920   44.0000 C   0  0  0  0  0  0  0  0  0  0  0  0
   43.6230    8.3340   43.7210 C   0  0  0  0  0  0  0  0  0  0  0  0
   44.2670    7.1400   43.8690 N   0  0  0  0  0  0  0  0  0  0  0  0
   43.3220    6.2660   44.2380 C   0  0  0  0  0  0  0  0  0  0  0  0
   42.0840    6.8690   44.3320 C   0  0  0  0  0  0  0  0  0  0  0  0
   45.6820    6.9230   43.6600 C   0  0  0  0  0  0  0  0  0  0  0  0
   45.9380    5.9140   42.5770 C   0  0  0  0  0  0  0  0  0  0  0  0
   45.6840    6.2270   41.3970 O   0  0  0  0  0  0  0  0  0  0  0  0
   46.4500    4.6440   42.8790 N   0  0  0  0  0  0  0  0  0  0  0  0
   47.5040    4.0100   42.1170 C   0  0  0  0  0  0  0  0  0  0  0  0
   48.5750    3.5890   43.1100 C   0  0  0  0  0  0  0  0  0  0  0  0
   48.3080    4.0740   44.3990 N   0  0  0  0  0  0  0  0  0  0  0  0
   47.0890    3.7720   45.0280 C   0  0  0  0  0  0  0  0  0  0  0  0
   45.9550    3.8480   44.0120 C   0  0  0  0  0  0  0  0  0  0  0  0
   49.1830    5.0000   44.9890 C   0  0  0  0  0  0  0  0  0  0  0  0
   50.3760    4.3930   45.6360 C   0  0  0  0  0  0  0  0  0  0  0  0
   50.7520    4.9110   46.7180 O   0  0  0  0  0  0  0  0  0  0  0  0
   51.0800    3.3000   45.1090 N   0  0  0  0  0  0  0  0  0  0  0  0
   50.6940    1.9460   45.4510 C   0  0  0  0  0  0  0  0  0  0  0  0
   50.4820    1.2020   44.1490 C   0  0  0  0  0  0  0  0  0  0  0  0
   51.7460    1.1380   43.5440 O   0  0  0  0  0  0  0  0  0  0  0  0
   52.1830    2.3800   43.1510 C   0  0  0  0  0  0  0  0  0  0  0  0
   52.2130    3.4230   44.2130 C   0  0  0  0  0  0  0  0  0  0  0  0
   44.1130    9.5650   43.3540 C   0  0  0  0  0  0  0  0  0  0  0  0
   43.2330   10.6400   43.2760 C   0  0  0  0  0  0  0  0  0  0  0  0
   40.3530    9.1730   44.1370 H   0  0  0  0  0  0  0  0  0  0  0  0
   43.5090    5.2160   44.4390 H   0  0  0  0  0  0  0  0  0  0  0  0
   41.1300    6.4500   44.6020 H   0  0  0  0  0  0  0  0  0  0  0  0
   46.2080    7.8570   43.3630 H   0  0  0  0  0  0  0  0  0  0  0  0
   46.1700    6.5030   44.5670 H   0  0  0  0  0  0  0  0  0  0  0  0
   47.8760    4.6330   41.3000 H   0  0  0  0  0  0  0  0  0  0  0  0
   47.1260    3.0670   41.6310 H   0  0  0  0  0  0  0  0  0  0  0  0
   49.5230    4.0860   42.7490 H   0  0  0  0  0  0  0  0  0  0  0  0
   48.7890    2.5000   43.0330 H   0  0  0  0  0  0  0  0  0  0  0  0
   47.0500    2.8410   45.5990 H   0  0  0  0  0  0  0  0  0  0  0  0
   46.8570    4.5920   45.7720 H   0  0  0  0  0  0  0  0  0  0  0  0
   45.8110    2.8220   43.6170 H   0  0  0  0  0  0  0  0  0  0  0  0
   45.0530    4.3040   44.4130 H   0  0  0  0  0  0  0  0  0  0  0  0
   49.4730    5.7670   44.2170 H   0  0  0  0  0  0  0  0  0  0  0  0
   48.6050    5.5870   45.7550 H   0  0  0  0  0  0  0  0  0  0  0  0
   51.5820    1.4500   45.9410 H   0  0  0  0  0  0  0  0  0  0  0  0
   49.8250    1.9110   46.1240 H   0  0  0  0  0  0  0  0  0  0  0  0
   50.1830    0.1510   44.3830 H   0  0  0  0  0  0  0  0  0  0  0  0
   49.7380    1.7280   43.5390 H   0  0  0  0  0  0  0  0  0  0  0  0
   53.2230    2.2590   42.7640 H   0  0  0  0  0  0  0  0  0  0  0  0
   51.5740    2.6670   42.2670 H   0  0  0  0  0  0  0  0  0  0  0  0
   53.1530    3.3280   44.7940 H   0  0  0  0  0  0  0  0  0  0  0  0
   52.2570    4.4140   43.7230 H   0  0  0  0  0  0  0  0  0  0  0  0
   45.1650    9.7190   43.1260 H   0  0  0  0  0  0  0  0  0  0  0  0
   43.6400   11.6000   42.9850 H   0  0  0  0  0  0  0  0  0  0  0  0
  1  2  1  0  0  0  0
  2  3  1  0  0  0  0
  3  4  2  0  0  0  0
  3 29  1  0  0  0  0
  4  8  1  0  0  0  0
  5  6  1  0  0  0  0
  5  4  1  0  0  0  0
  6  7  1  0  0  0  0
  7  8  2  0  0  0  0
  7 30  1  0  0  0  0
  8 31  1  0  0  0  0
  9  6  1  0  0  0  0
  9 33  1  0  0  0  0
 10 12  1  0  0  0  0
 10  9  1  0  0  0  0
 11 10  2  0  0  0  0
 12 17  1  0  0  0  0
 13 12  1  0  0  0  0
 13 14  1  0  0  0  0
 14 15  1  0  0  0  0
 15 18  1  0  0  0  0
 15 16  1  0  0  0  0
 16 38  1  0  0  0  0
 16 39  1  0  0  0  0
 17 41  1  0  0  0  0
 17 16  1  0  0  0  0
 18 19  1  0  0  0  0
 18 43  1  0  0  0  0
 19 20  2  0  0  0  0
 21 22  1  0  0  0  0
 21 19  1  0  0  0  0
 22 44  1  0  0  0  0
 22 45  1  0  0  0  0
 23 46  1  0  0  0  0
 23 22  1  0  0  0  0
 24 23  1  0  0  0  0
 25 24  1  0  0  0  0
 25 26  1  0  0  0  0
 26 50  1  0  0  0  0
 26 21  1  0  0  0  0
 27  5  2  0  0  0  0
 28 27  1  0  0  0  0
 28  2  2  0  0  0  0
 32  9  1  0  0  0  0
 34 13  1  0  0  0  0
 35 13  1  0  0  0  0
 36 14  1  0  0  0  0
 37 14  1  0  0  0  0
 40 17  1  0  0  0  0
 42 18  1  0  0  0  0
 47 23  1  0  0  0  0
 48 25  1  0  0  0  0
 49 25  1  0  0  0  0
 51 26  1  0  0  0  0
 52 27  1  0  0  0  0
 53 28  1  0  0  0  0
M  END
>  <Pose>
1

>  <Score>
-5.21

$$$$
