
 OpenBabel03172210433D

 47 50  0  0  1  0  0  0  0  0999 V2000
   46.3300   12.2770   48.3780 Cl  0  0  0  0  0  0  0  0  0  0  0  0
   45.0810   12.8590   47.3110 C   0  0  0  0  0  0  0  0  0  0  0  0
   44.3720   11.9500   46.5580 C   0  0  0  0  0  0  0  0  0  0  0  0
   43.3520   12.3420   45.6820 C   0  0  0  0  0  0  0  0  0  0  0  0
   43.0980   13.6860   45.6160 C   0  0  0  0  0  0  0  0  0  0  0  0
   43.8020   14.6030   46.3650 C   0  0  0  0  0  0  0  0  0  0  0  0
   44.8170   14.2010   47.2380 C   0  0  0  0  0  0  0  0  0  0  0  0
   42.6730   11.3220   44.9630 N   0  0  0  0  0  0  0  0  0  0  0  0
   41.4580   10.7170   45.3750 C   0  0  0  0  0  0  0  0  0  0  0  0
   40.9110   11.0260   46.4420 O   0  0  0  0  0  0  0  0  0  0  0  0
   40.8380    9.7200   44.5500 N   0  0  0  0  0  0  0  0  0  0  0  0
   41.4230    9.3260   43.3110 C   0  0  0  0  0  0  0  0  0  0  0  0
   40.7560    8.8190   42.3920 O   0  0  0  0  0  0  0  0  0  0  0  0
   42.9020    9.5370   43.1230 C   0  0  1  0  0  0  0  0  0  0  0  0
   43.2030   10.8640   43.7000 C   0  0  0  0  0  0  0  0  0  0  0  0
   43.9710   11.6910   43.0890 O   0  0  0  0  0  0  0  0  0  0  0  0
   43.6450    8.4240   43.7880 C   0  0  0  0  0  0  0  0  0  0  0  0
   43.2630    7.1810   43.9990 C   0  0  0  0  0  0  0  0  0  0  0  0
   44.3600    6.4600   44.7010 C   0  0  2  0  0  0  0  0  0  0  0  0
   45.0710    7.5980   45.3380 N   0  0  0  0  0  0  0  0  0  0  0  0
   44.9560    8.5810   44.3470 N   0  0  0  0  0  0  0  0  0  0  0  0
   45.3070    5.9160   43.6890 C   0  0  0  0  0  0  0  0  0  0  0  0
   46.2930    4.9690   44.0380 C   0  0  0  0  0  0  0  0  0  0  0  0
   47.1570    4.4180   43.1420 C   0  0  0  0  0  0  0  0  0  0  0  0
   47.0860    4.7900   41.8130 C   0  0  0  0  0  0  0  0  0  0  0  0
   46.1370    5.7120   41.4370 C   0  0  0  0  0  0  0  0  0  0  0  0
   45.2690    6.2610   42.3550 C   0  0  0  0  0  0  0  0  0  0  0  0
   47.9610    4.2360   40.8840 O   0  0  0  0  0  0  0  0  0  0  0  0
   48.1220    3.4830   43.5430 O   0  0  0  0  0  0  0  0  0  0  0  0
   49.0870    3.8510   44.5040 C   0  0  0  0  0  0  0  0  0  0  0  0
   44.5770   10.8680   46.6140 H   0  0  0  0  0  0  0  0  0  0  0  0
   42.3300   14.0330   44.9570 H   0  0  0  0  0  0  0  0  0  0  0  0
   43.6030   15.6700   46.3110 H   0  0  0  0  0  0  0  0  0  0  0  0
   45.3650   14.9230   47.8250 H   0  0  0  0  0  0  0  0  0  0  0  0
   39.9590    9.2930   44.8680 H   0  0  0  0  0  0  0  0  0  0  0  0
   43.1610    9.5910   42.0470 H   0  0  0  0  0  0  0  0  0  0  0  0
   42.3310    6.7160   43.7330 H   0  0  0  0  0  0  0  0  0  0  0  0
   44.0150    5.7280   45.4240 H   0  0  0  0  0  0  0  0  0  0  0  0
   44.5910    7.8600   46.2220 H   0  0  0  0  0  0  0  0  0  0  0  0
   45.6410    9.2730   44.0640 H   0  0  0  0  0  0  0  0  0  0  0  0
   46.3240    4.6990   45.0810 H   0  0  0  0  0  0  0  0  0  0  0  0
   46.1180    5.9810   40.3930 H   0  0  0  0  0  0  0  0  0  0  0  0
   44.5300    6.9860   42.0250 H   0  0  0  0  0  0  0  0  0  0  0  0
   47.6270    3.5020   40.2730 H   0  0  0  0  0  0  0  0  0  0  0  0
   48.6370    3.9910   45.4940 H   0  0  0  0  0  0  0  0  0  0  0  0
   49.8120    3.0000   44.5540 H   0  0  0  0  0  0  0  0  0  0  0  0
   49.6360    4.7450   44.1220 H   0  0  0  0  0  0  0  0  0  0  0  0
  2  1  1  0  0  0  0
  3 31  1  0  0  0  0
  3  2  2  0  0  0  0
  4  3  1  0  0  0  0
  5  4  2  0  0  0  0
  5  6  1  0  0  0  0
  6  7  2  0  0  0  0
  7  2  1  0  0  0  0
  7 34  1  0  0  0  0
  8  9  1  0  0  0  0
  8  4  1  0  0  0  0
  9 10  2  0  0  0  0
 11 35  1  0  0  0  0
 11  9  1  0  0  0  0
 12 11  1  0  0  0  0
 13 12  2  0  0  0  0
 14 36  1  6  0  0  0
 14 12  1  0  0  0  0
 14 15  1  0  0  0  0
 14 17  1  0  0  0  0
 15  8  1  0  0  0  0
 16 15  2  0  0  0  0
 17 18  2  0  0  0  0
 17 21  1  0  0  0  0
 18 19  1  0  0  0  0
 19 20  1  0  0  0  0
 19 38  1  1  0  0  0
 20 39  1  0  0  0  0
 21 20  1  0  0  0  0
 22 23  1  0  0  0  0
 22 19  1  0  0  0  0
 23 41  1  0  0  0  0
 24 29  1  0  0  0  0
 24 23  2  0  0  0  0
 25 24  1  0  0  0  0
 26 25  2  0  0  0  0
 26 27  1  0  0  0  0
 27 22  2  0  0  0  0
 28 25  1  0  0  0  0
 29 30  1  0  0  0  0
 30 46  1  0  0  0  0
 30 45  1  0  0  0  0
 32  5  1  0  0  0  0
 33  6  1  0  0  0  0
 37 18  1  0  0  0  0
 40 21  1  0  0  0  0
 42 26  1  0  0  0  0
 43 27  1  0  0  0  0
 44 28  1  0  0  0  0
 47 30  1  0  0  0  0
M  END
>  <Pose>
1

>  <Score>
-6.40

$$$$
