
 OpenBabel03172210433D

 47 50  0  0  0  0  0  0  0  0999 V2000
   46.5410    6.8720   43.3640 S   0  0  0  0  0  0  0  0  0  0  0  0
   46.8710    7.9240   42.3560 O   0  0  0  0  0  0  0  0  0  0  0  0
   46.8690    7.4050   44.7300 O   0  0  0  0  0  0  0  0  0  0  0  0
   44.8910    6.5130   43.3070 N   0  0  0  0  0  0  0  0  0  0  0  0
   44.0850    7.4260   42.5560 C   0  0  0  0  0  0  0  0  0  0  0  0
   43.6180    8.6090   43.3840 C   0  0  0  0  0  0  0  0  0  0  0  0
   43.0810    8.1250   44.6280 N   0  0  0  0  0  0  0  0  0  0  0  0
   42.9590    6.6920   44.8070 C   0  0  0  0  0  0  0  0  0  0  0  0
   44.3200    6.0880   44.5400 C   0  0  0  0  0  0  0  0  0  0  0  0
   42.6660    8.9910   45.6800 C   0  0  0  0  0  0  0  0  0  0  0  0
   43.3280    9.1040   46.7380 O   0  0  0  0  0  0  0  0  0  0  0  0
   41.4410    9.7840   45.5540 C   0  0  0  0  0  0  0  0  0  0  0  0
   41.3360   11.0260   45.0060 N   0  0  0  0  0  0  0  0  0  0  0  0
   40.0560   11.4240   45.0710 C   0  0  0  0  0  0  0  0  0  0  0  0
   39.3670   10.4440   45.6540 N   0  0  0  0  0  0  0  0  0  0  0  0
   40.1900    9.4310   45.9590 C   0  0  0  0  0  0  0  0  0  0  0  0
   38.0430   10.6020   45.8380 C   0  0  0  0  0  0  0  0  0  0  0  0
   37.3460   11.7170   45.4620 C   0  0  0  0  0  0  0  0  0  0  0  0
   38.0470   12.7520   44.8530 C   0  0  0  0  0  0  0  0  0  0  0  0
   39.4010   12.5780   44.6700 C   0  0  0  0  0  0  0  0  0  0  0  0
   35.6130   11.8910   45.7190 Cl  0  0  0  0  0  0  0  0  0  0  0  0
   47.5580    5.5150   43.0860 N   0  0  0  0  0  0  0  0  0  0  0  0
   47.2580    4.8480   41.8330 C   0  0  0  0  0  0  0  0  0  0  0  0
   47.7520    3.4260   41.9550 C   0  0  0  0  0  0  0  0  0  0  0  0
   48.8980    3.3450   42.7380 O   0  0  0  0  0  0  0  0  0  0  0  0
   48.6560    3.6440   44.0770 C   0  0  0  0  0  0  0  0  0  0  0  0
   47.4170    4.5150   44.1270 C   0  0  0  0  0  0  0  0  0  0  0  0
   43.1590    6.8820   42.2460 H   0  0  0  0  0  0  0  0  0  0  0  0
   44.6090    7.7160   41.6430 H   0  0  0  0  0  0  0  0  0  0  0  0
   44.4880    9.3050   43.5310 H   0  0  0  0  0  0  0  0  0  0  0  0
   42.8540    9.1960   42.8360 H   0  0  0  0  0  0  0  0  0  0  0  0
   42.2320    6.3460   44.0240 H   0  0  0  0  0  0  0  0  0  0  0  0
   42.6030    6.4380   45.8080 H   0  0  0  0  0  0  0  0  0  0  0  0
   44.1940    4.9700   44.4900 H   0  0  0  0  0  0  0  0  0  0  0  0
   44.9710    6.3270   45.3860 H   0  0  0  0  0  0  0  0  0  0  0  0
   39.8600    8.5100   46.4440 H   0  0  0  0  0  0  0  0  0  0  0  0
   37.4570    9.8050   46.3150 H   0  0  0  0  0  0  0  0  0  0  0  0
   37.5660   13.6670   44.5260 H   0  0  0  0  0  0  0  0  0  0  0  0
   39.9920   13.3630   44.1960 H   0  0  0  0  0  0  0  0  0  0  0  0
   47.7200    5.3630   40.9670 H   0  0  0  0  0  0  0  0  0  0  0  0
   46.1520    4.8370   41.7270 H   0  0  0  0  0  0  0  0  0  0  0  0
   48.0340    3.0530   40.9480 H   0  0  0  0  0  0  0  0  0  0  0  0
   47.0090    2.7370   42.3860 H   0  0  0  0  0  0  0  0  0  0  0  0
   49.4980    4.2980   44.4400 H   0  0  0  0  0  0  0  0  0  0  0  0
   48.5600    2.7430   44.7080 H   0  0  0  0  0  0  0  0  0  0  0  0
   46.5080    3.8930   43.9900 H   0  0  0  0  0  0  0  0  0  0  0  0
   47.3010    5.0190   45.1050 H   0  0  0  0  0  0  0  0  0  0  0  0
  1  3  2  0  0  0  0
  2  1  2  0  0  0  0
  4  1  1  0  0  0  0
  4  9  1  0  0  0  0
  5  4  1  0  0  0  0
  5  6  1  0  0  0  0
  6 30  1  0  0  0  0
  6  7  1  0  0  0  0
  7  8  1  0  0  0  0
  7 10  1  0  0  0  0
  8 33  1  0  0  0  0
  9  8  1  0  0  0  0
  9 35  1  0  0  0  0
 10 11  2  0  0  0  0
 12 10  1  0  0  0  0
 12 16  2  0  0  0  0
 13 14  2  0  0  0  0
 13 12  1  0  0  0  0
 14 15  1  0  0  0  0
 15 17  1  0  0  0  0
 15 16  1  0  0  0  0
 16 36  1  0  0  0  0
 17 37  1  0  0  0  0
 18 21  1  0  0  0  0
 18 17  2  0  0  0  0
 19 18  1  0  0  0  0
 20 19  2  0  0  0  0
 20 14  1  0  0  0  0
 22  1  1  0  0  0  0
 22 27  1  0  0  0  0
 23 24  1  0  0  0  0
 23 22  1  0  0  0  0
 24 43  1  0  0  0  0
 24 25  1  0  0  0  0
 25 26  1  0  0  0  0
 26 27  1  0  0  0  0
 26 44  1  0  0  0  0
 26 45  1  0  0  0  0
 27 47  1  0  0  0  0
 28  5  1  0  0  0  0
 29  5  1  0  0  0  0
 31  6  1  0  0  0  0
 32  8  1  0  0  0  0
 34  9  1  0  0  0  0
 38 19  1  0  0  0  0
 39 20  1  0  0  0  0
 40 23  1  0  0  0  0
 41 23  1  0  0  0  0
 42 24  1  0  0  0  0
 46 27  1  0  0  0  0
M  END
>  <Pose>
1

>  <Score>
-5.69

$$$$
