
 OpenBabel03172210433D

 47 51  0  0  1  0  0  0  0  0999 V2000
   46.9990    4.2390   43.0060 I   0  0  0  0  0  0  0  0  0  0  0  0
   45.9490    6.0260   43.3780 C   0  0  0  0  0  0  0  0  0  0  0  0
   44.7350    6.0300   44.0330 C   0  0  0  0  0  0  0  0  0  0  0  0
   44.0360    7.2130   44.2810 C   0  0  0  0  0  0  0  0  0  0  0  0
   44.5660    8.3930   43.8660 C   0  0  0  0  0  0  0  0  0  0  0  0
   45.7830    8.3760   43.2100 C   0  0  0  0  0  0  0  0  0  0  0  0
   46.4890    7.2200   42.9560 C   0  0  0  0  0  0  0  0  0  0  0  0
   43.9250    9.6670   44.0730 N   0  0  0  0  0  0  0  0  0  0  0  0
   44.4930   10.7730   44.5170 N   0  0  0  0  0  0  0  0  0  0  0  0
   43.6120   11.7910   44.5960 C   0  0  0  0  0  0  0  0  0  0  0  0
   43.8060   13.0270   44.9890 C   0  0  0  0  0  0  0  0  0  0  0  0
   42.3980   11.2890   44.1700 C   0  0  2  0  0  0  0  0  0  0  0  0
   41.2440   11.9690   44.0900 C   0  0  0  0  0  0  0  0  0  0  0  0
   40.1140   11.2440   43.6210 N   0  0  0  0  0  4  0  0  0  0  0  0
   39.0680   10.8940   44.5690 C   0  0  1  0  0  0  0  0  0  0  0  0
   38.4920   12.1550   45.1950 C   0  0  0  0  0  0  0  0  0  0  0  0
   37.4210   11.7930   46.0810 N   0  0  2  0  0  0  0  0  0  0  0  0
   37.9850   10.9360   47.1190 C   0  0  0  0  0  0  0  0  0  0  0  0
   38.5010    9.7130   46.5700 N   0  0  1  0  0  0  0  0  0  0  0  0
   37.4780    9.0200   45.8200 C   0  0  0  0  0  0  0  0  0  0  0  0
   36.9220    9.8400   44.7760 N   0  0  1  0  0  0  0  0  0  0  0  0
   36.4100   11.0940   45.3210 C   0  0  0  0  0  0  0  0  0  0  0  0
   37.9630   10.1710   43.8310 C   0  0  0  0  0  0  0  0  0  0  0  0
   39.5890   10.0320   45.6800 C   0  0  0  0  0  0  0  0  0  0  0  0
   42.6340    9.9690   43.8550 C   0  0  0  0  0  0  0  0  0  0  0  0
   41.7730    9.1590   43.4250 O   0  0  0  0  0  0  0  0  0  0  0  0
   44.3510    5.0650   44.3470 H   0  0  0  0  0  0  0  0  0  0  0  0
   43.0880    7.1990   44.7960 H   0  0  0  0  0  0  0  0  0  0  0  0
   46.1980    9.3280   42.8810 H   0  0  0  0  0  0  0  0  0  0  0  0
   47.4530    7.2380   42.4330 H   0  0  0  0  0  0  0  0  0  0  0  0
   45.5020   10.8720   44.7810 H   0  0  0  0  0  0  0  0  0  0  0  0
   42.9940   13.7310   44.9950 H   0  0  0  0  0  0  0  0  0  0  0  0
   44.7760   13.3670   45.3110 H   0  0  0  0  0  0  0  0  0  0  0  0
   41.1890   13.0140   44.3700 H   0  0  0  0  0  0  0  0  0  0  0  0
   39.9840   10.9430   42.6350 H   0  0  0  0  0  0  0  0  0  0  0  0
   39.3370   12.6480   45.7270 H   0  0  0  0  0  0  0  0  0  0  0  0
   38.1990   12.8350   44.3820 H   0  0  0  0  0  0  0  0  0  0  0  0
   37.2820   10.7820   47.9600 H   0  0  0  0  0  0  0  0  0  0  0  0
   38.8590   11.5120   47.5400 H   0  0  0  0  0  0  0  0  0  0  0  0
   36.6370    8.7310   46.5020 H   0  0  0  0  0  0  0  0  0  0  0  0
   37.9120    8.1140   45.3560 H   0  0  0  0  0  0  0  0  0  0  0  0
   36.1560   11.7360   44.4430 H   0  0  0  0  0  0  0  0  0  0  0  0
   35.4770   10.9450   45.9030 H   0  0  0  0  0  0  0  0  0  0  0  0
   38.3690    9.2140   43.4330 H   0  0  0  0  0  0  0  0  0  0  0  0
   37.6030   10.8340   43.0230 H   0  0  0  0  0  0  0  0  0  0  0  0
   40.4050   10.5770   46.1940 H   0  0  0  0  0  0  0  0  0  0  0  0
   40.0250    9.0790   45.2950 H   0  0  0  0  0  0  0  0  0  0  0  0
  1  2  1  0  0  0  0
  2  3  1  0  0  0  0
  3  4  2  0  0  0  0
  3 27  1  0  0  0  0
  4 28  1  0  0  0  0
  5  8  1  0  0  0  0
  5  4  1  0  0  0  0
  6  5  2  0  0  0  0
  7  6  1  0  0  0  0
  7  2  2  0  0  0  0
  8  9  1  0  0  0  0
  9 10  1  0  0  0  0
  9 31  1  0  0  0  0
 10 11  2  0  0  0  0
 11 32  1  0  0  0  0
 11 33  1  0  0  0  0
 12 13  1  1  0  0  0
 12 10  1  0  0  0  0
 13 34  1  0  0  0  0
 14 13  2  0  0  0  0
 15 14  1  6  0  0  0
 15 16  1  0  0  0  0
 15 24  1  0  0  0  0
 16 36  1  0  0  0  0
 17 16  1  6  0  0  0
 17 18  1  0  0  0  0
 18 39  1  0  0  0  0
 18 38  1  0  0  0  0
 19 24  1  6  0  0  0
 19 18  1  0  0  0  0
 20 40  1  0  0  0  0
 20 19  1  0  0  0  0
 21 23  1  6  0  0  0
 21 22  1  0  0  0  0
 21 20  1  0  0  0  0
 22 43  1  0  0  0  0
 22 17  1  0  0  0  0
 23 15  1  0  0  0  0
 24 46  1  0  0  0  0
 25  8  1  0  0  0  0
 25 12  1  0  0  0  0
 26 25  2  0  0  0  0
 29  6  1  0  0  0  0
 30  7  1  0  0  0  0
 35 14  1  0  0  0  0
 37 16  1  0  0  0  0
 41 20  1  0  0  0  0
 42 22  1  0  0  0  0
 44 23  1  0  0  0  0
 45 23  1  0  0  0  0
 47 24  1  0  0  0  0
M  END
>  <Pose>
1

>  <Score>
-5.82

$$$$
