
 OpenBabel03172210433D

 61 64  0  0  1  0  0  0  0  0999 V2000
   46.2750    7.3000   42.8560 S   0  0  0  0  0  0  0  0  0  0  0  0
   47.1630    8.3320   42.1640 O   0  0  0  0  0  0  0  0  0  0  0  0
   45.7870    6.4190   41.7040 O   0  0  0  0  0  0  0  0  0  0  0  0
   44.9510    7.9820   43.5890 N   0  0  0  0  0  0  0  0  0  0  0  0
   43.7750    8.3380   42.9580 C   0  0  1  0  0  0  0  0  0  0  0  0
   42.7130    7.3630   43.4870 C   0  0  0  0  0  0  0  0  0  0  0  0
   43.1420    7.2020   44.9290 C   0  0  0  0  0  0  0  0  0  0  0  0
   44.6360    7.4150   44.8980 C   0  0  0  0  0  0  0  0  0  0  0  0
   43.3950    9.7400   43.4010 C   0  0  0  0  0  0  0  0  0  0  0  0
   42.3260   10.1750   42.9510 O   0  0  0  0  0  0  0  0  0  0  0  0
   44.2440   10.4470   44.2700 N   0  0  0  0  0  0  0  0  0  0  0  0
   43.7190   11.0480   45.4710 C   0  0  0  0  0  0  0  0  0  0  0  0
   43.6050   12.5240   45.4550 C   0  0  0  0  0  0  0  0  0  0  0  0
   42.4260   13.0760   46.0220 N   0  0  0  0  0  0  0  0  0  0  0  0
   41.2910   13.1300   45.1590 C   0  0  0  0  0  0  0  0  0  0  0  0
   40.0660   12.7840   45.9820 C   0  0  0  0  0  0  0  0  0  0  0  0
   40.0410   13.6640   47.2150 C   0  0  0  0  0  0  0  0  0  0  0  0
   40.3160   15.0820   46.7910 C   0  0  0  0  0  0  0  0  0  0  0  0
   41.7470   15.3920   46.5600 C   0  0  0  0  0  0  0  0  0  0  0  0
   42.6980   14.2710   46.7510 C   0  0  0  0  0  0  0  0  0  0  0  0
   47.2610    6.2990   43.8820 C   0  0  0  0  0  0  0  0  0  0  0  0
   47.6650    6.8030   45.1290 C   0  0  0  0  0  0  0  0  0  0  0  0
   48.4870    6.1320   45.9890 C   0  0  0  0  0  0  0  0  0  0  0  0
   48.9370    4.8870   45.5890 C   0  0  0  0  0  0  0  0  0  0  0  0
   48.5840    4.3380   44.3930 C   0  0  0  0  0  0  0  0  0  0  0  0
   47.7440    5.0630   43.5570 C   0  0  0  0  0  0  0  0  0  0  0  0
   47.2520    4.2480   42.0890 Cl  0  0  0  0  0  0  0  0  0  0  0  0
   49.7980    4.1680   46.4860 N   0  0  0  0  0  0  0  0  0  0  0  0
   50.1540    4.7520   47.7370 C   0  0  0  0  0  0  0  0  0  0  0  0
   51.1990    4.4020   48.3140 O   0  0  0  0  0  0  0  0  0  0  0  0
   49.2330    5.7710   48.2980 C   0  0  0  0  0  0  0  0  0  0  0  0
   48.8830    6.6340   47.2190 O   0  0  0  0  0  0  0  0  0  0  0  0
   43.6880    8.2680   41.8720 H   0  0  0  0  0  0  0  0  0  0  0  0
   41.6980    7.7180   43.3470 H   0  0  0  0  0  0  0  0  0  0  0  0
   42.8450    6.4120   42.9400 H   0  0  0  0  0  0  0  0  0  0  0  0
   42.6100    7.9980   45.5030 H   0  0  0  0  0  0  0  0  0  0  0  0
   42.9340    6.2010   45.3270 H   0  0  0  0  0  0  0  0  0  0  0  0
   45.1930    6.4640   45.0580 H   0  0  0  0  0  0  0  0  0  0  0  0
   44.9160    8.1670   45.6550 H   0  0  0  0  0  0  0  0  0  0  0  0
   45.2610   10.5700   44.0860 H   0  0  0  0  0  0  0  0  0  0  0  0
   42.6740   10.6390   45.6010 H   0  0  0  0  0  0  0  0  0  0  0  0
   44.2700   10.7300   46.3700 H   0  0  0  0  0  0  0  0  0  0  0  0
   43.7010   12.8820   44.4220 H   0  0  0  0  0  0  0  0  0  0  0  0
   44.4780   12.9510   46.0230 H   0  0  0  0  0  0  0  0  0  0  0  0
   41.3830   12.4940   44.2620 H   0  0  0  0  0  0  0  0  0  0  0  0
   41.1620   14.1710   44.7980 H   0  0  0  0  0  0  0  0  0  0  0  0
   39.1190   13.0210   45.4170 H   0  0  0  0  0  0  0  0  0  0  0  0
   40.0020   11.7080   46.2250 H   0  0  0  0  0  0  0  0  0  0  0  0
   39.1230   13.5980   47.7850 H   0  0  0  0  0  0  0  0  0  0  0  0
   40.8790   13.3480   47.8710 H   0  0  0  0  0  0  0  0  0  0  0  0
   39.8200   15.7480   47.5560 H   0  0  0  0  0  0  0  0  0  0  0  0
   39.7580   15.2850   45.8430 H   0  0  0  0  0  0  0  0  0  0  0  0
   41.9110   15.9050   45.5670 H   0  0  0  0  0  0  0  0  0  0  0  0
   42.0390   16.1910   47.3050 H   0  0  0  0  0  0  0  0  0  0  0  0
   42.7980   14.0140   47.8250 H   0  0  0  0  0  0  0  0  0  0  0  0
   43.7120   14.6460   46.4510 H   0  0  0  0  0  0  0  0  0  0  0  0
   47.2990    7.7880   45.4270 H   0  0  0  0  0  0  0  0  0  0  0  0
   48.9580    3.3570   44.1150 H   0  0  0  0  0  0  0  0  0  0  0  0
   50.1480    3.2220   46.1960 H   0  0  0  0  0  0  0  0  0  0  0  0
   49.6550    6.3490   49.1210 H   0  0  0  0  0  0  0  0  0  0  0  0
   48.2780    5.2610   48.6010 H   0  0  0  0  0  0  0  0  0  0  0  0
  1  4  1  0  0  0  0
  1 21  1  0  0  0  0
  2  1  2  0  0  0  0
  3  1  2  0  0  0  0
  4  8  1  0  0  0  0
  5 33  1  6  0  0  0
  5  9  1  0  0  0  0
  5  6  1  0  0  0  0
  5  4  1  0  0  0  0
  6  7  1  0  0  0  0
  7 37  1  0  0  0  0
  7 36  1  0  0  0  0
  8  7  1  0  0  0  0
  8 38  1  0  0  0  0
  8 39  1  0  0  0  0
  9 11  1  0  0  0  0
 10  9  2  0  0  0  0
 11 12  1  0  0  0  0
 12 41  1  0  0  0  0
 12 42  1  0  0  0  0
 13 12  1  0  0  0  0
 13 14  1  0  0  0  0
 13 44  1  0  0  0  0
 14 20  1  0  0  0  0
 15 16  1  0  0  0  0
 15 14  1  0  0  0  0
 16 48  1  0  0  0  0
 16 17  1  0  0  0  0
 17 49  1  0  0  0  0
 17 50  1  0  0  0  0
 18 17  1  0  0  0  0
 18 51  1  0  0  0  0
 19 20  1  0  0  0  0
 19 18  1  0  0  0  0
 19 54  1  0  0  0  0
 20 55  1  0  0  0  0
 21 22  1  0  0  0  0
 22 57  1  0  0  0  0
 22 23  2  0  0  0  0
 23 32  1  0  0  0  0
 24 23  1  0  0  0  0
 24 28  1  0  0  0  0
 25 24  2  0  0  0  0
 26 21  2  0  0  0  0
 26 25  1  0  0  0  0
 27 26  1  0  0  0  0
 28 29  1  0  0  0  0
 29 31  1  0  0  0  0
 29 30  2  0  0  0  0
 31 61  1  0  0  0  0
 31 60  1  0  0  0  0
 32 31  1  0  0  0  0
 34  6  1  0  0  0  0
 35  6  1  0  0  0  0
 40 11  1  0  0  0  0
 43 13  1  0  0  0  0
 45 15  1  0  0  0  0
 46 15  1  0  0  0  0
 47 16  1  0  0  0  0
 52 18  1  0  0  0  0
 53 19  1  0  0  0  0
 56 20  1  0  0  0  0
 58 25  1  0  0  0  0
 59 28  1  0  0  0  0
M  END
>  <Pose>
1

>  <Score>
-6.89

$$$$
