
 OpenBabel03172210433D

 47 50  0  0  0  0  0  0  0  0999 V2000
   34.2510   11.5520   45.5370 Cl  0  0  0  0  0  0  0  0  0  0  0  0
   35.9910   11.6160   45.3270 C   0  0  0  0  0  0  0  0  0  0  0  0
   36.6780   12.8010   45.1450 C   0  0  0  0  0  0  0  0  0  0  0  0
   38.0520   12.8420   44.9820 C   0  0  0  0  0  0  0  0  0  0  0  0
   38.8030   11.6830   44.9940 C   0  0  0  0  0  0  0  0  0  0  0  0
   38.1290   10.4940   45.1740 C   0  0  0  0  0  0  0  0  0  0  0  0
   36.7470   10.4540   45.3390 C   0  0  0  0  0  0  0  0  0  0  0  0
   40.2160   11.7460   44.8260 N   0  0  0  0  0  0  0  0  0  0  0  0
   41.0500   12.2460   45.6660 N   0  0  0  0  0  0  0  0  0  0  0  0
   42.3540   12.1510   45.2060 C   0  0  0  0  0  0  0  0  0  0  0  0
   42.2820   11.5610   44.0280 N   0  0  0  0  0  0  0  0  0  0  0  0
   40.9480   11.3140   43.7960 C   0  0  0  0  0  0  0  0  0  0  0  0
   40.5250   10.7610   42.7580 O   0  0  0  0  0  0  0  0  0  0  0  0
   43.3330   11.1280   43.1620 C   0  0  0  0  0  0  0  0  0  0  0  0
   43.8850    9.7920   43.4540 C   0  0  0  0  0  0  0  0  0  0  0  0
   45.1590    9.8120   43.7190 O   0  0  0  0  0  0  0  0  0  0  0  0
   43.2910    8.5500   43.4940 N   0  0  0  0  0  0  0  0  0  0  0  0
   41.9890    8.2610   44.0330 C   0  0  0  0  0  0  0  0  0  0  0  0
   41.6060    6.7790   43.8700 C   0  0  0  0  0  0  0  0  0  0  0  0
   42.6720    5.9470   44.4360 N   0  0  0  0  0  0  0  0  0  0  0  0
   43.9940    6.3540   44.0210 C   0  0  0  0  0  0  0  0  0  0  0  0
   45.0080    5.8450   44.5510 O   0  0  0  0  0  0  0  0  0  0  0  0
   44.0210    7.3880   42.9590 C   0  0  0  0  0  0  0  0  0  0  0  0
   43.4590   12.6400   46.0270 C   0  0  0  0  0  0  0  0  0  0  0  0
   43.7250   11.9780   47.2330 C   0  0  0  0  0  0  0  0  0  0  0  0
   44.6880   12.3680   48.1220 C   0  0  0  0  0  0  0  0  0  0  0  0
   45.4780   13.4810   47.8630 C   0  0  0  0  0  0  0  0  0  0  0  0
   45.2260   14.1360   46.6910 C   0  0  0  0  0  0  0  0  0  0  0  0
   44.2400   13.7330   45.7860 C   0  0  0  0  0  0  0  0  0  0  0  0
   36.0930   13.7110   45.1360 H   0  0  0  0  0  0  0  0  0  0  0  0
   38.5880   13.7640   44.8420 H   0  0  0  0  0  0  0  0  0  0  0  0
   38.7140    9.5930   45.1820 H   0  0  0  0  0  0  0  0  0  0  0  0
   36.2250    9.5200   45.4790 H   0  0  0  0  0  0  0  0  0  0  0  0
   44.1420   11.8110   43.0290 H   0  0  0  0  0  0  0  0  0  0  0  0
   42.8560   11.0500   42.1070 H   0  0  0  0  0  0  0  0  0  0  0  0
   41.2600    8.8170   43.3850 H   0  0  0  0  0  0  0  0  0  0  0  0
   41.8660    8.5420   45.0730 H   0  0  0  0  0  0  0  0  0  0  0  0
   41.5080    6.5250   42.8030 H   0  0  0  0  0  0  0  0  0  0  0  0
   40.6390    6.5970   44.3590 H   0  0  0  0  0  0  0  0  0  0  0  0
   42.5020    5.1550   45.0620 H   0  0  0  0  0  0  0  0  0  0  0  0
   45.0700    7.6970   42.7340 H   0  0  0  0  0  0  0  0  0  0  0  0
   43.4880    7.0580   42.0380 H   0  0  0  0  0  0  0  0  0  0  0  0
   43.1130   11.0940   47.4460 H   0  0  0  0  0  0  0  0  0  0  0  0
   44.8740   11.8420   49.0460 H   0  0  0  0  0  0  0  0  0  0  0  0
   46.2430   13.8050   48.5480 H   0  0  0  0  0  0  0  0  0  0  0  0
   45.8280   15.0220   46.4550 H   0  0  0  0  0  0  0  0  0  0  0  0
   44.1050   14.3230   44.9210 H   0  0  0  0  0  0  0  0  0  0  0  0
  2  7  1  0  0  0  0
  2  1  1  0  0  0  0
  3  2  2  0  0  0  0
  4  5  2  0  0  0  0
  4  3  1  0  0  0  0
  5  6  1  0  0  0  0
  6 32  1  0  0  0  0
  6  7  2  0  0  0  0
  7 33  1  0  0  0  0
  8  5  1  0  0  0  0
  8  9  1  0  0  0  0
 10  9  2  0  0  0  0
 10 24  1  0  0  0  0
 11 10  1  0  0  0  0
 12 11  1  0  0  0  0
 12  8  1  0  0  0  0
 13 12  2  0  0  0  0
 14 15  1  0  0  0  0
 14 11  1  0  0  0  0
 15 17  1  0  0  0  0
 15 16  2  0  0  0  0
 17 18  1  0  0  0  0
 18 37  1  0  0  0  0
 19 18  1  0  0  0  0
 19 39  1  0  0  0  0
 19 20  1  0  0  0  0
 20 40  1  0  0  0  0
 21 20  1  0  0  0  0
 21 22  2  0  0  0  0
 23 17  1  0  0  0  0
 23 21  1  0  0  0  0
 24 25  1  0  0  0  0
 25 43  1  0  0  0  0
 25 26  2  0  0  0  0
 26 44  1  0  0  0  0
 27 26  1  0  0  0  0
 27 45  1  0  0  0  0
 28 27  2  0  0  0  0
 29 24  2  0  0  0  0
 29 28  1  0  0  0  0
 30  3  1  0  0  0  0
 31  4  1  0  0  0  0
 34 14  1  0  0  0  0
 35 14  1  0  0  0  0
 36 18  1  0  0  0  0
 38 19  1  0  0  0  0
 41 23  1  0  0  0  0
 42 23  1  0  0  0  0
 46 28  1  0  0  0  0
 47 29  1  0  0  0  0
M  END
>  <Pose>
1

>  <Score>
-5.73

$$$$
