
 OpenBabel03172210433D

 42 45  0  0  0  0  0  0  0  0999 V2000
   45.8110    5.0880   43.6490 Cl  0  0  0  0  0  0  0  0  0  0  0  0
   44.6730    6.4340   43.5600 C   0  0  0  0  0  0  0  0  0  0  0  0
   45.0230    7.6650   43.0810 C   0  0  0  0  0  0  0  0  0  0  0  0
   44.1620    8.7400   42.9960 C   0  0  0  0  0  0  0  0  0  0  0  0
   42.8560    8.5390   43.4320 C   0  0  0  0  0  0  0  0  0  0  0  0
   42.4910    7.2800   43.9240 C   0  0  0  0  0  0  0  0  0  0  0  0
   43.3820    6.2460   43.9880 C   0  0  0  0  0  0  0  0  0  0  0  0
   41.9190    9.5930   43.3750 N   0  0  0  0  0  0  0  0  0  0  0  0
   40.8530    9.6220   42.6110 N   0  0  0  0  0  0  0  0  0  0  0  0
   40.2420   10.7780   42.8530 N   0  0  0  0  0  0  0  0  0  0  0  0
   40.9160   11.4940   43.7730 C   0  0  0  0  0  0  0  0  0  0  0  0
   41.9690   10.7320   44.0890 C   0  0  0  0  0  0  0  0  0  0  0  0
   42.6660   11.4660   45.0390 C   0  0  0  0  0  0  0  0  0  0  0  0
   43.7240   11.0770   45.5810 O   0  0  0  0  0  0  0  0  0  0  0  0
   42.0700   12.6390   45.3010 N   0  0  0  0  0  0  0  0  0  0  0  0
   40.9790   12.6570   44.5130 C   0  0  0  0  0  0  0  0  0  0  0  0
   40.1350   13.6010   44.4570 O   0  0  0  0  0  0  0  0  0  0  0  0
   42.4650   13.6670   46.2030 C   0  0  0  0  0  0  0  0  0  0  0  0
   43.7340   14.2140   46.2100 C   0  0  0  0  0  0  0  0  0  0  0  0
   44.1090   15.2100   47.0870 C   0  0  0  0  0  0  0  0  0  0  0  0
   43.2180   15.7120   48.0130 C   0  0  0  0  0  0  0  0  0  0  0  0
   41.9470   15.1770   48.0180 C   0  0  0  0  0  0  0  0  0  0  0  0
   41.5800   14.1780   47.1340 C   0  0  0  0  0  0  0  0  0  0  0  0
   43.6060   16.7190   48.8940 O   0  0  0  0  0  0  0  0  0  0  0  0
   44.4460   16.5090   49.9870 C   0  0  0  0  0  0  0  0  0  0  0  0
   45.3870   15.7600   47.0940 O   0  0  0  0  0  0  0  0  0  0  0  0
   46.1580   15.6270   45.9140 C   0  0  0  0  0  0  0  0  0  0  0  0
   46.0480    7.8140   42.7420 H   0  0  0  0  0  0  0  0  0  0  0  0
   44.4720    9.7030   42.6110 H   0  0  0  0  0  0  0  0  0  0  0  0
   41.4650    7.1130   44.2690 H   0  0  0  0  0  0  0  0  0  0  0  0
   43.1100    5.2540   44.3710 H   0  0  0  0  0  0  0  0  0  0  0  0
   40.5320    8.8720   41.9290 H   0  0  0  0  0  0  0  0  0  0  0  0
   39.3550   11.0650   42.3740 H   0  0  0  0  0  0  0  0  0  0  0  0
   44.4370   13.8260   45.4890 H   0  0  0  0  0  0  0  0  0  0  0  0
   41.2470   15.5690   48.7430 H   0  0  0  0  0  0  0  0  0  0  0  0
   40.5780   13.7640   47.1470 H   0  0  0  0  0  0  0  0  0  0  0  0
   44.3550   17.2900   50.7690 H   0  0  0  0  0  0  0  0  0  0  0  0
   44.2380   15.5350   50.5040 H   0  0  0  0  0  0  0  0  0  0  0  0
   45.4920   16.4710   49.6270 H   0  0  0  0  0  0  0  0  0  0  0  0
   45.5690   15.9370   45.0350 H   0  0  0  0  0  0  0  0  0  0  0  0
   47.1010   16.2020   45.9650 H   0  0  0  0  0  0  0  0  0  0  0  0
   46.4450   14.5600   45.8170 H   0  0  0  0  0  0  0  0  0  0  0  0
  2  1  1  0  0  0  0
  2  7  1  0  0  0  0
  3  2  2  0  0  0  0
  4  3  1  0  0  0  0
  4  5  2  0  0  0  0
  5  6  1  0  0  0  0
  6  7  2  0  0  0  0
  6 30  1  0  0  0  0
  7 31  1  0  0  0  0
  8  5  1  0  0  0  0
  8 12  1  0  0  0  0
  9 10  1  0  0  0  0
  9  8  1  0  0  0  0
 10 11  1  0  0  0  0
 11 12  2  0  0  0  0
 11 16  1  0  0  0  0
 12 13  1  0  0  0  0
 13 15  1  0  0  0  0
 13 14  2  0  0  0  0
 15 18  1  0  0  0  0
 16 15  1  0  0  0  0
 17 16  2  0  0  0  0
 18 19  2  0  0  0  0
 18 23  1  0  0  0  0
 19 20  1  0  0  0  0
 20 26  1  0  0  0  0
 20 21  2  0  0  0  0
 21 22  1  0  0  0  0
 21 24  1  0  0  0  0
 22 35  1  0  0  0  0
 23 36  1  0  0  0  0
 23 22  2  0  0  0  0
 24 25  1  0  0  0  0
 25 38  1  0  0  0  0
 25 37  1  0  0  0  0
 27 41  1  0  0  0  0
 27 26  1  0  0  0  0
 28  3  1  0  0  0  0
 29  4  1  0  0  0  0
 32  9  1  0  0  0  0
 33 10  1  0  0  0  0
 34 19  1  0  0  0  0
 39 25  1  0  0  0  0
 40 27  1  0  0  0  0
 42 27  1  0  0  0  0
M  END
>  <Pose>
1

>  <Score>
-6.17

$$$$
