
 OpenBabel03172210433D

 42 45  0  0  0  0  0  0  0  0999 V2000
   45.6840    4.8890   43.8050 Cl  0  0  0  0  0  0  0  0  0  0  0  0
   44.5530    6.2490   43.7810 C   0  0  0  0  0  0  0  0  0  0  0  0
   43.2520    6.0700   44.2020 C   0  0  0  0  0  0  0  0  0  0  0  0
   42.3430    7.0960   44.2010 C   0  0  0  0  0  0  0  0  0  0  0  0
   42.7030    8.3630   43.7690 C   0  0  0  0  0  0  0  0  0  0  0  0
   44.0140    8.5240   43.3500 C   0  0  0  0  0  0  0  0  0  0  0  0
   44.9310    7.4940   43.3510 C   0  0  0  0  0  0  0  0  0  0  0  0
   41.7910    9.4470   43.7530 N   0  0  0  0  0  0  0  0  0  0  0  0
   40.5860    9.4330   43.2180 N   0  0  0  0  0  0  0  0  0  0  0  0
   40.0790   10.6420   43.4260 N   0  0  0  0  0  0  0  0  0  0  0  0
   40.9430   11.4310   44.0880 C   0  0  0  0  0  0  0  0  0  0  0  0
   42.0260   10.6610   44.2900 C   0  0  0  0  0  0  0  0  0  0  0  0
   42.9120   11.4740   44.9710 C   0  0  0  0  0  0  0  0  0  0  0  0
   44.0590   11.0740   45.3330 O   0  0  0  0  0  0  0  0  0  0  0  0
   42.4060   12.7000   45.1850 N   0  0  0  0  0  0  0  0  0  0  0  0
   41.1800   12.6740   44.6350 C   0  0  0  0  0  0  0  0  0  0  0  0
   40.3800   13.6570   44.6340 O   0  0  0  0  0  0  0  0  0  0  0  0
   43.0740   13.7650   45.8580 C   0  0  0  0  0  0  0  0  0  0  0  0
   42.4530   14.5310   46.8240 C   0  0  0  0  0  0  0  0  0  0  0  0
   43.0790   15.5650   47.4890 C   0  0  0  0  0  0  0  0  0  0  0  0
   44.3910   15.8480   47.1710 C   0  0  0  0  0  0  0  0  0  0  0  0
   45.0610   15.1160   46.2130 C   0  0  0  0  0  0  0  0  0  0  0  0
   44.3870   14.0820   45.5690 C   0  0  0  0  0  0  0  0  0  0  0  0
   46.3820   15.4300   45.9190 O   0  0  0  0  0  0  0  0  0  0  0  0
   46.8720   15.4250   44.6070 C   0  0  0  0  0  0  0  0  0  0  0  0
   42.4000   16.3170   48.4670 O   0  0  0  0  0  0  0  0  0  0  0  0
   41.8450   17.5610   48.1090 C   0  0  0  0  0  0  0  0  0  0  0  0
   42.9680    5.0650   44.5430 H   0  0  0  0  0  0  0  0  0  0  0  0
   41.3240    6.9480   44.5320 H   0  0  0  0  0  0  0  0  0  0  0  0
   44.2990    9.5300   43.0080 H   0  0  0  0  0  0  0  0  0  0  0  0
   45.9310    7.6570   43.0210 H   0  0  0  0  0  0  0  0  0  0  0  0
   40.1400    8.6190   42.7320 H   0  0  0  0  0  0  0  0  0  0  0  0
   39.1310   10.9450   43.1170 H   0  0  0  0  0  0  0  0  0  0  0  0
   41.4130   14.2710   47.0430 H   0  0  0  0  0  0  0  0  0  0  0  0
   44.8870   16.6650   47.6940 H   0  0  0  0  0  0  0  0  0  0  0  0
   44.9230   13.4980   44.8050 H   0  0  0  0  0  0  0  0  0  0  0  0
   46.9740   14.3550   44.2970 H   0  0  0  0  0  0  0  0  0  0  0  0
   46.2530   16.0060   43.9050 H   0  0  0  0  0  0  0  0  0  0  0  0
   47.8870   15.9190   44.6330 H   0  0  0  0  0  0  0  0  0  0  0  0
   41.2720   17.5230   47.1690 H   0  0  0  0  0  0  0  0  0  0  0  0
   41.1710   17.9190   48.9100 H   0  0  0  0  0  0  0  0  0  0  0  0
   42.6320   18.3430   47.9720 H   0  0  0  0  0  0  0  0  0  0  0  0
  2  1  1  0  0  0  0
  2  3  1  0  0  0  0
  3 28  1  0  0  0  0
  4  3  2  0  0  0  0
  4 29  1  0  0  0  0
  5  4  1  0  0  0  0
  6  7  1  0  0  0  0
  6  5  2  0  0  0  0
  7  2  2  0  0  0  0
  8  5  1  0  0  0  0
  8 12  1  0  0  0  0
  9 10  1  0  0  0  0
  9  8  1  0  0  0  0
 10 11  1  0  0  0  0
 11 12  2  0  0  0  0
 11 16  1  0  0  0  0
 12 13  1  0  0  0  0
 13 15  1  0  0  0  0
 13 14  2  0  0  0  0
 15 18  1  0  0  0  0
 16 15  1  0  0  0  0
 17 16  2  0  0  0  0
 18 19  1  0  0  0  0
 19 34  1  0  0  0  0
 19 20  2  0  0  0  0
 20 26  1  0  0  0  0
 21 20  1  0  0  0  0
 21 35  1  0  0  0  0
 22 21  2  0  0  0  0
 23 18  2  0  0  0  0
 23 22  1  0  0  0  0
 24 22  1  0  0  0  0
 25 39  1  0  0  0  0
 25 24  1  0  0  0  0
 27 26  1  0  0  0  0
 27 41  1  0  0  0  0
 30  6  1  0  0  0  0
 31  7  1  0  0  0  0
 32  9  1  0  0  0  0
 33 10  1  0  0  0  0
 36 23  1  0  0  0  0
 37 25  1  0  0  0  0
 38 25  1  0  0  0  0
 40 27  1  0  0  0  0
 42 27  1  0  0  0  0
M  END
>  <Pose>
1

>  <Score>
-6.44

$$$$
