
 OpenBabel03172210433D

 47 50  0  0  0  0  0  0  0  0999 V2000
   50.2920    2.1320   42.5570 Cl  0  0  0  0  0  0  0  0  0  0  0  0
   48.9900    3.2270   43.0150 C   0  0  0  0  0  0  0  0  0  0  0  0
   48.1450    3.7840   42.1040 C   0  0  0  0  0  0  0  0  0  0  0  0
   47.1380    4.6370   42.5100 C   0  0  0  0  0  0  0  0  0  0  0  0
   46.9710    4.9400   43.8370 C   0  0  0  0  0  0  0  0  0  0  0  0
   47.8230    4.3790   44.7520 C   0  0  0  0  0  0  0  0  0  0  0  0
   48.8330    3.5230   44.3500 C   0  0  0  0  0  0  0  0  0  0  0  0
   45.9290    5.8300   44.2980 N   0  0  0  0  0  0  0  0  0  0  0  0
   45.0280    6.4310   43.3880 C   0  0  0  0  0  0  0  0  0  0  0  0
   44.0700    7.2430   43.7670 C   0  0  0  0  0  0  0  0  0  0  0  0
   43.7710    7.6510   45.0960 N   0  0  0  0  0  0  0  0  0  0  0  0
   44.6110    8.5480   45.8620 C   0  0  0  0  0  0  0  0  0  0  0  0
   43.6860    9.5780   46.5290 C   0  0  0  0  0  0  0  0  0  0  0  0
   42.3420    9.4630   46.0760 N   0  0  0  0  0  0  0  0  0  0  0  0
   41.7100    8.1800   46.3800 C   0  0  0  0  0  0  0  0  0  0  0  0
   42.5840    7.1270   45.7430 C   0  0  0  0  0  0  0  0  0  0  0  0
   41.5540   10.4020   45.3650 C   0  0  0  0  0  0  0  0  0  0  0  0
   40.5510   11.0640   46.0530 N   0  0  0  0  0  0  0  0  0  0  0  0
   39.7340   11.9570   45.4990 C   0  0  0  0  0  0  0  0  0  0  0  0
   39.8920   12.2390   44.1700 C   0  0  0  0  0  0  0  0  0  0  0  0
   40.8710   11.6050   43.4590 C   0  0  0  0  0  0  0  0  0  0  0  0
   41.7400   10.6600   44.0400 C   0  0  0  0  0  0  0  0  0  0  0  0
   42.7750   10.0380   43.2720 C   0  0  0  0  0  0  0  0  0  0  0  0
   42.6180    9.1380   42.4500 O   0  0  0  0  0  0  0  0  0  0  0  0
   44.1140   10.4820   43.4560 N   0  0  0  0  0  0  0  0  0  0  0  0
   45.1860    6.1260   41.9850 N   0  0  0  0  0  0  0  0  0  0  0  0
   46.2170    5.2510   41.5640 C   0  0  0  0  0  0  0  0  0  0  0  0
   46.3770    4.9660   40.3270 O   0  0  0  0  0  0  0  0  0  0  0  0
   48.2440    3.5740   41.0640 H   0  0  0  0  0  0  0  0  0  0  0  0
   47.6770    4.6280   45.7970 H   0  0  0  0  0  0  0  0  0  0  0  0
   49.4930    3.0880   45.0680 H   0  0  0  0  0  0  0  0  0  0  0  0
   45.8500    6.0220   45.3120 H   0  0  0  0  0  0  0  0  0  0  0  0
   43.4310    7.6500   42.9660 H   0  0  0  0  0  0  0  0  0  0  0  0
   45.3470    9.0930   45.2720 H   0  0  0  0  0  0  0  0  0  0  0  0
   45.1460    7.9370   46.6450 H   0  0  0  0  0  0  0  0  0  0  0  0
   44.0990   10.5520   46.2970 H   0  0  0  0  0  0  0  0  0  0  0  0
   43.7560    9.2910   47.6090 H   0  0  0  0  0  0  0  0  0  0  0  0
   40.7060    8.0890   45.9630 H   0  0  0  0  0  0  0  0  0  0  0  0
   41.6740    8.0020   47.4730 H   0  0  0  0  0  0  0  0  0  0  0  0
   42.9600    6.4000   46.5050 H   0  0  0  0  0  0  0  0  0  0  0  0
   41.9940    6.5240   45.0110 H   0  0  0  0  0  0  0  0  0  0  0  0
   38.9660   12.4360   46.1110 H   0  0  0  0  0  0  0  0  0  0  0  0
   39.2480   12.9500   43.7020 H   0  0  0  0  0  0  0  0  0  0  0  0
   41.0380   11.7980   42.3860 H   0  0  0  0  0  0  0  0  0  0  0  0
   44.6520   10.9000   42.6640 H   0  0  0  0  0  0  0  0  0  0  0  0
   44.6240   10.4170   44.3650 H   0  0  0  0  0  0  0  0  0  0  0  0
   44.5420    6.5500   41.2880 H   0  0  0  0  0  0  0  0  0  0  0  0
  1  2  1  0  0  0  0
  2  7  1  0  0  0  0
  3  4  1  0  0  0  0
  3  2  2  0  0  0  0
  4  5  2  0  0  0  0
  5  8  1  0  0  0  0
  5  6  1  0  0  0  0
  6 30  1  0  0  0  0
  7  6  2  0  0  0  0
  7 31  1  0  0  0  0
  8 32  1  0  0  0  0
  9 10  2  0  0  0  0
  9  8  1  0  0  0  0
 10 11  1  0  0  0  0
 11 16  1  0  0  0  0
 11 12  1  0  0  0  0
 12 13  1  0  0  0  0
 12 35  1  0  0  0  0
 13 37  1  0  0  0  0
 14 15  1  0  0  0  0
 14 13  1  0  0  0  0
 15 39  1  0  0  0  0
 16 15  1  0  0  0  0
 16 40  1  0  0  0  0
 17 18  1  0  0  0  0
 17 14  1  0  0  0  0
 19 18  2  0  0  0  0
 19 42  1  0  0  0  0
 20 19  1  0  0  0  0
 21 22  1  0  0  0  0
 21 20  2  0  0  0  0
 22 17  2  0  0  0  0
 23 25  1  0  0  0  0
 23 22  1  0  0  0  0
 24 23  2  0  0  0  0
 25 46  1  0  0  0  0
 26  9  1  0  0  0  0
 27 26  1  0  0  0  0
 27  4  1  0  0  0  0
 28 27  2  0  0  0  0
 29  3  1  0  0  0  0
 33 10  1  0  0  0  0
 34 12  1  0  0  0  0
 36 13  1  0  0  0  0
 38 15  1  0  0  0  0
 41 16  1  0  0  0  0
 43 20  1  0  0  0  0
 44 21  1  0  0  0  0
 45 25  1  0  0  0  0
 47 26  1  0  0  0  0
M  END
>  <Pose>
1

>  <Score>
-6.73

$$$$
