
 OpenBabel03172210433D

 57 60  0  0  1  0  0  0  0  0999 V2000
   46.7610    6.7120   43.3760 S   0  0  0  0  0  0  0  0  0  0  0  0
   47.1970    6.8320   44.8090 O   0  0  0  0  0  0  0  0  0  0  0  0
   47.4590    7.8340   42.6370 O   0  0  0  0  0  0  0  0  0  0  0  0
   45.0720    6.9840   43.2030 N   0  0  0  0  0  0  0  0  0  0  0  0
   44.3300    6.3830   44.2830 C   0  0  0  0  0  0  0  0  0  0  0  0
   42.9320    6.9550   44.2560 C   0  0  0  0  0  0  0  0  0  0  0  0
   42.7320    7.6700   43.0220 N   0  0  0  0  0  0  0  0  0  0  0  0
   43.2150    7.1480   41.7480 C   0  0  0  0  0  0  0  0  0  0  0  0
   44.5570    6.4440   41.9610 C   0  0  0  0  0  0  0  0  0  0  0  0
   42.0640    8.9070   43.0310 C   0  0  0  0  0  0  0  0  0  0  0  0
   41.5940    9.3660   41.9320 O   0  0  0  0  0  0  0  0  0  0  0  0
   41.9090    9.6750   44.2960 C   0  0  1  0  0  0  0  0  0  0  0  0
   42.9510   10.7430   44.4600 C   0  0  0  0  0  0  0  0  0  0  0  0
   42.2730   11.9990   44.1530 N   0  0  0  0  0  0  0  0  0  0  0  0
   40.9410   11.7380   43.7530 C   0  0  0  0  0  0  0  0  0  0  0  0
   40.2420   12.5110   43.0550 O   0  0  0  0  0  0  0  0  0  0  0  0
   40.6020   10.4180   44.3280 C   0  0  0  0  0  0  0  0  0  0  0  0
   42.8860   13.3050   44.2420 C   0  0  0  0  0  0  0  0  0  0  0  0
   43.4290   13.5680   45.5950 C   0  0  0  0  0  0  0  0  0  0  0  0
   42.6120   14.1570   46.5490 C   0  0  0  0  0  0  0  0  0  0  0  0
   43.0490   14.4340   47.8330 C   0  0  0  0  0  0  0  0  0  0  0  0
   44.3520   14.1000   48.1420 C   0  0  0  0  0  0  0  0  0  0  0  0
   45.1940   13.5110   47.2140 C   0  0  0  0  0  0  0  0  0  0  0  0
   44.7270   13.2440   45.9280 C   0  0  0  0  0  0  0  0  0  0  0  0
   40.9760   14.5550   46.0980 Cl  0  0  0  0  0  0  0  0  0  0  0  0
   47.2420    5.1960   42.6780 C   0  0  0  0  0  0  0  0  0  0  0  0
   47.0300    4.6760   41.4210 C   0  0  0  0  0  0  0  0  0  0  0  0
   47.6100    3.4370   41.3840 N   0  0  0  0  0  0  0  0  0  0  0  0
   48.1340    3.2190   42.5310 O   0  0  0  0  0  0  0  0  0  0  0  0
   47.9540    4.2240   43.3540 C   0  0  0  0  0  0  0  0  0  0  0  0
   48.4570    4.2410   44.7450 C   0  0  0  0  0  0  0  0  0  0  0  0
   46.3130    5.3570   40.3270 C   0  0  0  0  0  0  0  0  0  0  0  0
   44.2280    5.2720   44.1460 H   0  0  0  0  0  0  0  0  0  0  0  0
   44.8190    6.5330   45.2680 H   0  0  0  0  0  0  0  0  0  0  0  0
   42.1640    6.1480   44.3860 H   0  0  0  0  0  0  0  0  0  0  0  0
   42.8470    7.6700   45.0910 H   0  0  0  0  0  0  0  0  0  0  0  0
   42.4580    6.4850   41.2890 H   0  0  0  0  0  0  0  0  0  0  0  0
   43.3500    8.0130   41.0740 H   0  0  0  0  0  0  0  0  0  0  0  0
   45.1860    6.6350   41.0940 H   0  0  0  0  0  0  0  0  0  0  0  0
   44.3300    5.3600   42.0170 H   0  0  0  0  0  0  0  0  0  0  0  0
   41.9500    8.9380   45.1560 H   0  0  0  0  0  0  0  0  0  0  0  0
   43.3240   10.7370   45.5150 H   0  0  0  0  0  0  0  0  0  0  0  0
   43.8260   10.6190   43.7530 H   0  0  0  0  0  0  0  0  0  0  0  0
   39.8140    9.9000   43.7400 H   0  0  0  0  0  0  0  0  0  0  0  0
   40.3010   10.5530   45.3910 H   0  0  0  0  0  0  0  0  0  0  0  0
   42.1930   14.1270   43.9660 H   0  0  0  0  0  0  0  0  0  0  0  0
   43.7620   13.3280   43.5420 H   0  0  0  0  0  0  0  0  0  0  0  0
   42.3640   14.8930   48.5300 H   0  0  0  0  0  0  0  0  0  0  0  0
   44.7240   14.3090   49.1500 H   0  0  0  0  0  0  0  0  0  0  0  0
   46.2030   13.2680   47.4990 H   0  0  0  0  0  0  0  0  0  0  0  0
   45.3830   12.7860   45.2050 H   0  0  0  0  0  0  0  0  0  0  0  0
   48.0580    5.1470   45.2490 H   0  0  0  0  0  0  0  0  0  0  0  0
   48.0000    3.3410   45.2510 H   0  0  0  0  0  0  0  0  0  0  0  0
   49.5450    4.1590   44.7630 H   0  0  0  0  0  0  0  0  0  0  0  0
   46.6990    4.8890   39.3720 H   0  0  0  0  0  0  0  0  0  0  0  0
   45.2330    5.1840   40.3160 H   0  0  0  0  0  0  0  0  0  0  0  0
   46.5370    6.4610   40.3050 H   0  0  0  0  0  0  0  0  0  0  0  0
  1  2  2  0  0  0  0
  3  1  2  0  0  0  0
  4  1  1  0  0  0  0
  4  5  1  0  0  0  0
  5 34  1  0  0  0  0
  6  5  1  0  0  0  0
  6 35  1  0  0  0  0
  6 36  1  0  0  0  0
  7 10  1  0  0  0  0
  7  6  1  0  0  0  0
  8  9  1  0  0  0  0
  8  7  1  0  0  0  0
  9 40  1  0  0  0  0
  9  4  1  0  0  0  0
 10 12  1  0  0  0  0
 11 10  2  0  0  0  0
 12 17  1  0  0  0  0
 12 13  1  0  0  0  0
 12 41  1  1  0  0  0
 13 42  1  0  0  0  0
 14 18  1  0  0  0  0
 14 13  1  0  0  0  0
 15 14  1  0  0  0  0
 15 17  1  0  0  0  0
 16 15  2  0  0  0  0
 17 45  1  0  0  0  0
 18 19  1  0  0  0  0
 19 24  2  0  0  0  0
 19 20  1  0  0  0  0
 20 21  2  0  0  0  0
 21 22  1  0  0  0  0
 21 48  1  0  0  0  0
 22 49  1  0  0  0  0
 23 50  1  0  0  0  0
 23 22  2  0  0  0  0
 24 23  1  0  0  0  0
 25 20  1  0  0  0  0
 26 30  2  0  0  0  0
 26  1  1  0  0  0  0
 27 26  1  0  0  0  0
 28 27  2  0  0  0  0
 28 29  1  0  0  0  0
 29 30  1  0  0  0  0
 30 31  1  0  0  0  0
 31 54  1  0  0  0  0
 31 52  1  0  0  0  0
 31 53  1  0  0  0  0
 32 27  1  0  0  0  0
 33  5  1  0  0  0  0
 37  8  1  0  0  0  0
 38  8  1  0  0  0  0
 39  9  1  0  0  0  0
 43 13  1  0  0  0  0
 44 17  1  0  0  0  0
 46 18  1  0  0  0  0
 47 18  1  0  0  0  0
 51 24  1  0  0  0  0
 55 32  1  0  0  0  0
 56 32  1  0  0  0  0
 57 32  1  0  0  0  0
M  END
>  <Pose>
1

>  <Score>
-4.96

$$$$
