
 OpenBabel03172210433D

 35 38  0  0  1  0  0  0  0  0999 V2000
   47.7280    3.7240   41.5710 Cl  0  0  0  0  0  0  0  0  0  0  0  0
   46.9830    4.9810   42.5540 C   0  0  0  0  0  0  0  0  0  0  0  0
   47.4150    5.1380   43.8520 C   0  0  0  0  0  0  0  0  0  0  0  0
   46.8400    6.0990   44.5920 N   0  0  0  0  0  0  0  0  0  0  0  0
   45.8620    6.9110   44.1120 C   0  0  0  0  0  0  0  0  0  0  0  0
   45.4340    6.7660   42.8460 N   0  0  0  0  0  0  0  0  0  0  0  0
   44.4820    7.6650   42.6130 N   0  0  0  0  0  0  0  0  0  0  0  0
   44.2700    8.4140   43.7140 C   0  0  0  0  0  0  0  0  0  0  0  0
   45.1420    7.9220   44.6300 N   0  0  0  0  0  0  0  0  0  0  0  0
   43.3400    9.4800   43.8820 N   0  0  0  0  0  0  0  0  0  0  0  0
   42.4280    9.9520   42.9000 C   0  0  0  0  0  0  0  0  0  0  0  0
   42.0180    9.3600   41.8690 O   0  0  0  0  0  0  0  0  0  0  0  0
   41.9830   11.3390   43.2700 C   0  0  2  0  0  0  0  0  0  0  0  0
   42.4360   11.5450   44.6710 C   0  0  1  0  0  0  0  0  0  0  0  0
   41.3110   11.7210   45.6750 C   0  0  0  0  0  0  0  0  0  0  0  0
   40.3480   10.5980   45.4350 C   0  0  0  0  0  0  0  0  0  0  0  0
   39.9450   10.4590   44.1850 C   0  0  0  0  0  0  0  0  0  0  0  0
   40.4740   11.4080   43.1760 C   0  0  0  0  0  0  0  0  0  0  0  0
   43.1180   10.2860   45.0280 C   0  0  0  0  0  0  0  0  0  0  0  0
   43.4700    9.9520   46.2060 O   0  0  0  0  0  0  0  0  0  0  0  0
   45.9910    5.8050   42.0700 C   0  0  0  0  0  0  0  0  0  0  0  0
   45.5870    5.6670   40.8720 O   0  0  0  0  0  0  0  0  0  0  0  0
   48.4950    4.2490   44.3990 C   0  0  0  0  0  0  0  0  0  0  0  0
   47.1640    6.2240   45.5810 H   0  0  0  0  0  0  0  0  0  0  0  0
   42.4340   12.0610   42.5520 H   0  0  0  0  0  0  0  0  0  0  0  0
   43.1250   12.4160   44.6880 H   0  0  0  0  0  0  0  0  0  0  0  0
   41.7250   11.6330   46.6950 H   0  0  0  0  0  0  0  0  0  0  0  0
   40.8100   12.6860   45.4950 H   0  0  0  0  0  0  0  0  0  0  0  0
   40.0340    9.9700   46.2560 H   0  0  0  0  0  0  0  0  0  0  0  0
   39.2570    9.6870   43.9070 H   0  0  0  0  0  0  0  0  0  0  0  0
   40.1230   11.1170   42.1580 H   0  0  0  0  0  0  0  0  0  0  0  0
   40.1490   12.4480   43.4200 H   0  0  0  0  0  0  0  0  0  0  0  0
   48.1880    3.1960   44.3850 H   0  0  0  0  0  0  0  0  0  0  0  0
   49.4390    4.3880   43.8120 H   0  0  0  0  0  0  0  0  0  0  0  0
   48.7210    4.5090   45.4530 H   0  0  0  0  0  0  0  0  0  0  0  0
  1  2  1  0  0  0  0
  2  3  2  0  0  0  0
  3 23  1  0  0  0  0
  3  4  1  0  0  0  0
  4 24  1  0  0  0  0
  5  4  1  0  0  0  0
  5  9  2  0  0  0  0
  6  5  1  0  0  0  0
  7  6  1  0  0  0  0
  7  8  2  0  0  0  0
  8 10  1  0  0  0  0
  8  9  1  0  0  0  0
 10 19  1  0  0  0  0
 11 13  1  0  0  0  0
 11 10  1  0  0  0  0
 12 11  2  0  0  0  0
 13 25  1  6  0  0  0
 13 14  1  0  0  0  0
 14 26  1  1  0  0  0
 14 19  1  0  0  0  0
 14 15  1  0  0  0  0
 15 27  1  0  0  0  0
 16 15  1  0  0  0  0
 16 29  1  0  0  0  0
 17 16  2  0  0  0  0
 18 13  1  0  0  0  0
 18 32  1  0  0  0  0
 18 17  1  0  0  0  0
 19 20  2  0  0  0  0
 21  2  1  0  0  0  0
 21  6  1  0  0  0  0
 22 21  2  0  0  0  0
 23 35  1  0  0  0  0
 28 15  1  0  0  0  0
 30 17  1  0  0  0  0
 31 18  1  0  0  0  0
 33 23  1  0  0  0  0
 34 23  1  0  0  0  0
M  END
>  <Pose>
1

>  <Score>
-5.95

$$$$
