
 OpenBabel03172210433D

 51 54  0  0  1  0  0  0  0  0999 V2000
   52.5190    1.7490   43.5530 Cl  0  0  0  0  0  0  0  0  0  0  0  0
   51.1700    2.7260   44.0940 C   0  0  0  0  0  0  0  0  0  0  0  0
   49.9320    2.6450   43.4990 C   0  0  0  0  0  0  0  0  0  0  0  0
   48.8530    3.4410   43.9410 C   0  0  0  0  0  0  0  0  0  0  0  0
   49.1160    4.2800   44.9830 C   0  0  0  0  0  0  0  0  0  0  0  0
   50.3830    4.3660   45.5960 C   0  0  0  0  0  0  0  0  0  0  0  0
   51.4120    3.5810   45.1430 C   0  0  0  0  0  0  0  0  0  0  0  0
   47.6120    3.3010   43.2880 N   0  0  0  0  0  0  0  0  0  0  0  0
   46.6050    4.2510   43.2310 C   0  0  0  0  0  0  0  0  0  0  0  0
   45.7720    4.4130   44.1300 O   0  0  0  0  0  0  0  0  0  0  0  0
   46.4470    5.1740   42.0400 C   0  0  0  0  0  0  0  0  0  0  0  0
   45.9570    6.4730   42.5240 N   0  0  0  0  0  0  0  0  0  0  0  0
   46.7110    7.3860   43.2050 C   0  0  1  0  0  0  0  0  0  0  0  0
   45.9570    8.4660   43.4740 N   0  0  0  0  0  0  0  0  0  0  0  0
   44.7180    8.3000   42.9930 C   0  0  0  0  0  0  0  0  0  0  0  0
   44.7510    7.0300   42.3990 C   0  0  0  0  0  0  0  0  0  0  0  0
   43.5400    9.1520   43.0080 C   0  0  0  0  0  0  0  0  0  0  0  0
   42.2690    8.6570   42.8980 C   0  0  0  0  0  0  0  0  0  0  0  0
   41.1380    9.4520   42.9300 C   0  0  0  0  0  0  0  0  0  0  0  0
   41.2430   10.8270   43.0770 C   0  0  0  0  0  0  0  0  0  0  0  0
   42.5180   11.3250   43.1880 C   0  0  0  0  0  0  0  0  0  0  0  0
   43.6480   10.5320   43.1560 C   0  0  0  0  0  0  0  0  0  0  0  0
   40.1330   11.6550   43.1120 O   0  0  0  0  0  0  0  0  0  0  0  0
   40.1300   12.9060   43.7740 C   0  0  0  0  0  0  0  0  0  0  0  0
   46.7760    9.4400   44.1940 C   0  0  0  0  0  0  0  0  0  0  0  0
   48.2090    8.9950   43.9730 C   0  0  0  0  0  0  0  0  0  0  0  0
   48.0870    7.5310   43.7430 C   0  0  0  0  0  0  0  0  0  0  0  0
   49.7340    1.7060   42.3800 C   0  0  0  0  0  0  0  0  0  0  0  0
   48.3450    4.9200   45.3770 H   0  0  0  0  0  0  0  0  0  0  0  0
   50.5710    5.0370   46.4230 H   0  0  0  0  0  0  0  0  0  0  0  0
   52.4010    3.6430   45.6210 H   0  0  0  0  0  0  0  0  0  0  0  0
   47.4210    2.3800   42.7890 H   0  0  0  0  0  0  0  0  0  0  0  0
   47.4600    5.3300   41.6370 H   0  0  0  0  0  0  0  0  0  0  0  0
   45.7180    4.7790   41.3260 H   0  0  0  0  0  0  0  0  0  0  0  0
   43.9060    6.5480   41.9030 H   0  0  0  0  0  0  0  0  0  0  0  0
   42.1850    7.5650   42.7740 H   0  0  0  0  0  0  0  0  0  0  0  0
   40.1590    8.9880   42.8350 H   0  0  0  0  0  0  0  0  0  0  0  0
   42.6150   12.4110   43.3040 H   0  0  0  0  0  0  0  0  0  0  0  0
   44.6490   10.9560   43.2410 H   0  0  0  0  0  0  0  0  0  0  0  0
   39.9970   12.7810   44.8750 H   0  0  0  0  0  0  0  0  0  0  0  0
   41.0270   13.5120   43.5840 H   0  0  0  0  0  0  0  0  0  0  0  0
   39.2600   13.4850   43.4030 H   0  0  0  0  0  0  0  0  0  0  0  0
   46.5050    9.5300   45.2470 H   0  0  0  0  0  0  0  0  0  0  0  0
   46.7280   10.4510   43.7280 H   0  0  0  0  0  0  0  0  0  0  0  0
   48.8610    9.2860   44.8060 H   0  0  0  0  0  0  0  0  0  0  0  0
   48.5810    9.4340   42.9970 H   0  0  0  0  0  0  0  0  0  0  0  0
   48.8320    7.1270   43.0250 H   0  0  0  0  0  0  0  0  0  0  0  0
   48.1620    6.9890   44.7270 H   0  0  0  0  0  0  0  0  0  0  0  0
   50.6970    1.2300   42.1230 H   0  0  0  0  0  0  0  0  0  0  0  0
   49.0530    0.8580   42.6830 H   0  0  0  0  0  0  0  0  0  0  0  0
   49.2880    2.1600   41.4770 H   0  0  0  0  0  0  0  0  0  0  0  0
  1  2  1  0  0  0  0
  2  7  1  0  0  0  0
  3  4  1  0  0  0  0
  3  2  2  0  0  0  0
  4  5  2  0  0  0  0
  5 29  1  0  0  0  0
  5  6  1  0  0  0  0
  6 30  1  0  0  0  0
  7  6  2  0  0  0  0
  7 31  1  0  0  0  0
  8  4  1  0  0  0  0
  9  8  1  0  0  0  0
  9 10  2  0  0  0  0
 11 12  1  0  0  0  0
 11  9  1  0  0  0  0
 13 12  1  1  0  0  0
 13 14  1  0  0  0  0
 13 27  1  0  0  0  0
 14 25  1  0  0  0  0
 15 17  1  0  0  0  0
 15 14  1  0  0  0  0
 16 12  1  0  0  0  0
 16 15  2  0  0  0  0
 17 22  1  0  0  0  0
 18 19  1  0  0  0  0
 18 17  2  0  0  0  0
 19 20  2  0  0  0  0
 20 23  1  0  0  0  0
 20 21  1  0  0  0  0
 21 38  1  0  0  0  0
 22 21  2  0  0  0  0
 22 39  1  0  0  0  0
 23 24  1  0  0  0  0
 24 40  1  0  0  0  0
 25 43  1  0  0  0  0
 26 25  1  0  0  0  0
 26 45  1  0  0  0  0
 27 26  1  0  0  0  0
 27 48  1  0  0  0  0
 28 50  1  0  0  0  0
 28  3  1  0  0  0  0
 32  8  1  0  0  0  0
 33 11  1  0  0  0  0
 34 11  1  0  0  0  0
 35 16  1  0  0  0  0
 36 18  1  0  0  0  0
 37 19  1  0  0  0  0
 41 24  1  0  0  0  0
 42 24  1  0  0  0  0
 44 25  1  0  0  0  0
 46 26  1  0  0  0  0
 47 27  1  0  0  0  0
 49 28  1  0  0  0  0
 51 28  1  0  0  0  0
M  END
>  <Pose>
1

>  <Score>
-5.71

$$$$
