
 OpenBabel03172210433D

 47 50  0  0  1  0  0  0  0  0999 V2000
   39.3030   10.0890   46.2940 Cl  0  0  0  0  0  0  0  0  0  0  0  0
   40.0270    9.3780   47.7180 C   0  0  0  0  0  0  0  0  0  0  0  0
   40.9940    8.4120   47.5420 C   0  0  0  0  0  0  0  0  0  0  0  0
   41.5620    7.8550   48.6670 C   0  0  0  0  0  0  0  0  0  0  0  0
   41.1800    8.2440   49.9440 C   0  0  0  0  0  0  0  0  0  0  0  0
   40.2130    9.2110   50.1290 C   0  0  0  0  0  0  0  0  0  0  0  0
   39.6450    9.7680   49.0040 C   0  0  0  0  0  0  0  0  0  0  0  0
   42.7970    6.6210   48.4490 Cl  0  0  0  0  0  0  0  0  0  0  0  0
   41.4110    7.9860   46.2030 C   0  0  0  0  0  0  0  0  0  0  0  0
   41.4360    6.7520   45.8550 N   0  0  0  0  0  0  0  0  0  0  0  0
   41.8470    6.4320   44.5590 N   0  0  0  0  0  0  0  0  0  0  0  0
   43.2120    6.4600   44.1680 C   0  0  0  0  0  0  0  0  0  0  0  0
   43.8350    7.4950   43.5830 N   0  0  0  0  0  0  0  0  0  0  0  0
   45.1050    7.1000   43.3860 C   0  0  0  0  0  0  0  0  0  0  0  0
   46.1860    7.7090   42.8420 N   0  0  0  0  0  0  0  0  0  0  0  0
   47.3810    7.0920   42.7550 C   0  0  0  0  0  0  0  0  0  0  0  0
   47.5260    5.8300   43.2150 N   0  0  0  0  0  0  0  0  0  0  0  0
   46.4980    5.1590   43.7680 C   0  0  0  0  0  0  0  0  0  0  0  0
   45.2850    5.8130   43.8460 C   0  0  0  0  0  0  0  0  0  0  0  0
   44.0800    5.4340   44.3330 N   0  0  0  0  0  0  0  0  0  0  0  0
   46.6820    3.8390   44.2410 N   0  0  0  0  0  0  0  0  0  0  0  0
   43.3350    8.7850   43.2090 C   0  0  1  0  0  0  0  0  0  0  0  0
   41.9430    8.8370   43.1880 O   0  0  0  0  0  0  0  0  0  0  0  0
   41.7200   10.2120   43.1390 C   0  0  2  0  0  0  0  0  0  0  0  0
   42.5120   10.6760   44.3520 C   0  0  1  0  0  0  0  0  0  0  0  0
   43.7740    9.8520   44.1970 C   0  0  2  0  0  0  0  0  0  0  0  0
   44.7440   10.6910   43.6430 O   0  0  0  0  0  0  0  0  0  0  0  0
   42.7740   12.0380   44.3090 O   0  0  0  0  0  0  0  0  0  0  0  0
   40.2620   10.5680   43.2530 C   0  0  0  0  0  0  0  0  0  0  0  0
   39.4260    9.5390   42.8990 O   0  0  0  0  0  0  0  0  0  0  0  0
   41.6210    7.8110   50.8310 H   0  0  0  0  0  0  0  0  0  0  0  0
   39.8840    9.5460   51.1030 H   0  0  0  0  0  0  0  0  0  0  0  0
   38.8760   10.5360   49.1250 H   0  0  0  0  0  0  0  0  0  0  0  0
   41.7090    8.7260   45.4780 H   0  0  0  0  0  0  0  0  0  0  0  0
   41.0930    6.1680   43.8810 H   0  0  0  0  0  0  0  0  0  0  0  0
   48.2480    7.5710   42.3220 H   0  0  0  0  0  0  0  0  0  0  0  0
   46.7060    3.0270   43.6010 H   0  0  0  0  0  0  0  0  0  0  0  0
   46.7940    3.6800   45.2580 H   0  0  0  0  0  0  0  0  0  0  0  0
   43.6770    9.1090   42.2010 H   0  0  0  0  0  0  0  0  0  0  0  0
   42.2020   10.6070   42.2480 H   0  0  0  0  0  0  0  0  0  0  0  0
   41.9680   10.3820   45.2900 H   0  0  0  0  0  0  0  0  0  0  0  0
   44.1110    9.4100   45.1550 H   0  0  0  0  0  0  0  0  0  0  0  0
   45.6520   10.3690   43.8150 H   0  0  0  0  0  0  0  0  0  0  0  0
   42.1690   12.4350   43.6260 H   0  0  0  0  0  0  0  0  0  0  0  0
   40.0890   11.4360   42.5800 H   0  0  0  0  0  0  0  0  0  0  0  0
   40.1020   10.9490   44.2840 H   0  0  0  0  0  0  0  0  0  0  0  0
   39.2330    9.5330   41.9360 H   0  0  0  0  0  0  0  0  0  0  0  0
  1  2  1  0  0  0  0
  2  7  1  0  0  0  0
  3  2  2  0  0  0  0
  3  4  1  0  0  0  0
  4  5  2  0  0  0  0
  5  6  1  0  0  0  0
  5 31  1  0  0  0  0
  6 32  1  0  0  0  0
  7 33  1  0  0  0  0
  7  6  2  0  0  0  0
  8  4  1  0  0  0  0
  9  3  1  0  0  0  0
 10  9  2  0  0  0  0
 11 10  1  0  0  0  0
 12 20  2  0  0  0  0
 12 11  1  0  0  0  0
 13 12  1  0  0  0  0
 14 13  1  0  0  0  0
 14 19  2  0  0  0  0
 15 14  1  0  0  0  0
 16 15  2  0  0  0  0
 16 17  1  0  0  0  0
 17 18  2  0  0  0  0
 18 19  1  0  0  0  0
 18 21  1  0  0  0  0
 19 20  1  0  0  0  0
 21 38  1  0  0  0  0
 22 39  1  6  0  0  0
 22 13  1  0  0  0  0
 22 26  1  0  0  0  0
 23 22  1  0  0  0  0
 24 40  1  6  0  0  0
 24 23  1  0  0  0  0
 24 29  1  0  0  0  0
 24 25  1  0  0  0  0
 25 41  1  1  0  0  0
 26 25  1  0  0  0  0
 26 42  1  1  0  0  0
 27 43  1  0  0  0  0
 27 26  1  0  0  0  0
 28 25  1  0  0  0  0
 29 46  1  0  0  0  0
 30 29  1  0  0  0  0
 34  9  1  0  0  0  0
 35 11  1  0  0  0  0
 36 16  1  0  0  0  0
 37 21  1  0  0  0  0
 44 28  1  0  0  0  0
 45 29  1  0  0  0  0
 47 30  1  0  0  0  0
M  END
>  <Pose>
1

>  <Score>
-7.86

$$$$
