
 OpenBabel03172210433D

 49 52  0  0  1  0  0  0  0  0999 V2000
   35.6570   12.1670   48.7080 Cl  0  0  0  0  0  0  0  0  0  0  0  0
   36.6560   11.5390   47.4150 C   0  0  0  0  0  0  0  0  0  0  0  0
   37.9350   11.0580   47.6570 C   0  0  0  0  0  0  0  0  0  0  0  0
   38.6970   10.5720   46.6260 C   0  0  0  0  0  0  0  0  0  0  0  0
   38.2410   10.5340   45.3000 C   0  0  0  0  0  0  0  0  0  0  0  0
   36.9790   11.0150   45.0860 C   0  0  0  0  0  0  0  0  0  0  0  0
   36.1950   11.5100   46.1210 C   0  0  0  0  0  0  0  0  0  0  0  0
   39.0710   10.0330   44.2760 N   0  0  0  0  0  0  0  0  0  0  0  0
   40.3360   10.4850   43.8870 C   0  0  0  0  0  0  0  0  0  0  0  0
   40.8370   11.4960   44.4400 O   0  0  0  0  0  0  0  0  0  0  0  0
   41.1330    9.7950   42.8050 C   0  0  0  0  0  0  0  0  0  0  0  0
   42.0930    8.9430   43.4840 N   0  0  0  0  0  0  0  0  0  0  0  0
   42.1750    9.2940   44.9180 C   0  0  0  0  0  0  0  0  0  0  0  0
   43.5840    8.7920   45.2950 C   0  0  0  0  0  0  0  0  0  0  0  0
   43.7250    7.5690   44.4890 N   0  0  0  0  0  0  0  0  0  0  0  0
   42.5420    6.7750   44.3880 C   0  0  0  0  0  0  0  0  0  0  0  0
   41.5890    7.5500   43.4630 C   0  0  0  0  0  0  0  0  0  0  0  0
   44.9630    7.2960   43.8900 C   0  0  2  0  0  0  0  0  0  0  0  0
   45.7160    8.3100   43.3650 N   0  0  0  0  0  0  0  0  0  0  0  0
   46.8930    8.1290   42.7690 C   0  0  0  0  0  0  0  0  0  0  0  0
   47.3930    6.8940   42.6620 N   0  0  0  0  0  0  0  0  0  0  0  0
   46.7560    5.8270   43.1330 C   0  0  0  0  0  0  0  0  0  0  0  0
   47.0240    4.5060   43.1540 N   0  0  0  0  0  0  0  0  0  0  0  0
   46.0150    3.9300   43.7570 N   0  0  0  0  0  0  0  0  0  0  0  0
   45.1140    4.8300   44.1200 N   0  0  0  0  0  0  0  0  0  0  0  0
   45.5210    6.0310   43.7560 C   0  0  0  0  0  0  0  0  0  0  0  0
   48.1820    3.8100   42.6270 C   0  0  0  0  0  0  0  0  0  0  0  0
   47.7870    2.5100   41.9600 C   0  0  0  0  0  0  0  0  0  0  0  0
   38.2870   11.0840   48.6770 H   0  0  0  0  0  0  0  0  0  0  0  0
   39.6870   10.2020   46.8340 H   0  0  0  0  0  0  0  0  0  0  0  0
   36.5280   11.0440   44.1110 H   0  0  0  0  0  0  0  0  0  0  0  0
   35.1950   11.8800   45.8870 H   0  0  0  0  0  0  0  0  0  0  0  0
   38.6690    9.2210   43.7110 H   0  0  0  0  0  0  0  0  0  0  0  0
   40.4270    9.2640   42.1650 H   0  0  0  0  0  0  0  0  0  0  0  0
   41.6120   10.6250   42.2460 H   0  0  0  0  0  0  0  0  0  0  0  0
   41.4720    8.7180   45.5320 H   0  0  0  0  0  0  0  0  0  0  0  0
   42.0380   10.3520   45.0870 H   0  0  0  0  0  0  0  0  0  0  0  0
   44.2650    9.5940   44.9610 H   0  0  0  0  0  0  0  0  0  0  0  0
   43.6690    8.5910   46.3590 H   0  0  0  0  0  0  0  0  0  0  0  0
   42.0540    6.6560   45.3920 H   0  0  0  0  0  0  0  0  0  0  0  0
   42.6920    5.7980   43.9200 H   0  0  0  0  0  0  0  0  0  0  0  0
   41.5820    7.1260   42.4700 H   0  0  0  0  0  0  0  0  0  0  0  0
   40.5640    7.4870   43.8910 H   0  0  0  0  0  0  0  0  0  0  0  0
   47.4350    9.0030   42.3740 H   0  0  0  0  0  0  0  0  0  0  0  0
   48.6800    4.4730   41.8910 H   0  0  0  0  0  0  0  0  0  0  0  0
   48.9360    3.5690   43.4020 H   0  0  0  0  0  0  0  0  0  0  0  0
   47.5590    2.7500   40.8980 H   0  0  0  0  0  0  0  0  0  0  0  0
   48.6430    1.8150   42.0610 H   0  0  0  0  0  0  0  0  0  0  0  0
   46.9150    2.0430   42.4800 H   0  0  0  0  0  0  0  0  0  0  0  0
  2  3  1  0  0  0  0
  2  1  1  0  0  0  0
  3 29  1  0  0  0  0
  4 30  1  0  0  0  0
  4  3  2  0  0  0  0
  5  4  1  0  0  0  0
  6  5  2  0  0  0  0
  6  7  1  0  0  0  0
  7  2  2  0  0  0  0
  8  5  1  0  0  0  0
  9  8  1  0  0  0  0
  9 10  2  0  0  0  0
 11 12  1  0  0  0  0
 11  9  1  0  0  0  0
 12 13  1  0  0  0  0
 13 37  1  0  0  0  0
 13 14  1  0  0  0  0
 13 36  1  0  0  0  0
 14 39  1  0  0  0  0
 15 14  1  0  0  0  0
 16 15  1  0  0  0  0
 16 40  1  0  0  0  0
 17 12  1  0  0  0  0
 17 43  1  0  0  0  0
 17 16  1  0  0  0  0
 18 15  1  6  0  0  0
 19 18  1  0  0  0  0
 20 19  2  0  0  0  0
 21 20  1  0  0  0  0
 21 22  1  0  0  0  0
 22 23  1  0  0  0  0
 22 26  2  0  0  0  0
 23 24  1  0  0  0  0
 24 25  2  0  0  0  0
 26 18  1  0  0  0  0
 26 25  1  0  0  0  0
 27 23  1  0  0  0  0
 27 46  1  0  0  0  0
 28 48  1  0  0  0  0
 28 49  1  0  0  0  0
 28 27  1  0  0  0  0
 31  6  1  0  0  0  0
 32  7  1  0  0  0  0
 33  8  1  0  0  0  0
 34 11  1  0  0  0  0
 35 11  1  0  0  0  0
 38 14  1  0  0  0  0
 41 16  1  0  0  0  0
 42 17  1  0  0  0  0
 44 20  1  0  0  0  0
 45 27  1  0  0  0  0
 47 28  1  0  0  0  0
M  END
>  <Pose>
1

>  <Score>
-6.85

$$$$
