
 OpenBabel03172210433D

 49 52  0  0  1  0  0  0  0  0999 V2000
   47.9830    2.6290   41.9690 Cl  0  0  0  0  0  0  0  0  0  0  0  0
   48.2460    3.8080   43.2370 C   0  0  0  0  0  0  0  0  0  0  0  0
   49.1340    3.5470   44.2530 C   0  0  0  0  0  0  0  0  0  0  0  0
   49.2800    4.5230   45.2080 C   0  0  0  0  0  0  0  0  0  0  0  0
   48.5820    5.7320   45.1820 C   0  0  0  0  0  0  0  0  0  0  0  0
   47.6940    6.0020   44.1730 C   0  0  0  0  0  0  0  0  0  0  0  0
   47.5540    4.9930   43.2020 C   0  0  0  0  0  0  0  0  0  0  0  0
   46.9430    7.1890   44.0310 N   0  0  0  0  0  0  0  0  0  0  0  0
   45.8290    7.3070   43.1850 C   0  0  0  0  0  0  0  0  0  0  0  0
   45.9110    7.7200   42.0180 O   0  0  0  0  0  0  0  0  0  0  0  0
   44.4520    6.9310   43.6570 C   0  0  0  0  0  0  0  0  0  0  0  0
   43.7010    8.0600   44.1080 N   0  0  0  0  0  0  0  0  0  0  0  0
   43.8960    8.6690   45.2980 C   0  0  0  0  0  0  0  0  0  0  0  0
   43.1460    9.7330   45.6530 N   0  0  0  0  0  0  0  0  0  0  0  0
   42.1860   10.2380   44.8700 C   0  0  0  0  0  0  0  0  0  0  0  0
   41.4330   11.2960   45.2140 N   0  0  0  0  0  0  0  0  0  0  0  0
   40.4640   11.8230   44.4470 C   0  0  0  0  0  0  0  0  0  0  0  0
   40.2510   11.2230   43.2440 N   0  0  0  0  0  0  0  0  0  0  0  0
   40.9800   10.1630   42.8600 C   0  0  0  0  0  0  0  0  0  0  0  0
   41.9730    9.6310   43.6560 C   0  0  2  0  0  0  0  0  0  0  0  0
   42.7330    8.5420   43.2800 C   0  0  0  0  0  0  0  0  0  0  0  0
   42.4910    8.0310   42.1590 O   0  0  0  0  0  0  0  0  0  0  0  0
   39.6930   12.9410   44.8460 N   0  0  0  0  0  0  0  0  0  0  0  0
   38.2560   12.8080   44.8860 C   0  0  0  0  0  0  0  0  0  0  0  0
   37.7280   13.5410   46.1180 C   0  0  0  0  0  0  0  0  0  0  0  0
   38.2530   14.8270   46.2180 O   0  0  0  0  0  0  0  0  0  0  0  0
   39.6100   14.6820   46.5090 C   0  0  0  0  0  0  0  0  0  0  0  0
   40.2750   14.2110   45.2150 C   0  0  0  0  0  0  0  0  0  0  0  0
   49.8520    2.3450   44.3130 O   0  0  0  0  0  0  0  0  0  0  0  0
   50.8400    2.0700   43.3470 C   0  0  0  0  0  0  0  0  0  0  0  0
   49.9840    4.3350   46.0290 H   0  0  0  0  0  0  0  0  0  0  0  0
   48.7550    6.4200   45.9680 H   0  0  0  0  0  0  0  0  0  0  0  0
   46.8430    5.2170   42.3990 H   0  0  0  0  0  0  0  0  0  0  0  0
   47.2430    8.0520   44.5980 H   0  0  0  0  0  0  0  0  0  0  0  0
   43.8770    6.4180   42.8760 H   0  0  0  0  0  0  0  0  0  0  0  0
   44.5690    6.2310   44.5060 H   0  0  0  0  0  0  0  0  0  0  0  0
   44.6730    8.2590   45.9280 H   0  0  0  0  0  0  0  0  0  0  0  0
   40.8220    9.6690   41.8960 H   0  0  0  0  0  0  0  0  0  0  0  0
   37.7720   13.2490   43.9880 H   0  0  0  0  0  0  0  0  0  0  0  0
   38.0140   11.7380   45.0250 H   0  0  0  0  0  0  0  0  0  0  0  0
   36.6310   13.6480   46.0100 H   0  0  0  0  0  0  0  0  0  0  0  0
   38.0210   12.9920   47.0360 H   0  0  0  0  0  0  0  0  0  0  0  0
   39.7210   13.9010   47.2750 H   0  0  0  0  0  0  0  0  0  0  0  0
   40.0840   15.6020   46.8600 H   0  0  0  0  0  0  0  0  0  0  0  0
   40.1490   14.9820   44.4270 H   0  0  0  0  0  0  0  0  0  0  0  0
   41.3410   14.0260   45.4630 H   0  0  0  0  0  0  0  0  0  0  0  0
   51.5110    2.9560   43.2910 H   0  0  0  0  0  0  0  0  0  0  0  0
   50.4270    1.9100   42.3420 H   0  0  0  0  0  0  0  0  0  0  0  0
   51.4800    1.2330   43.6950 H   0  0  0  0  0  0  0  0  0  0  0  0
  1  2  1  0  0  0  0
  2  3  1  0  0  0  0
  3 29  1  0  0  0  0
  3  4  2  0  0  0  0
  4 31  1  0  0  0  0
  5  4  1  0  0  0  0
  5 32  1  0  0  0  0
  6  5  2  0  0  0  0
  7  2  2  0  0  0  0
  7  6  1  0  0  0  0
  8  6  1  0  0  0  0
  8 34  1  0  0  0  0
  9 11  1  0  0  0  0
  9  8  1  0  0  0  0
 10  9  2  0  0  0  0
 11 12  1  0  0  0  0
 11 36  1  0  0  0  0
 12 13  1  0  0  0  0
 13 14  1  0  0  0  0
 13 37  1  0  0  0  0
 15 16  1  0  0  0  0
 15 14  2  0  0  0  0
 17 23  1  0  0  0  0
 17 16  2  0  0  0  0
 18 17  1  0  0  0  0
 19 18  2  0  0  0  0
 20 19  1  1  0  0  0
 20 15  1  0  0  0  0
 21 20  1  0  0  0  0
 21 12  1  0  0  0  0
 22 21  2  0  0  0  0
 23 24  1  0  0  0  0
 23 28  1  0  0  0  0
 24 40  1  0  0  0  0
 24 25  1  0  0  0  0
 25 26  1  0  0  0  0
 25 42  1  0  0  0  0
 26 27  1  0  0  0  0
 27 44  1  0  0  0  0
 27 43  1  0  0  0  0
 28 46  1  0  0  0  0
 28 27  1  0  0  0  0
 30 49  1  0  0  0  0
 30 29  1  0  0  0  0
 33  7  1  0  0  0  0
 35 11  1  0  0  0  0
 38 19  1  0  0  0  0
 39 24  1  0  0  0  0
 41 25  1  0  0  0  0
 45 28  1  0  0  0  0
 47 30  1  0  0  0  0
 48 30  1  0  0  0  0
M  END
>  <Pose>
1

>  <Score>
-7.20

$$$$
