
 OpenBabel03172210433D

 38 41  0  0  0  0  0  0  0  0999 V2000
   36.9370   11.2700   45.8700 Cl  0  0  0  0  0  0  0  0  0  0  0  0
   38.5840   11.6730   45.4060 C   0  0  0  0  0  0  0  0  0  0  0  0
   39.6410   10.8860   45.8180 C   0  0  0  0  0  0  0  0  0  0  0  0
   40.9210   11.1980   45.4570 C   0  0  0  0  0  0  0  0  0  0  0  0
   41.1270   12.3130   44.6770 C   0  0  0  0  0  0  0  0  0  0  0  0
   40.0880   13.1130   44.2550 C   0  0  0  0  0  0  0  0  0  0  0  0
   38.7980   12.7880   44.6250 C   0  0  0  0  0  0  0  0  0  0  0  0
   42.1060   10.4030   45.8590 C   0  0  0  0  0  0  0  0  0  0  0  0
   41.6190    9.2020   46.4930 N   0  0  0  0  0  0  0  0  0  0  0  0
   40.5630    9.3630   47.4650 C   0  0  0  0  0  0  0  0  0  0  0  0
   39.3030    9.7020   46.6610 C   0  0  0  0  0  0  0  0  0  0  0  0
   42.1300    7.9180   46.1960 C   0  0  0  0  0  0  0  0  0  0  0  0
   41.4540    6.8960   46.4860 O   0  0  0  0  0  0  0  0  0  0  0  0
   43.4450    7.6940   45.5490 C   0  0  0  0  0  0  0  0  0  0  0  0
   43.4200    6.6200   44.6620 O   0  0  0  0  0  0  0  0  0  0  0  0
   44.4600    6.2970   43.8000 C   0  0  0  0  0  0  0  0  0  0  0  0
   45.1010    5.1230   43.9530 N   0  0  0  0  0  0  0  0  0  0  0  0
   46.1050    4.7550   43.1610 N   0  0  0  0  0  0  0  0  0  0  0  0
   46.5450    5.5270   42.1580 C   0  0  0  0  0  0  0  0  0  0  0  0
   47.5620    4.9010   41.5330 N   0  0  0  0  0  0  0  0  0  0  0  0
   47.7400    3.7590   42.1510 N   0  0  0  0  0  0  0  0  0  0  0  0
   46.8580    3.6400   43.1570 C   0  0  0  0  0  0  0  0  0  0  0  0
   45.9070    6.7470   41.9690 C   0  0  0  0  0  0  0  0  0  0  0  0
   44.8700    7.1280   42.7870 C   0  0  0  0  0  0  0  0  0  0  0  0
   42.1260   12.6080   44.3610 H   0  0  0  0  0  0  0  0  0  0  0  0
   40.2770   13.9980   43.6320 H   0  0  0  0  0  0  0  0  0  0  0  0
   37.9440   13.3770   44.3240 H   0  0  0  0  0  0  0  0  0  0  0  0
   42.7440   10.9250   46.6010 H   0  0  0  0  0  0  0  0  0  0  0  0
   42.7490   10.1290   44.9990 H   0  0  0  0  0  0  0  0  0  0  0  0
   40.3980    8.4620   48.0840 H   0  0  0  0  0  0  0  0  0  0  0  0
   40.7520   10.2210   48.1410 H   0  0  0  0  0  0  0  0  0  0  0  0
   38.4540    9.9450   47.3010 H   0  0  0  0  0  0  0  0  0  0  0  0
   39.0630    8.8750   45.9740 H   0  0  0  0  0  0  0  0  0  0  0  0
   44.2630    7.5210   46.2760 H   0  0  0  0  0  0  0  0  0  0  0  0
   43.7120    8.6310   45.0000 H   0  0  0  0  0  0  0  0  0  0  0  0
   46.7400    2.8100   43.8640 H   0  0  0  0  0  0  0  0  0  0  0  0
   46.2530    7.3630   41.1740 H   0  0  0  0  0  0  0  0  0  0  0  0
   44.3500    8.0680   42.6700 H   0  0  0  0  0  0  0  0  0  0  0  0
  2  3  1  0  0  0  0
  2  1  1  0  0  0  0
  3 11  1  0  0  0  0
  4  3  2  0  0  0  0
  4  8  1  0  0  0  0
  5  4  1  0  0  0  0
  6  7  1  0  0  0  0
  6  5  2  0  0  0  0
  7  2  2  0  0  0  0
  8  9  1  0  0  0  0
  8 28  1  0  0  0  0
  9 10  1  0  0  0  0
 10 30  1  0  0  0  0
 10 31  1  0  0  0  0
 11 32  1  0  0  0  0
 11 10  1  0  0  0  0
 12 13  2  0  0  0  0
 12  9  1  0  0  0  0
 14 12  1  0  0  0  0
 14 34  1  0  0  0  0
 15 14  1  0  0  0  0
 16 17  2  0  0  0  0
 16 15  1  0  0  0  0
 18 17  1  0  0  0  0
 19 18  1  0  0  0  0
 20 21  1  0  0  0  0
 20 19  2  0  0  0  0
 21 22  2  0  0  0  0
 22 18  1  0  0  0  0
 22 36  1  0  0  0  0
 23 19  1  0  0  0  0
 23 24  2  0  0  0  0
 24 16  1  0  0  0  0
 25  5  1  0  0  0  0
 26  6  1  0  0  0  0
 27  7  1  0  0  0  0
 29  8  1  0  0  0  0
 33 11  1  0  0  0  0
 35 14  1  0  0  0  0
 37 23  1  0  0  0  0
 38 24  1  0  0  0  0
M  END
>  <Pose>
1

>  <Score>
-6.02

$$$$
