
 OpenBabel03172210433D

 52 55  0  0  0  0  0  0  0  0999 V2000
   39.2600   13.4320   43.4750 Cl  0  0  0  0  0  0  0  0  0  0  0  0
   39.8100   13.7640   45.1150 C   0  0  0  0  0  0  0  0  0  0  0  0
   41.0470   13.4140   45.5790 C   0  0  0  0  0  0  0  0  0  0  0  0
   41.4750   13.6760   46.8900 C   0  0  0  0  0  0  0  0  0  0  0  0
   40.6010   14.3110   47.7180 C   0  0  0  0  0  0  0  0  0  0  0  0
   39.3450   14.6690   47.2510 C   0  0  0  0  0  0  0  0  0  0  0  0
   38.9320   14.4070   45.9600 C   0  0  0  0  0  0  0  0  0  0  0  0
   42.8480   13.2520   47.2730 C   0  0  0  0  0  0  0  0  0  0  0  0
   43.8520   13.4420   46.2800 N   0  0  0  0  0  0  0  0  0  0  0  0
   44.6890   14.5160   46.2610 C   0  0  0  0  0  0  0  0  0  0  0  0
   45.4970   14.3910   45.1610 C   0  0  0  0  0  0  0  0  0  0  0  0
   45.1290   13.2620   44.5580 N   0  0  0  0  0  0  0  0  0  0  0  0
   44.1150   12.6570   45.2330 C   0  0  0  0  0  0  0  0  0  0  0  0
   43.5250   11.3950   44.8560 N   0  0  0  0  0  0  0  0  0  0  0  0
   43.4990   11.1260   43.4370 C   0  0  0  0  0  0  0  0  0  0  0  0
   42.9550    9.7640   43.0880 C   0  0  0  0  0  0  0  0  0  0  0  0
   43.5710    8.8160   43.9420 N   0  0  0  0  0  0  0  0  0  0  0  0
   43.2170    9.0110   45.3080 C   0  0  0  0  0  0  0  0  0  0  0  0
   42.9800   10.4270   45.7440 C   0  0  0  0  0  0  0  0  0  0  0  0
   44.9780    8.7480   43.7000 C   0  0  0  0  0  0  0  0  0  0  0  0
   45.5570    7.3820   43.8590 C   0  0  0  0  0  0  0  0  0  0  0  0
   45.3510    6.4410   43.0760 O   0  0  0  0  0  0  0  0  0  0  0  0
   46.3950    7.2080   45.0100 N   0  0  0  0  0  0  0  0  0  0  0  0
   46.4270   15.3370   44.9400 N   0  0  0  0  0  0  0  0  0  0  0  0
   46.5790   16.3990   45.7760 C   0  0  0  0  0  0  0  0  0  0  0  0
   47.4550   17.2980   45.5750 O   0  0  0  0  0  0  0  0  0  0  0  0
   45.8020   16.5470   46.8630 N   0  0  0  0  0  0  0  0  0  0  0  0
   44.8690   15.6140   47.0990 C   0  0  0  0  0  0  0  0  0  0  0  0
   44.1630   15.7800   48.1190 O   0  0  0  0  0  0  0  0  0  0  0  0
   47.3030   15.2480   43.8010 C   0  0  0  0  0  0  0  0  0  0  0  0
   41.7100   12.9070   44.8910 H   0  0  0  0  0  0  0  0  0  0  0  0
   40.8800   14.5460   48.7340 H   0  0  0  0  0  0  0  0  0  0  0  0
   38.6500   15.1790   47.9220 H   0  0  0  0  0  0  0  0  0  0  0  0
   37.9280   14.7110   45.6350 H   0  0  0  0  0  0  0  0  0  0  0  0
   43.0840   13.8040   48.2050 H   0  0  0  0  0  0  0  0  0  0  0  0
   42.8040   12.1810   47.5910 H   0  0  0  0  0  0  0  0  0  0  0  0
   42.7720   11.8670   42.9690 H   0  0  0  0  0  0  0  0  0  0  0  0
   44.4690   11.3670   42.9750 H   0  0  0  0  0  0  0  0  0  0  0  0
   43.1900    9.5690   42.0320 H   0  0  0  0  0  0  0  0  0  0  0  0
   41.8410    9.7450   43.1580 H   0  0  0  0  0  0  0  0  0  0  0  0
   44.0440    8.5330   45.9150 H   0  0  0  0  0  0  0  0  0  0  0  0
   42.3000    8.3880   45.4940 H   0  0  0  0  0  0  0  0  0  0  0  0
   43.3670   10.5120   46.7840 H   0  0  0  0  0  0  0  0  0  0  0  0
   41.8590   10.5650   45.8800 H   0  0  0  0  0  0  0  0  0  0  0  0
   45.2580    9.0550   42.6550 H   0  0  0  0  0  0  0  0  0  0  0  0
   45.4880    9.3950   44.4640 H   0  0  0  0  0  0  0  0  0  0  0  0
   46.2430    6.4280   45.6880 H   0  0  0  0  0  0  0  0  0  0  0  0
   47.1550    7.8670   45.1630 H   0  0  0  0  0  0  0  0  0  0  0  0
   45.9240   17.3800   47.5150 H   0  0  0  0  0  0  0  0  0  0  0  0
   47.4210   14.1710   43.5440 H   0  0  0  0  0  0  0  0  0  0  0  0
   48.2960   15.6700   44.0210 H   0  0  0  0  0  0  0  0  0  0  0  0
   46.8750   15.8320   42.9550 H   0  0  0  0  0  0  0  0  0  0  0  0
  1  2  1  0  0  0  0
  2  3  2  0  0  0  0
  2  7  1  0  0  0  0
  3  4  1  0  0  0  0
  4  8  1  0  0  0  0
  4  5  2  0  0  0  0
  5 32  1  0  0  0  0
  6  5  1  0  0  0  0
  6 33  1  0  0  0  0
  7  6  2  0  0  0  0
  8 36  1  0  0  0  0
  8 35  1  0  0  0  0
  9  8  1  0  0  0  0
 10  9  1  0  0  0  0
 10 28  1  0  0  0  0
 11 10  2  0  0  0  0
 12 11  1  0  0  0  0
 12 13  2  0  0  0  0
 13  9  1  0  0  0  0
 14 13  1  0  0  0  0
 14 19  1  0  0  0  0
 15 14  1  0  0  0  0
 16 40  1  0  0  0  0
 16 15  1  0  0  0  0
 16 17  1  0  0  0  0
 17 18  1  0  0  0  0
 18 42  1  0  0  0  0
 18 19  1  0  0  0  0
 18 41  1  0  0  0  0
 19 44  1  0  0  0  0
 19 43  1  0  0  0  0
 20 21  1  0  0  0  0
 20 17  1  0  0  0  0
 20 46  1  0  0  0  0
 21 23  1  0  0  0  0
 22 21  2  0  0  0  0
 23 48  1  0  0  0  0
 23 47  1  0  0  0  0
 24 11  1  0  0  0  0
 24 25  1  0  0  0  0
 25 27  1  0  0  0  0
 26 25  2  0  0  0  0
 27 28  1  0  0  0  0
 27 49  1  0  0  0  0
 28 29  2  0  0  0  0
 30 51  1  0  0  0  0
 30 24  1  0  0  0  0
 31  3  1  0  0  0  0
 34  7  1  0  0  0  0
 37 15  1  0  0  0  0
 38 15  1  0  0  0  0
 39 16  1  0  0  0  0
 45 20  1  0  0  0  0
 50 30  1  0  0  0  0
 52 30  1  0  0  0  0
M  END
>  <Pose>
1

>  <Score>
-5.74

$$$$
