
 OpenBabel03172210433D

 46 49  0  0  0  0  0  0  0  0999 V2000
   39.0650    9.4260   48.7310 Cl  0  0  0  0  0  0  0  0  0  0  0  0
   40.6800    9.7570   48.1360 C   0  0  0  0  0  0  0  0  0  0  0  0
   40.9200   10.4640   46.9760 C   0  0  0  0  0  0  0  0  0  0  0  0
   42.1860   10.7270   46.5050 C   0  0  0  0  0  0  0  0  0  0  0  0
   43.2790   10.2730   47.2060 C   0  0  0  0  0  0  0  0  0  0  0  0
   43.0570    9.5610   48.3720 C   0  0  0  0  0  0  0  0  0  0  0  0
   41.7830    9.3040   48.8330 C   0  0  0  0  0  0  0  0  0  0  0  0
   42.4010   11.4900   45.2570 C   0  0  0  0  0  0  0  0  0  0  0  0
   42.0230   10.7500   44.0760 N   0  0  0  0  0  0  0  0  0  0  0  0
   40.7060   10.5270   43.5510 C   0  0  0  0  0  0  0  0  0  0  0  0
   39.6310   10.9710   44.0740 O   0  0  0  0  0  0  0  0  0  0  0  0
   40.8040    9.7420   42.3660 N   0  0  0  0  0  0  0  0  0  0  0  0
   42.0840    9.0740   42.4460 C   0  0  0  0  0  0  0  0  0  0  0  0
   41.9090    7.8950   43.3840 C   0  0  0  0  0  0  0  0  0  0  0  0
   43.3140    7.4780   43.8060 C   0  0  0  0  0  0  0  0  0  0  0  0
   44.1710    7.3690   42.6400 N   0  0  0  0  0  0  0  0  0  0  0  0
   43.6060    7.5120   41.3240 C   0  0  0  0  0  0  0  0  0  0  0  0
   42.6440    8.6420   41.1590 C   0  0  0  0  0  0  0  0  0  0  0  0
   45.5570    7.1170   42.8060 C   0  0  0  0  0  0  0  0  0  0  0  0
   46.3490    8.0900   43.0200 O   0  0  0  0  0  0  0  0  0  0  0  0
   46.1450    5.7900   42.7440 C   0  0  0  0  0  0  0  0  0  0  0  0
   46.9550    5.3990   41.7400 N   0  0  0  0  0  0  0  0  0  0  0  0
   47.4640    4.1550   41.7460 C   0  0  0  0  0  0  0  0  0  0  0  0
   47.1900    3.2480   42.7480 C   0  0  0  0  0  0  0  0  0  0  0  0
   46.3840    3.6330   43.7490 N   0  0  0  0  0  0  0  0  0  0  0  0
   45.8660    4.8920   43.7470 C   0  0  0  0  0  0  0  0  0  0  0  0
   42.8990   10.0780   43.1740 C   0  0  0  0  0  0  0  0  0  0  0  0
   44.1270   10.3470   43.0760 O   0  0  0  0  0  0  0  0  0  0  0  0
   40.0460   10.8130   46.4400 H   0  0  0  0  0  0  0  0  0  0  0  0
   44.3100   10.4470   46.8860 H   0  0  0  0  0  0  0  0  0  0  0  0
   43.9310    9.2030   48.9220 H   0  0  0  0  0  0  0  0  0  0  0  0
   41.6090    8.7460   49.7460 H   0  0  0  0  0  0  0  0  0  0  0  0
   41.8760   12.4520   45.3550 H   0  0  0  0  0  0  0  0  0  0  0  0
   43.4920   11.7490   45.1440 H   0  0  0  0  0  0  0  0  0  0  0  0
   40.1060    9.6610   41.6030 H   0  0  0  0  0  0  0  0  0  0  0  0
   41.3430    8.2760   44.2590 H   0  0  0  0  0  0  0  0  0  0  0  0
   41.3770    7.0660   42.8790 H   0  0  0  0  0  0  0  0  0  0  0  0
   43.3110    6.5290   44.3340 H   0  0  0  0  0  0  0  0  0  0  0  0
   43.6680    8.2700   44.4950 H   0  0  0  0  0  0  0  0  0  0  0  0
   43.1650    6.5240   41.0630 H   0  0  0  0  0  0  0  0  0  0  0  0
   44.4190    7.6770   40.5590 H   0  0  0  0  0  0  0  0  0  0  0  0
   41.7870    8.2290   40.5450 H   0  0  0  0  0  0  0  0  0  0  0  0
   43.0420    9.4620   40.5240 H   0  0  0  0  0  0  0  0  0  0  0  0
   48.1220    3.8280   40.9370 H   0  0  0  0  0  0  0  0  0  0  0  0
   47.6280    2.2630   42.6970 H   0  0  0  0  0  0  0  0  0  0  0  0
   45.2100    5.1670   44.5870 H   0  0  0  0  0  0  0  0  0  0  0  0
  2  1  1  0  0  0  0
  2  7  1  0  0  0  0
  3  2  2  0  0  0  0
  4  3  1  0  0  0  0
  4  5  2  0  0  0  0
  5  6  1  0  0  0  0
  6  7  2  0  0  0  0
  6 31  1  0  0  0  0
  7 32  1  0  0  0  0
  8 33  1  0  0  0  0
  8  4  1  0  0  0  0
  9  8  1  0  0  0  0
 10 11  2  0  0  0  0
 10  9  1  0  0  0  0
 12 13  1  0  0  0  0
 12 10  1  0  0  0  0
 13 27  1  0  0  0  0
 13 14  1  0  0  0  0
 14 15  1  0  0  0  0
 14 36  1  0  0  0  0
 15 38  1  0  0  0  0
 15 39  1  0  0  0  0
 16 19  1  0  0  0  0
 16 15  1  0  0  0  0
 17 16  1  0  0  0  0
 18 17  1  0  0  0  0
 18 13  1  0  0  0  0
 19 20  2  0  0  0  0
 21 19  1  0  0  0  0
 21 26  1  0  0  0  0
 22 23  1  0  0  0  0
 22 21  2  0  0  0  0
 23 24  2  0  0  0  0
 24 25  1  0  0  0  0
 26 25  2  0  0  0  0
 26 46  1  0  0  0  0
 27  9  1  0  0  0  0
 28 27  2  0  0  0  0
 29  3  1  0  0  0  0
 30  5  1  0  0  0  0
 34  8  1  0  0  0  0
 35 12  1  0  0  0  0
 37 14  1  0  0  0  0
 40 17  1  0  0  0  0
 41 17  1  0  0  0  0
 42 18  1  0  0  0  0
 43 18  1  0  0  0  0
 44 23  1  0  0  0  0
 45 24  1  0  0  0  0
M  END
>  <Pose>
1

>  <Score>
-6.91

$$$$
