
 OpenBabel03172210433D

 37 40  0  0  0  0  0  0  0  0999 V2000
   50.9190    0.2070   43.3480 Cl  0  0  0  0  0  0  0  0  0  0  0  0
   49.9420    1.6730   43.3540 C   0  0  0  0  0  0  0  0  0  0  0  0
   48.9900    1.8980   42.3830 C   0  0  0  0  0  0  0  0  0  0  0  0
   48.2220    3.0480   42.3860 C   0  0  0  0  0  0  0  0  0  0  0  0
   48.3710    4.0170   43.3540 C   0  0  0  0  0  0  0  0  0  0  0  0
   49.3280    3.7820   44.3250 C   0  0  0  0  0  0  0  0  0  0  0  0
   50.1000    2.6360   44.3290 C   0  0  0  0  0  0  0  0  0  0  0  0
   47.5740    5.2010   43.3500 N   0  0  0  0  0  0  0  0  0  0  0  0
   46.2530    5.3050   43.6170 C   0  0  0  0  0  0  0  0  0  0  0  0
   45.5210    4.3390   43.9170 O   0  0  0  0  0  0  0  0  0  0  0  0
   45.8280    6.6190   43.5130 C   0  0  0  0  0  0  0  0  0  0  0  0
   46.9150    7.3280   43.1750 C   0  0  0  0  0  0  0  0  0  0  0  0
   46.4920    8.6010   43.0790 N   0  0  0  0  0  0  0  0  0  0  0  0
   45.2000    8.6610   43.3470 N   0  0  0  0  0  0  0  0  0  0  0  0
   44.7750    7.4460   43.6170 N   0  0  0  0  0  0  0  0  0  0  0  0
   43.4290    7.0500   43.9580 C   0  0  0  0  0  0  0  0  0  0  0  0
   42.4620    8.1690   43.9630 C   0  0  0  0  0  0  0  0  0  0  0  0
   42.1020    8.7510   45.1530 C   0  0  0  0  0  0  0  0  0  0  0  0
   41.1980    9.7880   45.1350 C   0  0  0  0  0  0  0  0  0  0  0  0
   40.6510   10.2500   43.9510 C   0  0  0  0  0  0  0  0  0  0  0  0
   41.0110    9.6660   42.7580 C   0  0  0  0  0  0  0  0  0  0  0  0
   41.9100    8.6370   42.7930 C   0  0  0  0  0  0  0  0  0  0  0  0
   47.9730    6.4500   43.0800 C   0  0  0  0  0  0  0  0  0  0  0  0
   49.1530    6.7790   42.7780 O   0  0  0  0  0  0  0  0  0  0  0  0
   48.8810    1.1310   41.6270 H   0  0  0  0  0  0  0  0  0  0  0  0
   47.4730    3.2200   41.6190 H   0  0  0  0  0  0  0  0  0  0  0  0
   49.4610    4.5240   45.0890 H   0  0  0  0  0  0  0  0  0  0  0  0
   50.8580    2.4530   45.1010 H   0  0  0  0  0  0  0  0  0  0  0  0
   47.0650    9.4350   42.8340 H   0  0  0  0  0  0  0  0  0  0  0  0
   44.5980    9.5370   43.3470 H   0  0  0  0  0  0  0  0  0  0  0  0
   43.0750    6.2860   43.2110 H   0  0  0  0  0  0  0  0  0  0  0  0
   43.4030    6.5080   44.9430 H   0  0  0  0  0  0  0  0  0  0  0  0
   42.5180    8.4100   46.1130 H   0  0  0  0  0  0  0  0  0  0  0  0
   40.9170   10.2490   46.0910 H   0  0  0  0  0  0  0  0  0  0  0  0
   39.9310   11.0750   43.9250 H   0  0  0  0  0  0  0  0  0  0  0  0
   40.6010   10.0030   41.8210 H   0  0  0  0  0  0  0  0  0  0  0  0
   42.1750    8.1920   41.8240 H   0  0  0  0  0  0  0  0  0  0  0  0
  1  2  1  0  0  0  0
  2  7  1  0  0  0  0
  3  4  1  0  0  0  0
  3  2  2  0  0  0  0
  4  5  2  0  0  0  0
  5  6  1  0  0  0  0
  6  7  2  0  0  0  0
  6 27  1  0  0  0  0
  7 28  1  0  0  0  0
  8  5  1  0  0  0  0
  8  9  1  0  0  0  0
  9 10  2  0  0  0  0
 11 15  1  0  0  0  0
 11  9  1  0  0  0  0
 12 11  2  0  0  0  0
 13 12  1  0  0  0  0
 13 14  1  0  0  0  0
 14 30  1  0  0  0  0
 14 15  1  0  0  0  0
 15 16  1  0  0  0  0
 16 17  1  0  0  0  0
 16 32  1  0  0  0  0
 17 18  1  0  0  0  0
 18 33  1  0  0  0  0
 19 18  2  0  0  0  0
 19 34  1  0  0  0  0
 20 19  1  0  0  0  0
 21 22  1  0  0  0  0
 21 20  2  0  0  0  0
 22 17  2  0  0  0  0
 23 12  1  0  0  0  0
 23  8  1  0  0  0  0
 24 23  2  0  0  0  0
 25  3  1  0  0  0  0
 26  4  1  0  0  0  0
 29 13  1  0  0  0  0
 31 16  1  0  0  0  0
 35 20  1  0  0  0  0
 36 21  1  0  0  0  0
 37 22  1  0  0  0  0
M  END
>  <Pose>
1

>  <Score>
-6.16

$$$$
